=
 OpenBabel11052422043D

 30 30  0  0  1  0  0  0  0  0999 V2000
  160.7990  204.9560  152.0160 C   0  0  2  0  0  3  0  0  0  0  0  0
  160.5820  209.1350  153.4350 O   0  0  0  0  0  1  0  0  0  0  0  0
  163.3150  206.9870  151.3470 O   0  0  0  0  0  1  0  0  0  0  0  0
  161.0510  207.8780  151.4340 C   0  0  2  0  0  3  0  0  0  0  0  0
  161.4140  205.4820  153.3010 C   0  0  0  0  0  2  0  0  0  0  0  0
  160.7830  203.4400  152.0760 C   0  0  0  0  0  1  0  0  0  0  0  0
  161.2410  207.9940  152.9600 C   0  0  2  0  0  3  0  0  0  0  0  0
  160.7170  206.7670  153.7170 C   0  0  2  0  0  3  0  0  0  0  0  0
  162.0370  206.8870  150.7920 C   0  0  2  0  0  3  0  0  0  0  0  0
  160.9220  206.9490  155.2110 C   0  0  0  0  0  1  0  0  0  0  0  0
  161.5650  205.4220  150.7710 C   0  0  2  0  0  3  0  0  0  0  0  0
  160.7850  205.0760  149.4910 C   0  0  1  0  0  3  0  0  0  0  0  0
  160.2150  206.2080  148.9050 O   0  0  0  0  0  1  0  0  0  0  0  0
  161.5720  204.2490  148.4630 C   0  0  2  0  0  3  0  0  0  0  0  0
  163.3870  204.7840  146.5420 O   0  0  0  0  0  0  0  0  0  0  0  0
  162.1330  206.6780  147.4590 O   0  0  0  0  0  0  0  0  0  0  0  0
  162.0450  205.2350  147.0480 S   0  0  0  0  0  0  0  0  0  0  0  0
  160.8330  205.0590  145.7490 C   0  0  0  0  0  3  0  0  0  0  0  0
  160.2590  206.4120  145.3830 C   0  0  0  0  0  1  0  0  0  0  0  0
  161.4680  204.4300  144.5250 C   0  0  0  0  0  1  0  0  0  0  0  0
  160.8540  202.9830  148.0110 C   0  0  0  0  0  2  0  0  0  0  0  0
  160.3810  202.1880  149.2110 C   0  0  0  0  0  2  0  0  0  0  0  0
  161.4800  200.4000  147.9060 C   0  0  0  0  0  1  0  0  0  0  0  0
  161.1670  200.8970  149.3000 C   0  0  0  0  0  2  0  0  0  0  0  0
  161.2250  209.2350  150.7600 C   0  0  0  0  0  2  0  0  0  0  0  0
  162.0160  209.0880  149.4760 C   0  0  0  0  0  2  0  0  0  0  0  0
  162.2090  211.4570  148.2640 C   0  0  0  0  0  0  0  0  0  0  0  0
  162.1210  210.3880  148.8150 C   0  0  0  0  0  0  0  0  0  0  0  0
  162.3160  212.7530  147.5950 C   0  0  0  0  0  2  0  0  0  0  0  0
  163.4840  213.3780  147.9860 F   0  0  0  0  0  0  0  0  0  0  0  0
  1  6  1  1  0  0  0
  1  5  1  0  0  0  0
  4 25  1  6  0  0  0
  4  7  1  0  0  0  0
  5  8  1  0  0  0  0
  7  2  1  1  0  0  0
  7  8  1  0  0  0  0
  8 10  1  1  0  0  0
  9  3  1  1  0  0  0
  9  4  1  0  0  0  0
 11 12  1  6  0  0  0
 11  9  1  0  0  0  0
 11  1  1  0  0  0  0
 12 13  1  6  0  0  0
 14 21  1  6  0  0  0
 14 12  1  0  0  0  0
 15 17  2  0  0  0  0
 17 16  2  0  0  0  0
 17 14  1  0  0  0  0
 18 17  1  0  0  0  0
 19 18  1  0  0  0  0
 20 18  1  0  0  0  0
 21 22  1  0  0  0  0
 22 24  1  0  0  0  0
 23 24  1  0  0  0  0
 26 25  1  0  0  0  0
 27 28  3  0  0  0  0
 28 26  1  0  0  0  0
 29 30  1  0  0  0  0
 29 27  1  0  0  0  0
M  END
>  <MODEL>
1

>  <REMARK>
 VINA RESULT:      -7.9      0.000      0.000
  Name = 
  11 active torsions:
  status: ('A' for Active; 'I' for Inactive)
    1  A    between atoms: C_1  and  C_4
    2  A    between atoms: C_1  and  C_29
    3  A    between atoms: C_4  and  C_5
    4  A    between atoms: C_4  and  S_12
    5  A    between atoms: C_5  and  C_21
    6  A    between atoms: C_10  and  C_16
    7  A    between atoms: C_11  and  C_24
    8  A    between atoms: S_12  and  C_13
    9  A    between atoms: C_15  and  C_24
   10  A    between atoms: C_15  and  C_25
   11  A    between atoms: C_17  and  C_21
                            x       y       z     vdW  Elec       q    Type
                         _______ _______ _______ _____ _____    ______ ____

>  <TORSDO>
F 11

$$$$
=
 OpenBabel11052422043D

 30 30  0  0  1  0  0  0  0  0999 V2000
  161.3000  204.2410  151.0660 C   0  0  2  0  0  3  0  0  0  0  0  0
  162.1580  204.7580  146.7630 O   0  0  0  0  0  1  0  0  0  0  0  0
  159.3910  206.2830  149.3060 O   0  0  0  0  0  1  0  0  0  0  0  0
  161.7510  206.0690  148.7430 C   0  0  2  0  0  3  0  0  0  0  0  0
  160.6180  203.4900  149.9360 C   0  0  0  0  0  2  0  0  0  0  0  0
  160.9920  203.5310  152.3710 C   0  0  0  0  0  1  0  0  0  0  0  0
  161.3580  204.8320  147.9090 C   0  0  2  0  0  3  0  0  0  0  0  0
  161.4940  203.5210  148.6940 C   0  0  2  0  0  3  0  0  0  0  0  0
  160.6910  206.4280  149.7980 C   0  0  2  0  0  3  0  0  0  0  0  0
  161.1050  202.3450  147.8170 C   0  0  0  0  0  1  0  0  0  0  0  0
  160.8470  205.7050  151.1480 C   0  0  2  0  0  3  0  0  0  0  0  0
  161.7240  206.4920  152.1370 C   0  0  1  0  0  3  0  0  0  0  0  0
  162.7470  207.1870  151.4870 O   0  0  0  0  0  1  0  0  0  0  0  0
  160.9490  207.4040  153.0990 C   0  0  2  0  0  3  0  0  0  0  0  0
  160.6870  209.3200  151.2200 O   0  0  0  0  0  0  0  0  0  0  0  0
  162.5500  209.5410  152.7940 O   0  0  0  0  0  0  0  0  0  0  0  0
  161.1130  209.1270  152.6490 S   0  0  0  0  0  0  0  0  0  0  0  0
  160.0910  210.1350  153.7110 C   0  0  0  0  0  3  0  0  0  0  0  0
  160.9590  210.9930  154.6090 C   0  0  0  0  0  1  0  0  0  0  0  0
  159.1910  211.0250  152.8770 C   0  0  0  0  0  1  0  0  0  0  0  0
  161.3110  207.2020  154.5650 C   0  0  0  0  0  2  0  0  0  0  0  0
  160.0610  206.9840  155.3930 C   0  0  0  0  0  2  0  0  0  0  0  0
  161.6260  208.1800  156.8850 C   0  0  0  0  0  1  0  0  0  0  0  0
  160.3210  207.4180  156.8200 C   0  0  0  0  0  2  0  0  0  0  0  0
  161.9670  207.2820  147.8450 C   0  0  0  0  0  2  0  0  0  0  0  0
  162.9340  208.2530  148.4950 C   0  0  0  0  0  2  0  0  0  0  0  0
  161.9140  210.7160  148.4040 C   0  0  0  0  0  0  0  0  0  0  0  0
  162.3780  209.6040  148.4450 C   0  0  0  0  0  0  0  0  0  0  0  0
  161.3500  212.0640  148.3540 C   0  0  0  0  0  2  0  0  0  0  0  0
  161.0240  212.4750  149.6320 F   0  0  0  0  0  0  0  0  0  0  0  0
  1 11  1  0  0  0  0
  1  6  1  1  0  0  0
  4 25  1  6  0  0  0
  4  9  1  0  0  0  0
  5  1  1  0  0  0  0
  7  2  1  6  0  0  0
  7  8  1  0  0  0  0
  7  4  1  0  0  0  0
  8 10  1  6  0  0  0
  8  5  1  0  0  0  0
  9  3  1  6  0  0  0
  9 11  1  0  0  0  0
 11 12  1  1  0  0  0
 12 13  1  6  0  0  0
 12 14  1  0  0  0  0
 14 21  1  1  0  0  0
 15 17  2  0  0  0  0
 17 16  2  0  0  0  0
 17 14  1  0  0  0  0
 17 18  1  0  0  0  0
 18 19  1  0  0  0  0
 20 18  1  0  0  0  0
 21 22  1  0  0  0  0
 22 24  1  0  0  0  0
 24 23  1  0  0  0  0
 25 26  1  0  0  0  0
 27 28  3  0  0  0  0
 28 26  1  0  0  0  0
 29 27  1  0  0  0  0
 29 30  1  0  0  0  0
M  END
>  <MODEL>
2

>  <REMARK>
 VINA RESULT:      -6.4      2.103      6.225
  Name = 
  11 active torsions:
  status: ('A' for Active; 'I' for Inactive)
    1  A    between atoms: C_1  and  C_4
    2  A    between atoms: C_1  and  C_29
    3  A    between atoms: C_4  and  C_5
    4  A    between atoms: C_4  and  S_12
    5  A    between atoms: C_5  and  C_21
    6  A    between atoms: C_10  and  C_16
    7  A    between atoms: C_11  and  C_24
    8  A    between atoms: S_12  and  C_13
    9  A    between atoms: C_15  and  C_24
   10  A    between atoms: C_15  and  C_25
   11  A    between atoms: C_17  and  C_21
                            x       y       z     vdW  Elec       q    Type
                         _______ _______ _______ _____ _____    ______ ____

>  <TORSDO>
F 11

$$$$
=
 OpenBabel11052422043D

 30 30  0  0  1  0  0  0  0  0999 V2000
  160.8350  204.8560  152.0290 C   0  0  2  0  0  3  0  0  0  0  0  0
  160.4190  208.9780  153.5640 O   0  0  0  0  0  1  0  0  0  0  0  0
  163.2170  207.0430  151.3570 O   0  0  0  0  0  1  0  0  0  0  0  0
  160.9090  207.8020  151.5190 C   0  0  2  0  0  3  0  0  0  0  0  0
  161.4510  205.3830  153.3130 C   0  0  0  0  0  2  0  0  0  0  0  0
  160.9060  203.3400  152.0480 C   0  0  0  0  0  1  0  0  0  0  0  0
  161.1290  207.8900  153.0430 C   0  0  2  0  0  3  0  0  0  0  0  0
  160.6930  206.6160  153.7790 C   0  0  2  0  0  3  0  0  0  0  0  0
  161.9330  206.8850  150.8300 C   0  0  2  0  0  3  0  0  0  0  0  0
  160.9250  206.7710  155.2720 C   0  0  0  0  0  1  0  0  0  0  0  0
  161.5440  205.3960  150.7790 C   0  0  2  0  0  3  0  0  0  0  0  0
  160.7530  205.0400  149.5090 C   0  0  1  0  0  3  0  0  0  0  0  0
  160.1800  206.1680  148.9170 O   0  0  0  0  0  1  0  0  0  0  0  0
  161.5310  204.2020  148.4820 C   0  0  2  0  0  3  0  0  0  0  0  0
  163.3570  204.7010  146.5620 O   0  0  0  0  0  0  0  0  0  0  0  0
  162.1510  206.6210  147.4900 O   0  0  0  0  0  0  0  0  0  0  0  0
  162.0270  205.1830  147.0720 S   0  0  0  0  0  0  0  0  0  0  0  0
  160.8100  205.0430  145.7730 C   0  0  0  0  0  3  0  0  0  0  0  0
  160.3110  206.4170  145.3740 C   0  0  0  0  0  1  0  0  0  0  0  0
  161.4130  204.3520  144.5660 C   0  0  0  0  0  1  0  0  0  0  0  0
  160.7940  202.9490  148.0250 C   0  0  0  0  0  2  0  0  0  0  0  0
  160.8860  201.8670  149.0820 C   0  0  0  0  0  2  0  0  0  0  0  0
  161.1560  200.6210  146.9640 C   0  0  0  0  0  1  0  0  0  0  0  0
  161.4180  200.5960  148.4550 C   0  0  0  0  0  2  0  0  0  0  0  0
  160.9900  209.1830  150.8790 C   0  0  0  0  0  2  0  0  0  0  0  0
  161.6090  210.1750  151.8430 C   0  0  0  0  0  2  0  0  0  0  0  0
  160.0290  212.3140  152.0620 C   0  0  0  0  0  0  0  0  0  0  0  0
  160.7410  211.3460  151.9650 C   0  0  0  0  0  0  0  0  0  0  0  0
  159.1670  213.4890  152.1790 C   0  0  0  0  0  2  0  0  0  0  0  0
  157.9690  213.1250  152.7650 F   0  0  0  0  0  0  0  0  0  0  0  0
  1  6  1  1  0  0  0
  1  5  1  0  0  0  0
  4 25  1  6  0  0  0
  4  7  1  0  0  0  0
  5  8  1  0  0  0  0
  7  2  1  1  0  0  0
  7  8  1  0  0  0  0
  8 10  1  1  0  0  0
  9  3  1  1  0  0  0
  9  4  1  0  0  0  0
 11 12  1  6  0  0  0
 11  9  1  0  0  0  0
 11  1  1  0  0  0  0
 12 13  1  6  0  0  0
 14 21  1  6  0  0  0
 14 12  1  0  0  0  0
 15 17  2  0  0  0  0
 17 16  2  0  0  0  0
 17 14  1  0  0  0  0
 18 17  1  0  0  0  0
 19 18  1  0  0  0  0
 20 18  1  0  0  0  0
 21 22  1  0  0  0  0
 23 24  1  0  0  0  0
 24 22  1  0  0  0  0
 25 26  1  0  0  0  0
 26 28  1  0  0  0  0
 27 29  1  0  0  0  0
 28 27  3  0  0  0  0
 29 30  1  0  0  0  0
M  END
>  <MODEL>
3

>  <REMARK>
 VINA RESULT:      -6.3      1.847      2.058
  Name = 
  11 active torsions:
  status: ('A' for Active; 'I' for Inactive)
    1  A    between atoms: C_1  and  C_4
    2  A    between atoms: C_1  and  C_29
    3  A    between atoms: C_4  and  C_5
    4  A    between atoms: C_4  and  S_12
    5  A    between atoms: C_5  and  C_21
    6  A    between atoms: C_10  and  C_16
    7  A    between atoms: C_11  and  C_24
    8  A    between atoms: S_12  and  C_13
    9  A    between atoms: C_15  and  C_24
   10  A    between atoms: C_15  and  C_25
   11  A    between atoms: C_17  and  C_21
                            x       y       z     vdW  Elec       q    Type
                         _______ _______ _______ _____ _____    ______ ____

>  <TORSDO>
F 11

$$$$
=
 OpenBabel11052422043D

 30 30  0  0  1  0  0  0  0  0999 V2000
  161.6370  208.7340  150.8650 C   0  0  2  0  0  3  0  0  0  0  0  0
  160.5720  204.9540  148.8390 O   0  0  0  0  0  1  0  0  0  0  0  0
  163.0210  205.9270  151.9220 O   0  0  0  0  0  1  0  0  0  0  0  0
  160.7460  205.8860  151.0540 C   0  0  2  0  0  3  0  0  0  0  0  0
  162.4320  208.0790  149.7490 C   0  0  0  0  0  2  0  0  0  0  0  0
  162.1240  210.1620  151.0290 C   0  0  0  0  0  1  0  0  0  0  0  0
  161.3690  205.7730  149.6480 C   0  0  2  0  0  3  0  0  0  0  0  0
  161.5360  207.1360  148.9630 C   0  0  2  0  0  3  0  0  0  0  0  0
  161.7340  206.4440  152.0920 C   0  0  2  0  0  3  0  0  0  0  0  0
  162.1420  206.9550  147.5820 C   0  0  0  0  0  1  0  0  0  0  0  0
  161.7720  207.9790  152.1950 C   0  0  2  0  0  3  0  0  0  0  0  0
  160.7740  208.5230  153.2320 C   0  0  1  0  0  3  0  0  0  0  0  0
  160.2090  207.5000  153.9980 O   0  0  0  0  0  1  0  0  0  0  0  0
  161.3210  209.6520  154.1190 C   0  0  2  0  0  3  0  0  0  0  0  0
  161.8070  207.8770  156.0900 O   0  0  0  0  0  0  0  0  0  0  0  0
  159.7650  209.2180  156.2670 O   0  0  0  0  0  0  0  0  0  0  0  0
  161.2100  209.2370  155.8550 S   0  0  0  0  0  0  0  0  0  0  0  0
  162.0920  210.4470  156.8290 C   0  0  0  0  0  3  0  0  0  0  0  0
  163.3510  210.8810  156.1070 C   0  0  0  0  0  1  0  0  0  0  0  0
  161.2110  211.6540  157.0830 C   0  0  0  0  0  1  0  0  0  0  0  0
  160.6780  211.0080  153.8560 C   0  0  0  0  0  2  0  0  0  0  0  0
  159.3330  210.8330  153.1800 C   0  0  0  0  0  2  0  0  0  0  0  0
  157.5220  211.4720  154.7360 C   0  0  0  0  0  1  0  0  0  0  0  0
  158.4070  211.9520  153.6060 C   0  0  0  0  0  2  0  0  0  0  0  0
  160.2530  204.5270  151.5400 C   0  0  0  0  0  2  0  0  0  0  0  0
  161.4120  203.5590  151.6630 C   0  0  0  0  0  2  0  0  0  0  0  0
  161.2050  201.6700  149.7910 C   0  0  0  0  0  0  0  0  0  0  0  0
  161.2960  202.5230  150.6380 C   0  0  0  0  0  0  0  0  0  0  0  0
  161.0960  200.6360  148.7630 C   0  0  0  0  0  2  0  0  0  0  0  0
  161.1030  201.2270  147.5140 F   0  0  0  0  0  0  0  0  0  0  0  0
  1  6  1  1  0  0  0
  1 11  1  0  0  0  0
  4 25  1  1  0  0  0
  4  9  1  0  0  0  0
  5  1  1  0  0  0  0
  7  2  1  6  0  0  0
  7  4  1  0  0  0  0
  8 10  1  6  0  0  0
  8  7  1  0  0  0  0
  8  5  1  0  0  0  0
  9  3  1  6  0  0  0
  9 11  1  0  0  0  0
 11 12  1  1  0  0  0
 12 13  1  1  0  0  0
 12 14  1  0  0  0  0
 14 21  1  1  0  0  0
 14 17  1  0  0  0  0
 17 15  2  0  0  0  0
 17 16  2  0  0  0  0
 17 18  1  0  0  0  0
 18 20  1  0  0  0  0
 19 18  1  0  0  0  0
 22 24  1  0  0  0  0
 22 21  1  0  0  0  0
 24 23  1  0  0  0  0
 25 26  1  0  0  0  0
 27 28  3  0  0  0  0
 28 26  1  0  0  0  0
 29 27  1  0  0  0  0
 30 29  1  0  0  0  0
M  END
>  <MODEL>
4

>  <REMARK>
 VINA RESULT:      -6.1      3.837      8.563
  Name = 
  11 active torsions:
  status: ('A' for Active; 'I' for Inactive)
    1  A    between atoms: C_1  and  C_4
    2  A    between atoms: C_1  and  C_29
    3  A    between atoms: C_4  and  C_5
    4  A    between atoms: C_4  and  S_12
    5  A    between atoms: C_5  and  C_21
    6  A    between atoms: C_10  and  C_16
    7  A    between atoms: C_11  and  C_24
    8  A    between atoms: S_12  and  C_13
    9  A    between atoms: C_15  and  C_24
   10  A    between atoms: C_15  and  C_25
   11  A    between atoms: C_17  and  C_21
                            x       y       z     vdW  Elec       q    Type
                         _______ _______ _______ _____ _____    ______ ____

>  <TORSDO>
F 11

$$$$
=
 OpenBabel11052422043D

 30 30  0  0  1  0  0  0  0  0999 V2000
  161.2100  204.4880  151.5440 C   0  0  2  0  0  3  0  0  0  0  0  0
  162.1080  203.6430  147.3010 O   0  0  0  0  0  1  0  0  0  0  0  0
  159.4810  206.0670  149.2150 O   0  0  0  0  0  1  0  0  0  0  0  0
  161.8140  205.5070  148.7990 C   0  0  2  0  0  3  0  0  0  0  0  0
  160.4670  203.4950  150.6680 C   0  0  0  0  0  2  0  0  0  0  0  0
  160.8440  204.2210  152.9920 C   0  0  0  0  0  1  0  0  0  0  0  0
  161.3180  204.1160  148.3550 C   0  0  2  0  0  3  0  0  0  0  0  0
  161.3430  203.0880  149.4940 C   0  0  2  0  0  3  0  0  0  0  0  0
  160.7880  206.2450  149.6750 C   0  0  2  0  0  3  0  0  0  0  0  0
  160.8550  201.7400  148.9910 C   0  0  0  0  0  1  0  0  0  0  0  0
  160.8820  205.9430  151.1820 C   0  0  2  0  0  3  0  0  0  0  0  0
  161.8240  206.9120  151.9170 C   0  0  1  0  0  3  0  0  0  0  0  0
  162.6520  207.6060  151.0320 O   0  0  0  0  0  1  0  0  0  0  0  0
  161.1250  207.8660  152.8980 C   0  0  2  0  0  3  0  0  0  0  0  0
  161.6060  209.7060  150.9860 O   0  0  0  0  0  0  0  0  0  0  0  0
  162.6650  210.0530  153.1670 O   0  0  0  0  0  0  0  0  0  0  0  0
  161.4200  209.5780  152.4720 S   0  0  0  0  0  0  0  0  0  0  0  0
  160.0340  210.5810  152.9830 C   0  0  0  0  0  3  0  0  0  0  0  0
  160.1510  210.9240  154.4540 C   0  0  0  0  0  1  0  0  0  0  0  0
  159.9850  211.8570  152.1680 C   0  0  0  0  0  1  0  0  0  0  0  0
  161.4770  207.6140  154.3580 C   0  0  0  0  0  2  0  0  0  0  0  0
  160.2330  207.2620  155.1480 C   0  0  0  0  0  2  0  0  0  0  0  0
  161.6180  208.4020  156.8480 C   0  0  0  0  0  1  0  0  0  0  0  0
  160.5290  207.3750  156.6280 C   0  0  0  0  0  2  0  0  0  0  0  0
  162.1320  206.3800  147.5900 C   0  0  0  0  0  2  0  0  0  0  0  0
  160.8700  206.6740  146.8050 C   0  0  0  0  0  2  0  0  0  0  0  0
  161.1780  205.8500  144.2860 C   0  0  0  0  0  0  0  0  0  0  0  0
  161.0360  206.2240  145.4230 C   0  0  0  0  0  0  0  0  0  0  0  0
  161.3520  205.3970  142.9070 C   0  0  0  0  0  2  0  0  0  0  0  0
  161.6660  206.4760  142.1040 F   0  0  0  0  0  0  0  0  0  0  0  0
  1  6  1  1  0  0  0
  4 25  1  6  0  0  0
  4  9  1  0  0  0  0
  5  1  1  0  0  0  0
  7  2  1  6  0  0  0
  7  4  1  0  0  0  0
  7  8  1  0  0  0  0
  8 10  1  6  0  0  0
  8  5  1  0  0  0  0
  9  3  1  6  0  0  0
  9 11  1  0  0  0  0
 11  1  1  0  0  0  0
 11 12  1  6  0  0  0
 12 13  1  6  0  0  0
 12 14  1  0  0  0  0
 14 21  1  1  0  0  0
 15 17  2  0  0  0  0
 17 14  1  0  0  0  0
 17 18  1  0  0  0  0
 17 16  2  0  0  0  0
 18 19  1  0  0  0  0
 20 18  1  0  0  0  0
 21 22  1  0  0  0  0
 22 24  1  0  0  0  0
 24 23  1  0  0  0  0
 26 25  1  0  0  0  0
 27 28  3  0  0  0  0
 28 26  1  0  0  0  0
 29 27  1  0  0  0  0
 30 29  1  0  0  0  0
M  END
>  <MODEL>
5

>  <REMARK>
 VINA RESULT:      -6.1      2.929      6.808
  Name = 
  11 active torsions:
  status: ('A' for Active; 'I' for Inactive)
    1  A    between atoms: C_1  and  C_4
    2  A    between atoms: C_1  and  C_29
    3  A    between atoms: C_4  and  C_5
    4  A    between atoms: C_4  and  S_12
    5  A    between atoms: C_5  and  C_21
    6  A    between atoms: C_10  and  C_16
    7  A    between atoms: C_11  and  C_24
    8  A    between atoms: S_12  and  C_13
    9  A    between atoms: C_15  and  C_24
   10  A    between atoms: C_15  and  C_25
   11  A    between atoms: C_17  and  C_21
                            x       y       z     vdW  Elec       q    Type
                         _______ _______ _______ _____ _____    ______ ____

>  <TORSDO>
F 11

$$$$
=
 OpenBabel11052422043D

 30 30  0  0  1  0  0  0  0  0999 V2000
  161.4170  204.2060  151.0180 C   0  0  2  0  0  3  0  0  0  0  0  0
  162.3070  205.1320  146.7900 O   0  0  0  0  0  1  0  0  0  0  0  0
  159.6730  206.5750  149.5150 O   0  0  0  0  0  1  0  0  0  0  0  0
  162.0080  206.2410  148.9080 C   0  0  2  0  0  3  0  0  0  0  0  0
  160.6760  203.6420  149.8180 C   0  0  0  0  0  2  0  0  0  0  0  0
  161.0560  203.3800  152.2380 C   0  0  0  0  0  1  0  0  0  0  0  0
  161.5170  205.1400  147.9460 C   0  0  2  0  0  3  0  0  0  0  0  0
  161.5500  203.7430  148.5780 C   0  0  2  0  0  3  0  0  0  0  0  0
  160.9810  206.5620  150.0070 C   0  0  2  0  0  3  0  0  0  0  0  0
  161.0680  202.7060  147.5790 C   0  0  0  0  0  1  0  0  0  0  0  0
  161.0810  205.6820  151.2670 C   0  0  2  0  0  3  0  0  0  0  0  0
  162.0190  206.2820  152.3280 C   0  0  1  0  0  3  0  0  0  0  0  0
  163.3210  206.4370  151.8450 O   0  0  0  0  0  1  0  0  0  0  0  0
  161.5070  207.5740  152.9830 C   0  0  2  0  0  3  0  0  0  0  0  0
  160.8330  205.7850  154.8850 O   0  0  0  0  0  0  0  0  0  0  0  0
  159.3990  207.7560  154.6400 O   0  0  0  0  0  0  0  0  0  0  0  0
  160.8180  207.2620  154.6030 S   0  0  0  0  0  0  0  0  0  0  0  0
  161.7770  208.1110  155.8470 C   0  0  0  0  0  3  0  0  0  0  0  0
  161.7180  209.6080  155.6200 C   0  0  0  0  0  1  0  0  0  0  0  0
  161.2430  207.7870  157.2280 C   0  0  0  0  0  1  0  0  0  0  0  0
  160.5140  208.3480  152.1240 C   0  0  0  0  0  2  0  0  0  0  0  0
  160.8450  209.8260  152.1360 C   0  0  0  0  0  2  0  0  0  0  0  0
  160.0420  212.0660  152.8040 C   0  0  0  0  0  1  0  0  0  0  0  0
  159.6970  210.5930  152.7570 C   0  0  0  0  0  2  0  0  0  0  0  0
  162.3180  207.5260  148.1490 C   0  0  0  0  0  2  0  0  0  0  0  0
  162.7080  208.6280  149.1140 C   0  0  0  0  0  2  0  0  0  0  0  0
  161.7440  210.9590  148.2470 C   0  0  0  0  0  0  0  0  0  0  0  0
  162.1820  209.9060  148.6370 C   0  0  0  0  0  0  0  0  0  0  0  0
  161.2110  212.2360  147.7740 C   0  0  0  0  0  2  0  0  0  0  0  0
  162.2560  213.0760  147.4400 F   0  0  0  0  0  0  0  0  0  0  0  0
  1 11  1  0  0  0  0
  1  6  1  1  0  0  0
  4 25  1  6  0  0  0
  4  9  1  0  0  0  0
  5  1  1  0  0  0  0
  7  2  1  6  0  0  0
  7  8  1  0  0  0  0
  7  4  1  0  0  0  0
  8 10  1  6  0  0  0
  8  5  1  0  0  0  0
  9  3  1  6  0  0  0
  9 11  1  0  0  0  0
 11 12  1  1  0  0  0
 12 13  1  6  0  0  0
 12 14  1  0  0  0  0
 14 21  1  6  0  0  0
 14 17  1  0  0  0  0
 17 16  2  0  0  0  0
 17 15  2  0  0  0  0
 17 18  1  0  0  0  0
 18 20  1  0  0  0  0
 19 18  1  0  0  0  0
 21 22  1  0  0  0  0
 22 24  1  0  0  0  0
 24 23  1  0  0  0  0
 25 26  1  0  0  0  0
 27 28  3  0  0  0  0
 28 26  1  0  0  0  0
 29 27  1  0  0  0  0
 30 29  1  0  0  0  0
M  END
>  <MODEL>
6

>  <REMARK>
 VINA RESULT:      -5.6      2.209      6.629
  Name = 
  11 active torsions:
  status: ('A' for Active; 'I' for Inactive)
    1  A    between atoms: C_1  and  C_4
    2  A    between atoms: C_1  and  C_29
    3  A    between atoms: C_4  and  C_5
    4  A    between atoms: C_4  and  S_12
    5  A    between atoms: C_5  and  C_21
    6  A    between atoms: C_10  and  C_16
    7  A    between atoms: C_11  and  C_24
    8  A    between atoms: S_12  and  C_13
    9  A    between atoms: C_15  and  C_24
   10  A    between atoms: C_15  and  C_25
   11  A    between atoms: C_17  and  C_21
                            x       y       z     vdW  Elec       q    Type
                         _______ _______ _______ _____ _____    ______ ____

>  <TORSDO>
F 11

$$$$
=
 OpenBabel11052422043D

 30 30  0  0  1  0  0  0  0  0999 V2000
  160.1680  211.5990  152.0340 C   0  0  2  0  0  3  0  0  0  0  0  0
  162.1260  208.5460  149.5110 O   0  0  0  0  0  1  0  0  0  0  0  0
  163.0450  210.3250  153.0370 O   0  0  0  0  0  1  0  0  0  0  0  0
  161.4830  208.9240  151.8020 C   0  0  2  0  0  3  0  0  0  0  0  0
  161.2550  211.8690  151.0090 C   0  0  0  0  0  2  0  0  0  0  0  0
  159.5230  212.9200  152.4100 C   0  0  0  0  0  1  0  0  0  0  0  0
  162.0890  209.5200  150.5150 C   0  0  2  0  0  3  0  0  0  0  0  0
  161.3060  210.7340  149.9990 C   0  0  2  0  0  3  0  0  0  0  0  0
  161.7510  209.7980  153.0380 C   0  0  2  0  0  3  0  0  0  0  0  0
  161.9450  211.2660  148.7280 C   0  0  0  0  0  1  0  0  0  0  0  0
  160.7110  210.9050  153.2900 C   0  0  2  0  0  3  0  0  0  0  0  0
  159.5590  210.4330  154.1920 C   0  0  1  0  0  3  0  0  0  0  0  0
  159.4800  209.0400  154.2530 O   0  0  0  0  0  1  0  0  0  0  0  0
  159.5450  211.0570  155.5960 C   0  0  2  0  0  3  0  0  0  0  0  0
  158.4800  213.5310  155.7220 O   0  0  0  0  0  0  0  0  0  0  0  0
  157.5530  211.8340  157.2250 O   0  0  0  0  0  0  0  0  0  0  0  0
  158.1010  212.0820  155.8470 S   0  0  0  0  0  0  0  0  0  0  0  0
  156.8550  211.6880  154.6300 C   0  0  0  0  0  3  0  0  0  0  0  0
  155.8520  210.7100  155.2070 C   0  0  0  0  0  1  0  0  0  0  0  0
  156.1380  212.9500  154.1910 C   0  0  0  0  0  1  0  0  0  0  0  0
  160.8110  211.8320  155.9380 C   0  0  0  0  0  2  0  0  0  0  0  0
  161.5100  211.2040  157.1270 C   0  0  0  0  0  2  0  0  0  0  0  0
  162.0460  208.8090  156.8350 C   0  0  0  0  0  1  0  0  0  0  0  0
  162.5520  210.2220  156.6360 C   0  0  0  0  0  2  0  0  0  0  0  0
  162.0390  207.5290  152.0680 C   0  0  0  0  0  2  0  0  0  0  0  0
  160.9160  206.5120  152.1060 C   0  0  0  0  0  2  0  0  0  0  0  0
  161.1050  204.8830  150.0030 C   0  0  0  0  0  0  0  0  0  0  0  0
  161.0220  205.6210  150.9520 C   0  0  0  0  0  0  0  0  0  0  0  0
  161.2060  203.9860  148.8520 C   0  0  0  0  0  2  0  0  0  0  0  0
  161.6890  204.6860  147.7640 F   0  0  0  0  0  0  0  0  0  0  0  0
  1  6  1  1  0  0  0
  1 11  1  0  0  0  0
  4 25  1  1  0  0  0
  4  9  1  0  0  0  0
  5  1  1  0  0  0  0
  7  2  1  6  0  0  0
  7  4  1  0  0  0  0
  8 10  1  6  0  0  0
  8  7  1  0  0  0  0
  8  5  1  0  0  0  0
  9  3  1  6  0  0  0
  9 11  1  0  0  0  0
 11 12  1  6  0  0  0
 12 13  1  1  0  0  0
 12 14  1  0  0  0  0
 14 17  1  0  0  0  0
 14 21  1  6  0  0  0
 15 17  2  0  0  0  0
 17 16  2  0  0  0  0
 18 19  1  0  0  0  0
 18 17  1  0  0  0  0
 20 18  1  0  0  0  0
 21 22  1  0  0  0  0
 24 23  1  0  0  0  0
 24 22  1  0  0  0  0
 25 26  1  0  0  0  0
 27 28  3  0  0  0  0
 28 26  1  0  0  0  0
 29 27  1  0  0  0  0
 30 29  1  0  0  0  0
M  END
>  <MODEL>
7

>  <REMARK>
 VINA RESULT:      -5.2      4.384      8.808
  Name = 
  11 active torsions:
  status: ('A' for Active; 'I' for Inactive)
    1  A    between atoms: C_1  and  C_4
    2  A    between atoms: C_1  and  C_29
    3  A    between atoms: C_4  and  C_5
    4  A    between atoms: C_4  and  S_12
    5  A    between atoms: C_5  and  C_21
    6  A    between atoms: C_10  and  C_16
    7  A    between atoms: C_11  and  C_24
    8  A    between atoms: S_12  and  C_13
    9  A    between atoms: C_15  and  C_24
   10  A    between atoms: C_15  and  C_25
   11  A    between atoms: C_17  and  C_21
                            x       y       z     vdW  Elec       q    Type
                         _______ _______ _______ _____ _____    ______ ____

>  <TORSDO>
F 11

$$$$
=
 OpenBabel11052422043D

 30 30  0  0  1  0  0  0  0  0999 V2000
  161.2130  208.9690  151.3120 C   0  0  2  0  0  3  0  0  0  0  0  0
  160.6460  205.2010  149.0740 O   0  0  0  0  0  1  0  0  0  0  0  0
  162.9010  206.2940  152.2620 O   0  0  0  0  0  1  0  0  0  0  0  0
  160.6650  206.0290  151.3370 C   0  0  2  0  0  3  0  0  0  0  0  0
  162.1010  208.4720  150.1850 C   0  0  0  0  0  2  0  0  0  0  0  0
  161.5230  210.4340  151.5590 C   0  0  0  0  0  1  0  0  0  0  0  0
  161.3240  206.0650  149.9430 C   0  0  2  0  0  3  0  0  0  0  0  0
  161.3400  207.4720  149.3310 C   0  0  2  0  0  3  0  0  0  0  0  0
  161.5590  206.6450  152.4260 C   0  0  2  0  0  3  0  0  0  0  0  0
  161.9890  207.4360  147.9580 C   0  0  0  0  0  1  0  0  0  0  0  0
  161.4110  208.1670  152.6050 C   0  0  2  0  0  3  0  0  0  0  0  0
  160.3370  208.5340  153.6420 C   0  0  1  0  0  3  0  0  0  0  0  0
  159.9960  207.4450  154.4480 O   0  0  0  0  0  1  0  0  0  0  0  0
  160.6550  209.7780  154.4860 C   0  0  2  0  0  3  0  0  0  0  0  0
  158.8140  210.9520  152.9040 O   0  0  0  0  0  0  0  0  0  0  0  0
  160.0580  212.3980  154.4400 O   0  0  0  0  0  0  0  0  0  0  0  0
  159.4150  211.0490  154.2790 S   0  0  0  0  0  0  0  0  0  0  0  0
  158.1290  210.8520  155.5020 C   0  0  0  0  0  3  0  0  0  0  0  0
  158.5840  211.4140  156.8330 C   0  0  0  0  0  1  0  0  0  0  0  0
  156.8690  211.5670  155.0540 C   0  0  0  0  0  1  0  0  0  0  0  0
  162.0460  210.3490  154.2400 C   0  0  0  0  0  2  0  0  0  0  0  0
  162.7570  210.5950  155.5560 C   0  0  0  0  0  2  0  0  0  0  0  0
  162.3650  208.8300  157.2420 C   0  0  0  0  0  1  0  0  0  0  0  0
  161.8670  210.1520  156.6980 C   0  0  0  0  0  2  0  0  0  0  0  0
  160.3280  204.5990  151.7420 C   0  0  0  0  0  2  0  0  0  0  0  0
  161.5690  203.7300  151.6880 C   0  0  0  0  0  2  0  0  0  0  0  0
  161.2000  201.7470  149.9420 C   0  0  0  0  0  0  0  0  0  0  0  0
  161.3650  202.6420  150.7330 C   0  0  0  0  0  0  0  0  0  0  0  0
  161.0020  200.6620  148.9820 C   0  0  0  0  0  2  0  0  0  0  0  0
  160.9860  201.1790  147.7010 F   0  0  0  0  0  0  0  0  0  0  0  0
  1  6  1  1  0  0  0
  1 11  1  0  0  0  0
  4 25  1  1  0  0  0
  4  9  1  0  0  0  0
  5  1  1  0  0  0  0
  7  2  1  6  0  0  0
  7  4  1  0  0  0  0
  8 10  1  6  0  0  0
  8  7  1  0  0  0  0
  8  5  1  0  0  0  0
  9  3  1  6  0  0  0
  9 11  1  0  0  0  0
 11 12  1  1  0  0  0
 12 13  1  1  0  0  0
 12 14  1  0  0  0  0
 14 21  1  6  0  0  0
 15 17  2  0  0  0  0
 17 16  2  0  0  0  0
 17 14  1  0  0  0  0
 17 18  1  0  0  0  0
 18 19  1  0  0  0  0
 20 18  1  0  0  0  0
 21 22  1  0  0  0  0
 22 24  1  0  0  0  0
 24 23  1  0  0  0  0
 26 25  1  0  0  0  0
 27 28  3  0  0  0  0
 28 26  1  0  0  0  0
 29 27  1  0  0  0  0
 30 29  1  0  0  0  0
M  END
>  <MODEL>
8

>  <REMARK>
 VINA RESULT:      -5.2      3.817      8.459
  Name = 
  11 active torsions:
  status: ('A' for Active; 'I' for Inactive)
    1  A    between atoms: C_1  and  C_4
    2  A    between atoms: C_1  and  C_29
    3  A    between atoms: C_4  and  C_5
    4  A    between atoms: C_4  and  S_12
    5  A    between atoms: C_5  and  C_21
    6  A    between atoms: C_10  and  C_16
    7  A    between atoms: C_11  and  C_24
    8  A    between atoms: S_12  and  C_13
    9  A    between atoms: C_15  and  C_24
   10  A    between atoms: C_15  and  C_25
   11  A    between atoms: C_17  and  C_21
                            x       y       z     vdW  Elec       q    Type
                         _______ _______ _______ _____ _____    ______ ____

>  <TORSDO>
F 11

$$$$
=
 OpenBabel11052422043D

 30 30  0  0  1  0  0  0  0  0999 V2000
  161.8050  209.2170  150.3990 C   0  0  2  0  0  3  0  0  0  0  0  0
  160.5730  205.2170  148.9810 O   0  0  0  0  0  1  0  0  0  0  0  0
  163.0930  206.5520  151.8650 O   0  0  0  0  0  1  0  0  0  0  0  0
  160.8080  206.4680  151.0270 C   0  0  2  0  0  3  0  0  0  0  0  0
  162.5600  208.3690  149.3920 C   0  0  0  0  0  2  0  0  0  0  0  0
  162.3470  210.6320  150.3400 C   0  0  0  0  0  1  0  0  0  0  0  0
  161.4100  206.1180  149.6510 C   0  0  2  0  0  3  0  0  0  0  0  0
  161.6200  207.3520  148.7640 C   0  0  2  0  0  3  0  0  0  0  0  0
  161.8280  207.1380  151.9620 C   0  0  2  0  0  3  0  0  0  0  0  0
  162.2030  206.9390  147.4240 C   0  0  0  0  0  1  0  0  0  0  0  0
  161.9260  208.6690  151.8280 C   0  0  2  0  0  3  0  0  0  0  0  0
  160.9620  209.4030  152.7750 C   0  0  1  0  0  3  0  0  0  0  0  0
  159.6570  209.4250  152.2770 O   0  0  0  0  0  1  0  0  0  0  0  0
  160.9980  208.9170  154.2320 C   0  0  2  0  0  3  0  0  0  0  0  0
  163.0050  210.6910  154.5430 O   0  0  0  0  0  0  0  0  0  0  0  0
  162.3870  209.3440  156.4930 O   0  0  0  0  0  0  0  0  0  0  0  0
  161.8560  210.0740  155.2920 S   0  0  0  0  0  0  0  0  0  0  0  0
  160.7370  211.3610  155.8220 C   0  0  0  0  0  3  0  0  0  0  0  0
  159.3740  210.7740  156.1260 C   0  0  0  0  0  1  0  0  0  0  0  0
  161.2810  212.0480  157.0580 C   0  0  0  0  0  1  0  0  0  0  0  0
  161.5750  207.5170  154.4000 C   0  0  0  0  0  2  0  0  0  0  0  0
  160.5010  206.5560  154.8710 C   0  0  0  0  0  2  0  0  0  0  0  0
  160.0670  207.0210  157.2590 C   0  0  0  0  0  1  0  0  0  0  0  0
  159.5850  207.2650  155.8450 C   0  0  0  0  0  2  0  0  0  0  0  0
  160.2690  205.2200  151.7170 C   0  0  0  0  0  2  0  0  0  0  0  0
  161.3780  204.2040  151.9100 C   0  0  0  0  0  2  0  0  0  0  0  0
  160.8670  202.0370  150.4410 C   0  0  0  0  0  0  0  0  0  0  0  0
  161.1000  203.0170  151.1030 C   0  0  0  0  0  0  0  0  0  0  0  0
  160.5840  200.8460  149.6410 C   0  0  0  0  0  2  0  0  0  0  0  0
  160.6410  201.1700  148.2990 F   0  0  0  0  0  0  0  0  0  0  0  0
  1  6  1  1  0  0  0
  1 11  1  0  0  0  0
  4 25  1  1  0  0  0
  4  9  1  0  0  0  0
  5  1  1  0  0  0  0
  7  2  1  6  0  0  0
  7  4  1  0  0  0  0
  8 10  1  6  0  0  0
  8  5  1  0  0  0  0
  8  7  1  0  0  0  0
  9  3  1  6  0  0  0
 11  9  1  0  0  0  0
 11 12  1  1  0  0  0
 12 13  1  6  0  0  0
 12 14  1  0  0  0  0
 14 21  1  6  0  0  0
 14 17  1  0  0  0  0
 15 17  2  0  0  0  0
 17 18  1  0  0  0  0
 17 16  2  0  0  0  0
 18 19  1  0  0  0  0
 18 20  1  0  0  0  0
 21 22  1  0  0  0  0
 22 24  1  0  0  0  0
 24 23  1  0  0  0  0
 25 26  1  0  0  0  0
 27 28  3  0  0  0  0
 28 26  1  0  0  0  0
 29 27  1  0  0  0  0
 30 29  1  0  0  0  0
M  END
>  <MODEL>
9

>  <REMARK>
 VINA RESULT:      -5.0      3.569      8.119
  Name = 
  11 active torsions:
  status: ('A' for Active; 'I' for Inactive)
    1  A    between atoms: C_1  and  C_4
    2  A    between atoms: C_1  and  C_29
    3  A    between atoms: C_4  and  C_5
    4  A    between atoms: C_4  and  S_12
    5  A    between atoms: C_5  and  C_21
    6  A    between atoms: C_10  and  C_16
    7  A    between atoms: C_11  and  C_24
    8  A    between atoms: S_12  and  C_13
    9  A    between atoms: C_15  and  C_24
   10  A    between atoms: C_15  and  C_25
   11  A    between atoms: C_17  and  C_21
                            x       y       z     vdW  Elec       q    Type
                         _______ _______ _______ _____ _____    ______ ____

>  <TORSDO>
F 11

$$$$
