=
 OpenBabel11052422063D

 25 27  0  0  1  0  0  0  0  0999 V2000
  161.6890  206.7700  148.5360 C   0  0  0  0  0  0  0  0  0  0  0  0
  161.5070  206.0680  149.7550 C   0  0  0  0  0  0  0  0  0  0  0  0
  162.3250  208.7560  149.7840 C   0  0  0  0  0  3  0  0  0  0  0  0
  162.1290  208.0760  150.9820 C   0  0  0  0  0  3  0  0  0  0  0  0
  161.5860  206.0210  152.3160 C   0  0  1  0  0  3  0  0  0  0  0  0
  160.7900  206.8300  153.3260 C   0  0  0  0  0  1  0  0  0  0  0  0
  161.0890  204.6190  149.7420 C   0  0  0  0  0  2  0  0  0  0  0  0
  162.1030  208.1080  148.5720 C   0  0  0  0  0  3  0  0  0  0  0  0
  160.9570  204.6340  152.2040 C   0  0  0  0  0  2  0  0  0  0  0  0
  161.5230  203.8900  151.0040 C   0  0  1  0  0  3  0  0  0  0  0  0
  161.6960  206.7440  150.9870 C   0  0  0  0  0  0  0  0  0  0  0  0
  161.4520  206.1410  147.2130 C   0  0  0  0  0  0  0  0  0  0  0  0
  160.9950  205.0160  144.6790 C   0  0  0  0  0  3  0  0  0  0  0  0
  162.4220  205.3120  146.6160 C   0  0  0  0  0  0  0  0  0  0  0  0
  162.1870  204.7510  145.3570 C   0  0  0  0  0  3  0  0  0  0  0  0
  160.0320  205.8440  145.2610 C   0  0  0  0  0  3  0  0  0  0  0  0
  163.5820  205.0240  147.2560 F   0  0  0  0  0  0  0  0  0  0  0  0
  160.2600  206.4050  146.5190 C   0  0  0  0  0  3  0  0  0  0  0  0
  160.9910  202.4700  150.9670 C   0  0  0  0  0  2  0  0  0  0  0  0
  161.4980  201.7480  149.7290 C   0  0  0  0  0  2  0  0  0  0  0  0
  160.4720  201.8300  148.6110 C   0  0  2  0  0  3  0  0  0  0  0  0
  159.1350  201.2660  149.0650 C   0  0  0  0  0  1  0  0  0  0  0  0
  160.9580  201.0920  147.4060 C   0  0  0  0  0  0  0  0  0  0  0  0
  160.7290  201.6170  146.1420 O   0  0  0  0  0  0  0  0  0  0  0  0
  161.5740  199.9990  147.5260 O   0  0  0  0  0  1  0  0  0  0  0  0
  1  8  2  0  0  0  0
  1  2  1  0  0  0  0
  2 11  2  0  0  0  0
  3  4  2  0  0  0  0
  4 11  1  0  0  0  0
  5  6  1  1  0  0  0
  7  2  1  0  0  0  0
  7 10  1  0  0  0  0
  8  3  1  0  0  0  0
  9  5  1  0  0  0  0
 10 19  1  6  0  0  0
 10  9  1  0  0  0  0
 11  5  1  0  0  0  0
 12  1  1  0  0  0  0
 13 16  2  0  0  0  0
 13 15  1  0  0  0  0
 14 12  1  0  0  0  0
 14 17  1  0  0  0  0
 15 14  2  0  0  0  0
 16 18  1  0  0  0  0
 18 12  2  0  0  0  0
 20 19  1  0  0  0  0
 21 22  1  1  0  0  0
 21 20  1  0  0  0  0
 23 25  1  0  0  0  0
 23 21  1  0  0  0  0
 24 23  2  0  0  0  0
M  END
>  <MODEL>
1

>  <REMARK>
 VINA RESULT:      -9.4      0.000      0.000
  Name = 
  5 active torsions:
  status: ('A' for Active; 'I' for Inactive)
    1  A    between atoms: C_1  and  C_5
    2  A    between atoms: C_2  and  C_21
    3  A    between atoms: C_6  and  C_15
    4  A    between atoms: C_6  and  C_23
    5  A    between atoms: C_15  and  C_21
                            x       y       z     vdW  Elec       q    Type
                         _______ _______ _______ _____ _____    ______ ____

>  <TORSDO>
F 5

$$$$
=
 OpenBabel11052422063D

 25 27  0  0  1  0  0  0  0  0999 V2000
  161.2370  203.0940  147.2980 C   0  0  0  0  0  0  0  0  0  0  0  0
  161.1580  203.6300  148.6080 C   0  0  0  0  0  0  0  0  0  0  0  0
  160.9370  200.8590  148.2030 C   0  0  0  0  0  3  0  0  0  0  0  0
  160.8790  201.3800  149.4930 C   0  0  0  0  0  3  0  0  0  0  0  0
  160.8510  203.2820  151.1290 C   0  0  1  0  0  3  0  0  0  0  0  0
  161.7120  202.5100  152.1130 C   0  0  0  0  0  1  0  0  0  0  0  0
  161.2550  205.1190  148.8270 C   0  0  0  0  0  2  0  0  0  0  0  0
  161.1190  201.7090  147.1160 C   0  0  0  0  0  3  0  0  0  0  0  0
  161.1740  204.7690  151.2660 C   0  0  0  0  0  2  0  0  0  0  0  0
  160.5670  205.5520  150.1130 C   0  0  1  0  0  3  0  0  0  0  0  0
  161.0140  202.7560  149.7160 C   0  0  0  0  0  0  0  0  0  0  0  0
  161.4460  203.9450  146.1010 C   0  0  0  0  0  0  0  0  0  0  0  0
  161.7870  205.5970  143.8540 C   0  0  0  0  0  3  0  0  0  0  0  0
  162.6450  204.6630  145.9190 C   0  0  0  0  0  0  0  0  0  0  0  0
  162.8110  205.4800  144.7960 C   0  0  0  0  0  3  0  0  0  0  0  0
  160.5920  204.8960  144.0310 C   0  0  0  0  0  3  0  0  0  0  0  0
  163.6640  204.5560  146.8080 F   0  0  0  0  0  0  0  0  0  0  0  0
  160.4220  204.0770  145.1500 C   0  0  0  0  0  3  0  0  0  0  0  0
  160.7820  207.0400  150.3160 C   0  0  0  0  0  2  0  0  0  0  0  0
  161.6180  207.2870  151.5620 C   0  0  0  0  0  2  0  0  0  0  0  0
  160.9820  208.3690  152.4200 C   0  0  2  0  0  3  0  0  0  0  0  0
  161.7370  209.6810  152.2790 C   0  0  0  0  0  1  0  0  0  0  0  0
  160.9530  207.9440  153.8520 C   0  0  0  0  0  0  0  0  0  0  0  0
  161.0700  208.8980  154.8520 O   0  0  0  0  0  1  0  0  0  0  0  0
  160.8220  206.7280  154.1600 O   0  0  0  0  0  0  0  0  0  0  0  0
  1  2  1  0  0  0  0
  2  7  1  0  0  0  0
  2 11  2  0  0  0  0
  3  4  2  0  0  0  0
  4 11  1  0  0  0  0
  5  9  1  0  0  0  0
  5  6  1  1  0  0  0
  7 10  1  0  0  0  0
  8  1  2  0  0  0  0
  8  3  1  0  0  0  0
 10 19  1  1  0  0  0
 10  9  1  0  0  0  0
 11  5  1  0  0  0  0
 12  1  1  0  0  0  0
 13 16  2  0  0  0  0
 13 15  1  0  0  0  0
 14 12  1  0  0  0  0
 14 17  1  0  0  0  0
 15 14  2  0  0  0  0
 16 18  1  0  0  0  0
 18 12  2  0  0  0  0
 19 20  1  0  0  0  0
 20 21  1  0  0  0  0
 21 22  1  1  0  0  0
 21 23  1  0  0  0  0
 23 25  2  0  0  0  0
 23 24  1  0  0  0  0
M  END
>  <MODEL>
2

>  <REMARK>
 VINA RESULT:      -8.9      3.179      5.534
  Name = 
  5 active torsions:
  status: ('A' for Active; 'I' for Inactive)
    1  A    between atoms: C_1  and  C_5
    2  A    between atoms: C_2  and  C_21
    3  A    between atoms: C_6  and  C_15
    4  A    between atoms: C_6  and  C_23
    5  A    between atoms: C_15  and  C_21
                            x       y       z     vdW  Elec       q    Type
                         _______ _______ _______ _____ _____    ______ ____

>  <TORSDO>
F 5

$$$$
=
 OpenBabel11052422063D

 25 27  0  0  1  0  0  0  0  0999 V2000
  161.8840  206.5800  148.8100 C   0  0  0  0  0  0  0  0  0  0  0  0
  161.6200  205.8630  150.0050 C   0  0  0  0  0  0  0  0  0  0  0  0
  162.3620  208.5710  150.1190 C   0  0  0  0  0  3  0  0  0  0  0  0
  162.0850  207.8760  151.2930 C   0  0  0  0  0  3  0  0  0  0  0  0
  161.4870  205.7960  152.5640 C   0  0  1  0  0  3  0  0  0  0  0  0
  160.5890  206.5760  153.5090 C   0  0  0  0  0  1  0  0  0  0  0  0
  161.2410  204.4040  149.9490 C   0  0  0  0  0  2  0  0  0  0  0  0
  162.2580  207.9280  148.8890 C   0  0  0  0  0  3  0  0  0  0  0  0
  160.9060  204.3940  152.3910 C   0  0  0  0  0  2  0  0  0  0  0  0
  161.5880  203.6760  151.2380 C   0  0  1  0  0  3  0  0  0  0  0  0
  161.6880  206.5330  151.2540 C   0  0  0  0  0  0  0  0  0  0  0  0
  161.7730  205.9570  147.4690 C   0  0  0  0  0  0  0  0  0  0  0  0
  161.5790  204.7140  144.9560 C   0  0  0  0  0  3  0  0  0  0  0  0
  160.5740  206.0220  146.7320 C   0  0  0  0  0  0  0  0  0  0  0  0
  160.4840  205.4050  145.4800 C   0  0  0  0  0  3  0  0  0  0  0  0
  162.7690  204.6380  145.6840 C   0  0  0  0  0  3  0  0  0  0  0  0
  159.5000  206.6990  147.2070 F   0  0  0  0  0  0  0  0  0  0  0  0
  162.8640  205.2540  146.9330 C   0  0  0  0  0  3  0  0  0  0  0  0
  161.0990  202.2430  151.1470 C   0  0  0  0  0  2  0  0  0  0  0  0
  161.5760  201.6020  149.8540 C   0  0  0  0  0  2  0  0  0  0  0  0
  160.5520  201.8100  148.7500 C   0  0  2  0  0  3  0  0  0  0  0  0
  159.1810  201.3210  149.1890 C   0  0  0  0  0  1  0  0  0  0  0  0
  160.9770  201.0990  147.5070 C   0  0  0  0  0  0  0  0  0  0  0  0
  160.6930  201.6550  146.2680 O   0  0  0  0  0  0  0  0  0  0  0  0
  161.5920  200.0000  147.5730 O   0  0  0  0  0  1  0  0  0  0  0  0
  1  8  2  0  0  0  0
  1  2  1  0  0  0  0
  2 11  2  0  0  0  0
  3  4  2  0  0  0  0
  5  6  1  1  0  0  0
  7  2  1  0  0  0  0
  7 10  1  0  0  0  0
  8  3  1  0  0  0  0
  9  5  1  0  0  0  0
 10 19  1  6  0  0  0
 10  9  1  0  0  0  0
 11  4  1  0  0  0  0
 11  5  1  0  0  0  0
 12  1  1  0  0  0  0
 13 15  2  0  0  0  0
 13 16  1  0  0  0  0
 14 17  1  0  0  0  0
 14 12  2  0  0  0  0
 15 14  1  0  0  0  0
 16 18  2  0  0  0  0
 18 12  1  0  0  0  0
 20 19  1  0  0  0  0
 21 22  1  1  0  0  0
 21 20  1  0  0  0  0
 23 25  1  0  0  0  0
 23 21  1  0  0  0  0
 24 23  2  0  0  0  0
M  END
>  <MODEL>
3

>  <REMARK>
 VINA RESULT:      -8.8      0.965      1.364
  Name = 
  5 active torsions:
  status: ('A' for Active; 'I' for Inactive)
    1  A    between atoms: C_1  and  C_5
    2  A    between atoms: C_2  and  C_21
    3  A    between atoms: C_6  and  C_15
    4  A    between atoms: C_6  and  C_23
    5  A    between atoms: C_15  and  C_21
                            x       y       z     vdW  Elec       q    Type
                         _______ _______ _______ _____ _____    ______ ____

>  <TORSDO>
F 5

$$$$
=
 OpenBabel11052422063D

 25 27  0  0  1  0  0  0  0  0999 V2000
  161.0760  204.7340  151.2310 C   0  0  0  0  0  0  0  0  0  0  0  0
  161.2930  205.9980  150.6270 C   0  0  0  0  0  0  0  0  0  0  0  0
  160.9350  205.8070  153.4070 C   0  0  0  0  0  3  0  0  0  0  0  0
  161.1680  207.0480  152.8200 C   0  0  0  0  0  3  0  0  0  0  0  0
  161.5320  208.5410  150.8360 C   0  0  1  0  0  3  0  0  0  0  0  0
  162.5700  209.3600  151.5850 C   0  0  0  0  0  1  0  0  0  0  0  0
  161.4640  206.1070  149.1320 C   0  0  0  0  0  2  0  0  0  0  0  0
  160.8940  204.6610  152.6190 C   0  0  0  0  0  3  0  0  0  0  0  0
  161.9060  208.5220  149.3560 C   0  0  0  0  0  2  0  0  0  0  0  0
  161.0800  207.4840  148.6140 C   0  0  1  0  0  3  0  0  0  0  0  0
  161.3740  207.1590  151.4390 C   0  0  0  0  0  0  0  0  0  0  0  0
  161.0390  203.4750  150.4490 C   0  0  0  0  0  0  0  0  0  0  0  0
  161.0270  201.1090  148.9320 C   0  0  0  0  0  3  0  0  0  0  0  0
  161.1110  202.2190  151.0850 C   0  0  0  0  0  0  0  0  0  0  0  0
  161.1000  201.0450  150.3260 C   0  0  0  0  0  3  0  0  0  0  0  0
  160.9640  202.3490  148.2930 C   0  0  0  0  0  3  0  0  0  0  0  0
  161.1670  202.1250  152.4370 F   0  0  0  0  0  0  0  0  0  0  0  0
  160.9720  203.5250  149.0470 C   0  0  0  0  0  3  0  0  0  0  0  0
  161.3630  207.5520  147.1250 C   0  0  0  0  0  2  0  0  0  0  0  0
  162.1470  206.3280  146.6790 C   0  0  0  0  0  2  0  0  0  0  0  0
  161.5960  205.7960  145.3660 C   0  0  2  0  0  3  0  0  0  0  0  0
  160.1070  206.0780  145.2540 C   0  0  0  0  0  1  0  0  0  0  0  0
  161.8520  204.3290  145.2530 C   0  0  0  0  0  0  0  0  0  0  0  0
  160.8070  203.4740  144.9340 O   0  0  0  0  0  0  0  0  0  0  0  0
  163.0070  203.8610  145.4430 O   0  0  0  0  0  1  0  0  0  0  0  0
  1  8  1  0  0  0  0
  2  1  2  0  0  0  0
  2 11  1  0  0  0  0
  4  3  1  0  0  0  0
  5 11  1  0  0  0  0
  5  6  1  1  0  0  0
  7  2  1  0  0  0  0
  8  3  2  0  0  0  0
  9  5  1  0  0  0  0
 10 19  1  6  0  0  0
 10  7  1  0  0  0  0
 10  9  1  0  0  0  0
 11  4  2  0  0  0  0
 12 14  1  0  0  0  0
 12  1  1  0  0  0  0
 13 15  1  0  0  0  0
 14 17  1  0  0  0  0
 15 14  2  0  0  0  0
 16 13  2  0  0  0  0
 16 18  1  0  0  0  0
 18 12  2  0  0  0  0
 20 19  1  0  0  0  0
 21 22  1  1  0  0  0
 21 20  1  0  0  0  0
 23 21  1  0  0  0  0
 23 25  1  0  0  0  0
 24 23  2  0  0  0  0
M  END
>  <MODEL>
4

>  <REMARK>
 VINA RESULT:      -8.6      1.861      4.556
  Name = 
  5 active torsions:
  status: ('A' for Active; 'I' for Inactive)
    1  A    between atoms: C_1  and  C_5
    2  A    between atoms: C_2  and  C_21
    3  A    between atoms: C_6  and  C_15
    4  A    between atoms: C_6  and  C_23
    5  A    between atoms: C_15  and  C_21
                            x       y       z     vdW  Elec       q    Type
                         _______ _______ _______ _____ _____    ______ ____

>  <TORSDO>
F 5

$$$$
=
 OpenBabel11052422063D

 25 27  0  0  1  0  0  0  0  0999 V2000
  161.2460  202.8920  147.3040 C   0  0  0  0  0  0  0  0  0  0  0  0
  161.1780  203.3040  148.6590 C   0  0  0  0  0  0  0  0  0  0  0  0
  161.1000  200.5710  148.0110 C   0  0  0  0  0  3  0  0  0  0  0  0
  161.0530  200.9720  149.3440 C   0  0  0  0  0  3  0  0  0  0  0  0
  160.9690  202.7170  151.1450 C   0  0  1  0  0  3  0  0  0  0  0  0
  161.9020  201.9110  152.0330 C   0  0  0  0  0  1  0  0  0  0  0  0
  161.1980  204.7710  149.0090 C   0  0  0  0  0  2  0  0  0  0  0  0
  161.2000  201.5240  147.0010 C   0  0  0  0  0  3  0  0  0  0  0  0
  161.2120  204.2010  151.4080 C   0  0  0  0  0  2  0  0  0  0  0  0
  160.5270  205.0470  150.3460 C   0  0  1  0  0  3  0  0  0  0  0  0
  161.1170  202.3280  149.6870 C   0  0  0  0  0  0  0  0  0  0  0  0
  161.3710  203.8570  146.1840 C   0  0  0  0  0  0  0  0  0  0  0  0
  161.6760  205.6660  144.0560 C   0  0  0  0  0  3  0  0  0  0  0  0
  160.5820  203.7310  145.0230 C   0  0  0  0  0  0  0  0  0  0  0  0
  160.7350  204.6370  143.9690 C   0  0  0  0  0  3  0  0  0  0  0  0
  162.4670  205.7930  145.2000 C   0  0  0  0  0  3  0  0  0  0  0  0
  159.6500  202.7520  144.9160 F   0  0  0  0  0  0  0  0  0  0  0  0
  162.3160  204.8920  146.2570 C   0  0  0  0  0  3  0  0  0  0  0  0
  160.6650  206.5210  150.6780 C   0  0  0  0  0  2  0  0  0  0  0  0
  162.1270  206.8820  150.8840 C   0  0  0  0  0  2  0  0  0  0  0  0
  162.3470  208.3660  150.6390 C   0  0  2  0  0  3  0  0  0  0  0  0
  161.3470  209.1940  151.4300 C   0  0  0  0  0  1  0  0  0  0  0  0
  162.2310  208.6730  149.1820 C   0  0  0  0  0  0  0  0  0  0  0  0
  162.6900  207.7540  148.2490 O   0  0  0  0  0  0  0  0  0  0  0  0
  161.7210  209.7580  148.7920 O   0  0  0  0  0  1  0  0  0  0  0  0
  1  2  1  0  0  0  0
  2  7  1  0  0  0  0
  2 11  2  0  0  0  0
  3  4  2  0  0  0  0
  4 11  1  0  0  0  0
  5  9  1  0  0  0  0
  5  6  1  1  0  0  0
  7 10  1  0  0  0  0
  8  1  2  0  0  0  0
  8  3  1  0  0  0  0
 10 19  1  1  0  0  0
 10  9  1  0  0  0  0
 11  5  1  0  0  0  0
 12 18  1  0  0  0  0
 12  1  1  0  0  0  0
 13 16  1  0  0  0  0
 14 12  2  0  0  0  0
 15 13  2  0  0  0  0
 15 14  1  0  0  0  0
 16 18  2  0  0  0  0
 17 14  1  0  0  0  0
 19 20  1  0  0  0  0
 21 20  1  0  0  0  0
 21 22  1  1  0  0  0
 23 21  1  0  0  0  0
 24 23  2  0  0  0  0
 25 23  1  0  0  0  0
M  END
>  <MODEL>
5

>  <REMARK>
 VINA RESULT:      -8.6      2.649      5.276
  Name = 
  5 active torsions:
  status: ('A' for Active; 'I' for Inactive)
    1  A    between atoms: C_1  and  C_5
    2  A    between atoms: C_2  and  C_21
    3  A    between atoms: C_6  and  C_15
    4  A    between atoms: C_6  and  C_23
    5  A    between atoms: C_15  and  C_21
                            x       y       z     vdW  Elec       q    Type
                         _______ _______ _______ _____ _____    ______ ____

>  <TORSDO>
F 5

$$$$
=
 OpenBabel11052422063D

 25 27  0  0  1  0  0  0  0  0999 V2000
  161.2530  205.7740  151.4800 C   0  0  0  0  0  0  0  0  0  0  0  0
  161.2610  204.9720  150.3110 C   0  0  0  0  0  0  0  0  0  0  0  0
  160.9200  203.7830  152.8340 C   0  0  0  0  0  3  0  0  0  0  0  0
  160.9080  202.9950  151.6860 C   0  0  0  0  0  3  0  0  0  0  0  0
  161.1230  202.6620  149.2080 C   0  0  1  0  0  3  0  0  0  0  0  0
  159.9820  201.6600  149.1970 C   0  0  0  0  0  1  0  0  0  0  0  0
  161.4660  205.6040  148.9570 C   0  0  0  0  0  2  0  0  0  0  0  0
  161.0870  205.1610  152.7300 C   0  0  0  0  0  3  0  0  0  0  0  0
  161.1200  203.4140  147.8790 C   0  0  0  0  0  2  0  0  0  0  0  0
  162.0420  204.6210  147.9500 C   0  0  1  0  0  3  0  0  0  0  0  0
  161.0510  203.5730  150.4190 C   0  0  0  0  0  0  0  0  0  0  0  0
  161.4090  207.2480  151.4350 C   0  0  0  0  0  0  0  0  0  0  0  0
  161.6660  210.0430  151.2870 C   0  0  0  0  0  3  0  0  0  0  0  0
  160.9090  208.0660  152.4670 C   0  0  0  0  0  0  0  0  0  0  0  0
  161.0430  209.4550  152.3910 C   0  0  0  0  0  3  0  0  0  0  0  0
  162.1560  209.2400  150.2550 C   0  0  0  0  0  3  0  0  0  0  0  0
  160.3140  207.5240  153.5590 F   0  0  0  0  0  0  0  0  0  0  0  0
  162.0260  207.8510  150.3270 C   0  0  0  0  0  3  0  0  0  0  0  0
  162.1340  205.2940  146.5940 C   0  0  0  0  0  2  0  0  0  0  0  0
  162.0580  204.2580  145.4840 C   0  0  0  0  0  2  0  0  0  0  0  0
  160.8930  204.5600  144.5550 C   0  0  2  0  0  3  0  0  0  0  0  0
  160.1370  205.7920  145.0260 C   0  0  0  0  0  1  0  0  0  0  0  0
  159.9700  203.3880  144.4820 C   0  0  0  0  0  0  0  0  0  0  0  0
  160.3690  202.1670  145.0080 O   0  0  0  0  0  1  0  0  0  0  0  0
  158.8340  203.4960  143.9470 O   0  0  0  0  0  0  0  0  0  0  0  0
  1  8  1  0  0  0  0
  2 11  1  0  0  0  0
  2  1  2  0  0  0  0
  4  3  1  0  0  0  0
  5  6  1  6  0  0  0
  5 11  1  0  0  0  0
  7  2  1  0  0  0  0
  8  3  2  0  0  0  0
  9 10  1  0  0  0  0
  9  5  1  0  0  0  0
 10 19  1  6  0  0  0
 10  7  1  0  0  0  0
 11  4  2  0  0  0  0
 12  1  1  0  0  0  0
 12 14  1  0  0  0  0
 13 15  1  0  0  0  0
 14 17  1  0  0  0  0
 15 14  2  0  0  0  0
 16 18  1  0  0  0  0
 16 13  2  0  0  0  0
 18 12  2  0  0  0  0
 20 19  1  0  0  0  0
 21 22  1  1  0  0  0
 21 20  1  0  0  0  0
 23 21  1  0  0  0  0
 23 24  1  0  0  0  0
 25 23  2  0  0  0  0
M  END
>  <MODEL>
6

>  <REMARK>
 VINA RESULT:      -8.6      2.008      5.282
  Name = 
  5 active torsions:
  status: ('A' for Active; 'I' for Inactive)
    1  A    between atoms: C_1  and  C_5
    2  A    between atoms: C_2  and  C_21
    3  A    between atoms: C_6  and  C_15
    4  A    between atoms: C_6  and  C_23
    5  A    between atoms: C_15  and  C_21
                            x       y       z     vdW  Elec       q    Type
                         _______ _______ _______ _____ _____    ______ ____

>  <TORSDO>
F 5

$$$$
=
 OpenBabel11052422063D

 25 27  0  0  1  0  0  0  0  0999 V2000
  161.2560  206.2500  151.7520 C   0  0  0  0  0  0  0  0  0  0  0  0
  161.2360  205.4380  150.5890 C   0  0  0  0  0  0  0  0  0  0  0  0
  161.1310  204.2570  153.1360 C   0  0  0  0  0  3  0  0  0  0  0  0
  161.0910  203.4580  151.9970 C   0  0  0  0  0  3  0  0  0  0  0  0
  161.1640  203.1140  149.5120 C   0  0  1  0  0  3  0  0  0  0  0  0
  160.0860  202.0450  149.5820 C   0  0  0  0  0  1  0  0  0  0  0  0
  161.3130  206.0680  149.2210 C   0  0  0  0  0  2  0  0  0  0  0  0
  161.2080  205.6410  153.0130 C   0  0  0  0  0  3  0  0  0  0  0  0
  161.0300  203.8500  148.1810 C   0  0  0  0  0  2  0  0  0  0  0  0
  161.8810  205.1100  148.1850 C   0  0  1  0  0  3  0  0  0  0  0  0
  161.1160  204.0310  150.7190 C   0  0  0  0  0  0  0  0  0  0  0  0
  161.3200  207.7310  151.6870 C   0  0  0  0  0  0  0  0  0  0  0  0
  161.4530  210.5370  151.6340 C   0  0  0  0  0  3  0  0  0  0  0  0
  162.2720  208.3840  150.8800 C   0  0  0  0  0  0  0  0  0  0  0  0
  162.3310  209.7810  150.8550 C   0  0  0  0  0  3  0  0  0  0  0  0
  160.5120  209.8970  152.4430 C   0  0  0  0  0  3  0  0  0  0  0  0
  163.1270  207.6770  150.1000 F   0  0  0  0  0  0  0  0  0  0  0  0
  160.4470  208.5020  152.4710 C   0  0  0  0  0  3  0  0  0  0  0  0
  161.8440  205.7740  146.8210 C   0  0  0  0  0  2  0  0  0  0  0  0
  162.1640  204.7620  145.7320 C   0  0  0  0  0  2  0  0  0  0  0  0
  161.0680  204.7530  144.6790 C   0  0  2  0  0  3  0  0  0  0  0  0
  160.1080  205.9120  144.8920 C   0  0  0  0  0  1  0  0  0  0  0  0
  160.3260  203.4570  144.7130 C   0  0  0  0  0  0  0  0  0  0  0  0
  159.0670  203.3730  144.1360 O   0  0  0  0  0  0  0  0  0  0  0  0
  160.8320  202.4400  145.2610 O   0  0  0  0  0  1  0  0  0  0  0  0
  1  8  1  0  0  0  0
  2 11  1  0  0  0  0
  2  1  2  0  0  0  0
  4  3  1  0  0  0  0
  5  6  1  1  0  0  0
  5 11  1  0  0  0  0
  7  2  1  0  0  0  0
  8  3  2  0  0  0  0
  9 10  1  0  0  0  0
  9  5  1  0  0  0  0
 10 19  1  6  0  0  0
 10  7  1  0  0  0  0
 11  4  2  0  0  0  0
 12  1  1  0  0  0  0
 12 18  1  0  0  0  0
 13 16  1  0  0  0  0
 14 12  2  0  0  0  0
 15 14  1  0  0  0  0
 15 13  2  0  0  0  0
 16 18  2  0  0  0  0
 17 14  1  0  0  0  0
 20 19  1  0  0  0  0
 21 23  1  0  0  0  0
 21 22  1  1  0  0  0
 21 20  1  0  0  0  0
 23 25  1  0  0  0  0
 24 23  2  0  0  0  0
M  END
>  <MODEL>
7

>  <REMARK>
 VINA RESULT:      -8.4      1.630      5.087
  Name = 
  5 active torsions:
  status: ('A' for Active; 'I' for Inactive)
    1  A    between atoms: C_1  and  C_5
    2  A    between atoms: C_2  and  C_21
    3  A    between atoms: C_6  and  C_15
    4  A    between atoms: C_6  and  C_23
    5  A    between atoms: C_15  and  C_21
                            x       y       z     vdW  Elec       q    Type
                         _______ _______ _______ _____ _____    ______ ____

>  <TORSDO>
F 5

$$$$
=
 OpenBabel11052422063D

 25 27  0  0  1  0  0  0  0  0999 V2000
  161.2070  204.6950  149.1010 C   0  0  0  0  0  0  0  0  0  0  0  0
  161.3270  205.6770  150.1170 C   0  0  0  0  0  0  0  0  0  0  0  0
  160.5920  203.0470  150.7770 C   0  0  0  0  0  3  0  0  0  0  0  0
  160.7280  204.0030  151.7800 C   0  0  0  0  0  3  0  0  0  0  0  0
  161.1640  206.3380  152.5880 C   0  0  1  0  0  3  0  0  0  0  0  0
  161.9510  205.8270  153.7830 C   0  0  0  0  0  1  0  0  0  0  0  0
  161.7020  207.0950  149.7640 C   0  0  0  0  0  2  0  0  0  0  0  0
  160.8330  203.3900  149.4500 C   0  0  0  0  0  3  0  0  0  0  0  0
  161.7530  207.6800  152.1590 C   0  0  0  0  0  2  0  0  0  0  0  0
  161.2040  208.0900  150.8010 C   0  0  1  0  0  3  0  0  0  0  0  0
  161.1200  205.3120  151.4720 C   0  0  0  0  0  0  0  0  0  0  0  0
  161.4680  204.9940  147.6720 C   0  0  0  0  0  0  0  0  0  0  0  0
  161.9520  205.4910  144.9490 C   0  0  0  0  0  3  0  0  0  0  0  0
  160.6640  205.9070  146.9600 C   0  0  0  0  0  0  0  0  0  0  0  0
  160.9120  206.1530  145.6060 C   0  0  0  0  0  3  0  0  0  0  0  0
  162.7480  204.5790  145.6450 C   0  0  0  0  0  3  0  0  0  0  0  0
  159.6580  206.5770  147.5740 F   0  0  0  0  0  0  0  0  0  0  0  0
  162.5050  204.3310  146.9980 C   0  0  0  0  0  3  0  0  0  0  0  0
  161.6930  209.4780  150.4330 C   0  0  0  0  0  2  0  0  0  0  0  0
  161.9940  210.2820  151.6880 C   0  0  0  0  0  2  0  0  0  0  0  0
  160.7030  210.7240  152.3560 C   0  0  2  0  0  3  0  0  0  0  0  0
  160.1390  211.9590  151.6720 C   0  0  0  0  0  1  0  0  0  0  0  0
  160.9370  211.0010  153.8050 C   0  0  0  0  0  0  0  0  0  0  0  0
  161.9560  210.3380  154.4740 O   0  0  0  0  0  1  0  0  0  0  0  0
  160.2190  211.8320  154.4260 O   0  0  0  0  0  0  0  0  0  0  0  0
  1  8  2  0  0  0  0
  1  2  1  0  0  0  0
  2 11  2  0  0  0  0
  3  4  2  0  0  0  0
  5  6  1  1  0  0  0
  7  2  1  0  0  0  0
  7 10  1  0  0  0  0
  8  3  1  0  0  0  0
  9  5  1  0  0  0  0
 10 19  1  6  0  0  0
 10  9  1  0  0  0  0
 11  4  1  0  0  0  0
 11  5  1  0  0  0  0
 12  1  1  0  0  0  0
 13 15  2  0  0  0  0
 13 16  1  0  0  0  0
 14 17  1  0  0  0  0
 14 12  2  0  0  0  0
 15 14  1  0  0  0  0
 16 18  2  0  0  0  0
 18 12  1  0  0  0  0
 19 20  1  0  0  0  0
 20 21  1  0  0  0  0
 21 22  1  6  0  0  0
 21 23  1  0  0  0  0
 23 25  2  0  0  0  0
 23 24  1  0  0  0  0
M  END
>  <MODEL>
8

>  <REMARK>
 VINA RESULT:      -8.3      4.042      6.292
  Name = 
  5 active torsions:
  status: ('A' for Active; 'I' for Inactive)
    1  A    between atoms: C_1  and  C_5
    2  A    between atoms: C_2  and  C_21
    3  A    between atoms: C_6  and  C_15
    4  A    between atoms: C_6  and  C_23
    5  A    between atoms: C_15  and  C_21
                            x       y       z     vdW  Elec       q    Type
                         _______ _______ _______ _____ _____    ______ ____

>  <TORSDO>
F 5

$$$$
=
 OpenBabel11052422063D

 25 27  0  0  1  0  0  0  0  0999 V2000
  161.5260  205.4630  149.0230 C   0  0  0  0  0  0  0  0  0  0  0  0
  161.5530  206.3230  150.1510 C   0  0  0  0  0  0  0  0  0  0  0  0
  162.1810  207.3210  147.6010 C   0  0  0  0  0  3  0  0  0  0  0  0
  162.1900  208.1720  148.7020 C   0  0  0  0  0  3  0  0  0  0  0  0
  161.9680  208.6430  151.1570 C   0  0  1  0  0  3  0  0  0  0  0  0
  161.2560  209.9580  150.8880 C   0  0  0  0  0  1  0  0  0  0  0  0
  161.2380  205.7850  151.5240 C   0  0  0  0  0  2  0  0  0  0  0  0
  161.8480  205.9790  147.7610 C   0  0  0  0  0  3  0  0  0  0  0  0
  161.4280  208.0580  152.4600 C   0  0  0  0  0  2  0  0  0  0  0  0
  161.8820  206.6160  152.6230 C   0  0  1  0  0  3  0  0  0  0  0  0
  161.8540  207.6980  149.9770 C   0  0  0  0  0  0  0  0  0  0  0  0
  161.1630  204.0280  149.1260 C   0  0  0  0  0  0  0  0  0  0  0  0
  160.4080  201.3300  149.3400 C   0  0  0  0  0  3  0  0  0  0  0  0
  161.2350  203.1770  148.0050 C   0  0  0  0  0  0  0  0  0  0  0  0
  160.8630  201.8340  148.1190 C   0  0  0  0  0  3  0  0  0  0  0  0
  160.3250  202.1700  150.4530 C   0  0  0  0  0  3  0  0  0  0  0  0
  161.6880  203.6330  146.8110 F   0  0  0  0  0  0  0  0  0  0  0  0
  160.6980  203.5110  150.3450 C   0  0  0  0  0  3  0  0  0  0  0  0
  161.4490  206.0780  153.9730 C   0  0  0  0  0  2  0  0  0  0  0  0
  160.4470  207.0190  154.6220 C   0  0  0  0  0  2  0  0  0  0  0  0
  160.9780  207.5210  155.9550 C   0  0  2  0  0  3  0  0  0  0  0  0
  160.1410  206.9810  157.1040 C   0  0  0  0  0  1  0  0  0  0  0  0
  160.9840  209.0150  155.9810 C   0  0  0  0  0  0  0  0  0  0  0  0
  162.1930  209.6940  156.0180 O   0  0  0  0  0  1  0  0  0  0  0  0
  159.9030  209.6630  155.9690 O   0  0  0  0  0  0  0  0  0  0  0  0
  1 12  1  0  0  0  0
  1  2  1  0  0  0  0
  2  7  1  0  0  0  0
  3  8  1  0  0  0  0
  3  4  2  0  0  0  0
  4 11  1  0  0  0  0
  5  6  1  6  0  0  0
  5  9  1  0  0  0  0
  7 10  1  0  0  0  0
  8  1  2  0  0  0  0
  9 10  1  0  0  0  0
 10 19  1  1  0  0  0
 11  2  2  0  0  0  0
 11  5  1  0  0  0  0
 12 18  1  0  0  0  0
 13 16  1  0  0  0  0
 14 15  1  0  0  0  0
 14 12  2  0  0  0  0
 15 13  2  0  0  0  0
 17 14  1  0  0  0  0
 18 16  2  0  0  0  0
 19 20  1  0  0  0  0
 20 21  1  0  0  0  0
 21 23  1  0  0  0  0
 21 22  1  1  0  0  0
 23 24  1  0  0  0  0
 25 23  2  0  0  0  0
M  END
>  <MODEL>
9

>  <REMARK>
 VINA RESULT:      -8.0      3.945      6.133
  Name = 
  5 active torsions:
  status: ('A' for Active; 'I' for Inactive)
    1  A    between atoms: C_1  and  C_5
    2  A    between atoms: C_2  and  C_21
    3  A    between atoms: C_6  and  C_15
    4  A    between atoms: C_6  and  C_23
    5  A    between atoms: C_15  and  C_21
                            x       y       z     vdW  Elec       q    Type
                         _______ _______ _______ _____ _____    ______ ____

>  <TORSDO>
F 5

$$$$
