=
 OpenBabel11062408183D

 32 36  0  0  1  0  0  0  0  0999 V2000
  157.9530  211.5730  154.2390 C   0  0  1  0  0  3  0  0  0  0  0  0
  160.3810  206.5190  152.4360 C   0  0  0  0  0  3  0  0  0  0  0  0
  158.2850  210.5080  153.3670 O   0  0  0  0  0  0  0  0  0  0  0  0
  159.4360  210.3700  155.9110 N   0  0  0  0  0  0  0  0  0  0  0  0
  162.9960  210.5560  154.3200 C   0  0  0  0  0  2  0  0  0  0  0  0
  159.5350  210.7460  152.7690 C   0  0  0  0  0  2  0  0  0  0  0  0
  161.9970  208.2740  154.4050 C   0  0  0  0  0  2  0  0  0  0  0  0
  160.6570  208.7220  153.7580 C   0  0  1  0  0  0  0  0  0  0  0  0
  158.8150  209.0470  155.7630 C   0  0  2  0  0  3  0  0  0  0  0  0
  162.7630  206.2240  151.8500 C   0  0  0  0  0  2  0  0  0  0  0  0
  161.6590  208.4160  151.4220 C   0  0  0  0  0  0  0  0  0  0  0  0
  159.7710  207.9080  156.0600 C   0  0  0  0  0  2  0  0  0  0  0  0
  158.4390  211.4390  155.6960 C   0  0  2  0  0  3  0  0  0  0  0  0
  161.3970  205.6820  152.1890 C   0  0  0  0  0  0  0  0  0  0  0  0
  162.6910  207.5810  151.1960 C   0  0  0  0  0  3  0  0  0  0  0  0
  160.5470  208.0250  152.3680 C   0  0  1  0  0  3  0  0  0  0  0  0
  159.4260  208.2150  154.6080 C   0  0  2  0  0  3  0  0  0  0  0  0
  162.4690  210.7160  151.8560 C   0  0  0  0  0  2  0  0  0  0  0  0
  159.9740  210.5210  157.2600 C   0  0  0  0  0  1  0  0  0  0  0  0
  161.6670  209.8240  150.9160 C   0  0  1  0  0  3  0  0  0  0  0  0
  160.6220  210.2100  153.5960 N   0  0  1  0  0  0  0  0  0  0  0  0
  157.2270  211.3360  156.6270 C   0  0  0  0  0  1  0  0  0  0  0  0
  162.6280  209.3860  155.2260 C   0  0  0  0  0  2  0  0  0  0  0  0
  161.9090  210.8750  153.2870 C   0  0  1  0  0  3  0  0  0  0  0  0
  160.3850  203.7500  153.1430 O   0  0  0  0  0  1  0  0  0  0  0  0
  161.9570  203.3620  151.5250 O   0  0  0  0  0  0  0  0  0  0  0  0
  161.2100  204.2280  152.3140 C   0  0  0  0  0  0  0  0  0  0  0  0
  158.0720  212.9870  153.6610 C   0  0  0  0  0  2  0  0  0  0  0  0
  156.7260  213.6850  153.7280 C   0  0  0  0  0  1  0  0  0  0  0  0
  162.1700  209.9350  149.4840 C   0  0  0  0  0  2  0  0  0  0  0  0
  162.3720  211.2750  149.1570 O   0  0  0  0  0  0  0  0  0  0  0  0
  161.5850  211.4800  148.0230 C   0  0  0  0  0  1  0  0  0  0  0  0
  1 28  1  6  0  0  0
  1 13  1  0  0  0  0
  3  1  1  0  0  0  0
  4 19  1  0  0  0  0
  5 23  1  0  0  0  0
  6  3  1  0  0  0  0
  7 23  1  0  0  0  0
  8  7  1  1  0  0  0
  8 17  1  0  0  0  0
  9  4  1  0  0  0  0
  9 12  1  1  0  0  0
 10 14  1  0  0  0  0
 11 16  1  0  0  0  0
 13  4  1  0  0  0  0
 13 22  1  1  0  0  0
 14 27  1  0  0  0  0
 14  2  2  0  0  0  0
 15 11  2  0  0  0  0
 15 10  1  0  0  0  0
 16  2  1  1  0  0  0
 16  8  1  0  0  0  0
 17  9  1  0  0  0  0
 17 12  1  1  0  0  0
 20 30  1  6  0  0  0
 20 11  1  0  0  0  0
 20 18  1  0  0  0  0
 21  6  1  6  0  0  0
 21  8  1  0  0  0  0
 24 18  1  6  0  0  0
 24 21  1  0  0  0  0
 24  5  1  0  0  0  0
 26 27  2  0  0  0  0
 27 25  1  0  0  0  0
 28 29  1  0  0  0  0
 31 30  1  0  0  0  0
 32 31  1  0  0  0  0
M  END
>  <MODEL>
1

>  <REMARK>
 VINA RESULT:      -0.5      0.000      0.000
  Name = 
  4 active torsions:
  status: ('A' for Active; 'I' for Inactive)
    1  A    between atoms: C_1  and  O_4
    2  A    between atoms: C_1  and  C_27
    3  A    between atoms: C_2  and  C_14
    4  A    between atoms: C_19  and  C_26
                            x       y       z     vdW  Elec       q    Type
                         _______ _______ _______ _____ _____    ______ ____

>  <TORSDO>
F 4

$$$$
=
 OpenBabel11062408183D

 32 36  0  0  1  0  0  0  0  0999 V2000
  155.0790  213.4050  153.8530 C   0  0  1  0  0  3  0  0  0  0  0  0
  159.2700  209.3460  154.6620 C   0  0  0  0  0  3  0  0  0  0  0  0
  155.9240  212.3070  153.5610 O   0  0  0  0  0  0  0  0  0  0  0  0
  156.3650  213.5250  156.0380 N   0  0  0  0  0  0  0  0  0  0  0  0
  159.9960  214.4530  154.9460 C   0  0  0  0  0  2  0  0  0  0  0  0
  157.1580  212.7660  153.0680 C   0  0  0  0  0  2  0  0  0  0  0  0
  159.7290  212.1550  155.8740 C   0  0  0  0  0  2  0  0  0  0  0  0
  158.5310  211.8060  154.9470 C   0  0  1  0  0  0  0  0  0  0  0  0
  156.2220  212.1070  156.3940 C   0  0  2  0  0  3  0  0  0  0  0  0
  161.6990  209.7780  154.5400 C   0  0  0  0  0  2  0  0  0  0  0  0
  160.1490  211.0880  153.0960 C   0  0  0  0  0  0  0  0  0  0  0  0
  157.3610  211.5970  157.2560 C   0  0  0  0  0  2  0  0  0  0  0  0
  155.1880  213.9900  155.2750 C   0  0  2  0  0  3  0  0  0  0  0  0
  160.5150  208.9230  154.9150 C   0  0  0  0  0  0  0  0  0  0  0  0
  161.4030  210.6800  153.3680 C   0  0  0  0  0  3  0  0  0  0  0  0
  158.9960  210.6730  153.9820 C   0  0  1  0  0  3  0  0  0  0  0  0
  157.3290  211.2130  155.7820 C   0  0  2  0  0  3  0  0  0  0  0  0
  160.1020  213.5160  152.6040 C   0  0  0  0  0  2  0  0  0  0  0  0
  156.4650  214.3360  157.2480 C   0  0  0  0  0  1  0  0  0  0  0  0
  159.8710  212.1170  152.0450 C   0  0  1  0  0  3  0  0  0  0  0  0
  158.1020  213.0090  154.1650 N   0  0  1  0  0  0  0  0  0  0  0  0
  153.8630  213.7790  156.0140 C   0  0  0  0  0  1  0  0  0  0  0  0
  159.7680  213.6360  156.2130 C   0  0  0  0  0  2  0  0  0  0  0  0
  159.1700  213.9510  153.7560 C   0  0  1  0  0  3  0  0  0  0  0  0
  160.8030  206.5610  154.9890 O   0  0  0  0  0  0  0  0  0  0  0  0
  160.8720  207.6420  157.0060 O   0  0  0  0  0  1  0  0  0  0  0  0
  160.7400  207.6520  155.6220 C   0  0  0  0  0  0  0  0  0  0  0  0
  154.9200  214.4530  152.7480 C   0  0  0  0  0  2  0  0  0  0  0  0
  155.2050  213.8240  151.3970 C   0  0  0  0  0  1  0  0  0  0  0  0
  160.6720  211.8910  150.7710 C   0  0  0  0  0  2  0  0  0  0  0  0
  160.3300  212.8520  149.8210 O   0  0  0  0  0  0  0  0  0  0  0  0
  161.4450  212.9290  148.9860 C   0  0  0  0  0  1  0  0  0  0  0  0
  1 28  1  6  0  0  0
  1 13  1  0  0  0  0
  2 14  2  0  0  0  0
  3  1  1  0  0  0  0
  4  9  1  0  0  0  0
  4 19  1  0  0  0  0
  5 23  1  0  0  0  0
  6  3  1  0  0  0  0
  7 23  1  0  0  0  0
  8 17  1  0  0  0  0
  8  7  1  1  0  0  0
  9 12  1  1  0  0  0
 10 14  1  0  0  0  0
 11 15  2  0  0  0  0
 11 16  1  0  0  0  0
 13 22  1  1  0  0  0
 13  4  1  0  0  0  0
 14 27  1  0  0  0  0
 15 10  1  0  0  0  0
 16  2  1  1  0  0  0
 16  8  1  0  0  0  0
 17  9  1  0  0  0  0
 17 12  1  1  0  0  0
 20 30  1  6  0  0  0
 20 18  1  0  0  0  0
 20 11  1  0  0  0  0
 21  6  1  6  0  0  0
 21  8  1  0  0  0  0
 24 18  1  6  0  0  0
 24 21  1  0  0  0  0
 24  5  1  0  0  0  0
 25 27  2  0  0  0  0
 27 26  1  0  0  0  0
 29 28  1  0  0  0  0
 31 30  1  0  0  0  0
 32 31  1  0  0  0  0
M  END
>  <MODEL>
2

>  <REMARK>
 VINA RESULT:       0.8      2.633      4.052
  Name = 
  4 active torsions:
  status: ('A' for Active; 'I' for Inactive)
    1  A    between atoms: C_1  and  O_4
    2  A    between atoms: C_1  and  C_27
    3  A    between atoms: C_2  and  C_14
    4  A    between atoms: C_19  and  C_26
                            x       y       z     vdW  Elec       q    Type
                         _______ _______ _______ _____ _____    ______ ____

>  <TORSDO>
F 4

$$$$
