=
 OpenBabel11062407493D

 34 37  0  0  1  0  0  0  0  0999 V2000
  161.0590  208.8270  155.8410 C   0  0  1  0  0  3  0  0  0  0  0  0
  158.7180  209.8130  155.2850 C   0  0  2  0  0  3  0  0  0  0  0  0
  157.6430  213.9050  154.0890 C   0  0  0  0  0  2  0  0  0  0  0  0
  160.6500  209.9810  153.6350 C   0  0  1  0  0  3  0  0  0  0  0  0
  160.2820  212.7630  154.3120 O   0  0  0  0  0  1  0  0  0  0  0  0
  161.5950  206.3840  155.9350 C   0  0  0  0  0  1  0  0  0  0  0  0
  158.3200  209.9990  156.7430 C   0  0  0  0  0  1  0  0  0  0  0  0
  158.3860  210.7960  153.0810 O   0  0  0  0  0  0  0  0  0  0  0  0
  155.5360  214.1030  153.0940 C   0  0  0  0  0  1  0  0  0  0  0  0
  156.5590  213.1470  153.4790 N   0  0  0  0  0  0  0  0  0  0  0  0
  160.2510  209.9270  155.1270 C   0  0  2  0  0  3  0  0  0  0  0  0
  158.6220  214.4530  153.0520 C   0  0  0  0  0  2  0  0  0  0  0  0
  160.2100  212.4100  153.0020 N   0  0  0  0  0  0  0  0  0  0  0  0
  160.8090  208.8110  157.2150 O   0  0  0  0  0  1  0  0  0  0  0  0
  156.5430  210.9200  154.5610 C   0  0  0  0  0  2  0  0  0  0  0  0
  160.5290  208.5850  152.9700 C   0  0  2  0  0  3  0  0  0  0  0  0
  160.8040  207.4610  155.2120 C   0  0  2  0  0  3  0  0  0  0  0  0
  158.0620  210.9160  154.4440 C   0  0  1  0  0  3  0  0  0  0  0  0
  159.3990  213.3940  152.2320 C   0  0  1  0  0  3  0  0  0  0  0  0
  159.7700  211.0010  152.8900 C   0  0  1  0  0  3  0  0  0  0  0  0
  161.2600  207.5010  153.7610 C   0  0  0  0  0  2  0  0  0  0  0  0
  155.9850  212.3420  154.5500 C   0  0  0  0  0  2  0  0  0  0  0  0
  158.6450  212.8470  151.0010 C   0  0  0  0  0  3  0  0  0  0  0  0
  159.5870  212.6510  149.8280 C   0  0  0  0  0  1  0  0  0  0  0  0
  157.5230  213.7740  150.5570 C   0  0  0  0  0  1  0  0  0  0  0  0
  162.2740  209.1170  151.3940 O   0  0  0  0  0  1  0  0  0  0  0  0
  161.0080  208.5410  151.5120 C   0  0  1  0  0  3  0  0  0  0  0  0
  161.0340  204.7580  151.1200 C   0  0  0  0  0  0  0  0  0  0  0  0
  160.9110  204.6130  149.7360 C   0  0  0  0  0  3  0  0  0  0  0  0
  160.9480  207.1740  150.8820 C   0  0  0  0  0  0  0  0  0  0  0  0
  160.7970  205.7430  148.9200 C   0  0  0  0  0  3  0  0  0  0  0  0
  161.0460  206.0340  151.6910 C   0  0  0  0  0  3  0  0  0  0  0  0
  160.8230  207.0190  149.4910 C   0  0  0  0  0  3  0  0  0  0  0  0
  161.1500  203.5570  151.9880 C   0  0  0  0  0  1  0  0  0  0  0  0
  1 14  1  1  0  0  0
  2  7  1  1  0  0  0
  4 11  1  0  0  0  0
  8 18  1  0  0  0  0
  9 10  1  0  0  0  0
 10  3  1  0  0  0  0
 10 22  1  0  0  0  0
 11  2  1  0  0  0  0
 11  1  1  0  0  0  0
 12  3  1  0  0  0  0
 13  5  1  0  0  0  0
 16  4  1  0  0  0  0
 16 21  1  0  0  0  0
 17  1  1  0  0  0  0
 17  6  1  0  0  0  0
 18 15  1  0  0  0  0
 18  2  1  0  0  0  0
 19 13  1  0  0  0  0
 19 12  1  0  0  0  0
 20 13  1  0  0  0  0
 20  8  1  0  0  0  0
 20  4  1  0  0  0  0
 21 17  1  0  0  0  0
 22 15  1  0  0  0  0
 23 19  1  0  0  0  0
 24 23  1  0  0  0  0
 25 23  1  0  0  0  0
 26 27  1  0  0  0  0
 27 16  1  0  0  0  0
 28 32  1  0  0  0  0
 28 34  1  0  0  0  0
 29 28  2  0  0  0  0
 30 27  1  0  0  0  0
 30 32  2  0  0  0  0
 31 33  2  0  0  0  0
 31 29  1  0  0  0  0
 33 30  1  0  0  0  0
M  END
>  <MODEL>
1

>  <REMARK>
 VINA RESULT:      -5.1      0.000      0.000
  Name = 
  3 active torsions:
  status: ('A' for Active; 'I' for Inactive)
    1  A    between atoms: C_12  and  C_28
    2  A    between atoms: C_13  and  C_29
    3  A    between atoms: C_21  and  C_28
                            x       y       z     vdW  Elec       q    Type
                         _______ _______ _______ _____ _____    ______ ____

>  <TORSDO>
F 3

$$$$
=
 OpenBabel11062407493D

 34 37  0  0  1  0  0  0  0  0999 V2000
  162.2140  211.4160  149.6930 C   0  0  1  0  0  3  0  0  0  0  0  0
  161.2340  209.4330  151.0600 C   0  0  2  0  0  3  0  0  0  0  0  0
  161.9040  208.3700  155.2740 C   0  0  0  0  0  2  0  0  0  0  0  0
  160.9740  211.8400  151.8490 C   0  0  1  0  0  3  0  0  0  0  0  0
  162.6950  210.7860  153.9120 O   0  0  0  0  0  1  0  0  0  0  0  0
  161.3070  212.2280  147.5050 C   0  0  0  0  0  1  0  0  0  0  0  0
  162.2240  208.4130  150.5140 C   0  0  0  0  0  1  0  0  0  0  0  0
  159.9460  209.9520  153.0620 O   0  0  0  0  0  0  0  0  0  0  0  0
  160.3130  206.9080  156.1700 C   0  0  0  0  0  1  0  0  0  0  0  0
  160.5850  207.7940  155.0520 N   0  0  0  0  0  0  0  0  0  0  0  0
  161.8680  210.8420  151.0800 C   0  0  2  0  0  3  0  0  0  0  0  0
  161.8550  209.6060  156.1710 C   0  0  0  0  0  2  0  0  0  0  0  0
  161.5190  211.3510  154.2890 N   0  0  0  0  0  0  0  0  0  0  0  0
  163.1070  210.5940  149.0010 O   0  0  0  0  0  1  0  0  0  0  0  0
  160.2660  207.6520  152.6010 C   0  0  0  0  0  2  0  0  0  0  0  0
  159.7320  212.2410  151.0110 C   0  0  2  0  0  3  0  0  0  0  0  0
  160.9520  211.6780  148.8760 C   0  0  2  0  0  3  0  0  0  0  0  0
  160.8660  209.0490  152.5000 C   0  0  1  0  0  3  0  0  0  0  0  0
  161.0730  210.8170  155.6070 C   0  0  1  0  0  3  0  0  0  0  0  0
  160.5330  211.2280  153.1910 C   0  0  1  0  0  3  0  0  0  0  0  0
  160.1060  212.7100  149.6060 C   0  0  0  0  0  2  0  0  0  0  0  0
  160.7140  206.9420  153.8760 C   0  0  0  0  0  2  0  0  0  0  0  0
  159.5490  210.7740  155.8490 C   0  0  0  0  0  3  0  0  0  0  0  0
  158.9390  212.1570  155.7280 C   0  0  0  0  0  1  0  0  0  0  0  0
  159.2020  210.2210  157.2240 C   0  0  0  0  0  1  0  0  0  0  0  0
  159.5970  214.4520  151.9620 O   0  0  0  0  0  1  0  0  0  0  0  0
  158.8490  213.3110  151.6700 C   0  0  1  0  0  3  0  0  0  0  0  0
  156.4770  213.9730  148.7730 C   0  0  0  0  0  0  0  0  0  0  0  0
  155.2960  214.3090  149.4400 C   0  0  0  0  0  3  0  0  0  0  0  0
  157.5950  213.6370  150.9030 C   0  0  0  0  0  0  0  0  0  0  0  0
  155.2550  214.3030  150.8380 C   0  0  0  0  0  3  0  0  0  0  0  0
  157.6200  213.6330  149.5010 C   0  0  0  0  0  3  0  0  0  0  0  0
  156.4030  213.9750  151.5670 C   0  0  0  0  0  3  0  0  0  0  0  0
  156.5180  213.9760  147.2870 C   0  0  0  0  0  1  0  0  0  0  0  0
  1 14  1  6  0  0  0
  1 11  1  0  0  0  0
  2  7  1  1  0  0  0
  2 11  1  0  0  0  0
  2 18  1  0  0  0  0
  3 12  1  0  0  0  0
  4 20  1  0  0  0  0
  5 13  1  0  0  0  0
  6 17  1  0  0  0  0
  8 20  1  0  0  0  0
 10  3  1  0  0  0  0
 10  9  1  0  0  0  0
 11  4  1  0  0  0  0
 13 19  1  0  0  0  0
 15 22  1  0  0  0  0
 16 27  1  0  0  0  0
 16  4  1  0  0  0  0
 17 21  1  0  0  0  0
 17  1  1  0  0  0  0
 18 15  1  0  0  0  0
 18  8  1  0  0  0  0
 19 23  1  0  0  0  0
 19 12  1  0  0  0  0
 20 13  1  0  0  0  0
 21 16  1  0  0  0  0
 22 10  1  0  0  0  0
 23 25  1  0  0  0  0
 24 23  1  0  0  0  0
 27 26  1  0  0  0  0
 28 29  2  0  0  0  0
 28 32  1  0  0  0  0
 29 31  1  0  0  0  0
 30 33  1  0  0  0  0
 30 27  1  0  0  0  0
 31 33  2  0  0  0  0
 32 30  2  0  0  0  0
 34 28  1  0  0  0  0
M  END
>  <MODEL>
2

>  <REMARK>
 VINA RESULT:      -2.1      2.373      7.070
  Name = 
  3 active torsions:
  status: ('A' for Active; 'I' for Inactive)
    1  A    between atoms: C_12  and  C_28
    2  A    between atoms: C_13  and  C_29
    3  A    between atoms: C_21  and  C_28
                            x       y       z     vdW  Elec       q    Type
                         _______ _______ _______ _____ _____    ______ ____

>  <TORSDO>
F 3

$$$$
