=
 OpenBabel11062409533D

 34 38  0  0  1  0  0  0  0  0999 V2000
  159.3730  212.0450  153.8400 C   0  0  2  0  0  0  0  0  0  0  0  0
  157.6140  214.4530  157.2610 O   0  0  0  0  0  0  0  0  0  0  0  0
  159.4330  214.0520  155.2050 O   0  0  0  0  0  0  0  0  0  0  0  0
  157.3800  212.3730  152.2980 C   0  0  0  0  0  2  0  0  0  0  0  0
  157.9090  213.6180  151.9530 O   0  0  0  0  0  0  0  0  0  0  0  0
  159.4020  213.5930  153.8650 C   0  0  2  0  0  3  0  0  0  0  0  0
  158.5200  211.4520  152.6980 C   0  0  0  0  0  2  0  0  0  0  0  0
  158.1930  214.2440  153.1700 C   0  0  0  0  0  2  0  0  0  0  0  0
  157.7780  213.3220  156.8280 C   0  0  0  0  0  0  0  0  0  0  0  0
  156.7720  212.2370  157.1630 C   0  0  2  0  0  3  0  0  0  0  0  0
  157.3200  210.8280  156.8700 C   0  0  0  0  0  2  0  0  0  0  0  0
  159.0200  212.9880  156.0360 C   0  0  1  0  0  3  0  0  0  0  0  0
  157.9960  210.7860  155.5250 C   0  0  0  0  0  3  0  0  0  0  0  0
  158.8010  211.8000  155.1740 C   0  0  0  0  0  0  0  0  0  0  0  0
  161.0880  210.3310  154.7760 C   0  0  1  0  0  3  0  0  0  0  0  0
  159.7560  208.7470  151.9750 O   0  0  0  0  0  1  0  0  0  0  0  0
  160.6090  205.3130  153.5300 C   0  0  0  0  0  1  0  0  0  0  0  0
  161.3660  211.1920  152.4110 C   0  0  0  0  0  0  0  0  0  0  0  0
  160.8200  211.4890  153.7990 C   0  0  1  0  0  3  0  0  0  0  0  0
  161.5970  206.4520  153.7080 C   0  0  1  0  0  0  0  0  0  0  0  0
  161.0990  207.4540  155.1130 S   0  0  2  0  0  0  0  0  0  0  0  0
  162.8710  205.9390  153.9010 F   0  0  0  0  0  0  0  0  0  0  0  0
  160.6920  208.9490  154.1620 C   0  0  2  0  0  3  0  0  0  0  0  0
  161.4670  212.0890  151.5870 O   0  0  0  0  0  0  0  0  0  0  0  0
  162.0560  209.6620  150.7190 F   0  0  0  0  0  0  0  0  0  0  0  0
  162.4220  207.7320  155.8200 O   0  0  0  0  0  0  0  0  0  0  0  0
  161.5720  207.3520  152.5080 C   0  0  0  0  0  0  0  0  0  0  0  0
  160.9750  208.7270  152.6610 C   0  0  1  0  0  0  0  0  0  0  0  0
  161.9840  206.9590  151.4220 O   0  0  0  0  0  0  0  0  0  0  0  0
  161.8970  209.8160  152.0920 C   0  0  2  0  0  3  0  0  0  0  0  0
  162.5490  210.4140  155.2020 C   0  0  0  0  0  1  0  0  0  0  0  0
  155.4600  212.4560  156.4680 C   0  0  0  0  0  0  0  0  0  0  0  0
  155.4430  213.0050  155.1910 O   0  0  0  0  0  0  0  0  0  0  0  0
  154.3740  212.1790  157.0450 O   0  0  0  0  0  1  0  0  0  0  0  0
  1  7  1  6  0  0  0
  1  6  1  0  0  0  0
  1 14  1  0  0  0  0
  3 12  1  0  0  0  0
  4  7  1  0  0  0  0
  5  4  1  0  0  0  0
  5  8  1  0  0  0  0
  6  8  1  1  0  0  0
  6  3  1  0  0  0  0
  9 10  1  0  0  0  0
  9  2  2  0  0  0  0
 10 32  1  6  0  0  0
 11 10  1  0  0  0  0
 12 14  1  6  0  0  0
 12  9  1  0  0  0  0
 13 11  1  0  0  0  0
 14 13  2  0  0  0  0
 15 31  1  6  0  0  0
 16 28  1  0  0  0  0
 19 18  1  6  0  0  0
 19  1  1  0  0  0  0
 19 15  1  0  0  0  0
 20 17  1  6  0  0  0
 20 22  1  0  0  0  0
 20 21  1  0  0  0  0
 21 26  2  1  0  0  0
 23 15  1  0  0  0  0
 23 21  1  0  0  0  0
 24 18  2  0  0  0  0
 25 30  1  0  0  0  0
 27 28  1  0  0  0  0
 27 20  1  0  0  0  0
 28 23  1  0  0  0  0
 29 27  2  0  0  0  0
 30 18  1  0  0  0  0
 30 28  1  0  0  0  0
 32 34  1  0  0  0  0
 33 32  2  0  0  0  0
M  END
>  <MODEL>
1

>  <REMARK>
 VINA RESULT:       0.1      0.000      0.000
  Name = 
  2 active torsions:
  status: ('A' for Active; 'I' for Inactive)
    1  A    between atoms: C_1  and  C_9
    2  A    between atoms: C_3  and  C_25
                            x       y       z     vdW  Elec       q    Type
                         _______ _______ _______ _____ _____    ______ ____

>  <TORSDO>
F 2

$$$$
=
 OpenBabel11062409533D

 34 38  0  0  1  0  0  0  0  0999 V2000
  159.5250  211.0300  154.3520 C   0  0  2  0  0  0  0  0  0  0  0  0
  158.2800  214.4110  157.1110 O   0  0  0  0  0  0  0  0  0  0  0  0
  160.0550  213.1640  155.3830 O   0  0  0  0  0  0  0  0  0  0  0  0
  157.8280  211.5910  152.5450 C   0  0  0  0  0  2  0  0  0  0  0  0
  158.7150  212.5610  152.0780 O   0  0  0  0  0  0  0  0  0  0  0  0
  159.9930  212.4910  154.1380 C   0  0  2  0  0  3  0  0  0  0  0  0
  158.6240  210.4870  153.2220 C   0  0  0  0  0  2  0  0  0  0  0  0
  159.0760  213.3020  153.2060 C   0  0  0  0  0  2  0  0  0  0  0  0
  158.1450  213.2180  156.8850 C   0  0  0  0  0  0  0  0  0  0  0  0
  156.8490  212.5250  157.2600 C   0  0  2  0  0  3  0  0  0  0  0  0
  156.9920  210.9910  157.2610 C   0  0  0  0  0  2  0  0  0  0  0  0
  159.2950  212.4220  156.3130 C   0  0  1  0  0  3  0  0  0  0  0  0
  157.7240  210.5210  156.0320 C   0  0  0  0  0  3  0  0  0  0  0  0
  158.8090  211.1990  155.6280 C   0  0  0  0  0  0  0  0  0  0  0  0
  160.4400  208.6020  154.5090 C   0  0  1  0  0  3  0  0  0  0  0  0
  160.9510  209.4820  151.1790 O   0  0  0  0  0  1  0  0  0  0  0  0
  160.8360  205.7470  150.1910 C   0  0  0  0  0  1  0  0  0  0  0  0
  161.9910  210.4630  153.7710 C   0  0  0  0  0  0  0  0  0  0  0  0
  160.7510  210.1080  154.5760 C   0  0  1  0  0  3  0  0  0  0  0  0
  161.5310  206.1310  151.4850 C   0  0  1  0  0  0  0  0  0  0  0  0
  160.3080  206.2720  152.7940 S   0  0  2  0  0  0  0  0  0  0  0  0
  162.4820  205.1740  151.8060 F   0  0  0  0  0  0  0  0  0  0  0  0
  160.4840  208.0650  153.0420 C   0  0  2  0  0  3  0  0  0  0  0  0
  162.5230  211.5530  153.9150 O   0  0  0  0  0  0  0  0  0  0  0  0
  163.5430  210.0190  152.0180 F   0  0  0  0  0  0  0  0  0  0  0  0
  160.9950  205.5970  153.9760 O   0  0  0  0  0  0  0  0  0  0  0  0
  162.1730  207.4800  151.3490 C   0  0  0  0  0  0  0  0  0  0  0  0
  161.5690  208.6360  152.1060 C   0  0  1  0  0  0  0  0  0  0  0  0
  163.1320  207.6440  150.6040 O   0  0  0  0  0  0  0  0  0  0  0  0
  162.6330  209.4240  152.8850 C   0  0  2  0  0  3  0  0  0  0  0  0
  161.4030  207.8880  155.4510 C   0  0  0  0  0  1  0  0  0  0  0  0
  155.7090  212.9550  156.3840 C   0  0  0  0  0  0  0  0  0  0  0  0
  155.9380  213.2120  155.0360 O   0  0  0  0  0  0  0  0  0  0  0  0
  154.5560  213.1200  156.8650 O   0  0  0  0  0  1  0  0  0  0  0  0
  1  7  1  6  0  0  0
  1 19  1  0  0  0  0
  1 14  1  0  0  0  0
  4  7  1  0  0  0  0
  5  4  1  0  0  0  0
  5  8  1  0  0  0  0
  6  8  1  6  0  0  0
  6  1  1  0  0  0  0
  6  3  1  0  0  0  0
  9  2  2  0  0  0  0
  9 10  1  0  0  0  0
 10 32  1  6  0  0  0
 10 11  1  0  0  0  0
 12  3  1  6  0  0  0
 12  9  1  0  0  0  0
 13 11  1  0  0  0  0
 14 13  2  0  0  0  0
 14 12  1  0  0  0  0
 15 19  1  0  0  0  0
 15 31  1  1  0  0  0
 16 28  1  0  0  0  0
 18 24  2  0  0  0  0
 19 18  1  6  0  0  0
 20 17  1  6  0  0  0
 20 22  1  0  0  0  0
 20 21  1  0  0  0  0
 21 23  1  0  0  0  0
 21 26  2  1  0  0  0
 23 15  1  0  0  0  0
 25 30  1  0  0  0  0
 27 20  1  0  0  0  0
 27 28  1  0  0  0  0
 28 30  1  0  0  0  0
 28 23  1  0  0  0  0
 29 27  2  0  0  0  0
 30 18  1  0  0  0  0
 32 34  1  0  0  0  0
 33 32  2  0  0  0  0
M  END
>  <MODEL>
2

>  <REMARK>
 VINA RESULT:       0.8      1.445      1.635
  Name = 
  2 active torsions:
  status: ('A' for Active; 'I' for Inactive)
    1  A    between atoms: C_1  and  C_9
    2  A    between atoms: C_3  and  C_25
                            x       y       z     vdW  Elec       q    Type
                         _______ _______ _______ _____ _____    ______ ____

>  <TORSDO>
F 2

$$$$
=
 OpenBabel11062409533D

 34 38  0  0  1  0  0  0  0  0999 V2000
  161.4310  208.8620  152.5090 C   0  0  2  0  0  0  0  0  0  0  0  0
  162.1010  210.5310  156.6760 O   0  0  0  0  0  0  0  0  0  0  0  0
  162.7890  210.2060  154.0080 O   0  0  0  0  0  0  0  0  0  0  0  0
  159.3890  210.2960  152.0280 C   0  0  0  0  0  2  0  0  0  0  0  0
  160.2560  211.3350  151.6860 O   0  0  0  0  0  0  0  0  0  0  0  0
  162.1270  210.2230  152.7550 C   0  0  2  0  0  3  0  0  0  0  0  0
  160.0850  208.9720  151.7620 C   0  0  0  0  0  2  0  0  0  0  0  0
  161.1610  211.4210  152.7460 C   0  0  0  0  0  2  0  0  0  0  0  0
  161.6130  209.6040  156.0480 C   0  0  0  0  0  0  0  0  0  0  0  0
  160.4110  208.8690  156.6080 C   0  0  2  0  0  3  0  0  0  0  0  0
  160.1720  207.5220  155.9000 C   0  0  0  0  0  2  0  0  0  0  0  0
  162.2560  209.1390  154.7630 C   0  0  1  0  0  3  0  0  0  0  0  0
  160.2830  207.6770  154.4060 C   0  0  0  0  0  3  0  0  0  0  0  0
  161.2810  208.4210  153.9060 C   0  0  0  0  0  0  0  0  0  0  0  0
  162.3130  206.4330  152.2360 C   0  0  1  0  0  3  0  0  0  0  0  0
  159.7880  206.6870  149.8510 O   0  0  0  0  0  1  0  0  0  0  0  0
  159.2770  202.8580  150.0080 C   0  0  0  0  0  1  0  0  0  0  0  0
  162.4040  208.0110  150.2570 C   0  0  0  0  0  0  0  0  0  0  0  0
  162.3980  207.8980  151.7740 C   0  0  1  0  0  3  0  0  0  0  0  0
  160.6920  203.4020  150.0840 C   0  0  1  0  0  0  0  0  0  0  0  0
  161.0590  203.8610  151.7810 S   0  0  2  0  0  0  0  0  0  0  0  0
  161.5850  202.4410  149.6340 F   0  0  0  0  0  0  0  0  0  0  0  0
  161.1890  205.6500  151.4830 C   0  0  2  0  0  3  0  0  0  0  0  0
  162.7170  209.0640  149.7230 O   0  0  0  0  0  0  0  0  0  0  0  0
  161.8880  207.1520  148.0950 F   0  0  0  0  0  0  0  0  0  0  0  0
  162.4820  203.3460  151.9740 O   0  0  0  0  0  0  0  0  0  0  0  0
  160.8130  204.6530  149.2640 C   0  0  0  0  0  0  0  0  0  0  0  0
  160.9790  205.9640  149.9870 C   0  0  1  0  0  0  0  0  0  0  0  0
  160.7290  204.6100  148.0420 O   0  0  0  0  0  0  0  0  0  0  0  0
  162.1420  206.7880  149.4130 C   0  0  2  0  0  3  0  0  0  0  0  0
  163.6980  205.8160  152.0760 C   0  0  0  0  0  1  0  0  0  0  0  0
  159.1720  209.7160  156.5780 C   0  0  0  0  0  0  0  0  0  0  0  0
  158.1100  209.3490  155.7590 O   0  0  0  0  0  0  0  0  0  0  0  0
  159.1000  210.7730  157.2600 O   0  0  0  0  0  1  0  0  0  0  0  0
  1  7  1  6  0  0  0
  1  6  1  0  0  0  0
  1 14  1  0  0  0  0
  3 12  1  0  0  0  0
  5  4  1  0  0  0  0
  5  8  1  0  0  0  0
  6  8  1  1  0  0  0
  6  3  1  0  0  0  0
  7  4  1  0  0  0  0
  9 10  1  0  0  0  0
  9  2  2  0  0  0  0
 10 32  1  6  0  0  0
 11 10  1  0  0  0  0
 12 14  1  6  0  0  0
 12  9  1  0  0  0  0
 13 11  1  0  0  0  0
 14 13  2  0  0  0  0
 15 31  1  6  0  0  0
 16 28  1  0  0  0  0
 19 18  1  6  0  0  0
 19 15  1  0  0  0  0
 19  1  1  0  0  0  0
 20 17  1  6  0  0  0
 20 21  1  0  0  0  0
 21 26  2  6  0  0  0
 22 20  1  0  0  0  0
 23 21  1  0  0  0  0
 23 15  1  0  0  0  0
 24 18  2  0  0  0  0
 25 30  1  0  0  0  0
 27 28  1  0  0  0  0
 27 20  1  0  0  0  0
 28 23  1  0  0  0  0
 29 27  2  0  0  0  0
 30 28  1  0  0  0  0
 30 18  1  0  0  0  0
 32 34  1  0  0  0  0
 33 32  2  0  0  0  0
M  END
>  <MODEL>
3

>  <REMARK>
 VINA RESULT:       1.8      3.034      4.520
  Name = 
  2 active torsions:
  status: ('A' for Active; 'I' for Inactive)
    1  A    between atoms: C_1  and  C_9
    2  A    between atoms: C_3  and  C_25
                            x       y       z     vdW  Elec       q    Type
                         _______ _______ _______ _____ _____    ______ ____

>  <TORSDO>
F 2

$$$$
=
 OpenBabel11062409533D

 34 38  0  0  1  0  0  0  0  0999 V2000
  161.3970  207.7430  151.3980 C   0  0  2  0  0  0  0  0  0  0  0  0
  163.4580  205.7490  147.8800 O   0  0  0  0  0  0  0  0  0  0  0  0
  163.4310  207.3860  150.1190 O   0  0  0  0  0  0  0  0  0  0  0  0
  161.0710  205.5890  152.7070 C   0  0  0  0  0  2  0  0  0  0  0  0
  162.3870  205.7150  153.1530 O   0  0  0  0  0  0  0  0  0  0  0  0
  162.8940  207.3450  151.4300 C   0  0  2  0  0  3  0  0  0  0  0  0
  160.5210  206.9740  152.4100 C   0  0  0  0  0  2  0  0  0  0  0  0
  163.1450  205.9390  152.0010 C   0  0  0  0  0  2  0  0  0  0  0  0
  162.3880  206.1740  148.2900 C   0  0  0  0  0  0  0  0  0  0  0  0
  161.0950  205.5470  147.8020 C   0  0  2  0  0  3  0  0  0  0  0  0
  159.8710  206.4310  148.1080 C   0  0  0  0  0  2  0  0  0  0  0  0
  162.3510  207.3710  149.2100 C   0  0  1  0  0  3  0  0  0  0  0  0
  159.9260  206.9490  149.5210 C   0  0  0  0  0  3  0  0  0  0  0  0
  161.0950  207.4010  149.9980 C   0  0  0  0  0  0  0  0  0  0  0  0
  159.9050  209.7210  152.1840 C   0  0  1  0  0  3  0  0  0  0  0  0
  161.8220  208.9450  154.9860 O   0  0  0  0  0  1  0  0  0  0  0  0
  159.0620  210.4120  157.2610 C   0  0  0  0  0  1  0  0  0  0  0  0
  162.4240  209.9610  152.2720 C   0  0  0  0  0  0  0  0  0  0  0  0
  161.2520  209.2750  151.5890 C   0  0  1  0  0  3  0  0  0  0  0  0
  159.3720  211.1190  155.9530 C   0  0  1  0  0  0  0  0  0  0  0  0
  158.4630  210.3260  154.6220 S   0  0  2  0  0  0  0  0  0  0  0  0
  159.0250  212.4570  156.0530 F   0  0  0  0  0  0  0  0  0  0  0  0
  159.9160  209.6710  153.7460 C   0  0  2  0  0  3  0  0  0  0  0  0
  163.5370  209.9210  151.7680 O   0  0  0  0  0  0  0  0  0  0  0  0
  163.3940  211.0730  154.1440 F   0  0  0  0  0  0  0  0  0  0  0  0
  157.9550  211.5100  153.8040 O   0  0  0  0  0  0  0  0  0  0  0  0
  160.8290  210.9800  155.6210 C   0  0  0  0  0  0  0  0  0  0  0  0
  161.2140  210.0920  154.4650 C   0  0  1  0  0  0  0  0  0  0  0  0
  161.6820  211.5360  156.3030 O   0  0  0  0  0  0  0  0  0  0  0  0
  162.1890  210.7950  153.5080 C   0  0  2  0  0  3  0  0  0  0  0  0
  159.5830  211.0990  151.6190 C   0  0  0  0  0  1  0  0  0  0  0  0
  160.9040  204.1620  148.3450 C   0  0  0  0  0  0  0  0  0  0  0  0
  160.7790  203.9740  149.7170 O   0  0  0  0  0  1  0  0  0  0  0  0
  160.8920  203.1650  147.5740 O   0  0  0  0  0  0  0  0  0  0  0  0
  1  6  1  0  0  0  0
  1 19  1  0  0  0  0
  1  7  1  1  0  0  0
  2  9  2  0  0  0  0
  3  6  1  0  0  0  0
  4  5  1  0  0  0  0
  6  8  1  6  0  0  0
  7  4  1  0  0  0  0
  8  5  1  0  0  0  0
 10 11  1  0  0  0  0
 10  9  1  0  0  0  0
 10 32  1  1  0  0  0
 11 13  1  0  0  0  0
 12  9  1  1  0  0  0
 12 14  1  0  0  0  0
 12  3  1  0  0  0  0
 13 14  2  0  0  0  0
 14  1  1  0  0  0  0
 15 31  1  1  0  0  0
 15 23  1  0  0  0  0
 18 30  1  0  0  0  0
 19 15  1  0  0  0  0
 19 18  1  1  0  0  0
 20 22  1  0  0  0  0
 20 17  1  1  0  0  0
 21 26  2  6  0  0  0
 21 20  1  0  0  0  0
 23 28  1  0  0  0  0
 23 21  1  0  0  0  0
 24 18  2  0  0  0  0
 27 20  1  0  0  0  0
 27 29  2  0  0  0  0
 28 16  1  0  0  0  0
 28 27  1  0  0  0  0
 30 25  1  0  0  0  0
 30 28  1  0  0  0  0
 32 33  1  0  0  0  0
 34 32  2  0  0  0  0
M  END
>  <MODEL>
4

>  <REMARK>
 VINA RESULT:       2.4      3.116      7.846
  Name = 
  2 active torsions:
  status: ('A' for Active; 'I' for Inactive)
    1  A    between atoms: C_1  and  C_9
    2  A    between atoms: C_3  and  C_25
                            x       y       z     vdW  Elec       q    Type
                         _______ _______ _______ _____ _____    ______ ____

>  <TORSDO>
F 2

$$$$
=
 OpenBabel11062409533D

 34 38  0  0  1  0  0  0  0  0999 V2000
  160.6720  208.6550  153.8300 C   0  0  2  0  0  0  0  0  0  0  0  0
  163.6570  205.7370  152.0470 O   0  0  0  0  0  0  0  0  0  0  0  0
  162.9500  207.8170  153.7410 O   0  0  0  0  0  0  0  0  0  0  0  0
  159.3840  206.8840  155.1200 C   0  0  0  0  0  2  0  0  0  0  0  0
  160.3570  206.9670  156.1160 O   0  0  0  0  0  0  0  0  0  0  0  0
  161.8870  208.1190  154.6280 C   0  0  2  0  0  3  0  0  0  0  0  0
  159.3060  208.2210  154.4010 C   0  0  0  0  0  2  0  0  0  0  0  0
  161.5780  206.8540  155.4460 C   0  0  0  0  0  2  0  0  0  0  0  0
  162.6230  206.3500  151.8320 C   0  0  0  0  0  0  0  0  0  0  0  0
  161.5910  205.7700  150.8830 C   0  0  2  0  0  3  0  0  0  0  0  0
  160.5560  206.8220  150.4380 C   0  0  0  0  0  2  0  0  0  0  0  0
  162.4120  207.7170  152.4400 C   0  0  1  0  0  3  0  0  0  0  0  0
  160.0730  207.6270  151.6150 C   0  0  0  0  0  3  0  0  0  0  0  0
  160.9680  208.0490  152.5200 C   0  0  0  0  0  0  0  0  0  0  0  0
  159.4640  210.8730  153.2200 C   0  0  1  0  0  3  0  0  0  0  0  0
  158.9910  210.5720  156.6570 O   0  0  0  0  0  1  0  0  0  0  0  0
  155.7920  212.7250  156.3900 C   0  0  0  0  0  1  0  0  0  0  0  0
  161.3520  210.9170  154.9070 C   0  0  0  0  0  0  0  0  0  0  0  0
  160.7580  210.1980  153.7060 C   0  0  1  0  0  3  0  0  0  0  0  0
  156.9890  213.1010  155.5350 C   0  0  1  0  0  0  0  0  0  0  0  0
  156.9760  212.1160  154.0330 S   0  0  2  0  0  0  0  0  0  0  0  0
  156.9400  214.4530  155.2330 F   0  0  0  0  0  0  0  0  0  0  0  0
  158.4830  211.1660  154.4020 C   0  0  2  0  0  3  0  0  0  0  0  0
  162.4970  210.6750  155.2610 O   0  0  0  0  0  0  0  0  0  0  0  0
  161.1370  212.3260  156.8160 F   0  0  0  0  0  0  0  0  0  0  0  0
  157.3500  213.1300  152.9570 O   0  0  0  0  0  0  0  0  0  0  0  0
  158.2640  212.7720  156.2550 C   0  0  0  0  0  0  0  0  0  0  0  0
  159.0960  211.6250  155.7410 C   0  0  1  0  0  0  0  0  0  0  0  0
  158.5920  213.3910  157.2600 O   0  0  0  0  0  0  0  0  0  0  0  0
  160.5730  212.0170  155.5840 C   0  0  2  0  0  3  0  0  0  0  0  0
  159.8580  212.1170  152.4320 C   0  0  0  0  0  1  0  0  0  0  0  0
  160.9110  204.5650  151.4620 C   0  0  0  0  0  0  0  0  0  0  0  0
  160.3150  203.6380  150.6140 O   0  0  0  0  0  0  0  0  0  0  0  0
  160.8440  204.4030  152.7110 O   0  0  0  0  0  1  0  0  0  0  0  0
  1  7  1  1  0  0  0
  1  6  1  0  0  0  0
  3  6  1  0  0  0  0
  4  5  1  0  0  0  0
  6  8  1  6  0  0  0
  7  4  1  0  0  0  0
  8  5  1  0  0  0  0
  9  2  2  0  0  0  0
 10 32  1  1  0  0  0
 10  9  1  0  0  0  0
 11 10  1  0  0  0  0
 11 13  1  0  0  0  0
 12  9  1  1  0  0  0
 12 14  1  0  0  0  0
 12  3  1  0  0  0  0
 13 14  2  0  0  0  0
 14  1  1  0  0  0  0
 15 31  1  1  0  0  0
 15 19  1  0  0  0  0
 15 23  1  0  0  0  0
 18 24  2  0  0  0  0
 18 30  1  0  0  0  0
 19  1  1  0  0  0  0
 19 18  1  1  0  0  0
 20 27  1  0  0  0  0
 20 17  1  1  0  0  0
 21 26  2  6  0  0  0
 21 23  1  0  0  0  0
 21 20  1  0  0  0  0
 22 20  1  0  0  0  0
 23 28  1  0  0  0  0
 27 29  2  0  0  0  0
 28 27  1  0  0  0  0
 28 16  1  0  0  0  0
 30 28  1  0  0  0  0
 30 25  1  0  0  0  0
 32 34  1  0  0  0  0
 33 32  2  0  0  0  0
M  END
>  <MODEL>
5

>  <REMARK>
 VINA RESULT:       2.5      2.821      7.402
  Name = 
  2 active torsions:
  status: ('A' for Active; 'I' for Inactive)
    1  A    between atoms: C_1  and  C_9
    2  A    between atoms: C_3  and  C_25
                            x       y       z     vdW  Elec       q    Type
                         _______ _______ _______ _____ _____    ______ ____

>  <TORSDO>
F 2

$$$$
=
 OpenBabel11062409533D

 34 38  0  0  1  0  0  0  0  0999 V2000
  159.8710  210.5510  153.8660 C   0  0  2  0  0  0  0  0  0  0  0  0
  159.2110  213.4920  157.2600 O   0  0  0  0  0  0  0  0  0  0  0  0
  160.6930  212.4280  155.1700 O   0  0  0  0  0  0  0  0  0  0  0  0
  158.0750  211.5450  152.3670 C   0  0  0  0  0  2  0  0  0  0  0  0
  159.0030  212.5100  151.9730 O   0  0  0  0  0  0  0  0  0  0  0  0
  160.4530  211.9870  153.8450 C   0  0  2  0  0  3  0  0  0  0  0  0
  158.8230  210.2840  152.7650 C   0  0  0  0  0  2  0  0  0  0  0  0
  159.5340  213.0150  153.1630 C   0  0  0  0  0  2  0  0  0  0  0  0
  158.9440  212.3700  156.8560 C   0  0  0  0  0  0  0  0  0  0  0  0
  157.6290  211.7250  157.2490 C   0  0  2  0  0  3  0  0  0  0  0  0
  157.6250  210.2070  156.9830 C   0  0  0  0  0  2  0  0  0  0  0  0
  159.9560  211.5980  156.0420 C   0  0  1  0  0  3  0  0  0  0  0  0
  158.1940  209.9020  155.6230 C   0  0  0  0  0  3  0  0  0  0  0  0
  159.2960  210.5530  155.2220 C   0  0  0  0  0  0  0  0  0  0  0  0
  160.5870  208.1060  153.3560 C   0  0  1  0  0  3  0  0  0  0  0  0
  161.1330  209.7870  150.3560 O   0  0  0  0  0  1  0  0  0  0  0  0
  160.7040  206.4620  148.4330 C   0  0  0  0  0  1  0  0  0  0  0  0
  162.2760  209.9720  153.0800 C   0  0  0  0  0  0  0  0  0  0  0  0
  161.0200  209.5130  153.8040 C   0  0  1  0  0  3  0  0  0  0  0  0
  161.4410  206.4380  149.7600 C   0  0  1  0  0  0  0  0  0  0  0  0
  160.2480  206.3240  151.0980 S   0  0  2  0  0  0  0  0  0  0  0  0
  162.3140  205.3620  149.7900 F   0  0  0  0  0  0  0  0  0  0  0  0
  160.5720  207.9700  151.7990 C   0  0  2  0  0  3  0  0  0  0  0  0
  162.8980  210.9420  153.4870 O   0  0  0  0  0  0  0  0  0  0  0  0
  163.7680  209.8860  151.2240 F   0  0  0  0  0  0  0  0  0  0  0  0
  160.8900  205.3120  152.0410 O   0  0  0  0  0  0  0  0  0  0  0  0
  162.1890  207.7230  149.9600 C   0  0  0  0  0  0  0  0  0  0  0  0
  161.6900  208.6820  151.0100 C   0  0  1  0  0  0  0  0  0  0  0  0
  163.1510  208.0040  149.2540 O   0  0  0  0  0  0  0  0  0  0  0  0
  162.8220  209.1560  151.9340 C   0  0  2  0  0  3  0  0  0  0  0  0
  161.4980  207.0990  154.0480 C   0  0  0  0  0  1  0  0  0  0  0  0
  156.4590  212.3870  156.5820 C   0  0  0  0  0  0  0  0  0  0  0  0
  155.1820  212.2130  157.1060 O   0  0  0  0  0  1  0  0  0  0  0  0
  156.6170  213.0670  155.5330 O   0  0  0  0  0  0  0  0  0  0  0  0
  1  7  1  6  0  0  0
  1 14  1  0  0  0  0
  4  7  1  0  0  0  0
  5  4  1  0  0  0  0
  5  8  1  0  0  0  0
  6  8  1  1  0  0  0
  6  1  1  0  0  0  0
  6  3  1  0  0  0  0
  9 10  1  0  0  0  0
  9  2  2  0  0  0  0
 10 32  1  6  0  0  0
 11 10  1  0  0  0  0
 12  3  1  6  0  0  0
 12  9  1  0  0  0  0
 13 11  1  0  0  0  0
 14 13  2  0  0  0  0
 14 12  1  0  0  0  0
 15 19  1  0  0  0  0
 15 31  1  1  0  0  0
 16 28  1  0  0  0  0
 18 24  2  0  0  0  0
 19 18  1  6  0  0  0
 19  1  1  0  0  0  0
 20 17  1  6  0  0  0
 20 22  1  0  0  0  0
 20 27  1  0  0  0  0
 20 21  1  0  0  0  0
 21 23  1  0  0  0  0
 21 26  2  1  0  0  0
 23 15  1  0  0  0  0
 25 30  1  0  0  0  0
 27 28  1  0  0  0  0
 28 23  1  0  0  0  0
 28 30  1  0  0  0  0
 29 27  2  0  0  0  0
 30 18  1  0  0  0  0
 32 33  1  0  0  0  0
 34 32  2  0  0  0  0
M  END
>  <MODEL>
6

>  <REMARK>
 VINA RESULT:       2.9      1.955      2.511
  Name = 
  2 active torsions:
  status: ('A' for Active; 'I' for Inactive)
    1  A    between atoms: C_1  and  C_9
    2  A    between atoms: C_3  and  C_25
                            x       y       z     vdW  Elec       q    Type
                         _______ _______ _______ _____ _____    ______ ____

>  <TORSDO>
F 2

$$$$
