=
 OpenBabel11052422073D

 25 27  0  0  1  0  0  0  0  0999 V2000
  160.9430  206.4680  148.2530 C   0  0  1  0  0  3  0  0  0  0  0  0
  161.0940  205.8290  149.6160 C   0  0  0  0  0  0  0  0  0  0  0  0
  162.2790  208.4080  149.1690 C   0  0  0  0  0  2  0  0  0  0  0  0
  161.9050  208.0250  150.5950 C   0  0  0  0  0  2  0  0  0  0  0  0
  161.7440  205.9220  151.9620 C   0  0  0  0  0  0  0  0  0  0  0  0
  162.2280  206.6200  153.0610 O   0  0  0  0  0  1  0  0  0  0  0  0
  160.7420  204.4830  149.7790 C   0  0  0  0  0  3  0  0  0  0  0  0
  161.1690  207.9840  148.2170 C   0  0  0  0  0  2  0  0  0  0  0  0
  161.3970  204.5750  152.1060 C   0  0  0  0  0  3  0  0  0  0  0  0
  160.8910  203.8580  151.0190 C   0  0  0  0  0  0  0  0  0  0  0  0
  161.6000  206.5570  150.7170 C   0  0  0  0  0  0  0  0  0  0  0  0
  161.6400  205.7440  147.1310 C   0  0  0  0  0  0  0  0  0  0  0  0
  163.0820  204.3460  145.1660 C   0  0  0  0  0  3  0  0  0  0  0  0
  161.0680  205.5090  145.8580 C   0  0  0  0  0  0  0  0  0  0  0  0
  161.7970  204.8130  144.8880 C   0  0  0  0  0  3  0  0  0  0  0  0
  163.6490  204.5710  146.4220 C   0  0  0  0  0  3  0  0  0  0  0  0
  159.4630  206.0680  145.4100 Cl  0  0  0  0  0  0  0  0  0  0  0  0
  162.9310  205.2650  147.3970 C   0  0  0  0  0  3  0  0  0  0  0  0
  160.5430  202.4190  151.1730 C   0  0  0  0  0  2  0  0  0  0  0  0
  161.4000  201.5740  150.2450 C   0  0  0  0  0  2  0  0  0  0  0  0
  160.5300  200.8630  149.2200 C   0  0  1  0  0  3  0  0  0  0  0  0
  159.2300  201.3640  149.2840 O   0  0  0  0  0  1  0  0  0  0  0  0
  161.0750  201.0440  147.8400 C   0  0  0  0  0  0  0  0  0  0  0  0
  161.1210  202.1880  147.3150 O   0  0  0  0  0  1  0  0  0  0  0  0
  161.5490  199.9440  147.1390 O   0  0  0  0  0  0  0  0  0  0  0  0
  1 12  1  6  0  0  0
  1  2  1  0  0  0  0
  2  7  2  0  0  0  0
  2 11  1  0  0  0  0
  3  4  1  0  0  0  0
  4 11  1  0  0  0  0
  5  9  1  0  0  0  0
  5  6  1  0  0  0  0
  7 10  1  0  0  0  0
  8  1  1  0  0  0  0
  8  3  1  0  0  0  0
 10 19  1  0  0  0  0
 10  9  2  0  0  0  0
 11  5  2  0  0  0  0
 12 18  1  0  0  0  0
 13 16  1  0  0  0  0
 14 12  2  0  0  0  0
 15 13  2  0  0  0  0
 15 14  1  0  0  0  0
 16 18  2  0  0  0  0
 17 14  1  0  0  0  0
 20 19  1  0  0  0  0
 21 22  1  6  0  0  0
 21 20  1  0  0  0  0
 23 21  1  0  0  0  0
 24 23  1  0  0  0  0
 25 23  2  0  0  0  0
M  END
>  <MODEL>
1

>  <REMARK>
 VINA RESULT:      -8.0      0.000      0.000
  Name = 
  5 active torsions:
  status: ('A' for Active; 'I' for Inactive)
    1  A    between atoms: C_1  and  C_5
    2  A    between atoms: C_2  and  C_21
    3  A    between atoms: C_6  and  C_15
    4  A    between atoms: C_6  and  C_23
    5  A    between atoms: C_15  and  C_21
                            x       y       z     vdW  Elec       q    Type
                         _______ _______ _______ _____ _____    ______ ____

>  <TORSDO>
F 5

$$$$
=
 OpenBabel11052422073D

 25 27  0  0  1  0  0  0  0  0999 V2000
  160.4580  205.5070  149.0610 C   0  0  1  0  0  3  0  0  0  0  0  0
  160.9330  206.3720  150.2080 C   0  0  0  0  0  0  0  0  0  0  0  0
  162.0520  206.8140  147.5990 C   0  0  0  0  0  2  0  0  0  0  0  0
  162.0440  207.9750  148.5840 C   0  0  0  0  0  2  0  0  0  0  0  0
  162.1670  208.2850  151.0760 C   0  0  0  0  0  0  0  0  0  0  0  0
  162.9410  209.4210  150.8790 O   0  0  0  0  0  1  0  0  0  0  0  0
  160.5890  206.0150  151.5180 C   0  0  0  0  0  3  0  0  0  0  0  0
  160.7200  206.0790  147.6640 C   0  0  0  0  0  2  0  0  0  0  0  0
  161.8220  207.9100  152.3770 C   0  0  0  0  0  3  0  0  0  0  0  0
  161.0300  206.7820  152.5990 C   0  0  0  0  0  0  0  0  0  0  0  0
  161.7300  207.5180  149.9820 C   0  0  0  0  0  0  0  0  0  0  0  0
  160.8180  204.0490  149.1760 C   0  0  0  0  0  0  0  0  0  0  0  0
  161.4270  201.3350  149.5740 C   0  0  0  0  0  3  0  0  0  0  0  0
  161.2050  203.2360  148.0820 C   0  0  0  0  0  0  0  0  0  0  0  0
  161.5070  201.8870  148.2950 C   0  0  0  0  0  3  0  0  0  0  0  0
  161.0410  202.1310  150.6530 C   0  0  0  0  0  3  0  0  0  0  0  0
  161.3470  203.8430  146.4390 Cl  0  0  0  0  0  0  0  0  0  0  0  0
  160.7390  203.4780  150.4530 C   0  0  0  0  0  3  0  0  0  0  0  0
  160.6830  206.3750  153.9890 C   0  0  0  0  0  2  0  0  0  0  0  0
  161.1350  207.4430  154.9710 C   0  0  0  0  0  2  0  0  0  0  0  0
  159.9590  207.9360  155.7980 C   0  0  1  0  0  3  0  0  0  0  0  0
  160.0960  207.4940  157.1140 O   0  0  0  0  0  1  0  0  0  0  0  0
  159.8740  209.4280  155.7720 C   0  0  0  0  0  0  0  0  0  0  0  0
  159.6880  210.0780  156.8360 O   0  0  0  0  0  1  0  0  0  0  0  0
  160.0190  210.1040  154.5690 O   0  0  0  0  0  0  0  0  0  0  0  0
  1 12  1  6  0  0  0
  1  2  1  0  0  0  0
  2  7  1  0  0  0  0
  3  8  1  0  0  0  0
  3  4  1  0  0  0  0
  4 11  1  0  0  0  0
  5  9  2  0  0  0  0
  6  5  1  0  0  0  0
  7 10  2  0  0  0  0
  8  1  1  0  0  0  0
  9 10  1  0  0  0  0
 10 19  1  0  0  0  0
 11  2  2  0  0  0  0
 11  5  1  0  0  0  0
 12 18  1  0  0  0  0
 13 16  1  0  0  0  0
 14 15  1  0  0  0  0
 14 12  2  0  0  0  0
 15 13  2  0  0  0  0
 17 14  1  0  0  0  0
 18 16  2  0  0  0  0
 19 20  1  0  0  0  0
 20 21  1  0  0  0  0
 21 22  1  1  0  0  0
 23 21  1  0  0  0  0
 23 24  1  0  0  0  0
 25 23  2  0  0  0  0
M  END
>  <MODEL>
2

>  <REMARK>
 VINA RESULT:      -6.8      3.641      6.052
  Name = 
  5 active torsions:
  status: ('A' for Active; 'I' for Inactive)
    1  A    between atoms: C_1  and  C_5
    2  A    between atoms: C_2  and  C_21
    3  A    between atoms: C_6  and  C_15
    4  A    between atoms: C_6  and  C_23
    5  A    between atoms: C_15  and  C_21
                            x       y       z     vdW  Elec       q    Type
                         _______ _______ _______ _____ _____    ______ ____

>  <TORSDO>
F 5

$$$$
=
 OpenBabel11052422073D

 25 27  0  0  1  0  0  0  0  0999 V2000
  162.1450  208.3360  151.5790 C   0  0  1  0  0  3  0  0  0  0  0  0
  161.6170  207.2910  150.6230 C   0  0  0  0  0  0  0  0  0  0  0  0
  161.8430  210.0040  149.7040 C   0  0  0  0  0  2  0  0  0  0  0  0
  161.8940  208.8870  148.6700 C   0  0  0  0  0  2  0  0  0  0  0  0
  160.9390  206.5780  148.3940 C   0  0  0  0  0  0  0  0  0  0  0  0
  160.7770  206.8260  147.0370 O   0  0  0  0  0  1  0  0  0  0  0  0
  161.2700  206.0270  151.1190 C   0  0  0  0  0  3  0  0  0  0  0  0
  162.6740  209.6140  150.9190 C   0  0  0  0  0  2  0  0  0  0  0  0
  160.5890  205.3260  148.9060 C   0  0  0  0  0  3  0  0  0  0  0  0
  160.7600  205.0480  150.2640 C   0  0  0  0  0  0  0  0  0  0  0  0
  161.4510  207.5710  149.2470 C   0  0  0  0  0  0  0  0  0  0  0  0
  161.2610  208.6130  152.7680 C   0  0  0  0  0  0  0  0  0  0  0  0
  159.5490  209.2900  154.8900 C   0  0  0  0  0  3  0  0  0  0  0  0
  161.0650  207.7120  153.8410 C   0  0  0  0  0  0  0  0  0  0  0  0
  160.2110  208.0620  154.8920 C   0  0  0  0  0  3  0  0  0  0  0  0
  159.7350  210.1800  153.8310 C   0  0  0  0  0  3  0  0  0  0  0  0
  161.8630  206.1490  153.9400 Cl  0  0  0  0  0  0  0  0  0  0  0  0
  160.5860  209.8420  152.7780 C   0  0  0  0  0  3  0  0  0  0  0  0
  160.3650  203.7190  150.8080 C   0  0  0  0  0  2  0  0  0  0  0  0
  161.3500  202.6560  150.3500 C   0  0  0  0  0  2  0  0  0  0  0  0
  160.6230  201.5320  149.6300 C   0  0  1  0  0  3  0  0  0  0  0  0
  159.2580  201.8150  149.5840 O   0  0  0  0  0  1  0  0  0  0  0  0
  161.1500  201.3570  148.2420 C   0  0  0  0  0  0  0  0  0  0  0  0
  161.5380  200.2270  147.8430 O   0  0  0  0  0  1  0  0  0  0  0  0
  161.1960  202.4450  147.3820 O   0  0  0  0  0  0  0  0  0  0  0  0
  1 12  1  1  0  0  0
  2  7  1  0  0  0  0
  2  1  1  0  0  0  0
  3  8  1  0  0  0  0
  4 11  1  0  0  0  0
  4  3  1  0  0  0  0
  5  9  2  0  0  0  0
  5 11  1  0  0  0  0
  6  5  1  0  0  0  0
  8  1  1  0  0  0  0
  9 10  1  0  0  0  0
 10 19  1  0  0  0  0
 10  7  2  0  0  0  0
 11  2  2  0  0  0  0
 12 18  2  0  0  0  0
 12 14  1  0  0  0  0
 13 15  1  0  0  0  0
 14 17  1  0  0  0  0
 14 15  2  0  0  0  0
 16 13  2  0  0  0  0
 18 16  1  0  0  0  0
 20 19  1  0  0  0  0
 21 22  1  6  0  0  0
 21 20  1  0  0  0  0
 23 21  1  0  0  0  0
 24 23  1  0  0  0  0
 25 23  2  0  0  0  0
M  END
>  <MODEL>
3

>  <REMARK>
 VINA RESULT:      -6.6      2.819      5.353
  Name = 
  5 active torsions:
  status: ('A' for Active; 'I' for Inactive)
    1  A    between atoms: C_1  and  C_5
    2  A    between atoms: C_2  and  C_21
    3  A    between atoms: C_6  and  C_15
    4  A    between atoms: C_6  and  C_23
    5  A    between atoms: C_15  and  C_21
                            x       y       z     vdW  Elec       q    Type
                         _______ _______ _______ _____ _____    ______ ____

>  <TORSDO>
F 5

$$$$
=
 OpenBabel11052422073D

 25 27  0  0  1  0  0  0  0  0999 V2000
  161.7010  203.4250  148.2030 C   0  0  1  0  0  3  0  0  0  0  0  0
  161.5230  203.9320  149.6160 C   0  0  0  0  0  0  0  0  0  0  0  0
  160.0440  201.6110  148.7940 C   0  0  0  0  0  2  0  0  0  0  0  0
  160.3460  201.7840  150.2770 C   0  0  0  0  0  2  0  0  0  0  0  0
  160.6730  203.6880  151.8860 C   0  0  0  0  0  0  0  0  0  0  0  0
  160.0090  202.9550  152.8610 O   0  0  0  0  0  1  0  0  0  0  0  0
  162.0380  205.1900  149.9580 C   0  0  0  0  0  3  0  0  0  0  0  0
  161.2770  201.9690  147.9770 C   0  0  0  0  0  2  0  0  0  0  0  0
  161.1840  204.9480  152.2080 C   0  0  0  0  0  3  0  0  0  0  0  0
  161.8710  205.6960  151.2490 C   0  0  0  0  0  0  0  0  0  0  0  0
  160.8340  203.1720  150.5890 C   0  0  0  0  0  0  0  0  0  0  0  0
  161.2040  204.3550  147.1270 C   0  0  0  0  0  0  0  0  0  0  0  0
  160.3210  206.2380  145.2380 C   0  0  0  0  0  3  0  0  0  0  0  0
  160.8520  203.9420  145.8190 C   0  0  0  0  0  0  0  0  0  0  0  0
  160.4120  204.8900  144.8890 C   0  0  0  0  0  3  0  0  0  0  0  0
  160.6720  206.6500  146.5250 C   0  0  0  0  0  3  0  0  0  0  0  0
  160.9200  202.2690  145.2890 Cl  0  0  0  0  0  0  0  0  0  0  0  0
  161.1110  205.7120  147.4610 C   0  0  0  0  0  3  0  0  0  0  0  0
  162.3950  207.0460  151.5910 C   0  0  0  0  0  2  0  0  0  0  0  0
  161.7310  208.0990  150.7200 C   0  0  0  0  0  2  0  0  0  0  0  0
  162.1860  209.4910  151.1280 C   0  0  1  0  0  3  0  0  0  0  0  0
  161.9550  210.3830  150.0800 O   0  0  0  0  0  1  0  0  0  0  0  0
  161.4630  209.9530  152.3520 C   0  0  0  0  0  0  0  0  0  0  0  0
  162.1020  210.3900  153.3460 O   0  0  0  0  0  1  0  0  0  0  0  0
  160.0760  209.9130  152.3870 O   0  0  0  0  0  0  0  0  0  0  0  0
  1 12  1  6  0  0  0
  1  2  1  0  0  0  0
  2  7  2  0  0  0  0
  2 11  1  0  0  0  0
  3  4  1  0  0  0  0
  4 11  1  0  0  0  0
  5  9  1  0  0  0  0
  5  6  1  0  0  0  0
  7 10  1  0  0  0  0
  8  1  1  0  0  0  0
  8  3  1  0  0  0  0
 10 19  1  0  0  0  0
 10  9  2  0  0  0  0
 11  5  2  0  0  0  0
 12 18  1  0  0  0  0
 13 16  1  0  0  0  0
 14 12  2  0  0  0  0
 15 13  2  0  0  0  0
 15 14  1  0  0  0  0
 16 18  2  0  0  0  0
 17 14  1  0  0  0  0
 20 21  1  0  0  0  0
 20 19  1  0  0  0  0
 21 22  1  6  0  0  0
 21 23  1  0  0  0  0
 23 25  2  0  0  0  0
 23 24  1  0  0  0  0
M  END
>  <MODEL>
4

>  <REMARK>
 VINA RESULT:      -6.5      2.537      5.688
  Name = 
  5 active torsions:
  status: ('A' for Active; 'I' for Inactive)
    1  A    between atoms: C_1  and  C_5
    2  A    between atoms: C_2  and  C_21
    3  A    between atoms: C_6  and  C_15
    4  A    between atoms: C_6  and  C_23
    5  A    between atoms: C_15  and  C_21
                            x       y       z     vdW  Elec       q    Type
                         _______ _______ _______ _____ _____    ______ ____

>  <TORSDO>
F 5

$$$$
=
 OpenBabel11052422073D

 25 27  0  0  1  0  0  0  0  0999 V2000
  162.1590  207.8320  151.8330 C   0  0  1  0  0  3  0  0  0  0  0  0
  161.6200  206.8200  150.8460 C   0  0  0  0  0  0  0  0  0  0  0  0
  161.6810  209.5880  150.0790 C   0  0  0  0  0  2  0  0  0  0  0  0
  161.7190  208.5350  148.9790 C   0  0  0  0  0  2  0  0  0  0  0  0
  160.8450  206.2050  148.6210 C   0  0  0  0  0  0  0  0  0  0  0  0
  160.5960  206.5220  147.2910 O   0  0  0  0  0  1  0  0  0  0  0  0
  161.3550  205.5160  151.2850 C   0  0  0  0  0  3  0  0  0  0  0  0
  162.5970  209.1670  151.2200 C   0  0  0  0  0  2  0  0  0  0  0  0
  160.5770  204.9120  149.0770 C   0  0  0  0  0  3  0  0  0  0  0  0
  160.8370  204.5650  150.4040 C   0  0  0  0  0  0  0  0  0  0  0  0
  161.3640  207.1700  149.5010 C   0  0  0  0  0  0  0  0  0  0  0  0
  161.3340  208.0020  153.0820 C   0  0  0  0  0  0  0  0  0  0  0  0
  159.8430  208.1350  155.4600 C   0  0  0  0  0  3  0  0  0  0  0  0
  160.7850  209.2340  153.5120 C   0  0  0  0  0  0  0  0  0  0  0  0
  160.0430  209.2860  154.6960 C   0  0  0  0  0  3  0  0  0  0  0  0
  160.3870  206.9200  155.0430 C   0  0  0  0  0  3  0  0  0  0  0  0
  160.9710  210.7330  152.6140 Cl  0  0  0  0  0  0  0  0  0  0  0  0
  161.1280  206.8560  153.8610 C   0  0  0  0  0  3  0  0  0  0  0  0
  160.5290  203.1920  150.8900 C   0  0  0  0  0  2  0  0  0  0  0  0
  161.4270  202.1810  150.1950 C   0  0  0  0  0  2  0  0  0  0  0  0
  160.5950  201.1900  149.3970 C   0  0  1  0  0  3  0  0  0  0  0  0
  159.2550  201.5790  149.4250 O   0  0  0  0  0  1  0  0  0  0  0  0
  161.0700  201.1100  147.9820 C   0  0  0  0  0  0  0  0  0  0  0  0
  160.9780  202.1090  147.2190 O   0  0  0  0  0  0  0  0  0  0  0  0
  161.6320  199.9320  147.5120 O   0  0  0  0  0  1  0  0  0  0  0  0
  1 12  1  1  0  0  0
  2  7  1  0  0  0  0
  2  1  1  0  0  0  0
  3  8  1  0  0  0  0
  4 11  1  0  0  0  0
  4  3  1  0  0  0  0
  5  9  2  0  0  0  0
  5 11  1  0  0  0  0
  6  5  1  0  0  0  0
  8  1  1  0  0  0  0
  9 10  1  0  0  0  0
 10 19  1  0  0  0  0
 10  7  2  0  0  0  0
 11  2  2  0  0  0  0
 12 14  2  0  0  0  0
 12 18  1  0  0  0  0
 14 15  1  0  0  0  0
 15 13  2  0  0  0  0
 16 13  1  0  0  0  0
 17 14  1  0  0  0  0
 18 16  2  0  0  0  0
 20 19  1  0  0  0  0
 21 22  1  6  0  0  0
 21 20  1  0  0  0  0
 23 21  1  0  0  0  0
 24 23  2  0  0  0  0
 25 23  1  0  0  0  0
M  END
>  <MODEL>
5

>  <REMARK>
 VINA RESULT:      -6.5      2.770      5.215
  Name = 
  5 active torsions:
  status: ('A' for Active; 'I' for Inactive)
    1  A    between atoms: C_1  and  C_5
    2  A    between atoms: C_2  and  C_21
    3  A    between atoms: C_6  and  C_15
    4  A    between atoms: C_6  and  C_23
    5  A    between atoms: C_15  and  C_21
                            x       y       z     vdW  Elec       q    Type
                         _______ _______ _______ _____ _____    ______ ____

>  <TORSDO>
F 5

$$$$
=
 OpenBabel11052422073D

 25 27  0  0  1  0  0  0  0  0999 V2000
  161.7850  202.5830  147.7760 C   0  0  1  0  0  3  0  0  0  0  0  0
  161.4160  203.4510  148.9590 C   0  0  0  0  0  0  0  0  0  0  0  0
  160.6530  200.6820  148.9960 C   0  0  0  0  0  2  0  0  0  0  0  0
  160.8320  201.3970  150.3290 C   0  0  0  0  0  2  0  0  0  0  0  0
  160.5650  203.7300  151.2240 C   0  0  0  0  0  0  0  0  0  0  0  0
  160.0810  203.2000  152.4130 O   0  0  0  0  0  1  0  0  0  0  0  0
  161.5580  204.8410  148.8540 C   0  0  0  0  0  3  0  0  0  0  0  0
  161.7780  201.0750  148.0490 C   0  0  0  0  0  2  0  0  0  0  0  0
  160.7040  205.1160  151.1000 C   0  0  0  0  0  3  0  0  0  0  0  0
  161.2060  205.6700  149.9200 C   0  0  0  0  0  0  0  0  0  0  0  0
  160.9150  202.8880  150.1550 C   0  0  0  0  0  0  0  0  0  0  0  0
  161.1030  202.9490  146.4830 C   0  0  0  0  0  0  0  0  0  0  0  0
  159.6990  203.4890  144.1100 C   0  0  0  0  0  3  0  0  0  0  0  0
  161.4360  204.0800  145.6990 C   0  0  0  0  0  0  0  0  0  0  0  0
  160.7310  204.3360  144.5190 C   0  0  0  0  0  3  0  0  0  0  0  0
  159.3650  202.3760  144.8820 C   0  0  0  0  0  3  0  0  0  0  0  0
  162.7250  205.1960  146.1240 Cl  0  0  0  0  0  0  0  0  0  0  0  0
  160.0630  202.1100  146.0610 C   0  0  0  0  0  3  0  0  0  0  0  0
  161.3320  207.1480  149.7870 C   0  0  0  0  0  2  0  0  0  0  0  0
  162.5840  207.6300  150.5010 C   0  0  0  0  0  2  0  0  0  0  0  0
  162.3150  208.9450  151.2150 C   0  0  1  0  0  3  0  0  0  0  0  0
  161.8760  209.8950  150.2920 O   0  0  0  0  0  1  0  0  0  0  0  0
  161.2910  208.7710  152.2890 C   0  0  0  0  0  0  0  0  0  0  0  0
  160.3030  209.5490  152.3640 O   0  0  0  0  0  0  0  0  0  0  0  0
  161.4210  207.7320  153.2010 O   0  0  0  0  0  1  0  0  0  0  0  0
  1 12  1  6  0  0  0
  1  8  1  0  0  0  0
  1  2  1  0  0  0  0
  2 11  1  0  0  0  0
  3  4  1  0  0  0  0
  5  6  1  0  0  0  0
  7  2  2  0  0  0  0
  7 10  1  0  0  0  0
  8  3  1  0  0  0  0
  9  5  1  0  0  0  0
 10  9  2  0  0  0  0
 11  4  1  0  0  0  0
 11  5  2  0  0  0  0
 13 15  2  0  0  0  0
 13 16  1  0  0  0  0
 14 17  1  0  0  0  0
 14 12  2  0  0  0  0
 15 14  1  0  0  0  0
 16 18  2  0  0  0  0
 18 12  1  0  0  0  0
 19 10  1  0  0  0  0
 19 20  1  0  0  0  0
 20 21  1  0  0  0  0
 21 22  1  6  0  0  0
 21 23  1  0  0  0  0
 23 24  2  0  0  0  0
 23 25  1  0  0  0  0
M  END
>  <MODEL>
6

>  <REMARK>
 VINA RESULT:      -6.4      2.330      5.586
  Name = 
  5 active torsions:
  status: ('A' for Active; 'I' for Inactive)
    1  A    between atoms: C_1  and  C_5
    2  A    between atoms: C_2  and  C_21
    3  A    between atoms: C_6  and  C_15
    4  A    between atoms: C_6  and  C_23
    5  A    between atoms: C_15  and  C_21
                            x       y       z     vdW  Elec       q    Type
                         _______ _______ _______ _____ _____    ______ ____

>  <TORSDO>
F 5

$$$$
=
 OpenBabel11052422073D

 25 27  0  0  1  0  0  0  0  0999 V2000
  160.5990  206.6010  148.3860 C   0  0  1  0  0  3  0  0  0  0  0  0
  160.9290  205.6250  149.4940 C   0  0  0  0  0  0  0  0  0  0  0  0
  162.1920  208.2050  149.5160 C   0  0  0  0  0  2  0  0  0  0  0  0
  162.0310  207.4720  150.8410 C   0  0  0  0  0  2  0  0  0  0  0  0
  161.9570  205.0880  151.6360 C   0  0  0  0  0  0  0  0  0  0  0  0
  162.6590  205.4640  152.7740 O   0  0  0  0  0  1  0  0  0  0  0  0
  160.5210  204.2900  149.3690 C   0  0  0  0  0  3  0  0  0  0  0  0
  160.9160  208.0680  148.6970 C   0  0  0  0  0  2  0  0  0  0  0  0
  161.5510  203.7590  151.4920 C   0  0  0  0  0  3  0  0  0  0  0  0
  160.8290  203.3610  150.3650 C   0  0  0  0  0  0  0  0  0  0  0  0
  161.6540  206.0300  150.6380 C   0  0  0  0  0  0  0  0  0  0  0  0
  161.0550  206.1800  147.0130 C   0  0  0  0  0  0  0  0  0  0  0  0
  161.7310  205.4530  144.3850 C   0  0  0  0  0  3  0  0  0  0  0  0
  162.3820  205.8010  146.6970 C   0  0  0  0  0  0  0  0  0  0  0  0
  162.7050  205.4390  145.3850 C   0  0  0  0  0  3  0  0  0  0  0  0
  160.4230  205.8300  144.6920 C   0  0  0  0  0  3  0  0  0  0  0  0
  163.6730  205.7420  147.8870 Cl  0  0  0  0  0  0  0  0  0  0  0  0
  160.0900  206.1920  145.9980 C   0  0  0  0  0  3  0  0  0  0  0  0
  160.4160  201.9390  150.2070 C   0  0  0  0  0  2  0  0  0  0  0  0
  159.9890  201.6770  148.7720 C   0  0  0  0  0  2  0  0  0  0  0  0
  161.1990  201.3670  147.9050 C   0  0  1  0  0  3  0  0  0  0  0  0
  161.7200  200.1230  148.2610 O   0  0  0  0  0  1  0  0  0  0  0  0
  160.8320  201.3670  146.4560 C   0  0  0  0  0  0  0  0  0  0  0  0
  160.5230  200.2930  145.8740 O   0  0  0  0  0  1  0  0  0  0  0  0
  160.8160  202.5620  145.7510 O   0  0  0  0  0  0  0  0  0  0  0  0
  1 12  1  6  0  0  0
  1  8  1  0  0  0  0
  1  2  1  0  0  0  0
  2 11  1  0  0  0  0
  3  4  1  0  0  0  0
  5  6  1  0  0  0  0
  7  2  2  0  0  0  0
  7 10  1  0  0  0  0
  8  3  1  0  0  0  0
  9  5  1  0  0  0  0
 10  9  2  0  0  0  0
 11  4  1  0  0  0  0
 11  5  2  0  0  0  0
 13 16  2  0  0  0  0
 13 15  1  0  0  0  0
 14 12  1  0  0  0  0
 14 17  1  0  0  0  0
 15 14  2  0  0  0  0
 16 18  1  0  0  0  0
 18 12  2  0  0  0  0
 19 10  1  0  0  0  0
 20 19  1  0  0  0  0
 21 22  1  1  0  0  0
 21 20  1  0  0  0  0
 23 21  1  0  0  0  0
 24 23  1  0  0  0  0
 25 23  2  0  0  0  0
M  END
>  <MODEL>
7

>  <REMARK>
 VINA RESULT:      -6.3      1.466      1.978
  Name = 
  5 active torsions:
  status: ('A' for Active; 'I' for Inactive)
    1  A    between atoms: C_1  and  C_5
    2  A    between atoms: C_2  and  C_21
    3  A    between atoms: C_6  and  C_15
    4  A    between atoms: C_6  and  C_23
    5  A    between atoms: C_15  and  C_21
                            x       y       z     vdW  Elec       q    Type
                         _______ _______ _______ _____ _____    ______ ____

>  <TORSDO>
F 5

$$$$
=
 OpenBabel11052422073D

 25 27  0  0  1  0  0  0  0  0999 V2000
  162.1990  206.4060  151.7580 C   0  0  1  0  0  3  0  0  0  0  0  0
  161.8730  207.8820  151.7100 C   0  0  0  0  0  0  0  0  0  0  0  0
  160.6580  206.2720  153.7560 C   0  0  0  0  0  2  0  0  0  0  0  0
  160.8310  207.7620  154.0210 C   0  0  0  0  0  2  0  0  0  0  0  0
  160.8760  209.8850  152.6740 C   0  0  0  0  0  0  0  0  0  0  0  0
  160.2030  210.5310  153.7040 O   0  0  0  0  0  1  0  0  0  0  0  0
  162.2530  208.6280  150.5870 C   0  0  0  0  0  3  0  0  0  0  0  0
  161.9150  205.7210  153.0990 C   0  0  0  0  0  2  0  0  0  0  0  0
  161.2550  210.6120  151.5430 C   0  0  0  0  0  3  0  0  0  0  0  0
  161.9480  209.9880  150.5030 C   0  0  0  0  0  0  0  0  0  0  0  0
  161.1770  208.5150  152.7650 C   0  0  0  0  0  0  0  0  0  0  0  0
  161.7090  205.6090  150.5760 C   0  0  0  0  0  0  0  0  0  0  0  0
  160.8300  204.2800  148.2620 C   0  0  0  0  0  3  0  0  0  0  0  0
  161.4190  204.2240  150.6160 C   0  0  0  0  0  0  0  0  0  0  0  0
  160.9810  203.5750  149.4570 C   0  0  0  0  0  3  0  0  0  0  0  0
  161.1180  205.6450  148.2180 C   0  0  0  0  0  3  0  0  0  0  0  0
  161.5670  203.2540  152.0730 Cl  0  0  0  0  0  0  0  0  0  0  0  0
  161.5550  206.3030  149.3690 C   0  0  0  0  0  3  0  0  0  0  0  0
  162.3300  210.7630  149.2910 C   0  0  0  0  0  2  0  0  0  0  0  0
  161.5810  212.0840  149.2600 C   0  0  0  0  0  2  0  0  0  0  0  0
  162.0860  212.9550  148.1210 C   0  0  1  0  0  3  0  0  0  0  0  0
  163.4330  212.6790  147.8850 O   0  0  0  0  0  1  0  0  0  0  0  0
  161.2950  212.7170  146.8750 C   0  0  0  0  0  0  0  0  0  0  0  0
  160.1050  212.3080  146.9410 O   0  0  0  0  0  1  0  0  0  0  0  0
  161.8720  212.9650  145.6380 O   0  0  0  0  0  0  0  0  0  0  0  0
  1 12  1  6  0  0  0
  1  8  1  0  0  0  0
  2  1  1  0  0  0  0
  2 11  1  0  0  0  0
  3  4  1  0  0  0  0
  5 11  2  0  0  0  0
  5  6  1  0  0  0  0
  7  2  2  0  0  0  0
  8  3  1  0  0  0  0
  9  5  1  0  0  0  0
 10  7  1  0  0  0  0
 10  9  2  0  0  0  0
 11  4  1  0  0  0  0
 12 14  1  0  0  0  0
 13 15  1  0  0  0  0
 14 17  1  0  0  0  0
 15 14  2  0  0  0  0
 16 13  2  0  0  0  0
 16 18  1  0  0  0  0
 18 12  2  0  0  0  0
 19 10  1  0  0  0  0
 20 19  1  0  0  0  0
 21 22  1  6  0  0  0
 21 20  1  0  0  0  0
 23 24  1  0  0  0  0
 23 21  1  0  0  0  0
 25 23  2  0  0  0  0
M  END
>  <MODEL>
8

>  <REMARK>
 VINA RESULT:      -6.3      4.594      7.159
  Name = 
  5 active torsions:
  status: ('A' for Active; 'I' for Inactive)
    1  A    between atoms: C_1  and  C_5
    2  A    between atoms: C_2  and  C_21
    3  A    between atoms: C_6  and  C_15
    4  A    between atoms: C_6  and  C_23
    5  A    between atoms: C_15  and  C_21
                            x       y       z     vdW  Elec       q    Type
                         _______ _______ _______ _____ _____    ______ ____

>  <TORSDO>
F 5

$$$$
=
 OpenBabel11052422073D

 25 27  0  0  1  0  0  0  0  0999 V2000
  160.4940  206.8920  151.3120 C   0  0  1  0  0  3  0  0  0  0  0  0
  160.8170  205.5030  150.8080 C   0  0  0  0  0  0  0  0  0  0  0  0
  161.6110  206.2150  153.4760 C   0  0  0  0  0  2  0  0  0  0  0  0
  161.3830  204.7420  153.1620 C   0  0  0  0  0  2  0  0  0  0  0  0
  161.5950  203.2230  151.1700 C   0  0  0  0  0  0  0  0  0  0  0  0
  162.0490  202.2140  152.0110 O   0  0  0  0  0  1  0  0  0  0  0  0
  160.6630  205.2200  149.4440 C   0  0  0  0  0  3  0  0  0  0  0  0
  160.5100  207.0500  152.8360 C   0  0  0  0  0  2  0  0  0  0  0  0
  161.4450  202.9600  149.8060 C   0  0  0  0  0  3  0  0  0  0  0  0
  160.9730  203.9530  148.9450 C   0  0  0  0  0  0  0  0  0  0  0  0
  161.2880  204.4960  151.6810 C   0  0  0  0  0  0  0  0  0  0  0  0
  161.2120  208.0080  150.5980 C   0  0  0  0  0  0  0  0  0  0  0  0
  162.5440  209.9800  149.1050 C   0  0  0  0  0  3  0  0  0  0  0  0
  161.4390  209.2910  151.1530 C   0  0  0  0  0  0  0  0  0  0  0  0
  162.1050  210.2630  150.4000 C   0  0  0  0  0  3  0  0  0  0  0  0
  162.3180  208.7190  148.5530 C   0  0  0  0  0  3  0  0  0  0  0  0
  160.9360  209.7370  152.7760 Cl  0  0  0  0  0  0  0  0  0  0  0  0
  161.6550  207.7410  149.2960 C   0  0  0  0  0  3  0  0  0  0  0  0
  160.8340  203.6730  147.4900 C   0  0  0  0  0  2  0  0  0  0  0  0
  161.9120  204.4100  146.7120 C   0  0  0  0  0  2  0  0  0  0  0  0
  161.7260  204.2030  145.2180 C   0  0  1  0  0  3  0  0  0  0  0  0
  160.8470  203.1410  145.0010 O   0  0  0  0  0  1  0  0  0  0  0  0
  161.1940  205.4400  144.5690 C   0  0  0  0  0  0  0  0  0  0  0  0
  161.5770  205.7730  143.4160 O   0  0  0  0  0  0  0  0  0  0  0  0
  160.2590  206.2190  145.2370 O   0  0  0  0  0  1  0  0  0  0  0  0
  1 12  1  6  0  0  0
  1  8  1  0  0  0  0
  2  1  1  0  0  0  0
  2 11  1  0  0  0  0
  4  3  1  0  0  0  0
  5 11  2  0  0  0  0
  5  6  1  0  0  0  0
  7  2  2  0  0  0  0
  8  3  1  0  0  0  0
  9  5  1  0  0  0  0
 10  7  1  0  0  0  0
 10  9  2  0  0  0  0
 11  4  1  0  0  0  0
 12 14  1  0  0  0  0
 13 15  1  0  0  0  0
 14 17  1  0  0  0  0
 15 14  2  0  0  0  0
 16 13  2  0  0  0  0
 16 18  1  0  0  0  0
 18 12  2  0  0  0  0
 19 10  1  0  0  0  0
 20 19  1  0  0  0  0
 21 22  1  1  0  0  0
 21 20  1  0  0  0  0
 23 21  1  0  0  0  0
 23 25  1  0  0  0  0
 24 23  2  0  0  0  0
M  END
>  <MODEL>
9

>  <REMARK>
 VINA RESULT:      -6.1      2.661      4.842
  Name = 
  5 active torsions:
  status: ('A' for Active; 'I' for Inactive)
    1  A    between atoms: C_1  and  C_5
    2  A    between atoms: C_2  and  C_21
    3  A    between atoms: C_6  and  C_15
    4  A    between atoms: C_6  and  C_23
    5  A    between atoms: C_15  and  C_21
                            x       y       z     vdW  Elec       q    Type
                         _______ _______ _______ _____ _____    ______ ____

>  <TORSDO>
F 5

$$$$
