=
 OpenBabel11062407453D

 34 35  0  0  1  0  0  0  0  0999 V2000
  161.3160  208.4860  155.6810 C   0  0  2  0  0  3  0  0  0  0  0  0
  160.5460  209.9620  153.7710 C   0  0  1  0  0  3  0  0  0  0  0  0
  160.3400  209.5980  155.2540 C   0  0  2  0  0  3  0  0  0  0  0  0
  160.7320  208.7220  152.8600 C   0  0  2  0  0  3  0  0  0  0  0  0
  161.1110  207.3190  154.8350 N   0  0  0  0  0  2  0  0  0  0  0  0
  161.6030  207.6460  153.5050 C   0  0  0  0  0  2  0  0  0  0  0  0
  160.5280  210.7430  156.0400 O   0  0  0  0  0  0  0  0  0  0  0  0
  159.5120  210.6930  157.0010 C   0  0  0  0  0  1  0  0  0  0  0  0
  160.0910  206.9470  157.2130 C   0  0  0  0  0  1  0  0  0  0  0  0
  161.0960  208.0810  157.1280 C   0  0  0  0  0  2  0  0  0  0  0  0
  161.6440  210.3810  151.3640 O   0  0  0  0  0  1  0  0  0  0  0  0
  161.2750  209.0890  151.5480 N   0  0  0  0  0  0  0  0  0  0  0  0
  161.1450  205.9120  149.5330 C   0  0  0  0  0  0  0  0  0  0  0  0
  161.6340  206.3540  148.3000 C   0  0  0  0  0  3  0  0  0  0  0  0
  161.4080  208.1520  150.4570 C   0  0  0  0  0  0  0  0  0  0  0  0
  162.0190  207.6890  148.1440 C   0  0  0  0  0  3  0  0  0  0  0  0
  161.0400  206.8030  150.6050 C   0  0  0  0  0  3  0  0  0  0  0  0
  161.9050  208.5830  149.2170 C   0  0  0  0  0  3  0  0  0  0  0  0
  160.7480  204.4900  149.7110 C   0  0  0  0  0  1  0  0  0  0  0  0
  159.4310  210.9150  153.2800 C   0  0  2  0  0  3  0  0  0  0  0  0
  160.1910  212.8220  154.5470 O   0  0  0  0  0  0  0  0  0  0  0  0
  159.7520  212.3920  153.4450 C   0  0  0  0  0  0  0  0  0  0  0  0
  159.6320  213.3200  152.3590 N   0  0  0  0  0  2  0  0  0  0  0  0
  159.4430  212.9520  150.9650 C   0  0  0  0  0  2  0  0  0  0  0  0
  159.3340  214.2020  150.1020 C   0  0  0  0  0  2  0  0  0  0  0  0
  158.9860  213.8560  148.7240 N   0  0  0  0  0  0  0  0  0  0  0  0
  157.5040  212.6030  147.2900 C   0  0  0  0  0  2  0  0  0  0  0  0
  157.6840  213.3390  148.3790 C   0  0  0  0  0  0  0  0  0  0  0  0
  156.5020  213.5880  149.2570 C   0  0  0  0  0  1  0  0  0  0  0  0
  159.9880  214.0800  147.6860 C   0  0  0  0  0  2  0  0  0  0  0  0
  161.2900  211.9790  147.7950 C   0  0  0  0  0  1  0  0  0  0  0  0
  161.3210  213.4670  148.0780 C   0  0  0  0  0  2  0  0  0  0  0  0
  158.0960  210.5530  153.9210 C   0  0  0  0  0  2  0  0  0  0  0  0
  157.3030  211.6950  154.0650 O   0  0  0  0  0  1  0  0  0  0  0  0
  1 10  1  1  0  0  0
  2 20  1  6  0  0  0
  2  3  1  0  0  0  0
  3  1  1  0  0  0  0
  3  7  1  1  0  0  0
  4 12  1  6  0  0  0
  4  6  1  0  0  0  0
  4  2  1  0  0  0  0
  5  1  1  0  0  0  0
  6  5  1  0  0  0  0
  7  8  1  0  0  0  0
 10  9  1  0  0  0  0
 11 12  1  0  0  0  0
 13 19  1  0  0  0  0
 13 17  1  0  0  0  0
 14 13  2  0  0  0  0
 15 17  2  0  0  0  0
 15 12  1  0  0  0  0
 16 14  1  0  0  0  0
 16 18  2  0  0  0  0
 18 15  1  0  0  0  0
 20 22  1  0  0  0  0
 20 33  1  1  0  0  0
 22 21  2  0  0  0  0
 23 22  1  0  0  0  0
 24 23  1  0  0  0  0
 25 24  1  0  0  0  0
 26 25  1  0  0  0  0
 27 28  2  0  0  0  0
 28 26  1  0  0  0  0
 28 29  1  0  0  0  0
 30 32  1  0  0  0  0
 30 26  1  0  0  0  0
 31 32  1  0  0  0  0
 33 34  1  0  0  0  0
M  END
>  <MODEL>
1

>  <REMARK>
 VINA RESULT:      -5.6      0.000      0.000
  Name = 
  13 active torsions:
  status: ('A' for Active; 'I' for Inactive)
    1  A    between atoms: C_1  and  C_19
    2  A    between atoms: O_2  and  C_15
    3  A    between atoms: C_3  and  N_13
    4  A    between atoms: C_3  and  C_17
    5  A    between atoms: C_4  and  C_31
    6  A    between atoms: C_10  and  C_31
    7  A    between atoms: C_12  and  N_28
    8  A    between atoms: N_13  and  C_14
    9  A    between atoms: N_13  and  C_33
   10  A    between atoms: C_17  and  N_29
   11  A    between atoms: C_18  and  C_31
   12  A    between atoms: C_21  and  N_28
   13  A    between atoms: C_22  and  C_33
                            x       y       z     vdW  Elec       q    Type
                         _______ _______ _______ _____ _____    ______ ____

>  <TORSDO>
F 13

$$$$
=
 OpenBabel11062407453D

 34 35  0  0  1  0  0  0  0  0999 V2000
  160.5150  208.5710  155.7540 C   0  0  2  0  0  3  0  0  0  0  0  0
  161.2630  208.8300  153.3470 C   0  0  1  0  0  3  0  0  0  0  0  0
  160.5380  209.5020  154.5290 C   0  0  2  0  0  3  0  0  0  0  0  0
  160.8740  207.3400  153.1630 C   0  0  2  0  0  3  0  0  0  0  0  0
  159.8550  207.3230  155.3940 N   0  0  0  0  0  2  0  0  0  0  0  0
  160.7400  206.6010  154.4920 C   0  0  0  0  0  2  0  0  0  0  0  0
  161.1840  210.7060  154.8410 O   0  0  0  0  0  0  0  0  0  0  0  0
  162.3790  210.3250  155.4610 C   0  0  0  0  0  1  0  0  0  0  0  0
  158.7320  210.1890  156.4020 C   0  0  0  0  0  1  0  0  0  0  0  0
  159.7630  209.1990  156.9140 C   0  0  0  0  0  2  0  0  0  0  0  0
  163.1020  206.5330  152.7110 O   0  0  0  0  0  1  0  0  0  0  0  0
  161.8170  206.6370  152.2880 N   0  0  0  0  0  0  0  0  0  0  0  0
  160.8480  204.1780  149.6090 C   0  0  0  0  0  0  0  0  0  0  0  0
  160.6760  205.0280  148.5110 C   0  0  0  0  0  3  0  0  0  0  0  0
  161.4460  206.0820  151.0070 C   0  0  0  0  0  0  0  0  0  0  0  0
  160.8970  206.4000  148.6550 C   0  0  0  0  0  3  0  0  0  0  0  0
  161.2370  204.7010  150.8450 C   0  0  0  0  0  3  0  0  0  0  0  0
  161.2780  206.9240  149.8980 C   0  0  0  0  0  3  0  0  0  0  0  0
  160.6290  202.7140  149.4590 C   0  0  0  0  0  1  0  0  0  0  0  0
  161.1000  209.6650  152.0550 C   0  0  2  0  0  3  0  0  0  0  0  0
  163.4110  210.3200  152.2740 O   0  0  0  0  0  0  0  0  0  0  0  0
  162.3940  210.2630  151.5290 C   0  0  0  0  0  0  0  0  0  0  0  0
  162.5250  210.7180  150.1760 N   0  0  0  0  0  2  0  0  0  0  0  0
  161.5730  210.4490  149.1110 C   0  0  0  0  0  2  0  0  0  0  0  0
  161.9470  211.2330  147.8610 C   0  0  0  0  0  2  0  0  0  0  0  0
  161.1330  212.4430  147.7410 N   0  0  0  0  0  0  0  0  0  0  0  0
  162.6640  214.3030  147.8920 C   0  0  0  0  0  2  0  0  0  0  0  0
  161.5580  213.7000  148.3090 C   0  0  0  0  0  0  0  0  0  0  0  0
  160.7470  214.3790  149.3630 C   0  0  0  0  0  1  0  0  0  0  0  0
  159.8820  212.3590  146.9940 C   0  0  0  0  0  2  0  0  0  0  0  0
  160.1870  213.8320  145.0300 C   0  0  0  0  0  1  0  0  0  0  0  0
  160.1410  212.3920  145.4970 C   0  0  0  0  0  2  0  0  0  0  0  0
  160.0200  210.7260  152.2360 C   0  0  0  0  0  2  0  0  0  0  0  0
  160.5100  211.9820  151.8680 O   0  0  0  0  0  1  0  0  0  0  0  0
  1 10  1  1  0  0  0
  2 20  1  6  0  0  0
  2  3  1  0  0  0  0
  3  7  1  1  0  0  0
  3  1  1  0  0  0  0
  4 12  1  6  0  0  0
  4  2  1  0  0  0  0
  4  6  1  0  0  0  0
  5  1  1  0  0  0  0
  6  5  1  0  0  0  0
  7  8  1  0  0  0  0
  9 10  1  0  0  0  0
 12 11  1  0  0  0  0
 13 17  1  0  0  0  0
 14 16  1  0  0  0  0
 14 13  2  0  0  0  0
 15 12  1  0  0  0  0
 16 18  2  0  0  0  0
 17 15  2  0  0  0  0
 18 15  1  0  0  0  0
 19 13  1  0  0  0  0
 20 33  1  1  0  0  0
 22 20  1  0  0  0  0
 22 21  2  0  0  0  0
 23 22  1  0  0  0  0
 24 23  1  0  0  0  0
 25 24  1  0  0  0  0
 26 25  1  0  0  0  0
 26 28  1  0  0  0  0
 27 28  2  0  0  0  0
 28 29  1  0  0  0  0
 30 26  1  0  0  0  0
 31 32  1  0  0  0  0
 32 30  1  0  0  0  0
 34 33  1  0  0  0  0
M  END
>  <MODEL>
2

>  <REMARK>
 VINA RESULT:      -5.3      2.043      2.994
  Name = 
  13 active torsions:
  status: ('A' for Active; 'I' for Inactive)
    1  A    between atoms: C_1  and  C_19
    2  A    between atoms: O_2  and  C_15
    3  A    between atoms: C_3  and  N_13
    4  A    between atoms: C_3  and  C_17
    5  A    between atoms: C_4  and  C_31
    6  A    between atoms: C_10  and  C_31
    7  A    between atoms: C_12  and  N_28
    8  A    between atoms: N_13  and  C_14
    9  A    between atoms: N_13  and  C_33
   10  A    between atoms: C_17  and  N_29
   11  A    between atoms: C_18  and  C_31
   12  A    between atoms: C_21  and  N_28
   13  A    between atoms: C_22  and  C_33
                            x       y       z     vdW  Elec       q    Type
                         _______ _______ _______ _____ _____    ______ ____

>  <TORSDO>
F 13

$$$$
=
 OpenBabel11062407453D

 34 35  0  0  1  0  0  0  0  0999 V2000
  160.9510  209.4460  153.1170 C   0  0  2  0  0  3  0  0  0  0  0  0
  161.4530  208.2020  150.9690 C   0  0  1  0  0  3  0  0  0  0  0  0
  161.3700  208.0980  152.5040 C   0  0  2  0  0  3  0  0  0  0  0  0
  162.1380  209.5040  150.4830 C   0  0  2  0  0  3  0  0  0  0  0  0
  161.9110  210.4690  152.7260 N   0  0  0  0  0  2  0  0  0  0  0  0
  161.7280  210.7240  151.3040 C   0  0  0  0  0  2  0  0  0  0  0  0
  160.4530  207.0970  152.8480 O   0  0  0  0  0  0  0  0  0  0  0  0
  160.8560  206.6560  154.1140 C   0  0  0  0  0  1  0  0  0  0  0  0
  161.6720  210.5410  155.2380 C   0  0  0  0  0  1  0  0  0  0  0  0
  160.9080  209.3760  154.6340 C   0  0  0  0  0  2  0  0  0  0  0  0
  161.5690  208.6810  148.2870 O   0  0  0  0  0  1  0  0  0  0  0  0
  161.8900  209.7500  149.0590 N   0  0  0  0  0  0  0  0  0  0  0  0
  160.9740  212.9720  147.3420 C   0  0  0  0  0  0  0  0  0  0  0  0
  162.2110  213.6240  147.3130 C   0  0  0  0  0  3  0  0  0  0  0  0
  161.9930  211.0570  148.4510 C   0  0  0  0  0  0  0  0  0  0  0  0
  163.3400  212.9930  147.8420 C   0  0  0  0  0  3  0  0  0  0  0  0
  160.8680  211.6950  147.9000 C   0  0  0  0  0  3  0  0  0  0  0  0
  163.2310  211.7160  148.4090 C   0  0  0  0  0  3  0  0  0  0  0  0
  159.7710  213.6310  146.7670 C   0  0  0  0  0  1  0  0  0  0  0  0
  162.0820  206.9230  150.3650 C   0  0  2  0  0  3  0  0  0  0  0  0
  159.9660  205.7650  150.3080 O   0  0  0  0  0  0  0  0  0  0  0  0
  161.0770  205.9650  149.7450 C   0  0  0  0  0  0  0  0  0  0  0  0
  161.3230  205.3160  148.4900 N   0  0  0  0  0  2  0  0  0  0  0  0
  162.3920  205.6630  147.5680 C   0  0  0  0  0  2  0  0  0  0  0  0
  162.7230  204.4750  146.6760 C   0  0  0  0  0  2  0  0  0  0  0  0
  161.6340  204.2060  145.7370 N   0  0  0  0  0  0  0  0  0  0  0  0
  161.5270  205.4440  143.6680 C   0  0  0  0  0  2  0  0  0  0  0  0
  161.0820  205.2460  144.9030 C   0  0  0  0  0  0  0  0  0  0  0  0
  159.9690  206.1130  145.3910 C   0  0  0  0  0  1  0  0  0  0  0  0
  161.1350  202.8380  145.6360 C   0  0  0  0  0  2  0  0  0  0  0  0
  161.2770  200.7830  147.0060 C   0  0  0  0  0  1  0  0  0  0  0  0
  160.8920  202.2480  147.0150 C   0  0  0  0  0  2  0  0  0  0  0  0
  162.9670  206.2260  151.3920 C   0  0  0  0  0  2  0  0  0  0  0  0
  162.5100  204.9240  151.6190 O   0  0  0  0  0  1  0  0  0  0  0  0
  1 10  1  1  0  0  0
  2 20  1  1  0  0  0
  2  3  1  0  0  0  0
  3  7  1  6  0  0  0
  3  1  1  0  0  0  0
  4 12  1  6  0  0  0
  4  2  1  0  0  0  0
  4  6  1  0  0  0  0
  5  1  1  0  0  0  0
  6  5  1  0  0  0  0
  7  8  1  0  0  0  0
 10  9  1  0  0  0  0
 11 12  1  0  0  0  0
 13 17  1  0  0  0  0
 14 13  2  0  0  0  0
 14 16  1  0  0  0  0
 15 12  1  0  0  0  0
 16 18  2  0  0  0  0
 17 15  2  0  0  0  0
 18 15  1  0  0  0  0
 19 13  1  0  0  0  0
 20 33  1  1  0  0  0
 22 21  2  0  0  0  0
 22 20  1  0  0  0  0
 23 22  1  0  0  0  0
 24 23  1  0  0  0  0
 25 24  1  0  0  0  0
 26 25  1  0  0  0  0
 27 28  2  0  0  0  0
 28 29  1  0  0  0  0
 28 26  1  0  0  0  0
 30 26  1  0  0  0  0
 30 32  1  0  0  0  0
 31 32  1  0  0  0  0
 33 34  1  0  0  0  0
M  END
>  <MODEL>
3

>  <REMARK>
 VINA RESULT:      -5.2      3.069      7.187
  Name = 
  13 active torsions:
  status: ('A' for Active; 'I' for Inactive)
    1  A    between atoms: C_1  and  C_19
    2  A    between atoms: O_2  and  C_15
    3  A    between atoms: C_3  and  N_13
    4  A    between atoms: C_3  and  C_17
    5  A    between atoms: C_4  and  C_31
    6  A    between atoms: C_10  and  C_31
    7  A    between atoms: C_12  and  N_28
    8  A    between atoms: N_13  and  C_14
    9  A    between atoms: N_13  and  C_33
   10  A    between atoms: C_17  and  N_29
   11  A    between atoms: C_18  and  C_31
   12  A    between atoms: C_21  and  N_28
   13  A    between atoms: C_22  and  C_33
                            x       y       z     vdW  Elec       q    Type
                         _______ _______ _______ _____ _____    ______ ____

>  <TORSDO>
F 13

$$$$
=
 OpenBabel11062407453D

 34 35  0  0  1  0  0  0  0  0999 V2000
  161.7300  204.9960  147.0950 C   0  0  2  0  0  3  0  0  0  0  0  0
  161.6230  205.6980  149.5260 C   0  0  1  0  0  3  0  0  0  0  0  0
  161.2070  204.6310  148.4960 C   0  0  2  0  0  3  0  0  0  0  0  0
  161.4530  207.1480  149.0040 C   0  0  2  0  0  3  0  0  0  0  0  0
  161.2100  206.3020  146.7150 N   0  0  0  0  0  2  0  0  0  0  0  0
  161.8730  207.2980  147.5440 C   0  0  0  0  0  2  0  0  0  0  0  0
  161.7060  203.3850  148.8960 O   0  0  0  0  0  0  0  0  0  0  0  0
  160.7690  202.4530  148.4350 C   0  0  0  0  0  1  0  0  0  0  0  0
  161.0390  204.6590  144.7220 C   0  0  0  0  0  1  0  0  0  0  0  0
  161.2890  203.9780  146.0570 C   0  0  0  0  0  2  0  0  0  0  0  0
  163.1390  207.6300  150.6620 O   0  0  0  0  0  1  0  0  0  0  0  0
  162.1760  208.1130  149.8380 N   0  0  0  0  0  0  0  0  0  0  0  0
  161.8170  211.6790  148.6880 C   0  0  0  0  0  0  0  0  0  0  0  0
  161.2910  212.2820  149.8350 C   0  0  0  0  0  3  0  0  0  0  0  0
  161.8930  209.5300  149.8340 C   0  0  0  0  0  0  0  0  0  0  0  0
  161.0740  211.5150  150.9840 C   0  0  0  0  0  3  0  0  0  0  0  0
  162.1220  210.3150  148.6900 C   0  0  0  0  0  3  0  0  0  0  0  0
  161.3730  210.1460  150.9820 C   0  0  0  0  0  3  0  0  0  0  0  0
  162.0640  212.4910  147.4670 C   0  0  0  0  0  1  0  0  0  0  0  0
  160.9220  205.4540  150.8830 C   0  0  2  0  0  3  0  0  0  0  0  0
  162.8370  204.4900  151.9880 O   0  0  0  0  0  0  0  0  0  0  0  0
  161.8720  205.2980  152.0600 C   0  0  0  0  0  0  0  0  0  0  0  0
  161.7460  206.0930  153.2470 N   0  0  0  0  0  2  0  0  0  0  0  0
  160.9000  207.2670  153.3770 C   0  0  0  0  0  2  0  0  0  0  0  0
  160.6640  207.5850  154.8470 C   0  0  0  0  0  2  0  0  0  0  0  0
  160.9080  209.0010  155.1220 N   0  0  0  0  0  0  0  0  0  0  0  0
  162.0290  208.7570  157.2460 C   0  0  0  0  0  2  0  0  0  0  0  0
  161.8720  209.4250  156.1090 C   0  0  0  0  0  0  0  0  0  0  0  0
  162.7470  210.6100  155.8690 C   0  0  0  0  0  1  0  0  0  0  0  0
  160.1700  209.9890  154.3420 C   0  0  0  0  0  2  0  0  0  0  0  0
  159.1960  212.1820  154.9460 C   0  0  0  0  0  1  0  0  0  0  0  0
  159.1300  210.6910  155.2000 C   0  0  0  0  0  2  0  0  0  0  0  0
  159.9510  204.2830  150.7810 C   0  0  0  0  0  2  0  0  0  0  0  0
  160.1800  203.3740  151.8200 O   0  0  0  0  0  1  0  0  0  0  0  0
  1 10  1  6  0  0  0
  1  3  1  0  0  0  0
  2 20  1  1  0  0  0
  3  7  1  1  0  0  0
  3  2  1  0  0  0  0
  4  2  1  0  0  0  0
  4 12  1  1  0  0  0
  5  1  1  0  0  0  0
  5  6  1  0  0  0  0
  6  4  1  0  0  0  0
  8  7  1  0  0  0  0
  9 10  1  0  0  0  0
 12 11  1  0  0  0  0
 13 17  2  0  0  0  0
 13 14  1  0  0  0  0
 14 16  2  0  0  0  0
 15 12  1  0  0  0  0
 15 18  2  0  0  0  0
 17 15  1  0  0  0  0
 18 16  1  0  0  0  0
 19 13  1  0  0  0  0
 20 33  1  6  0  0  0
 20 22  1  0  0  0  0
 21 22  2  0  0  0  0
 22 23  1  0  0  0  0
 23 24  1  0  0  0  0
 24 25  1  0  0  0  0
 25 26  1  0  0  0  0
 26 28  1  0  0  0  0
 28 27  2  0  0  0  0
 29 28  1  0  0  0  0
 30 26  1  0  0  0  0
 30 32  1  0  0  0  0
 31 32  1  0  0  0  0
 33 34  1  0  0  0  0
M  END
>  <MODEL>
4

>  <REMARK>
 VINA RESULT:      -5.1      3.285      7.893
  Name = 
  13 active torsions:
  status: ('A' for Active; 'I' for Inactive)
    1  A    between atoms: C_1  and  C_19
    2  A    between atoms: O_2  and  C_15
    3  A    between atoms: C_3  and  N_13
    4  A    between atoms: C_3  and  C_17
    5  A    between atoms: C_4  and  C_31
    6  A    between atoms: C_10  and  C_31
    7  A    between atoms: C_12  and  N_28
    8  A    between atoms: N_13  and  C_14
    9  A    between atoms: N_13  and  C_33
   10  A    between atoms: C_17  and  N_29
   11  A    between atoms: C_18  and  C_31
   12  A    between atoms: C_21  and  N_28
   13  A    between atoms: C_22  and  C_33
                            x       y       z     vdW  Elec       q    Type
                         _______ _______ _______ _____ _____    ______ ____

>  <TORSDO>
F 13

$$$$
=
 OpenBabel11062407453D

 34 35  0  0  1  0  0  0  0  0999 V2000
  160.7320  208.8920  155.7260 C   0  0  2  0  0  3  0  0  0  0  0  0
  160.2220  210.0970  153.5570 C   0  0  1  0  0  3  0  0  0  0  0  0
  160.9050  208.8730  154.1970 C   0  0  2  0  0  3  0  0  0  0  0  0
  160.4790  211.4130  154.3360 C   0  0  2  0  0  3  0  0  0  0  0  0
  161.2960  210.1250  156.2560 N   0  0  0  0  0  2  0  0  0  0  0  0
  160.4260  211.2190  155.8490 C   0  0  0  0  0  2  0  0  0  0  0  0
  160.3540  207.7040  153.6560 O   0  0  0  0  0  0  0  0  0  0  0  0
  161.4470  206.8620  153.4220 C   0  0  0  0  0  1  0  0  0  0  0  0
  160.4740  206.9420  157.2600 C   0  0  0  0  0  1  0  0  0  0  0  0
  161.4390  207.7160  156.3790 C   0  0  0  0  0  2  0  0  0  0  0  0
  160.0060  213.4020  153.0540 O   0  0  0  0  0  1  0  0  0  0  0  0
  159.5500  212.4730  153.9310 N   0  0  0  0  0  0  0  0  0  0  0  0
  156.0680  211.5620  155.0340 C   0  0  0  0  0  0  0  0  0  0  0  0
  155.5910  212.8020  155.4710 C   0  0  0  0  0  3  0  0  0  0  0  0
  158.2010  212.5790  154.4370 C   0  0  0  0  0  0  0  0  0  0  0  0
  156.4100  213.9310  155.3850 C   0  0  0  0  0  3  0  0  0  0  0  0
  157.3620  211.4540  154.5140 C   0  0  0  0  0  3  0  0  0  0  0  0
  157.7090  213.8190  154.8710 C   0  0  0  0  0  3  0  0  0  0  0  0
  155.1970  210.3590  155.1090 C   0  0  0  0  0  1  0  0  0  0  0  0
  160.5760  210.2000  152.0550 C   0  0  2  0  0  3  0  0  0  0  0  0
  162.9470  210.3880  152.4580 O   0  0  0  0  0  0  0  0  0  0  0  0
  162.0330  209.9080  151.7340 C   0  0  0  0  0  0  0  0  0  0  0  0
  162.4130  209.0410  150.6560 N   0  0  0  0  0  2  0  0  0  0  0  0
  161.5050  208.1720  149.9260 C   0  0  0  0  0  2  0  0  0  0  0  0
  162.2450  207.4670  148.7980 C   0  0  0  0  0  2  0  0  0  0  0  0
  161.4420  206.3750  148.2480 N   0  0  0  0  0  0  0  0  0  0  0  0
  162.6800  205.2400  146.5150 C   0  0  0  0  0  2  0  0  0  0  0  0
  161.6070  205.9270  146.8860 C   0  0  0  0  0  0  0  0  0  0  0  0
  160.5580  206.1930  145.8580 C   0  0  0  0  0  1  0  0  0  0  0  0
  160.4820  205.7170  149.1280 C   0  0  0  0  0  2  0  0  0  0  0  0
  160.8170  203.2710  149.2790 C   0  0  0  0  0  1  0  0  0  0  0  0
  161.1470  204.6030  149.9200 C   0  0  0  0  0  2  0  0  0  0  0  0
  160.1330  211.5460  151.4920 C   0  0  0  0  0  2  0  0  0  0  0  0
  160.9050  211.8810  150.3750 O   0  0  0  0  0  1  0  0  0  0  0  0
  1  5  1  0  0  0  0
  1 10  1  1  0  0  0
  2 20  1  6  0  0  0
  2  3  1  0  0  0  0
  2  4  1  0  0  0  0
  3  7  1  6  0  0  0
  3  1  1  0  0  0  0
  4 12  1  6  0  0  0
  4  6  1  0  0  0  0
  6  5  1  0  0  0  0
  8  7  1  0  0  0  0
 10  9  1  0  0  0  0
 11 12  1  0  0  0  0
 12 15  1  0  0  0  0
 13 19  1  0  0  0  0
 13 14  1  0  0  0  0
 15 17  1  0  0  0  0
 15 18  2  0  0  0  0
 16 14  2  0  0  0  0
 17 13  2  0  0  0  0
 18 16  1  0  0  0  0
 20 33  1  1  0  0  0
 22 20  1  0  0  0  0
 22 21  2  0  0  0  0
 23 22  1  0  0  0  0
 24 23  1  0  0  0  0
 25 24  1  0  0  0  0
 26 25  1  0  0  0  0
 26 30  1  0  0  0  0
 27 28  2  0  0  0  0
 28 26  1  0  0  0  0
 29 28  1  0  0  0  0
 30 32  1  0  0  0  0
 31 32  1  0  0  0  0
 34 33  1  0  0  0  0
M  END
>  <MODEL>
5

>  <REMARK>
 VINA RESULT:      -5.0      2.590      6.528
  Name = 
  13 active torsions:
  status: ('A' for Active; 'I' for Inactive)
    1  A    between atoms: C_1  and  C_19
    2  A    between atoms: O_2  and  C_15
    3  A    between atoms: C_3  and  N_13
    4  A    between atoms: C_3  and  C_17
    5  A    between atoms: C_4  and  C_31
    6  A    between atoms: C_10  and  C_31
    7  A    between atoms: C_12  and  N_28
    8  A    between atoms: N_13  and  C_14
    9  A    between atoms: N_13  and  C_33
   10  A    between atoms: C_17  and  N_29
   11  A    between atoms: C_18  and  C_31
   12  A    between atoms: C_21  and  N_28
   13  A    between atoms: C_22  and  C_33
                            x       y       z     vdW  Elec       q    Type
                         _______ _______ _______ _____ _____    ______ ____

>  <TORSDO>
F 13

$$$$
=
 OpenBabel11062407453D

 34 35  0  0  1  0  0  0  0  0999 V2000
  161.1520  207.7470  155.1510 C   0  0  2  0  0  3  0  0  0  0  0  0
  161.5560  208.4760  152.7590 C   0  0  1  0  0  3  0  0  0  0  0  0
  161.0540  208.9110  154.1490 C   0  0  2  0  0  3  0  0  0  0  0  0
  161.0540  207.0690  152.3430 C   0  0  2  0  0  3  0  0  0  0  0  0
  160.3710  206.6220  154.6560 N   0  0  0  0  0  2  0  0  0  0  0  0
  161.0700  206.0750  153.5020 C   0  0  0  0  0  2  0  0  0  0  0  0
  161.8120  210.0030  154.5910 O   0  0  0  0  0  0  0  0  0  0  0  0
  160.8880  211.0390  154.7660 C   0  0  0  0  0  1  0  0  0  0  0  0
  160.1080  206.9230  157.2610 C   0  0  0  0  0  1  0  0  0  0  0  0
  160.6180  208.1450  156.5160 C   0  0  0  0  0  2  0  0  0  0  0  0
  162.9270  207.2100  150.8290 O   0  0  0  0  0  1  0  0  0  0  0  0
  161.8150  206.5340  151.2100 N   0  0  0  0  0  0  0  0  0  0  0  0
  161.2160  204.1070  148.3960 C   0  0  0  0  0  0  0  0  0  0  0  0
  160.6930  203.0120  149.0900 C   0  0  0  0  0  3  0  0  0  0  0  0
  161.4220  205.3490  150.4820 C   0  0  0  0  0  0  0  0  0  0  0  0
  160.5240  203.0850  150.4760 C   0  0  0  0  0  3  0  0  0  0  0  0
  161.5720  205.2690  149.0860 C   0  0  0  0  0  3  0  0  0  0  0  0
  160.8890  204.2470  151.1680 C   0  0  0  0  0  3  0  0  0  0  0  0
  161.3850  204.0420  146.9190 C   0  0  0  0  0  1  0  0  0  0  0  0
  161.2590  209.5640  151.7010 C   0  0  2  0  0  3  0  0  0  0  0  0
  163.4400  210.5090  152.1130 O   0  0  0  0  0  0  0  0  0  0  0  0
  162.4610  210.4150  151.3230 C   0  0  0  0  0  0  0  0  0  0  0  0
  162.5530  211.0760  150.0540 N   0  0  0  0  0  2  0  0  0  0  0  0
  161.6780  210.8290  148.9200 C   0  0  0  0  0  2  0  0  0  0  0  0
  162.0150  211.7790  147.7790 C   0  0  0  0  0  2  0  0  0  0  0  0
  160.8760  212.6410  147.4620 N   0  0  0  0  0  0  0  0  0  0  0  0
  160.9530  214.4370  149.0720 C   0  0  0  0  0  2  0  0  0  0  0  0
  160.2630  213.4820  148.4620 C   0  0  0  0  0  0  0  0  0  0  0  0
  158.8210  213.3250  148.8180 C   0  0  0  0  0  1  0  0  0  0  0  0
  160.3880  212.6570  146.0860 C   0  0  0  0  0  2  0  0  0  0  0  0
  159.7730  214.4300  144.4750 C   0  0  0  0  0  1  0  0  0  0  0  0
  159.4850  213.8550  145.8460 C   0  0  0  0  0  2  0  0  0  0  0  0
  160.0740  210.4210  152.1340 C   0  0  0  0  0  2  0  0  0  0  0  0
  160.1120  211.6600  151.4860 O   0  0  0  0  0  1  0  0  0  0  0  0
  1 10  1  1  0  0  0
  2 20  1  6  0  0  0
  2  3  1  0  0  0  0
  3  7  1  1  0  0  0
  3  1  1  0  0  0  0
  4 12  1  6  0  0  0
  4  2  1  0  0  0  0
  4  6  1  0  0  0  0
  5  1  1  0  0  0  0
  6  5  1  0  0  0  0
  7  8  1  0  0  0  0
 10  9  1  0  0  0  0
 11 12  1  0  0  0  0
 13 17  2  0  0  0  0
 13 14  1  0  0  0  0
 14 16  2  0  0  0  0
 15 18  2  0  0  0  0
 15 12  1  0  0  0  0
 16 18  1  0  0  0  0
 17 15  1  0  0  0  0
 19 13  1  0  0  0  0
 20 33  1  1  0  0  0
 22 20  1  0  0  0  0
 22 21  2  0  0  0  0
 23 22  1  0  0  0  0
 24 23  1  0  0  0  0
 25 24  1  0  0  0  0
 26 25  1  0  0  0  0
 26 28  1  0  0  0  0
 28 29  1  0  0  0  0
 28 27  2  0  0  0  0
 30 26  1  0  0  0  0
 31 32  1  0  0  0  0
 32 30  1  0  0  0  0
 34 33  1  0  0  0  0
M  END
>  <MODEL>
6

>  <REMARK>
 VINA RESULT:      -4.8      2.026      3.087
  Name = 
  13 active torsions:
  status: ('A' for Active; 'I' for Inactive)
    1  A    between atoms: C_1  and  C_19
    2  A    between atoms: O_2  and  C_15
    3  A    between atoms: C_3  and  N_13
    4  A    between atoms: C_3  and  C_17
    5  A    between atoms: C_4  and  C_31
    6  A    between atoms: C_10  and  C_31
    7  A    between atoms: C_12  and  N_28
    8  A    between atoms: N_13  and  C_14
    9  A    between atoms: N_13  and  C_33
   10  A    between atoms: C_17  and  N_29
   11  A    between atoms: C_18  and  C_31
   12  A    between atoms: C_21  and  N_28
   13  A    between atoms: C_22  and  C_33
                            x       y       z     vdW  Elec       q    Type
                         _______ _______ _______ _____ _____    ______ ____

>  <TORSDO>
F 13

$$$$
=
 OpenBabel11062407453D

 34 35  0  0  1  0  0  0  0  0999 V2000
  161.7590  204.8910  147.0550 C   0  0  2  0  0  3  0  0  0  0  0  0
  161.6180  205.7140  149.4460 C   0  0  1  0  0  3  0  0  0  0  0  0
  161.2110  204.6000  148.4630 C   0  0  2  0  0  3  0  0  0  0  0  0
  161.4650  207.1370  148.8500 C   0  0  2  0  0  3  0  0  0  0  0  0
  161.2540  206.1800  146.6020 N   0  0  0  0  0  2  0  0  0  0  0  0
  161.9090  207.2120  147.3920 C   0  0  0  0  0  2  0  0  0  0  0  0
  161.6960  203.3720  148.9330 O   0  0  0  0  0  0  0  0  0  0  0  0
  160.7900  202.4180  148.4580 C   0  0  0  0  0  1  0  0  0  0  0  0
  160.8600  204.4680  144.7670 C   0  0  0  0  0  1  0  0  0  0  0  0
  161.3290  203.8260  146.0610 C   0  0  0  0  0  2  0  0  0  0  0  0
  163.1070  207.6900  150.5290 O   0  0  0  0  0  1  0  0  0  0  0  0
  162.1800  208.1390  149.6470 N   0  0  0  0  0  0  0  0  0  0  0  0
  161.5760  211.5680  148.2150 C   0  0  0  0  0  0  0  0  0  0  0  0
  161.3800  212.3160  149.3810 C   0  0  0  0  0  3  0  0  0  0  0  0
  161.9250  209.5580  149.5490 C   0  0  0  0  0  0  0  0  0  0  0  0
  161.4640  211.6920  150.6290 C   0  0  0  0  0  3  0  0  0  0  0  0
  161.8540  210.2000  148.3000 C   0  0  0  0  0  3  0  0  0  0  0  0
  161.7340  210.3200  150.7110 C   0  0  0  0  0  3  0  0  0  0  0  0
  161.5030  212.2270  146.8850 C   0  0  0  0  0  1  0  0  0  0  0  0
  160.8920  205.5420  150.8020 C   0  0  2  0  0  3  0  0  0  0  0  0
  162.8540  204.8360  152.0150 O   0  0  0  0  0  0  0  0  0  0  0  0
  161.8150  205.5500  152.0100 C   0  0  0  0  0  0  0  0  0  0  0  0
  161.5760  206.3990  153.1410 N   0  0  0  0  0  2  0  0  0  0  0  0
  160.6190  207.4920  153.1750 C   0  0  0  0  0  2  0  0  0  0  0  0
  161.2380  208.7130  153.8400 C   0  0  0  0  0  2  0  0  0  0  0  0
  160.3890  209.2050  154.9250 N   0  0  0  0  0  0  0  0  0  0  0  0
  159.5220  211.0460  153.6280 C   0  0  0  0  0  2  0  0  0  0  0  0
  159.6230  210.4210  154.7950 C   0  0  0  0  0  0  0  0  0  0  0  0
  158.8920  210.9970  155.9620 C   0  0  0  0  0  1  0  0  0  0  0  0
  160.3060  208.4100  156.1470 C   0  0  0  0  0  2  0  0  0  0  0  0
  162.3160  209.3270  157.2600 C   0  0  0  0  0  1  0  0  0  0  0  0
  161.6930  208.0780  156.6720 C   0  0  0  0  0  2  0  0  0  0  0  0
  160.0010  204.3050  150.7790 C   0  0  0  0  0  2  0  0  0  0  0  0
  160.2780  203.4900  151.8820 O   0  0  0  0  0  1  0  0  0  0  0  0
  1 10  1  6  0  0  0
  1  3  1  0  0  0  0
  2 20  1  1  0  0  0
  3  7  1  1  0  0  0
  3  2  1  0  0  0  0
  4  2  1  0  0  0  0
  4 12  1  1  0  0  0
  5  1  1  0  0  0  0
  5  6  1  0  0  0  0
  6  4  1  0  0  0  0
  8  7  1  0  0  0  0
  9 10  1  0  0  0  0
 12 11  1  0  0  0  0
 13 17  2  0  0  0  0
 13 14  1  0  0  0  0
 14 16  2  0  0  0  0
 15 12  1  0  0  0  0
 15 18  2  0  0  0  0
 16 18  1  0  0  0  0
 17 15  1  0  0  0  0
 19 13  1  0  0  0  0
 20 33  1  6  0  0  0
 20 22  1  0  0  0  0
 22 21  2  0  0  0  0
 22 23  1  0  0  0  0
 23 24  1  0  0  0  0
 24 25  1  0  0  0  0
 25 26  1  0  0  0  0
 26 30  1  0  0  0  0
 27 28  2  0  0  0  0
 28 26  1  0  0  0  0
 28 29  1  0  0  0  0
 30 32  1  0  0  0  0
 32 31  1  0  0  0  0
 33 34  1  0  0  0  0
M  END
>  <MODEL>
7

>  <REMARK>
 VINA RESULT:      -4.8      3.229      7.744
  Name = 
  13 active torsions:
  status: ('A' for Active; 'I' for Inactive)
    1  A    between atoms: C_1  and  C_19
    2  A    between atoms: O_2  and  C_15
    3  A    between atoms: C_3  and  N_13
    4  A    between atoms: C_3  and  C_17
    5  A    between atoms: C_4  and  C_31
    6  A    between atoms: C_10  and  C_31
    7  A    between atoms: C_12  and  N_28
    8  A    between atoms: N_13  and  C_14
    9  A    between atoms: N_13  and  C_33
   10  A    between atoms: C_17  and  N_29
   11  A    between atoms: C_18  and  C_31
   12  A    between atoms: C_21  and  N_28
   13  A    between atoms: C_22  and  C_33
                            x       y       z     vdW  Elec       q    Type
                         _______ _______ _______ _____ _____    ______ ____

>  <TORSDO>
F 13

$$$$
=
 OpenBabel11062407453D

 34 35  0  0  1  0  0  0  0  0999 V2000
  161.3460  208.2840  155.4640 C   0  0  2  0  0  3  0  0  0  0  0  0
  161.5220  208.3730  152.9380 C   0  0  1  0  0  3  0  0  0  0  0  0
  161.0720  209.1260  154.2050 C   0  0  2  0  0  3  0  0  0  0  0  0
  161.1320  206.8730  152.9510 C   0  0  2  0  0  3  0  0  0  0  0  0
  160.6470  207.0120  155.3510 N   0  0  0  0  0  2  0  0  0  0  0  0
  161.3190  206.2300  154.3230 C   0  0  0  0  0  2  0  0  0  0  0  0
  161.7480  210.3510  154.2770 O   0  0  0  0  0  0  0  0  0  0  0  0
  160.8380  211.2330  154.8710 C   0  0  0  0  0  1  0  0  0  0  0  0
  159.4000  208.6850  156.9710 C   0  0  0  0  0  1  0  0  0  0  0  0
  160.8660  208.9910  156.7190 C   0  0  0  0  0  2  0  0  0  0  0  0
  162.9750  206.6870  151.4040 O   0  0  0  0  0  1  0  0  0  0  0  0
  161.8660  206.1130  151.9340 N   0  0  0  0  0  0  0  0  0  0  0  0
  160.9200  203.2730  149.6520 C   0  0  0  0  0  0  0  0  0  0  0  0
  160.6840  202.2500  150.5770 C   0  0  0  0  0  3  0  0  0  0  0  0
  161.4500  204.8100  151.4660 C   0  0  0  0  0  0  0  0  0  0  0  0
  160.8200  202.5060  151.9440 C   0  0  0  0  0  3  0  0  0  0  0  0
  161.2930  204.5450  150.0950 C   0  0  0  0  0  3  0  0  0  0  0  0
  161.2030  203.7800  152.3860 C   0  0  0  0  0  3  0  0  0  0  0  0
  160.7620  203.0120  148.1960 C   0  0  0  0  0  1  0  0  0  0  0  0
  161.0530  209.1130  151.6630 C   0  0  2  0  0  3  0  0  0  0  0  0
  163.0490  210.4330  151.3600 O   0  0  0  0  0  0  0  0  0  0  0  0
  162.1810  209.6910  150.8240 C   0  0  0  0  0  0  0  0  0  0  0  0
  162.3340  209.3710  149.4350 N   0  0  0  0  0  2  0  0  0  0  0  0
  161.6230  208.3100  148.7410 C   0  0  0  0  0  2  0  0  0  0  0  0
  162.6110  207.3030  148.1690 C   0  0  0  0  0  2  0  0  0  0  0  0
  161.9700  206.4570  147.1620 N   0  0  0  0  0  0  0  0  0  0  0  0
  163.4060  204.5470  146.8270 C   0  0  0  0  0  2  0  0  0  0  0  0
  162.7370  205.5730  146.3170 C   0  0  0  0  0  0  0  0  0  0  0  0
  162.7750  205.7660  144.8380 C   0  0  0  0  0  1  0  0  0  0  0  0
  160.5150  206.5010  147.0510 C   0  0  0  0  0  2  0  0  0  0  0  0
  159.6530  205.1700  145.1520 C   0  0  0  0  0  1  0  0  0  0  0  0
  160.0830  206.5530  145.5960 C   0  0  0  0  0  2  0  0  0  0  0  0
  160.0090  210.1680  152.0110 C   0  0  0  0  0  2  0  0  0  0  0  0
  160.4500  211.4340  151.6110 O   0  0  0  0  0  1  0  0  0  0  0  0
  1 10  1  1  0  0  0
  2 20  1  6  0  0  0
  2  4  1  0  0  0  0
  2  3  1  0  0  0  0
  3  7  1  1  0  0  0
  3  1  1  0  0  0  0
  4 12  1  6  0  0  0
  4  6  1  0  0  0  0
  5  1  1  0  0  0  0
  6  5  1  0  0  0  0
  7  8  1  0  0  0  0
 10  9  1  0  0  0  0
 11 12  1  0  0  0  0
 13 17  2  0  0  0  0
 13 14  1  0  0  0  0
 14 16  2  0  0  0  0
 15 12  1  0  0  0  0
 15 18  2  0  0  0  0
 16 18  1  0  0  0  0
 17 15  1  0  0  0  0
 19 13  1  0  0  0  0
 20 33  1  1  0  0  0
 22 21  2  0  0  0  0
 22 20  1  0  0  0  0
 23 22  1  0  0  0  0
 24 23  1  0  0  0  0
 25 24  1  0  0  0  0
 26 25  1  0  0  0  0
 28 27  2  0  0  0  0
 28 26  1  0  0  0  0
 29 28  1  0  0  0  0
 30 26  1  0  0  0  0
 31 32  1  0  0  0  0
 32 30  1  0  0  0  0
 34 33  1  0  0  0  0
M  END
>  <MODEL>
8

>  <REMARK>
 VINA RESULT:      -4.5      3.147      5.227
  Name = 
  13 active torsions:
  status: ('A' for Active; 'I' for Inactive)
    1  A    between atoms: C_1  and  C_19
    2  A    between atoms: O_2  and  C_15
    3  A    between atoms: C_3  and  N_13
    4  A    between atoms: C_3  and  C_17
    5  A    between atoms: C_4  and  C_31
    6  A    between atoms: C_10  and  C_31
    7  A    between atoms: C_12  and  N_28
    8  A    between atoms: N_13  and  C_14
    9  A    between atoms: N_13  and  C_33
   10  A    between atoms: C_17  and  N_29
   11  A    between atoms: C_18  and  C_31
   12  A    between atoms: C_21  and  N_28
   13  A    between atoms: C_22  and  C_33
                            x       y       z     vdW  Elec       q    Type
                         _______ _______ _______ _____ _____    ______ ____

>  <TORSDO>
F 13

$$$$
=
 OpenBabel11062407453D

 34 35  0  0  1  0  0  0  0  0999 V2000
  158.6920  213.4290  152.6980 C   0  0  2  0  0  3  0  0  0  0  0  0
  160.3980  211.6800  152.0300 C   0  0  1  0  0  3  0  0  0  0  0  0
  159.4110  212.7470  151.5200 C   0  0  2  0  0  3  0  0  0  0  0  0
  159.8160  210.8090  153.1730 C   0  0  2  0  0  3  0  0  0  0  0  0
  157.9920  212.4200  153.4810 N   0  0  0  0  0  2  0  0  0  0  0  0
  158.9960  211.6230  154.1710 C   0  0  0  0  0  2  0  0  0  0  0  0
  160.1100  213.6940  150.7590 O   0  0  0  0  0  0  0  0  0  0  0  0
  159.2440  214.0270  149.7120 C   0  0  0  0  0  1  0  0  0  0  0  0
  156.3600  214.2790  152.9410 C   0  0  0  0  0  1  0  0  0  0  0  0
  157.6810  214.4530  152.2120 C   0  0  0  0  0  2  0  0  0  0  0  0
  162.0290  210.7080  154.1280 O   0  0  0  0  0  1  0  0  0  0  0  0
  160.8640  210.0610  153.8740 N   0  0  0  0  0  0  0  0  0  0  0  0
  160.9320  206.2980  153.8150 C   0  0  0  0  0  0  0  0  0  0  0  0
  160.4680  205.9990  155.1000 C   0  0  0  0  0  3  0  0  0  0  0  0
  160.7180  208.6810  154.2760 C   0  0  0  0  0  0  0  0  0  0  0  0
  160.1190  207.0360  155.9700 C   0  0  0  0  0  3  0  0  0  0  0  0
  161.0490  207.6290  153.4040 C   0  0  0  0  0  3  0  0  0  0  0  0
  160.2450  208.3700  155.5600 C   0  0  0  0  0  3  0  0  0  0  0  0
  161.2910  205.2000  152.8780 C   0  0  0  0  0  1  0  0  0  0  0  0
  160.9590  210.8450  150.8550 C   0  0  2  0  0  3  0  0  0  0  0  0
  163.0790  210.4940  151.9520 O   0  0  0  0  0  0  0  0  0  0  0  0
  162.1820  210.0130  151.2060 C   0  0  0  0  0  0  0  0  0  0  0  0
  162.3290  208.6560  150.7650 N   0  0  0  0  0  2  0  0  0  0  0  0
  161.2720  207.8540  150.1720 C   0  0  0  0  0  2  0  0  0  0  0  0
  161.5260  207.6680  148.6820 C   0  0  0  0  0  2  0  0  0  0  0  0
  161.1710  206.3140  148.2560 N   0  0  0  0  0  0  0  0  0  0  0  0
  160.5030  206.2240  145.9390 C   0  0  0  0  0  2  0  0  0  0  0  0
  161.3570  205.8770  146.8940 C   0  0  0  0  0  0  0  0  0  0  0  0
  162.5360  205.0470  146.5080 C   0  0  0  0  0  1  0  0  0  0  0  0
  160.6490  205.3920  149.2610 C   0  0  0  0  0  2  0  0  0  0  0  0
  160.4580  202.9920  149.8290 C   0  0  0  0  0  1  0  0  0  0  0  0
  161.3240  204.0350  149.1530 C   0  0  0  0  0  2  0  0  0  0  0  0
  161.2090  211.7310  149.6400 C   0  0  0  0  0  2  0  0  0  0  0  0
  162.3040  211.2540  148.9110 O   0  0  0  0  0  1  0  0  0  0  0  0
  1 10  1  6  0  0  0
  1  5  1  0  0  0  0
  2 20  1  6  0  0  0
  2  4  1  0  0  0  0
  3  7  1  1  0  0  0
  3  2  1  0  0  0  0
  3  1  1  0  0  0  0
  4 12  1  1  0  0  0
  4  6  1  0  0  0  0
  5  6  1  0  0  0  0
  8  7  1  0  0  0  0
 10  9  1  0  0  0  0
 12 11  1  0  0  0  0
 12 15  1  0  0  0  0
 13 14  1  0  0  0  0
 14 16  2  0  0  0  0
 15 18  2  0  0  0  0
 17 13  2  0  0  0  0
 17 15  1  0  0  0  0
 18 16  1  0  0  0  0
 19 13  1  0  0  0  0
 20 33  1  6  0  0  0
 20 22  1  0  0  0  0
 22 21  2  0  0  0  0
 23 22  1  0  0  0  0
 24 23  1  0  0  0  0
 25 24  1  0  0  0  0
 26 25  1  0  0  0  0
 26 30  1  0  0  0  0
 27 28  2  0  0  0  0
 28 26  1  0  0  0  0
 29 28  1  0  0  0  0
 32 30  1  0  0  0  0
 32 31  1  0  0  0  0
 34 33  1  0  0  0  0
M  END
>  <MODEL>
9

>  <REMARK>
 VINA RESULT:      -4.4      2.082      6.457
  Name = 
  13 active torsions:
  status: ('A' for Active; 'I' for Inactive)
    1  A    between atoms: C_1  and  C_19
    2  A    between atoms: O_2  and  C_15
    3  A    between atoms: C_3  and  N_13
    4  A    between atoms: C_3  and  C_17
    5  A    between atoms: C_4  and  C_31
    6  A    between atoms: C_10  and  C_31
    7  A    between atoms: C_12  and  N_28
    8  A    between atoms: N_13  and  C_14
    9  A    between atoms: N_13  and  C_33
   10  A    between atoms: C_17  and  N_29
   11  A    between atoms: C_18  and  C_31
   12  A    between atoms: C_21  and  N_28
   13  A    between atoms: C_22  and  C_33
                            x       y       z     vdW  Elec       q    Type
                         _______ _______ _______ _____ _____    ______ ____

>  <TORSDO>
F 13

$$$$
