=
 OpenBabel11052421483D

 30 33  0  0  1  0  0  0  0  0999 V2000
  160.5220  208.9230  152.7720 C   0  0  2  0  0  3  0  0  0  0  0  0
  162.1170  210.2750  156.4880 O   0  0  0  0  0  1  0  0  0  0  0  0
  159.7550  209.6290  155.1700 C   0  0  1  0  0  3  0  0  0  0  0  0
  160.7860  210.3930  152.4630 C   0  0  0  0  0  2  0  0  0  0  0  0
  157.5970  212.1860  152.5630 C   0  0  0  0  0  2  0  0  0  0  0  0
  158.4360  210.9960  152.7260 N   0  0  0  0  0  2  0  0  0  0  0  0
  160.2350  212.7570  152.8450 C   0  0  0  0  0  2  0  0  0  0  0  0
  162.5440  207.1390  154.1980 F   0  0  0  0  0  0  0  0  0  0  0  0
  161.2830  209.2410  156.9270 C   0  0  2  0  0  3  0  0  0  0  0  0
  159.8050  211.3160  153.1930 C   0  0  2  0  0  0  0  0  0  0  0  0
  159.9310  211.1030  154.7270 C   0  0  1  0  0  3  0  0  0  0  0  0
  160.1730  207.1790  154.6140 C   0  0  0  0  0  2  0  0  0  0  0  0
  158.1490  213.0950  151.4640 C   0  0  0  0  0  2  0  0  0  0  0  0
  159.6770  213.1780  151.4890 C   0  0  0  0  0  2  0  0  0  0  0  0
  160.5190  208.6220  154.2800 C   0  0  1  0  0  0  0  0  0  0  0  0
  161.7790  207.8860  156.4420 C   0  0  0  0  0  2  0  0  0  0  0  0
  159.9300  209.4550  156.5720 O   0  0  0  0  0  0  0  0  0  0  0  0
  161.5520  207.7260  154.9490 C   0  0  2  0  0  0  0  0  0  0  0  0
  162.1850  208.3470  151.0750 C   0  0  0  0  0  0  0  0  0  0  0  0
  162.6540  209.6510  151.2110 O   0  0  0  0  0  1  0  0  0  0  0  0
  161.1030  207.9390  151.7710 C   0  0  0  0  0  0  0  0  0  0  0  0
  160.1760  206.0570  150.2930 C   0  0  0  0  0  1  0  0  0  0  0  0
  161.6780  205.5070  152.1740 C   0  0  0  0  0  1  0  0  0  0  0  0
  160.6280  206.4900  151.6780 C   0  0  0  0  0  3  0  0  0  0  0  0
  162.9490  207.4300  150.1740 C   0  0  0  0  0  2  0  0  0  0  0  0
  162.6810  207.7510  148.8430 O   0  0  0  0  0  1  0  0  0  0  0  0
  159.9520  212.9190  156.5110 C   0  0  0  0  0  1  0  0  0  0  0  0
  159.0990  212.1150  155.5450 C   0  0  2  0  0  3  0  0  0  0  0  0
  157.8430  211.5490  156.2150 C   0  0  0  0  0  2  0  0  0  0  0  0
  156.7290  212.3600  155.9890 O   0  0  0  0  0  1  0  0  0  0  0  0
  1 21  1  6  0  0  0
  1 15  1  0  0  0  0
  3 17  1  1  0  0  0
  4  1  1  0  0  0  0
  5  6  1  0  0  0  0
  6 10  1  0  0  0  0
  7 10  1  0  0  0  0
  9  2  1  6  0  0  0
 10  4  1  6  0  0  0
 10 11  1  0  0  0  0
 11  3  1  0  0  0  0
 11 28  1  1  0  0  0
 12 18  1  0  0  0  0
 13 14  1  0  0  0  0
 13  5  1  0  0  0  0
 14  7  1  0  0  0  0
 15 12  1  6  0  0  0
 15 18  1  0  0  0  0
 15  3  1  0  0  0  0
 16  9  1  0  0  0  0
 17  9  1  0  0  0  0
 18  8  1  6  0  0  0
 18 16  1  0  0  0  0
 19 20  1  0  0  0  0
 19 21  2  0  0  0  0
 22 24  1  0  0  0  0
 24 21  1  0  0  0  0
 24 23  1  0  0  0  0
 25 19  1  0  0  0  0
 26 25  1  0  0  0  0
 28 29  1  0  0  0  0
 28 27  1  1  0  0  0
 30 29  1  0  0  0  0
M  END
>  <MODEL>
1

>  <REMARK>
 VINA RESULT:      -6.5      0.000      0.000
  Name = 
  5 active torsions:
  status: ('A' for Active; 'I' for Inactive)
    1  A    between atoms: C_1  and  C_22
    2  A    between atoms: C_2  and  C_14
    3  A    between atoms: C_7  and  C_30
    4  A    between atoms: C_13  and  C_30
    5  A    between atoms: C_22  and  C_29
                            x       y       z     vdW  Elec       q    Type
                         _______ _______ _______ _____ _____    ______ ____

>  <TORSDO>
F 5

$$$$
=
 OpenBabel11052421483D

 30 33  0  0  1  0  0  0  0  0999 V2000
  161.8160  207.2300  150.1370 C   0  0  2  0  0  3  0  0  0  0  0  0
  159.5500  203.9320  151.6100 O   0  0  0  0  0  1  0  0  0  0  0  0
  162.0100  204.6530  150.5310 C   0  0  1  0  0  3  0  0  0  0  0  0
  160.9050  206.9420  148.9480 C   0  0  0  0  0  2  0  0  0  0  0  0
  162.8470  205.1660  146.4050 C   0  0  0  0  0  2  0  0  0  0  0  0
  162.6650  205.7780  147.7240 N   0  0  0  0  0  2  0  0  0  0  0  0
  160.2430  205.4460  147.1160 C   0  0  0  0  0  2  0  0  0  0  0  0
  160.8020  207.3570  153.0110 F   0  0  0  0  0  0  0  0  0  0  0  0
  160.7460  203.7570  152.3140 C   0  0  2  0  0  3  0  0  0  0  0  0
  161.2840  205.6380  148.2390 C   0  0  2  0  0  0  0  0  0  0  0  0
  161.1820  204.4530  149.2380 C   0  0  1  0  0  3  0  0  0  0  0  0
  162.8400  206.2970  152.2900 C   0  0  0  0  0  2  0  0  0  0  0  0
  161.9970  205.8790  145.3530 C   0  0  0  0  0  2  0  0  0  0  0  0
  160.6140  206.2650  145.8840 C   0  0  0  0  0  2  0  0  0  0  0  0
  161.8710  206.0660  151.1410 C   0  0  1  0  0  0  0  0  0  0  0  0
  160.9840  204.8950  153.2960 C   0  0  0  0  0  2  0  0  0  0  0  0
  161.8540  203.5770  151.4510 O   0  0  0  0  0  0  0  0  0  0  0  0
  161.3490  206.1760  152.5660 C   0  0  2  0  0  0  0  0  0  0  0  0
  162.0500  209.6150  149.6580 C   0  0  0  0  0  0  0  0  0  0  0  0
  162.3490  209.2390  148.3520 O   0  0  0  0  0  1  0  0  0  0  0  0
  161.8330  208.6760  150.6020 C   0  0  0  0  0  0  0  0  0  0  0  0
  162.4800  209.9050  152.7600 C   0  0  0  0  0  1  0  0  0  0  0  0
  160.1160  209.8370  152.0530 C   0  0  0  0  0  1  0  0  0  0  0  0
  161.4360  209.0850  152.0200 C   0  0  0  0  0  3  0  0  0  0  0  0
  161.9410  211.0790  149.9450 C   0  0  0  0  0  2  0  0  0  0  0  0
  162.3340  211.8070  148.8220 O   0  0  0  0  0  1  0  0  0  0  0  0
  160.6620  202.9780  147.2280 C   0  0  0  0  0  1  0  0  0  0  0  0
  161.3830  203.0780  148.5620 C   0  0  2  0  0  3  0  0  0  0  0  0
  161.1240  201.8600  149.4520 C   0  0  0  0  0  2  0  0  0  0  0  0
  159.7970  201.4360  149.3720 O   0  0  0  0  0  1  0  0  0  0  0  0
  1 21  1  1  0  0  0
  1 15  1  0  0  0  0
  3 15  1  0  0  0  0
  3 17  1  1  0  0  0
  4  1  1  0  0  0  0
  5  6  1  0  0  0  0
  6 10  1  0  0  0  0
  9  2  1  6  0  0  0
  9 16  1  0  0  0  0
 10  7  1  6  0  0  0
 10  4  1  0  0  0  0
 10 11  1  0  0  0  0
 11 28  1  6  0  0  0
 11  3  1  0  0  0  0
 12 18  1  0  0  0  0
 13 14  1  0  0  0  0
 13  5  1  0  0  0  0
 14  7  1  0  0  0  0
 15 12  1  1  0  0  0
 15 18  1  0  0  0  0
 17  9  1  0  0  0  0
 18  8  1  1  0  0  0
 18 16  1  0  0  0  0
 19 25  1  0  0  0  0
 19 21  2  0  0  0  0
 20 19  1  0  0  0  0
 21 24  1  0  0  0  0
 24 23  1  0  0  0  0
 24 22  1  0  0  0  0
 26 25  1  0  0  0  0
 28 27  1  6  0  0  0
 28 29  1  0  0  0  0
 30 29  1  0  0  0  0
M  END
>  <MODEL>
2

>  <REMARK>
 VINA RESULT:      -6.5      4.072      7.466
  Name = 
  5 active torsions:
  status: ('A' for Active; 'I' for Inactive)
    1  A    between atoms: C_1  and  C_22
    2  A    between atoms: C_2  and  C_14
    3  A    between atoms: C_7  and  C_30
    4  A    between atoms: C_13  and  C_30
    5  A    between atoms: C_22  and  C_29
                            x       y       z     vdW  Elec       q    Type
                         _______ _______ _______ _____ _____    ______ ____

>  <TORSDO>
F 5

$$$$
=
 OpenBabel11052421483D

 30 33  0  0  1  0  0  0  0  0999 V2000
  161.5120  204.9240  149.4840 C   0  0  2  0  0  3  0  0  0  0  0  0
  158.8450  201.6130  149.1630 O   0  0  0  0  0  1  0  0  0  0  0  0
  161.4910  202.3970  148.8140 C   0  0  1  0  0  3  0  0  0  0  0  0
  160.8040  205.2400  148.1710 C   0  0  0  0  0  2  0  0  0  0  0  0
  163.0520  204.3890  145.4110 C   0  0  0  0  0  2  0  0  0  0  0  0
  162.6810  204.4490  146.8270 N   0  0  0  0  0  2  0  0  0  0  0  0
  160.3840  204.6780  145.8160 C   0  0  0  0  0  2  0  0  0  0  0  0
  160.0280  204.0310  151.9950 F   0  0  0  0  0  0  0  0  0  0  0  0
  159.8910  201.0310  149.8880 C   0  0  2  0  0  3  0  0  0  0  0  0
  161.2260  204.2860  147.0490 C   0  0  2  0  0  0  0  0  0  0  0  0
  160.8870  202.8240  147.4530 C   0  0  1  0  0  3  0  0  0  0  0  0
  162.0970  203.1030  151.1850 C   0  0  0  0  0  2  0  0  0  0  0  0
  162.4370  205.5560  144.6370 C   0  0  0  0  0  2  0  0  0  0  0  0
  161.0070  205.8650  145.0880 C   0  0  0  0  0  2  0  0  0  0  0  0
  161.3280  203.4620  149.9230 C   0  0  1  0  0  0  0  0  0  0  0  0
  160.0200  201.6530  151.2720 C   0  0  0  0  0  2  0  0  0  0  0  0
  161.1200  201.0730  149.1850 O   0  0  0  0  0  0  0  0  0  0  0  0
  160.5760  203.0630  151.1840 C   0  0  2  0  0  0  0  0  0  0  0  0
  161.2830  207.2970  150.0260 C   0  0  0  0  0  0  0  0  0  0  0  0
  161.1330  207.5100  148.6580 O   0  0  0  0  0  1  0  0  0  0  0  0
  161.5300  206.0570  150.4970 C   0  0  0  0  0  0  0  0  0  0  0  0
  163.0370  205.8650  152.5650 C   0  0  0  0  0  1  0  0  0  0  0  0
  160.7470  206.7580  152.7980 C   0  0  0  0  0  1  0  0  0  0  0  0
  161.6260  205.8080  152.0010 C   0  0  0  0  0  3  0  0  0  0  0  0
  161.1180  208.4780  150.9290 C   0  0  0  0  0  2  0  0  0  0  0  0
  162.2490  209.2900  150.8490 O   0  0  0  0  0  1  0  0  0  0  0  0
  159.9890  201.8060  145.3000 C   0  0  0  0  0  1  0  0  0  0  0  0
  161.1250  201.8140  146.3090 C   0  0  2  0  0  3  0  0  0  0  0  0
  161.5200  200.4010  146.7460 C   0  0  0  0  0  2  0  0  0  0  0  0
  161.1480  199.4450  145.7990 O   0  0  0  0  0  1  0  0  0  0  0  0
  1 15  1  0  0  0  0
  1 21  1  1  0  0  0
  3 17  1  1  0  0  0
  3 15  1  0  0  0  0
  4  1  1  0  0  0  0
  5  6  1  0  0  0  0
  6 10  1  0  0  0  0
  9  2  1  6  0  0  0
  9 16  1  0  0  0  0
 10  7  1  6  0  0  0
 10 11  1  0  0  0  0
 10  4  1  0  0  0  0
 11 28  1  6  0  0  0
 11  3  1  0  0  0  0
 13 14  1  0  0  0  0
 13  5  1  0  0  0  0
 14  7  1  0  0  0  0
 15 18  1  0  0  0  0
 15 12  1  1  0  0  0
 17  9  1  0  0  0  0
 18 12  1  0  0  0  0
 18 16  1  0  0  0  0
 18  8  1  1  0  0  0
 19 21  2  0  0  0  0
 19 25  1  0  0  0  0
 20 19  1  0  0  0  0
 21 24  1  0  0  0  0
 24 22  1  0  0  0  0
 24 23  1  0  0  0  0
 26 25  1  0  0  0  0
 28 27  1  1  0  0  0
 28 29  1  0  0  0  0
 30 29  1  0  0  0  0
M  END
>  <MODEL>
3

>  <REMARK>
 VINA RESULT:      -5.9      4.750      9.225
  Name = 
  5 active torsions:
  status: ('A' for Active; 'I' for Inactive)
    1  A    between atoms: C_1  and  C_22
    2  A    between atoms: C_2  and  C_14
    3  A    between atoms: C_7  and  C_30
    4  A    between atoms: C_13  and  C_30
    5  A    between atoms: C_22  and  C_29
                            x       y       z     vdW  Elec       q    Type
                         _______ _______ _______ _____ _____    ______ ____

>  <TORSDO>
F 5

$$$$
=
 OpenBabel11052421483D

 30 33  0  0  1  0  0  0  0  0999 V2000
  161.9200  209.9720  149.0040 C   0  0  2  0  0  3  0  0  0  0  0  0
  159.9880  208.2740  152.4040 O   0  0  0  0  0  1  0  0  0  0  0  0
  162.3520  208.2690  150.9400 C   0  0  1  0  0  3  0  0  0  0  0  0
  161.0160  208.9370  148.3440 C   0  0  0  0  0  2  0  0  0  0  0  0
  163.0610  206.0540  147.3930 C   0  0  0  0  0  2  0  0  0  0  0  0
  162.8500  207.3590  148.0240 N   0  0  0  0  0  2  0  0  0  0  0  0
  160.4560  206.5780  147.9470 C   0  0  0  0  0  2  0  0  0  0  0  0
  160.9540  211.8610  151.1960 F   0  0  0  0  0  0  0  0  0  0  0  0
  161.2090  208.6600  152.9690 C   0  0  2  0  0  3  0  0  0  0  0  0
  161.4970  207.5060  148.6080 C   0  0  2  0  0  0  0  0  0  0  0  0
  161.5210  207.2370  150.1380 C   0  0  1  0  0  3  0  0  0  0  0  0
  163.0650  210.7030  151.1750 C   0  0  0  0  0  2  0  0  0  0  0  0
  162.1300  205.8740  146.1930 C   0  0  0  0  0  2  0  0  0  0  0  0
  160.7290  206.4320  146.4530 C   0  0  0  0  0  2  0  0  0  0  0  0
  162.0990  209.7320  150.5130 C   0  0  1  0  0  0  0  0  0  0  0  0
  161.3620  210.1750  152.9760 C   0  0  0  0  0  2  0  0  0  0  0  0
  162.3120  208.0300  152.3430 O   0  0  0  0  0  0  0  0  0  0  0  0
  161.5970  210.7030  151.5720 C   0  0  2  0  0  0  0  0  0  0  0  0
  162.9290  211.8840  147.8640 C   0  0  0  0  0  0  0  0  0  0  0  0
  164.1260  211.1740  147.9100 O   0  0  0  0  0  1  0  0  0  0  0  0
  161.8170  211.3770  148.4340 C   0  0  0  0  0  0  0  0  0  0  0  0
  160.4910  213.5200  148.9190 C   0  0  0  0  0  1  0  0  0  0  0  0
  159.9910  212.2030  146.8900 C   0  0  0  0  0  1  0  0  0  0  0  0
  160.4870  212.1200  148.3250 C   0  0  0  0  0  3  0  0  0  0  0  0
  162.9300  213.1860  147.1290 C   0  0  0  0  0  2  0  0  0  0  0  0
  163.0810  212.9530  145.7620 O   0  0  0  0  0  1  0  0  0  0  0  0
  160.7090  204.8250  150.0760 C   0  0  0  0  0  1  0  0  0  0  0  0
  161.8310  205.7640  150.4850 C   0  0  2  0  0  3  0  0  0  0  0  0
  162.3070  205.5090  151.9180 C   0  0  0  0  0  2  0  0  0  0  0  0
  161.3060  204.9240  152.6960 O   0  0  0  0  0  1  0  0  0  0  0  0
  1 21  1  1  0  0  0
  1 15  1  0  0  0  0
  3 17  1  1  0  0  0
  4 10  1  0  0  0  0
  4  1  1  0  0  0  0
  5  6  1  0  0  0  0
  6 10  1  0  0  0  0
  9  2  1  6  0  0  0
  9 16  1  0  0  0  0
 10  7  1  6  0  0  0
 10 11  1  0  0  0  0
 11 28  1  6  0  0  0
 11  3  1  0  0  0  0
 12 18  1  0  0  0  0
 13 14  1  0  0  0  0
 13  5  1  0  0  0  0
 14  7  1  0  0  0  0
 15  3  1  0  0  0  0
 15 12  1  1  0  0  0
 15 18  1  0  0  0  0
 17  9  1  0  0  0  0
 18  8  1  6  0  0  0
 18 16  1  0  0  0  0
 19 20  1  0  0  0  0
 19 21  2  0  0  0  0
 23 24  1  0  0  0  0
 24 21  1  0  0  0  0
 24 22  1  0  0  0  0
 25 19  1  0  0  0  0
 26 25  1  0  0  0  0
 28 27  1  1  0  0  0
 28 29  1  0  0  0  0
 29 30  1  0  0  0  0
M  END
>  <MODEL>
4

>  <REMARK>
 VINA RESULT:      -5.0      3.554      6.753
  Name = 
  5 active torsions:
  status: ('A' for Active; 'I' for Inactive)
    1  A    between atoms: C_1  and  C_22
    2  A    between atoms: C_2  and  C_14
    3  A    between atoms: C_7  and  C_30
    4  A    between atoms: C_13  and  C_30
    5  A    between atoms: C_22  and  C_29
                            x       y       z     vdW  Elec       q    Type
                         _______ _______ _______ _____ _____    ______ ____

>  <TORSDO>
F 5

$$$$
=
 OpenBabel11052421483D

 30 33  0  0  1  0  0  0  0  0999 V2000
  161.0430  205.0090  149.8270 C   0  0  2  0  0  3  0  0  0  0  0  0
  163.3980  204.3170  146.3410 O   0  0  0  0  0  1  0  0  0  0  0  0
  160.7900  204.3660  147.3050 C   0  0  1  0  0  3  0  0  0  0  0  0
  161.5620  203.6010  150.0960 C   0  0  0  0  0  2  0  0  0  0  0  0
  158.8680  201.2210  149.4050 C   0  0  0  0  0  2  0  0  0  0  0  0
  159.4540  202.5640  149.4370 N   0  0  0  0  0  2  0  0  0  0  0  0
  161.5800  201.2150  149.5100 C   0  0  0  0  0  2  0  0  0  0  0  0
  162.8270  207.2730  148.8300 F   0  0  0  0  0  0  0  0  0  0  0  0
  162.4370  205.1970  145.8310 C   0  0  2  0  0  3  0  0  0  0  0  0
  160.9110  202.5640  149.1740 C   0  0  2  0  0  0  0  0  0  0  0  0
  161.2070  202.9260  147.6920 C   0  0  1  0  0  3  0  0  0  0  0  0
  160.6000  206.7960  148.0470 C   0  0  0  0  0  2  0  0  0  0  0  0
  159.4370  200.3530  150.5280 C   0  0  0  0  0  2  0  0  0  0  0  0
  160.9360  200.5790  150.7380 C   0  0  0  0  0  2  0  0  0  0  0  0
  161.1910  205.4280  148.3550 C   0  0  1  0  0  0  0  0  0  0  0  0
  162.5630  206.5790  146.4580 C   0  0  0  0  0  2  0  0  0  0  0  0
  161.1220  204.6880  145.9590 O   0  0  0  0  0  0  0  0  0  0  0  0
  162.0970  206.5640  147.9030 C   0  0  2  0  0  0  0  0  0  0  0  0
  161.2340  205.5090  152.2120 C   0  0  0  0  0  0  0  0  0  0  0  0
  160.9200  204.1710  152.4330 O   0  0  0  0  0  1  0  0  0  0  0  0
  161.2550  206.0030  150.9570 C   0  0  0  0  0  0  0  0  0  0  0  0
  160.7320  208.4910  151.3020 C   0  0  0  0  0  1  0  0  0  0  0  0
  163.0810  207.7400  151.1840 C   0  0  0  0  0  1  0  0  0  0  0  0
  161.6670  207.4520  150.7050 C   0  0  0  0  0  3  0  0  0  0  0  0
  161.5810  206.3410  153.4050 C   0  0  0  0  0  2  0  0  0  0  0  0
  160.4450  206.5270  154.1930 O   0  0  0  0  0  1  0  0  0  0  0  0
  161.5750  200.5790  146.7760 C   0  0  0  0  0  1  0  0  0  0  0  0
  160.7300  201.8400  146.7020 C   0  0  2  0  0  3  0  0  0  0  0  0
  160.5150  202.3080  145.2600 C   0  0  0  0  0  2  0  0  0  0  0  0
  159.7060  201.4220  144.5470 O   0  0  0  0  0  1  0  0  0  0  0  0
  1  4  1  0  0  0  0
  1 21  1  1  0  0  0
  3 17  1  6  0  0  0
  3 11  1  0  0  0  0
  3 15  1  0  0  0  0
  5  6  1  0  0  0  0
  5 13  1  0  0  0  0
  7 14  1  0  0  0  0
  9 17  1  0  0  0  0
  9  2  1  1  0  0  0
  9 16  1  0  0  0  0
 10  6  1  0  0  0  0
 10  7  1  1  0  0  0
 10  4  1  0  0  0  0
 11 28  1  6  0  0  0
 11 10  1  0  0  0  0
 13 14  1  0  0  0  0
 15 12  1  6  0  0  0
 15  1  1  0  0  0  0
 16 18  1  0  0  0  0
 18 12  1  0  0  0  0
 18 15  1  0  0  0  0
 18  8  1  1  0  0  0
 19 20  1  0  0  0  0
 19 25  1  0  0  0  0
 21 19  2  0  0  0  0
 24 21  1  0  0  0  0
 24 23  1  0  0  0  0
 24 22  1  0  0  0  0
 25 26  1  0  0  0  0
 28 27  1  6  0  0  0
 29 28  1  0  0  0  0
 30 29  1  0  0  0  0
M  END
>  <MODEL>
5

>  <REMARK>
 VINA RESULT:      -4.3      4.488      9.625
  Name = 
  5 active torsions:
  status: ('A' for Active; 'I' for Inactive)
    1  A    between atoms: C_1  and  C_22
    2  A    between atoms: C_2  and  C_14
    3  A    between atoms: C_7  and  C_30
    4  A    between atoms: C_13  and  C_30
    5  A    between atoms: C_22  and  C_29
                            x       y       z     vdW  Elec       q    Type
                         _______ _______ _______ _____ _____    ______ ____

>  <TORSDO>
F 5

$$$$
=
 OpenBabel11052421483D

 30 33  0  0  1  0  0  0  0  0999 V2000
  160.6160  209.9610  153.0280 C   0  0  2  0  0  3  0  0  0  0  0  0
  159.3470  206.7440  155.5220 O   0  0  0  0  0  1  0  0  0  0  0  0
  161.5810  207.9390  154.3740 C   0  0  1  0  0  3  0  0  0  0  0  0
  160.0900  208.9730  151.9920 C   0  0  0  0  0  2  0  0  0  0  0  0
  162.9490  207.3280  150.4060 C   0  0  0  0  0  2  0  0  0  0  0  0
  162.3320  208.2260  151.3860 N   0  0  0  0  0  2  0  0  0  0  0  0
  160.3160  206.8210  150.8290 C   0  0  0  0  0  2  0  0  0  0  0  0
  159.1030  210.6420  155.5880 F   0  0  0  0  0  0  0  0  0  0  0  0
  160.3810  207.2790  156.2980 C   0  0  2  0  0  3  0  0  0  0  0  0
  161.0060  207.7540  151.8460 C   0  0  2  0  0  0  0  0  0  0  0  0
  161.1220  207.0230  153.2120 C   0  0  1  0  0  3  0  0  0  0  0  0
  161.4740  210.2580  155.4220 C   0  0  0  0  0  2  0  0  0  0  0  0
  162.1200  207.2730  149.1220 C   0  0  0  0  0  2  0  0  0  0  0  0
  160.6150  207.2600  149.3990 C   0  0  0  0  0  2  0  0  0  0  0  0
  160.8690  209.3100  154.3980 C   0  0  1  0  0  0  0  0  0  0  0  0
  160.0390  208.6780  156.7890 C   0  0  0  0  0  2  0  0  0  0  0  0
  161.6250  207.2560  155.6230 O   0  0  0  0  0  0  0  0  0  0  0  0
  160.0860  209.6810  155.6490 C   0  0  2  0  0  0  0  0  0  0  0  0
  160.4170  212.0760  151.8180 C   0  0  0  0  0  0  0  0  0  0  0  0
  161.3320  211.5470  150.9110 O   0  0  0  0  0  1  0  0  0  0  0  0
  160.0640  211.3720  152.9140 C   0  0  0  0  0  0  0  0  0  0  0  0
  159.3050  213.3050  154.4210 C   0  0  0  0  0  1  0  0  0  0  0  0
  157.6190  211.9280  153.2560 C   0  0  0  0  0  1  0  0  0  0  0  0
  159.0080  211.9190  153.8730 C   0  0  0  0  0  3  0  0  0  0  0  0
  159.8270  213.4130  151.5010 C   0  0  0  0  0  2  0  0  0  0  0  0
  159.0800  213.3280  150.3260 O   0  0  0  0  0  1  0  0  0  0  0  0
  163.2280  205.8390  152.4090 C   0  0  0  0  0  1  0  0  0  0  0  0
  161.8910  205.6870  153.1150 C   0  0  2  0  0  3  0  0  0  0  0  0
  161.0870  204.4980  152.5820 C   0  0  0  0  0  2  0  0  0  0  0  0
  161.8100  203.7700  151.6360 O   0  0  0  0  0  1  0  0  0  0  0  0
  1 21  1  1  0  0  0
  1 15  1  0  0  0  0
  3 15  1  0  0  0  0
  3 17  1  1  0  0  0
  4  1  1  0  0  0  0
  5  6  1  0  0  0  0
  6 10  1  0  0  0  0
  9  2  1  6  0  0  0
  9 16  1  0  0  0  0
 10  7  1  6  0  0  0
 10  4  1  0  0  0  0
 10 11  1  0  0  0  0
 11 28  1  6  0  0  0
 11  3  1  0  0  0  0
 12 18  1  0  0  0  0
 13 14  1  0  0  0  0
 13  5  1  0  0  0  0
 14  7  1  0  0  0  0
 15 12  1  1  0  0  0
 15 18  1  0  0  0  0
 17  9  1  0  0  0  0
 18  8  1  6  0  0  0
 18 16  1  0  0  0  0
 19 21  2  0  0  0  0
 20 19  1  0  0  0  0
 21 24  1  0  0  0  0
 23 24  1  0  0  0  0
 24 22  1  0  0  0  0
 25 19  1  0  0  0  0
 26 25  1  0  0  0  0
 28 27  1  6  0  0  0
 29 28  1  0  0  0  0
 30 29  1  0  0  0  0
M  END
>  <MODEL>
6

>  <REMARK>
 VINA RESULT:      -4.3      2.384      5.681
  Name = 
  5 active torsions:
  status: ('A' for Active; 'I' for Inactive)
    1  A    between atoms: C_1  and  C_22
    2  A    between atoms: C_2  and  C_14
    3  A    between atoms: C_7  and  C_30
    4  A    between atoms: C_13  and  C_30
    5  A    between atoms: C_22  and  C_29
                            x       y       z     vdW  Elec       q    Type
                         _______ _______ _______ _____ _____    ______ ____

>  <TORSDO>
F 5

$$$$
=
 OpenBabel11052421483D

 30 33  0  0  1  0  0  0  0  0999 V2000
  160.8640  203.5420  148.8820 C   0  0  2  0  0  3  0  0  0  0  0  0
  163.1660  206.1250  151.3740 O   0  0  0  0  0  1  0  0  0  0  0  0
  160.7550  205.8990  150.0070 C   0  0  1  0  0  3  0  0  0  0  0  0
  161.8640  204.1080  147.8790 C   0  0  0  0  0  2  0  0  0  0  0  0
  160.1730  206.6620  145.8750 C   0  0  0  0  0  2  0  0  0  0  0  0
  160.2400  205.6820  146.9630 N   0  0  0  0  0  2  0  0  0  0  0  0
  162.7100  206.0300  146.6040 C   0  0  0  0  0  2  0  0  0  0  0  0
  161.6780  202.5220  151.6390 F   0  0  0  0  0  0  0  0  0  0  0  0
  161.9340  206.1600  152.0360 C   0  0  2  0  0  3  0  0  0  0  0  0
  161.5890  205.5820  147.5660 C   0  0  2  0  0  0  0  0  0  0  0  0
  161.6750  206.4170  148.8740 C   0  0  1  0  0  3  0  0  0  0  0  0
  159.7400  203.8670  151.1590 C   0  0  0  0  0  2  0  0  0  0  0  0
  161.0600  206.2360  144.7050 C   0  0  0  0  0  2  0  0  0  0  0  0
  162.3860  205.6300  145.1680 C   0  0  0  0  0  2  0  0  0  0  0  0
  160.7920  204.3640  150.1790 C   0  0  1  0  0  0  0  0  0  0  0  0
  161.5830  204.8010  152.6270 C   0  0  0  0  0  2  0  0  0  0  0  0
  160.8940  206.6490  151.2090 O   0  0  0  0  0  0  0  0  0  0  0  0
  161.2130  203.8130  151.5340 C   0  0  2  0  0  0  0  0  0  0  0  0
  161.1500  201.3760  147.7860 C   0  0  0  0  0  0  0  0  0  0  0  0
  161.5330  202.0920  146.6550 O   0  0  0  0  0  1  0  0  0  0  0  0
  160.7540  202.0270  148.8990 C   0  0  0  0  0  0  0  0  0  0  0  0
  159.0360  200.5780  150.1390 C   0  0  0  0  0  1  0  0  0  0  0  0
  161.4480  200.1970  150.5040 C   0  0  0  0  0  1  0  0  0  0  0  0
  160.4010  201.2460  150.1640 C   0  0  0  0  0  3  0  0  0  0  0  0
  161.2420  199.8850  147.7200 C   0  0  0  0  0  2  0  0  0  0  0  0
  161.5800  199.4930  146.4250 O   0  0  0  0  0  1  0  0  0  0  0  0
  162.7910  208.4810  147.8860 C   0  0  0  0  0  1  0  0  0  0  0  0
  161.5780  207.9390  148.6230 C   0  0  2  0  0  3  0  0  0  0  0  0
  161.2150  208.7880  149.8440 C   0  0  0  0  0  2  0  0  0  0  0  0
  162.3310  209.4450  150.3640 O   0  0  0  0  0  1  0  0  0  0  0  0
  1 21  1  1  0  0  0
  1 15  1  0  0  0  0
  3 15  1  0  0  0  0
  3 17  1  1  0  0  0
  4  1  1  0  0  0  0
  5  6  1  0  0  0  0
  6 10  1  0  0  0  0
  9  2  1  6  0  0  0
  9 16  1  0  0  0  0
 10  7  1  6  0  0  0
 10  4  1  0  0  0  0
 10 11  1  0  0  0  0
 11 28  1  6  0  0  0
 11  3  1  0  0  0  0
 12 18  1  0  0  0  0
 13 14  1  0  0  0  0
 13  5  1  0  0  0  0
 14  7  1  0  0  0  0
 15 12  1  1  0  0  0
 15 18  1  0  0  0  0
 17  9  1  0  0  0  0
 18  8  1  1  0  0  0
 18 16  1  0  0  0  0
 19 21  2  0  0  0  0
 20 19  1  0  0  0  0
 21 24  1  0  0  0  0
 22 24  1  0  0  0  0
 24 23  1  0  0  0  0
 25 19  1  0  0  0  0
 26 25  1  0  0  0  0
 28 27  1  1  0  0  0
 28 29  1  0  0  0  0
 29 30  1  0  0  0  0
M  END
>  <MODEL>
7

>  <REMARK>
 VINA RESULT:      -3.9      4.936      7.509
  Name = 
  5 active torsions:
  status: ('A' for Active; 'I' for Inactive)
    1  A    between atoms: C_1  and  C_22
    2  A    between atoms: C_2  and  C_14
    3  A    between atoms: C_7  and  C_30
    4  A    between atoms: C_13  and  C_30
    5  A    between atoms: C_22  and  C_29
                            x       y       z     vdW  Elec       q    Type
                         _______ _______ _______ _____ _____    ______ ____

>  <TORSDO>
F 5

$$$$
=
 OpenBabel11052421483D

 30 33  0  0  1  0  0  0  0  0999 V2000
  161.0660  204.7330  148.6980 C   0  0  2  0  0  3  0  0  0  0  0  0
  162.8770  202.2490  151.6530 O   0  0  0  0  0  1  0  0  0  0  0  0
  160.6510  203.8270  151.1150 C   0  0  1  0  0  3  0  0  0  0  0  0
  162.1190  205.6750  149.2710 C   0  0  0  0  0  2  0  0  0  0  0  0
  160.4560  208.0460  151.5090 C   0  0  0  0  0  2  0  0  0  0  0  0
  160.4840  206.8780  150.6240 N   0  0  0  0  0  2  0  0  0  0  0  0
  162.9420  207.0150  151.1580 C   0  0  0  0  0  2  0  0  0  0  0  0
  161.6580  201.8320  147.9640 F   0  0  0  0  0  0  0  0  0  0  0  0
  161.5820  201.7190  151.6300 C   0  0  2  0  0  3  0  0  0  0  0  0
  161.7640  206.1370  150.6880 C   0  0  2  0  0  0  0  0  0  0  0  0
  161.6430  204.9020  151.6240 C   0  0  1  0  0  3  0  0  0  0  0  0
  159.6820  202.6160  149.0950 C   0  0  0  0  0  2  0  0  0  0  0  0
  161.4950  209.0820  151.0750 C   0  0  0  0  0  2  0  0  0  0  0  0
  162.8070  208.4380  150.6240 C   0  0  0  0  0  2  0  0  0  0  0  0
  160.7910  203.5230  149.6070 C   0  0  1  0  0  0  0  0  0  0  0  0
  161.2780  201.0540  150.2940 C   0  0  0  0  0  2  0  0  0  0  0  0
  160.6010  202.6840  151.9630 O   0  0  0  0  0  0  0  0  0  0  0  0
  161.1060  202.0910  149.1980 C   0  0  2  0  0  0  0  0  0  0  0  0
  160.4560  205.5730  146.4850 C   0  0  0  0  0  0  0  0  0  0  0  0
  159.7590  206.5780  147.1500 O   0  0  0  0  0  1  0  0  0  0  0  0
  161.0740  204.5990  147.1850 C   0  0  0  0  0  0  0  0  0  0  0  0
  161.2030  202.8940  145.2710 C   0  0  0  0  0  1  0  0  0  0  0  0
  163.2490  204.0630  146.0070 C   0  0  0  0  0  1  0  0  0  0  0  0
  161.8980  203.5350  146.4610 C   0  0  0  0  0  3  0  0  0  0  0  0
  160.5190  205.6510  144.9930 C   0  0  0  0  0  2  0  0  0  0  0  0
  161.7390  206.2040  144.6040 O   0  0  0  0  0  1  0  0  0  0  0  0
  159.9890  205.3940  153.4960 C   0  0  0  0  0  1  0  0  0  0  0  0
  161.4540  205.2890  153.1080 C   0  0  2  0  0  3  0  0  0  0  0  0
  162.2680  206.4950  153.5850 C   0  0  0  0  0  2  0  0  0  0  0  0
  161.5810  207.2270  154.5560 O   0  0  0  0  0  1  0  0  0  0  0  0
  1 21  1  6  0  0  0
  1  4  1  0  0  0  0
  1 15  1  0  0  0  0
  3 11  1  0  0  0  0
  3 17  1  1  0  0  0
  6 10  1  0  0  0  0
  6  5  1  0  0  0  0
  9  2  1  6  0  0  0
  9 17  1  0  0  0  0
 10  4  1  6  0  0  0
 10  7  1  0  0  0  0
 10 11  1  0  0  0  0
 11 28  1  1  0  0  0
 12 18  1  0  0  0  0
 13  5  1  0  0  0  0
 14 13  1  0  0  0  0
 14  7  1  0  0  0  0
 15 12  1  6  0  0  0
 15  3  1  0  0  0  0
 16  9  1  0  0  0  0
 18  8  1  6  0  0  0
 18 15  1  0  0  0  0
 18 16  1  0  0  0  0
 19 20  1  0  0  0  0
 19 21  2  0  0  0  0
 22 24  1  0  0  0  0
 23 24  1  0  0  0  0
 24 21  1  0  0  0  0
 25 19  1  0  0  0  0
 26 25  1  0  0  0  0
 28 27  1  6  0  0  0
 28 29  1  0  0  0  0
 29 30  1  0  0  0  0
M  END
>  <MODEL>
8

>  <REMARK>
 VINA RESULT:      -3.9      4.187      6.881
  Name = 
  5 active torsions:
  status: ('A' for Active; 'I' for Inactive)
    1  A    between atoms: C_1  and  C_22
    2  A    between atoms: C_2  and  C_14
    3  A    between atoms: C_7  and  C_30
    4  A    between atoms: C_13  and  C_30
    5  A    between atoms: C_22  and  C_29
                            x       y       z     vdW  Elec       q    Type
                         _______ _______ _______ _____ _____    ______ ____

>  <TORSDO>
F 5

$$$$
=
 OpenBabel11052421483D

 30 33  0  0  1  0  0  0  0  0999 V2000
  160.4640  209.7770  153.2610 C   0  0  2  0  0  3  0  0  0  0  0  0
  161.3890  212.1830  156.6570 O   0  0  0  0  0  1  0  0  0  0  0  0
  159.3110  210.9150  155.3130 C   0  0  1  0  0  3  0  0  0  0  0  0
  160.6000  211.1530  152.6200 C   0  0  0  0  0  2  0  0  0  0  0  0
  157.2440  212.4490  151.9420 C   0  0  0  0  0  2  0  0  0  0  0  0
  158.1830  211.4630  152.4840 N   0  0  0  0  0  2  0  0  0  0  0  0
  159.7410  213.4380  152.3350 C   0  0  0  0  0  2  0  0  0  0  0  0
  162.4670  208.6870  155.2880 F   0  0  0  0  0  0  0  0  0  0  0  0
  160.6270  211.1750  157.2560 C   0  0  2  0  0  3  0  0  0  0  0  0
  159.4330  212.0750  152.9900 C   0  0  2  0  0  0  0  0  0  0  0  0
  159.3780  212.2510  154.5330 C   0  0  1  0  0  3  0  0  0  0  0  0
  160.0720  208.4870  155.4380 C   0  0  0  0  0  2  0  0  0  0  0  0
  157.8320  213.1400  150.7100 C   0  0  0  0  0  2  0  0  0  0  0  0
  159.3240  213.4420  150.8680 C   0  0  0  0  0  2  0  0  0  0  0  0
  160.2950  209.8440  154.7880 C   0  0  1  0  0  0  0  0  0  0  0  0
  161.3320  209.8280  157.1810 C   0  0  0  0  0  2  0  0  0  0  0  0
  159.3170  211.1050  156.7240 O   0  0  0  0  0  0  0  0  0  0  0  0
  161.3240  209.2880  155.7620 C   0  0  2  0  0  0  0  0  0  0  0  0
  160.8950  207.4060  152.8500 C   0  0  0  0  0  0  0  0  0  0  0  0
  159.8670  207.1480  153.7530 O   0  0  0  0  0  1  0  0  0  0  0  0
  161.2800  208.6750  152.6050 C   0  0  0  0  0  0  0  0  0  0  0  0
  161.8920  208.8730  150.1200 C   0  0  0  0  0  1  0  0  0  0  0  0
  163.0130  210.3230  151.7760 C   0  0  0  0  0  1  0  0  0  0  0  0
  162.3600  208.9660  151.5640 C   0  0  0  0  0  3  0  0  0  0  0  0
  161.5070  206.2340  152.1510 C   0  0  0  0  0  2  0  0  0  0  0  0
  161.1020  205.0530  152.7720 O   0  0  0  0  0  1  0  0  0  0  0  0
  158.9660  214.4530  155.7440 C   0  0  0  0  0  1  0  0  0  0  0  0
  158.3360  213.3000  154.9810 C   0  0  2  0  0  3  0  0  0  0  0  0
  157.1000  212.7420  155.6930 C   0  0  0  0  0  2  0  0  0  0  0  0
  156.5640  211.6480  155.0110 O   0  0  0  0  0  1  0  0  0  0  0  0
  1 21  1  1  0  0  0
  1 15  1  0  0  0  0
  3 17  1  1  0  0  0
  4 10  1  0  0  0  0
  4  1  1  0  0  0  0
  5  6  1  0  0  0  0
  6 10  1  0  0  0  0
  9  2  1  6  0  0  0
 10  7  1  6  0  0  0
 10 11  1  0  0  0  0
 11 28  1  6  0  0  0
 11  3  1  0  0  0  0
 12 18  1  0  0  0  0
 13 14  1  0  0  0  0
 13  5  1  0  0  0  0
 14  7  1  0  0  0  0
 15  3  1  0  0  0  0
 15 12  1  1  0  0  0
 15 18  1  0  0  0  0
 16  9  1  0  0  0  0
 17  9  1  0  0  0  0
 18  8  1  6  0  0  0
 18 16  1  0  0  0  0
 19 20  1  0  0  0  0
 21 19  2  0  0  0  0
 22 24  1  0  0  0  0
 24 23  1  0  0  0  0
 24 21  1  0  0  0  0
 25 26  1  0  0  0  0
 25 19  1  0  0  0  0
 28 29  1  0  0  0  0
 28 27  1  1  0  0  0
 30 29  1  0  0  0  0
M  END
>  <MODEL>
9

>  <REMARK>
 VINA RESULT:      -3.8      1.769      2.246
  Name = 
  5 active torsions:
  status: ('A' for Active; 'I' for Inactive)
    1  A    between atoms: C_1  and  C_22
    2  A    between atoms: C_2  and  C_14
    3  A    between atoms: C_7  and  C_30
    4  A    between atoms: C_13  and  C_30
    5  A    between atoms: C_22  and  C_29
                            x       y       z     vdW  Elec       q    Type
                         _______ _______ _______ _____ _____    ______ ____

>  <TORSDO>
F 5

$$$$
