=
 OpenBabel11062408223D

 32 37  0  0  1  0  0  0  0  0999 V2000
  160.4010  211.5670  152.3460 C   0  0  1  0  0  3  0  0  0  0  0  0
  161.4130  209.4410  153.1230 C   0  0  1  0  0  3  0  0  0  0  0  0
  159.2850  212.6050  152.5560 C   0  0  0  0  0  2  0  0  0  0  0  0
  160.2030  210.3300  153.2080 C   0  0  1  0  0  3  0  0  0  0  0  0
  160.9980  208.1220  153.6910 C   0  0  1  0  0  3  0  0  0  0  0  0
  161.9330  209.1680  151.7220 C   0  0  1  0  0  3  0  0  0  0  0  0
  162.2610  207.6570  151.7140 C   0  0  1  0  0  3  0  0  0  0  0  0
  159.9710  210.6610  154.6830 C   0  0  2  0  0  3  0  0  0  0  0  0
  162.0350  207.1640  153.1500 C   0  0  0  0  0  2  0  0  0  0  0  0
  159.7540  209.3580  155.4870 C   0  0  0  0  0  2  0  0  0  0  0  0
  158.8050  211.6440  154.8720 C   0  0  0  0  0  2  0  0  0  0  0  0
  160.9810  209.6940  150.6250 C   0  0  0  0  0  2  0  0  0  0  0  0
  160.5510  211.1690  150.8610 C   0  0  2  0  0  3  0  0  0  0  0  0
  160.8400  208.2870  155.2100 C   0  0  1  0  0  3  0  0  0  0  0  0
  158.2030  212.1490  153.5490 C   0  0  0  0  0  2  0  0  0  0  0  0
  160.1100  213.2180  148.0990 C   0  0  1  0  0  3  0  0  0  0  0  0
  159.6370  214.4530  147.6480 O   0  0  0  0  0  1  0  0  0  0  0  0
  161.6540  211.4190  147.6840 C   0  0  0  0  0  2  0  0  0  0  0  0
  161.4140  212.1850  150.1000 C   0  0  1  0  0  3  0  0  0  0  0  0
  161.1500  212.7080  147.1910 N   0  0  0  0  0  0  0  0  0  0  0  0
  162.3380  211.5540  149.0500 C   0  0  0  0  0  2  0  0  0  0  0  0
  160.5930  213.3060  149.5280 C   0  0  0  0  0  0  0  0  0  0  0  0
  160.2580  214.2360  150.2440 O   0  0  0  0  0  0  0  0  0  0  0  0
  162.5700  213.6320  145.8080 C   0  0  0  0  0  1  0  0  0  0  0  0
  162.1820  213.5930  147.1510 O   0  0  0  0  0  0  0  0  0  0  0  0
  160.4070  206.2430  148.9100 N   0  0  0  0  0  0  0  0  0  0  0  0
  160.7960  205.6610  150.9620 C   0  0  0  0  0  3  0  0  0  0  0  0
  161.4600  206.8500  150.7320 C   0  0  0  0  0  0  0  0  0  0  0  0
  160.1950  205.3530  149.8360 O   0  0  0  0  0  0  0  0  0  0  0  0
  161.1930  207.2050  149.4300 C   0  0  0  0  0  3  0  0  0  0  0  0
  160.4210  207.0040  155.8560 C   0  0  0  0  0  3  0  0  0  0  0  0
  160.1550  206.9470  157.1580 C   0  0  0  0  0  2  0  0  0  0  0  0
  1  3  1  6  0  0  0
  1  4  1  0  0  0  0
  2  4  1  0  0  0  0
  2  5  1  0  0  0  0
  3 15  1  0  0  0  0
  4  8  1  0  0  0  0
  5 14  1  0  0  0  0
  6  2  1  0  0  0  0
  7  6  1  0  0  0  0
  7  9  1  0  0  0  0
  8 11  1  0  0  0  0
  8 10  1  0  0  0  0
  9  5  1  0  0  0  0
 12 13  1  0  0  0  0
 12  6  1  0  0  0  0
 13  1  1  0  0  0  0
 14 10  1  0  0  0  0
 14 31  1  0  0  0  0
 15 11  1  0  0  0  0
 16 22  1  0  0  0  0
 17 16  1  0  0  0  0
 18 21  1  0  0  0  0
 19 13  1  0  0  0  0
 20 18  1  0  0  0  0
 20 16  1  0  0  0  0
 21 19  1  0  0  0  0
 22 19  1  0  0  0  0
 22 23  2  0  0  0  0
 24 25  1  0  0  0  0
 25 20  1  0  0  0  0
 26 30  2  0  0  0  0
 26 29  1  0  0  0  0
 28 27  2  0  0  0  0
 28  7  1  0  0  0  0
 29 27  1  0  0  0  0
 30 28  1  0  0  0  0
 31 32  2  0  0  0  0
M  END
>  <MODEL>
1

>  <REMARK>
 VINA RESULT:      -5.5      0.000      0.000
  Name = 
  4 active torsions:
  status: ('A' for Active; 'I' for Inactive)
    1  A    between atoms: C_12  and  C_28
    2  A    between atoms: C_13  and  C_29
    3  A    between atoms: C_16  and  C_27
    4  A    between atoms: N_19  and  O_26
                            x       y       z     vdW  Elec       q    Type
                         _______ _______ _______ _____ _____    ______ ____

>  <TORSDO>
F 4

$$$$
=
 OpenBabel11062408223D

 32 37  0  0  1  0  0  0  0  0999 V2000
  158.4970  212.9540  153.0150 C   0  0  1  0  0  3  0  0  0  0  0  0
  160.2870  211.6350  154.1130 C   0  0  1  0  0  3  0  0  0  0  0  0
  157.0370  213.4320  153.0820 C   0  0  0  0  0  2  0  0  0  0  0  0
  158.8110  211.9200  154.0860 C   0  0  1  0  0  3  0  0  0  0  0  0
  160.4530  210.3850  154.9150 C   0  0  1  0  0  3  0  0  0  0  0  0
  160.9330  211.3740  152.7620 C   0  0  1  0  0  3  0  0  0  0  0  0
  161.8760  210.1720  153.0050 C   0  0  1  0  0  3  0  0  0  0  0  0
  158.3980  212.3680  155.4880 C   0  0  2  0  0  3  0  0  0  0  0  0
  161.8220  209.8850  154.5120 C   0  0  0  0  0  2  0  0  0  0  0  0
  158.7250  211.2570  156.5130 C   0  0  0  0  0  2  0  0  0  0  0  0
  156.9170  212.7730  155.5460 C   0  0  0  0  0  2  0  0  0  0  0  0
  159.8940  211.2440  151.6260 C   0  0  0  0  0  2  0  0  0  0  0  0
  158.8650  212.4090  151.6180 C   0  0  2  0  0  3  0  0  0  0  0  0
  160.1750  210.7250  156.3870 C   0  0  1  0  0  3  0  0  0  0  0  0
  156.2130  212.7350  154.1780 C   0  0  0  0  0  2  0  0  0  0  0  0
  158.4100  213.0650  148.2450 C   0  0  1  0  0  3  0  0  0  0  0  0
  157.5420  213.5900  147.2820 O   0  0  0  0  0  1  0  0  0  0  0  0
  160.7070  212.6150  148.8000 C   0  0  0  0  0  2  0  0  0  0  0  0
  159.2420  213.5490  150.6610 C   0  0  1  0  0  3  0  0  0  0  0  0
  159.8010  213.1500  147.7750 N   0  0  0  0  0  0  0  0  0  0  0  0
  160.6630  213.4400  150.0930 C   0  0  0  0  0  2  0  0  0  0  0  0
  158.2160  213.7420  149.5810 C   0  0  0  0  0  0  0  0  0  0  0  0
  157.2000  214.3750  149.8190 O   0  0  0  0  0  0  0  0  0  0  0  0
  160.9970  214.4270  146.4620 C   0  0  0  0  0  1  0  0  0  0  0  0
  160.1200  214.4530  147.5490 O   0  0  0  0  0  0  0  0  0  0  0  0
  161.2110  207.5880  150.5200 N   0  0  0  0  0  0  0  0  0  0  0  0
  160.9900  207.7650  152.6700 C   0  0  0  0  0  3  0  0  0  0  0  0
  161.5390  208.9440  152.2070 C   0  0  0  0  0  0  0  0  0  0  0  0
  160.8250  207.0000  151.6150 O   0  0  0  0  0  0  0  0  0  0  0  0
  161.6610  208.8150  150.8430 C   0  0  0  0  0  3  0  0  0  0  0  0
  160.3180  209.5190  157.2610 C   0  0  0  0  0  3  0  0  0  0  0  0
  160.1180  208.2950  156.7770 C   0  0  0  0  0  2  0  0  0  0  0  0
  1  3  1  6  0  0  0
  1  4  1  0  0  0  0
  2  5  1  0  0  0  0
  3 15  1  0  0  0  0
  4  2  1  0  0  0  0
  4  8  1  0  0  0  0
  5 14  1  0  0  0  0
  6  7  1  0  0  0  0
  6  2  1  0  0  0  0
  7  9  1  0  0  0  0
  8 11  1  0  0  0  0
  8 10  1  0  0  0  0
  9  5  1  0  0  0  0
 12  6  1  0  0  0  0
 13 12  1  0  0  0  0
 13  1  1  0  0  0  0
 14 10  1  0  0  0  0
 14 31  1  0  0  0  0
 15 11  1  0  0  0  0
 16 22  1  0  0  0  0
 17 16  1  0  0  0  0
 18 21  1  0  0  0  0
 19 13  1  0  0  0  0
 20 16  1  0  0  0  0
 20 18  1  0  0  0  0
 21 19  1  0  0  0  0
 22 23  2  0  0  0  0
 22 19  1  0  0  0  0
 24 25  1  0  0  0  0
 25 20  1  0  0  0  0
 26 30  2  0  0  0  0
 26 29  1  0  0  0  0
 28 27  2  0  0  0  0
 28  7  1  0  0  0  0
 29 27  1  0  0  0  0
 30 28  1  0  0  0  0
 32 31  2  0  0  0  0
M  END
>  <MODEL>
2

>  <REMARK>
 VINA RESULT:      -5.4      1.606      2.421
  Name = 
  4 active torsions:
  status: ('A' for Active; 'I' for Inactive)
    1  A    between atoms: C_12  and  C_28
    2  A    between atoms: C_13  and  C_29
    3  A    between atoms: C_16  and  C_27
    4  A    between atoms: N_19  and  O_26
                            x       y       z     vdW  Elec       q    Type
                         _______ _______ _______ _____ _____    ______ ____

>  <TORSDO>
F 4

$$$$
=
 OpenBabel11062408223D

 32 37  0  0  1  0  0  0  0  0999 V2000
  160.9410  209.2320  152.1260 C   0  0  1  0  0  3  0  0  0  0  0  0
  161.1910  211.4750  151.0980 C   0  0  1  0  0  3  0  0  0  0  0  0
  160.9220  207.7120  151.8900 C   0  0  0  0  0  2  0  0  0  0  0  0
  160.9680  210.0140  150.8210 C   0  0  1  0  0  3  0  0  0  0  0  0
  160.8500  212.1930  149.8330 C   0  0  1  0  0  3  0  0  0  0  0  0
  160.3230  212.0790  152.1890 C   0  0  1  0  0  3  0  0  0  0  0  0
  159.8770  213.4470  151.6210 C   0  0  1  0  0  3  0  0  0  0  0  0
  162.0690  209.5470  149.8680 C   0  0  2  0  0  3  0  0  0  0  0  0
  160.6150  213.6160  150.2860 C   0  0  0  0  0  2  0  0  0  0  0  0
  162.0150  210.3700  148.5590 C   0  0  0  0  0  2  0  0  0  0  0  0
  161.9850  208.0380  149.5920 C   0  0  0  0  0  2  0  0  0  0  0  0
  159.2160  211.1130  152.6660 C   0  0  0  0  0  2  0  0  0  0  0  0
  159.7620  209.6970  153.0070 C   0  0  2  0  0  3  0  0  0  0  0  0
  161.9560  211.8990  148.8070 C   0  0  1  0  0  3  0  0  0  0  0  0
  160.8900  207.3230  150.4030 C   0  0  0  0  0  2  0  0  0  0  0  0
  160.2280  211.7950  155.7270 C   0  0  1  0  0  3  0  0  0  0  0  0
  159.5970  212.5080  156.7510 O   0  0  0  0  0  1  0  0  0  0  0  0
  162.2590  210.7030  155.0390 C   0  0  0  0  0  2  0  0  0  0  0  0
  160.0770  209.5070  154.4970 C   0  0  1  0  0  3  0  0  0  0  0  0
  161.6100  211.4690  156.1120 N   0  0  0  0  0  0  0  0  0  0  0  0
  161.5730  209.3510  154.8030 C   0  0  0  0  0  2  0  0  0  0  0  0
  159.4360  210.5660  155.3490 C   0  0  0  0  0  0  0  0  0  0  0  0
  158.2590  210.4620  155.6590 O   0  0  0  0  0  0  0  0  0  0  0  0
  162.8350  210.0680  157.2610 C   0  0  0  0  0  1  0  0  0  0  0  0
  161.5940  210.7090  157.2410 O   0  0  0  0  0  0  0  0  0  0  0  0
  156.4110  213.6840  150.5120 N   0  0  0  0  0  0  0  0  0  0  0  0
  157.4640  213.9920  152.3820 C   0  0  0  0  0  3  0  0  0  0  0  0
  158.3920  213.5920  151.4400 C   0  0  0  0  0  0  0  0  0  0  0  0
  156.3060  214.0210  151.7650 O   0  0  0  0  0  0  0  0  0  0  0  0
  157.7060  213.4110  150.2620 C   0  0  0  0  0  3  0  0  0  0  0  0
  161.6850  212.5830  147.5040 C   0  0  0  0  0  3  0  0  0  0  0  0
  160.5510  212.3710  146.8410 C   0  0  0  0  0  2  0  0  0  0  0  0
  1  3  1  6  0  0  0
  1 13  1  0  0  0  0
  2  6  1  0  0  0  0
  4  2  1  0  0  0  0
  4  1  1  0  0  0  0
  5  9  1  0  0  0  0
  5  2  1  0  0  0  0
  6 12  1  0  0  0  0
  7  6  1  0  0  0  0
  8  4  1  0  0  0  0
  9  7  1  0  0  0  0
 10 14  1  0  0  0  0
 10  8  1  0  0  0  0
 11  8  1  0  0  0  0
 11 15  1  0  0  0  0
 12 13  1  0  0  0  0
 13 19  1  0  0  0  0
 14  5  1  0  0  0  0
 15  3  1  0  0  0  0
 16 20  1  0  0  0  0
 16 17  1  0  0  0  0
 18 20  1  0  0  0  0
 19 21  1  0  0  0  0
 19 22  1  0  0  0  0
 20 25  1  0  0  0  0
 21 18  1  0  0  0  0
 22 23  2  0  0  0  0
 22 16  1  0  0  0  0
 25 24  1  0  0  0  0
 26 29  1  0  0  0  0
 28  7  1  0  0  0  0
 28 27  2  0  0  0  0
 29 27  1  0  0  0  0
 30 26  2  0  0  0  0
 30 28  1  0  0  0  0
 31 14  1  0  0  0  0
 32 31  2  0  0  0  0
M  END
>  <MODEL>
3

>  <REMARK>
 VINA RESULT:      -5.0      3.298      7.327
  Name = 
  4 active torsions:
  status: ('A' for Active; 'I' for Inactive)
    1  A    between atoms: C_12  and  C_28
    2  A    between atoms: C_13  and  C_29
    3  A    between atoms: C_16  and  C_27
    4  A    between atoms: N_19  and  O_26
                            x       y       z     vdW  Elec       q    Type
                         _______ _______ _______ _____ _____    ______ ____

>  <TORSDO>
F 4

$$$$
=
 OpenBabel11062408223D

 32 37  0  0  1  0  0  0  0  0999 V2000
  160.7970  210.1480  152.1500 C   0  0  1  0  0  3  0  0  0  0  0  0
  160.7710  212.4230  151.1640 C   0  0  1  0  0  3  0  0  0  0  0  0
  161.0630  208.6520  151.9080 C   0  0  0  0  0  2  0  0  0  0  0  0
  160.8310  210.9520  150.8590 C   0  0  1  0  0  3  0  0  0  0  0  0
  160.4510  213.1010  149.8710 C   0  0  1  0  0  3  0  0  0  0  0  0
  159.6990  212.8480  152.1540 C   0  0  1  0  0  3  0  0  0  0  0  0
  159.0900  214.1320  151.5460 C   0  0  1  0  0  3  0  0  0  0  0  0
  162.0920  210.6990  150.0320 C   0  0  2  0  0  3  0  0  0  0  0  0
  159.9290  214.4530  150.3010 C   0  0  0  0  0  2  0  0  0  0  0  0
  162.0410  211.5290  148.7280 C   0  0  0  0  0  2  0  0  0  0  0  0
  162.2970  209.2040  149.7430 C   0  0  0  0  0  2  0  0  0  0  0  0
  158.7280  211.6970  152.5030 C   0  0  0  0  0  2  0  0  0  0  0  0
  159.4670  210.3880  152.8980 C   0  0  2  0  0  3  0  0  0  0  0  0
  161.6950  213.0210  148.9730 C   0  0  1  0  0  3  0  0  0  0  0  0
  161.2580  208.2960  150.4260 C   0  0  0  0  0  2  0  0  0  0  0  0
  162.1650  210.1510  155.0620 C   0  0  1  0  0  3  0  0  0  0  0  0
  163.1000  210.8660  155.8160 O   0  0  0  0  0  1  0  0  0  0  0  0
  160.9540  208.0810  154.8590 C   0  0  0  0  0  2  0  0  0  0  0  0
  159.6460  210.2210  154.4130 C   0  0  1  0  0  3  0  0  0  0  0  0
  161.9520  208.8180  155.6460 N   0  0  0  0  0  0  0  0  0  0  0  0
  159.5800  208.7640  154.8910 C   0  0  0  0  0  2  0  0  0  0  0  0
  160.8750  210.9230  154.9170 C   0  0  0  0  0  0  0  0  0  0  0  0
  160.8400  212.1260  155.1270 O   0  0  0  0  0  0  0  0  0  0  0  0
  161.0000  207.6910  157.2610 C   0  0  0  0  0  1  0  0  0  0  0  0
  161.4890  208.9550  156.9180 O   0  0  0  0  0  0  0  0  0  0  0  0
  155.7770  213.7600  150.0680 N   0  0  0  0  0  0  0  0  0  0  0  0
  156.5520  214.3120  152.0170 C   0  0  0  0  0  3  0  0  0  0  0  0
  157.6310  214.0280  151.2020 C   0  0  0  0  0  0  0  0  0  0  0  0
  155.4800  214.1280  151.2810 O   0  0  0  0  0  0  0  0  0  0  0  0
  157.1180  213.6910  149.9710 C   0  0  0  0  0  3  0  0  0  0  0  0
  161.4540  213.6780  147.6510 C   0  0  0  0  0  3  0  0  0  0  0  0
  161.3680  212.9600  146.5340 C   0  0  0  0  0  2  0  0  0  0  0  0
  1  3  1  6  0  0  0
  1 13  1  0  0  0  0
  2  6  1  0  0  0  0
  4  2  1  0  0  0  0
  4  1  1  0  0  0  0
  5  9  1  0  0  0  0
  5  2  1  0  0  0  0
  6 12  1  0  0  0  0
  7  6  1  0  0  0  0
  8  4  1  0  0  0  0
  9  7  1  0  0  0  0
 10 14  1  0  0  0  0
 10  8  1  0  0  0  0
 11  8  1  0  0  0  0
 11 15  1  0  0  0  0
 12 13  1  0  0  0  0
 13 19  1  0  0  0  0
 14  5  1  0  0  0  0
 15  3  1  0  0  0  0
 16 20  1  0  0  0  0
 16 17  1  0  0  0  0
 18 21  1  0  0  0  0
 18 20  1  0  0  0  0
 19 21  1  0  0  0  0
 19 22  1  0  0  0  0
 20 25  1  0  0  0  0
 22 16  1  0  0  0  0
 22 23  2  0  0  0  0
 25 24  1  0  0  0  0
 26 29  1  0  0  0  0
 28  7  1  0  0  0  0
 28 27  2  0  0  0  0
 29 27  1  0  0  0  0
 30 26  2  0  0  0  0
 30 28  1  0  0  0  0
 31 14  1  0  0  0  0
 32 31  2  0  0  0  0
M  END
>  <MODEL>
4

>  <REMARK>
 VINA RESULT:      -4.4      3.177      7.603
  Name = 
  4 active torsions:
  status: ('A' for Active; 'I' for Inactive)
    1  A    between atoms: C_12  and  C_28
    2  A    between atoms: C_13  and  C_29
    3  A    between atoms: C_16  and  C_27
    4  A    between atoms: N_19  and  O_26
                            x       y       z     vdW  Elec       q    Type
                         _______ _______ _______ _____ _____    ______ ____

>  <TORSDO>
F 4

$$$$
=
 OpenBabel11062408223D

 32 37  0  0  1  0  0  0  0  0999 V2000
  161.6600  209.5230  151.2070 C   0  0  1  0  0  3  0  0  0  0  0  0
  161.4230  211.8380  150.3510 C   0  0  1  0  0  3  0  0  0  0  0  0
  161.7300  208.0280  150.8510 C   0  0  0  0  0  2  0  0  0  0  0  0
  161.2810  210.3810  150.0100 C   0  0  1  0  0  3  0  0  0  0  0  0
  160.7060  212.5880  149.2750 C   0  0  1  0  0  3  0  0  0  0  0  0
  160.8030  212.2700  151.6700 C   0  0  1  0  0  3  0  0  0  0  0  0
  160.0970  213.6080  151.3510 C   0  0  1  0  0  3  0  0  0  0  0  0
  162.1460  210.1040  148.7790 C   0  0  2  0  0  3  0  0  0  0  0  0
  160.4550  213.9430  149.8960 C   0  0  0  0  0  2  0  0  0  0  0  0
  161.6840  210.9930  147.6010 C   0  0  0  0  0  2  0  0  0  0  0  0
  162.1420  208.6150  148.4000 C   0  0  0  0  0  2  0  0  0  0  0  0
  159.9520  211.1540  152.3160 C   0  0  0  0  0  2  0  0  0  0  0  0
  160.7020  209.7940  152.3880 C   0  0  2  0  0  3  0  0  0  0  0  0
  161.5400  212.4870  147.9890 C   0  0  1  0  0  3  0  0  0  0  0  0
  161.3620  207.7290  149.3880 C   0  0  0  0  0  2  0  0  0  0  0  0
  159.7230  208.6740  155.5190 C   0  0  1  0  0  3  0  0  0  0  0  0
  159.4960  207.5500  156.3190 O   0  0  0  0  0  1  0  0  0  0  0  0
  160.3000  211.0100  155.5070 C   0  0  0  0  0  2  0  0  0  0  0  0
  161.3990  209.5510  153.7330 C   0  0  1  0  0  3  0  0  0  0  0  0
  160.0440  209.8390  156.3570 N   0  0  0  0  0  0  0  0  0  0  0  0
  161.5240  210.8080  154.6050 C   0  0  0  0  0  2  0  0  0  0  0  0
  160.7910  208.4020  154.4850 C   0  0  0  0  0  0  0  0  0  0  0  0
  161.1050  207.2580  154.1980 O   0  0  0  0  0  0  0  0  0  0  0  0
  161.7820  210.8160  157.2570 C   0  0  0  0  0  1  0  0  0  0  0  0
  161.1640  209.5750  157.0820 O   0  0  0  0  0  0  0  0  0  0  0  0
  156.4560  213.6270  151.1460 N   0  0  0  0  0  0  0  0  0  0  0  0
  157.9190  213.6360  152.7470 C   0  0  0  0  0  3  0  0  0  0  0  0
  158.6080  213.5910  151.5510 C   0  0  0  0  0  0  0  0  0  0  0  0
  156.6440  213.6500  152.4340 O   0  0  0  0  0  0  0  0  0  0  0  0
  157.6630  213.5960  150.5510 C   0  0  0  0  0  3  0  0  0  0  0  0
  160.8840  213.2130  146.8570 C   0  0  0  0  0  3  0  0  0  0  0  0
  160.1320  212.5650  145.9710 C   0  0  0  0  0  2  0  0  0  0  0  0
  1  3  1  6  0  0  0
  1 13  1  0  0  0  0
  2  6  1  0  0  0  0
  4  2  1  0  0  0  0
  4  1  1  0  0  0  0
  5  9  1  0  0  0  0
  5  2  1  0  0  0  0
  6 12  1  0  0  0  0
  7 28  1  0  0  0  0
  7  6  1  0  0  0  0
  8  4  1  0  0  0  0
  9  7  1  0  0  0  0
 10 14  1  0  0  0  0
 10  8  1  0  0  0  0
 11  8  1  0  0  0  0
 11 15  1  0  0  0  0
 12 13  1  0  0  0  0
 13 19  1  0  0  0  0
 14  5  1  0  0  0  0
 15  3  1  0  0  0  0
 16 17  1  0  0  0  0
 16 20  1  0  0  0  0
 18 20  1  0  0  0  0
 19 22  1  0  0  0  0
 19 21  1  0  0  0  0
 20 25  1  0  0  0  0
 21 18  1  0  0  0  0
 22 16  1  0  0  0  0
 23 22  2  0  0  0  0
 25 24  1  0  0  0  0
 26 29  1  0  0  0  0
 28 27  2  0  0  0  0
 29 27  1  0  0  0  0
 30 26  2  0  0  0  0
 30 28  1  0  0  0  0
 31 14  1  0  0  0  0
 32 31  2  0  0  0  0
M  END
>  <MODEL>
5

>  <REMARK>
 VINA RESULT:      -3.8      3.148      7.725
  Name = 
  4 active torsions:
  status: ('A' for Active; 'I' for Inactive)
    1  A    between atoms: C_12  and  C_28
    2  A    between atoms: C_13  and  C_29
    3  A    between atoms: C_16  and  C_27
    4  A    between atoms: N_19  and  O_26
                            x       y       z     vdW  Elec       q    Type
                         _______ _______ _______ _____ _____    ______ ____

>  <TORSDO>
F 4

$$$$
=
 OpenBabel11062408223D

 32 37  0  0  1  0  0  0  0  0999 V2000
  160.5230  211.3820  151.3190 C   0  0  1  0  0  3  0  0  0  0  0  0
  160.3980  209.2170  152.5220 C   0  0  1  0  0  3  0  0  0  0  0  0
  161.1570  212.1640  150.1560 C   0  0  0  0  0  2  0  0  0  0  0  0
  161.1760  210.0220  151.5180 C   0  0  1  0  0  3  0  0  0  0  0  0
  161.2840  208.0790  152.9150 C   0  0  1  0  0  3  0  0  0  0  0  0
  160.0280  209.9430  153.8050 C   0  0  1  0  0  3  0  0  0  0  0  0
  160.3030  208.9170  154.9290 C   0  0  1  0  0  3  0  0  0  0  0  0
  161.2570  209.2050  150.2280 C   0  0  2  0  0  3  0  0  0  0  0  0
  160.6950  207.6100  154.2260 C   0  0  0  0  0  2  0  0  0  0  0  0
  161.9530  207.8520  150.5060 C   0  0  0  0  0  2  0  0  0  0  0  0
  161.9570  209.9810  149.1020 C   0  0  0  0  0  2  0  0  0  0  0  0
  160.7120  211.3240  153.9210 C   0  0  0  0  0  2  0  0  0  0  0  0
  160.5430  212.1860  152.6380 C   0  0  2  0  0  3  0  0  0  0  0  0
  161.3600  207.1060  151.7290 C   0  0  1  0  0  3  0  0  0  0  0  0
  162.3260  211.4250  149.4850 C   0  0  0  0  0  2  0  0  0  0  0  0
  157.9950  212.8290  154.8980 C   0  0  1  0  0  3  0  0  0  0  0  0
  157.6320  213.5250  156.0540 O   0  0  0  0  0  1  0  0  0  0  0  0
  157.1970  211.8270  152.8610 C   0  0  0  0  0  2  0  0  0  0  0  0
  159.3610  213.1620  152.7090 C   0  0  1  0  0  3  0  0  0  0  0  0
  156.8050  212.5420  154.0830 N   0  0  0  0  0  0  0  0  0  0  0  0
  158.1080  212.6770  151.9650 C   0  0  0  0  0  2  0  0  0  0  0  0
  159.0540  213.5740  154.1200 C   0  0  0  0  0  0  0  0  0  0  0  0
  159.7160  214.4520  154.6500 O   0  0  0  0  0  0  0  0  0  0  0  0
  154.8790  213.3770  153.4670 C   0  0  0  0  0  1  0  0  0  0  0  0
  156.2100  213.7130  153.7290 O   0  0  0  0  0  0  0  0  0  0  0  0
  162.6350  210.5840  157.1840 N   0  0  0  0  0  0  0  0  0  0  0  0
  162.3260  208.5490  156.4990 C   0  0  0  0  0  3  0  0  0  0  0  0
  161.3570  209.3390  155.9140 C   0  0  0  0  0  0  0  0  0  0  0  0
  163.0500  209.3510  157.2460 O   0  0  0  0  0  0  0  0  0  0  0  0
  161.5760  210.6250  156.3540 C   0  0  0  0  0  3  0  0  0  0  0  0
  162.2350  205.9330  152.0430 C   0  0  0  0  0  3  0  0  0  0  0  0
  161.8350  204.6910  151.7880 C   0  0  0  0  0  2  0  0  0  0  0  0
  1  3  1  6  0  0  0
  1  4  1  0  0  0  0
  1 13  1  0  0  0  0
  2  5  1  0  0  0  0
  2  6  1  0  0  0  0
  4  2  1  0  0  0  0
  5  9  1  0  0  0  0
  6 12  1  0  0  0  0
  6  7  1  0  0  0  0
  7 28  1  0  0  0  0
  8 10  1  0  0  0  0
  8  4  1  0  0  0  0
  9  7  1  0  0  0  0
 10 14  1  0  0  0  0
 11 15  1  0  0  0  0
 11  8  1  0  0  0  0
 13 19  1  0  0  0  0
 13 12  1  0  0  0  0
 14 31  1  0  0  0  0
 14  5  1  0  0  0  0
 15  3  1  0  0  0  0
 16 17  1  0  0  0  0
 18 20  1  0  0  0  0
 19 22  1  0  0  0  0
 20 16  1  0  0  0  0
 21 19  1  0  0  0  0
 21 18  1  0  0  0  0
 22 23  2  0  0  0  0
 22 16  1  0  0  0  0
 24 25  1  0  0  0  0
 25 20  1  0  0  0  0
 26 29  1  0  0  0  0
 27 29  1  0  0  0  0
 28 30  1  0  0  0  0
 28 27  2  0  0  0  0
 30 26  2  0  0  0  0
 32 31  2  0  0  0  0
M  END
>  <MODEL>
6

>  <REMARK>
 VINA RESULT:      -3.7      3.618      5.841
  Name = 
  4 active torsions:
  status: ('A' for Active; 'I' for Inactive)
    1  A    between atoms: C_12  and  C_28
    2  A    between atoms: C_13  and  C_29
    3  A    between atoms: C_16  and  C_27
    4  A    between atoms: N_19  and  O_26
                            x       y       z     vdW  Elec       q    Type
                         _______ _______ _______ _____ _____    ______ ____

>  <TORSDO>
F 4

$$$$
=
 OpenBabel11062408223D

 32 37  0  0  1  0  0  0  0  0999 V2000
  161.4320  203.9610  150.7290 C   0  0  1  0  0  3  0  0  0  0  0  0
  162.0300  203.1580  148.4610 C   0  0  1  0  0  3  0  0  0  0  0  0
  160.6440  203.6780  152.0200 C   0  0  0  0  0  2  0  0  0  0  0  0
  161.0960  202.9710  149.6250 C   0  0  1  0  0  3  0  0  0  0  0  0
  161.4170  202.4180  147.3160 C   0  0  1  0  0  3  0  0  0  0  0  0
  162.2260  204.5910  147.9970 C   0  0  1  0  0  3  0  0  0  0  0  0
  162.1830  204.5130  146.4530 C   0  0  1  0  0  3  0  0  0  0  0  0
  161.2020  201.5140  150.0770 C   0  0  2  0  0  3  0  0  0  0  0  0
  162.0920  203.0200  146.1050 C   0  0  0  0  0  2  0  0  0  0  0  0
  160.8220  200.5720  148.9110 C   0  0  0  0  0  2  0  0  0  0  0  0
  160.3500  201.2390  151.3260 C   0  0  0  0  0  2  0  0  0  0  0  0
  161.2540  205.5740  148.6870 C   0  0  0  0  0  2  0  0  0  0  0  0
  161.2310  205.4090  150.2330 C   0  0  2  0  0  3  0  0  0  0  0  0
  161.5620  200.9130  147.5910 C   0  0  1  0  0  3  0  0  0  0  0  0
  159.6690  202.4960  151.8970 C   0  0  0  0  0  2  0  0  0  0  0  0
  160.8290  208.0390  152.4550 C   0  0  1  0  0  3  0  0  0  0  0  0
  160.6810  208.3970  153.7990 O   0  0  0  0  0  1  0  0  0  0  0  0
  161.5790  208.7640  150.2870 C   0  0  0  0  0  2  0  0  0  0  0  0
  162.1680  206.3800  150.9640 C   0  0  1  0  0  3  0  0  0  0  0  0
  161.4090  209.1550  151.6920 N   0  0  0  0  0  0  0  0  0  0  0  0
  162.5710  207.6040  150.1290 C   0  0  0  0  0  2  0  0  0  0  0  0
  161.6360  206.7700  152.3130 C   0  0  0  0  0  0  0  0  0  0  0  0
  161.7910  206.0190  153.2640 O   0  0  0  0  0  0  0  0  0  0  0  0
  162.3780  210.4600  153.1560 C   0  0  0  0  0  1  0  0  0  0  0  0
  162.6290  209.4640  152.2090 O   0  0  0  0  0  0  0  0  0  0  0  0
  159.3880  205.8280  144.5150 N   0  0  0  0  0  0  0  0  0  0  0  0
  160.7110  206.6030  146.0490 C   0  0  0  0  0  3  0  0  0  0  0  0
  161.0590  205.2860  145.8220 C   0  0  0  0  0  0  0  0  0  0  0  0
  159.7070  206.8600  145.2430 O   0  0  0  0  0  0  0  0  0  0  0  0
  160.2150  204.8180  144.8410 C   0  0  0  0  0  3  0  0  0  0  0  0
  160.9670  200.0980  146.4860 C   0  0  0  0  0  3  0  0  0  0  0  0
  161.5820  199.0100  146.0290 C   0  0  0  0  0  2  0  0  0  0  0  0
  1  3  1  1  0  0  0
  2  4  1  0  0  0  0
  4  8  1  0  0  0  0
  4  1  1  0  0  0  0
  5 14  1  0  0  0  0
  5  2  1  0  0  0  0
  6  2  1  0  0  0  0
  6 12  1  0  0  0  0
  7  6  1  0  0  0  0
  8 11  1  0  0  0  0
  9  7  1  0  0  0  0
  9  5  1  0  0  0  0
 10  8  1  0  0  0  0
 11 15  1  0  0  0  0
 12 13  1  0  0  0  0
 13  1  1  0  0  0  0
 13 19  1  0  0  0  0
 14 10  1  0  0  0  0
 15  3  1  0  0  0  0
 16 17  1  0  0  0  0
 18 20  1  0  0  0  0
 19 22  1  0  0  0  0
 20 25  1  0  0  0  0
 20 16  1  0  0  0  0
 21 18  1  0  0  0  0
 21 19  1  0  0  0  0
 22 16  1  0  0  0  0
 22 23  2  0  0  0  0
 25 24  1  0  0  0  0
 26 30  2  0  0  0  0
 26 29  1  0  0  0  0
 28 27  2  0  0  0  0
 28  7  1  0  0  0  0
 29 27  1  0  0  0  0
 30 28  1  0  0  0  0
 31 14  1  0  0  0  0
 32 31  2  0  0  0  0
M  END
>  <MODEL>
7

>  <REMARK>
 VINA RESULT:      -3.3      4.131      7.923
  Name = 
  4 active torsions:
  status: ('A' for Active; 'I' for Inactive)
    1  A    between atoms: C_12  and  C_28
    2  A    between atoms: C_13  and  C_29
    3  A    between atoms: C_16  and  C_27
    4  A    between atoms: N_19  and  O_26
                            x       y       z     vdW  Elec       q    Type
                         _______ _______ _______ _____ _____    ______ ____

>  <TORSDO>
F 4

$$$$
=
 OpenBabel11062408223D

 32 37  0  0  1  0  0  0  0  0999 V2000
  160.4560  209.2000  154.4050 C   0  0  1  0  0  3  0  0  0  0  0  0
  158.7960  211.0370  154.2820 C   0  0  1  0  0  3  0  0  0  0  0  0
  161.6060  208.5660  155.2070 C   0  0  0  0  0  2  0  0  0  0  0  0
  160.0450  210.5530  154.9650 C   0  0  1  0  0  3  0  0  0  0  0  0
  158.6740  212.4880  154.6220 C   0  0  1  0  0  3  0  0  0  0  0  0
  158.7950  210.9450  152.7650 C   0  0  1  0  0  3  0  0  0  0  0  0
  158.1780  212.2810  152.2920 C   0  0  1  0  0  3  0  0  0  0  0  0
  159.7710  210.5200  156.4680 C   0  0  2  0  0  3  0  0  0  0  0  0
  157.7370  213.0210  153.5630 C   0  0  0  0  0  2  0  0  0  0  0  0
  159.3860  211.9330  156.9650 C   0  0  0  0  0  2  0  0  0  0  0  0
  160.9620  209.9490  157.2540 C   0  0  0  0  0  2  0  0  0  0  0  0
  160.1790  210.5600  152.1960 C   0  0  0  0  0  2  0  0  0  0  0  0
  160.7940  209.3190  152.9030 C   0  0  2  0  0  3  0  0  0  0  0  0
  158.2810  212.5970  156.1030 C   0  0  1  0  0  3  0  0  0  0  0  0
  162.1110  209.4510  156.3590 C   0  0  0  0  0  2  0  0  0  0  0  0
  162.7230  206.6860  151.7350 C   0  0  1  0  0  3  0  0  0  0  0  0
  163.3330  205.4730  152.0660 O   0  0  0  0  0  1  0  0  0  0  0  0
  161.7840  208.0080  149.9570 C   0  0  0  0  0  2  0  0  0  0  0  0
  160.5200  208.0000  152.1680 C   0  0  1  0  0  3  0  0  0  0  0  0
  162.4420  206.7380  150.2920 N   0  0  0  0  0  0  0  0  0  0  0  0
  160.4180  208.1460  150.6440 C   0  0  0  0  0  2  0  0  0  0  0  0
  161.4840  206.9200  152.5680 C   0  0  0  0  0  0  0  0  0  0  0  0
  161.3010  206.2980  153.6020 O   0  0  0  0  0  0  0  0  0  0  0  0
  161.6860  205.6220  148.5700 C   0  0  0  0  0  1  0  0  0  0  0  0
  161.6080  205.7150  149.9620 O   0  0  0  0  0  0  0  0  0  0  0  0
  160.1120  214.0240  149.7380 N   0  0  0  0  0  0  0  0  0  0  0  0
  160.1180  213.9500  151.9050 C   0  0  0  0  0  3  0  0  0  0  0  0
  159.0970  213.1330  151.4610 C   0  0  0  0  0  0  0  0  0  0  0  0
  160.6770  214.4530  150.8290 O   0  0  0  0  0  0  0  0  0  0  0  0
  159.1170  213.1860  150.0860 C   0  0  0  0  0  3  0  0  0  0  0  0
  158.1410  214.0250  156.5250 C   0  0  0  0  0  3  0  0  0  0  0  0
  157.0610  214.4450  157.1790 C   0  0  0  0  0  2  0  0  0  0  0  0
  1  4  1  0  0  0  0
  1  3  1  1  0  0  0
  2  5  1  0  0  0  0
  2  4  1  0  0  0  0
  3 15  1  0  0  0  0
  4  8  1  0  0  0  0
  5 14  1  0  0  0  0
  6  2  1  0  0  0  0
  7  6  1  0  0  0  0
  7  9  1  0  0  0  0
  8 10  1  0  0  0  0
  8 11  1  0  0  0  0
  9  5  1  0  0  0  0
 12  6  1  0  0  0  0
 12 13  1  0  0  0  0
 13  1  1  0  0  0  0
 14 31  1  0  0  0  0
 14 10  1  0  0  0  0
 15 11  1  0  0  0  0
 16 17  1  0  0  0  0
 16 22  1  0  0  0  0
 18 20  1  0  0  0  0
 18 21  1  0  0  0  0
 19 22  1  0  0  0  0
 19 13  1  0  0  0  0
 20 16  1  0  0  0  0
 21 19  1  0  0  0  0
 22 23  2  0  0  0  0
 24 25  1  0  0  0  0
 25 20  1  0  0  0  0
 26 30  2  0  0  0  0
 26 29  1  0  0  0  0
 28 27  2  0  0  0  0
 28  7  1  0  0  0  0
 29 27  1  0  0  0  0
 30 28  1  0  0  0  0
 31 32  2  0  0  0  0
M  END
>  <MODEL>
8

>  <REMARK>
 VINA RESULT:      -3.2      2.234      6.246
  Name = 
  4 active torsions:
  status: ('A' for Active; 'I' for Inactive)
    1  A    between atoms: C_12  and  C_28
    2  A    between atoms: C_13  and  C_29
    3  A    between atoms: C_16  and  C_27
    4  A    between atoms: N_19  and  O_26
                            x       y       z     vdW  Elec       q    Type
                         _______ _______ _______ _____ _____    ______ ____

>  <TORSDO>
F 4

$$$$
=
 OpenBabel11062408223D

 32 37  0  0  1  0  0  0  0  0999 V2000
  161.1810  207.9680  150.7910 C   0  0  1  0  0  3  0  0  0  0  0  0
  160.5590  205.9190  149.5400 C   0  0  1  0  0  3  0  0  0  0  0  0
  161.9990  209.2710  150.7860 C   0  0  0  0  0  2  0  0  0  0  0  0
  161.5180  207.0760  149.6060 C   0  0  1  0  0  3  0  0  0  0  0  0
  161.1660  204.9310  148.5980 C   0  0  1  0  0  3  0  0  0  0  0  0
  160.3220  205.1840  150.8490 C   0  0  1  0  0  3  0  0  0  0  0  0
  160.3380  203.6860  150.4650 C   0  0  1  0  0  3  0  0  0  0  0  0
  161.4530  207.8110  148.2670 C   0  0  2  0  0  3  0  0  0  0  0  0
  160.4560  203.6400  148.9340 C   0  0  0  0  0  2  0  0  0  0  0  0
  161.8320  206.8470  147.1190 C   0  0  0  0  0  2  0  0  0  0  0  0
  162.3340  209.0700  148.2630 C   0  0  0  0  0  2  0  0  0  0  0  0
  161.2860  205.6410  151.9660 C   0  0  0  0  0  2  0  0  0  0  0  0
  161.3410  207.1880  152.1140 C   0  0  2  0  0  3  0  0  0  0  0  0
  161.0590  205.5040  147.1760 C   0  0  1  0  0  3  0  0  0  0  0  0
  162.9970  209.3630  149.6200 C   0  0  0  0  0  2  0  0  0  0  0  0
  161.4260  209.8000  154.3910 C   0  0  1  0  0  3  0  0  0  0  0  0
  161.1760  211.1620  154.5890 O   0  0  0  0  0  1  0  0  0  0  0  0
  161.5810  207.6440  155.4470 C   0  0  0  0  0  2  0  0  0  0  0  0
  160.3970  207.7320  153.1950 C   0  0  1  0  0  3  0  0  0  0  0  0
  161.3370  209.0760  155.6680 N   0  0  0  0  0  0  0  0  0  0  0  0
  160.5140  207.0110  154.5440 C   0  0  0  0  0  2  0  0  0  0  0  0
  160.5060  209.2230  153.3410 C   0  0  0  0  0  0  0  0  0  0  0  0
  159.9150  209.9520  152.5600 O   0  0  0  0  0  0  0  0  0  0  0  0
  160.2480  210.1070  157.2600 C   0  0  0  0  0  1  0  0  0  0  0  0
  160.0870  209.2290  156.1840 O   0  0  0  0  0  0  0  0  0  0  0  0
  162.5440  201.2210  152.0020 N   0  0  0  0  0  0  0  0  0  0  0  0
  162.6220  203.3580  151.6360 C   0  0  0  0  0  3  0  0  0  0  0  0
  161.4330  202.8870  151.1160 C   0  0  0  0  0  0  0  0  0  0  0  0
  163.2370  202.3140  152.1440 O   0  0  0  0  0  0  0  0  0  0  0  0
  161.3990  201.5350  151.3660 C   0  0  0  0  0  3  0  0  0  0  0  0
  161.6510  204.5700  146.1680 C   0  0  0  0  0  3  0  0  0  0  0  0
  162.9190  204.6920  145.7810 C   0  0  0  0  0  2  0  0  0  0  0  0
  1  3  1  1  0  0  0
  1 13  1  0  0  0  0
  2  4  1  0  0  0  0
  2  6  1  0  0  0  0
  4  1  1  0  0  0  0
  5  9  1  0  0  0  0
  5  2  1  0  0  0  0
  6 12  1  0  0  0  0
  7  6  1  0  0  0  0
  7 28  1  0  0  0  0
  8  4  1  0  0  0  0
  9  7  1  0  0  0  0
 10 14  1  0  0  0  0
 10  8  1  0  0  0  0
 11  8  1  0  0  0  0
 11 15  1  0  0  0  0
 12 13  1  0  0  0  0
 13 19  1  0  0  0  0
 14  5  1  0  0  0  0
 15  3  1  0  0  0  0
 16 17  1  0  0  0  0
 16 20  1  0  0  0  0
 18 20  1  0  0  0  0
 19 22  1  0  0  0  0
 19 21  1  0  0  0  0
 20 25  1  0  0  0  0
 21 18  1  0  0  0  0
 22 16  1  0  0  0  0
 23 22  2  0  0  0  0
 25 24  1  0  0  0  0
 26 29  1  0  0  0  0
 27 29  1  0  0  0  0
 28 30  1  0  0  0  0
 28 27  2  0  0  0  0
 30 26  2  0  0  0  0
 31 14  1  0  0  0  0
 32 31  2  0  0  0  0
M  END
>  <MODEL>
9

>  <REMARK>
 VINA RESULT:      -3.1      3.662      7.033
  Name = 
  4 active torsions:
  status: ('A' for Active; 'I' for Inactive)
    1  A    between atoms: C_12  and  C_28
    2  A    between atoms: C_13  and  C_29
    3  A    between atoms: C_16  and  C_27
    4  A    between atoms: N_19  and  O_26
                            x       y       z     vdW  Elec       q    Type
                         _______ _______ _______ _____ _____    ______ ____

>  <TORSDO>
F 4

$$$$
