=
 OpenBabel11062410083D

 43 49  0  0  1  0  0  0  0  0999 V2000
  161.4810  203.5760  146.4300 C   0  0  0  0  0  0  0  0  0  0  0  0
  161.2640  206.9190  150.1910 C   0  0  0  0  0  0  0  0  0  0  0  0
  161.4580  209.5650  149.0260 C   0  0  1  0  0  3  0  0  0  0  0  0
  161.2650  204.6400  148.5930 C   0  0  0  0  0  0  0  0  0  0  0  0
  161.6770  204.8260  145.8330 C   0  0  0  0  0  3  0  0  0  0  0  0
  161.4920  202.4280  145.6520 O   0  0  0  0  0  1  0  0  0  0  0  0
  161.4640  205.9040  147.9970 C   0  0  0  0  0  0  0  0  0  0  0  0
  161.2740  203.4840  147.8090 C   0  0  0  0  0  3  0  0  0  0  0  0
  161.6680  205.9870  146.6120 C   0  0  0  0  0  3  0  0  0  0  0  0
  161.6460  208.3540  148.2310 N   0  0  0  0  0  2  0  0  0  0  0  0
  161.4470  207.0540  148.8000 C   0  0  0  0  0  0  0  0  0  0  0  0
  161.0540  205.6840  150.7280 N   0  0  0  0  0  0  0  0  0  0  0  0
  161.2120  208.1430  151.0730 C   0  0  2  0  0  3  0  0  0  0  0  0
  161.9670  209.3190  150.4460 C   0  0  0  0  0  2  0  0  0  0  0  0
  161.0550  204.5570  149.9690 C   0  0  0  0  0  3  0  0  0  0  0  0
  162.1860  210.7440  148.3800 C   0  0  1  0  0  3  0  0  0  0  0  0
  161.2970  211.4210  147.3550 C   0  0  0  0  0  2  0  0  0  0  0  0
  162.4630  211.8180  149.4120 C   0  0  0  0  0  2  0  0  0  0  0  0
  160.6850  212.5750  147.9940 N   0  0  0  0  0  0  0  0  0  0  0  0
  161.6550  213.0240  148.9790 C   0  0  0  0  0  2  0  0  0  0  0  0
  160.5850  213.6150  146.9840 C   0  0  0  0  0  2  0  0  0  0  0  0
  159.1330  213.7840  146.5470 C   0  0  2  0  0  3  0  0  0  0  0  0
  157.5410  212.7950  145.1960 O   0  0  0  0  0  0  0  0  0  0  0  0
  158.2820  213.0720  147.3810 O   0  0  0  0  0  0  0  0  0  0  0  0
  158.8500  213.2790  145.1570 C   0  0  1  0  0  0  0  0  0  0  0  0
  158.9550  214.4350  144.1750 C   0  0  0  0  0  1  0  0  0  0  0  0
  157.1850  212.7720  146.5590 C   0  0  0  0  0  2  0  0  0  0  0  0
  159.7490  212.2220  144.7950 O   0  0  0  0  0  0  0  0  0  0  0  0
  160.5770  212.2210  143.6630 C   0  0  0  0  0  0  0  0  0  0  0  0
  161.0430  211.6390  141.3490 C   0  0  0  0  0  3  0  0  0  0  0  0
  162.6830  212.8630  142.6400 C   0  0  0  0  0  3  0  0  0  0  0  0
  162.2900  212.2610  141.4420 C   0  0  0  0  0  3  0  0  0  0  0  0
  161.8280  212.8420  143.7470 C   0  0  0  0  0  3  0  0  0  0  0  0
  160.1890  211.6180  142.4550 C   0  0  0  0  0  3  0  0  0  0  0  0
  161.7740  207.8470  152.3860 N   0  0  0  0  0  2  0  0  0  0  0  0
  161.0930  210.3380  155.0980 C   0  0  0  0  0  3  0  0  0  0  0  0
  160.3420  209.5580  155.9830 C   0  0  0  0  0  0  0  0  0  0  0  0
  160.5560  207.6610  154.4920 C   0  0  0  0  0  3  0  0  0  0  0  0
  161.5690  209.7810  153.9080 C   0  0  0  0  0  3  0  0  0  0  0  0
  161.3030  208.4380  153.6000 C   0  0  0  0  0  0  0  0  0  0  0  0
  160.0800  208.2180  155.6820 C   0  0  0  0  0  3  0  0  0  0  0  0
  159.5680  211.4950  157.0820 O   0  0  0  0  0  1  0  0  0  0  0  0
  159.8550  210.1430  157.2610 C   0  0  0  0  0  2  0  0  0  0  0  0
  1  8  1  0  0  0  0
  2 12  1  0  0  0  0
  2 13  1  0  0  0  0
  3 14  1  1  0  0  0
  4 15  1  0  0  0  0
  5  1  2  0  0  0  0
  5  9  1  0  0  0  0
  6  1  1  0  0  0  0
  7  4  1  0  0  0  0
  7 11  1  0  0  0  0
  8  4  2  0  0  0  0
  9  7  2  0  0  0  0
 10 11  1  0  0  0  0
 10  3  1  0  0  0  0
 11  2  2  0  0  0  0
 13 35  1  1  0  0  0
 14 13  1  0  0  0  0
 15 12  2  0  0  0  0
 16 17  1  6  0  0  0
 16  3  1  0  0  0  0
 16 18  1  0  0  0  0
 17 19  1  0  0  0  0
 19 20  1  0  0  0  0
 20 18  1  0  0  0  0
 21 19  1  0  0  0  0
 22 21  1  1  0  0  0
 22 24  1  0  0  0  0
 23 27  1  0  0  0  0
 25 26  1  6  0  0  0
 25 23  1  0  0  0  0
 25 22  1  0  0  0  0
 27 24  1  0  0  0  0
 28 25  1  0  0  0  0
 29 33  1  0  0  0  0
 29 28  1  0  0  0  0
 30 32  2  0  0  0  0
 30 34  1  0  0  0  0
 31 33  2  0  0  0  0
 32 31  1  0  0  0  0
 34 29  2  0  0  0  0
 35 40  1  0  0  0  0
 36 37  1  0  0  0  0
 37 43  1  0  0  0  0
 38 41  1  0  0  0  0
 39 36  2  0  0  0  0
 40 39  1  0  0  0  0
 40 38  2  0  0  0  0
 41 37  2  0  0  0  0
 42 43  1  0  0  0  0
M  END
>  <MODEL>
1

>  <REMARK>
 VINA RESULT:      -8.3      0.000      0.000
  Name = 
  8 active torsions:
  status: ('A' for Active; 'I' for Inactive)
    1  A    between atoms: N_1  and  C_34
    2  A    between atoms: N_1  and  C_35
    3  A    between atoms: C_2  and  C_13
    4  A    between atoms: C_3  and  C_4
    5  A    between atoms: C_3  and  N_12
    6  A    between atoms: C_11  and  O_14
    7  A    between atoms: O_14  and  C_22
    8  A    between atoms: C_19  and  C_37
                            x       y       z     vdW  Elec       q    Type
                         _______ _______ _______ _____ _____    ______ ____

>  <TORSDO>
F 8

$$$$
=
 OpenBabel11062410083D

 43 49  0  0  1  0  0  0  0  0999 V2000
  161.1710  202.5250  146.6630 C   0  0  0  0  0  0  0  0  0  0  0  0
  160.9310  205.8600  150.4290 C   0  0  0  0  0  0  0  0  0  0  0  0
  161.4260  208.4870  149.3090 C   0  0  1  0  0  3  0  0  0  0  0  0
  160.8740  203.5940  148.8130 C   0  0  0  0  0  0  0  0  0  0  0  0
  161.5110  203.7580  146.0950 C   0  0  0  0  0  3  0  0  0  0  0  0
  161.1490  201.3830  145.8770 O   0  0  0  0  0  1  0  0  0  0  0  0
  161.2180  204.8410  148.2470 C   0  0  0  0  0  0  0  0  0  0  0  0
  160.8510  202.4450  148.0210 C   0  0  0  0  0  3  0  0  0  0  0  0
  161.5350  204.9120  146.8830 C   0  0  0  0  0  3  0  0  0  0  0  0
  161.5770  207.2670  148.5190 N   0  0  0  0  0  2  0  0  0  0  0  0
  161.2310  205.9860  149.0580 C   0  0  0  0  0  0  0  0  0  0  0  0
  160.5830  204.6440  150.9370 N   0  0  0  0  0  0  0  0  0  0  0  0
  160.9090  207.0820  151.3170 C   0  0  2  0  0  3  0  0  0  0  0  0
  161.8030  208.1950  150.7620 C   0  0  0  0  0  2  0  0  0  0  0  0
  160.5530  203.5240  150.1680 C   0  0  0  0  0  3  0  0  0  0  0  0
  162.2940  209.6060  148.7330 C   0  0  1  0  0  3  0  0  0  0  0  0
  161.6000  210.2630  147.5540 C   0  0  0  0  0  2  0  0  0  0  0  0
  162.4560  210.7190  149.7480 C   0  0  0  0  0  2  0  0  0  0  0  0
  160.9490  211.4680  148.0410 N   0  0  0  0  0  0  0  0  0  0  0  0
  161.7760  211.9300  149.1440 C   0  0  0  0  0  2  0  0  0  0  0  0
  161.0480  212.4600  146.9840 C   0  0  0  0  0  2  0  0  0  0  0  0
  159.6820  213.0880  146.7240 C   0  0  2  0  0  3  0  0  0  0  0  0
  157.8990  212.9580  145.2610 O   0  0  0  0  0  0  0  0  0  0  0  0
  158.6820  212.3750  147.3700 O   0  0  0  0  0  0  0  0  0  0  0  0
  159.2860  213.1110  145.2710 C   0  0  1  0  0  0  0  0  0  0  0  0
  159.6720  214.4530  144.6690 C   0  0  0  0  0  1  0  0  0  0  0  0
  157.5460  212.6050  146.5780 C   0  0  0  0  0  2  0  0  0  0  0  0
  159.9000  212.0340  144.5480 O   0  0  0  0  0  0  0  0  0  0  0  0
  160.3580  212.1110  143.2250 C   0  0  0  0  0  0  0  0  0  0  0  0
  159.9790  212.1440  140.8230 C   0  0  0  0  0  3  0  0  0  0  0  0
  162.2300  212.3170  141.6930 C   0  0  0  0  0  3  0  0  0  0  0  0
  161.3530  212.2700  140.6060 C   0  0  0  0  0  3  0  0  0  0  0  0
  161.7340  212.2370  142.9970 C   0  0  0  0  0  3  0  0  0  0  0  0
  159.4820  212.0640  142.1280 C   0  0  0  0  0  3  0  0  0  0  0  0
  161.3420  206.7360  152.6660 N   0  0  0  0  0  2  0  0  0  0  0  0
  160.1900  207.6860  156.1000 C   0  0  0  0  0  3  0  0  0  0  0  0
  160.4160  209.0660  156.0760 C   0  0  0  0  0  0  0  0  0  0  0  0
  161.2350  208.8910  153.8040 C   0  0  0  0  0  3  0  0  0  0  0  0
  160.4940  206.9090  154.9790 C   0  0  0  0  0  3  0  0  0  0  0  0
  161.0180  207.5100  153.8240 C   0  0  0  0  0  0  0  0  0  0  0  0
  160.9320  209.6680  154.9260 C   0  0  0  0  0  3  0  0  0  0  0  0
  160.2990  211.2420  156.9770 O   0  0  0  0  0  1  0  0  0  0  0  0
  160.0710  209.8960  157.2610 C   0  0  0  0  0  2  0  0  0  0  0  0
  1  8  1  0  0  0  0
  2 12  1  0  0  0  0
  2 13  1  0  0  0  0
  3 14  1  1  0  0  0
  4 15  1  0  0  0  0
  5  1  2  0  0  0  0
  5  9  1  0  0  0  0
  6  1  1  0  0  0  0
  7  4  1  0  0  0  0
  7 11  1  0  0  0  0
  8  4  2  0  0  0  0
  9  7  2  0  0  0  0
 10 11  1  0  0  0  0
 10  3  1  0  0  0  0
 11  2  2  0  0  0  0
 13 35  1  1  0  0  0
 14 13  1  0  0  0  0
 15 12  2  0  0  0  0
 16 17  1  6  0  0  0
 16  3  1  0  0  0  0
 16 18  1  0  0  0  0
 17 19  1  0  0  0  0
 19 20  1  0  0  0  0
 20 18  1  0  0  0  0
 21 19  1  0  0  0  0
 22 21  1  6  0  0  0
 22 24  1  0  0  0  0
 23 25  1  0  0  0  0
 23 27  1  0  0  0  0
 25 26  1  6  0  0  0
 25 22  1  0  0  0  0
 27 24  1  0  0  0  0
 28 25  1  0  0  0  0
 29 28  1  0  0  0  0
 30 34  1  0  0  0  0
 31 33  2  0  0  0  0
 32 30  2  0  0  0  0
 32 31  1  0  0  0  0
 33 29  1  0  0  0  0
 34 29  2  0  0  0  0
 35 40  1  0  0  0  0
 37 36  1  0  0  0  0
 37 43  1  0  0  0  0
 38 40  2  0  0  0  0
 38 41  1  0  0  0  0
 39 36  2  0  0  0  0
 40 39  1  0  0  0  0
 41 37  2  0  0  0  0
 42 43  1  0  0  0  0
M  END
>  <MODEL>
2

>  <REMARK>
 VINA RESULT:      -8.1      0.905      1.237
  Name = 
  8 active torsions:
  status: ('A' for Active; 'I' for Inactive)
    1  A    between atoms: N_1  and  C_34
    2  A    between atoms: N_1  and  C_35
    3  A    between atoms: C_2  and  C_13
    4  A    between atoms: C_3  and  C_4
    5  A    between atoms: C_3  and  N_12
    6  A    between atoms: C_11  and  O_14
    7  A    between atoms: O_14  and  C_22
    8  A    between atoms: C_19  and  C_37
                            x       y       z     vdW  Elec       q    Type
                         _______ _______ _______ _____ _____    ______ ____

>  <TORSDO>
F 8

$$$$
=
 OpenBabel11062410083D

 43 49  0  0  1  0  0  0  0  0999 V2000
  161.5340  203.7530  146.2910 C   0  0  0  0  0  0  0  0  0  0  0  0
  161.2760  206.9970  150.1350 C   0  0  0  0  0  0  0  0  0  0  0  0
  161.4260  209.6740  149.0360 C   0  0  1  0  0  3  0  0  0  0  0  0
  161.3080  204.7580  148.4810 C   0  0  0  0  0  0  0  0  0  0  0  0
  161.7080  205.0200  145.7250 C   0  0  0  0  0  3  0  0  0  0  0  0
  161.5600  202.6240  145.4850 O   0  0  0  0  0  1  0  0  0  0  0  0
  161.4850  206.0400  147.9160 C   0  0  0  0  0  0  0  0  0  0  0  0
  161.3320  203.6230  147.6690 C   0  0  0  0  0  3  0  0  0  0  0  0
  161.6840  206.1600  146.5330 C   0  0  0  0  0  3  0  0  0  0  0  0
  161.6300  208.4860  148.2110 N   0  0  0  0  0  2  0  0  0  0  0  0
  161.4530  207.1700  148.7470 C   0  0  0  0  0  0  0  0  0  0  0  0
  161.0870  205.7460  150.6420 N   0  0  0  0  0  0  0  0  0  0  0  0
  161.2080  208.1980  151.0470 C   0  0  2  0  0  3  0  0  0  0  0  0
  161.9430  209.4000  150.4480 C   0  0  0  0  0  2  0  0  0  0  0  0
  161.1040  204.6390  149.8550 C   0  0  0  0  0  3  0  0  0  0  0  0
  162.1340  210.8800  148.4170 C   0  0  1  0  0  3  0  0  0  0  0  0
  161.3120  211.4530  147.2780 C   0  0  0  0  0  2  0  0  0  0  0  0
  162.2250  212.0070  149.4250 C   0  0  0  0  0  2  0  0  0  0  0  0
  160.5570  212.5800  147.8010 N   0  0  0  0  0  0  0  0  0  0  0  0
  161.3840  213.1340  148.8600 C   0  0  0  0  0  2  0  0  0  0  0  0
  160.4920  213.5730  146.7420 C   0  0  0  0  0  2  0  0  0  0  0  0
  159.2840  213.3070  145.8480 C   0  0  2  0  0  3  0  0  0  0  0  0
  157.0910  213.9700  145.5540 O   0  0  0  0  0  0  0  0  0  0  0  0
  159.2680  214.1790  144.7690 O   0  0  0  0  0  0  0  0  0  0  0  0
  157.9590  213.4960  146.5380 C   0  0  1  0  0  0  0  0  0  0  0  0
  157.4750  212.1540  147.0650 C   0  0  0  0  0  1  0  0  0  0  0  0
  157.9060  214.2880  144.4490 C   0  0  0  0  0  2  0  0  0  0  0  0
  158.0580  214.4530  147.6020 O   0  0  0  0  0  0  0  0  0  0  0  0
  157.3880  214.3650  148.8310 C   0  0  0  0  0  0  0  0  0  0  0  0
  157.3700  214.1560  151.2530 C   0  0  0  0  0  3  0  0  0  0  0  0
  155.2830  214.3160  150.0390 C   0  0  0  0  0  3  0  0  0  0  0  0
  155.9740  214.1930  151.2470 C   0  0  0  0  0  3  0  0  0  0  0  0
  155.9890  214.4010  148.8350 C   0  0  0  0  0  3  0  0  0  0  0  0
  158.0760  214.2410  150.0480 C   0  0  0  0  0  3  0  0  0  0  0  0
  161.7780  207.8780  152.3510 N   0  0  0  0  0  2  0  0  0  0  0  0
  161.1370  210.4210  155.0240 C   0  0  0  0  0  3  0  0  0  0  0  0
  160.4760  209.6370  155.9740 C   0  0  0  0  0  0  0  0  0  0  0  0
  160.6950  207.7050  154.5300 C   0  0  0  0  0  3  0  0  0  0  0  0
  161.5700  209.8490  153.8250 C   0  0  0  0  0  3  0  0  0  0  0  0
  161.3500  208.4860  153.5730 C   0  0  0  0  0  0  0  0  0  0  0  0
  160.2610  208.2770  155.7290 C   0  0  0  0  0  3  0  0  0  0  0  0
  159.4270  211.4700  157.0220 O   0  0  0  0  0  1  0  0  0  0  0  0
  160.0370  210.2400  157.2610 C   0  0  0  0  0  2  0  0  0  0  0  0
  1  8  1  0  0  0  0
  2 12  1  0  0  0  0
  2 13  1  0  0  0  0
  3 14  1  1  0  0  0
  4 15  1  0  0  0  0
  5  1  2  0  0  0  0
  5  9  1  0  0  0  0
  6  1  1  0  0  0  0
  7  4  1  0  0  0  0
  7 11  1  0  0  0  0
  8  4  2  0  0  0  0
  9  7  2  0  0  0  0
 10 11  1  0  0  0  0
 10  3  1  0  0  0  0
 11  2  2  0  0  0  0
 13 35  1  1  0  0  0
 14 13  1  0  0  0  0
 15 12  2  0  0  0  0
 16 17  1  6  0  0  0
 16  3  1  0  0  0  0
 16 18  1  0  0  0  0
 17 19  1  0  0  0  0
 19 20  1  0  0  0  0
 20 18  1  0  0  0  0
 21 19  1  0  0  0  0
 22 25  1  0  0  0  0
 22 21  1  1  0  0  0
 23 25  1  0  0  0  0
 24 22  1  0  0  0  0
 25 26  1  1  0  0  0
 25 28  1  0  0  0  0
 27 24  1  0  0  0  0
 27 23  1  0  0  0  0
 28 29  1  0  0  0  0
 29 33  2  0  0  0  0
 29 34  1  0  0  0  0
 31 32  2  0  0  0  0
 32 30  1  0  0  0  0
 33 31  1  0  0  0  0
 34 30  2  0  0  0  0
 35 40  1  0  0  0  0
 36 37  1  0  0  0  0
 37 43  1  0  0  0  0
 38 41  1  0  0  0  0
 39 36  2  0  0  0  0
 40 39  1  0  0  0  0
 40 38  2  0  0  0  0
 41 37  2  0  0  0  0
 42 43  1  0  0  0  0
M  END
>  <MODEL>
3

>  <REMARK>
 VINA RESULT:      -7.9      1.696      3.723
  Name = 
  8 active torsions:
  status: ('A' for Active; 'I' for Inactive)
    1  A    between atoms: N_1  and  C_34
    2  A    between atoms: N_1  and  C_35
    3  A    between atoms: C_2  and  C_13
    4  A    between atoms: C_3  and  C_4
    5  A    between atoms: C_3  and  N_12
    6  A    between atoms: C_11  and  O_14
    7  A    between atoms: O_14  and  C_22
    8  A    between atoms: C_19  and  C_37
                            x       y       z     vdW  Elec       q    Type
                         _______ _______ _______ _____ _____    ______ ____

>  <TORSDO>
F 8

$$$$
=
 OpenBabel11062410083D

 43 49  0  0  1  0  0  0  0  0999 V2000
  162.1810  211.1840  148.7730 C   0  0  0  0  0  0  0  0  0  0  0  0
  161.4390  206.6810  150.9030 C   0  0  0  0  0  0  0  0  0  0  0  0
  160.8170  207.1240  153.6980 C   0  0  1  0  0  3  0  0  0  0  0  0
  161.8940  208.8150  149.1750 C   0  0  0  0  0  0  0  0  0  0  0  0
  161.9820  211.4410  150.1340 C   0  0  0  0  0  3  0  0  0  0  0  0
  162.4220  212.2330  147.8980 O   0  0  0  0  0  1  0  0  0  0  0  0
  161.6940  209.0670  150.5490 C   0  0  0  0  0  0  0  0  0  0  0  0
  162.1350  209.8710  148.2940 C   0  0  0  0  0  3  0  0  0  0  0  0
  161.7390  210.3870  151.0200 C   0  0  0  0  0  3  0  0  0  0  0  0
  161.2430  208.2090  152.8190 N   0  0  0  0  0  2  0  0  0  0  0  0
  161.4490  207.9930  151.4180 C   0  0  0  0  0  0  0  0  0  0  0  0
  161.6150  206.4780  149.5670 N   0  0  0  0  0  0  0  0  0  0  0  0
  161.1470  205.5110  151.8120 C   0  0  2  0  0  3  0  0  0  0  0  0
  161.5030  205.8280  153.2670 C   0  0  0  0  0  2  0  0  0  0  0  0
  161.8430  207.5030  148.7050 C   0  0  0  0  0  3  0  0  0  0  0  0
  161.1430  207.4580  155.1540 C   0  0  1  0  0  3  0  0  0  0  0  0
  161.0390  208.9530  155.3920 C   0  0  0  0  0  2  0  0  0  0  0  0
  160.1040  206.8530  156.0760 C   0  0  0  0  0  2  0  0  0  0  0  0
  159.7310  209.2190  155.9690 N   0  0  0  0  0  0  0  0  0  0  0  0
  159.4000  208.0240  156.7290 C   0  0  0  0  0  2  0  0  0  0  0  0
  159.9020  210.3020  156.9230 C   0  0  0  0  0  2  0  0  0  0  0  0
  160.2990  211.5830  156.1950 C   0  0  2  0  0  3  0  0  0  0  0  0
  159.4170  213.6100  155.5250 O   0  0  0  0  0  0  0  0  0  0  0  0
  160.7560  212.5380  157.0930 O   0  0  0  0  0  0  0  0  0  0  0  0
  159.1660  212.2400  155.4510 C   0  0  1  0  0  0  0  0  0  0  0  0
  159.1870  211.7780  154.0020 C   0  0  0  0  0  1  0  0  0  0  0  0
  160.4600  213.7560  156.4620 C   0  0  0  0  0  2  0  0  0  0  0  0
  157.9020  211.9420  156.0610 O   0  0  0  0  0  0  0  0  0  0  0  0
  156.7760  212.7780  156.0300 C   0  0  0  0  0  0  0  0  0  0  0  0
  155.1250  214.1050  154.8370 C   0  0  0  0  0  3  0  0  0  0  0  0
  155.0410  213.9570  157.2510 C   0  0  0  0  0  3  0  0  0  0  0  0
  154.5210  214.4460  156.0500 C   0  0  0  0  0  3  0  0  0  0  0  0
  156.1650  213.1260  157.2400 C   0  0  0  0  0  3  0  0  0  0  0  0
  156.2490  213.2750  154.8260 C   0  0  0  0  0  3  0  0  0  0  0  0
  161.8880  204.3320  151.3750 N   0  0  0  0  0  2  0  0  0  0  0  0
  161.1960  203.0830  147.9130 C   0  0  0  0  0  3  0  0  0  0  0  0
  160.6770  201.8160  148.1950 C   0  0  0  0  0  0  0  0  0  0  0  0
  160.9510  202.2310  150.5650 C   0  0  0  0  0  3  0  0  0  0  0  0
  161.5990  203.9200  148.9570 C   0  0  0  0  0  3  0  0  0  0  0  0
  161.4770  203.4970  150.2890 C   0  0  0  0  0  0  0  0  0  0  0  0
  160.5480  201.3930  149.5210 C   0  0  0  0  0  3  0  0  0  0  0  0
  161.2290  200.0180  146.7720 O   0  0  0  0  0  1  0  0  0  0  0  0
  160.2250  200.9340  147.0850 C   0  0  0  0  0  2  0  0  0  0  0  0
  1  5  1  0  0  0  0
  2 11  1  0  0  0  0
  2 13  1  0  0  0  0
  3 14  1  6  0  0  0
  3 16  1  0  0  0  0
  4  7  1  0  0  0  0
  5  9  2  0  0  0  0
  6  1  1  0  0  0  0
  7  9  1  0  0  0  0
  7 11  2  0  0  0  0
  8  1  2  0  0  0  0
  8  4  1  0  0  0  0
 10  3  1  0  0  0  0
 11 10  1  0  0  0  0
 12  2  2  0  0  0  0
 13 35  1  6  0  0  0
 13 14  1  0  0  0  0
 15  4  2  0  0  0  0
 15 12  1  0  0  0  0
 16 17  1  6  0  0  0
 16 18  1  0  0  0  0
 17 19  1  0  0  0  0
 18 20  1  0  0  0  0
 19 20  1  0  0  0  0
 19 21  1  0  0  0  0
 22 21  1  1  0  0  0
 22 24  1  0  0  0  0
 23 27  1  0  0  0  0
 25 26  1  6  0  0  0
 25 23  1  0  0  0  0
 25 28  1  0  0  0  0
 25 22  1  0  0  0  0
 27 24  1  0  0  0  0
 29 28  1  0  0  0  0
 29 33  1  0  0  0  0
 30 32  2  0  0  0  0
 32 31  1  0  0  0  0
 33 31  2  0  0  0  0
 34 30  1  0  0  0  0
 34 29  2  0  0  0  0
 36 37  2  0  0  0  0
 36 39  1  0  0  0  0
 37 41  1  0  0  0  0
 39 40  2  0  0  0  0
 40 38  1  0  0  0  0
 40 35  1  0  0  0  0
 41 38  2  0  0  0  0
 42 43  1  0  0  0  0
 43 37  1  0  0  0  0
M  END
>  <MODEL>
4

>  <REMARK>
 VINA RESULT:      -7.0      3.570      9.527
  Name = 
  8 active torsions:
  status: ('A' for Active; 'I' for Inactive)
    1  A    between atoms: N_1  and  C_34
    2  A    between atoms: N_1  and  C_35
    3  A    between atoms: C_2  and  C_13
    4  A    between atoms: C_3  and  C_4
    5  A    between atoms: C_3  and  N_12
    6  A    between atoms: C_11  and  O_14
    7  A    between atoms: O_14  and  C_22
    8  A    between atoms: C_19  and  C_37
                            x       y       z     vdW  Elec       q    Type
                         _______ _______ _______ _____ _____    ______ ____

>  <TORSDO>
F 8

$$$$
=
 OpenBabel11062410083D

 43 49  0  0  1  0  0  0  0  0999 V2000
  162.1940  211.9980  148.1830 C   0  0  0  0  0  0  0  0  0  0  0  0
  161.5870  207.8000  150.9000 C   0  0  0  0  0  0  0  0  0  0  0  0
  160.8180  208.5920  153.5790 C   0  0  1  0  0  3  0  0  0  0  0  0
  162.0100  209.6950  148.9050 C   0  0  0  0  0  0  0  0  0  0  0  0
  161.9210  212.4290  149.4850 C   0  0  0  0  0  3  0  0  0  0  0  0
  162.4200  212.9260  147.1780 O   0  0  0  0  0  1  0  0  0  0  0  0
  161.7370  210.1240  150.2220 C   0  0  0  0  0  0  0  0  0  0  0  0
  162.2370  210.6300  147.8930 C   0  0  0  0  0  3  0  0  0  0  0  0
  161.6930  211.4970  150.5020 C   0  0  0  0  0  3  0  0  0  0  0  0
  161.2280  209.5670  152.5710 N   0  0  0  0  0  2  0  0  0  0  0  0
  161.5070  209.1700  151.2240 C   0  0  0  0  0  0  0  0  0  0  0  0
  161.8330  207.4230  149.6130 N   0  0  0  0  0  0  0  0  0  0  0  0
  161.3150  206.7530  151.9530 C   0  0  2  0  0  3  0  0  0  0  0  0
  161.5880  207.2900  153.3610 C   0  0  0  0  0  2  0  0  0  0  0  0
  162.0470  208.3300  148.6240 C   0  0  0  0  0  3  0  0  0  0  0  0
  161.0620  209.1440  154.9840 C   0  0  1  0  0  3  0  0  0  0  0  0
  160.4710  210.5350  155.1190 C   0  0  0  0  0  2  0  0  0  0  0  0
  160.3170  208.3130  156.0090 C   0  0  0  0  0  2  0  0  0  0  0  0
  159.1700  210.4030  155.7540 N   0  0  0  0  0  0  0  0  0  0  0  0
  159.2830  209.2390  156.6170 C   0  0  0  0  0  2  0  0  0  0  0  0
  158.9990  211.5620  156.6140 C   0  0  0  0  0  2  0  0  0  0  0  0
  157.5350  211.9940  156.6240 C   0  0  2  0  0  3  0  0  0  0  0  0
  155.9440  212.9650  155.2600 O   0  0  0  0  0  0  0  0  0  0  0  0
  156.7160  210.9710  156.1710 O   0  0  0  0  0  0  0  0  0  0  0  0
  157.2400  213.1720  155.7330 C   0  0  1  0  0  0  0  0  0  0  0  0
  157.3010  214.4490  156.5570 C   0  0  0  0  0  1  0  0  0  0  0  0
  155.6110  211.6450  155.6270 C   0  0  0  0  0  2  0  0  0  0  0  0
  158.1570  213.2330  154.6320 O   0  0  0  0  0  0  0  0  0  0  0  0
  157.7960  213.4620  153.2960 C   0  0  0  0  0  0  0  0  0  0  0  0
  156.3590  214.4530  151.6030 C   0  0  0  0  0  3  0  0  0  0  0  0
  158.2450  213.0890  150.9390 C   0  0  0  0  0  3  0  0  0  0  0  0
  157.1390  213.8730  150.6000 C   0  0  0  0  0  3  0  0  0  0  0  0
  158.5710  212.8850  152.2840 C   0  0  0  0  0  3  0  0  0  0  0  0
  156.6860  214.2480  152.9470 C   0  0  0  0  0  3  0  0  0  0  0  0
  162.1330  205.5690  151.7150 N   0  0  0  0  0  2  0  0  0  0  0  0
  161.0890  202.0490  150.9790 C   0  0  0  0  0  3  0  0  0  0  0  0
  160.7180  202.1650  149.6360 C   0  0  0  0  0  0  0  0  0  0  0  0
  161.2970  204.5160  149.6800 C   0  0  0  0  0  3  0  0  0  0  0  0
  161.5560  203.1680  151.6730 C   0  0  0  0  0  3  0  0  0  0  0  0
  161.6630  204.4080  151.0250 C   0  0  0  0  0  0  0  0  0  0  0  0
  160.8280  203.3970  148.9850 C   0  0  0  0  0  3  0  0  0  0  0  0
  161.1800  200.6140  147.9210 O   0  0  0  0  0  1  0  0  0  0  0  0
  160.2430  200.9690  148.8900 C   0  0  0  0  0  2  0  0  0  0  0  0
  1  5  1  0  0  0  0
  2 11  1  0  0  0  0
  2 13  1  0  0  0  0
  3 14  1  6  0  0  0
  3 16  1  0  0  0  0
  4  7  1  0  0  0  0
  5  9  2  0  0  0  0
  6  1  1  0  0  0  0
  7  9  1  0  0  0  0
  7 11  2  0  0  0  0
  8  1  2  0  0  0  0
  8  4  1  0  0  0  0
 10  3  1  0  0  0  0
 11 10  1  0  0  0  0
 12  2  2  0  0  0  0
 13 35  1  6  0  0  0
 13 14  1  0  0  0  0
 15  4  2  0  0  0  0
 15 12  1  0  0  0  0
 16 17  1  6  0  0  0
 16 18  1  0  0  0  0
 17 19  1  0  0  0  0
 18 20  1  0  0  0  0
 19 21  1  0  0  0  0
 19 20  1  0  0  0  0
 22 21  1  6  0  0  0
 23 27  1  0  0  0  0
 23 25  1  0  0  0  0
 24 22  1  0  0  0  0
 25 26  1  1  0  0  0
 25 22  1  0  0  0  0
 27 24  1  0  0  0  0
 28 25  1  0  0  0  0
 29 28  1  0  0  0  0
 30 34  2  0  0  0  0
 31 33  1  0  0  0  0
 32 31  2  0  0  0  0
 32 30  1  0  0  0  0
 33 29  2  0  0  0  0
 34 29  1  0  0  0  0
 36 39  1  0  0  0  0
 37 36  2  0  0  0  0
 38 40  1  0  0  0  0
 40 39  2  0  0  0  0
 40 35  1  0  0  0  0
 41 37  1  0  0  0  0
 41 38  2  0  0  0  0
 42 43  1  0  0  0  0
 43 37  1  0  0  0  0
M  END
>  <MODEL>
5

>  <REMARK>
 VINA RESULT:      -6.9      3.274      8.402
  Name = 
  8 active torsions:
  status: ('A' for Active; 'I' for Inactive)
    1  A    between atoms: N_1  and  C_34
    2  A    between atoms: N_1  and  C_35
    3  A    between atoms: C_2  and  C_13
    4  A    between atoms: C_3  and  C_4
    5  A    between atoms: C_3  and  N_12
    6  A    between atoms: C_11  and  O_14
    7  A    between atoms: O_14  and  C_22
    8  A    between atoms: C_19  and  C_37
                            x       y       z     vdW  Elec       q    Type
                         _______ _______ _______ _____ _____    ______ ____

>  <TORSDO>
F 8

$$$$
=
 OpenBabel11062410083D

 43 49  0  0  1  0  0  0  0  0999 V2000
  157.2630  213.5900  153.7980 C   0  0  0  0  0  0  0  0  0  0  0  0
  160.8620  210.6720  151.8230 C   0  0  0  0  0  0  0  0  0  0  0  0
  162.0220  212.1020  149.5850 C   0  0  1  0  0  3  0  0  0  0  0  0
  158.8440  211.8090  153.3670 C   0  0  0  0  0  0  0  0  0  0  0  0
  157.7230  214.2740  152.6690 C   0  0  0  0  0  3  0  0  0  0  0  0
  156.2490  214.1330  154.5730 O   0  0  0  0  0  1  0  0  0  0  0  0
  159.3120  212.4940  152.2250 C   0  0  0  0  0  0  0  0  0  0  0  0
  157.8240  212.3580  154.1470 C   0  0  0  0  0  3  0  0  0  0  0  0
  158.7440  213.7300  151.8840 C   0  0  0  0  0  3  0  0  0  0  0  0
  160.8400  212.5940  150.2900 N   0  0  0  0  0  2  0  0  0  0  0  0
  160.3400  211.9290  151.4560 C   0  0  0  0  0  0  0  0  0  0  0  0
  160.4000  210.0490  152.9440 N   0  0  0  0  0  0  0  0  0  0  0  0
  161.9890  210.0560  151.0290 C   0  0  2  0  0  3  0  0  0  0  0  0
  162.0080  210.5740  149.5880 C   0  0  0  0  0  2  0  0  0  0  0  0
  159.4120  210.5830  153.7100 C   0  0  0  0  0  3  0  0  0  0  0  0
  162.0560  212.6470  148.1570 C   0  0  1  0  0  3  0  0  0  0  0  0
  161.2470  211.7600  147.2300 C   0  0  0  0  0  2  0  0  0  0  0  0
  161.3640  213.9940  148.0940 C   0  0  0  0  0  2  0  0  0  0  0  0
  159.9330  212.3620  147.0770 N   0  0  0  0  0  0  0  0  0  0  0  0
  160.1520  213.7930  147.2090 C   0  0  0  0  0  2  0  0  0  0  0  0
  159.5110  212.1160  145.7080 C   0  0  0  0  0  2  0  0  0  0  0  0
  159.5280  213.4190  144.9130 C   0  0  2  0  0  3  0  0  0  0  0  0
  159.8960  214.2070  142.7730 O   0  0  0  0  0  0  0  0  0  0  0  0
  158.2820  213.6730  144.3570 O   0  0  0  0  0  0  0  0  0  0  0  0
  160.4920  213.4160  143.7560 C   0  0  1  0  0  0  0  0  0  0  0  0
  161.8090  214.0330  144.2020 C   0  0  0  0  0  1  0  0  0  0  0  0
  158.5770  214.4310  143.2130 C   0  0  0  0  0  2  0  0  0  0  0  0
  160.6970  212.0880  143.2530 O   0  0  0  0  0  0  0  0  0  0  0  0
  161.0010  211.7680  141.9220 C   0  0  0  0  0  0  0  0  0  0  0  0
  160.3510  211.1010  139.6760 C   0  0  0  0  0  3  0  0  0  0  0  0
  162.6820  211.4960  140.1920 C   0  0  0  0  0  3  0  0  0  0  0  0
  161.6880  211.1430  139.2750 C   0  0  0  0  0  3  0  0  0  0  0  0
  162.3380  211.8080  141.5110 C   0  0  0  0  0  3  0  0  0  0  0  0
  160.0080  211.4120  140.9960 C   0  0  0  0  0  3  0  0  0  0  0  0
  161.8710  208.6020  151.0240 N   0  0  0  0  0  2  0  0  0  0  0  0
  162.3050  207.2470  147.5600 C   0  0  0  0  0  3  0  0  0  0  0  0
  161.3050  206.2700  147.5370 C   0  0  0  0  0  0  0  0  0  0  0  0
  160.6850  206.8540  149.8050 C   0  0  0  0  0  3  0  0  0  0  0  0
  162.4990  208.0210  148.7070 C   0  0  0  0  0  3  0  0  0  0  0  0
  161.6880  207.8270  149.8360 C   0  0  0  0  0  0  0  0  0  0  0  0
  160.4900  206.0790  148.6570 C   0  0  0  0  0  3  0  0  0  0  0  0
  160.5830  206.2770  145.2920 O   0  0  0  0  0  1  0  0  0  0  0  0
  161.0820  205.4630  146.3080 C   0  0  0  0  0  2  0  0  0  0  0  0
  1  8  1  0  0  0  0
  1  6  1  0  0  0  0
  2 12  1  0  0  0  0
  3 14  1  6  0  0  0
  3 10  1  0  0  0  0
  4 15  1  0  0  0  0
  4  8  2  0  0  0  0
  5  1  2  0  0  0  0
  7  4  1  0  0  0  0
  9  7  2  0  0  0  0
  9  5  1  0  0  0  0
 10 11  1  0  0  0  0
 11  2  2  0  0  0  0
 11  7  1  0  0  0  0
 12 15  2  0  0  0  0
 13 35  1  6  0  0  0
 13  2  1  0  0  0  0
 14 13  1  0  0  0  0
 16 17  1  6  0  0  0
 16  3  1  0  0  0  0
 18 16  1  0  0  0  0
 19 20  1  0  0  0  0
 19 17  1  0  0  0  0
 20 18  1  0  0  0  0
 21 19  1  0  0  0  0
 22 21  1  6  0  0  0
 23 27  1  0  0  0  0
 23 25  1  0  0  0  0
 24 22  1  0  0  0  0
 25 26  1  1  0  0  0
 25 22  1  0  0  0  0
 27 24  1  0  0  0  0
 28 25  1  0  0  0  0
 29 28  1  0  0  0  0
 30 34  1  0  0  0  0
 31 33  2  0  0  0  0
 32 30  2  0  0  0  0
 32 31  1  0  0  0  0
 33 29  1  0  0  0  0
 34 29  2  0  0  0  0
 36 39  1  0  0  0  0
 37 36  2  0  0  0  0
 37 41  1  0  0  0  0
 38 40  1  0  0  0  0
 39 40  2  0  0  0  0
 40 35  1  0  0  0  0
 41 38  2  0  0  0  0
 42 43  1  0  0  0  0
 43 37  1  0  0  0  0
M  END
>  <MODEL>
6

>  <REMARK>
 VINA RESULT:      -6.8      2.353      6.474
  Name = 
  8 active torsions:
  status: ('A' for Active; 'I' for Inactive)
    1  A    between atoms: N_1  and  C_34
    2  A    between atoms: N_1  and  C_35
    3  A    between atoms: C_2  and  C_13
    4  A    between atoms: C_3  and  C_4
    5  A    between atoms: C_3  and  N_12
    6  A    between atoms: C_11  and  O_14
    7  A    between atoms: O_14  and  C_22
    8  A    between atoms: C_19  and  C_37
                            x       y       z     vdW  Elec       q    Type
                         _______ _______ _______ _____ _____    ______ ____

>  <TORSDO>
F 8

$$$$
=
 OpenBabel11062410083D

 43 49  0  0  1  0  0  0  0  0999 V2000
  161.2000  202.4110  146.7250 C   0  0  0  0  0  0  0  0  0  0  0  0
  160.9390  205.8160  150.4270 C   0  0  0  0  0  0  0  0  0  0  0  0
  161.3370  208.4310  149.2440 C   0  0  1  0  0  3  0  0  0  0  0  0
  160.9150  203.5160  148.8590 C   0  0  0  0  0  0  0  0  0  0  0  0
  161.4940  203.6400  146.1260 C   0  0  0  0  0  3  0  0  0  0  0  0
  161.1960  201.2520  145.9640 O   0  0  0  0  0  1  0  0  0  0  0  0
  161.2130  204.7600  148.2610 C   0  0  0  0  0  0  0  0  0  0  0  0
  160.9090  202.3500  148.0920 C   0  0  0  0  0  3  0  0  0  0  0  0
  161.5010  204.8110  146.8900 C   0  0  0  0  0  3  0  0  0  0  0  0
  161.5070  207.2000  148.4760 N   0  0  0  0  0  2  0  0  0  0  0  0
  161.2080  205.9210  149.0470 C   0  0  0  0  0  0  0  0  0  0  0  0
  160.6350  204.6020  150.9660 N   0  0  0  0  0  0  0  0  0  0  0  0
  160.8990  207.0550  151.2900 C   0  0  2  0  0  3  0  0  0  0  0  0
  161.7490  208.1810  150.6940 C   0  0  0  0  0  2  0  0  0  0  0  0
  160.6220  203.4650  150.2220 C   0  0  0  0  0  3  0  0  0  0  0  0
  162.1610  209.5620  148.6270 C   0  0  1  0  0  3  0  0  0  0  0  0
  161.2550  210.5660  147.9400 C   0  0  0  0  0  2  0  0  0  0  0  0
  162.8550  210.3570  149.7140 C   0  0  0  0  0  2  0  0  0  0  0  0
  161.0400  211.6700  148.8610 N   0  0  0  0  0  0  0  0  0  0  0  0
  162.2550  211.7460  149.6550 C   0  0  0  0  0  2  0  0  0  0  0  0
  160.9710  212.8820  148.0620 C   0  0  0  0  0  2  0  0  0  0  0  0
  161.4580  212.6020  146.6430 C   0  0  2  0  0  3  0  0  0  0  0  0
  161.4460  213.5320  144.5290 O   0  0  0  0  0  0  0  0  0  0  0  0
  162.7160  213.1500  146.4370 O   0  0  0  0  0  0  0  0  0  0  0  0
  160.5810  213.1900  145.5690 C   0  0  1  0  0  0  0  0  0  0  0  0
  159.5870  212.1380  145.1040 C   0  0  0  0  0  1  0  0  0  0  0  0
  162.7460  213.4030  145.0570 C   0  0  0  0  0  2  0  0  0  0  0  0
  159.8990  214.3620  146.0390 O   0  0  0  0  0  0  0  0  0  0  0  0
  158.5730  214.3920  146.4970 C   0  0  0  0  0  0  0  0  0  0  0  0
  156.1730  214.4480  146.1120 C   0  0  0  0  0  3  0  0  0  0  0  0
  157.0340  214.4280  148.3740 C   0  0  0  0  0  3  0  0  0  0  0  0
  155.9510  214.4530  147.4910 C   0  0  0  0  0  3  0  0  0  0  0  0
  158.3410  214.3980  147.8770 C   0  0  0  0  0  3  0  0  0  0  0  0
  157.4800  214.4180  145.6160 C   0  0  0  0  0  3  0  0  0  0  0  0
  161.3680  206.7500  152.6370 N   0  0  0  0  0  2  0  0  0  0  0  0
  160.1140  207.6600  156.0460 C   0  0  0  0  0  3  0  0  0  0  0  0
  160.3300  209.0420  156.0400 C   0  0  0  0  0  0  0  0  0  0  0  0
  161.2120  208.8940  153.7900 C   0  0  0  0  0  3  0  0  0  0  0  0
  160.4550  206.8960  154.9270 C   0  0  0  0  0  3  0  0  0  0  0  0
  161.0060  207.5110  153.7920 C   0  0  0  0  0  0  0  0  0  0  0  0
  160.8720  209.6590  154.9090 C   0  0  0  0  0  3  0  0  0  0  0  0
  159.7030  211.1750  156.8280 O   0  0  0  0  0  1  0  0  0  0  0  0
  159.9450  209.8590  157.2220 C   0  0  0  0  0  2  0  0  0  0  0  0
  1  8  1  0  0  0  0
  2 12  1  0  0  0  0
  2 13  1  0  0  0  0
  3 14  1  1  0  0  0
  4 15  1  0  0  0  0
  5  1  2  0  0  0  0
  5  9  1  0  0  0  0
  6  1  1  0  0  0  0
  7  4  1  0  0  0  0
  7 11  1  0  0  0  0
  8  4  2  0  0  0  0
  9  7  2  0  0  0  0
 10 11  1  0  0  0  0
 10  3  1  0  0  0  0
 11  2  2  0  0  0  0
 13 35  1  1  0  0  0
 14 13  1  0  0  0  0
 15 12  2  0  0  0  0
 16 17  1  1  0  0  0
 16  3  1  0  0  0  0
 16 18  1  0  0  0  0
 17 19  1  0  0  0  0
 19 20  1  0  0  0  0
 20 18  1  0  0  0  0
 21 19  1  0  0  0  0
 22 21  1  1  0  0  0
 23 27  1  0  0  0  0
 23 25  1  0  0  0  0
 24 22  1  0  0  0  0
 25 26  1  6  0  0  0
 25 28  1  0  0  0  0
 25 22  1  0  0  0  0
 27 24  1  0  0  0  0
 28 29  1  0  0  0  0
 29 33  1  0  0  0  0
 30 32  2  0  0  0  0
 32 31  1  0  0  0  0
 33 31  2  0  0  0  0
 34 30  1  0  0  0  0
 34 29  2  0  0  0  0
 35 40  1  0  0  0  0
 37 36  1  0  0  0  0
 37 43  1  0  0  0  0
 38 40  2  0  0  0  0
 38 41  1  0  0  0  0
 39 36  2  0  0  0  0
 40 39  1  0  0  0  0
 41 37  2  0  0  0  0
 42 43  1  0  0  0  0
M  END
>  <MODEL>
7

>  <REMARK>
 VINA RESULT:      -6.8      1.593      3.165
  Name = 
  8 active torsions:
  status: ('A' for Active; 'I' for Inactive)
    1  A    between atoms: N_1  and  C_34
    2  A    between atoms: N_1  and  C_35
    3  A    between atoms: C_2  and  C_13
    4  A    between atoms: C_3  and  C_4
    5  A    between atoms: C_3  and  N_12
    6  A    between atoms: C_11  and  O_14
    7  A    between atoms: O_14  and  C_22
    8  A    between atoms: C_19  and  C_37
                            x       y       z     vdW  Elec       q    Type
                         _______ _______ _______ _____ _____    ______ ____

>  <TORSDO>
F 8

$$$$
=
 OpenBabel11062410083D

 43 49  0  0  1  0  0  0  0  0999 V2000
  160.7790  208.4460  155.8800 C   0  0  0  0  0  0  0  0  0  0  0  0
  161.0830  210.4420  151.2660 C   0  0  0  0  0  0  0  0  0  0  0  0
  161.4740  208.2670  149.3920 C   0  0  1  0  0  3  0  0  0  0  0  0
  160.7800  209.9580  153.9900 C   0  0  0  0  0  0  0  0  0  0  0  0
  161.0640  207.3760  155.0260 C   0  0  0  0  0  3  0  0  0  0  0  0
  160.6380  208.2270  157.2420 O   0  0  0  0  0  1  0  0  0  0  0  0
  161.0700  208.8820  153.1230 C   0  0  0  0  0  0  0  0  0  0  0  0
  160.6360  209.7370  155.3610 C   0  0  0  0  0  3  0  0  0  0  0  0
  161.2090  207.5920  153.6520 C   0  0  0  0  0  3  0  0  0  0  0  0
  161.5010  208.0580  150.8370 N   0  0  0  0  0  2  0  0  0  0  0  0
  161.2060  209.1240  151.7480 C   0  0  0  0  0  0  0  0  0  0  0  0
  160.7830  211.4530  152.1300 N   0  0  0  0  0  0  0  0  0  0  0  0
  161.1960  210.7240  149.7870 C   0  0  2  0  0  3  0  0  0  0  0  0
  162.0290  209.6550  149.0740 C   0  0  0  0  0  2  0  0  0  0  0  0
  160.6350  211.2410  153.4640 C   0  0  0  0  0  3  0  0  0  0  0  0
  162.2790  207.1780  148.6810 C   0  0  1  0  0  3  0  0  0  0  0  0
  161.9650  205.8160  149.2690 C   0  0  0  0  0  2  0  0  0  0  0  0
  161.8520  207.0750  147.2310 C   0  0  0  0  0  2  0  0  0  0  0  0
  160.9760  205.1820  148.4130 N   0  0  0  0  0  0  0  0  0  0  0  0
  161.2390  205.6980  147.0790 C   0  0  0  0  0  2  0  0  0  0  0  0
  161.2810  203.7610  148.3920 C   0  0  0  0  0  2  0  0  0  0  0  0
  160.7780  203.0990  149.6720 C   0  0  2  0  0  3  0  0  0  0  0  0
  160.9160  201.1060  150.8320 O   0  0  0  0  0  0  0  0  0  0  0  0
  161.6700  203.3020  150.7150 O   0  0  0  0  0  0  0  0  0  0  0  0
  160.6160  201.6050  149.5640 C   0  0  1  0  0  0  0  0  0  0  0  0
  159.1760  201.2840  149.1990 C   0  0  0  0  0  1  0  0  0  0  0  0
  161.4670  202.1890  151.5460 C   0  0  0  0  0  2  0  0  0  0  0  0
  161.5210  201.0530  148.5970 O   0  0  0  0  0  0  0  0  0  0  0  0
  161.1680  200.6550  147.2990 C   0  0  0  0  0  0  0  0  0  0  0  0
  160.1210  201.0610  145.1430 C   0  0  0  0  0  3  0  0  0  0  0  0
  161.2090  198.9440  145.5780 C   0  0  0  0  0  3  0  0  0  0  0  0
  160.4990  199.7850  144.7180 C   0  0  0  0  0  3  0  0  0  0  0  0
  161.5420  199.3780  146.8650 C   0  0  0  0  0  3  0  0  0  0  0  0
  160.4540  201.4950  146.4300 C   0  0  0  0  0  3  0  0  0  0  0  0
  161.7940  212.0360  149.5640 N   0  0  0  0  0  2  0  0  0  0  0  0
  163.0440  214.0980  146.6990 C   0  0  0  0  0  3  0  0  0  0  0  0
  162.0740  213.8140  145.7340 C   0  0  0  0  0  0  0  0  0  0  0  0
  160.9280  212.3750  147.3090 C   0  0  0  0  0  3  0  0  0  0  0  0
  162.9600  213.5150  147.9670 C   0  0  0  0  0  3  0  0  0  0  0  0
  161.8990  212.6500  148.2770 C   0  0  0  0  0  0  0  0  0  0  0  0
  161.0120  212.9580  146.0410 C   0  0  0  0  0  3  0  0  0  0  0  0
  163.4130  214.2440  143.8410 O   0  0  0  0  0  1  0  0  0  0  0  0
  162.1500  214.4530  144.3930 C   0  0  0  0  0  2  0  0  0  0  0  0
  1  6  1  0  0  0  0
  2 11  2  0  0  0  0
  2 12  1  0  0  0  0
  3 14  1  1  0  0  0
  3 10  1  0  0  0  0
  4  8  2  0  0  0  0
  5  1  2  0  0  0  0
  7  9  2  0  0  0  0
  7  4  1  0  0  0  0
  8  1  1  0  0  0  0
  9  5  1  0  0  0  0
 10 11  1  0  0  0  0
 11  7  1  0  0  0  0
 12 15  2  0  0  0  0
 13 35  1  1  0  0  0
 13  2  1  0  0  0  0
 14 13  1  0  0  0  0
 15  4  1  0  0  0  0
 16 18  1  6  0  0  0
 16 17  1  0  0  0  0
 16  3  1  0  0  0  0
 19 17  1  0  0  0  0
 20 18  1  0  0  0  0
 20 19  1  0  0  0  0
 21 19  1  0  0  0  0
 22 21  1  6  0  0  0
 22 24  1  0  0  0  0
 23 27  1  0  0  0  0
 24 27  1  0  0  0  0
 25 26  1  6  0  0  0
 25 22  1  0  0  0  0
 25 23  1  0  0  0  0
 28 25  1  0  0  0  0
 29 28  1  0  0  0  0
 30 34  1  0  0  0  0
 31 33  2  0  0  0  0
 32 30  2  0  0  0  0
 32 31  1  0  0  0  0
 33 29  1  0  0  0  0
 34 29  2  0  0  0  0
 36 39  1  0  0  0  0
 37 41  1  0  0  0  0
 37 36  2  0  0  0  0
 38 40  1  0  0  0  0
 39 40  2  0  0  0  0
 40 35  1  0  0  0  0
 41 38  2  0  0  0  0
 42 43  1  0  0  0  0
 43 37  1  0  0  0  0
M  END
>  <MODEL>
8

>  <REMARK>
 VINA RESULT:      -6.3      2.518      9.637
  Name = 
  8 active torsions:
  status: ('A' for Active; 'I' for Inactive)
    1  A    between atoms: N_1  and  C_34
    2  A    between atoms: N_1  and  C_35
    3  A    between atoms: C_2  and  C_13
    4  A    between atoms: C_3  and  C_4
    5  A    between atoms: C_3  and  N_12
    6  A    between atoms: C_11  and  O_14
    7  A    between atoms: O_14  and  C_22
    8  A    between atoms: C_19  and  C_37
                            x       y       z     vdW  Elec       q    Type
                         _______ _______ _______ _____ _____    ______ ____

>  <TORSDO>
F 8

$$$$
=
 OpenBabel11062410083D

 43 49  0  0  1  0  0  0  0  0999 V2000
  160.8420  202.8230  146.1320 C   0  0  0  0  0  0  0  0  0  0  0  0
  161.6520  207.3050  148.2810 C   0  0  0  0  0  0  0  0  0  0  0  0
  162.7030  206.8280  150.9390 C   0  0  1  0  0  3  0  0  0  0  0  0
  161.0600  205.1940  146.5670 C   0  0  0  0  0  0  0  0  0  0  0  0
  161.2530  202.5440  147.4390 C   0  0  0  0  0  3  0  0  0  0  0  0
  160.5300  201.7850  145.2660 O   0  0  0  0  0  1  0  0  0  0  0  0
  161.4730  204.9190  147.8880 C   0  0  0  0  0  0  0  0  0  0  0  0
  160.7470  204.1480  145.6950 C   0  0  0  0  0  3  0  0  0  0  0  0
  161.5680  203.5870  148.3150 C   0  0  0  0  0  3  0  0  0  0  0  0
  162.2090  205.7420  150.0950 N   0  0  0  0  0  2  0  0  0  0  0  0
  161.7880  205.9820  148.7470 C   0  0  0  0  0  0  0  0  0  0  0  0
  161.2700  207.5330  146.9920 N   0  0  0  0  0  0  0  0  0  0  0  0
  162.0130  208.4670  149.1760 C   0  0  2  0  0  3  0  0  0  0  0  0
  161.8930  208.0930  150.6560 C   0  0  0  0  0  2  0  0  0  0  0  0
  160.9710  206.5180  146.1390 C   0  0  0  0  0  3  0  0  0  0  0  0
  162.6140  206.4380  152.4150 C   0  0  1  0  0  3  0  0  0  0  0  0
  162.0750  207.5930  153.2380 C   0  0  0  0  0  2  0  0  0  0  0  0
  161.5980  205.3300  152.6030 C   0  0  0  0  0  2  0  0  0  0  0  0
  160.6520  207.3700  153.4330 N   0  0  0  0  0  0  0  0  0  0  0  0
  160.4900  205.9250  153.4470 C   0  0  0  0  0  2  0  0  0  0  0  0
  160.3260  207.8530  154.7650 C   0  0  0  0  0  2  0  0  0  0  0  0
  161.2430  209.0140  155.1390 C   0  0  2  0  0  3  0  0  0  0  0  0
  161.2070  211.0360  156.2550 O   0  0  0  0  0  0  0  0  0  0  0  0
  161.8270  208.8000  156.3800 O   0  0  0  0  0  0  0  0  0  0  0  0
  160.5350  210.3390  155.2510 C   0  0  1  0  0  0  0  0  0  0  0  0
  160.6520  211.0800  153.9280 C   0  0  0  0  0  1  0  0  0  0  0  0
  162.0620  210.0960  156.8640 C   0  0  0  0  0  2  0  0  0  0  0  0
  159.1590  210.1650  155.6160 O   0  0  0  0  0  0  0  0  0  0  0  0
  158.1870  211.1750  155.5970 C   0  0  0  0  0  0  0  0  0  0  0  0
  157.2130  213.2290  156.4590 C   0  0  0  0  0  3  0  0  0  0  0  0
  156.1840  212.0990  154.5830 C   0  0  0  0  0  3  0  0  0  0  0  0
  156.2050  213.1580  155.4950 C   0  0  0  0  0  3  0  0  0  0  0  0
  157.1720  211.1120  154.6350 C   0  0  0  0  0  3  0  0  0  0  0  0
  158.2010  212.2410  156.5110 C   0  0  0  0  0  3  0  0  0  0  0  0
  161.1550  209.6120  148.8920 N   0  0  0  0  0  2  0  0  0  0  0  0
  163.2870  212.5460  147.9600 C   0  0  0  0  0  3  0  0  0  0  0  0
  162.4870  213.1470  146.9840 C   0  0  0  0  0  0  0  0  0  0  0  0
  160.8170  211.4190  147.2890 C   0  0  0  0  0  3  0  0  0  0  0  0
  162.8550  211.3780  148.5940 C   0  0  0  0  0  3  0  0  0  0  0  0
  161.6160  210.8100  148.2610 C   0  0  0  0  0  0  0  0  0  0  0  0
  161.2490  212.5880  146.6540 C   0  0  0  0  0  3  0  0  0  0  0  0
  162.5370  214.4040  144.9890 O   0  0  0  0  0  1  0  0  0  0  0  0
  162.9350  214.4030  146.3250 C   0  0  0  0  0  2  0  0  0  0  0  0
  1  5  1  0  0  0  0
  2 11  1  0  0  0  0
  2 13  1  0  0  0  0
  3 14  1  1  0  0  0
  3 16  1  0  0  0  0
  4  7  1  0  0  0  0
  5  9  2  0  0  0  0
  6  1  1  0  0  0  0
  7  9  1  0  0  0  0
  7 11  2  0  0  0  0
  8  1  2  0  0  0  0
  8  4  1  0  0  0  0
 10  3  1  0  0  0  0
 11 10  1  0  0  0  0
 12  2  2  0  0  0  0
 13 35  1  6  0  0  0
 13 14  1  0  0  0  0
 15  4  2  0  0  0  0
 15 12  1  0  0  0  0
 16 18  1  6  0  0  0
 16 17  1  0  0  0  0
 17 19  1  0  0  0  0
 18 20  1  0  0  0  0
 19 20  1  0  0  0  0
 19 21  1  0  0  0  0
 22 21  1  1  0  0  0
 22 25  1  0  0  0  0
 22 24  1  0  0  0  0
 23 27  1  0  0  0  0
 24 27  1  0  0  0  0
 25 26  1  6  0  0  0
 25 28  1  0  0  0  0
 25 23  1  0  0  0  0
 29 28  1  0  0  0  0
 29 34  1  0  0  0  0
 30 34  2  0  0  0  0
 31 33  1  0  0  0  0
 31 32  2  0  0  0  0
 32 30  1  0  0  0  0
 33 29  2  0  0  0  0
 36 39  1  0  0  0  0
 37 36  2  0  0  0  0
 38 40  1  0  0  0  0
 40 39  2  0  0  0  0
 40 35  1  0  0  0  0
 41 37  1  0  0  0  0
 41 38  2  0  0  0  0
 42 43  1  0  0  0  0
 43 37  1  0  0  0  0
M  END
>  <MODEL>
9

>  <REMARK>
 VINA RESULT:      -5.9      2.535      8.592
  Name = 
  8 active torsions:
  status: ('A' for Active; 'I' for Inactive)
    1  A    between atoms: N_1  and  C_34
    2  A    between atoms: N_1  and  C_35
    3  A    between atoms: C_2  and  C_13
    4  A    between atoms: C_3  and  C_4
    5  A    between atoms: C_3  and  N_12
    6  A    between atoms: C_11  and  O_14
    7  A    between atoms: O_14  and  C_22
    8  A    between atoms: C_19  and  C_37
                            x       y       z     vdW  Elec       q    Type
                         _______ _______ _______ _____ _____    ______ ____

>  <TORSDO>
F 8

$$$$
