=
 OpenBabel11062408343D

 32 34  0  0  1  0  0  0  0  0999 V2000
  161.9590  208.8450  151.2310 C   0  0  0  0  0  2  0  0  0  0  0  0
  161.1150  208.9300  152.5040 C   0  0  2  0  0  3  0  0  0  0  0  0
  160.8130  210.3660  152.9430 C   0  0  2  0  0  3  0  0  0  0  0  0
  161.5760  210.7450  154.2310 C   0  0  0  0  0  2  0  0  0  0  0  0
  156.7440  211.3720  154.8300 C   0  0  0  0  0  2  0  0  0  0  0  0
  159.3040  210.6940  152.9430 C   0  0  0  0  0  2  0  0  0  0  0  0
  158.5560  211.3090  156.5440 C   0  0  0  0  0  2  0  0  0  0  0  0
  159.4570  211.3540  155.3400 C   0  0  0  0  0  0  0  0  0  0  0  0
  160.6800  210.8230  155.4400 C   0  0  0  0  0  3  0  0  0  0  0  0
  158.9700  211.7800  153.9630 C   0  0  2  0  0  3  0  0  0  0  0  0
  157.1320  211.7630  156.2440 C   0  0  0  0  0  2  0  0  0  0  0  0
  157.5500  212.1490  153.8950 N   0  0  0  0  0  2  0  0  0  0  0  0
  161.7150  208.2110  153.5440 O   0  0  0  0  0  0  0  0  0  0  0  0
  160.7920  207.2210  153.8840 C   0  0  1  0  0  3  0  0  0  0  0  0
  161.2570  205.8880  153.3220 C   0  0  0  0  0  1  0  0  0  0  0  0
  159.5250  207.4090  155.9810 C   0  0  0  0  0  2  0  0  0  0  0  0
  160.6750  207.1370  155.3710 C   0  0  0  0  0  3  0  0  0  0  0  0
  161.2260  208.2610  150.1830 O   0  0  0  0  0  0  0  0  0  0  0  0
  162.0490  207.3290  149.5180 C   0  0  1  0  0  3  0  0  0  0  0  0
  162.8050  206.5650  150.4180 O   0  0  0  0  0  1  0  0  0  0  0  0
  161.2950  206.4740  148.5260 C   0  0  0  0  0  0  0  0  0  0  0  0
  160.0780  206.5530  148.4500 O   0  0  0  0  0  0  0  0  0  0  0  0
  161.0830  204.7150  146.7700 C   0  0  2  0  0  3  0  0  0  0  0  0
  162.0440  205.5690  147.5820 C   0  0  2  0  0  3  0  0  0  0  0  0
  161.9200  204.0590  147.8490 C   0  0  1  0  0  3  0  0  0  0  0  0
  163.0810  204.4610  145.5000 O   0  0  0  0  0  1  0  0  0  0  0  0
  161.2240  205.4570  144.4080 C   0  0  0  0  0  1  0  0  0  0  0  0
  161.6900  204.4210  145.4110 C   0  0  2  0  0  3  0  0  0  0  0  0
  161.0110  203.6630  149.0050 C   0  0  0  0  0  2  0  0  0  0  0  0
  160.7900  202.1910  148.9860 C   0  0  0  0  0  0  0  0  0  0  0  0
  160.6530  201.4940  150.1800 O   0  0  0  0  0  1  0  0  0  0  0  0
  160.6970  201.5810  147.8890 O   0  0  0  0  0  0  0  0  0  0  0  0
  2  1  1  6  0  0  0
  2 13  1  0  0  0  0
  3  2  1  1  0  0  0
  3  4  1  0  0  0  0
  4  9  1  0  0  0  0
  5 11  1  0  0  0  0
  6  3  1  0  0  0  0
  8  9  2  0  0  0  0
  8  7  1  0  0  0  0
 10  6  1  6  0  0  0
 10  8  1  0  0  0  0
 11  7  1  0  0  0  0
 12 10  1  0  0  0  0
 12  5  1  0  0  0  0
 13 14  1  0  0  0  0
 14 15  1  1  0  0  0
 14 17  1  0  0  0  0
 17 16  2  0  0  0  0
 18  1  1  0  0  0  0
 19 18  1  0  0  0  0
 19 20  1  1  0  0  0
 21 19  1  0  0  0  0
 22 21  2  0  0  0  0
 23 28  1  6  0  0  0
 23 24  1  0  0  0  0
 23 25  1  0  0  0  0
 24 25  1  0  0  0  0
 24 21  1  1  0  0  0
 25 29  1  1  0  0  0
 28 27  1  6  0  0  0
 28 26  1  0  0  0  0
 30 29  1  0  0  0  0
 30 31  1  0  0  0  0
 32 30  2  0  0  0  0
M  END
>  <MODEL>
1

>  <REMARK>
 VINA RESULT:      -7.1      0.000      0.000
  Name = 
  12 active torsions:
  status: ('A' for Active; 'I' for Inactive)
    1  A    between atoms: C_1  and  C_5
    2  A    between atoms: C_1  and  O_30
    3  A    between atoms: C_2  and  C_5
    4  A    between atoms: C_3  and  C_8
    5  A    between atoms: C_3  and  C_20
    6  A    between atoms: C_4  and  C_24
    7  A    between atoms: C_4  and  O_30
    8  A    between atoms: C_5  and  O_14
    9  A    between atoms: C_13  and  O_14
   10  A    between atoms: C_13  and  C_29
   11  A    between atoms: C_15  and  C_26
   12  A    between atoms: C_16  and  C_24
                            x       y       z     vdW  Elec       q    Type
                         _______ _______ _______ _____ _____    ______ ____

>  <TORSDO>
F 12

$$$$
=
 OpenBabel11062408343D

 32 34  0  0  1  0  0  0  0  0999 V2000
  161.5110  209.3080  151.4750 C   0  0  0  0  0  2  0  0  0  0  0  0
  160.7930  209.3700  152.8230 C   0  0  2  0  0  3  0  0  0  0  0  0
  160.4380  210.7940  153.2620 C   0  0  2  0  0  3  0  0  0  0  0  0
  161.1040  211.1630  154.6060 C   0  0  0  0  0  2  0  0  0  0  0  0
  156.2330  211.7080  154.8800 C   0  0  0  0  0  2  0  0  0  0  0  0
  158.9280  211.1000  153.1640 C   0  0  0  0  0  2  0  0  0  0  0  0
  157.9240  211.6440  156.7130 C   0  0  0  0  0  2  0  0  0  0  0  0
  158.9050  211.7220  155.5760 C   0  0  0  0  0  0  0  0  0  0  0  0
  160.1270  211.2070  155.7510 C   0  0  0  0  0  3  0  0  0  0  0  0
  158.5070  212.1630  154.1750 C   0  0  2  0  0  3  0  0  0  0  0  0
  156.5170  212.0810  156.3230 C   0  0  0  0  0  2  0  0  0  0  0  0
  157.0900  212.5120  154.0150 N   0  0  0  0  0  2  0  0  0  0  0  0
  161.5400  208.7200  153.8110 O   0  0  0  0  0  0  0  0  0  0  0  0
  160.7170  207.6920  154.2740 C   0  0  1  0  0  3  0  0  0  0  0  0
  161.1720  206.3750  153.6690 C   0  0  0  0  0  1  0  0  0  0  0  0
  159.7790  207.1420  156.4780 C   0  0  0  0  0  2  0  0  0  0  0  0
  160.7930  207.6240  155.7650 C   0  0  0  0  0  3  0  0  0  0  0  0
  160.9990  208.2660  150.6820 O   0  0  0  0  0  0  0  0  0  0  0  0
  162.0610  207.6750  149.9670 C   0  0  1  0  0  3  0  0  0  0  0  0
  162.9580  207.0140  150.8190 O   0  0  0  0  0  1  0  0  0  0  0  0
  161.5940  206.8000  148.8280 C   0  0  0  0  0  0  0  0  0  0  0  0
  161.9750  207.0220  147.6890 O   0  0  0  0  0  0  0  0  0  0  0  0
  161.5290  204.4180  149.5680 C   0  0  2  0  0  3  0  0  0  0  0  0
  160.7100  205.6090  149.0990 C   0  0  2  0  0  3  0  0  0  0  0  0
  160.9140  204.3900  148.1840 C   0  0  1  0  0  3  0  0  0  0  0  0
  161.3080  203.5130  151.7600 O   0  0  0  0  0  1  0  0  0  0  0  0
  160.5710  202.1630  149.9520 C   0  0  0  0  0  1  0  0  0  0  0  0
  160.6950  203.5670  150.5090 C   0  0  2  0  0  3  0  0  0  0  0  0
  162.0240  204.5170  147.1490 C   0  0  0  0  0  2  0  0  0  0  0  0
  161.5800  203.9170  145.8620 C   0  0  0  0  0  0  0  0  0  0  0  0
  161.1620  202.5920  145.8210 O   0  0  0  0  0  1  0  0  0  0  0  0
  161.5520  204.6160  144.8160 O   0  0  0  0  0  0  0  0  0  0  0  0
  2  1  1  6  0  0  0
  2 13  1  0  0  0  0
  3  2  1  1  0  0  0
  3  4  1  0  0  0  0
  4  9  1  0  0  0  0
  5 11  1  0  0  0  0
  6  3  1  0  0  0  0
  8  9  2  0  0  0  0
  8  7  1  0  0  0  0
 10  6  1  6  0  0  0
 10  8  1  0  0  0  0
 11  7  1  0  0  0  0
 12 10  1  0  0  0  0
 12  5  1  0  0  0  0
 13 14  1  0  0  0  0
 14 15  1  6  0  0  0
 14 17  1  0  0  0  0
 17 16  2  0  0  0  0
 18  1  1  0  0  0  0
 19 18  1  0  0  0  0
 19 20  1  1  0  0  0
 21 19  1  0  0  0  0
 22 21  2  0  0  0  0
 23 28  1  1  0  0  0
 24 21  1  6  0  0  0
 24 23  1  0  0  0  0
 25 29  1  6  0  0  0
 25 24  1  0  0  0  0
 25 23  1  0  0  0  0
 28 27  1  6  0  0  0
 28 26  1  0  0  0  0
 30 29  1  0  0  0  0
 31 30  1  0  0  0  0
 32 30  2  0  0  0  0
M  END
>  <MODEL>
2

>  <REMARK>
 VINA RESULT:      -6.7      1.099      2.486
  Name = 
  12 active torsions:
  status: ('A' for Active; 'I' for Inactive)
    1  A    between atoms: C_1  and  C_5
    2  A    between atoms: C_1  and  O_30
    3  A    between atoms: C_2  and  C_5
    4  A    between atoms: C_3  and  C_8
    5  A    between atoms: C_3  and  C_20
    6  A    between atoms: C_4  and  C_24
    7  A    between atoms: C_4  and  O_30
    8  A    between atoms: C_5  and  O_14
    9  A    between atoms: C_13  and  O_14
   10  A    between atoms: C_13  and  C_29
   11  A    between atoms: C_15  and  C_26
   12  A    between atoms: C_16  and  C_24
                            x       y       z     vdW  Elec       q    Type
                         _______ _______ _______ _____ _____    ______ ____

>  <TORSDO>
F 12

$$$$
=
 OpenBabel11062408343D

 32 34  0  0  1  0  0  0  0  0999 V2000
  161.8100  208.9390  151.4730 C   0  0  0  0  0  2  0  0  0  0  0  0
  161.0380  209.1840  152.7700 C   0  0  2  0  0  3  0  0  0  0  0  0
  161.0160  210.6540  153.2010 C   0  0  2  0  0  3  0  0  0  0  0  0
  160.6270  210.8100  154.6870 C   0  0  0  0  0  2  0  0  0  0  0  0
  157.5900  213.3920  151.8210 C   0  0  0  0  0  2  0  0  0  0  0  0
  160.2500  211.5630  152.2150 C   0  0  0  0  0  2  0  0  0  0  0  0
  157.3470  212.7610  154.2230 C   0  0  0  0  0  2  0  0  0  0  0  0
  158.7780  212.3250  154.0740 C   0  0  0  0  0  0  0  0  0  0  0  0
  159.2360  211.3560  154.8740 C   0  0  0  0  0  3  0  0  0  0  0  0
  159.6610  212.7810  152.9220 C   0  0  2  0  0  3  0  0  0  0  0  0
  156.8950  213.7220  153.1300 C   0  0  0  0  0  2  0  0  0  0  0  0
  159.0120  213.6850  151.9640 N   0  0  0  0  0  2  0  0  0  0  0  0
  161.5310  208.3750  153.7990 O   0  0  0  0  0  0  0  0  0  0  0  0
  160.6310  207.3120  153.8910 C   0  0  1  0  0  3  0  0  0  0  0  0
  161.3400  206.0220  153.5140 C   0  0  0  0  0  1  0  0  0  0  0  0
  160.8670  207.5620  156.3240 C   0  0  0  0  0  2  0  0  0  0  0  0
  160.1070  207.2190  155.2870 C   0  0  0  0  0  3  0  0  0  0  0  0
  161.0650  208.1360  150.5920 O   0  0  0  0  0  0  0  0  0  0  0  0
  161.9560  207.4340  149.7540 C   0  0  1  0  0  3  0  0  0  0  0  0
  162.9380  206.7560  150.4890 O   0  0  0  0  0  1  0  0  0  0  0  0
  161.2550  206.5370  148.7620 C   0  0  0  0  0  0  0  0  0  0  0  0
  160.0380  206.5740  148.6560 O   0  0  0  0  0  0  0  0  0  0  0  0
  161.1420  204.8240  146.9520 C   0  0  2  0  0  3  0  0  0  0  0  0
  162.0550  205.6410  147.8510 C   0  0  2  0  0  3  0  0  0  0  0  0
  161.8880  204.1280  148.0710 C   0  0  1  0  0  3  0  0  0  0  0  0
  163.1980  204.8460  145.7510 O   0  0  0  0  0  1  0  0  0  0  0  0
  161.2350  205.4150  144.5450 C   0  0  0  0  0  1  0  0  0  0  0  0
  161.8410  204.5510  145.6330 C   0  0  2  0  0  3  0  0  0  0  0  0
  160.8920  203.7210  149.1490 C   0  0  0  0  0  2  0  0  0  0  0  0
  160.7460  202.2400  149.1620 C   0  0  0  0  0  0  0  0  0  0  0  0
  160.5970  201.5460  147.9670 O   0  0  0  0  0  0  0  0  0  0  0  0
  160.7880  201.6110  150.2510 O   0  0  0  0  0  1  0  0  0  0  0  0
  2  1  1  6  0  0  0
  2 13  1  0  0  0  0
  3  2  1  6  0  0  0
  3  4  1  0  0  0  0
  4  9  1  0  0  0  0
  5 12  1  0  0  0  0
  5 11  1  0  0  0  0
  6  3  1  0  0  0  0
  8  7  1  0  0  0  0
  8  9  2  0  0  0  0
 10  6  1  6  0  0  0
 10  8  1  0  0  0  0
 11  7  1  0  0  0  0
 12 10  1  0  0  0  0
 13 14  1  0  0  0  0
 14 15  1  1  0  0  0
 14 17  1  0  0  0  0
 17 16  2  0  0  0  0
 18  1  1  0  0  0  0
 19 20  1  1  0  0  0
 19 18  1  0  0  0  0
 21 19  1  0  0  0  0
 22 21  2  0  0  0  0
 23 28  1  6  0  0  0
 23 24  1  0  0  0  0
 23 25  1  0  0  0  0
 24 25  1  0  0  0  0
 24 21  1  1  0  0  0
 25 29  1  1  0  0  0
 28 27  1  6  0  0  0
 28 26  1  0  0  0  0
 29 30  1  0  0  0  0
 30 32  1  0  0  0  0
 31 30  2  0  0  0  0
M  END
>  <MODEL>
3

>  <REMARK>
 VINA RESULT:      -6.6      1.083      1.486
  Name = 
  12 active torsions:
  status: ('A' for Active; 'I' for Inactive)
    1  A    between atoms: C_1  and  C_5
    2  A    between atoms: C_1  and  O_30
    3  A    between atoms: C_2  and  C_5
    4  A    between atoms: C_3  and  C_8
    5  A    between atoms: C_3  and  C_20
    6  A    between atoms: C_4  and  C_24
    7  A    between atoms: C_4  and  O_30
    8  A    between atoms: C_5  and  O_14
    9  A    between atoms: C_13  and  O_14
   10  A    between atoms: C_13  and  C_29
   11  A    between atoms: C_15  and  C_26
   12  A    between atoms: C_16  and  C_24
                            x       y       z     vdW  Elec       q    Type
                         _______ _______ _______ _____ _____    ______ ____

>  <TORSDO>
F 12

$$$$
=
 OpenBabel11062408343D

 32 34  0  0  1  0  0  0  0  0999 V2000
  160.5010  209.6870  152.9860 C   0  0  0  0  0  2  0  0  0  0  0  0
  160.5270  209.7350  154.5140 C   0  0  2  0  0  3  0  0  0  0  0  0
  160.0700  211.0790  155.0920 C   0  0  2  0  0  3  0  0  0  0  0  0
  158.9320  210.9040  156.1210 C   0  0  0  0  0  2  0  0  0  0  0  0
  157.5590  213.9410  152.5160 C   0  0  0  0  0  2  0  0  0  0  0  0
  159.8280  212.1530  154.0090 C   0  0  0  0  0  2  0  0  0  0  0  0
  156.1660  212.8080  154.2480 C   0  0  0  0  0  2  0  0  0  0  0  0
  157.5010  212.4580  154.8440 C   0  0  0  0  0  0  0  0  0  0  0  0
  157.5950  211.3550  155.5960 C   0  0  0  0  0  3  0  0  0  0  0  0
  158.7870  213.1740  154.4600 C   0  0  2  0  0  3  0  0  0  0  0  0
  156.2360  213.9650  153.2580 C   0  0  0  0  0  2  0  0  0  0  0  0
  158.6280  214.2410  153.4630 N   0  0  0  0  0  2  0  0  0  0  0  0
  161.7950  209.3950  154.9980 O   0  0  0  0  0  0  0  0  0  0  0  0
  161.6010  208.2300  155.7430 C   0  0  1  0  0  3  0  0  0  0  0  0
  161.5660  208.5810  157.2210 C   0  0  0  0  0  1  0  0  0  0  0  0
  159.5120  207.0390  156.2470 C   0  0  0  0  0  2  0  0  0  0  0  0
  160.3140  207.5870  155.3390 C   0  0  0  0  0  3  0  0  0  0  0  0
  161.7100  209.1770  152.4820 O   0  0  0  0  0  0  0  0  0  0  0  0
  161.4640  208.5840  151.2260 C   0  0  1  0  0  3  0  0  0  0  0  0
  162.0450  209.3170  150.1810 O   0  0  0  0  0  1  0  0  0  0  0  0
  161.8330  207.1200  151.1790 C   0  0  0  0  0  0  0  0  0  0  0  0
  162.9750  206.7670  151.4290 O   0  0  0  0  0  0  0  0  0  0  0  0
  161.4030  204.8190  150.3160 C   0  0  2  0  0  3  0  0  0  0  0  0
  160.7790  206.0820  150.8870 C   0  0  2  0  0  3  0  0  0  0  0  0
  160.5830  205.7120  149.4070 C   0  0  1  0  0  3  0  0  0  0  0  0
  161.0770  203.0790  151.9080 O   0  0  0  0  0  1  0  0  0  0  0  0
  160.6340  202.5630  149.6340 C   0  0  0  0  0  1  0  0  0  0  0  0
  160.5740  203.6150  150.7230 C   0  0  2  0  0  3  0  0  0  0  0  0
  161.5160  206.4030  148.4220 C   0  0  0  0  0  2  0  0  0  0  0  0
  161.4240  205.7370  147.0940 C   0  0  0  0  0  0  0  0  0  0  0  0
  160.5650  206.2400  146.1240 O   0  0  0  0  0  0  0  0  0  0  0  0
  162.1440  204.7380  146.8380 O   0  0  0  0  0  1  0  0  0  0  0  0
  2  1  1  6  0  0  0
  2 13  1  0  0  0  0
  3  2  1  6  0  0  0
  3  4  1  0  0  0  0
  5 11  1  0  0  0  0
  5 12  1  0  0  0  0
  6  3  1  0  0  0  0
  7  8  1  0  0  0  0
  8  9  2  0  0  0  0
  9  4  1  0  0  0  0
 10  6  1  6  0  0  0
 10  8  1  0  0  0  0
 11  7  1  0  0  0  0
 12 10  1  0  0  0  0
 13 14  1  0  0  0  0
 14 15  1  1  0  0  0
 17 14  1  0  0  0  0
 17 16  2  0  0  0  0
 18  1  1  0  0  0  0
 19 20  1  6  0  0  0
 19 18  1  0  0  0  0
 21 19  1  0  0  0  0
 21 22  2  0  0  0  0
 23 28  1  1  0  0  0
 23 24  1  0  0  0  0
 24 21  1  6  0  0  0
 25 29  1  6  0  0  0
 25 23  1  0  0  0  0
 25 24  1  0  0  0  0
 28 27  1  6  0  0  0
 28 26  1  0  0  0  0
 30 29  1  0  0  0  0
 31 30  2  0  0  0  0
 32 30  1  0  0  0  0
M  END
>  <MODEL>
4

>  <REMARK>
 VINA RESULT:      -6.5      1.633      3.504
  Name = 
  12 active torsions:
  status: ('A' for Active; 'I' for Inactive)
    1  A    between atoms: C_1  and  C_5
    2  A    between atoms: C_1  and  O_30
    3  A    between atoms: C_2  and  C_5
    4  A    between atoms: C_3  and  C_8
    5  A    between atoms: C_3  and  C_20
    6  A    between atoms: C_4  and  C_24
    7  A    between atoms: C_4  and  O_30
    8  A    between atoms: C_5  and  O_14
    9  A    between atoms: C_13  and  O_14
   10  A    between atoms: C_13  and  C_29
   11  A    between atoms: C_15  and  C_26
   12  A    between atoms: C_16  and  C_24
                            x       y       z     vdW  Elec       q    Type
                         _______ _______ _______ _____ _____    ______ ____

>  <TORSDO>
F 12

$$$$
=
 OpenBabel11062408343D

 32 34  0  0  1  0  0  0  0  0999 V2000
  160.7790  208.8400  152.0140 C   0  0  0  0  0  2  0  0  0  0  0  0
  160.7060  209.5270  153.3780 C   0  0  2  0  0  3  0  0  0  0  0  0
  160.8020  211.0540  153.2990 C   0  0  2  0  0  3  0  0  0  0  0  0
  160.2930  211.7280  154.5920 C   0  0  0  0  0  2  0  0  0  0  0  0
  157.8370  213.4000  150.6830 C   0  0  0  0  0  2  0  0  0  0  0  0
  160.2360  211.6300  151.9830 C   0  0  0  0  0  2  0  0  0  0  0  0
  157.3000  213.6330  153.1090 C   0  0  0  0  0  2  0  0  0  0  0  0
  158.6840  213.0740  153.2910 C   0  0  0  0  0  0  0  0  0  0  0  0
  158.9570  212.4010  154.4140 C   0  0  0  0  0  3  0  0  0  0  0  0
  159.7160  213.0520  152.1740 C   0  0  2  0  0  3  0  0  0  0  0  0
  157.0610  214.1980  151.7140 C   0  0  0  0  0  2  0  0  0  0  0  0
  159.2620  213.6240  150.8990 N   0  0  0  0  0  2  0  0  0  0  0  0
  161.6800  209.0150  154.2420 O   0  0  0  0  0  0  0  0  0  0  0  0
  160.9700  208.4910  155.3240 C   0  0  1  0  0  3  0  0  0  0  0  0
  160.5700  207.0580  155.0130 C   0  0  0  0  0  1  0  0  0  0  0  0
  162.4500  209.6480  156.9070 C   0  0  0  0  0  2  0  0  0  0  0  0
  161.8240  208.5310  156.5490 C   0  0  0  0  0  3  0  0  0  0  0  0
  162.1080  208.7660  151.5610 O   0  0  0  0  0  0  0  0  0  0  0  0
  162.3150  207.5080  150.9590 C   0  0  1  0  0  3  0  0  0  0  0  0
  162.1950  206.4620  151.8850 O   0  0  0  0  0  1  0  0  0  0  0  0
  161.4640  207.2920  149.7300 C   0  0  0  0  0  0  0  0  0  0  0  0
  161.4860  208.1060  148.8190 O   0  0  0  0  0  0  0  0  0  0  0  0
  161.5150  204.8010  149.6000 C   0  0  2  0  0  3  0  0  0  0  0  0
  160.6350  206.0400  149.5910 C   0  0  2  0  0  3  0  0  0  0  0  0
  160.8510  205.2230  148.3060 C   0  0  1  0  0  3  0  0  0  0  0  0
  161.3590  203.2460  151.3960 O   0  0  0  0  0  1  0  0  0  0  0  0
  160.7430  202.4730  149.2390 C   0  0  0  0  0  1  0  0  0  0  0  0
  160.7490  203.6390  150.2060 C   0  0  2  0  0  3  0  0  0  0  0  0
  161.9160  205.7530  147.3550 C   0  0  0  0  0  2  0  0  0  0  0  0
  161.4390  205.6300  145.9510 C   0  0  0  0  0  0  0  0  0  0  0  0
  160.3500  206.3770  145.5200 O   0  0  0  0  0  1  0  0  0  0  0  0
  162.0390  204.8730  145.1450 O   0  0  0  0  0  0  0  0  0  0  0  0
  2  1  1  6  0  0  0
  2 13  1  0  0  0  0
  3  2  1  1  0  0  0
  3  4  1  0  0  0  0
  5 12  1  0  0  0  0
  5 11  1  0  0  0  0
  6  3  1  0  0  0  0
  7  8  1  0  0  0  0
  8  9  2  0  0  0  0
  9  4  1  0  0  0  0
 10  6  1  6  0  0  0
 10  8  1  0  0  0  0
 11  7  1  0  0  0  0
 12 10  1  0  0  0  0
 13 14  1  0  0  0  0
 14 15  1  6  0  0  0
 14 17  1  0  0  0  0
 17 16  2  0  0  0  0
 18  1  1  0  0  0  0
 19 18  1  0  0  0  0
 19 20  1  1  0  0  0
 21 19  1  0  0  0  0
 22 21  2  0  0  0  0
 23 28  1  1  0  0  0
 24 23  1  0  0  0  0
 24 21  1  6  0  0  0
 25 29  1  6  0  0  0
 25 24  1  0  0  0  0
 25 23  1  0  0  0  0
 28 27  1  6  0  0  0
 28 26  1  0  0  0  0
 30 29  1  0  0  0  0
 31 30  1  0  0  0  0
 32 30  2  0  0  0  0
M  END
>  <MODEL>
5

>  <REMARK>
 VINA RESULT:      -6.4      1.876      3.365
  Name = 
  12 active torsions:
  status: ('A' for Active; 'I' for Inactive)
    1  A    between atoms: C_1  and  C_5
    2  A    between atoms: C_1  and  O_30
    3  A    between atoms: C_2  and  C_5
    4  A    between atoms: C_3  and  C_8
    5  A    between atoms: C_3  and  C_20
    6  A    between atoms: C_4  and  C_24
    7  A    between atoms: C_4  and  O_30
    8  A    between atoms: C_5  and  O_14
    9  A    between atoms: C_13  and  O_14
   10  A    between atoms: C_13  and  C_29
   11  A    between atoms: C_15  and  C_26
   12  A    between atoms: C_16  and  C_24
                            x       y       z     vdW  Elec       q    Type
                         _______ _______ _______ _____ _____    ______ ____

>  <TORSDO>
F 12

$$$$
=
 OpenBabel11062408343D

 32 34  0  0  1  0  0  0  0  0999 V2000
  161.8760  208.1210  150.6630 C   0  0  0  0  0  2  0  0  0  0  0  0
  161.3620  206.7060  150.9360 C   0  0  2  0  0  3  0  0  0  0  0  0
  160.5280  206.1260  149.7900 C   0  0  2  0  0  3  0  0  0  0  0  0
  160.3840  204.5920  149.9050 C   0  0  0  0  0  2  0  0  0  0  0  0
  162.3310  205.8290  145.5720 C   0  0  0  0  0  2  0  0  0  0  0  0
  160.9570  206.6500  148.4030 C   0  0  0  0  0  2  0  0  0  0  0  0
  162.2250  203.5960  146.6800 C   0  0  0  0  0  2  0  0  0  0  0  0
  161.3040  204.3060  147.6330 C   0  0  0  0  0  0  0  0  0  0  0  0
  161.2060  203.8490  148.8860 C   0  0  0  0  0  3  0  0  0  0  0  0
  160.6460  205.6380  147.3030 C   0  0  2  0  0  3  0  0  0  0  0  0
  162.3970  204.3280  145.3550 C   0  0  0  0  0  2  0  0  0  0  0  0
  160.9740  206.1800  145.9790 N   0  0  0  0  0  2  0  0  0  0  0  0
  160.6470  206.6640  152.1380 O   0  0  0  0  0  0  0  0  0  0  0  0
  161.4220  205.8820  152.9970 C   0  0  1  0  0  3  0  0  0  0  0  0
  162.8010  205.6860  152.3880 C   0  0  0  0  0  1  0  0  0  0  0  0
  160.4560  206.9530  154.9860 C   0  0  0  0  0  2  0  0  0  0  0  0
  161.5400  206.5630  154.3220 C   0  0  0  0  0  3  0  0  0  0  0  0
  160.9600  209.0830  151.1240 O   0  0  0  0  0  0  0  0  0  0  0  0
  161.5080  209.7270  152.2530 C   0  0  1  0  0  3  0  0  0  0  0  0
  162.7780  210.2570  151.9850 O   0  0  0  0  0  1  0  0  0  0  0  0
  160.5750  210.7450  152.8650 C   0  0  0  0  0  0  0  0  0  0  0  0
  160.4550  211.8500  152.3580 O   0  0  0  0  0  0  0  0  0  0  0  0
  159.5350  211.5840  154.9710 C   0  0  2  0  0  3  0  0  0  0  0  0
  159.7380  210.3810  154.0650 C   0  0  2  0  0  3  0  0  0  0  0  0
  160.4410  210.4610  155.4310 C   0  0  1  0  0  3  0  0  0  0  0  0
  157.1730  211.4080  154.7250 O   0  0  0  0  0  1  0  0  0  0  0  0
  157.9780  212.6780  156.5610 C   0  0  0  0  0  1  0  0  0  0  0  0
  158.1940  211.4700  155.6720 C   0  0  2  0  0  3  0  0  0  0  0  0
  161.8830  210.9500  155.4070 C   0  0  0  0  0  2  0  0  0  0  0  0
  162.6420  210.3280  156.5260 C   0  0  0  0  0  0  0  0  0  0  0  0
  163.6710  211.0300  157.1420 O   0  0  0  0  0  1  0  0  0  0  0  0
  162.3330  209.1790  156.9350 O   0  0  0  0  0  0  0  0  0  0  0  0
  1 18  1  0  0  0  0
  2  1  1  6  0  0  0
  2 13  1  0  0  0  0
  3  4  1  0  0  0  0
  3  2  1  1  0  0  0
  5 12  1  0  0  0  0
  6  3  1  0  0  0  0
  7  8  1  0  0  0  0
  8  9  2  0  0  0  0
  9  4  1  0  0  0  0
 10  8  1  0  0  0  0
 10  6  1  1  0  0  0
 11  5  1  0  0  0  0
 11  7  1  0  0  0  0
 12 10  1  0  0  0  0
 13 14  1  0  0  0  0
 14 15  1  6  0  0  0
 14 17  1  0  0  0  0
 17 16  2  0  0  0  0
 18 19  1  0  0  0  0
 19 20  1  6  0  0  0
 19 21  1  0  0  0  0
 22 21  2  0  0  0  0
 23 25  1  0  0  0  0
 23 28  1  1  0  0  0
 24 21  1  6  0  0  0
 24 23  1  0  0  0  0
 24 25  1  0  0  0  0
 25 29  1  6  0  0  0
 26 28  1  0  0  0  0
 28 27  1  1  0  0  0
 29 30  1  0  0  0  0
 30 32  2  0  0  0  0
 30 31  1  0  0  0  0
M  END
>  <MODEL>
6

>  <REMARK>
 VINA RESULT:      -6.3      3.039      8.887
  Name = 
  12 active torsions:
  status: ('A' for Active; 'I' for Inactive)
    1  A    between atoms: C_1  and  C_5
    2  A    between atoms: C_1  and  O_30
    3  A    between atoms: C_2  and  C_5
    4  A    between atoms: C_3  and  C_8
    5  A    between atoms: C_3  and  C_20
    6  A    between atoms: C_4  and  C_24
    7  A    between atoms: C_4  and  O_30
    8  A    between atoms: C_5  and  O_14
    9  A    between atoms: C_13  and  O_14
   10  A    between atoms: C_13  and  C_29
   11  A    between atoms: C_15  and  C_26
   12  A    between atoms: C_16  and  C_24
                            x       y       z     vdW  Elec       q    Type
                         _______ _______ _______ _____ _____    ______ ____

>  <TORSDO>
F 12

$$$$
=
 OpenBabel11062408343D

 32 34  0  0  1  0  0  0  0  0999 V2000
  160.8260  206.5900  150.9210 C   0  0  0  0  0  2  0  0  0  0  0  0
  161.4380  205.3680  150.2350 C   0  0  2  0  0  3  0  0  0  0  0  0
  162.1700  205.7010  148.9310 C   0  0  2  0  0  3  0  0  0  0  0  0
  161.7510  207.0790  148.3740 C   0  0  0  0  0  2  0  0  0  0  0  0
  160.9990  203.5570  145.0380 C   0  0  0  0  0  2  0  0  0  0  0  0
  162.1540  204.5400  147.9140 C   0  0  0  0  0  2  0  0  0  0  0  0
  160.1570  205.9050  145.0770 C   0  0  0  0  0  2  0  0  0  0  0  0
  161.1230  206.0480  146.2210 C   0  0  0  0  0  0  0  0  0  0  0  0
  160.8740  206.9740  147.1540 C   0  0  0  0  0  3  0  0  0  0  0  0
  162.2450  205.0540  146.4800 C   0  0  2  0  0  3  0  0  0  0  0  0
  160.4430  204.6930  144.1990 C   0  0  0  0  0  2  0  0  0  0  0  0
  162.3200  203.9420  145.5240 N   0  0  0  0  0  2  0  0  0  0  0  0
  160.4660  204.3850  150.0190 O   0  0  0  0  0  0  0  0  0  0  0  0
  161.0040  203.2140  150.5570 C   0  0  1  0  0  3  0  0  0  0  0  0
  160.8410  203.2370  152.0670 C   0  0  0  0  0  1  0  0  0  0  0  0
  160.8480  201.3160  149.0050 C   0  0  0  0  0  2  0  0  0  0  0  0
  160.2980  202.0290  149.9830 C   0  0  0  0  0  3  0  0  0  0  0  0
  161.7010  207.1090  151.8910 O   0  0  0  0  0  0  0  0  0  0  0  0
  160.9520  207.8470  152.8310 C   0  0  1  0  0  3  0  0  0  0  0  0
  161.2170  207.4360  154.1450 O   0  0  0  0  0  1  0  0  0  0  0  0
  161.0860  209.3410  152.6550 C   0  0  0  0  0  0  0  0  0  0  0  0
  162.1680  209.8290  152.3650 O   0  0  0  0  0  0  0  0  0  0  0  0
  160.2790  211.6870  152.9190 C   0  0  2  0  0  3  0  0  0  0  0  0
  159.8740  210.2300  152.7710 C   0  0  2  0  0  3  0  0  0  0  0  0
  159.6940  210.9600  154.1120 C   0  0  1  0  0  3  0  0  0  0  0  0
  159.7740  213.3070  151.2500 O   0  0  0  0  0  1  0  0  0  0  0  0
  158.6760  213.5300  153.3420 C   0  0  0  0  0  1  0  0  0  0  0  0
  159.2180  212.5750  152.2980 C   0  0  2  0  0  3  0  0  0  0  0  0
  160.7940  210.7360  155.1410 C   0  0  0  0  0  2  0  0  0  0  0  0
  160.1930  210.2850  156.4260 C   0  0  0  0  0  0  0  0  0  0  0  0
  160.6310  209.1090  157.0220 O   0  0  0  0  0  1  0  0  0  0  0  0
  159.3100  210.9840  156.9890 O   0  0  0  0  0  0  0  0  0  0  0  0
  1 18  1  0  0  0  0
  2  1  1  6  0  0  0
  3  2  1  1  0  0  0
  4  3  1  0  0  0  0
  5 12  1  0  0  0  0
  6  3  1  0  0  0  0
  7  8  1  0  0  0  0
  8 10  1  0  0  0  0
  8  9  2  0  0  0  0
  9  4  1  0  0  0  0
 10  6  1  1  0  0  0
 11  5  1  0  0  0  0
 11  7  1  0  0  0  0
 12 10  1  0  0  0  0
 13  2  1  0  0  0  0
 13 14  1  0  0  0  0
 14 15  1  1  0  0  0
 16 17  2  0  0  0  0
 17 14  1  0  0  0  0
 18 19  1  0  0  0  0
 19 20  1  1  0  0  0
 21 19  1  0  0  0  0
 22 21  2  0  0  0  0
 23 28  1  6  0  0  0
 23 25  1  0  0  0  0
 24 21  1  1  0  0  0
 24 23  1  0  0  0  0
 24 25  1  0  0  0  0
 25 29  1  1  0  0  0
 26 28  1  0  0  0  0
 28 27  1  1  0  0  0
 29 30  1  0  0  0  0
 30 32  2  0  0  0  0
 30 31  1  0  0  0  0
M  END
>  <MODEL>
7

>  <REMARK>
 VINA RESULT:      -6.2      3.025      9.027
  Name = 
  12 active torsions:
  status: ('A' for Active; 'I' for Inactive)
    1  A    between atoms: C_1  and  C_5
    2  A    between atoms: C_1  and  O_30
    3  A    between atoms: C_2  and  C_5
    4  A    between atoms: C_3  and  C_8
    5  A    between atoms: C_3  and  C_20
    6  A    between atoms: C_4  and  C_24
    7  A    between atoms: C_4  and  O_30
    8  A    between atoms: C_5  and  O_14
    9  A    between atoms: C_13  and  O_14
   10  A    between atoms: C_13  and  C_29
   11  A    between atoms: C_15  and  C_26
   12  A    between atoms: C_16  and  C_24
                            x       y       z     vdW  Elec       q    Type
                         _______ _______ _______ _____ _____    ______ ____

>  <TORSDO>
F 12

$$$$
=
 OpenBabel11062408343D

 32 34  0  0  1  0  0  0  0  0999 V2000
  161.7900  207.8830  152.3290 C   0  0  0  0  0  2  0  0  0  0  0  0
  162.0200  209.3550  151.9850 C   0  0  2  0  0  3  0  0  0  0  0  0
  161.7880  210.3040  153.1650 C   0  0  2  0  0  3  0  0  0  0  0  0
  161.5420  209.5330  154.4810 C   0  0  0  0  0  2  0  0  0  0  0  0
  157.8060  212.5720  153.5270 C   0  0  0  0  0  2  0  0  0  0  0  0
  160.7730  211.4240  152.8520 C   0  0  0  0  0  2  0  0  0  0  0  0
  157.9390  210.6910  155.1610 C   0  0  0  0  0  2  0  0  0  0  0  0
  159.4000  210.7150  154.8060 C   0  0  0  0  0  0  0  0  0  0  0  0
  160.1050  209.5850  154.9290 C   0  0  0  0  0  3  0  0  0  0  0  0
  160.0590  211.8990  154.1140 C   0  0  2  0  0  3  0  0  0  0  0  0
  157.2100  211.9770  154.7900 C   0  0  0  0  0  2  0  0  0  0  0  0
  159.1620  213.0240  153.8220 N   0  0  0  0  0  2  0  0  0  0  0  0
  161.2410  209.7340  150.8860 O   0  0  0  0  0  0  0  0  0  0  0  0
  162.1560  210.0420  149.8780 C   0  0  1  0  0  3  0  0  0  0  0  0
  161.9570  209.0880  148.7120 C   0  0  0  0  0  1  0  0  0  0  0  0
  162.2790  211.8310  148.1970 C   0  0  0  0  0  2  0  0  0  0  0  0
  161.9460  211.4520  149.4280 C   0  0  0  0  0  3  0  0  0  0  0  0
  160.8440  207.3090  151.4620 O   0  0  0  0  0  0  0  0  0  0  0  0
  161.4140  206.1690  150.8590 C   0  0  1  0  0  3  0  0  0  0  0  0
  161.3610  205.0510  151.7040 O   0  0  0  0  0  1  0  0  0  0  0  0
  160.8550  205.8820  149.4850 C   0  0  0  0  0  0  0  0  0  0  0  0
  159.7080  206.2010  149.2120 O   0  0  0  0  0  0  0  0  0  0  0  0
  160.8880  204.6260  147.3300 C   0  0  2  0  0  3  0  0  0  0  0  0
  161.7290  205.2620  148.4250 C   0  0  2  0  0  3  0  0  0  0  0  0
  161.6470  203.7320  148.2880 C   0  0  1  0  0  3  0  0  0  0  0  0
  161.3300  203.5800  145.2370 O   0  0  0  0  0  1  0  0  0  0  0  0
  163.1250  204.7420  146.2670 C   0  0  0  0  0  1  0  0  0  0  0  0
  161.6320  204.7010  146.0100 C   0  0  2  0  0  3  0  0  0  0  0  0
  160.6520  203.0370  149.2080 C   0  0  0  0  0  2  0  0  0  0  0  0
  160.8420  201.5630  149.1280 C   0  0  0  0  0  0  0  0  0  0  0  0
  161.1790  200.9710  147.9170 O   0  0  0  0  0  0  0  0  0  0  0  0
  160.7290  200.8560  150.1630 O   0  0  0  0  0  1  0  0  0  0  0  0
  2  1  1  1  0  0  0
  3  2  1  6  0  0  0
  3  4  1  0  0  0  0
  4  9  1  0  0  0  0
  5 12  1  0  0  0  0
  5 11  1  0  0  0  0
  6  3  1  0  0  0  0
  8  9  2  0  0  0  0
  8  7  1  0  0  0  0
 10  6  1  6  0  0  0
 10  8  1  0  0  0  0
 11  7  1  0  0  0  0
 12 10  1  0  0  0  0
 13  2  1  0  0  0  0
 14 15  1  6  0  0  0
 14 13  1  0  0  0  0
 16 17  2  0  0  0  0
 17 14  1  0  0  0  0
 18  1  1  0  0  0  0
 19 18  1  0  0  0  0
 19 20  1  1  0  0  0
 21 19  1  0  0  0  0
 22 21  2  0  0  0  0
 23 28  1  6  0  0  0
 23 25  1  0  0  0  0
 23 24  1  0  0  0  0
 24 21  1  1  0  0  0
 25 24  1  0  0  0  0
 25 29  1  1  0  0  0
 26 28  1  0  0  0  0
 28 27  1  1  0  0  0
 30 29  1  0  0  0  0
 30 32  1  0  0  0  0
 31 30  2  0  0  0  0
M  END
>  <MODEL>
8

>  <REMARK>
 VINA RESULT:      -6.2      1.598      2.939
  Name = 
  12 active torsions:
  status: ('A' for Active; 'I' for Inactive)
    1  A    between atoms: C_1  and  C_5
    2  A    between atoms: C_1  and  O_30
    3  A    between atoms: C_2  and  C_5
    4  A    between atoms: C_3  and  C_8
    5  A    between atoms: C_3  and  C_20
    6  A    between atoms: C_4  and  C_24
    7  A    between atoms: C_4  and  O_30
    8  A    between atoms: C_5  and  O_14
    9  A    between atoms: C_13  and  O_14
   10  A    between atoms: C_13  and  C_29
   11  A    between atoms: C_15  and  C_26
   12  A    between atoms: C_16  and  C_24
                            x       y       z     vdW  Elec       q    Type
                         _______ _______ _______ _____ _____    ______ ____

>  <TORSDO>
F 12

$$$$
=
 OpenBabel11062408343D

 32 34  0  0  1  0  0  0  0  0999 V2000
  162.0000  208.2370  150.1380 C   0  0  0  0  0  2  0  0  0  0  0  0
  161.4940  206.8260  150.4410 C   0  0  2  0  0  3  0  0  0  0  0  0
  160.6210  206.2360  149.3290 C   0  0  2  0  0  3  0  0  0  0  0  0
  160.4510  204.7090  149.4820 C   0  0  0  0  0  2  0  0  0  0  0  0
  162.3120  205.8130  145.0760 C   0  0  0  0  0  2  0  0  0  0  0  0
  161.0250  206.7220  147.9200 C   0  0  0  0  0  2  0  0  0  0  0  0
  162.1930  203.6080  146.2360 C   0  0  0  0  0  2  0  0  0  0  0  0
  161.3090  204.3560  147.1950 C   0  0  0  0  0  0  0  0  0  0  0  0
  161.2350  203.9280  148.4600 C   0  0  0  0  0  3  0  0  0  0  0  0
  160.6680  205.6920  146.8520 C   0  0  2  0  0  3  0  0  0  0  0  0
  162.3460  204.3070  144.8910 C   0  0  0  0  0  2  0  0  0  0  0  0
  160.9730  206.1980  145.5080 N   0  0  0  0  0  2  0  0  0  0  0  0
  160.8200  206.7960  151.6670 O   0  0  0  0  0  0  0  0  0  0  0  0
  161.6940  206.1590  152.5500 C   0  0  1  0  0  3  0  0  0  0  0  0
  161.2170  206.3820  153.9750 C   0  0  0  0  0  1  0  0  0  0  0  0
  160.8300  203.8690  152.7630 C   0  0  0  0  0  2  0  0  0  0  0  0
  161.7330  204.6970  152.2450 C   0  0  0  0  0  3  0  0  0  0  0  0
  162.7050  208.7620  151.2350 O   0  0  0  0  0  0  0  0  0  0  0  0
  162.1800  210.0340  151.5450 C   0  0  1  0  0  3  0  0  0  0  0  0
  161.7220  210.7020  150.4000 O   0  0  0  0  0  1  0  0  0  0  0  0
  161.1470  209.9970  152.6450 C   0  0  0  0  0  0  0  0  0  0  0  0
  159.9920  209.6910  152.3910 O   0  0  0  0  0  0  0  0  0  0  0  0
  160.3850  210.0300  155.0210 C   0  0  2  0  0  3  0  0  0  0  0  0
  161.5470  210.2740  154.0720 C   0  0  2  0  0  3  0  0  0  0  0  0
  160.8370  211.4520  154.7600 C   0  0  1  0  0  3  0  0  0  0  0  0
  162.2400  209.1570  156.2310 O   0  0  0  0  0  1  0  0  0  0  0  0
  160.0810  208.4130  156.8760 C   0  0  0  0  0  1  0  0  0  0  0  0
  160.9160  209.5700  156.3660 C   0  0  2  0  0  3  0  0  0  0  0  0
  159.7760  212.1620  153.9290 C   0  0  0  0  0  2  0  0  0  0  0  0
  158.7390  212.7370  154.8290 C   0  0  0  0  0  0  0  0  0  0  0  0
  159.1180  213.4750  155.9430 O   0  0  0  0  0  1  0  0  0  0  0  0
  157.5180  212.5800  154.5650 O   0  0  0  0  0  0  0  0  0  0  0  0
  1 18  1  0  0  0  0
  2  1  1  6  0  0  0
  2 13  1  0  0  0  0
  3  4  1  0  0  0  0
  3  2  1  1  0  0  0
  5 12  1  0  0  0  0
  6  3  1  0  0  0  0
  7  8  1  0  0  0  0
  8  9  2  0  0  0  0
  9  4  1  0  0  0  0
 10  8  1  0  0  0  0
 10  6  1  1  0  0  0
 11  5  1  0  0  0  0
 11  7  1  0  0  0  0
 12 10  1  0  0  0  0
 13 14  1  0  0  0  0
 14 15  1  1  0  0  0
 17 14  1  0  0  0  0
 17 16  2  0  0  0  0
 18 19  1  0  0  0  0
 19 20  1  6  0  0  0
 19 21  1  0  0  0  0
 22 21  2  0  0  0  0
 23 28  1  1  0  0  0
 24 21  1  6  0  0  0
 24 25  1  0  0  0  0
 24 23  1  0  0  0  0
 25 29  1  6  0  0  0
 25 23  1  0  0  0  0
 26 28  1  0  0  0  0
 28 27  1  6  0  0  0
 29 30  1  0  0  0  0
 30 31  1  0  0  0  0
 32 30  2  0  0  0  0
M  END
>  <MODEL>
9

>  <REMARK>
 VINA RESULT:      -6.1      3.108      8.968
  Name = 
  12 active torsions:
  status: ('A' for Active; 'I' for Inactive)
    1  A    between atoms: C_1  and  C_5
    2  A    between atoms: C_1  and  O_30
    3  A    between atoms: C_2  and  C_5
    4  A    between atoms: C_3  and  C_8
    5  A    between atoms: C_3  and  C_20
    6  A    between atoms: C_4  and  C_24
    7  A    between atoms: C_4  and  O_30
    8  A    between atoms: C_5  and  O_14
    9  A    between atoms: C_13  and  O_14
   10  A    between atoms: C_13  and  C_29
   11  A    between atoms: C_15  and  C_26
   12  A    between atoms: C_16  and  C_24
                            x       y       z     vdW  Elec       q    Type
                         _______ _______ _______ _____ _____    ______ ____

>  <TORSDO>
F 12

$$$$
