=
 OpenBabel11062407523D

 34 39  0  0  1  0  0  0  0  0999 V2000
  160.9380  207.8870  154.0700 C   0  0  0  0  0  0  0  0  0  0  0  0
  162.1100  209.8100  153.1650 C   0  0  0  0  0  0  0  0  0  0  0  0
  161.5600  207.8130  151.7000 C   0  0  0  0  0  0  0  0  0  0  0  0
  161.8440  207.6210  149.2990 C   0  0  0  0  0  0  0  0  0  0  0  0
  161.2050  209.8780  155.4140 C   0  0  0  0  0  3  0  0  0  0  0  0
  161.9030  210.4820  154.3720 C   0  0  0  0  0  3  0  0  0  0  0  0
  161.7480  209.7420  150.1620 N   0  0  0  0  0  0  0  0  0  0  0  0
  161.5270  208.5280  152.9450 C   0  0  0  0  0  0  0  0  0  0  0  0
  161.9320  211.2900  148.2740 N   0  0  0  0  0  2  0  0  0  0  0  0
  161.9880  208.5660  147.9200 S   0  0  0  0  0  0  0  0  0  0  0  0
  160.7500  208.5730  155.2720 C   0  0  0  0  0  3  0  0  0  0  0  0
  161.2830  206.4070  151.7010 C   0  0  0  0  0  0  0  0  0  0  0  0
  160.5740  206.5470  154.0180 C   0  0  0  0  0  3  0  0  0  0  0  0
  162.9860  210.3960  152.2610 O   0  0  0  0  0  1  0  0  0  0  0  0
  161.7010  206.2810  149.3320 N   0  0  0  0  0  0  0  0  0  0  0  0
  161.4320  205.6400  150.5040 C   0  0  0  0  0  0  0  0  0  0  0  0
  161.8910  209.9800  148.8360 C   0  0  0  0  0  0  0  0  0  0  0  0
  161.7580  208.4110  150.4320 C   0  0  0  0  0  0  0  0  0  0  0  0
  160.7740  205.8120  152.8600 C   0  0  0  0  0  3  0  0  0  0  0  0
  160.6610  202.1220  149.2770 C   0  0  0  0  0  0  0  0  0  0  0  0
  160.8950  201.3770  150.4350 C   0  0  0  0  0  3  0  0  0  0  0  0
  161.2700  204.1630  150.4560 C   0  0  0  0  0  0  0  0  0  0  0  0
  161.3050  202.0180  151.6060 C   0  0  0  0  0  3  0  0  0  0  0  0
  160.8420  203.5080  149.2900 C   0  0  0  0  0  3  0  0  0  0  0  0
  161.4870  203.4040  151.6160 C   0  0  0  0  0  3  0  0  0  0  0  0
  160.2560  201.5020  148.1430 F   0  0  0  0  0  0  0  0  0  0  0  0
  161.8370  212.4780  149.1050 C   0  0  0  0  0  2  0  0  0  0  0  0
  160.2220  214.2240  150.7940 F   0  0  0  0  0  0  0  0  0  0  0  0
  160.7230  213.3810  148.6030 C   0  0  2  0  0  3  0  0  0  0  0  0
  159.6610  213.6050  149.6920 C   0  0  2  0  0  3  0  0  0  0  0  0
  157.9270  213.6490  148.2410 C   0  0  0  0  0  2  0  0  0  0  0  0
  158.7930  213.4610  146.9980 C   0  0  0  0  0  2  0  0  0  0  0  0
  160.0660  212.7190  147.3940 C   0  0  0  0  0  2  0  0  0  0  0  0
  158.6220  214.4150  149.1930 O   0  0  0  0  0  0  0  0  0  0  0  0
  1 11  2  0  0  0  0
  2  6  1  0  0  0  0
  3 12  1  0  0  0  0
  3  8  1  0  0  0  0
  4 15  2  0  0  0  0
  4 18  1  0  0  0  0
  6  5  2  0  0  0  0
  7 18  1  0  0  0  0
  8  2  2  0  0  0  0
  8  1  1  0  0  0  0
  9 17  1  0  0  0  0
  9 27  1  0  0  0  0
 10 17  1  0  0  0  0
 10  4  1  0  0  0  0
 11  5  1  0  0  0  0
 12 19  1  0  0  0  0
 13  1  1  0  0  0  0
 14  2  1  0  0  0  0
 15 16  1  0  0  0  0
 16 12  2  0  0  0  0
 17  7  2  0  0  0  0
 18  3  2  0  0  0  0
 19 13  2  0  0  0  0
 20 24  2  0  0  0  0
 20 21  1  0  0  0  0
 21 23  2  0  0  0  0
 22 16  1  0  0  0  0
 22 25  2  0  0  0  0
 23 25  1  0  0  0  0
 24 22  1  0  0  0  0
 26 20  1  0  0  0  0
 29 27  1  1  0  0  0
 29 30  1  0  0  0  0
 30 28  1  1  0  0  0
 31 34  1  0  0  0  0
 32 33  1  0  0  0  0
 32 31  1  0  0  0  0
 33 29  1  0  0  0  0
 34 30  1  0  0  0  0
M  END
>  <MODEL>
1

>  <REMARK>
 VINA RESULT:      -9.6      0.000      0.000
  Name = 
  3 active torsions:
  status: ('A' for Active; 'I' for Inactive)
    1  A    between atoms: C_3  and  C_13
    2  A    between atoms: C_3  and  N_17
    3  A    between atoms: C_12  and  C_28
                            x       y       z     vdW  Elec       q    Type
                         _______ _______ _______ _____ _____    ______ ____

>  <TORSDO>
F 3

$$$$
=
 OpenBabel11062407523D

 34 39  0  0  1  0  0  0  0  0999 V2000
  162.1310  209.0460  149.0560 C   0  0  0  0  0  0  0  0  0  0  0  0
  161.2080  210.3350  150.8950 C   0  0  0  0  0  0  0  0  0  0  0  0
  161.4110  207.8110  151.0480 C   0  0  0  0  0  0  0  0  0  0  0  0
  161.0070  206.4130  152.9880 C   0  0  0  0  0  0  0  0  0  0  0  0
  162.2020  211.4620  148.9900 C   0  0  0  0  0  3  0  0  0  0  0  0
  161.5550  211.5100  150.2220 C   0  0  0  0  0  3  0  0  0  0  0  0
  161.4370  208.6300  153.3830 N   0  0  0  0  0  0  0  0  0  0  0  0
  161.5940  209.0660  150.3740 C   0  0  0  0  0  0  0  0  0  0  0  0
  161.4000  208.9430  155.8100 N   0  0  0  0  0  2  0  0  0  0  0  0
  160.9440  206.4880  154.6630 S   0  0  0  0  0  0  0  0  0  0  0  0
  162.4610  210.2320  148.3970 C   0  0  0  0  0  3  0  0  0  0  0  0
  161.4850  206.5980  150.2870 C   0  0  0  0  0  0  0  0  0  0  0  0
  162.2990  207.8490  148.3720 C   0  0  0  0  0  3  0  0  0  0  0  0
  160.3890  210.4670  152.0080 O   0  0  0  0  0  1  0  0  0  0  0  0
  160.9600  205.2910  152.2410 N   0  0  0  0  0  0  0  0  0  0  0  0
  161.1820  205.3430  150.8980 C   0  0  0  0  0  0  0  0  0  0  0  0
  161.2760  208.1430  154.6370 C   0  0  0  0  0  0  0  0  0  0  0  0
  161.2490  207.6630  152.4470 C   0  0  0  0  0  0  0  0  0  0  0  0
  161.9510  206.6470  148.9690 C   0  0  0  0  0  3  0  0  0  0  0  0
  161.1610  202.8100  148.0580 C   0  0  0  0  0  0  0  0  0  0  0  0
  160.9450  201.6220  148.7600 C   0  0  0  0  0  3  0  0  0  0  0  0
  161.1320  204.0610  150.1460 C   0  0  0  0  0  0  0  0  0  0  0  0
  160.8130  201.6480  150.1500 C   0  0  0  0  0  3  0  0  0  0  0  0
  161.2470  204.0230  148.7470 C   0  0  0  0  0  3  0  0  0  0  0  0
  160.9010  202.8610  150.8380 C   0  0  0  0  0  3  0  0  0  0  0  0
  161.2820  202.7880  146.7090 F   0  0  0  0  0  0  0  0  0  0  0  0
  161.6950  210.3640  155.7360 C   0  0  0  0  0  2  0  0  0  0  0  0
  158.9800  210.3570  154.6690 F   0  0  0  0  0  0  0  0  0  0  0  0
  160.5380  211.1690  156.3040 C   0  0  2  0  0  3  0  0  0  0  0  0
  159.5150  211.5130  155.2090 C   0  0  2  0  0  3  0  0  0  0  0  0
  159.0160  213.5460  156.0640 C   0  0  0  0  0  2  0  0  0  0  0  0
  159.9560  213.4170  157.2610 C   0  0  0  0  0  2  0  0  0  0  0  0
  161.0900  212.4660  156.8940 C   0  0  0  0  0  2  0  0  0  0  0  0
  158.4710  212.2880  155.7510 O   0  0  0  0  0  0  0  0  0  0  0  0
  1  8  1  0  0  0  0
  2 14  1  0  0  0  0
  3 18  1  0  0  0  0
  4 10  1  0  0  0  0
  5  6  1  0  0  0  0
  6  2  2  0  0  0  0
  7 17  2  0  0  0  0
  8  2  1  0  0  0  0
  8  3  2  0  0  0  0
 11  5  2  0  0  0  0
 11  1  1  0  0  0  0
 12 16  1  0  0  0  0
 12  3  1  0  0  0  0
 13 19  1  0  0  0  0
 13  1  2  0  0  0  0
 15  4  1  0  0  0  0
 16 15  2  0  0  0  0
 17 10  1  0  0  0  0
 17  9  1  0  0  0  0
 18  4  2  0  0  0  0
 18  7  1  0  0  0  0
 19 12  2  0  0  0  0
 20 24  2  0  0  0  0
 20 21  1  0  0  0  0
 21 23  2  0  0  0  0
 22 25  2  0  0  0  0
 22 16  1  0  0  0  0
 23 25  1  0  0  0  0
 24 22  1  0  0  0  0
 26 20  1  0  0  0  0
 27  9  1  0  0  0  0
 29 27  1  6  0  0  0
 29 33  1  0  0  0  0
 30 28  1  1  0  0  0
 30 34  1  0  0  0  0
 30 29  1  0  0  0  0
 31 32  1  0  0  0  0
 33 32  1  0  0  0  0
 34 31  1  0  0  0  0
M  END
>  <MODEL>
2

>  <REMARK>
 VINA RESULT:      -9.0      2.778      5.188
  Name = 
  3 active torsions:
  status: ('A' for Active; 'I' for Inactive)
    1  A    between atoms: C_3  and  C_13
    2  A    between atoms: C_3  and  N_17
    3  A    between atoms: C_12  and  C_28
                            x       y       z     vdW  Elec       q    Type
                         _______ _______ _______ _____ _____    ______ ____

>  <TORSDO>
F 3

$$$$
=
 OpenBabel11062407523D

 34 39  0  0  1  0  0  0  0  0999 V2000
  160.7840  206.4550  153.5060 C   0  0  0  0  0  0  0  0  0  0  0  0
  161.9020  208.5220  152.8950 C   0  0  0  0  0  0  0  0  0  0  0  0
  161.4320  206.7340  151.1580 C   0  0  0  0  0  0  0  0  0  0  0  0
  161.7470  206.8880  148.7580 C   0  0  0  0  0  0  0  0  0  0  0  0
  160.9720  208.2460  155.1180 C   0  0  0  0  0  3  0  0  0  0  0  0
  161.6600  209.0110  154.1810 C   0  0  0  0  0  3  0  0  0  0  0  0
  161.5720  208.8640  149.9070 N   0  0  0  0  0  0  0  0  0  0  0  0
  161.3640  207.2660  152.4900 C   0  0  0  0  0  0  0  0  0  0  0  0
  161.7230  210.6650  148.2560 N   0  0  0  0  0  2  0  0  0  0  0  0
  161.8730  208.0210  147.5270 S   0  0  0  0  0  0  0  0  0  0  0  0
  160.5620  206.9600  154.7890 C   0  0  0  0  0  3  0  0  0  0  0  0
  161.2020  205.3330  150.9580 C   0  0  0  0  0  0  0  0  0  0  0  0
  160.4650  205.1250  153.2620 C   0  0  0  0  0  3  0  0  0  0  0  0
  162.7660  209.2560  152.0950 O   0  0  0  0  0  1  0  0  0  0  0  0
  161.6480  205.5530  148.6010 N   0  0  0  0  0  0  0  0  0  0  0  0
  161.3880  204.7460  149.6690 C   0  0  0  0  0  0  0  0  0  0  0  0
  161.7210  209.2890  148.6300 C   0  0  0  0  0  0  0  0  0  0  0  0
  161.6230  207.5080  149.9880 C   0  0  0  0  0  0  0  0  0  0  0  0
  160.7010  204.5660  152.0150 C   0  0  0  0  0  3  0  0  0  0  0  0
  161.0890  201.3960  147.8890 C   0  0  0  0  0  0  0  0  0  0  0  0
  160.9750  200.5250  148.9750 C   0  0  0  0  0  3  0  0  0  0  0  0
  161.2750  203.2870  149.4120 C   0  0  0  0  0  0  0  0  0  0  0  0
  161.0000  201.0280  150.2780 C   0  0  0  0  0  3  0  0  0  0  0  0
  161.2320  202.7690  148.1070 C   0  0  0  0  0  3  0  0  0  0  0  0
  161.1440  202.4010  150.4940 C   0  0  0  0  0  3  0  0  0  0  0  0
  161.0570  200.9110  146.6250 F   0  0  0  0  0  0  0  0  0  0  0  0
  161.5810  211.7220  149.2440 C   0  0  0  0  0  2  0  0  0  0  0  0
  159.1280  213.0990  148.4730 F   0  0  0  0  0  0  0  0  0  0  0  0
  161.5270  213.0760  148.5570 C   0  0  2  0  0  3  0  0  0  0  0  0
  160.2630  213.2050  147.6910 C   0  0  2  0  0  3  0  0  0  0  0  0
  161.2790  214.4220  146.0780 C   0  0  0  0  0  2  0  0  0  0  0  0
  162.6370  214.4530  146.7740 C   0  0  0  0  0  2  0  0  0  0  0  0
  162.7590  213.2220  147.6670 C   0  0  0  0  0  2  0  0  0  0  0  0
  160.2520  214.4530  147.0380 O   0  0  0  0  0  0  0  0  0  0  0  0
  1 11  2  0  0  0  0
  2  6  1  0  0  0  0
  3  8  1  0  0  0  0
  4 18  1  0  0  0  0
  6  5  2  0  0  0  0
  7 18  1  0  0  0  0
  8  2  2  0  0  0  0
  8  1  1  0  0  0  0
  9 17  1  0  0  0  0
  9 27  1  0  0  0  0
 10 17  1  0  0  0  0
 10  4  1  0  0  0  0
 11  5  1  0  0  0  0
 12  3  1  0  0  0  0
 12 19  1  0  0  0  0
 13  1  1  0  0  0  0
 14  2  1  0  0  0  0
 15  4  2  0  0  0  0
 15 16  1  0  0  0  0
 16 12  2  0  0  0  0
 17  7  2  0  0  0  0
 18  3  2  0  0  0  0
 19 13  2  0  0  0  0
 20 24  2  0  0  0  0
 20 21  1  0  0  0  0
 21 23  2  0  0  0  0
 22 16  1  0  0  0  0
 22 25  2  0  0  0  0
 23 25  1  0  0  0  0
 24 22  1  0  0  0  0
 26 20  1  0  0  0  0
 29 27  1  6  0  0  0
 30 28  1  1  0  0  0
 30 29  1  0  0  0  0
 31 32  1  0  0  0  0
 31 34  1  0  0  0  0
 32 33  1  0  0  0  0
 33 29  1  0  0  0  0
 34 30  1  0  0  0  0
M  END
>  <MODEL>
3

>  <REMARK>
 VINA RESULT:      -8.6      1.348      1.791
  Name = 
  3 active torsions:
  status: ('A' for Active; 'I' for Inactive)
    1  A    between atoms: C_3  and  C_13
    2  A    between atoms: C_3  and  N_17
    3  A    between atoms: C_12  and  C_28
                            x       y       z     vdW  Elec       q    Type
                         _______ _______ _______ _____ _____    ______ ____

>  <TORSDO>
F 3

$$$$
=
 OpenBabel11062407523D

 34 39  0  0  1  0  0  0  0  0999 V2000
  161.1100  204.3570  152.4660 C   0  0  0  0  0  0  0  0  0  0  0  0
  160.7360  203.7640  150.1410 C   0  0  0  0  0  0  0  0  0  0  0  0
  161.1960  206.1660  150.8130 C   0  0  0  0  0  0  0  0  0  0  0  0
  161.5770  208.0610  149.3480 C   0  0  0  0  0  0  0  0  0  0  0  0
  160.9460  202.0310  151.8270 C   0  0  0  0  0  3  0  0  0  0  0  0
  160.7390  202.4140  150.5050 C   0  0  0  0  0  3  0  0  0  0  0  0
  161.9190  205.9780  148.4540 N   0  0  0  0  0  0  0  0  0  0  0  0
  161.0380  204.7690  151.1050 C   0  0  0  0  0  0  0  0  0  0  0  0
  162.6550  206.3060  146.1430 N   0  0  0  0  0  2  0  0  0  0  0  0
  162.0620  208.4280  147.7850 S   0  0  0  0  0  0  0  0  0  0  0  0
  161.1010  203.0030  152.8080 C   0  0  0  0  0  3  0  0  0  0  0  0
  161.1210  207.1120  151.8870 C   0  0  0  0  0  0  0  0  0  0  0  0
  161.1480  205.2910  153.4930 C   0  0  0  0  0  3  0  0  0  0  0  0
  160.3210  204.0670  148.8520 O   0  0  0  0  0  1  0  0  0  0  0  0
  161.3840  208.9460  150.3470 N   0  0  0  0  0  0  0  0  0  0  0  0
  161.1460  208.5150  151.6180 C   0  0  0  0  0  0  0  0  0  0  0  0
  162.2230  206.7890  147.4120 C   0  0  0  0  0  0  0  0  0  0  0  0
  161.5180  206.6920  149.5380 C   0  0  0  0  0  0  0  0  0  0  0  0
  161.1210  206.6480  153.2070 C   0  0  0  0  0  3  0  0  0  0  0  0
  161.7390  210.7520  154.6390 C   0  0  0  0  0  0  0  0  0  0  0  0
  160.5360  211.4610  154.6880 C   0  0  0  0  0  3  0  0  0  0  0  0
  160.9630  209.5510  152.6690 C   0  0  0  0  0  0  0  0  0  0  0  0
  159.5430  211.2140  153.7380 C   0  0  0  0  0  3  0  0  0  0  0  0
  161.9470  209.7980  153.6390 C   0  0  0  0  0  3  0  0  0  0  0  0
  159.7530  210.2610  152.7380 C   0  0  0  0  0  3  0  0  0  0  0  0
  162.7010  210.9850  155.5640 F   0  0  0  0  0  0  0  0  0  0  0  0
  162.7850  204.8840  145.8730 C   0  0  0  0  0  2  0  0  0  0  0  0
  162.0570  202.4950  147.3800 F   0  0  0  0  0  0  0  0  0  0  0  0
  161.4150  204.2280  145.8490 C   0  0  2  0  0  3  0  0  0  0  0  0
  161.5190  202.7200  146.1250 C   0  0  2  0  0  3  0  0  0  0  0  0
  159.8390  202.1640  144.7170 C   0  0  0  0  0  2  0  0  0  0  0  0
  159.5310  203.6030  144.3100 C   0  0  0  0  0  2  0  0  0  0  0  0
  160.7960  204.4400  144.4680 C   0  0  0  0  0  2  0  0  0  0  0  0
  160.2430  202.1280  146.0640 O   0  0  0  0  0  0  0  0  0  0  0  0
  1 11  1  0  0  0  0
  1 13  1  0  0  0  0
  2  6  2  0  0  0  0
  2  8  1  0  0  0  0
  3  8  1  0  0  0  0
  3 12  1  0  0  0  0
  4 18  1  0  0  0  0
  4 15  2  0  0  0  0
  5 11  2  0  0  0  0
  6  5  1  0  0  0  0
  7 18  1  0  0  0  0
  8  1  2  0  0  0  0
  9 17  1  0  0  0  0
 10  4  1  0  0  0  0
 12 19  1  0  0  0  0
 14  2  1  0  0  0  0
 15 16  1  0  0  0  0
 16 12  2  0  0  0  0
 16 22  1  0  0  0  0
 17 10  1  0  0  0  0
 17  7  2  0  0  0  0
 18  3  2  0  0  0  0
 19 13  2  0  0  0  0
 20 21  1  0  0  0  0
 20 26  1  0  0  0  0
 22 25  2  0  0  0  0
 22 24  1  0  0  0  0
 23 21  2  0  0  0  0
 24 20  2  0  0  0  0
 25 23  1  0  0  0  0
 27  9  1  0  0  0  0
 29 27  1  6  0  0  0
 29 30  1  0  0  0  0
 30 28  1  1  0  0  0
 31 34  1  0  0  0  0
 32 33  1  0  0  0  0
 32 31  1  0  0  0  0
 33 29  1  0  0  0  0
 34 30  1  0  0  0  0
M  END
>  <MODEL>
4

>  <REMARK>
 VINA RESULT:      -8.4      3.534      7.622
  Name = 
  3 active torsions:
  status: ('A' for Active; 'I' for Inactive)
    1  A    between atoms: C_3  and  C_13
    2  A    between atoms: C_3  and  N_17
    3  A    between atoms: C_12  and  C_28
                            x       y       z     vdW  Elec       q    Type
                         _______ _______ _______ _____ _____    ______ ____

>  <TORSDO>
F 3

$$$$
=
 OpenBabel11062407523D

 34 39  0  0  1  0  0  0  0  0999 V2000
  160.9060  204.3240  152.1530 C   0  0  0  0  0  0  0  0  0  0  0  0
  162.0210  206.4800  152.0980 C   0  0  0  0  0  0  0  0  0  0  0  0
  161.4580  205.2500  149.9520 C   0  0  0  0  0  0  0  0  0  0  0  0
  161.6730  206.0720  147.6800 C   0  0  0  0  0  0  0  0  0  0  0  0
  161.1820  205.5910  154.1930 C   0  0  0  0  0  3  0  0  0  0  0  0
  161.8400  206.5880  153.4790 C   0  0  0  0  0  3  0  0  0  0  0  0
  161.5690  207.6460  149.3430 N   0  0  0  0  0  0  0  0  0  0  0  0
  161.4520  205.3870  151.3810 C   0  0  0  0  0  0  0  0  0  0  0  0
  161.6720  209.8380  148.2580 N   0  0  0  0  0  2  0  0  0  0  0  0
  161.7600  207.5040  146.8110 S   0  0  0  0  0  0  0  0  0  0  0  0
  160.7440  204.4480  153.5350 C   0  0  0  0  0  3  0  0  0  0  0  0
  161.2030  203.9610  149.3770 C   0  0  0  0  0  0  0  0  0  0  0  0
  160.5610  203.1150  151.5610 C   0  0  0  0  0  3  0  0  0  0  0  0
  162.8590  207.4090  151.4980 O   0  0  0  0  0  1  0  0  0  0  0  0
  161.5520  204.8340  147.1600 N   0  0  0  0  0  0  0  0  0  0  0  0
  161.3280  203.7600  147.9690 C   0  0  0  0  0  0  0  0  0  0  0  0
  161.6690  208.4130  148.2310 C   0  0  0  0  0  0  0  0  0  0  0  0
  161.6080  206.3220  149.0390 C   0  0  0  0  0  0  0  0  0  0  0  0
  160.7390  202.9280  150.1980 C   0  0  0  0  0  3  0  0  0  0  0  0
  160.4560  201.0270  145.4680 C   0  0  0  0  0  0  0  0  0  0  0  0
  160.8640  199.8870  146.1640 C   0  0  0  0  0  3  0  0  0  0  0  0
  161.1870  202.4310  147.3190 C   0  0  0  0  0  0  0  0  0  0  0  0
  161.4240  200.0110  147.4370 C   0  0  0  0  0  3  0  0  0  0  0  0
  160.6110  202.2910  146.0450 C   0  0  0  0  0  3  0  0  0  0  0  0
  161.5800  201.2750  148.0130 C   0  0  0  0  0  3  0  0  0  0  0  0
  159.9060  200.9090  144.2360 F   0  0  0  0  0  0  0  0  0  0  0  0
  161.5840  210.5750  149.5070 C   0  0  0  0  0  2  0  0  0  0  0  0
  160.1840  212.8500  150.6810 F   0  0  0  0  0  0  0  0  0  0  0  0
  161.9560  212.0310  149.2840 C   0  0  2  0  0  3  0  0  0  0  0  0
  160.7240  212.9420  149.4100 C   0  0  2  0  0  3  0  0  0  0  0  0
  161.3960  214.3760  147.7970 C   0  0  0  0  0  2  0  0  0  0  0  0
  162.7070  213.6460  147.5130 C   0  0  0  0  0  2  0  0  0  0  0  0
  162.5390  212.1750  147.8790 C   0  0  0  0  0  2  0  0  0  0  0  0
  161.0850  214.2800  149.1650 O   0  0  0  0  0  0  0  0  0  0  0  0
  1 11  2  0  0  0  0
  2  6  1  0  0  0  0
  3  8  1  0  0  0  0
  4 18  1  0  0  0  0
  6  5  2  0  0  0  0
  8  2  2  0  0  0  0
  8  1  1  0  0  0  0
  9 27  1  0  0  0  0
 10  4  1  0  0  0  0
 10 17  1  0  0  0  0
 11  5  1  0  0  0  0
 12  3  1  0  0  0  0
 12 19  1  0  0  0  0
 13  1  1  0  0  0  0
 14  2  1  0  0  0  0
 15  4  2  0  0  0  0
 15 16  1  0  0  0  0
 16 12  2  0  0  0  0
 17  9  1  0  0  0  0
 17  7  2  0  0  0  0
 18  7  1  0  0  0  0
 18  3  2  0  0  0  0
 19 13  2  0  0  0  0
 20 24  2  0  0  0  0
 20 21  1  0  0  0  0
 21 23  2  0  0  0  0
 22 16  1  0  0  0  0
 22 25  2  0  0  0  0
 23 25  1  0  0  0  0
 24 22  1  0  0  0  0
 26 20  1  0  0  0  0
 29 30  1  0  0  0  0
 29 27  1  6  0  0  0
 30 28  1  1  0  0  0
 31 34  1  0  0  0  0
 32 31  1  0  0  0  0
 32 33  1  0  0  0  0
 33 29  1  0  0  0  0
 34 30  1  0  0  0  0
M  END
>  <MODEL>
5

>  <REMARK>
 VINA RESULT:      -8.0      2.085      3.296
  Name = 
  3 active torsions:
  status: ('A' for Active; 'I' for Inactive)
    1  A    between atoms: C_3  and  C_13
    2  A    between atoms: C_3  and  N_17
    3  A    between atoms: C_12  and  C_28
                            x       y       z     vdW  Elec       q    Type
                         _______ _______ _______ _____ _____    ______ ____

>  <TORSDO>
F 3

$$$$
=
 OpenBabel11062407523D

 34 39  0  0  1  0  0  0  0  0999 V2000
  161.1770  203.0180  151.6180 C   0  0  0  0  0  0  0  0  0  0  0  0
  160.6800  202.9310  149.2440 C   0  0  0  0  0  0  0  0  0  0  0  0
  161.1510  205.1420  150.3940 C   0  0  0  0  0  0  0  0  0  0  0  0
  161.4280  207.3170  149.3560 C   0  0  0  0  0  0  0  0  0  0  0  0
  161.0040  200.8820  150.5010 C   0  0  0  0  0  3  0  0  0  0  0  0
  160.7190  201.5360  149.3060 C   0  0  0  0  0  3  0  0  0  0  0  0
  161.7430  205.4840  148.0160 N   0  0  0  0  0  0  0  0  0  0  0  0
  161.0240  203.7120  150.3850 C   0  0  0  0  0  0  0  0  0  0  0  0
  162.3460  206.3190  145.7950 N   0  0  0  0  0  2  0  0  0  0  0  0
  161.8220  208.0230  147.8860 S   0  0  0  0  0  0  0  0  0  0  0  0
  161.2020  201.6230  151.6600 C   0  0  0  0  0  3  0  0  0  0  0  0
  161.1250  205.8330  151.6500 C   0  0  0  0  0  0  0  0  0  0  0  0
  161.2610  203.7100  152.8210 C   0  0  0  0  0  3  0  0  0  0  0  0
  160.1910  203.4950  148.0740 O   0  0  0  0  0  1  0  0  0  0  0  0
  161.2810  207.9610  150.5320 N   0  0  0  0  0  0  0  0  0  0  0  0
  161.1190  207.2610  151.6900 C   0  0  0  0  0  0  0  0  0  0  0  0
  161.9790  206.5070  147.1600 C   0  0  0  0  0  0  0  0  0  0  0  0
  161.3950  205.9380  149.2490 C   0  0  0  0  0  0  0  0  0  0  0  0
  161.2030  205.0960  152.8360 C   0  0  0  0  0  3  0  0  0  0  0  0
  160.9780  210.1550  154.1570 C   0  0  0  0  0  0  0  0  0  0  0  0
  160.8030  209.4720  155.3620 C   0  0  0  0  0  3  0  0  0  0  0  0
  160.9830  208.0420  152.9480 C   0  0  0  0  0  0  0  0  0  0  0  0
  160.7280  208.0770  155.3680 C   0  0  0  0  0  3  0  0  0  0  0  0
  161.0730  209.4430  152.9580 C   0  0  0  0  0  3  0  0  0  0  0  0
  160.8210  207.3670  154.1680 C   0  0  0  0  0  3  0  0  0  0  0  0
  161.0600  211.5070  154.1500 F   0  0  0  0  0  0  0  0  0  0  0  0
  162.4760  204.9910  145.2180 C   0  0  0  0  0  2  0  0  0  0  0  0
  162.3340  202.4420  146.6290 F   0  0  0  0  0  0  0  0  0  0  0  0
  161.2020  204.1950  145.4430 C   0  0  2  0  0  3  0  0  0  0  0  0
  161.5030  202.6910  145.5520 C   0  0  2  0  0  3  0  0  0  0  0  0
  159.5990  202.0540  144.5110 C   0  0  0  0  0  2  0  0  0  0  0  0
  159.0770  203.4750  144.3140 C   0  0  0  0  0  2  0  0  0  0  0  0
  160.2640  204.4310  144.2600 C   0  0  0  0  0  2  0  0  0  0  0  0
  160.3050  201.9710  145.7250 O   0  0  0  0  0  0  0  0  0  0  0  0
  1 11  1  0  0  0  0
  1 13  1  0  0  0  0
  2  6  2  0  0  0  0
  2  8  1  0  0  0  0
  3 12  1  0  0  0  0
  4 15  2  0  0  0  0
  5 11  2  0  0  0  0
  6  5  1  0  0  0  0
  7 18  1  0  0  0  0
  8  3  1  0  0  0  0
  8  1  2  0  0  0  0
  9 17  1  0  0  0  0
 10  4  1  0  0  0  0
 12 16  2  0  0  0  0
 12 19  1  0  0  0  0
 13 19  2  0  0  0  0
 14  2  1  0  0  0  0
 15 16  1  0  0  0  0
 16 22  1  0  0  0  0
 17 10  1  0  0  0  0
 17  7  2  0  0  0  0
 18  4  1  0  0  0  0
 18  3  2  0  0  0  0
 20 21  1  0  0  0  0
 21 23  2  0  0  0  0
 22 24  1  0  0  0  0
 22 25  2  0  0  0  0
 24 20  2  0  0  0  0
 25 23  1  0  0  0  0
 26 20  1  0  0  0  0
 27  9  1  0  0  0  0
 29 27  1  6  0  0  0
 29 30  1  0  0  0  0
 30 34  1  0  0  0  0
 30 28  1  1  0  0  0
 31 34  1  0  0  0  0
 32 31  1  0  0  0  0
 33 32  1  0  0  0  0
 33 29  1  0  0  0  0
M  END
>  <MODEL>
6

>  <REMARK>
 VINA RESULT:      -7.4      3.789      7.686
  Name = 
  3 active torsions:
  status: ('A' for Active; 'I' for Inactive)
    1  A    between atoms: C_3  and  C_13
    2  A    between atoms: C_3  and  N_17
    3  A    between atoms: C_12  and  C_28
                            x       y       z     vdW  Elec       q    Type
                         _______ _______ _______ _____ _____    ______ ____

>  <TORSDO>
F 3

$$$$
=
 OpenBabel11062407523D

 34 39  0  0  1  0  0  0  0  0999 V2000
  160.9150  206.3970  152.8800 C   0  0  0  0  0  0  0  0  0  0  0  0
  161.6550  208.6680  153.3200 C   0  0  0  0  0  0  0  0  0  0  0  0
  161.4610  207.7990  150.9440 C   0  0  0  0  0  0  0  0  0  0  0  0
  161.6990  209.0620  148.8870 C   0  0  0  0  0  0  0  0  0  0  0  0
  160.8280  207.2790  155.1290 C   0  0  0  0  0  3  0  0  0  0  0  0
  161.3590  208.4820  154.6730 C   0  0  0  0  0  3  0  0  0  0  0  0
  161.2140  210.2560  150.7830 N   0  0  0  0  0  0  0  0  0  0  0  0
  161.3290  207.6590  152.3670 C   0  0  0  0  0  0  0  0  0  0  0  0
  161.0260  212.6040  150.1190 N   0  0  0  0  0  2  0  0  0  0  0  0
  161.6070  210.6300  148.2990 S   0  0  0  0  0  0  0  0  0  0  0  0
  160.6360  206.2300  154.2380 C   0  0  0  0  0  3  0  0  0  0  0  0
  161.4680  206.6200  150.1290 C   0  0  0  0  0  0  0  0  0  0  0  0
  160.8210  205.2860  152.0510 C   0  0  0  0  0  3  0  0  0  0  0  0
  162.3670  209.8100  152.9830 O   0  0  0  0  0  1  0  0  0  0  0  0
  161.8240  207.9420  148.1470 N   0  0  0  0  0  0  0  0  0  0  0  0
  161.7250  206.7130  148.7260 C   0  0  0  0  0  0  0  0  0  0  0  0
  161.2640  211.2270  149.8400 C   0  0  0  0  0  0  0  0  0  0  0  0
  161.4960  209.0360  150.2550 C   0  0  0  0  0  0  0  0  0  0  0  0
  161.1250  205.3920  150.7020 C   0  0  0  0  0  3  0  0  0  0  0  0
  161.4990  203.1640  147.3720 C   0  0  0  0  0  0  0  0  0  0  0  0
  162.2010  203.2890  146.1720 C   0  0  0  0  0  3  0  0  0  0  0  0
  161.8560  205.5260  147.8410 C   0  0  0  0  0  0  0  0  0  0  0  0
  162.7400  204.5250  145.8060 C   0  0  0  0  0  3  0  0  0  0  0  0
  161.3330  204.2750  148.2040 C   0  0  0  0  0  3  0  0  0  0  0  0
  162.5720  205.6350  146.6380 C   0  0  0  0  0  3  0  0  0  0  0  0
  160.9820  201.9650  147.7320 F   0  0  0  0  0  0  0  0  0  0  0  0
  160.7270  213.0680  151.4630 C   0  0  0  0  0  2  0  0  0  0  0  0
  158.3050  214.4370  150.5860 F   0  0  0  0  0  0  0  0  0  0  0  0
  159.3140  212.6670  151.8530 C   0  0  2  0  0  3  0  0  0  0  0  0
  158.3740  213.8830  151.8510 C   0  0  2  0  0  3  0  0  0  0  0  0
  157.1530  213.1670  153.6140 C   0  0  0  0  0  2  0  0  0  0  0  0
  157.9340  211.8670  153.7930 C   0  0  0  0  0  2  0  0  0  0  0  0
  159.3480  212.0660  153.2580 C   0  0  0  0  0  2  0  0  0  0  0  0
  157.0810  213.4940  152.2490 O   0  0  0  0  0  0  0  0  0  0  0  0
  1 11  2  0  0  0  0
  2  6  1  0  0  0  0
  3  8  1  0  0  0  0
  4 18  2  0  0  0  0
  6  5  2  0  0  0  0
  8  1  1  0  0  0  0
  8  2  2  0  0  0  0
  9 27  1  0  0  0  0
 10  4  1  0  0  0  0
 10 17  1  0  0  0  0
 11  5  1  0  0  0  0
 12 19  1  0  0  0  0
 12  3  2  0  0  0  0
 13  1  1  0  0  0  0
 14  2  1  0  0  0  0
 15 16  2  0  0  0  0
 15  4  1  0  0  0  0
 16 12  1  0  0  0  0
 17  9  1  0  0  0  0
 17  7  2  0  0  0  0
 18  7  1  0  0  0  0
 18  3  1  0  0  0  0
 19 13  2  0  0  0  0
 20 26  1  0  0  0  0
 20 24  1  0  0  0  0
 21 20  2  0  0  0  0
 22 24  2  0  0  0  0
 22 16  1  0  0  0  0
 23 21  1  0  0  0  0
 23 25  2  0  0  0  0
 25 22  1  0  0  0  0
 29 27  1  1  0  0  0
 29 33  1  0  0  0  0
 30 28  1  6  0  0  0
 30 29  1  0  0  0  0
 30 34  1  0  0  0  0
 31 32  1  0  0  0  0
 33 32  1  0  0  0  0
 34 31  1  0  0  0  0
M  END
>  <MODEL>
7

>  <REMARK>
 VINA RESULT:      -7.1      2.197      3.144
  Name = 
  3 active torsions:
  status: ('A' for Active; 'I' for Inactive)
    1  A    between atoms: C_3  and  C_13
    2  A    between atoms: C_3  and  N_17
    3  A    between atoms: C_12  and  C_28
                            x       y       z     vdW  Elec       q    Type
                         _______ _______ _______ _____ _____    ______ ____

>  <TORSDO>
F 3

$$$$
=
 OpenBabel11062407523D

 34 39  0  0  1  0  0  0  0  0999 V2000
  160.7830  207.0910  154.8670 C   0  0  0  0  0  0  0  0  0  0  0  0
  161.1320  209.3280  155.7440 C   0  0  0  0  0  0  0  0  0  0  0  0
  160.9070  208.9280  153.2490 C   0  0  0  0  0  0  0  0  0  0  0  0
  160.7430  210.5960  151.4960 C   0  0  0  0  0  0  0  0  0  0  0  0
  160.7210  207.4740  157.2530 C   0  0  0  0  0  3  0  0  0  0  0  0
  160.9870  208.8230  157.0380 C   0  0  0  0  0  3  0  0  0  0  0  0
  160.2060  211.2720  153.6190 N   0  0  0  0  0  0  0  0  0  0  0  0
  160.9190  208.4850  154.6140 C   0  0  0  0  0  0  0  0  0  0  0  0
  159.5430  213.6240  153.4730 N   0  0  0  0  0  2  0  0  0  0  0  0
  160.3220  212.2020  151.2540 S   0  0  0  0  0  0  0  0  0  0  0  0
  160.6500  206.6060  156.1700 C   0  0  0  0  0  3  0  0  0  0  0  0
  161.0600  207.9590  152.2030 C   0  0  0  0  0  0  0  0  0  0  0  0
  160.8240  206.1700  153.8280 C   0  0  0  0  0  3  0  0  0  0  0  0
  161.5960  210.6310  155.6250 O   0  0  0  0  0  1  0  0  0  0  0  0
  161.0090  209.6920  150.5310 N   0  0  0  0  0  0  0  0  0  0  0  0
  161.1810  208.3760  150.8430 C   0  0  0  0  0  0  0  0  0  0  0  0
  160.0030  212.4020  152.9000 C   0  0  0  0  0  0  0  0  0  0  0  0
  160.6600  210.2600  152.8350 C   0  0  0  0  0  0  0  0  0  0  0  0
  160.9930  206.5980  152.5200 C   0  0  0  0  0  3  0  0  0  0  0  0
  161.2710  205.2410  148.6880 C   0  0  0  0  0  0  0  0  0  0  0  0
  162.0610  205.6720  147.6200 C   0  0  0  0  0  3  0  0  0  0  0  0
  161.4520  207.4380  149.7220 C   0  0  0  0  0  0  0  0  0  0  0  0
  162.5560  206.9770  147.6020 C   0  0  0  0  0  3  0  0  0  0  0  0
  160.9740  206.1170  149.7360 C   0  0  0  0  0  3  0  0  0  0  0  0
  162.2570  207.8530  148.6490 C   0  0  0  0  0  3  0  0  0  0  0  0
  160.7960  203.9720  148.7120 F   0  0  0  0  0  0  0  0  0  0  0  0
  159.2750  213.7440  154.8960 C   0  0  0  0  0  2  0  0  0  0  0  0
  157.6410  212.4020  156.9050 F   0  0  0  0  0  0  0  0  0  0  0  0
  157.7980  214.0100  155.1300 C   0  0  2  0  0  3  0  0  0  0  0  0
  157.0930  212.7620  155.6870 C   0  0  2  0  0  3  0  0  0  0  0  0
  155.1590  213.1410  154.5790 C   0  0  0  0  0  2  0  0  0  0  0  0
  155.6350  214.4370  153.9270 C   0  0  0  0  0  2  0  0  0  0  0  0
  157.1540  214.3930  153.7980 C   0  0  0  0  0  2  0  0  0  0  0  0
  155.7210  213.0210  155.8620 O   0  0  0  0  0  0  0  0  0  0  0  0
  1 11  2  0  0  0  0
  2  6  1  0  0  0  0
  3  8  1  0  0  0  0
  4 18  2  0  0  0  0
  6  5  2  0  0  0  0
  8  1  1  0  0  0  0
  8  2  2  0  0  0  0
  9 27  1  0  0  0  0
 10  4  1  0  0  0  0
 10 17  1  0  0  0  0
 11  5  1  0  0  0  0
 12 19  1  0  0  0  0
 12  3  2  0  0  0  0
 13  1  1  0  0  0  0
 14  2  1  0  0  0  0
 15 16  2  0  0  0  0
 15  4  1  0  0  0  0
 16 12  1  0  0  0  0
 17  9  1  0  0  0  0
 17  7  2  0  0  0  0
 18  3  1  0  0  0  0
 18  7  1  0  0  0  0
 19 13  2  0  0  0  0
 20 26  1  0  0  0  0
 20 24  1  0  0  0  0
 21 20  2  0  0  0  0
 22 24  2  0  0  0  0
 22 16  1  0  0  0  0
 23 21  1  0  0  0  0
 23 25  2  0  0  0  0
 25 22  1  0  0  0  0
 29 27  1  6  0  0  0
 29 30  1  0  0  0  0
 30 34  1  0  0  0  0
 30 28  1  1  0  0  0
 31 34  1  0  0  0  0
 32 31  1  0  0  0  0
 33 32  1  0  0  0  0
 33 29  1  0  0  0  0
M  END
>  <MODEL>
8

>  <REMARK>
 VINA RESULT:      -7.0      3.528      4.681
  Name = 
  3 active torsions:
  status: ('A' for Active; 'I' for Inactive)
    1  A    between atoms: C_3  and  C_13
    2  A    between atoms: C_3  and  N_17
    3  A    between atoms: C_12  and  C_28
                            x       y       z     vdW  Elec       q    Type
                         _______ _______ _______ _____ _____    ______ ____

>  <TORSDO>
F 3

$$$$
=
 OpenBabel11062407523D

 34 39  0  0  1  0  0  0  0  0999 V2000
  160.8070  204.7890  151.6630 C   0  0  0  0  0  0  0  0  0  0  0  0
  161.5960  206.6700  152.9800 C   0  0  0  0  0  0  0  0  0  0  0  0
  161.3810  206.8470  150.4590 C   0  0  0  0  0  0  0  0  0  0  0  0
  161.6430  208.8320  149.0910 C   0  0  0  0  0  0  0  0  0  0  0  0
  160.7430  204.6810  154.0770 C   0  0  0  0  0  3  0  0  0  0  0  0
  161.2990  205.9560  154.1440 C   0  0  0  0  0  3  0  0  0  0  0  0
  161.1870  209.1600  151.3130 N   0  0  0  0  0  0  0  0  0  0  0  0
  161.2480  206.1420  151.7030 C   0  0  0  0  0  0  0  0  0  0  0  0
  161.0490  211.5790  151.6630 N   0  0  0  0  0  2  0  0  0  0  0  0
  161.5850  210.5060  149.1920 S   0  0  0  0  0  0  0  0  0  0  0  0
  160.5260  204.0900  152.8380 C   0  0  0  0  0  3  0  0  0  0  0  0
  161.3600  206.1010  149.2340 C   0  0  0  0  0  0  0  0  0  0  0  0
  160.6870  204.1130  150.4550 C   0  0  0  0  0  3  0  0  0  0  0  0
  162.3330  207.8370  153.1300 O   0  0  0  0  0  1  0  0  0  0  0  0
  161.7430  208.1080  147.9580 N   0  0  0  0  0  0  0  0  0  0  0  0
  161.6180  206.7510  147.9880 C   0  0  0  0  0  0  0  0  0  0  0  0
  161.2560  210.4300  150.8460 C   0  0  0  0  0  0  0  0  0  0  0  0
  161.4410  208.2560  150.3320 C   0  0  0  0  0  0  0  0  0  0  0  0
  160.9910  204.7530  149.2620 C   0  0  0  0  0  3  0  0  0  0  0  0
  162.9180  204.5650  145.1590 C   0  0  0  0  0  0  0  0  0  0  0  0
  161.9150  204.7390  144.2030 C   0  0  0  0  0  3  0  0  0  0  0  0
  161.7210  206.0250  146.6950 C   0  0  0  0  0  0  0  0  0  0  0  0
  160.8200  205.5600  144.4820 C   0  0  0  0  0  3  0  0  0  0  0  0
  162.8240  205.2100  146.3950 C   0  0  0  0  0  3  0  0  0  0  0  0
  160.7270  206.2030  145.7200 C   0  0  0  0  0  3  0  0  0  0  0  0
  163.9840  203.7750  144.8860 F   0  0  0  0  0  0  0  0  0  0  0  0
  160.7620  211.4620  153.0830 C   0  0  0  0  0  2  0  0  0  0  0  0
  159.1160  213.7250  152.2590 F   0  0  0  0  0  0  0  0  0  0  0  0
  159.2670  211.5800  153.3260 C   0  0  2  0  0  3  0  0  0  0  0  0
  158.8400  213.0530  153.4360 C   0  0  2  0  0  3  0  0  0  0  0  0
  157.2590  212.6630  155.0050 C   0  0  0  0  0  2  0  0  0  0  0  0
  157.4880  211.1540  155.0480 C   0  0  0  0  0  2  0  0  0  0  0  0
  158.9270  210.8650  154.6330 C   0  0  0  0  0  2  0  0  0  0  0  0
  157.4590  213.1370  153.6960 O   0  0  0  0  0  0  0  0  0  0  0  0
  1  8  1  0  0  0  0
  1 11  2  0  0  0  0
  2 14  1  0  0  0  0
  2  6  1  0  0  0  0
  3  8  1  0  0  0  0
  4 10  1  0  0  0  0
  4 18  2  0  0  0  0
  5  6  2  0  0  0  0
  8  2  2  0  0  0  0
  9 27  1  0  0  0  0
 10 17  1  0  0  0  0
 11  5  1  0  0  0  0
 12 19  1  0  0  0  0
 12  3  2  0  0  0  0
 13  1  1  0  0  0  0
 15 16  2  0  0  0  0
 15  4  1  0  0  0  0
 16 12  1  0  0  0  0
 17  7  2  0  0  0  0
 17  9  1  0  0  0  0
 18  3  1  0  0  0  0
 18  7  1  0  0  0  0
 19 13  2  0  0  0  0
 20 24  1  0  0  0  0
 21 23  1  0  0  0  0
 21 20  2  0  0  0  0
 22 16  1  0  0  0  0
 23 25  2  0  0  0  0
 24 22  2  0  0  0  0
 25 22  1  0  0  0  0
 26 20  1  0  0  0  0
 29 27  1  1  0  0  0
 29 30  1  0  0  0  0
 29 33  1  0  0  0  0
 30 28  1  6  0  0  0
 30 34  1  0  0  0  0
 31 32  1  0  0  0  0
 33 32  1  0  0  0  0
 34 31  1  0  0  0  0
M  END
>  <MODEL>
9

>  <REMARK>
 VINA RESULT:      -6.8      2.971      4.568
  Name = 
  3 active torsions:
  status: ('A' for Active; 'I' for Inactive)
    1  A    between atoms: C_3  and  C_13
    2  A    between atoms: C_3  and  N_17
    3  A    between atoms: C_12  and  C_28
                            x       y       z     vdW  Elec       q    Type
                         _______ _______ _______ _____ _____    ______ ____

>  <TORSDO>
F 3

$$$$
