=
 OpenBabel11062409053D

 37 41  0  0  1  0  0  0  0  0999 V2000
  161.2910  207.3590  151.0450 C   0  0  0  0  0  0  0  0  0  0  0  0
  161.3870  206.4980  153.3500 C   0  0  0  0  0  2  0  0  0  0  0  0
  161.3170  208.8100  151.4400 C   0  0  2  0  0  3  0  0  0  0  0  0
  161.2520  206.3660  151.8700 C   0  0  0  0  0  0  0  0  0  0  0  0
  162.2810  209.4910  150.6800 O   0  0  0  0  0  0  0  0  0  0  0  0
  161.2770  205.1630  151.1450 N   0  0  0  0  0  2  0  0  0  0  0  0
  160.9690  207.8990  153.8260 C   0  0  2  0  0  3  0  0  0  0  0  0
  162.4020  207.3360  148.8470 C   0  0  0  0  0  2  0  0  0  0  0  0
  161.3280  205.3890  149.7990 O   0  0  0  0  0  0  0  0  0  0  0  0
  161.2290  206.8040  149.6670 C   0  0  1  0  0  3  0  0  0  0  0  0
  161.6130  209.0040  152.9410 C   0  0  2  0  0  3  0  0  0  0  0  0
  161.6750  209.7410  149.4390 C   0  0  2  0  0  3  0  0  0  0  0  0
  162.1870  208.7760  148.3580 C   0  0  0  0  0  2  0  0  0  0  0  0
  159.8500  210.8640  152.8020 C   0  0  0  0  0  2  0  0  0  0  0  0
  158.7240  210.6100  153.7950 C   0  0  0  0  0  2  0  0  0  0  0  0
  159.7140  211.9060  155.7600 C   0  0  2  0  0  3  0  0  0  0  0  0
  158.5780  211.8090  154.7280 C   0  0  2  0  0  3  0  0  0  0  0  0
  160.9940  212.0300  155.1660 O   0  0  0  0  0  0  0  0  0  0  0  0
  161.4740  210.7520  154.8170 C   0  0  1  0  0  3  0  0  0  0  0  0
  159.6300  210.9000  156.9150 C   0  0  0  0  0  1  0  0  0  0  0  0
  161.2290  210.4450  153.3330 C   0  0  1  0  0  3  0  0  0  0  0  0
  163.1900  210.9090  156.6120 C   0  0  0  0  0  1  0  0  0  0  0  0
  162.9590  210.6600  155.1350 C   0  0  0  0  0  2  0  0  0  0  0  0
  156.2310  212.1240  154.7610 C   0  0  0  0  0  2  0  0  0  0  0  0
  157.2970  211.7850  155.3880 N   0  0  0  0  0  0  0  0  0  0  0  0
  163.0050  211.4970  148.2610 C   0  0  0  0  0  3  0  0  0  0  0  0
  161.8800  211.1610  149.0200 C   0  0  0  0  0  0  0  0  0  0  0  0
  160.9770  212.1640  149.4070 C   0  0  0  0  0  3  0  0  0  0  0  0
  160.3110  214.4530  149.3750 F   0  0  0  0  0  0  0  0  0  0  0  0
  162.3200  213.8200  148.2570 C   0  0  0  0  0  3  0  0  0  0  0  0
  161.1960  213.4900  149.0210 C   0  0  0  0  0  0  0  0  0  0  0  0
  163.2240  212.8240  147.8780 C   0  0  0  0  0  3  0  0  0  0  0  0
  161.3870  208.0460  155.2860 C   0  0  0  0  0  2  0  0  0  0  0  0
  160.3570  207.4830  156.2140 C   0  0  0  0  0  0  0  0  0  0  0  0
  160.7080  206.9590  157.2610 O   0  0  0  0  0  0  0  0  0  0  0  0
  158.9040  207.5710  155.8780 C   0  0  0  0  0  2  0  0  0  0  0  0
  158.2970  206.1840  155.8000 C   0  0  0  0  0  1  0  0  0  0  0  0
  1  3  1  0  0  0  0
  1  4  2  0  0  0  0
  2  7  1  0  0  0  0
  3  5  1  6  0  0  0
  3 11  1  0  0  0  0
  4  2  1  0  0  0  0
  6  4  1  0  0  0  0
  7 33  1  1  0  0  0
  9  6  1  0  0  0  0
 10  8  1  6  0  0  0
 10  9  1  0  0  0  0
 10  1  1  0  0  0  0
 11 21  1  1  0  0  0
 11  7  1  0  0  0  0
 12 27  1  6  0  0  0
 12  5  1  0  0  0  0
 13  8  1  0  0  0  0
 13 12  1  0  0  0  0
 14 15  1  0  0  0  0
 15 17  1  0  0  0  0
 16 20  1  6  0  0  0
 17 25  1  1  0  0  0
 17 16  1  0  0  0  0
 18 16  1  0  0  0  0
 19 23  1  6  0  0  0
 19 18  1  0  0  0  0
 21 14  1  1  0  0  0
 21 19  1  0  0  0  0
 23 22  1  0  0  0  0
 24 25  2  0  0  0  0
 26 27  1  0  0  0  0
 27 28  2  0  0  0  0
 30 31  2  0  0  0  0
 31 29  1  0  0  0  0
 31 28  1  0  0  0  0
 32 30  1  0  0  0  0
 32 26  2  0  0  0  0
 33 34  1  0  0  0  0
 34 35  2  0  0  0  0
 36 34  1  0  0  0  0
 37 36  1  0  0  0  0
M  END
>  <MODEL>
1

>  <REMARK>
 VINA RESULT:      -5.2      0.000      0.000
  Name = 
  7 active torsions:
  status: ('A' for Active; 'I' for Inactive)
    1  A    between atoms: C_3  and  C_21
    2  A    between atoms: C_6  and  C_31
    3  A    between atoms: C_17  and  N_23
    4  A    between atoms: C_20  and  C_25
    5  A    between atoms: C_21  and  C_25
    6  A    between atoms: C_27  and  C_33
    7  A    between atoms: C_29  and  C_36
                            x       y       z     vdW  Elec       q    Type
                         _______ _______ _______ _____ _____    ______ ____

>  <TORSDO>
F 7

$$$$
=
 OpenBabel11062409053D

 37 41  0  0  1  0  0  0  0  0999 V2000
  161.5540  210.6560  150.0880 C   0  0  0  0  0  0  0  0  0  0  0  0
  160.5350  212.7650  150.8470 C   0  0  0  0  0  2  0  0  0  0  0  0
  161.1240  209.8570  151.2870 C   0  0  2  0  0  3  0  0  0  0  0  0
  161.3590  211.9230  149.9320 C   0  0  0  0  0  0  0  0  0  0  0  0
  160.5300  208.6560  150.8690 O   0  0  0  0  0  0  0  0  0  0  0  0
  161.8590  212.3150  148.6790 N   0  0  0  0  0  2  0  0  0  0  0  0
  160.4610  212.1520  152.2550 C   0  0  2  0  0  3  0  0  0  0  0  0
  161.6080  208.9930  148.2720 C   0  0  0  0  0  2  0  0  0  0  0  0
  162.4050  211.2600  148.0040 O   0  0  0  0  0  0  0  0  0  0  0  0
  162.3340  210.1710  148.9180 C   0  0  1  0  0  3  0  0  0  0  0  0
  160.1390  210.6330  152.1850 C   0  0  2  0  0  3  0  0  0  0  0  0
  161.5950  207.7960  150.5590 C   0  0  2  0  0  3  0  0  0  0  0  0
  161.7990  207.6770  149.0410 C   0  0  0  0  0  2  0  0  0  0  0  0
  161.4340  209.4130  154.0360 C   0  0  0  0  0  2  0  0  0  0  0  0
  162.1740  210.4080  154.9180 C   0  0  0  0  0  2  0  0  0  0  0  0
  160.3300  210.7560  156.6500 C   0  0  2  0  0  3  0  0  0  0  0  0
  161.7470  210.2280  156.3720 C   0  0  2  0  0  3  0  0  0  0  0  0
  159.3360  210.1140  155.8700 O   0  0  0  0  0  0  0  0  0  0  0  0
  159.2710  210.7220  154.6010 C   0  0  1  0  0  3  0  0  0  0  0  0
  160.2090  212.2830  156.7240 C   0  0  0  0  0  1  0  0  0  0  0  0
  160.0690  209.9290  153.5560 C   0  0  1  0  0  3  0  0  0  0  0  0
  156.9720  211.3360  155.3280 C   0  0  0  0  0  1  0  0  0  0  0  0
  157.8180  210.8460  154.1700 C   0  0  0  0  0  2  0  0  0  0  0  0
  163.8600  211.1940  156.8380 C   0  0  0  0  0  2  0  0  0  0  0  0
  162.6990  210.8470  157.2610 N   0  0  0  0  0  0  0  0  0  0  0  0
  161.3890  206.3240  152.5670 C   0  0  0  0  0  3  0  0  0  0  0  0
  161.3910  206.4490  151.1740 C   0  0  0  0  0  0  0  0  0  0  0  0
  161.2350  205.3070  150.3730 C   0  0  0  0  0  3  0  0  0  0  0  0
  160.8900  202.9550  150.1930 F   0  0  0  0  0  0  0  0  0  0  0  0
  161.0570  203.9340  152.3600 C   0  0  0  0  0  3  0  0  0  0  0  0
  161.0640  204.0530  150.9670 C   0  0  0  0  0  0  0  0  0  0  0  0
  161.2210  205.0690  153.1600 C   0  0  0  0  0  3  0  0  0  0  0  0
  159.3970  212.9090  153.0440 C   0  0  0  0  0  2  0  0  0  0  0  0
  158.2950  213.3970  152.1560 C   0  0  0  0  0  0  0  0  0  0  0  0
  158.1590  212.9190  151.0410 O   0  0  0  0  0  0  0  0  0  0  0  0
  157.3500  214.4530  152.6320 C   0  0  0  0  0  2  0  0  0  0  0  0
  155.9160  214.0040  152.4340 C   0  0  0  0  0  1  0  0  0  0  0  0
  2  7  1  0  0  0  0
  3  1  1  6  0  0  0
  3 11  1  0  0  0  0
  4  1  2  0  0  0  0
  4  2  1  0  0  0  0
  5  3  1  0  0  0  0
  6  4  1  0  0  0  0
  7 33  1  1  0  0  0
  8 13  1  0  0  0  0
  9  6  1  0  0  0  0
  9 10  1  0  0  0  0
 10  8  1  6  0  0  0
 10  1  1  0  0  0  0
 11  7  1  0  0  0  0
 11 21  1  1  0  0  0
 12  5  1  0  0  0  0
 12 27  1  6  0  0  0
 13 12  1  0  0  0  0
 14 15  1  0  0  0  0
 15 17  1  0  0  0  0
 16 20  1  6  0  0  0
 17 16  1  0  0  0  0
 17 25  1  1  0  0  0
 18 16  1  0  0  0  0
 19 23  1  6  0  0  0
 19 18  1  0  0  0  0
 21 14  1  1  0  0  0
 21 19  1  0  0  0  0
 23 22  1  0  0  0  0
 24 25  2  0  0  0  0
 26 32  1  0  0  0  0
 27 26  2  0  0  0  0
 28 31  2  0  0  0  0
 28 27  1  0  0  0  0
 29 31  1  0  0  0  0
 30 32  2  0  0  0  0
 31 30  1  0  0  0  0
 34 36  1  0  0  0  0
 34 33  1  0  0  0  0
 35 34  2  0  0  0  0
 37 36  1  0  0  0  0
M  END
>  <MODEL>
2

>  <REMARK>
 VINA RESULT:      -4.2      3.059      5.988
  Name = 
  7 active torsions:
  status: ('A' for Active; 'I' for Inactive)
    1  A    between atoms: C_3  and  C_21
    2  A    between atoms: C_6  and  C_31
    3  A    between atoms: C_17  and  N_23
    4  A    between atoms: C_20  and  C_25
    5  A    between atoms: C_21  and  C_25
    6  A    between atoms: C_27  and  C_33
    7  A    between atoms: C_29  and  C_36
                            x       y       z     vdW  Elec       q    Type
                         _______ _______ _______ _____ _____    ______ ____

>  <TORSDO>
F 7

$$$$
=
 OpenBabel11062409053D

 37 41  0  0  1  0  0  0  0  0999 V2000
  161.7250  209.1960  150.0070 C   0  0  0  0  0  0  0  0  0  0  0  0
  162.3270  207.8120  148.0620 C   0  0  0  0  0  2  0  0  0  0  0  0
  161.3050  208.0400  150.8730 C   0  0  2  0  0  3  0  0  0  0  0  0
  162.1010  209.1030  148.7750 C   0  0  0  0  0  0  0  0  0  0  0  0
  161.9070  208.1480  152.1360 O   0  0  0  0  0  0  0  0  0  0  0  0
  162.4550  210.3770  148.3040 N   0  0  0  0  0  2  0  0  0  0  0  0
  161.5150  206.6720  148.6980 C   0  0  2  0  0  3  0  0  0  0  0  0
  162.5610  210.8550  151.6250 C   0  0  0  0  0  2  0  0  0  0  0  0
  162.2950  211.3320  149.2680 O   0  0  0  0  0  0  0  0  0  0  0  0
  161.7180  210.6390  150.3700 C   0  0  1  0  0  3  0  0  0  0  0  0
  161.6640  206.6780  150.2460 C   0  0  2  0  0  3  0  0  0  0  0  0
  161.1350  209.0830  152.8440 C   0  0  2  0  0  3  0  0  0  0  0  0
  161.8320  210.4500  152.9140 C   0  0  0  0  0  2  0  0  0  0  0  0
  159.9170  204.8090  150.0360 C   0  0  0  0  0  2  0  0  0  0  0  0
  160.5460  203.5500  149.4540 C   0  0  0  0  0  2  0  0  0  0  0  0
  161.2200  202.4610  151.6630 C   0  0  2  0  0  3  0  0  0  0  0  0
  160.3360  202.3780  150.4080 C   0  0  2  0  0  3  0  0  0  0  0  0
  160.9900  203.6320  152.4280 O   0  0  0  0  0  0  0  0  0  0  0  0
  161.7300  204.7000  151.8830 C   0  0  1  0  0  3  0  0  0  0  0  0
  162.6970  202.1130  151.4400 C   0  0  0  0  0  1  0  0  0  0  0  0
  160.8620  205.5780  150.9710 C   0  0  1  0  0  3  0  0  0  0  0  0
  161.4500  205.4350  154.2440 C   0  0  0  0  0  1  0  0  0  0  0  0
  162.3220  205.5350  153.0080 C   0  0  0  0  0  2  0  0  0  0  0  0
  160.9490  201.1010  148.5100 C   0  0  0  0  0  2  0  0  0  0  0  0
  160.5440  201.1250  149.7260 N   0  0  0  0  0  0  0  0  0  0  0  0
  161.6720  208.8840  155.2750 C   0  0  0  0  0  3  0  0  0  0  0  0
  160.8130  208.5810  154.2140 C   0  0  0  0  0  0  0  0  0  0  0  0
  159.6790  207.7850  154.4430 C   0  0  0  0  0  3  0  0  0  0  0  0
  158.2980  206.5620  155.9520 F   0  0  0  0  0  0  0  0  0  0  0  0
  160.2650  207.6200  156.7870 C   0  0  0  0  0  3  0  0  0  0  0  0
  159.4050  207.3100  155.7290 C   0  0  0  0  0  0  0  0  0  0  0  0
  161.3980  208.4050  156.5600 C   0  0  0  0  0  3  0  0  0  0  0  0
  162.0000  205.3560  148.1000 C   0  0  0  0  0  2  0  0  0  0  0  0
  162.0500  205.4140  146.6050 C   0  0  0  0  0  0  0  0  0  0  0  0
  163.0820  205.1200  146.0220 O   0  0  0  0  0  0  0  0  0  0  0  0
  160.8410  205.8120  145.8210 C   0  0  0  0  0  2  0  0  0  0  0  0
  161.0130  205.4370  144.3620 C   0  0  0  0  0  1  0  0  0  0  0  0
  1 10  1  0  0  0  0
  2  7  1  0  0  0  0
  2  4  1  0  0  0  0
  3  1  1  6  0  0  0
  3  5  1  0  0  0  0
  4  1  2  0  0  0  0
  5 12  1  0  0  0  0
  6  4  1  0  0  0  0
  6  9  1  0  0  0  0
  7 33  1  6  0  0  0
  7 11  1  0  0  0  0
  8 13  1  0  0  0  0
  9 10  1  0  0  0  0
 10  8  1  1  0  0  0
 11  3  1  0  0  0  0
 11 21  1  1  0  0  0
 12 13  1  0  0  0  0
 12 27  1  1  0  0  0
 15 14  1  0  0  0  0
 15 17  1  0  0  0  0
 16 20  1  6  0  0  0
 16 18  1  0  0  0  0
 17 25  1  6  0  0  0
 17 16  1  0  0  0  0
 19 18  1  0  0  0  0
 19 23  1  1  0  0  0
 21 14  1  6  0  0  0
 21 19  1  0  0  0  0
 23 22  1  0  0  0  0
 24 25  2  0  0  0  0
 26 32  1  0  0  0  0
 27 28  1  0  0  0  0
 27 26  2  0  0  0  0
 28 31  2  0  0  0  0
 31 29  1  0  0  0  0
 31 30  1  0  0  0  0
 32 30  2  0  0  0  0
 34 33  1  0  0  0  0
 35 34  2  0  0  0  0
 36 34  1  0  0  0  0
 37 36  1  0  0  0  0
M  END
>  <MODEL>
3

>  <REMARK>
 VINA RESULT:      -4.1      3.441      7.963
  Name = 
  7 active torsions:
  status: ('A' for Active; 'I' for Inactive)
    1  A    between atoms: C_3  and  C_21
    2  A    between atoms: C_6  and  C_31
    3  A    between atoms: C_17  and  N_23
    4  A    between atoms: C_20  and  C_25
    5  A    between atoms: C_21  and  C_25
    6  A    between atoms: C_27  and  C_33
    7  A    between atoms: C_29  and  C_36
                            x       y       z     vdW  Elec       q    Type
                         _______ _______ _______ _____ _____    ______ ____

>  <TORSDO>
F 7

$$$$
=
 OpenBabel11062409053D

 37 41  0  0  1  0  0  0  0  0999 V2000
  161.1770  207.5310  153.3620 C   0  0  0  0  0  0  0  0  0  0  0  0
  161.1910  206.8690  150.9910 C   0  0  0  0  0  2  0  0  0  0  0  0
  161.1700  209.0110  153.0910 C   0  0  2  0  0  3  0  0  0  0  0  0
  161.2550  206.6120  152.4590 C   0  0  0  0  0  0  0  0  0  0  0  0
  160.1710  209.6300  153.8580 O   0  0  0  0  0  0  0  0  0  0  0  0
  161.1940  205.3520  153.0780 N   0  0  0  0  0  2  0  0  0  0  0  0
  161.6310  208.3030  150.6550 C   0  0  2  0  0  3  0  0  0  0  0  0
  159.9620  207.3290  155.4950 C   0  0  0  0  0  2  0  0  0  0  0  0
  161.0800  205.4640  154.4350 O   0  0  0  0  0  0  0  0  0  0  0  0
  161.1730  206.8620  154.6910 C   0  0  1  0  0  3  0  0  0  0  0  0
  160.9450  209.3310  151.5990 C   0  0  2  0  0  3  0  0  0  0  0  0
  160.7170  209.7720  155.1440 C   0  0  2  0  0  3  0  0  0  0  0  0
  160.1540  208.7220  156.1130 C   0  0  0  0  0  2  0  0  0  0  0  0
  162.6170  210.9350  150.4930 C   0  0  0  0  0  2  0  0  0  0  0  0
  162.3250  211.0720  149.0050 C   0  0  0  0  0  2  0  0  0  0  0  0
  160.7440  213.0710  149.1580 C   0  0  2  0  0  3  0  0  0  0  0  0
  162.0960  212.5400  148.6560 C   0  0  2  0  0  3  0  0  0  0  0  0
  160.5990  212.9790  150.5650 O   0  0  0  0  0  0  0  0  0  0  0  0
  160.1710  211.6810  150.9070 C   0  0  1  0  0  3  0  0  0  0  0  0
  159.5250  212.6100  148.3500 C   0  0  0  0  0  1  0  0  0  0  0  0
  161.3480  210.7990  151.3480 C   0  0  1  0  0  3  0  0  0  0  0  0
  158.3350  213.0440  151.8850 C   0  0  0  0  0  1  0  0  0  0  0  0
  159.1320  211.7620  152.0150 C   0  0  0  0  0  2  0  0  0  0  0  0
  162.3690  213.9320  146.7590 C   0  0  0  0  0  2  0  0  0  0  0  0
  162.2250  212.7500  147.2360 N   0  0  0  0  0  0  0  0  0  0  0  0
  161.2660  211.6120  156.7410 C   0  0  0  0  0  3  0  0  0  0  0  0
  160.4930  211.1520  155.6700 C   0  0  0  0  0  0  0  0  0  0  0  0
  159.4970  211.9790  155.1260 C   0  0  0  0  0  3  0  0  0  0  0  0
  158.3450  214.0660  155.1040 F   0  0  0  0  0  0  0  0  0  0  0  0
  160.0710  213.7180  156.7120 C   0  0  0  0  0  3  0  0  0  0  0  0
  159.2910  213.2610  155.6450 C   0  0  0  0  0  0  0  0  0  0  0  0
  161.0570  212.8930  157.2610 C   0  0  0  0  0  3  0  0  0  0  0  0
  161.2830  208.5740  149.1950 C   0  0  0  0  0  2  0  0  0  0  0  0
  161.7670  207.4760  148.2990 C   0  0  0  0  0  0  0  0  0  0  0  0
  162.9660  207.3190  148.1290 O   0  0  0  0  0  0  0  0  0  0  0  0
  160.7950  206.5630  147.6260 C   0  0  0  0  0  2  0  0  0  0  0  0
  161.5070  205.3310  147.1020 C   0  0  0  0  0  1  0  0  0  0  0  0
  1 10  1  0  0  0  0
  2  4  1  0  0  0  0
  3  1  1  6  0  0  0
  3  5  1  0  0  0  0
  4  6  1  0  0  0  0
  4  1  2  0  0  0  0
  5 12  1  0  0  0  0
  6  9  1  0  0  0  0
  7 33  1  6  0  0  0
  7  2  1  0  0  0  0
  7 11  1  0  0  0  0
  8 13  1  0  0  0  0
  9 10  1  0  0  0  0
 10  8  1  1  0  0  0
 11 21  1  6  0  0  0
 11  3  1  0  0  0  0
 12 27  1  1  0  0  0
 12 13  1  0  0  0  0
 15 14  1  0  0  0  0
 16 20  1  6  0  0  0
 16 18  1  0  0  0  0
 17 25  1  6  0  0  0
 17 15  1  0  0  0  0
 17 16  1  0  0  0  0
 18 19  1  0  0  0  0
 19 21  1  0  0  0  0
 19 23  1  1  0  0  0
 21 14  1  6  0  0  0
 22 23  1  0  0  0  0
 24 25  2  0  0  0  0
 26 32  1  0  0  0  0
 27 26  2  0  0  0  0
 28 31  2  0  0  0  0
 28 27  1  0  0  0  0
 29 31  1  0  0  0  0
 30 32  2  0  0  0  0
 31 30  1  0  0  0  0
 34 33  1  0  0  0  0
 35 34  2  0  0  0  0
 36 34  1  0  0  0  0
 37 36  1  0  0  0  0
M  END
>  <MODEL>
4

>  <REMARK>
 VINA RESULT:      -4.0      2.461      6.448
  Name = 
  7 active torsions:
  status: ('A' for Active; 'I' for Inactive)
    1  A    between atoms: C_3  and  C_21
    2  A    between atoms: C_6  and  C_31
    3  A    between atoms: C_17  and  N_23
    4  A    between atoms: C_20  and  C_25
    5  A    between atoms: C_21  and  C_25
    6  A    between atoms: C_27  and  C_33
    7  A    between atoms: C_29  and  C_36
                            x       y       z     vdW  Elec       q    Type
                         _______ _______ _______ _____ _____    ______ ____

>  <TORSDO>
F 7

$$$$
=
 OpenBabel11062409053D

 37 41  0  0  1  0  0  0  0  0999 V2000
  160.4930  208.1900  155.0750 C   0  0  0  0  0  0  0  0  0  0  0  0
  160.3530  210.4220  156.1050 C   0  0  0  0  0  2  0  0  0  0  0  0
  160.2960  208.6770  153.6660 C   0  0  2  0  0  3  0  0  0  0  0  0
  160.4490  208.9330  156.1300 C   0  0  0  0  0  0  0  0  0  0  0  0
  161.2750  208.1190  152.8290 O   0  0  0  0  0  0  0  0  0  0  0  0
  160.7160  208.1440  157.2610 N   0  0  0  0  0  2  0  0  0  0  0  0
  159.7150  210.9180  154.7980 C   0  0  2  0  0  3  0  0  0  0  0  0
  161.9050  206.1890  154.8040 C   0  0  0  0  0  2  0  0  0  0  0  0
  160.9340  206.8380  156.9220 O   0  0  0  0  0  0  0  0  0  0  0  0
  160.6940  206.7840  155.5200 C   0  0  1  0  0  3  0  0  0  0  0  0
  160.3490  210.2150  153.5650 C   0  0  2  0  0  3  0  0  0  0  0  0
  160.8300  206.8180  152.5430 C   0  0  2  0  0  3  0  0  0  0  0  0
  161.5990  205.7680  153.3590 C   0  0  0  0  0  2  0  0  0  0  0  0
  158.2440  210.9290  152.2810 C   0  0  0  0  0  2  0  0  0  0  0  0
  157.9310  212.3970  152.5390 C   0  0  0  0  0  2  0  0  0  0  0  0
  159.2630  213.3700  150.5900 C   0  0  2  0  0  3  0  0  0  0  0  0
  157.8760  213.1540  151.2150 C   0  0  2  0  0  3  0  0  0  0  0  0
  159.9430  212.1570  150.3160 O   0  0  0  0  0  0  0  0  0  0  0  0
  160.5840  211.7050  151.4860 C   0  0  1  0  0  3  0  0  0  0  0  0
  160.1170  214.4530  151.2610 C   0  0  0  0  0  1  0  0  0  0  0  0
  159.7500  210.6370  152.2080 C   0  0  1  0  0  3  0  0  0  0  0  0
  162.1280  211.1070  149.6290 C   0  0  0  0  0  1  0  0  0  0  0  0
  161.9560  211.1510  151.1340 C   0  0  0  0  0  2  0  0  0  0  0  0
  155.9560  214.4500  151.7090 C   0  0  0  0  0  2  0  0  0  0  0  0
  157.1950  214.4140  151.3790 N   0  0  0  0  0  0  0  0  0  0  0  0
  161.2410  207.5660  150.1950 C   0  0  0  0  0  3  0  0  0  0  0  0
  160.9290  206.5290  151.0810 C   0  0  0  0  0  0  0  0  0  0  0  0
  160.6810  205.2410  150.5810 C   0  0  0  0  0  3  0  0  0  0  0  0
  160.5430  203.7450  148.7290 F   0  0  0  0  0  0  0  0  0  0  0  0
  161.0780  206.0340  148.3270 C   0  0  0  0  0  3  0  0  0  0  0  0
  160.7600  204.9950  149.2070 C   0  0  0  0  0  0  0  0  0  0  0  0
  161.3170  207.3190  148.8210 C   0  0  0  0  0  3  0  0  0  0  0  0
  159.8980  212.4310  154.7270 C   0  0  0  0  0  2  0  0  0  0  0  0
  159.4010  213.1060  155.9670 C   0  0  0  0  0  0  0  0  0  0  0  0
  160.1540  213.8220  156.6100 O   0  0  0  0  0  0  0  0  0  0  0  0
  157.9860  212.9240  156.4140 C   0  0  0  0  0  2  0  0  0  0  0  0
  157.3700  214.2630  156.7710 C   0  0  0  0  0  1  0  0  0  0  0  0
  1 10  1  0  0  0  0
  1  4  2  0  0  0  0
  2  4  1  0  0  0  0
  3  5  1  6  0  0  0
  3  1  1  0  0  0  0
  4  6  1  0  0  0  0
  7 33  1  6  0  0  0
  7  2  1  0  0  0  0
  9  6  1  0  0  0  0
 10  8  1  6  0  0  0
 10  9  1  0  0  0  0
 11 21  1  6  0  0  0
 11  3  1  0  0  0  0
 11  7  1  0  0  0  0
 12 27  1  6  0  0  0
 12  5  1  0  0  0  0
 12 13  1  0  0  0  0
 13  8  1  0  0  0  0
 14 15  1  0  0  0  0
 16 17  1  0  0  0  0
 16 20  1  1  0  0  0
 17 25  1  1  0  0  0
 17 15  1  0  0  0  0
 18 16  1  0  0  0  0
 18 19  1  0  0  0  0
 19 23  1  6  0  0  0
 19 21  1  0  0  0  0
 21 14  1  1  0  0  0
 22 23  1  0  0  0  0
 25 24  2  0  0  0  0
 26 27  1  0  0  0  0
 28 27  2  0  0  0  0
 29 31  1  0  0  0  0
 30 32  1  0  0  0  0
 30 31  2  0  0  0  0
 31 28  1  0  0  0  0
 32 26  2  0  0  0  0
 33 34  1  0  0  0  0
 34 36  1  0  0  0  0
 34 35  2  0  0  0  0
 36 37  1  0  0  0  0
M  END
>  <MODEL>
5

>  <REMARK>
 VINA RESULT:      -3.4      2.872      5.562
  Name = 
  7 active torsions:
  status: ('A' for Active; 'I' for Inactive)
    1  A    between atoms: C_3  and  C_21
    2  A    between atoms: C_6  and  C_31
    3  A    between atoms: C_17  and  N_23
    4  A    between atoms: C_20  and  C_25
    5  A    between atoms: C_21  and  C_25
    6  A    between atoms: C_27  and  C_33
    7  A    between atoms: C_29  and  C_36
                            x       y       z     vdW  Elec       q    Type
                         _______ _______ _______ _____ _____    ______ ____

>  <TORSDO>
F 7

$$$$
=
 OpenBabel11062409053D

 37 41  0  0  1  0  0  0  0  0999 V2000
  160.9590  208.3440  151.9720 C   0  0  0  0  0  0  0  0  0  0  0  0
  160.6450  207.8770  154.3690 C   0  0  0  0  0  2  0  0  0  0  0  0
  160.7510  209.8280  152.0940 C   0  0  2  0  0  3  0  0  0  0  0  0
  160.8460  207.4970  152.9400 C   0  0  0  0  0  0  0  0  0  0  0  0
  161.7810  210.5100  151.4250 O   0  0  0  0  0  0  0  0  0  0  0  0
  161.1510  206.2110  152.4640 N   0  0  0  0  0  2  0  0  0  0  0  0
  159.9940  209.2630  154.4920 C   0  0  2  0  0  3  0  0  0  0  0  0
  162.5150  208.1320  150.0730 C   0  0  0  0  0  2  0  0  0  0  0  0
  161.4660  206.2280  151.1350 O   0  0  0  0  0  0  0  0  0  0  0  0
  161.2530  207.5770  150.7320 C   0  0  1  0  0  3  0  0  0  0  0  0
  160.6960  210.2940  153.5630 C   0  0  2  0  0  3  0  0  0  0  0  0
  161.4340  210.4760  150.0650 C   0  0  2  0  0  3  0  0  0  0  0  0
  162.2630  209.4340  149.2990 C   0  0  0  0  0  2  0  0  0  0  0  0
  159.0090  211.9340  152.5370 C   0  0  0  0  0  2  0  0  0  0  0  0
  157.6030  211.6410  153.0390 C   0  0  0  0  0  2  0  0  0  0  0  0
  157.6420  213.1900  155.0680 C   0  0  2  0  0  3  0  0  0  0  0  0
  157.0180  212.8880  153.6960 C   0  0  2  0  0  3  0  0  0  0  0  0
  159.0420  213.4040  155.0060 O   0  0  0  0  0  0  0  0  0  0  0  0
  159.7060  212.1620  155.0210 C   0  0  1  0  0  3  0  0  0  0  0  0
  157.1760  212.2780  156.2090 C   0  0  0  0  0  1  0  0  0  0  0  0
  160.0910  211.7110  153.6050 C   0  0  1  0  0  3  0  0  0  0  0  0
  160.5890  212.8720  157.2360 C   0  0  0  0  0  1  0  0  0  0  0  0
  160.9460  212.2580  155.8970 C   0  0  0  0  0  2  0  0  0  0  0  0
  154.8140  213.4300  153.0150 C   0  0  0  0  0  2  0  0  0  0  0  0
  155.5850  212.7780  153.8070 N   0  0  0  0  0  0  0  0  0  0  0  0
  160.7090  212.8550  149.8290 C   0  0  0  0  0  3  0  0  0  0  0  0
  161.5770  211.8270  149.4440 C   0  0  0  0  0  0  0  0  0  0  0  0
  162.5460  212.0700  148.4580 C   0  0  0  0  0  3  0  0  0  0  0  0
  163.6020  213.5750  146.9400 F   0  0  0  0  0  0  0  0  0  0  0  0
  161.7850  214.3610  148.2680 C   0  0  0  0  0  3  0  0  0  0  0  0
  162.6510  213.3360  147.8760 C   0  0  0  0  0  0  0  0  0  0  0  0
  160.8130  214.1200  149.2440 C   0  0  0  0  0  3  0  0  0  0  0  0
  160.0700  209.6930  155.9530 C   0  0  0  0  0  2  0  0  0  0  0  0
  161.1130  208.9230  156.7020 C   0  0  0  0  0  0  0  0  0  0  0  0
  160.9860  207.7160  156.8460 O   0  0  0  0  0  0  0  0  0  0  0  0
  162.3140  209.6160  157.2580 C   0  0  0  0  0  2  0  0  0  0  0  0
  163.0700  210.3270  156.1530 C   0  0  0  0  0  1  0  0  0  0  0  0
  1  3  1  0  0  0  0
  1  4  2  0  0  0  0
  2  7  1  0  0  0  0
  3  5  1  6  0  0  0
  3 11  1  0  0  0  0
  4  2  1  0  0  0  0
  6  4  1  0  0  0  0
  7 33  1  1  0  0  0
  9  6  1  0  0  0  0
 10  8  1  1  0  0  0
 10  9  1  0  0  0  0
 10  1  1  0  0  0  0
 11 21  1  6  0  0  0
 11  7  1  0  0  0  0
 12 27  1  6  0  0  0
 12  5  1  0  0  0  0
 13 12  1  0  0  0  0
 13  8  1  0  0  0  0
 14 15  1  0  0  0  0
 15 17  1  0  0  0  0
 16 20  1  1  0  0  0
 17 25  1  1  0  0  0
 17 16  1  0  0  0  0
 18 19  1  0  0  0  0
 18 16  1  0  0  0  0
 19 23  1  1  0  0  0
 21 14  1  6  0  0  0
 21 19  1  0  0  0  0
 23 22  1  0  0  0  0
 24 25  2  0  0  0  0
 27 26  1  0  0  0  0
 28 27  2  0  0  0  0
 29 31  1  0  0  0  0
 30 32  1  0  0  0  0
 31 30  2  0  0  0  0
 31 28  1  0  0  0  0
 32 26  2  0  0  0  0
 33 34  1  0  0  0  0
 34 35  2  0  0  0  0
 34 36  1  0  0  0  0
 37 36  1  0  0  0  0
M  END
>  <MODEL>
6

>  <REMARK>
 VINA RESULT:      -3.1      1.558      2.382
  Name = 
  7 active torsions:
  status: ('A' for Active; 'I' for Inactive)
    1  A    between atoms: C_3  and  C_21
    2  A    between atoms: C_6  and  C_31
    3  A    between atoms: C_17  and  N_23
    4  A    between atoms: C_20  and  C_25
    5  A    between atoms: C_21  and  C_25
    6  A    between atoms: C_27  and  C_33
    7  A    between atoms: C_29  and  C_36
                            x       y       z     vdW  Elec       q    Type
                         _______ _______ _______ _____ _____    ______ ____

>  <TORSDO>
F 7

$$$$
