=
 OpenBabel11052422303D

 31 35  0  0  1  0  0  0  0  0999 V2000
  162.0430  210.7210  149.0590 C   0  0  2  0  0  3  0  0  0  0  0  0
  161.6180  208.4530  152.1530 C   0  0  2  0  0  3  0  0  0  0  0  0
  160.8770  209.2790  153.2390 C   0  0  1  0  0  3  0  0  0  0  0  0
  159.1560  211.1560  153.4240 C   0  0  0  0  0  2  0  0  0  0  0  0
  161.4410  208.9700  150.7190 C   0  0  1  0  0  3  0  0  0  0  0  0
  162.7080  209.7590  148.2730 O   0  0  0  0  0  0  0  0  0  0  0  0
  159.5200  209.8080  152.7820 C   0  0  0  0  0  2  0  0  0  0  0  0
  161.3530  205.9970  151.1340 C   0  0  1  0  0  3  0  0  0  0  0  0
  162.6510  212.0210  148.8630 N   0  0  0  0  0  1  0  0  0  0  0  0
  161.6430  207.3570  154.7440 C   0  0  0  0  0  2  0  0  0  0  0  0
  159.7190  211.4030  154.8250 C   0  0  0  0  0  2  0  0  0  0  0  0
  161.1730  206.7100  149.7850 C   0  0  0  0  0  2  0  0  0  0  0  0
  161.4490  206.9480  152.3160 C   0  0  0  0  0  0  0  0  0  0  0  0
  162.1100  210.3320  150.5400 C   0  0  0  0  0  2  0  0  0  0  0  0
  159.4500  210.2760  155.7120 N   0  0  0  0  0  2  0  0  0  0  0  0
  162.0060  207.9740  149.7120 C   0  0  1  0  0  3  0  0  0  0  0  0
  161.9250  208.5880  148.3150 C   0  0  0  0  0  2  0  0  0  0  0  0
  161.5170  206.4420  153.5580 C   0  0  0  0  0  3  0  0  0  0  0  0
  160.6510  208.5020  154.5540 C   0  0  1  0  0  3  0  0  0  0  0  0
  160.6450  209.4420  155.7470 C   0  0  0  0  0  2  0  0  0  0  0  0
  160.2060  205.0100  151.3330 C   0  0  0  0  0  2  0  0  0  0  0  0
  160.9620  201.0940  148.0640 C   0  0  2  0  0  3  0  0  0  0  0  0
  160.3190  203.3180  148.9350 C   0  0  0  0  0  2  0  0  0  0  0  0
  159.7330  200.6660  150.5600 O   0  0  0  0  0  1  0  0  0  0  0  0
  161.0540  203.1260  152.5090 O   0  0  0  0  0  0  0  0  0  0  0  0
  161.6120  200.3640  146.9090 C   0  0  0  0  0  1  0  0  0  0  0  0
  160.6990  203.5980  151.4000 C   0  0  0  0  0  0  0  0  0  0  0  0
  161.0170  202.5910  147.7960 C   0  0  0  0  0  2  0  0  0  0  0  0
  160.9500  201.3280  150.3610 C   0  0  2  0  0  3  0  0  0  0  0  0
  160.7430  202.7760  150.2230 N   0  0  0  0  0  0  0  0  0  0  0  0
  161.6570  200.7920  149.2560 O   0  0  0  0  0  0  0  0  0  0  0  0
  1  9  1  1  0  0  0
  1 14  1  0  0  0  0
  2 13  1  6  0  0  0
  2  3  1  0  0  0  0
  3  7  1  6  0  0  0
  3 19  1  0  0  0  0
  4 11  1  0  0  0  0
  5 14  1  1  0  0  0
  5  2  1  0  0  0  0
  6 17  1  0  0  0  0
  6  1  1  0  0  0  0
  7  4  1  0  0  0  0
  8 21  1  1  0  0  0
  8 13  1  0  0  0  0
 11 15  1  0  0  0  0
 12  8  1  0  0  0  0
 13 18  2  0  0  0  0
 15 20  1  0  0  0  0
 16 17  1  6  0  0  0
 16 12  1  0  0  0  0
 16  5  1  0  0  0  0
 18 10  1  0  0  0  0
 19 10  1  1  0  0  0
 19 20  1  0  0  0  0
 21 27  1  0  0  0  0
 22 26  1  6  0  0  0
 22 31  1  0  0  0  0
 23 30  1  0  0  0  0
 27 25  2  0  0  0  0
 28 22  1  0  0  0  0
 28 23  1  0  0  0  0
 29 24  1  6  0  0  0
 30 29  1  0  0  0  0
 30 27  1  0  0  0  0
 31 29  1  0  0  0  0
M  END
>  <MODEL>
1

>  <REMARK>
 VINA RESULT:      -7.9      0.000      0.000
  Name = 
  2 active torsions:
  status: ('A' for Active; 'I' for Inactive)
    1  A    between atoms: C_9  and  C_23
    2  A    between atoms: C_15  and  C_23
                            x       y       z     vdW  Elec       q    Type
                         _______ _______ _______ _____ _____    ______ ____

>  <TORSDO>
F 2

$$$$
=
 OpenBabel11052422303D

 31 35  0  0  1  0  0  0  0  0999 V2000
  161.5870  212.2970  148.9260 C   0  0  2  0  0  3  0  0  0  0  0  0
  161.3250  210.2120  152.1630 C   0  0  2  0  0  3  0  0  0  0  0  0
  160.3140  210.9290  153.1000 C   0  0  1  0  0  3  0  0  0  0  0  0
  158.2240  212.3900  152.9580 C   0  0  0  0  0  2  0  0  0  0  0  0
  161.1970  210.5760  150.6780 C   0  0  1  0  0  3  0  0  0  0  0  0
  162.5210  211.4520  148.2930 O   0  0  0  0  0  0  0  0  0  0  0  0
  158.9320  211.1130  152.4770 C   0  0  0  0  0  2  0  0  0  0  0  0
  161.6960  207.6930  151.3520 C   0  0  1  0  0  3  0  0  0  0  0  0
  161.9240  213.6820  148.6680 N   0  0  0  0  0  1  0  0  0  0  0  0
  161.3050  209.3320  154.8350 C   0  0  0  0  0  2  0  0  0  0  0  0
  158.5700  212.8510  154.3760 C   0  0  0  0  0  2  0  0  0  0  0  0
  161.5150  208.2530  149.9330 C   0  0  0  0  0  2  0  0  0  0  0  0
  161.4620  208.7210  152.4460 C   0  0  0  0  0  0  0  0  0  0  0  0
  161.5770  212.0360  150.4360 C   0  0  0  0  0  2  0  0  0  0  0  0
  158.4520  211.7570  155.3340 N   0  0  0  0  0  2  0  0  0  0  0  0
  162.0640  209.6610  149.8200 C   0  0  1  0  0  3  0  0  0  0  0  0
  162.0040  210.1430  148.3720 C   0  0  0  0  0  2  0  0  0  0  0  0
  161.5030  208.3310  153.7310 C   0  0  0  0  0  3  0  0  0  0  0  0
  160.1190  210.2140  154.4550 C   0  0  1  0  0  3  0  0  0  0  0  0
  159.7870  211.2110  155.5510 C   0  0  0  0  0  2  0  0  0  0  0  0
  160.7690  206.4940  151.5370 C   0  0  0  0  0  2  0  0  0  0  0  0
  161.0490  204.2570  146.9000 C   0  0  2  0  0  3  0  0  0  0  0  0
  160.4680  205.8690  148.6840 C   0  0  0  0  0  2  0  0  0  0  0  0
  160.4210  202.7450  149.1900 O   0  0  0  0  0  1  0  0  0  0  0  0
  161.9720  204.4490  151.6960 O   0  0  0  0  0  0  0  0  0  0  0  0
  161.4780  204.1200  145.4550 C   0  0  0  0  0  1  0  0  0  0  0  0
  161.3550  205.2490  150.9480 C   0  0  0  0  0  0  0  0  0  0  0  0
  160.9480  205.7350  147.2470 C   0  0  0  0  0  2  0  0  0  0  0  0
  161.5200  203.6020  149.0630 C   0  0  2  0  0  3  0  0  0  0  0  0
  161.1950  204.9480  149.5540 N   0  0  0  0  0  0  0  0  0  0  0  0
  162.0030  203.6300  147.7320 O   0  0  0  0  0  0  0  0  0  0  0  0
  1  9  1  1  0  0  0
  1 14  1  0  0  0  0
  2 13  1  6  0  0  0
  2  3  1  0  0  0  0
  3  7  1  6  0  0  0
  3 19  1  0  0  0  0
  4 11  1  0  0  0  0
  5 14  1  1  0  0  0
  5  2  1  0  0  0  0
  6 17  1  0  0  0  0
  6  1  1  0  0  0  0
  7  4  1  0  0  0  0
  8 21  1  1  0  0  0
  8 13  1  0  0  0  0
 11 15  1  0  0  0  0
 12  8  1  0  0  0  0
 13 18  2  0  0  0  0
 15 20  1  0  0  0  0
 16 17  1  6  0  0  0
 16 12  1  0  0  0  0
 16  5  1  0  0  0  0
 18 10  1  0  0  0  0
 19 10  1  1  0  0  0
 19 20  1  0  0  0  0
 22 26  1  6  0  0  0
 22 28  1  0  0  0  0
 22 31  1  0  0  0  0
 23 30  1  0  0  0  0
 27 21  1  0  0  0  0
 27 25  2  0  0  0  0
 28 23  1  0  0  0  0
 29 24  1  6  0  0  0
 29 30  1  0  0  0  0
 30 27  1  0  0  0  0
 31 29  1  0  0  0  0
M  END
>  <MODEL>
2

>  <REMARK>
 VINA RESULT:      -6.8      1.726      2.161
  Name = 
  2 active torsions:
  status: ('A' for Active; 'I' for Inactive)
    1  A    between atoms: C_9  and  C_23
    2  A    between atoms: C_15  and  C_23
                            x       y       z     vdW  Elec       q    Type
                         _______ _______ _______ _____ _____    ______ ____

>  <TORSDO>
F 2

$$$$
=
 OpenBabel11052422303D

 31 35  0  0  1  0  0  0  0  0999 V2000
  161.2170  212.6030  149.1630 C   0  0  2  0  0  3  0  0  0  0  0  0
  161.2000  210.5580  152.4360 C   0  0  2  0  0  3  0  0  0  0  0  0
  160.0820  211.1400  153.3450 C   0  0  1  0  0  3  0  0  0  0  0  0
  157.8100  212.2870  153.1460 C   0  0  0  0  0  2  0  0  0  0  0  0
  161.0460  210.8750  150.9420 C   0  0  1  0  0  3  0  0  0  0  0  0
  162.2710  211.8880  148.5600 O   0  0  0  0  0  0  0  0  0  0  0  0
  158.6990  211.1160  152.7000 C   0  0  0  0  0  2  0  0  0  0  0  0
  161.9370  208.1040  151.6800 C   0  0  1  0  0  3  0  0  0  0  0  0
  161.3580  214.0170  148.8820 N   0  0  0  0  0  1  0  0  0  0  0  0
  161.2610  209.7300  155.1240 C   0  0  0  0  0  2  0  0  0  0  0  0
  158.0630  212.8170  154.5590 C   0  0  0  0  0  2  0  0  0  0  0  0
  161.7010  208.6080  150.2470 C   0  0  0  0  0  2  0  0  0  0  0  0
  161.5420  209.1070  152.7500 C   0  0  0  0  0  0  0  0  0  0  0  0
  161.2190  212.3700  150.6780 C   0  0  0  0  0  2  0  0  0  0  0  0
  158.0860  211.7350  155.5370 N   0  0  0  0  0  2  0  0  0  0  0  0
  162.0480  210.0770  150.1150 C   0  0  1  0  0  3  0  0  0  0  0  0
  161.9440  210.5210  148.6560 C   0  0  0  0  0  2  0  0  0  0  0  0
  161.6160  208.7490  154.0420 C   0  0  0  0  0  3  0  0  0  0  0  0
  159.9680  210.4290  154.7100 C   0  0  1  0  0  3  0  0  0  0  0  0
  159.4810  211.3870  155.7830 C   0  0  0  0  0  2  0  0  0  0  0  0
  161.1870  206.7890  151.8750 C   0  0  0  0  0  2  0  0  0  0  0  0
  161.2300  202.0980  149.7350 C   0  0  2  0  0  3  0  0  0  0  0  0
  161.5580  203.9180  151.3760 C   0  0  0  0  0  2  0  0  0  0  0  0
  162.1170  204.3450  148.2900 O   0  0  0  0  0  1  0  0  0  0  0  0
  160.3330  206.9020  149.6590 O   0  0  0  0  0  0  0  0  0  0  0  0
  160.8150  200.6520  149.5650 C   0  0  0  0  0  1  0  0  0  0  0  0
  160.8050  206.1720  150.5660 C   0  0  0  0  0  0  0  0  0  0  0  0
  161.0930  202.4810  151.2010 C   0  0  0  0  0  2  0  0  0  0  0  0
  160.8920  204.2460  148.9600 C   0  0  2  0  0  3  0  0  0  0  0  0
  160.9980  204.7690  150.3290 N   0  0  0  0  0  0  0  0  0  0  0  0
  160.3980  202.9180  148.9420 O   0  0  0  0  0  0  0  0  0  0  0  0
  1  9  1  1  0  0  0
  1 14  1  0  0  0  0
  2 13  1  6  0  0  0
  2  3  1  0  0  0  0
  3  7  1  6  0  0  0
  3 19  1  0  0  0  0
  4 11  1  0  0  0  0
  5 14  1  1  0  0  0
  5  2  1  0  0  0  0
  6 17  1  0  0  0  0
  6  1  1  0  0  0  0
  7  4  1  0  0  0  0
  8 21  1  1  0  0  0
  8 13  1  0  0  0  0
 11 15  1  0  0  0  0
 12  8  1  0  0  0  0
 13 18  2  0  0  0  0
 15 20  1  0  0  0  0
 16 17  1  6  0  0  0
 16 12  1  0  0  0  0
 16  5  1  0  0  0  0
 18 10  1  0  0  0  0
 19 10  1  1  0  0  0
 19 20  1  0  0  0  0
 22 26  1  1  0  0  0
 22 28  1  0  0  0  0
 25 27  2  0  0  0  0
 27 21  1  0  0  0  0
 28 23  1  0  0  0  0
 29 24  1  1  0  0  0
 29 30  1  0  0  0  0
 30 27  1  0  0  0  0
 30 23  1  0  0  0  0
 31 29  1  0  0  0  0
 31 22  1  0  0  0  0
M  END
>  <MODEL>
3

>  <REMARK>
 VINA RESULT:      -5.7      1.701      2.545
  Name = 
  2 active torsions:
  status: ('A' for Active; 'I' for Inactive)
    1  A    between atoms: C_9  and  C_23
    2  A    between atoms: C_15  and  C_23
                            x       y       z     vdW  Elec       q    Type
                         _______ _______ _______ _____ _____    ______ ____

>  <TORSDO>
F 2

$$$$
=
 OpenBabel11052422303D

 31 35  0  0  1  0  0  0  0  0999 V2000
  160.3310  209.1460  155.1890 C   0  0  2  0  0  3  0  0  0  0  0  0
  160.6760  207.6480  151.6490 C   0  0  2  0  0  3  0  0  0  0  0  0
  161.3220  208.7330  150.7440 C   0  0  1  0  0  3  0  0  0  0  0  0
  162.9520  210.6910  150.9100 C   0  0  0  0  0  2  0  0  0  0  0  0
  160.9110  207.8420  153.1540 C   0  0  1  0  0  3  0  0  0  0  0  0
  159.7500  208.0000  155.7680 O   0  0  0  0  0  0  0  0  0  0  0  0
  162.6800  209.2160  151.2470 C   0  0  0  0  0  2  0  0  0  0  0  0
  161.0970  205.0450  152.0780 C   0  0  1  0  0  3  0  0  0  0  0  0
  159.6810  210.3370  155.6990 N   0  0  0  0  0  1  0  0  0  0  0  0
  160.5530  207.1560  148.8830 C   0  0  0  0  0  2  0  0  0  0  0  0
  162.3030  211.2130  149.6260 C   0  0  0  0  0  2  0  0  0  0  0  0
  161.3220  205.4480  153.5430 C   0  0  0  0  0  2  0  0  0  0  0  0
  160.8980  206.2280  151.1450 C   0  0  0  0  0  0  0  0  0  0  0  0
  160.1980  209.0940  153.6630 C   0  0  0  0  0  2  0  0  0  0  0  0
  162.5690  210.3270  148.4980 N   0  0  0  0  0  2  0  0  0  0  0  0
  160.4430  206.6190  153.9350 C   0  0  1  0  0  3  0  0  0  0  0  0
  160.5760  206.9100  155.4290 C   0  0  0  0  0  2  0  0  0  0  0  0
  160.7820  206.0080  149.8260 C   0  0  0  0  0  3  0  0  0  0  0  0
  161.5070  208.2800  149.2800 C   0  0  1  0  0  3  0  0  0  0  0  0
  161.4080  209.4610  148.3300 C   0  0  0  0  0  2  0  0  0  0  0  0
  162.2710  204.1870  151.6110 C   0  0  0  0  0  2  0  0  0  0  0  0
  160.6340  201.8240  147.3310 C   0  0  2  0  0  3  0  0  0  0  0  0
  161.4170  203.6000  148.8640 C   0  0  0  0  0  2  0  0  0  0  0  0
  159.3300  201.4080  149.7910 O   0  0  0  0  0  1  0  0  0  0  0  0
  161.8050  201.9030  152.0760 O   0  0  0  0  0  0  0  0  0  0  0  0
  160.7510  201.2660  145.9290 C   0  0  0  0  0  1  0  0  0  0  0  0
  161.8270  202.8150  151.2120 C   0  0  0  0  0  0  0  0  0  0  0  0
  161.5740  203.0120  147.4700 C   0  0  0  0  0  2  0  0  0  0  0  0
  160.7070  201.2800  149.5740 C   0  0  2  0  0  3  0  0  0  0  0  0
  161.4040  202.5400  149.8680 N   0  0  0  0  0  0  0  0  0  0  0  0
  160.9830  200.8210  148.2630 O   0  0  0  0  0  0  0  0  0  0  0  0
  1  9  1  1  0  0  0
  1  6  1  0  0  0  0
  2 13  1  6  0  0  0
  2  5  1  0  0  0  0
  3  7  1  1  0  0  0
  3  2  1  0  0  0  0
  4  7  1  0  0  0  0
  5 14  1  1  0  0  0
  5 16  1  0  0  0  0
  8 21  1  6  0  0  0
  8 12  1  0  0  0  0
 10 19  1  0  0  0  0
 10 18  1  0  0  0  0
 11  4  1  0  0  0  0
 13  8  1  0  0  0  0
 14  1  1  0  0  0  0
 15 11  1  0  0  0  0
 16 12  1  6  0  0  0
 16 17  1  0  0  0  0
 17  6  1  0  0  0  0
 18 13  2  0  0  0  0
 19 20  1  6  0  0  0
 19  3  1  0  0  0  0
 20 15  1  0  0  0  0
 22 26  1  6  0  0  0
 22 28  1  0  0  0  0
 22 31  1  0  0  0  0
 23 30  1  0  0  0  0
 27 21  1  0  0  0  0
 27 25  2  0  0  0  0
 28 23  1  0  0  0  0
 29 24  1  6  0  0  0
 29 30  1  0  0  0  0
 30 27  1  0  0  0  0
 31 29  1  0  0  0  0
M  END
>  <MODEL>
4

>  <REMARK>
 VINA RESULT:      -5.4      1.895      4.325
  Name = 
  2 active torsions:
  status: ('A' for Active; 'I' for Inactive)
    1  A    between atoms: C_9  and  C_23
    2  A    between atoms: C_15  and  C_23
                            x       y       z     vdW  Elec       q    Type
                         _______ _______ _______ _____ _____    ______ ____

>  <TORSDO>
F 2

$$$$
