=
 OpenBabel11052423053D

 27 31  0  0  1  0  0  0  0  0999 V2000
  160.3550  211.6060  155.9420 S   0  0  0  0  0  0  0  0  0  0  0  0
  158.8440  212.0900  153.5510 C   0  0  2  0  0  3  0  0  0  0  0  0
  161.7300  210.5390  153.4780 N   0  0  0  0  0  2  0  0  0  0  0  0
  160.0430  212.5150  150.2320 N   0  0  0  0  0  0  0  0  0  0  0  0
  162.0150  211.6710  148.5210 Cl  0  0  0  0  0  0  0  0  0  0  0  0
  157.7800  212.9950  152.8940 C   0  0  0  0  0  2  0  0  0  0  0  0
  161.5790  210.8640  151.0820 C   0  0  0  0  0  0  0  0  0  0  0  0
  160.4990  207.1320  154.7060 C   0  0  0  0  0  2  0  0  0  0  0  0
  162.6910  209.8810  150.8760 C   0  0  0  0  0  1  0  0  0  0  0  0
  159.2760  207.6100  155.4980 C   0  0  0  0  0  2  0  0  0  0  0  0
  160.8000  210.8380  152.3890 C   0  0  2  0  0  3  0  0  0  0  0  0
  159.0800  212.5390  155.0110 C   0  0  1  0  0  3  0  0  0  0  0  0
  161.1960  211.6760  150.0780 C   0  0  0  0  0  0  0  0  0  0  0  0
  159.5230  212.7310  151.3990 C   0  0  0  0  0  0  0  0  0  0  0  0
  159.9950  209.9940  155.1710 C   0  0  2  0  0  3  0  0  0  0  0  0
  160.0940  212.1880  152.6570 C   0  0  1  0  0  3  0  0  0  0  0  0
  160.9330  208.1790  153.6810 C   0  0  0  0  0  2  0  0  0  0  0  0
  158.2320  213.2710  151.5460 N   0  0  0  0  0  2  0  0  0  0  0  0
  159.5520  208.9440  156.1950 C   0  0  2  0  0  3  0  0  0  0  0  0
  160.5120  208.7790  157.1980 O   0  0  0  0  0  1  0  0  0  0  0  0
  161.2140  209.5100  154.3850 C   0  0  1  0  0  3  0  0  0  0  0  0
  155.4110  212.6420  157.2600 C   0  0  0  0  0  3  0  0  0  0  0  0
  157.8150  212.5870  155.8170 C   0  0  0  0  0  0  0  0  0  0  0  0
  156.9670  211.4730  155.8180 C   0  0  0  0  0  3  0  0  0  0  0  0
  155.7710  211.4970  156.5420 C   0  0  0  0  0  3  0  0  0  0  0  0
  156.2520  213.7590  157.2600 C   0  0  0  0  0  3  0  0  0  0  0  0
  157.4530  213.7340  156.5420 C   0  0  0  0  0  3  0  0  0  0  0  0
  2  6  1  6  0  0  0
  2 12  1  0  0  0  0
  3 21  1  0  0  0  0
  4 14  2  0  0  0  0
  5 13  1  0  0  0  0
  8 10  1  0  0  0  0
  9  7  1  0  0  0  0
 10 19  1  0  0  0  0
 11  7  1  6  0  0  0
 11 16  1  0  0  0  0
 11  3  1  0  0  0  0
 12 23  1  1  0  0  0
 12  1  1  0  0  0  0
 13  4  1  0  0  0  0
 13  7  2  0  0  0  0
 14 18  1  0  0  0  0
 15  1  1  1  0  0  0
 15 19  1  0  0  0  0
 16 14  1  6  0  0  0
 16  2  1  0  0  0  0
 17  8  1  0  0  0  0
 18  6  1  0  0  0  0
 19 20  1  1  0  0  0
 21 17  1  6  0  0  0
 21 15  1  0  0  0  0
 22 26  1  0  0  0  0
 23 24  2  0  0  0  0
 23 27  1  0  0  0  0
 24 25  1  0  0  0  0
 25 22  2  0  0  0  0
 27 26  2  0  0  0  0
M  END
>  <MODEL>
1

>  <REMARK>
 VINA RESULT:      -4.4      0.000      0.000
  Name = 
  1 active torsions:
  status: ('A' for Active; 'I' for Inactive)
    1  A    between atoms: C_9  and  C_15
                            x       y       z     vdW  Elec       q    Type
                         _______ _______ _______ _____ _____    ______ ____

>  <TORSDO>
F 1

$$$$
=
 OpenBabel11052423053D

 27 31  0  0  1  0  0  0  0  0999 V2000
  162.9230  210.1830  151.9410 S   0  0  0  0  0  0  0  0  0  0  0  0
  161.4730  208.7150  149.9470 C   0  0  2  0  0  3  0  0  0  0  0  0
  162.0150  207.4830  152.9350 N   0  0  0  0  0  2  0  0  0  0  0  0
  161.2050  205.1910  149.5620 N   0  0  0  0  0  0  0  0  0  0  0  0
  161.0940  202.8610  151.0060 Cl  0  0  0  0  0  0  0  0  0  0  0  0
  161.2500  208.5320  148.4310 C   0  0  0  0  0  2  0  0  0  0  0  0
  161.2420  205.4030  151.9620 C   0  0  0  0  0  0  0  0  0  0  0  0
  159.3270  209.4710  154.7920 C   0  0  0  0  0  2  0  0  0  0  0  0
  161.1070  204.8110  153.3310 C   0  0  0  0  0  1  0  0  0  0  0  0
  159.2590  210.6840  153.8550 C   0  0  0  0  0  2  0  0  0  0  0  0
  161.2700  206.9180  151.8100 C   0  0  2  0  0  3  0  0  0  0  0  0
  162.4910  209.8520  150.1900 C   0  0  1  0  0  3  0  0  0  0  0  0
  161.2160  204.6110  150.8730 C   0  0  0  0  0  0  0  0  0  0  0  0
  161.5040  206.4390  149.3790 C   0  0  0  0  0  0  0  0  0  0  0  0
  161.2620  209.8270  152.6040 C   0  0  2  0  0  3  0  0  0  0  0  0
  161.9300  207.3430  150.4770 C   0  0  1  0  0  3  0  0  0  0  0  0
  159.9370  208.2630  154.0840 C   0  0  0  0  0  2  0  0  0  0  0  0
  161.1950  207.1070  148.1790 N   0  0  0  0  0  2  0  0  0  0  0  0
  160.6440  211.0400  153.3080 C   0  0  2  0  0  3  0  0  0  0  0  0
  161.4700  211.5030  154.3380 O   0  0  0  0  0  1  0  0  0  0  0  0
  161.3240  208.6240  153.5440 C   0  0  1  0  0  3  0  0  0  0  0  0
  161.4390  213.5660  148.2860 C   0  0  0  0  0  3  0  0  0  0  0  0
  162.0970  211.1380  149.5260 C   0  0  0  0  0  0  0  0  0  0  0  0
  162.8780  211.6270  148.4720 C   0  0  0  0  0  3  0  0  0  0  0  0
  162.5480  212.8340  147.8490 C   0  0  0  0  0  3  0  0  0  0  0  0
  160.6570  213.0850  149.3410 C   0  0  0  0  0  3  0  0  0  0  0  0
  160.9820  211.8730  149.9610 C   0  0  0  0  0  3  0  0  0  0  0  0
  2  6  1  6  0  0  0
  2 12  1  0  0  0  0
  2 16  1  0  0  0  0
  3 21  1  0  0  0  0
  4 13  1  0  0  0  0
  7  9  1  0  0  0  0
 10  8  1  0  0  0  0
 11  7  1  1  0  0  0
 11  3  1  0  0  0  0
 12 23  1  1  0  0  0
 12  1  1  0  0  0  0
 13  5  1  0  0  0  0
 13  7  2  0  0  0  0
 14  4  2  0  0  0  0
 15  1  1  1  0  0  0
 15 19  1  0  0  0  0
 15 21  1  0  0  0  0
 16 14  1  6  0  0  0
 16 11  1  0  0  0  0
 17  8  1  0  0  0  0
 18  6  1  0  0  0  0
 18 14  1  0  0  0  0
 19 10  1  0  0  0  0
 19 20  1  1  0  0  0
 21 17  1  6  0  0  0
 22 26  1  0  0  0  0
 23 27  1  0  0  0  0
 24 23  2  0  0  0  0
 25 22  2  0  0  0  0
 25 24  1  0  0  0  0
 26 27  2  0  0  0  0
M  END
>  <MODEL>
2

>  <REMARK>
 VINA RESULT:      -4.2      3.731      6.556
  Name = 
  1 active torsions:
  status: ('A' for Active; 'I' for Inactive)
    1  A    between atoms: C_9  and  C_15
                            x       y       z     vdW  Elec       q    Type
                         _______ _______ _______ _____ _____    ______ ____

>  <TORSDO>
F 1

$$$$
=
 OpenBabel11052423053D

 27 31  0  0  1  0  0  0  0  0999 V2000
  162.8390  203.4300  146.7990 S   0  0  0  0  0  0  0  0  0  0  0  0
  160.8500  202.7450  148.7500 C   0  0  2  0  0  3  0  0  0  0  0  0
  162.4200  205.6200  148.8320 N   0  0  0  0  0  2  0  0  0  0  0  0
  160.5920  203.8500  152.1200 N   0  0  0  0  0  0  0  0  0  0  0  0
  161.0610  206.0260  153.7230 Cl  0  0  0  0  0  0  0  0  0  0  0  0
  160.1310  201.5790  149.4610 C   0  0  0  0  0  2  0  0  0  0  0  0
  161.4360  205.8300  151.0360 C   0  0  0  0  0  0  0  0  0  0  0  0
  160.4560  207.3420  146.0390 C   0  0  0  0  0  2  0  0  0  0  0  0
  161.7970  207.2830  151.0610 C   0  0  0  0  0  1  0  0  0  0  0  0
  160.0310  206.0910  145.2610 C   0  0  0  0  0  2  0  0  0  0  0  0
  161.3580  205.1090  149.6970 C   0  0  2  0  0  3  0  0  0  0  0  0
  161.8490  202.1850  147.7130 C   0  0  1  0  0  3  0  0  0  0  0  0
  161.0690  205.2010  152.1690 C   0  0  0  0  0  0  0  0  0  0  0  0
  160.7660  203.1160  151.0660 C   0  0  0  0  0  0  0  0  0  0  0  0
  161.5170  204.6830  146.7160 C   0  0  2  0  0  3  0  0  0  0  0  0
  161.5080  203.5780  149.8660 C   0  0  1  0  0  3  0  0  0  0  0  0
  160.8310  206.9940  147.4780 C   0  0  0  0  0  2  0  0  0  0  0  0
  160.0430  201.9250  150.8640 N   0  0  0  0  0  2  0  0  0  0  0  0
  161.1330  205.0280  145.2740 C   0  0  2  0  0  3  0  0  0  0  0  0
  162.2430  205.4700  144.5460 O   0  0  0  0  0  1  0  0  0  0  0  0
  161.9380  205.9350  147.4840 C   0  0  1  0  0  3  0  0  0  0  0  0
  160.0810  199.4640  144.8860 C   0  0  0  0  0  3  0  0  0  0  0  0
  161.2070  201.2480  146.7330 C   0  0  0  0  0  0  0  0  0  0  0  0
  161.5810  199.9000  146.7370 C   0  0  0  0  0  3  0  0  0  0  0  0
  161.0160  199.0070  145.8200 C   0  0  0  0  0  3  0  0  0  0  0  0
  159.7060  200.8110  144.8740 C   0  0  0  0  0  3  0  0  0  0  0  0
  160.2650  201.7040  145.7950 C   0  0  0  0  0  3  0  0  0  0  0  0
  1 12  1  0  0  0  0
  2  6  1  1  0  0  0
  2 16  1  0  0  0  0
  4 13  1  0  0  0  0
  6 18  1  0  0  0  0
  7  9  1  0  0  0  0
  7 13  2  0  0  0  0
  8 17  1  0  0  0  0
 10 19  1  0  0  0  0
 10  8  1  0  0  0  0
 11  3  1  6  0  0  0
 11 16  1  0  0  0  0
 11  7  1  0  0  0  0
 12 23  1  6  0  0  0
 12  2  1  0  0  0  0
 13  5  1  0  0  0  0
 14  4  2  0  0  0  0
 15  1  1  6  0  0  0
 15 21  1  0  0  0  0
 16 14  1  1  0  0  0
 18 14  1  0  0  0  0
 19 20  1  6  0  0  0
 19 15  1  0  0  0  0
 21 17  1  1  0  0  0
 21  3  1  0  0  0  0
 22 25  1  0  0  0  0
 23 24  1  0  0  0  0
 25 24  2  0  0  0  0
 26 22  2  0  0  0  0
 26 27  1  0  0  0  0
 27 23  2  0  0  0  0
M  END
>  <MODEL>
3

>  <REMARK>
 VINA RESULT:      -3.8      8.272     11.559
  Name = 
  1 active torsions:
  status: ('A' for Active; 'I' for Inactive)
    1  A    between atoms: C_9  and  C_15
                            x       y       z     vdW  Elec       q    Type
                         _______ _______ _______ _____ _____    ______ ____

>  <TORSDO>
F 1

$$$$
=
 OpenBabel11052423053D

 27 31  0  0  1  0  0  0  0  0999 V2000
  159.5440  205.1570  148.9140 S   0  0  0  0  0  0  0  0  0  0  0  0
  161.7050  207.0310  149.1350 C   0  0  2  0  0  3  0  0  0  0  0  0
  160.0970  205.9420  151.7750 N   0  0  0  0  0  2  0  0  0  0  0  0
  162.2330  209.5070  151.6310 N   0  0  0  0  0  0  0  0  0  0  0  0
  161.8640  209.9920  154.3060 Cl  0  0  0  0  0  0  0  0  0  0  0  0
  162.5040  208.1260  148.3970 C   0  0  0  0  0  2  0  0  0  0  0  0
  161.2630  207.7240  152.9300 C   0  0  0  0  0  0  0  0  0  0  0  0
  161.7830  202.5170  152.0110 C   0  0  0  0  0  2  0  0  0  0  0  0
  160.8810  207.1220  154.2480 C   0  0  0  0  0  1  0  0  0  0  0  0
  162.1620  202.3530  150.5340 C   0  0  0  0  0  2  0  0  0  0  0  0
  161.2390  206.8510  151.6830 C   0  0  2  0  0  3  0  0  0  0  0  0
  160.6310  206.4450  148.1920 C   0  0  1  0  0  3  0  0  0  0  0  0
  161.7370  208.9830  152.8700 C   0  0  0  0  0  0  0  0  0  0  0  0
  161.9820  208.9150  150.5060 C   0  0  0  0  0  0  0  0  0  0  0  0
  160.8310  204.4060  149.9650 C   0  0  2  0  0  3  0  0  0  0  0  0
  161.1310  207.7030  150.3960 C   0  0  1  0  0  3  0  0  0  0  0  0
  161.5390  203.9850  152.3550 C   0  0  0  0  0  2  0  0  0  0  0  0
  162.7050  209.2100  149.3350 N   0  0  0  0  0  2  0  0  0  0  0  0
  161.0840  202.9360  149.6160 C   0  0  2  0  0  3  0  0  0  0  0  0
  159.9080  202.1850  149.7090 O   0  0  0  0  0  1  0  0  0  0  0  0
  160.4560  204.5610  151.4380 C   0  0  1  0  0  3  0  0  0  0  0  0
  162.1970  204.9750  144.4610 C   0  0  0  0  0  3  0  0  0  0  0  0
  161.2030  205.9410  146.8990 C   0  0  0  0  0  0  0  0  0  0  0  0
  160.5200  206.2030  145.7060 C   0  0  0  0  0  3  0  0  0  0  0  0
  161.0180  205.7270  144.4890 C   0  0  0  0  0  3  0  0  0  0  0  0
  162.8810  204.7060  145.6510 C   0  0  0  0  0  3  0  0  0  0  0  0
  162.3880  205.1880  146.8690 C   0  0  0  0  0  3  0  0  0  0  0  0
  2  6  1  6  0  0  0
  2 16  1  0  0  0  0
  4 13  1  0  0  0  0
  6 18  1  0  0  0  0
  7  9  1  0  0  0  0
  8 17  1  0  0  0  0
 10  8  1  0  0  0  0
 11  3  1  1  0  0  0
 11  7  1  0  0  0  0
 12 23  1  6  0  0  0
 12  1  1  0  0  0  0
 12  2  1  0  0  0  0
 13  7  2  0  0  0  0
 13  5  1  0  0  0  0
 14  4  2  0  0  0  0
 15  1  1  6  0  0  0
 15 21  1  0  0  0  0
 16 14  1  1  0  0  0
 16 11  1  0  0  0  0
 18 14  1  0  0  0  0
 19 20  1  1  0  0  0
 19 15  1  0  0  0  0
 19 10  1  0  0  0  0
 21  3  1  0  0  0  0
 21 17  1  1  0  0  0
 22 25  2  0  0  0  0
 22 26  1  0  0  0  0
 24 23  2  0  0  0  0
 25 24  1  0  0  0  0
 26 27  2  0  0  0  0
 27 23  1  0  0  0  0
M  END
>  <MODEL>
4

>  <REMARK>
 VINA RESULT:      -3.7      5.500      8.865
  Name = 
  1 active torsions:
  status: ('A' for Active; 'I' for Inactive)
    1  A    between atoms: C_9  and  C_15
                            x       y       z     vdW  Elec       q    Type
                         _______ _______ _______ _____ _____    ______ ____

>  <TORSDO>
F 1

$$$$
=
 OpenBabel11052423053D

 27 31  0  0  1  0  0  0  0  0999 V2000
  159.3440  213.1180  154.8810 S   0  0  0  0  0  0  0  0  0  0  0  0
  157.2390  213.1700  152.9320 C   0  0  2  0  0  3  0  0  0  0  0  0
  160.3850  212.8860  152.0590 N   0  0  0  0  0  2  0  0  0  0  0  0
  157.3760  214.3100  149.5680 N   0  0  0  0  0  0  0  0  0  0  0  0
  159.0520  214.4530  147.4000 Cl  0  0  0  0  0  0  0  0  0  0  0  0
  155.7960  213.6380  152.6480 C   0  0  0  0  0  2  0  0  0  0  0  0
  159.5610  213.3270  149.8230 C   0  0  0  0  0  0  0  0  0  0  0  0
  160.8050  209.1790  152.9010 C   0  0  0  0  0  2  0  0  0  0  0  0
  160.8710  212.8800  149.2500 C   0  0  0  0  0  1  0  0  0  0  0  0
  159.7180  209.0710  153.9770 C   0  0  0  0  0  2  0  0  0  0  0  0
  159.1790  212.8880  151.2300 C   0  0  2  0  0  3  0  0  0  0  0  0
  157.6350  213.5510  154.3760 C   0  0  1  0  0  3  0  0  0  0  0  0
  158.6820  214.0050  149.0610 C   0  0  0  0  0  0  0  0  0  0  0  0
  157.1060  214.2050  150.8310 C   0  0  0  0  0  0  0  0  0  0  0  0
  159.4220  211.5640  153.9290 C   0  0  2  0  0  3  0  0  0  0  0  0
  158.1170  213.8260  151.8500 C   0  0  1  0  0  3  0  0  0  0  0  0
  160.5720  210.3950  152.0060 C   0  0  0  0  0  2  0  0  0  0  0  0
  155.7820  214.1810  151.3070 N   0  0  0  0  0  2  0  0  0  0  0  0
  159.6480  210.3430  154.8260 C   0  0  2  0  0  3  0  0  0  0  0  0
  160.8110  210.4830  155.5890 O   0  0  0  0  0  1  0  0  0  0  0  0
  160.5090  211.6640  152.8600 C   0  0  1  0  0  3  0  0  0  0  0  0
  154.8370  212.0070  157.2610 C   0  0  0  0  0  3  0  0  0  0  0  0
  156.6700  213.0310  155.4010 C   0  0  0  0  0  0  0  0  0  0  0  0
  156.4890  211.6490  155.5260 C   0  0  0  0  0  3  0  0  0  0  0  0
  155.5800  211.1370  156.4570 C   0  0  0  0  0  3  0  0  0  0  0  0
  155.0100  213.3890  157.1380 C   0  0  0  0  0  3  0  0  0  0  0  0
  155.9250  213.9030  156.2120 C   0  0  0  0  0  3  0  0  0  0  0  0
  2  6  1  6  0  0  0
  2 12  1  0  0  0  0
  3 21  1  0  0  0  0
  4 14  2  0  0  0  0
  5 13  1  0  0  0  0
  8 10  1  0  0  0  0
  9  7  1  0  0  0  0
 10 19  1  0  0  0  0
 11  7  1  6  0  0  0
 11 16  1  0  0  0  0
 11  3  1  0  0  0  0
 12  1  1  0  0  0  0
 12 23  1  1  0  0  0
 13  4  1  0  0  0  0
 13  7  2  0  0  0  0
 14 18  1  0  0  0  0
 15 19  1  0  0  0  0
 15  1  1  1  0  0  0
 16 14  1  6  0  0  0
 16  2  1  0  0  0  0
 17  8  1  0  0  0  0
 18  6  1  0  0  0  0
 19 20  1  6  0  0  0
 21 17  1  6  0  0  0
 21 15  1  0  0  0  0
 23 24  2  0  0  0  0
 23 27  1  0  0  0  0
 24 25  1  0  0  0  0
 25 22  2  0  0  0  0
 26 22  1  0  0  0  0
 27 26  2  0  0  0  0
M  END
>  <MODEL>
5

>  <REMARK>
 VINA RESULT:      -3.3      1.773      2.530
  Name = 
  1 active torsions:
  status: ('A' for Active; 'I' for Inactive)
    1  A    between atoms: C_9  and  C_15
                            x       y       z     vdW  Elec       q    Type
                         _______ _______ _______ _____ _____    ______ ____

>  <TORSDO>
F 1

$$$$
=
 OpenBabel11052423053D

 27 31  0  0  1  0  0  0  0  0999 V2000
  161.1350  211.4450  154.2660 S   0  0  0  0  0  0  0  0  0  0  0  0
  159.1900  212.2050  152.2980 C   0  0  2  0  0  3  0  0  0  0  0  0
  162.1420  211.0650  151.4480 N   0  0  0  0  0  2  0  0  0  0  0  0
  159.7440  213.4250  149.0060 N   0  0  0  0  0  0  0  0  0  0  0  0
  161.4490  213.1850  146.8700 Cl  0  0  0  0  0  0  0  0  0  0  0  0
  157.9520  213.0860  152.0240 C   0  0  0  0  0  2  0  0  0  0  0  0
  161.5430  211.8380  149.2310 C   0  0  0  0  0  0  0  0  0  0  0  0
  161.4490  207.3580  152.0840 C   0  0  0  0  0  2  0  0  0  0  0  0
  162.6830  211.0600  148.6490 C   0  0  0  0  0  1  0  0  0  0  0  0
  160.3470  207.5150  153.1390 C   0  0  0  0  0  2  0  0  0  0  0  0
  161.0120  211.4580  150.6060 C   0  0  2  0  0  3  0  0  0  0  0  0
  159.6390  212.3810  153.7670 C   0  0  1  0  0  3  0  0  0  0  0  0
  160.9200  212.7810  148.4980 C   0  0  0  0  0  0  0  0  0  0  0  0
  159.4200  213.3400  150.2570 C   0  0  0  0  0  0  0  0  0  0  0  0
  160.7870  209.9860  153.2290 C   0  0  2  0  0  3  0  0  0  0  0  0
  160.2490  212.6320  151.2650 C   0  0  1  0  0  3  0  0  0  0  0  0
  161.6020  208.6320  151.2560 C   0  0  0  0  0  2  0  0  0  0  0  0
  158.1330  213.6770  150.7150 N   0  0  0  0  0  2  0  0  0  0  0  0
  160.6240  208.7080  154.0580 C   0  0  2  0  0  3  0  0  0  0  0  0
  161.7570  208.4650  154.8410 O   0  0  0  0  0  1  0  0  0  0  0  0
  161.8850  209.8210  152.1790 C   0  0  1  0  0  3  0  0  0  0  0  0
  156.5320  211.6080  156.6440 C   0  0  0  0  0  3  0  0  0  0  0  0
  158.5360  212.1120  154.7490 C   0  0  0  0  0  0  0  0  0  0  0  0
  158.5290  212.8000  155.9670 C   0  0  0  0  0  3  0  0  0  0  0  0
  157.5270  212.5540  156.9110 C   0  0  0  0  0  3  0  0  0  0  0  0
  156.5360  210.9150  155.4300 C   0  0  0  0  0  3  0  0  0  0  0  0
  157.5340  211.1650  154.4810 C   0  0  0  0  0  3  0  0  0  0  0  0
  2  6  1  1  0  0  0
  2 12  1  0  0  0  0
  3 21  1  0  0  0  0
  4 14  2  0  0  0  0
  5 13  1  0  0  0  0
  8 10  1  0  0  0  0
  9  7  1  0  0  0  0
 10 19  1  0  0  0  0
 11  7  1  6  0  0  0
 11 16  1  0  0  0  0
 11  3  1  0  0  0  0
 12  1  1  0  0  0  0
 12 23  1  1  0  0  0
 13  4  1  0  0  0  0
 13  7  2  0  0  0  0
 14 18  1  0  0  0  0
 15 19  1  0  0  0  0
 15  1  1  1  0  0  0
 16 14  1  6  0  0  0
 16  2  1  0  0  0  0
 17  8  1  0  0  0  0
 18  6  1  0  0  0  0
 19 20  1  6  0  0  0
 21 17  1  6  0  0  0
 21 15  1  0  0  0  0
 22 25  1  0  0  0  0
 23 24  1  0  0  0  0
 24 25  2  0  0  0  0
 26 22  2  0  0  0  0
 27 23  2  0  0  0  0
 27 26  1  0  0  0  0
M  END
>  <MODEL>
6

>  <REMARK>
 VINA RESULT:      -3.2      1.493      2.129
  Name = 
  1 active torsions:
  status: ('A' for Active; 'I' for Inactive)
    1  A    between atoms: C_9  and  C_15
                            x       y       z     vdW  Elec       q    Type
                         _______ _______ _______ _____ _____    ______ ____

>  <TORSDO>
F 1

$$$$
=
 OpenBabel11052423053D

 27 31  0  0  1  0  0  0  0  0999 V2000
  161.9590  212.6590  150.4970 S   0  0  0  0  0  0  0  0  0  0  0  0
  161.5050  210.0280  149.4460 C   0  0  2  0  0  3  0  0  0  0  0  0
  161.2180  210.6750  152.6460 N   0  0  0  0  0  2  0  0  0  0  0  0
  161.9490  206.8970  151.0710 N   0  0  0  0  0  0  0  0  0  0  0  0
  161.7400  205.6860  153.5240 Cl  0  0  0  0  0  0  0  0  0  0  0  0
  161.8290  209.0610  148.2880 C   0  0  0  0  0  2  0  0  0  0  0  0
  161.1540  208.2650  152.8890 C   0  0  0  0  0  0  0  0  0  0  0  0
  157.7850  212.3550  152.5110 C   0  0  0  0  0  2  0  0  0  0  0  0
  160.6710  208.4180  154.2980 C   0  0  0  0  0  1  0  0  0  0  0  0
  157.8380  212.8540  151.0620 C   0  0  0  0  0  2  0  0  0  0  0  0
  160.9880  209.4270  151.9190 C   0  0  2  0  0  3  0  0  0  0  0  0
  162.1900  211.3900  149.1940 C   0  0  1  0  0  3  0  0  0  0  0  0
  161.6180  207.0780  152.4540 C   0  0  0  0  0  0  0  0  0  0  0  0
  162.0870  207.9120  150.2770 C   0  0  0  0  0  0  0  0  0  0  0  0
  160.2510  212.1750  150.9170 C   0  0  2  0  0  3  0  0  0  0  0  0
  161.9750  209.3210  150.7320 C   0  0  1  0  0  3  0  0  0  0  0  0
  158.7800  211.2190  152.7370 C   0  0  0  0  0  2  0  0  0  0  0  0
  162.0890  207.7640  148.8780 N   0  0  0  0  0  2  0  0  0  0  0  0
  159.2500  213.3090  150.6830 C   0  0  2  0  0  3  0  0  0  0  0  0
  159.6020  214.4530  151.4060 O   0  0  0  0  0  1  0  0  0  0  0  0
  160.1910  211.6820  152.3620 C   0  0  1  0  0  3  0  0  0  0  0  0
  161.2200  213.1520  145.3880 C   0  0  0  0  0  3  0  0  0  0  0  0
  161.8370  211.9810  147.8600 C   0  0  0  0  0  0  0  0  0  0  0  0
  162.8310  212.6330  147.1210 C   0  0  0  0  0  3  0  0  0  0  0  0
  162.5260  213.2120  145.8850 C   0  0  0  0  0  3  0  0  0  0  0  0
  160.2220  212.5060  146.1240 C   0  0  0  0  0  3  0  0  0  0  0  0
  160.5270  211.9190  147.3570 C   0  0  0  0  0  3  0  0  0  0  0  0
  2  6  1  6  0  0  0
  2 16  1  0  0  0  0
  4 13  1  0  0  0  0
  6 18  1  0  0  0  0
  7  9  1  0  0  0  0
  8 17  1  0  0  0  0
 10  8  1  0  0  0  0
 11  3  1  1  0  0  0
 11  7  1  0  0  0  0
 12 23  1  6  0  0  0
 12  2  1  0  0  0  0
 12  1  1  0  0  0  0
 13  7  2  0  0  0  0
 13  5  1  0  0  0  0
 14  4  2  0  0  0  0
 15  1  1  1  0  0  0
 15 21  1  0  0  0  0
 16 14  1  6  0  0  0
 16 11  1  0  0  0  0
 18 14  1  0  0  0  0
 19 15  1  0  0  0  0
 19 10  1  0  0  0  0
 19 20  1  1  0  0  0
 21  3  1  0  0  0  0
 21 17  1  6  0  0  0
 22 25  2  0  0  0  0
 22 26  1  0  0  0  0
 24 23  2  0  0  0  0
 25 24  1  0  0  0  0
 26 27  2  0  0  0  0
 27 23  1  0  0  0  0
M  END
>  <MODEL>
7

>  <REMARK>
 VINA RESULT:      -2.9      3.551      7.284
  Name = 
  1 active torsions:
  status: ('A' for Active; 'I' for Inactive)
    1  A    between atoms: C_9  and  C_15
                            x       y       z     vdW  Elec       q    Type
                         _______ _______ _______ _____ _____    ______ ____

>  <TORSDO>
F 1

$$$$
=
 OpenBabel11052423053D

 27 31  0  0  1  0  0  0  0  0999 V2000
  163.3650  208.3900  148.8770 S   0  0  0  0  0  0  0  0  0  0  0  0
  161.2340  206.8710  150.0540 C   0  0  2  0  0  3  0  0  0  0  0  0
  162.5980  209.4130  151.6100 N   0  0  0  0  0  2  0  0  0  0  0  0
  160.5600  206.3210  153.5010 N   0  0  0  0  0  0  0  0  0  0  0  0
  160.7190  207.5370  155.9560 Cl  0  0  0  0  0  0  0  0  0  0  0  0
  160.5230  205.5010  150.0710 C   0  0  0  0  0  2  0  0  0  0  0  0
  161.3810  208.5870  153.5350 C   0  0  0  0  0  0  0  0  0  0  0  0
  160.8240  212.1940  149.6750 C   0  0  0  0  0  2  0  0  0  0  0  0
  161.6410  209.8750  154.2550 C   0  0  0  0  0  1  0  0  0  0  0  0
  160.5630  211.4280  148.3720 C   0  0  0  0  0  2  0  0  0  0  0  0
  161.4870  208.5520  152.0170 C   0  0  2  0  0  3  0  0  0  0  0  0
  162.3690  206.8550  149.0060 C   0  0  1  0  0  3  0  0  0  0  0  0
  160.9400  207.5080  154.2100 C   0  0  0  0  0  0  0  0  0  0  0  0
  160.8880  206.1490  152.2600 C   0  0  0  0  0  0  0  0  0  0  0  0
  161.9800  209.5290  149.2060 C   0  0  2  0  0  3  0  0  0  0  0  0
  161.7180  207.1140  151.4960 C   0  0  1  0  0  3  0  0  0  0  0  0
  161.0700  211.2340  150.8370 C   0  0  0  0  0  2  0  0  0  0  0  0
  160.2700  205.1710  151.4580 N   0  0  0  0  0  2  0  0  0  0  0  0
  161.7250  210.4880  148.0390 C   0  0  2  0  0  3  0  0  0  0  0  0
  162.8720  211.2240  147.7280 O   0  0  0  0  0  1  0  0  0  0  0  0
  162.2370  210.3010  150.5000 C   0  0  1  0  0  3  0  0  0  0  0  0
  161.0790  205.7370  145.0540 C   0  0  0  0  0  3  0  0  0  0  0  0
  161.8940  206.4580  147.6390 C   0  0  0  0  0  0  0  0  0  0  0  0
  162.7370  205.6980  146.8200 C   0  0  0  0  0  3  0  0  0  0  0  0
  162.3300  205.3330  145.5330 C   0  0  0  0  0  3  0  0  0  0  0  0
  160.2340  206.4990  145.8660 C   0  0  0  0  0  3  0  0  0  0  0  0
  160.6370  206.8600  147.1570 C   0  0  0  0  0  3  0  0  0  0  0  0
  1 12  1  0  0  0  0
  2  6  1  1  0  0  0
  2 16  1  0  0  0  0
  4 13  1  0  0  0  0
  6 18  1  0  0  0  0
  7 13  2  0  0  0  0
  7  9  1  0  0  0  0
  8 17  1  0  0  0  0
 10  8  1  0  0  0  0
 11  3  1  1  0  0  0
 11  7  1  0  0  0  0
 12 23  1  6  0  0  0
 12  2  1  0  0  0  0
 13  5  1  0  0  0  0
 14  4  2  0  0  0  0
 15  1  1  6  0  0  0
 15 21  1  0  0  0  0
 16 11  1  0  0  0  0
 16 14  1  1  0  0  0
 18 14  1  0  0  0  0
 19 20  1  1  0  0  0
 19 10  1  0  0  0  0
 19 15  1  0  0  0  0
 21 17  1  1  0  0  0
 21  3  1  0  0  0  0
 22 25  2  0  0  0  0
 22 26  1  0  0  0  0
 24 23  2  0  0  0  0
 25 24  1  0  0  0  0
 26 27  2  0  0  0  0
 27 23  1  0  0  0  0
M  END
>  <MODEL>
8

>  <REMARK>
 VINA RESULT:      -2.4      4.788      8.637
  Name = 
  1 active torsions:
  status: ('A' for Active; 'I' for Inactive)
    1  A    between atoms: C_9  and  C_15
                            x       y       z     vdW  Elec       q    Type
                         _______ _______ _______ _____ _____    ______ ____

>  <TORSDO>
F 1

$$$$
=
 OpenBabel11052423053D

 27 31  0  0  1  0  0  0  0  0999 V2000
  159.2840  202.3370  148.5190 S   0  0  0  0  0  0  0  0  0  0  0  0
  161.4780  203.5760  147.1480 C   0  0  2  0  0  3  0  0  0  0  0  0
  160.1860  204.8840  149.8600 N   0  0  0  0  0  2  0  0  0  0  0  0
  162.3310  207.0240  147.0130 N   0  0  0  0  0  0  0  0  0  0  0  0
  162.2930  209.3210  148.5140 Cl  0  0  0  0  0  0  0  0  0  0  0  0
  162.1950  203.7200  145.7880 C   0  0  0  0  0  2  0  0  0  0  0  0
  161.5040  206.8290  149.2680 C   0  0  0  0  0  0  0  0  0  0  0  0
  161.8470  202.5420  152.3860 C   0  0  0  0  0  2  0  0  0  0  0  0
  161.2750  207.4020  150.6330 C   0  0  0  0  0  1  0  0  0  0  0  0
  162.0440  201.3280  151.4690 C   0  0  0  0  0  2  0  0  0  0  0  0
  161.3200  205.3340  149.0520 C   0  0  2  0  0  3  0  0  0  0  0  0
  160.2910  202.5970  147.0090 C   0  0  1  0  0  3  0  0  0  0  0  0
  161.9820  207.6050  148.2770 C   0  0  0  0  0  0  0  0  0  0  0  0
  161.9400  205.8310  146.6940 C   0  0  0  0  0  0  0  0  0  0  0  0
  160.6790  202.4550  149.6870 C   0  0  2  0  0  3  0  0  0  0  0  0
  161.0680  205.0010  147.5620 C   0  0  1  0  0  3  0  0  0  0  0  0
  161.6640  203.8210  151.5720 C   0  0  0  0  0  2  0  0  0  0  0  0
  162.5210  205.1210  145.6260 N   0  0  0  0  0  2  0  0  0  0  0  0
  160.8700  201.1700  150.4980 C   0  0  2  0  0  3  0  0  0  0  0  0
  159.7050  200.8330  151.1950 O   0  0  0  0  0  1  0  0  0  0  0  0
  160.4860  203.6590  150.6080 C   0  0  1  0  0  3  0  0  0  0  0  0
  161.3780  198.7600  145.3880 C   0  0  0  0  0  3  0  0  0  0  0  0
  160.6970  201.2640  146.4500 C   0  0  0  0  0  0  0  0  0  0  0  0
  160.1570  200.8460  145.2290 C   0  0  0  0  0  3  0  0  0  0  0  0
  160.5010  199.6000  144.6950 C   0  0  0  0  0  3  0  0  0  0  0  0
  161.9180  199.1710  146.6100 C   0  0  0  0  0  3  0  0  0  0  0  0
  161.5810  200.4200  147.1430 C   0  0  0  0  0  3  0  0  0  0  0  0
  2  6  1  6  0  0  0
  2 16  1  0  0  0  0
  3 21  1  0  0  0  0
  4 13  1  0  0  0  0
  7  9  1  0  0  0  0
 10  8  1  0  0  0  0
 11  7  1  6  0  0  0
 11  3  1  0  0  0  0
 12 23  1  1  0  0  0
 12  2  1  0  0  0  0
 12  1  1  0  0  0  0
 13  5  1  0  0  0  0
 13  7  2  0  0  0  0
 14  4  2  0  0  0  0
 15  1  1  6  0  0  0
 15 19  1  0  0  0  0
 15 21  1  0  0  0  0
 16 14  1  6  0  0  0
 16 11  1  0  0  0  0
 17  8  1  0  0  0  0
 18  6  1  0  0  0  0
 18 14  1  0  0  0  0
 19 20  1  1  0  0  0
 19 10  1  0  0  0  0
 21 17  1  6  0  0  0
 22 26  1  0  0  0  0
 23 27  1  0  0  0  0
 24 23  2  0  0  0  0
 25 24  1  0  0  0  0
 25 22  2  0  0  0  0
 26 27  2  0  0  0  0
M  END
>  <MODEL>
9

>  <REMARK>
 VINA RESULT:      -2.2      8.005     10.999
  Name = 
  1 active torsions:
  status: ('A' for Active; 'I' for Inactive)
    1  A    between atoms: C_9  and  C_15
                            x       y       z     vdW  Elec       q    Type
                         _______ _______ _______ _____ _____    ______ ____

>  <TORSDO>
F 1

$$$$
