=
 OpenBabel11052421543D

 30 31  0  0  1  0  0  0  0  0999 V2000
  161.3140  206.1090  152.5720 C   0  0  0  0  0  0  0  0  0  0  0  0
  161.8000  206.0140  151.2910 C   0  0  0  0  0  0  0  0  0  0  0  0
  161.5870  204.7230  150.8610 C   0  0  0  0  0  3  0  0  0  0  0  0
  160.7860  204.9340  152.9600 N   0  0  0  0  0  2  0  0  0  0  0  0
  160.9530  204.0900  151.9200 C   0  0  0  0  0  3  0  0  0  0  0  0
  160.8260  207.0280  154.8150 C   0  0  0  0  0  1  0  0  0  0  0  0
  161.3390  207.3390  153.4200 C   0  0  2  0  0  3  0  0  0  0  0  0
  160.4990  208.4320  152.7790 C   0  0  0  0  0  2  0  0  0  0  0  0
  160.6100  209.7370  153.5650 C   0  0  2  0  0  3  0  0  0  0  0  0
  159.7730  211.2240  151.9300 O   0  0  0  0  0  0  0  0  0  0  0  0
  158.9910  210.3290  155.9890 O   0  0  0  0  0  0  0  0  0  0  0  0
  158.5070  211.2240  153.8710 N   0  0  0  0  0  2  0  0  0  0  0  0
  159.6210  210.7610  153.0900 C   0  0  0  0  0  0  0  0  0  0  0  0
  156.9130  211.4480  155.8050 C   0  0  0  0  0  1  0  0  0  0  0  0
  158.1970  210.9530  155.2430 C   0  0  0  0  0  0  0  0  0  0  0  0
  162.8230  210.3270  152.5610 O   0  0  0  0  0  0  0  0  0  0  0  0
  162.0050  210.2880  153.6820 C   0  0  0  0  0  0  0  0  0  0  0  0
  162.4330  210.7480  154.7750 O   0  0  0  0  0  1  0  0  0  0  0  0
  162.4930  207.0870  150.5160 C   0  0  0  0  0  2  0  0  0  0  0  0
  161.7400  207.4000  149.3120 N   0  0  0  0  0  0  0  0  0  0  0  0
  161.6130  208.8460  149.2530 C   0  0  0  0  0  1  0  0  0  0  0  0
  162.5720  207.0130  148.1840 C   0  0  0  0  0  2  0  0  0  0  0  0
  161.0070  203.4510  145.7820 C   0  0  0  0  0  0  0  0  0  0  0  0
  161.1120  204.5830  144.8160 C   0  0  0  0  0  2  0  0  0  0  0  0
  160.2860  201.9150  145.2220 S   0  0  0  0  0  1  0  0  0  0  0  0
  161.8800  205.9750  147.3690 C   0  0  0  0  0  0  0  0  0  0  0  0
  160.4420  205.8110  145.3310 C   0  0  0  0  0  3  0  0  0  0  0  0
  161.5430  203.5020  147.0010 C   0  0  0  0  0  3  0  0  0  0  0  0
  160.8230  206.4350  146.4460 C   0  0  0  0  0  3  0  0  0  0  0  0
  162.1580  204.6890  147.6280 C   0  0  0  0  0  3  0  0  0  0  0  0
  1  4  1  0  0  0  0
  1  7  1  0  0  0  0
  2  1  2  0  0  0  0
  3  2  1  0  0  0  0
  3  5  2  0  0  0  0
  5  4  1  0  0  0  0
  7  6  1  1  0  0  0
  8  7  1  0  0  0  0
  9  8  1  6  0  0  0
  9 17  1  0  0  0  0
 10 13  2  0  0  0  0
 12 15  1  0  0  0  0
 13  9  1  0  0  0  0
 13 12  1  0  0  0  0
 15 14  1  0  0  0  0
 15 11  2  0  0  0  0
 16 17  2  0  0  0  0
 17 18  1  0  0  0  0
 19  2  1  0  0  0  0
 20 19  1  0  0  0  0
 21 20  1  0  0  0  0
 22 20  1  0  0  0  0
 23 28  2  0  0  0  0
 24 27  1  0  0  0  0
 24 23  1  0  0  0  0
 25 23  1  0  0  0  0
 26 30  2  0  0  0  0
 26 22  1  0  0  0  0
 27 29  2  0  0  0  0
 28 30  1  0  0  0  0
 29 26  1  0  0  0  0
M  END
>  <MODEL>
1

>  <REMARK>
 VINA RESULT:      -7.3      0.000      0.000
  Name = 
  9 active torsions:
  status: ('A' for Active; 'I' for Inactive)
    1  A    between atoms: C_3  and  N_11
    2  A    between atoms: C_3  and  C_19
    3  A    between atoms: C_4  and  C_8
    4  A    between atoms: C_7  and  C_30
    5  A    between atoms: C_8  and  C_12
    6  A    between atoms: C_8  and  C_13
    7  A    between atoms: C_10  and  C_25
    8  A    between atoms: N_11  and  C_25
    9  A    between atoms: C_13  and  C_30
                            x       y       z     vdW  Elec       q    Type
                         _______ _______ _______ _____ _____    ______ ____

>  <TORSDO>
F 9

$$$$
=
 OpenBabel11052421543D

 30 31  0  0  1  0  0  0  0  0999 V2000
  161.0030  209.7170  151.7550 C   0  0  0  0  0  0  0  0  0  0  0  0
  161.3370  208.4430  151.3690 C   0  0  2  0  0  3  0  0  0  0  0  0
  162.1310  208.5450  150.2480 C   0  0  0  0  0  3  0  0  0  0  0  0
  161.5700  210.6200  150.9340 N   0  0  0  0  0  0  0  0  0  0  0  0
  162.2560  209.9070  150.0160 C   0  0  0  0  0  3  0  0  0  0  0  0
  159.4900  211.4210  152.7150 C   0  0  0  0  0  1  0  0  0  0  0  0
  160.1510  210.0720  152.9310 C   0  0  2  0  0  3  0  0  0  0  0  0
  160.9900  210.0900  154.1980 C   0  0  0  0  0  2  0  0  0  0  0  0
  160.1900  209.5730  155.3910 C   0  0  2  0  0  3  0  0  0  0  0  0
  161.2590  210.5460  157.2600 O   0  0  0  0  0  0  0  0  0  0  0  0
  157.4270  210.6730  155.4730 O   0  0  0  0  0  0  0  0  0  0  0  0
  159.1590  211.4420  156.8650 N   0  0  0  0  0  2  0  0  0  0  0  0
  160.2240  210.5310  156.5440 C   0  0  0  0  0  0  0  0  0  0  0  0
  156.9510  212.6400  156.7040 C   0  0  0  0  0  1  0  0  0  0  0  0
  157.8480  211.5270  156.2940 C   0  0  0  0  0  0  0  0  0  0  0  0
  159.4780  207.3120  156.1900 O   0  0  0  0  0  1  0  0  0  0  0  0
  160.5060  208.1600  155.8010 C   0  0  0  0  0  0  0  0  0  0  0  0
  161.6880  207.7210  155.7640 O   0  0  0  0  0  0  0  0  0  0  0  0
  160.8790  207.1680  151.9980 C   0  0  0  0  0  2  0  0  0  0  0  0
  161.7300  206.0680  151.5750 N   0  0  0  0  0  0  0  0  0  0  0  0
  162.6980  205.8460  152.6350 C   0  0  0  0  0  1  0  0  0  0  0  0
  160.8900  204.8820  151.5290 C   0  0  0  0  0  2  0  0  0  0  0  0
  161.0640  202.6560  147.5390 C   0  0  0  0  0  0  0  0  0  0  0  0
  161.8990  203.8800  147.3630 C   0  0  0  0  0  2  0  0  0  0  0  0
  160.7820  201.6050  146.1230 S   0  0  0  0  0  1  0  0  0  0  0  0
  160.8480  204.3360  150.1430 C   0  0  0  0  0  0  0  0  0  0  0  0
  161.1720  205.1100  147.7890 C   0  0  0  0  0  3  0  0  0  0  0  0
  160.6300  202.2550  148.7330 C   0  0  0  0  0  3  0  0  0  0  0  0
  160.7470  205.3090  149.0370 C   0  0  0  0  0  3  0  0  0  0  0  0
  160.7580  203.0060  149.9980 C   0  0  0  0  0  3  0  0  0  0  0  0
  1  7  1  0  0  0  0
  2  1  1  0  0  0  0
  2 19  1  6  0  0  0
  3  2  1  0  0  0  0
  4  1  2  0  0  0  0
  5  3  2  0  0  0  0
  5  4  1  0  0  0  0
  7  6  1  6  0  0  0
  7  8  1  0  0  0  0
  9  8  1  6  0  0  0
  9 17  1  0  0  0  0
  9 13  1  0  0  0  0
 11 15  2  0  0  0  0
 13 12  1  0  0  0  0
 13 10  2  0  0  0  0
 15 14  1  0  0  0  0
 15 12  1  0  0  0  0
 17 16  1  0  0  0  0
 18 17  2  0  0  0  0
 20 19  1  0  0  0  0
 20 21  1  0  0  0  0
 22 20  1  0  0  0  0
 23 28  2  0  0  0  0
 24 23  1  0  0  0  0
 24 27  1  0  0  0  0
 25 23  1  0  0  0  0
 26 22  1  0  0  0  0
 27 29  2  0  0  0  0
 28 30  1  0  0  0  0
 29 26  1  0  0  0  0
 30 26  2  0  0  0  0
M  END
>  <MODEL>
2

>  <REMARK>
 VINA RESULT:      -7.2      2.003      3.541
  Name = 
  9 active torsions:
  status: ('A' for Active; 'I' for Inactive)
    1  A    between atoms: C_3  and  N_11
    2  A    between atoms: C_3  and  C_19
    3  A    between atoms: C_4  and  C_8
    4  A    between atoms: C_7  and  C_30
    5  A    between atoms: C_8  and  C_12
    6  A    between atoms: C_8  and  C_13
    7  A    between atoms: C_10  and  C_25
    8  A    between atoms: N_11  and  C_25
    9  A    between atoms: C_13  and  C_30
                            x       y       z     vdW  Elec       q    Type
                         _______ _______ _______ _____ _____    ______ ____

>  <TORSDO>
F 9

$$$$
=
 OpenBabel11052421543D

 30 31  0  0  1  0  0  0  0  0999 V2000
  160.2680  209.0400  155.2990 C   0  0  0  0  0  0  0  0  0  0  0  0
  160.8990  208.3320  154.3060 C   0  0  0  0  0  0  0  0  0  0  0  0
  160.7400  206.9940  154.5860 C   0  0  0  0  0  3  0  0  0  0  0  0
  159.7010  208.2010  156.1840 N   0  0  0  0  0  2  0  0  0  0  0  0
  159.9880  206.9550  155.7510 C   0  0  0  0  0  3  0  0  0  0  0  0
  161.4290  211.0800  156.0770 C   0  0  0  0  0  1  0  0  0  0  0  0
  160.1930  210.5300  155.3890 C   0  0  2  0  0  3  0  0  0  0  0  0
  158.9390  210.9450  156.1410 C   0  0  0  0  0  2  0  0  0  0  0  0
  157.9120  211.5610  155.1930 C   0  0  2  0  0  3  0  0  0  0  0  0
  157.9930  213.8610  155.7320 O   0  0  0  0  0  0  0  0  0  0  0  0
  158.6890  211.4540  152.3240 O   0  0  0  0  0  0  0  0  0  0  0  0
  158.8440  213.4060  153.6250 N   0  0  0  0  0  2  0  0  0  0  0  0
  158.2430  212.9870  154.8620 C   0  0  0  0  0  0  0  0  0  0  0  0
  159.8510  213.2590  151.3230 C   0  0  0  0  0  1  0  0  0  0  0  0
  159.1010  212.6350  152.4450 C   0  0  0  0  0  0  0  0  0  0  0  0
  156.1240  211.5530  156.9410 O   0  0  0  0  0  1  0  0  0  0  0  0
  156.4780  211.3810  155.6100 C   0  0  0  0  0  0  0  0  0  0  0  0
  155.5840  211.1090  154.7630 O   0  0  0  0  0  0  0  0  0  0  0  0
  161.6760  208.8960  153.1610 C   0  0  0  0  0  2  0  0  0  0  0  0
  161.2650  208.2640  151.9190 N   0  0  0  0  0  0  0  0  0  0  0  0
  161.3270  209.2810  150.8820 C   0  0  0  0  0  1  0  0  0  0  0  0
  162.2840  207.2800  151.5910 C   0  0  0  0  0  2  0  0  0  0  0  0
  160.8650  203.3260  149.7850 C   0  0  0  0  0  0  0  0  0  0  0  0
  161.3090  204.1650  148.6350 C   0  0  0  0  0  2  0  0  0  0  0  0
  160.1050  201.7450  149.4450 S   0  0  0  0  0  1  0  0  0  0  0  0
  161.6670  206.1130  150.8990 C   0  0  0  0  0  0  0  0  0  0  0  0
  160.6950  205.5230  148.6740 C   0  0  0  0  0  3  0  0  0  0  0  0
  161.1270  203.6520  151.0500 C   0  0  0  0  0  3  0  0  0  0  0  0
  160.8960  206.3860  149.6700 C   0  0  0  0  0  3  0  0  0  0  0  0
  161.7270  204.9210  151.5100 C   0  0  0  0  0  3  0  0  0  0  0  0
  1  7  1  0  0  0  0
  1  4  1  0  0  0  0
  2  3  1  0  0  0  0
  2  1  2  0  0  0  0
  3  5  2  0  0  0  0
  5  4  1  0  0  0  0
  7  6  1  1  0  0  0
  7  8  1  0  0  0  0
  9 17  1  0  0  0  0
  9  8  1  1  0  0  0
 11 15  2  0  0  0  0
 12 13  1  0  0  0  0
 13  9  1  0  0  0  0
 13 10  2  0  0  0  0
 14 15  1  0  0  0  0
 15 12  1  0  0  0  0
 17 16  1  0  0  0  0
 18 17  2  0  0  0  0
 19  2  1  0  0  0  0
 20 19  1  0  0  0  0
 21 20  1  0  0  0  0
 22 20  1  0  0  0  0
 23 28  2  0  0  0  0
 24 27  1  0  0  0  0
 24 23  1  0  0  0  0
 25 23  1  0  0  0  0
 26 30  2  0  0  0  0
 26 22  1  0  0  0  0
 27 29  2  0  0  0  0
 28 30  1  0  0  0  0
 29 26  1  0  0  0  0
M  END
>  <MODEL>
3

>  <REMARK>
 VINA RESULT:      -6.8      2.380      4.318
  Name = 
  9 active torsions:
  status: ('A' for Active; 'I' for Inactive)
    1  A    between atoms: C_3  and  N_11
    2  A    between atoms: C_3  and  C_19
    3  A    between atoms: C_4  and  C_8
    4  A    between atoms: C_7  and  C_30
    5  A    between atoms: C_8  and  C_12
    6  A    between atoms: C_8  and  C_13
    7  A    between atoms: C_10  and  C_25
    8  A    between atoms: N_11  and  C_25
    9  A    between atoms: C_13  and  C_30
                            x       y       z     vdW  Elec       q    Type
                         _______ _______ _______ _____ _____    ______ ____

>  <TORSDO>
F 9

$$$$
=
 OpenBabel11052421543D

 30 31  0  0  1  0  0  0  0  0999 V2000
  161.6530  205.4060  147.6550 C   0  0  0  0  0  0  0  0  0  0  0  0
  161.3120  205.4720  148.9830 C   0  0  2  0  0  3  0  0  0  0  0  0
  160.7990  206.7280  149.2170 C   0  0  0  0  0  3  0  0  0  0  0  0
  161.3590  206.5640  147.0370 N   0  0  0  0  0  0  0  0  0  0  0  0
  160.8400  207.3690  147.9880 C   0  0  0  0  0  3  0  0  0  0  0  0
  163.4590  204.6310  146.1530 C   0  0  0  0  0  1  0  0  0  0  0  0
  162.2480  204.2180  146.9700 C   0  0  2  0  0  3  0  0  0  0  0  0
  161.2090  203.5550  146.0790 C   0  0  0  0  0  2  0  0  0  0  0  0
  161.0790  202.0690  146.4050 C   0  0  2  0  0  3  0  0  0  0  0  0
  159.2740  202.0230  144.8790 O   0  0  0  0  0  0  0  0  0  0  0  0
  161.8970  199.2200  146.6550 O   0  0  0  0  0  0  0  0  0  0  0  0
  160.3430  199.9750  145.0620 N   0  0  0  0  0  2  0  0  0  0  0  0
  160.1920  201.3580  145.4250 C   0  0  0  0  0  0  0  0  0  0  0  0
  161.2820  197.6410  145.0010 C   0  0  0  0  0  1  0  0  0  0  0  0
  161.2110  198.9870  145.6290 C   0  0  0  0  0  0  0  0  0  0  0  0
  161.6670  201.1650  148.6610 O   0  0  0  0  0  1  0  0  0  0  0  0
  160.7250  201.7630  147.8350 C   0  0  0  0  0  0  0  0  0  0  0  0
  159.5970  202.0720  148.3060 O   0  0  0  0  0  0  0  0  0  0  0  0
  161.5130  204.4080  150.0120 C   0  0  0  0  0  2  0  0  0  0  0  0
  160.9230  204.8170  151.2760 N   0  0  0  0  0  0  0  0  0  0  0  0
  160.5840  203.6040  152.0010 C   0  0  0  0  0  1  0  0  0  0  0  0
  161.9730  205.4730  152.0380 C   0  0  0  0  0  2  0  0  0  0  0  0
  160.7230  209.5090  153.7850 C   0  0  0  0  0  0  0  0  0  0  0  0
  161.3340  208.7470  154.9110 C   0  0  0  0  0  2  0  0  0  0  0  0
  159.9810  211.0970  154.1310 S   0  0  0  0  0  1  0  0  0  0  0  0
  161.4290  206.6710  152.7370 C   0  0  0  0  0  0  0  0  0  0  0  0
  160.7480  207.3810  155.0340 C   0  0  0  0  0  3  0  0  0  0  0  0
  160.8210  209.1100  152.5170 C   0  0  0  0  0  3  0  0  0  0  0  0
  160.8340  206.4620  154.0720 C   0  0  0  0  0  3  0  0  0  0  0  0
  161.3820  207.8250  152.0550 C   0  0  0  0  0  3  0  0  0  0  0  0
  1  2  1  0  0  0  0
  2  3  1  0  0  0  0
  2 19  1  1  0  0  0
  4  1  2  0  0  0  0
  4  5  1  0  0  0  0
  5  3  2  0  0  0  0
  7  6  1  6  0  0  0
  7  1  1  0  0  0  0
  8  7  1  0  0  0  0
  9  8  1  1  0  0  0
  9 17  1  0  0  0  0
 10 13  2  0  0  0  0
 12 13  1  0  0  0  0
 12 15  1  0  0  0  0
 13  9  1  0  0  0  0
 14 15  1  0  0  0  0
 15 11  2  0  0  0  0
 17 18  2  0  0  0  0
 17 16  1  0  0  0  0
 19 20  1  0  0  0  0
 20 21  1  0  0  0  0
 20 22  1  0  0  0  0
 22 26  1  0  0  0  0
 23 25  1  0  0  0  0
 23 24  1  0  0  0  0
 24 27  1  0  0  0  0
 26 29  1  0  0  0  0
 28 23  2  0  0  0  0
 29 27  2  0  0  0  0
 30 28  1  0  0  0  0
 30 26  2  0  0  0  0
M  END
>  <MODEL>
4

>  <REMARK>
 VINA RESULT:      -6.6      5.259      9.608
  Name = 
  9 active torsions:
  status: ('A' for Active; 'I' for Inactive)
    1  A    between atoms: C_3  and  N_11
    2  A    between atoms: C_3  and  C_19
    3  A    between atoms: C_4  and  C_8
    4  A    between atoms: C_7  and  C_30
    5  A    between atoms: C_8  and  C_12
    6  A    between atoms: C_8  and  C_13
    7  A    between atoms: C_10  and  C_25
    8  A    between atoms: N_11  and  C_25
    9  A    between atoms: C_13  and  C_30
                            x       y       z     vdW  Elec       q    Type
                         _______ _______ _______ _____ _____    ______ ____

>  <TORSDO>
F 9

$$$$
=
 OpenBabel11052421543D

 30 31  0  0  1  0  0  0  0  0999 V2000
  161.0750  203.7010  150.3360 C   0  0  0  0  0  0  0  0  0  0  0  0
  160.9200  204.7640  151.1900 C   0  0  2  0  0  3  0  0  0  0  0  0
  160.8370  204.2600  152.4690 C   0  0  0  0  0  3  0  0  0  0  0  0
  161.1130  202.5470  151.0260 N   0  0  0  0  0  0  0  0  0  0  0  0
  160.9670  202.8860  152.3240 C   0  0  0  0  0  3  0  0  0  0  0  0
  160.8240  205.1830  148.3720 C   0  0  0  0  0  1  0  0  0  0  0  0
  161.2080  203.7940  148.8500 C   0  0  2  0  0  3  0  0  0  0  0  0
  160.3350  202.7440  148.1810 C   0  0  0  0  0  2  0  0  0  0  0  0
  161.1100  202.0010  147.0950 C   0  0  2  0  0  3  0  0  0  0  0  0
  159.6690  201.2380  145.3840 O   0  0  0  0  0  0  0  0  0  0  0  0
  162.4890  204.3480  145.8970 O   0  0  0  0  0  0  0  0  0  0  0  0
  160.6780  203.2590  144.8680 N   0  0  0  0  0  2  0  0  0  0  0  0
  160.4620  202.1440  145.7490 C   0  0  0  0  0  0  0  0  0  0  0  0
  161.5730  205.4500  144.0110 C   0  0  0  0  0  1  0  0  0  0  0  0
  161.6160  204.3340  144.9930 C   0  0  0  0  0  0  0  0  0  0  0  0
  161.5990  199.6490  146.4010 O   0  0  0  0  0  0  0  0  0  0  0  0
  161.4520  200.5740  147.4260 C   0  0  0  0  0  0  0  0  0  0  0  0
  161.6400  200.2100  148.6180 O   0  0  0  0  0  1  0  0  0  0  0  0
  160.7960  206.2040  150.8130 C   0  0  0  0  0  2  0  0  0  0  0  0
  161.7150  207.0090  151.6010 N   0  0  0  0  0  0  0  0  0  0  0  0
  162.9500  207.1110  150.8430 C   0  0  0  0  0  1  0  0  0  0  0  0
  161.1550  208.3490  151.6600 C   0  0  0  0  0  2  0  0  0  0  0  0
  160.3480  210.0890  155.8110 C   0  0  0  0  0  0  0  0  0  0  0  0
  161.4400  209.0890  155.9910 C   0  0  0  0  0  2  0  0  0  0  0  0
  159.6650  210.8770  157.2610 S   0  0  0  0  0  1  0  0  0  0  0  0
  160.8330  208.7100  153.0690 C   0  0  0  0  0  0  0  0  0  0  0  0
  161.0920  207.7770  155.3730 C   0  0  0  0  0  3  0  0  0  0  0  0
  159.9550  210.5070  154.6080 C   0  0  0  0  0  3  0  0  0  0  0  0
  160.8630  207.6230  154.0690 C   0  0  0  0  0  3  0  0  0  0  0  0
  160.3980  209.9550  153.3120 C   0  0  0  0  0  3  0  0  0  0  0  0
  1  4  2  0  0  0  0
  1  2  1  0  0  0  0
  2 19  1  6  0  0  0
  2  3  1  0  0  0  0
  4  5  1  0  0  0  0
  5  3  2  0  0  0  0
  7  6  1  6  0  0  0
  7  1  1  0  0  0  0
  8  7  1  0  0  0  0
  9 17  1  0  0  0  0
  9  8  1  1  0  0  0
 10 13  2  0  0  0  0
 12 15  1  0  0  0  0
 12 13  1  0  0  0  0
 13  9  1  0  0  0  0
 14 15  1  0  0  0  0
 15 11  2  0  0  0  0
 16 17  2  0  0  0  0
 17 18  1  0  0  0  0
 19 20  1  0  0  0  0
 20 22  1  0  0  0  0
 21 20  1  0  0  0  0
 22 26  1  0  0  0  0
 23 24  1  0  0  0  0
 23 25  1  0  0  0  0
 26 30  2  0  0  0  0
 26 29  1  0  0  0  0
 27 24  1  0  0  0  0
 28 23  2  0  0  0  0
 29 27  2  0  0  0  0
 30 28  1  0  0  0  0
M  END
>  <MODEL>
5

>  <REMARK>
 VINA RESULT:      -6.5      5.233      9.225
  Name = 
  9 active torsions:
  status: ('A' for Active; 'I' for Inactive)
    1  A    between atoms: C_3  and  N_11
    2  A    between atoms: C_3  and  C_19
    3  A    between atoms: C_4  and  C_8
    4  A    between atoms: C_7  and  C_30
    5  A    between atoms: C_8  and  C_12
    6  A    between atoms: C_8  and  C_13
    7  A    between atoms: C_10  and  C_25
    8  A    between atoms: N_11  and  C_25
    9  A    between atoms: C_13  and  C_30
                            x       y       z     vdW  Elec       q    Type
                         _______ _______ _______ _____ _____    ______ ____

>  <TORSDO>
F 9

$$$$
=
 OpenBabel11052421543D

 30 31  0  0  1  0  0  0  0  0999 V2000
  160.8780  203.7310  150.5820 C   0  0  0  0  0  0  0  0  0  0  0  0
  160.9670  204.9610  151.1860 C   0  0  0  0  0  0  0  0  0  0  0  0
  161.1630  204.7480  152.5330 C   0  0  0  0  0  3  0  0  0  0  0  0
  161.0300  202.7510  151.4910 N   0  0  0  0  0  2  0  0  0  0  0  0
  161.2020  203.3690  152.6780 C   0  0  0  0  0  3  0  0  0  0  0  0
  160.8950  202.0330  148.7850 C   0  0  0  0  0  1  0  0  0  0  0  0
  160.6670  203.4950  149.1220 C   0  0  2  0  0  3  0  0  0  0  0  0
  161.6020  204.3770  148.3100 C   0  0  0  0  0  2  0  0  0  0  0  0
  161.0750  204.5690  146.8900 C   0  0  2  0  0  3  0  0  0  0  0  0
  163.0250  204.3030  145.5790 O   0  0  0  0  0  0  0  0  0  0  0  0
  159.2370  202.4470  145.9050 O   0  0  0  0  0  0  0  0  0  0  0  0
  161.4940  202.5930  145.2620 N   0  0  0  0  0  2  0  0  0  0  0  0
  161.9010  203.8240  145.8820 C   0  0  0  0  0  0  0  0  0  0  0  0
  160.0790  200.5870  144.7060 C   0  0  0  0  0  1  0  0  0  0  0  0
  160.2290  201.9240  145.3390 C   0  0  0  0  0  0  0  0  0  0  0  0
  160.1820  206.2790  145.2980 O   0  0  0  0  0  0  0  0  0  0  0  0
  160.8290  206.0000  146.4940 C   0  0  0  0  0  0  0  0  0  0  0  0
  161.1710  206.9510  147.2480 O   0  0  0  0  0  1  0  0  0  0  0  0
  160.8150  206.2930  150.5290 C   0  0  0  0  0  2  0  0  0  0  0  0
  161.7050  207.2610  151.1490 N   0  0  0  0  0  0  0  0  0  0  0  0
  162.9030  207.3270  150.3290 C   0  0  0  0  0  1  0  0  0  0  0  0
  161.0580  208.5590  151.0370 C   0  0  0  0  0  2  0  0  0  0  0  0
  160.8140  210.9940  154.8990 C   0  0  0  0  0  0  0  0  0  0  0  0
  161.7530  209.8700  155.1820 C   0  0  0  0  0  2  0  0  0  0  0  0
  160.3600  212.0840  156.2390 S   0  0  0  0  0  1  0  0  0  0  0  0
  160.8930  209.1680  152.3860 C   0  0  0  0  0  0  0  0  0  0  0  0
  161.1710  208.5540  154.7930 C   0  0  0  0  0  3  0  0  0  0  0  0
  160.4030  211.2870  153.6660 C   0  0  0  0  0  3  0  0  0  0  0  0
  160.8310  208.2490  153.5400 C   0  0  0  0  0  3  0  0  0  0  0  0
  160.6670  210.4880  152.4530 C   0  0  0  0  0  3  0  0  0  0  0  0
  1  2  2  0  0  0  0
  1  4  1  0  0  0  0
  2  3  1  0  0  0  0
  3  5  2  0  0  0  0
  4  5  1  0  0  0  0
  7  6  1  1  0  0  0
  7  1  1  0  0  0  0
  8  7  1  0  0  0  0
  9  8  1  1  0  0  0
 10 13  2  0  0  0  0
 12 15  1  0  0  0  0
 12 13  1  0  0  0  0
 13  9  1  0  0  0  0
 14 15  1  0  0  0  0
 15 11  2  0  0  0  0
 16 17  2  0  0  0  0
 17  9  1  0  0  0  0
 17 18  1  0  0  0  0
 19 20  1  0  0  0  0
 19  2  1  0  0  0  0
 21 20  1  0  0  0  0
 22 20  1  0  0  0  0
 22 26  1  0  0  0  0
 23 24  1  0  0  0  0
 23 25  1  0  0  0  0
 26 30  2  0  0  0  0
 26 29  1  0  0  0  0
 27 24  1  0  0  0  0
 28 23  2  0  0  0  0
 29 27  2  0  0  0  0
 30 28  1  0  0  0  0
M  END
>  <MODEL>
6

>  <REMARK>
 VINA RESULT:      -6.3      4.597      8.729
  Name = 
  9 active torsions:
  status: ('A' for Active; 'I' for Inactive)
    1  A    between atoms: C_3  and  N_11
    2  A    between atoms: C_3  and  C_19
    3  A    between atoms: C_4  and  C_8
    4  A    between atoms: C_7  and  C_30
    5  A    between atoms: C_8  and  C_12
    6  A    between atoms: C_8  and  C_13
    7  A    between atoms: C_10  and  C_25
    8  A    between atoms: N_11  and  C_25
    9  A    between atoms: C_13  and  C_30
                            x       y       z     vdW  Elec       q    Type
                         _______ _______ _______ _____ _____    ______ ____

>  <TORSDO>
F 9

$$$$
=
 OpenBabel11052421543D

 30 31  0  0  1  0  0  0  0  0999 V2000
  161.2970  207.5400  152.4670 C   0  0  0  0  0  0  0  0  0  0  0  0
  161.8770  206.9870  151.3520 C   0  0  0  0  0  0  0  0  0  0  0  0
  161.8320  205.6180  151.4980 C   0  0  0  0  0  3  0  0  0  0  0  0
  160.8720  206.5760  153.3020 N   0  0  0  0  0  2  0  0  0  0  0  0
  161.1980  205.4050  152.7130 C   0  0  0  0  0  3  0  0  0  0  0  0
  162.0820  209.8020  151.8460 C   0  0  0  0  0  1  0  0  0  0  0  0
  161.1330  209.0040  152.7230 C   0  0  2  0  0  3  0  0  0  0  0  0
  161.3850  209.3080  154.1910 C   0  0  0  0  0  2  0  0  0  0  0  0
  160.1770  209.9960  154.8210 C   0  0  2  0  0  3  0  0  0  0  0  0
  161.0730  211.8200  156.0270 O   0  0  0  0  0  0  0  0  0  0  0  0
  158.4900  211.2630  152.7240 O   0  0  0  0  0  0  0  0  0  0  0  0
  159.9390  212.4810  154.1170 N   0  0  0  0  0  2  0  0  0  0  0  0
  160.4100  211.4650  155.0180 C   0  0  0  0  0  0  0  0  0  0  0  0
  158.8160  213.5300  152.1240 C   0  0  0  0  0  1  0  0  0  0  0  0
  159.0670  212.3470  152.9890 C   0  0  0  0  0  0  0  0  0  0  0  0
  158.9980  210.0820  157.0250 O   0  0  0  0  0  1  0  0  0  0  0  0
  159.6380  209.3230  156.0550 C   0  0  0  0  0  0  0  0  0  0  0  0
  159.7280  208.0750  156.2060 O   0  0  0  0  0  0  0  0  0  0  0  0
  162.5040  207.7200  150.2120 C   0  0  0  0  0  2  0  0  0  0  0  0
  161.7850  207.4390  148.9800 N   0  0  0  0  0  0  0  0  0  0  0  0
  161.5570  208.7120  148.3180 C   0  0  0  0  0  1  0  0  0  0  0  0
  162.6910  206.6870  148.1270 C   0  0  0  0  0  2  0  0  0  0  0  0
  160.8910  203.1900  145.7940 C   0  0  0  0  0  0  0  0  0  0  0  0
  161.0750  204.2920  144.8050 C   0  0  0  0  0  2  0  0  0  0  0  0
  160.0670  201.6960  145.2640 S   0  0  0  0  0  1  0  0  0  0  0  0
  161.9310  205.6820  147.3310 C   0  0  0  0  0  0  0  0  0  0  0  0
  160.4900  205.5740  145.2920 C   0  0  0  0  0  3  0  0  0  0  0  0
  161.4260  203.2300  147.0140 C   0  0  0  0  0  3  0  0  0  0  0  0
  160.9100  206.1940  146.3950 C   0  0  0  0  0  3  0  0  0  0  0  0
  162.1190  204.3860  147.6180 C   0  0  0  0  0  3  0  0  0  0  0  0
  1  7  1  0  0  0  0
  1  4  1  0  0  0  0
  2  3  1  0  0  0  0
  2  1  2  0  0  0  0
  3  5  2  0  0  0  0
  5  4  1  0  0  0  0
  7  6  1  6  0  0  0
  7  8  1  0  0  0  0
  9  8  1  1  0  0  0
  9 13  1  0  0  0  0
  9 17  1  0  0  0  0
 11 15  2  0  0  0  0
 12 13  1  0  0  0  0
 13 10  2  0  0  0  0
 14 15  1  0  0  0  0
 15 12  1  0  0  0  0
 17 18  2  0  0  0  0
 17 16  1  0  0  0  0
 19  2  1  0  0  0  0
 20 19  1  0  0  0  0
 21 20  1  0  0  0  0
 22 20  1  0  0  0  0
 23 28  2  0  0  0  0
 24 27  1  0  0  0  0
 24 23  1  0  0  0  0
 25 23  1  0  0  0  0
 26 30  2  0  0  0  0
 26 22  1  0  0  0  0
 27 29  2  0  0  0  0
 28 30  1  0  0  0  0
 29 26  1  0  0  0  0
M  END
>  <MODEL>
7

>  <REMARK>
 VINA RESULT:      -6.1      1.513      2.383
  Name = 
  9 active torsions:
  status: ('A' for Active; 'I' for Inactive)
    1  A    between atoms: C_3  and  N_11
    2  A    between atoms: C_3  and  C_19
    3  A    between atoms: C_4  and  C_8
    4  A    between atoms: C_7  and  C_30
    5  A    between atoms: C_8  and  C_12
    6  A    between atoms: C_8  and  C_13
    7  A    between atoms: C_10  and  C_25
    8  A    between atoms: N_11  and  C_25
    9  A    between atoms: C_13  and  C_30
                            x       y       z     vdW  Elec       q    Type
                         _______ _______ _______ _____ _____    ______ ____

>  <TORSDO>
F 9

$$$$
=
 OpenBabel11052421543D

 30 31  0  0  1  0  0  0  0  0999 V2000
  161.0310  209.6470  151.6660 C   0  0  0  0  0  0  0  0  0  0  0  0
  161.3970  208.3790  151.2870 C   0  0  2  0  0  3  0  0  0  0  0  0
  162.1990  208.4940  150.1730 C   0  0  0  0  0  3  0  0  0  0  0  0
  161.5860  210.5590  150.8470 N   0  0  0  0  0  0  0  0  0  0  0  0
  162.2960  209.8570  149.9380 C   0  0  0  0  0  3  0  0  0  0  0  0
  159.4520  211.3080  152.5940 C   0  0  0  0  0  1  0  0  0  0  0  0
  160.1600  209.9860  152.8320 C   0  0  2  0  0  3  0  0  0  0  0  0
  160.9920  210.0520  154.1030 C   0  0  0  0  0  2  0  0  0  0  0  0
  160.1770  209.6010  155.3130 C   0  0  2  0  0  3  0  0  0  0  0  0
  159.2010  210.9660  156.9760 O   0  0  0  0  0  0  0  0  0  0  0  0
  163.0610  210.3290  155.3690 O   0  0  0  0  0  0  0  0  0  0  0  0
  161.5150  211.0770  156.9740 N   0  0  0  0  0  2  0  0  0  0  0  0
  160.2740  210.5780  156.4470 C   0  0  0  0  0  0  0  0  0  0  0  0
  163.9940  211.4050  157.2610 C   0  0  0  0  0  1  0  0  0  0  0  0
  162.8440  210.8920  156.4710 C   0  0  0  0  0  0  0  0  0  0  0  0
  159.3440  207.3390  155.9800 O   0  0  0  0  0  1  0  0  0  0  0  0
  160.4230  208.1810  155.7470 C   0  0  0  0  0  0  0  0  0  0  0  0
  161.5950  207.7330  155.8710 O   0  0  0  0  0  0  0  0  0  0  0  0
  160.9600  207.0960  151.9160 C   0  0  0  0  0  2  0  0  0  0  0  0
  161.8220  206.0080  151.4840 N   0  0  0  0  0  0  0  0  0  0  0  0
  162.7840  205.7780  152.5480 C   0  0  0  0  0  1  0  0  0  0  0  0
  160.9920  204.8170  151.4140 C   0  0  0  0  0  2  0  0  0  0  0  0
  161.1360  202.7100  147.3580 C   0  0  0  0  0  0  0  0  0  0  0  0
  161.9560  203.9470  147.2070 C   0  0  0  0  0  2  0  0  0  0  0  0
  160.8460  201.6970  145.9160 S   0  0  0  0  0  1  0  0  0  0  0  0
  160.9370  204.3120  150.0130 C   0  0  0  0  0  0  0  0  0  0  0  0
  161.2220  205.1560  147.6790 C   0  0  0  0  0  3  0  0  0  0  0  0
  160.7220  202.2700  148.5450 C   0  0  0  0  0  3  0  0  0  0  0  0
  160.8110  205.3150  148.9370 C   0  0  0  0  0  3  0  0  0  0  0  0
  160.8580  202.9850  149.8300 C   0  0  0  0  0  3  0  0  0  0  0  0
  1  7  1  0  0  0  0
  2  1  1  0  0  0  0
  2 19  1  6  0  0  0
  3  2  1  0  0  0  0
  4  1  2  0  0  0  0
  5  3  2  0  0  0  0
  5  4  1  0  0  0  0
  7  6  1  6  0  0  0
  7  8  1  0  0  0  0
  9  8  1  6  0  0  0
  9 17  1  0  0  0  0
  9 13  1  0  0  0  0
 11 15  2  0  0  0  0
 13 12  1  0  0  0  0
 13 10  2  0  0  0  0
 15 12  1  0  0  0  0
 15 14  1  0  0  0  0
 17 18  2  0  0  0  0
 17 16  1  0  0  0  0
 20 19  1  0  0  0  0
 20 21  1  0  0  0  0
 22 20  1  0  0  0  0
 23 28  2  0  0  0  0
 24 23  1  0  0  0  0
 24 27  1  0  0  0  0
 25 23  1  0  0  0  0
 26 22  1  0  0  0  0
 27 29  2  0  0  0  0
 28 30  1  0  0  0  0
 29 26  1  0  0  0  0
 30 26  2  0  0  0  0
M  END
>  <MODEL>
8

>  <REMARK>
 VINA RESULT:      -6.0      2.079      3.895
  Name = 
  9 active torsions:
  status: ('A' for Active; 'I' for Inactive)
    1  A    between atoms: C_3  and  N_11
    2  A    between atoms: C_3  and  C_19
    3  A    between atoms: C_4  and  C_8
    4  A    between atoms: C_7  and  C_30
    5  A    between atoms: C_8  and  C_12
    6  A    between atoms: C_8  and  C_13
    7  A    between atoms: C_10  and  C_25
    8  A    between atoms: N_11  and  C_25
    9  A    between atoms: C_13  and  C_30
                            x       y       z     vdW  Elec       q    Type
                         _______ _______ _______ _____ _____    ______ ____

>  <TORSDO>
F 9

$$$$
=
 OpenBabel11052421543D

 30 31  0  0  1  0  0  0  0  0999 V2000
  160.6290  209.3050  155.4720 C   0  0  0  0  0  0  0  0  0  0  0  0
  160.9130  208.6210  154.3160 C   0  0  0  0  0  0  0  0  0  0  0  0
  160.3800  207.3570  154.4410 C   0  0  0  0  0  3  0  0  0  0  0  0
  159.9220  208.5310  156.3130 N   0  0  0  0  0  2  0  0  0  0  0  0
  159.7700  207.3450  155.6870 C   0  0  0  0  0  3  0  0  0  0  0  0
  160.5380  211.1270  157.1420 C   0  0  0  0  0  1  0  0  0  0  0  0
  161.0230  210.7180  155.7620 C   0  0  2  0  0  3  0  0  0  0  0  0
  160.4510  211.6470  154.7030 C   0  0  0  0  0  2  0  0  0  0  0  0
  159.0500  212.1160  155.0870 C   0  0  2  0  0  3  0  0  0  0  0  0
  158.2710  211.4770  152.9480 O   0  0  0  0  0  0  0  0  0  0  0  0
  156.6730  211.8150  156.8500 O   0  0  0  0  0  0  0  0  0  0  0  0
  156.7240  211.0640  154.6230 N   0  0  0  0  0  2  0  0  0  0  0  0
  158.0020  211.5470  154.1760 C   0  0  0  0  0  0  0  0  0  0  0  0
  154.8450  210.4650  156.1860 C   0  0  0  0  0  1  0  0  0  0  0  0
  156.1370  211.1520  155.9270 C   0  0  0  0  0  0  0  0  0  0  0  0
  159.9130  214.3080  155.9270 O   0  0  0  0  0  1  0  0  0  0  0  0
  158.9090  213.6020  155.2770 C   0  0  0  0  0  0  0  0  0  0  0  0
  157.9090  214.2230  154.8250 O   0  0  0  0  0  0  0  0  0  0  0  0
  161.7100  209.1180  153.1540 C   0  0  0  0  0  2  0  0  0  0  0  0
  161.3450  208.3910  151.9500 N   0  0  0  0  0  0  0  0  0  0  0  0
  161.5670  209.2860  150.8270 C   0  0  0  0  0  1  0  0  0  0  0  0
  162.3040  207.3070  151.8080 C   0  0  0  0  0  2  0  0  0  0  0  0
  160.8780  203.3970  149.9130 C   0  0  0  0  0  0  0  0  0  0  0  0
  161.2270  204.3000  148.7780 C   0  0  0  0  0  2  0  0  0  0  0  0
  160.1400  201.8120  149.5480 S   0  0  0  0  0  1  0  0  0  0  0  0
  161.6750  206.1550  151.1030 C   0  0  0  0  0  0  0  0  0  0  0  0
  160.5800  205.6360  148.9170 C   0  0  0  0  0  3  0  0  0  0  0  0
  161.2100  203.6750  151.1730 C   0  0  0  0  0  3  0  0  0  0  0  0
  160.8210  206.4600  149.9380 C   0  0  0  0  0  3  0  0  0  0  0  0
  161.8050  204.9380  151.6530 C   0  0  0  0  0  3  0  0  0  0  0  0
  1  7  1  0  0  0  0
  1  4  1  0  0  0  0
  2  3  1  0  0  0  0
  2  1  2  0  0  0  0
  3  5  2  0  0  0  0
  5  4  1  0  0  0  0
  7  6  1  1  0  0  0
  8  7  1  0  0  0  0
  9  8  1  6  0  0  0
  9 17  1  0  0  0  0
 10 13  2  0  0  0  0
 12 15  1  0  0  0  0
 13 12  1  0  0  0  0
 13  9  1  0  0  0  0
 15 14  1  0  0  0  0
 15 11  2  0  0  0  0
 17 16  1  0  0  0  0
 18 17  2  0  0  0  0
 19  2  1  0  0  0  0
 20 19  1  0  0  0  0
 21 20  1  0  0  0  0
 22 20  1  0  0  0  0
 23 28  2  0  0  0  0
 24 27  1  0  0  0  0
 24 23  1  0  0  0  0
 25 23  1  0  0  0  0
 26 30  2  0  0  0  0
 26 22  1  0  0  0  0
 27 29  2  0  0  0  0
 28 30  1  0  0  0  0
 29 26  1  0  0  0  0
M  END
>  <MODEL>
9

>  <REMARK>
 VINA RESULT:      -5.9      2.468      3.888
  Name = 
  9 active torsions:
  status: ('A' for Active; 'I' for Inactive)
    1  A    between atoms: C_3  and  N_11
    2  A    between atoms: C_3  and  C_19
    3  A    between atoms: C_4  and  C_8
    4  A    between atoms: C_7  and  C_30
    5  A    between atoms: C_8  and  C_12
    6  A    between atoms: C_8  and  C_13
    7  A    between atoms: C_10  and  C_25
    8  A    between atoms: N_11  and  C_25
    9  A    between atoms: C_13  and  C_30
                            x       y       z     vdW  Elec       q    Type
                         _______ _______ _______ _____ _____    ______ ____

>  <TORSDO>
F 9

$$$$
