=
 OpenBabel11062409173D

 37 36  0  0  1  0  0  0  0  0999 V2000
  162.3950  207.4510  150.6210 C   0  0  2  0  0  3  0  0  0  0  0  0
  161.7910  206.7590  149.3870 C   0  0  1  0  0  3  0  0  0  0  0  0
  160.1950  205.3310  149.5920 O   0  0  0  0  0  1  0  0  0  0  0  0
  160.3980  206.6260  149.4640 O   0  0  0  0  0  0  0  0  0  0  0  0
  162.1820  207.4880  148.0990 C   0  0  0  0  0  2  0  0  0  0  0  0
  161.8880  206.6690  146.8470 C   0  0  2  0  0  3  0  0  0  0  0  0
  160.5110  206.4970  146.7090 O   0  0  0  0  0  1  0  0  0  0  0  0
  162.5490  205.3020  146.9560 C   0  0  0  0  0  2  0  0  0  0  0  0
  162.3300  204.4270  145.7190 C   0  0  2  0  0  3  0  0  0  0  0  0
  161.9040  205.1760  144.6180 O   0  0  0  0  0  0  0  0  0  0  0  0
  160.8050  204.5750  144.2100 O   0  0  0  0  0  1  0  0  0  0  0  0
  161.4150  203.2300  145.9800 C   0  0  0  0  0  2  0  0  0  0  0  0
  161.3200  202.8770  147.4570 C   0  0  0  0  0  2  0  0  0  0  0  0
  160.7800  201.4700  147.6010 C   0  0  0  0  0  2  0  0  0  0  0  0
  160.7130  201.7700  150.0550 C   0  0  0  0  0  1  0  0  0  0  0  0
  161.2210  200.8930  148.9290 C   0  0  0  0  0  2  0  0  0  0  0  0
  162.6820  206.4200  151.7080 C   0  0  0  0  0  2  0  0  0  0  0  0
  161.0650  204.7910  152.7190 C   0  0  0  0  0  1  0  0  0  0  0  0
  161.5010  206.2470  152.6590 C   0  0  1  0  0  3  0  0  0  0  0  0
  160.5330  206.9770  154.7450 C   0  0  0  0  0  1  0  0  0  0  0  0
  161.7720  206.7810  153.9980 N   0  0  0  0  0  2  0  0  0  0  0  0
  161.4720  208.5200  151.1970 C   0  0  0  0  0  2  0  0  0  0  0  0
  162.1920  209.7790  151.3490 N   0  0  0  0  0  0  0  0  0  0  0  0
  161.4850  210.8360  150.6120 C   0  0  0  0  0  2  0  0  0  0  0  0
  161.9300  212.2980  148.6870 C   0  0  0  0  0  3  0  0  0  0  0  0
  162.0490  211.0920  149.2410 C   0  0  0  0  0  3  0  0  0  0  0  0
  162.4720  212.5810  147.3190 C   0  0  0  0  0  2  0  0  0  0  0  0
  161.5140  213.4450  146.5150 C   0  0  0  0  0  2  0  0  0  0  0  0
  160.3520  212.6100  145.9950 C   0  0  0  0  0  2  0  0  0  0  0  0
  159.0520  213.3880  146.0940 C   0  0  0  0  0  2  0  0  0  0  0  0
  158.1160  212.7310  147.0910 C   0  0  0  0  0  1  0  0  0  0  0  0
  162.2620  210.1100  152.7700 C   0  0  0  0  0  2  0  0  0  0  0  0
  160.8650  210.3440  153.3320 C   0  0  0  0  0  2  0  0  0  0  0  0
  162.0030  210.9600  155.3310 O   0  0  0  0  0  0  0  0  0  0  0  0
  160.9280  210.9980  154.6730 C   0  0  0  0  0  0  0  0  0  0  0  0
  159.7950  211.6270  155.1920 O   0  0  0  0  0  0  0  0  0  0  0  0
  159.4110  211.4790  156.5510 C   0  0  0  0  0  1  0  0  0  0  0  0
  1 22  1  1  0  0  0
  1 17  1  0  0  0  0
  2  5  1  6  0  0  0
  2  4  1  0  0  0  0
  2  1  1  0  0  0  0
  4  3  1  0  0  0  0
  6  7  1  1  0  0  0
  6  8  1  0  0  0  0
  6  5  1  0  0  0  0
  9 12  1  1  0  0  0
  9  8  1  0  0  0  0
 10  9  1  0  0  0  0
 11 10  1  0  0  0  0
 12 13  1  0  0  0  0
 13 14  1  0  0  0  0
 14 16  1  0  0  0  0
 16 15  1  0  0  0  0
 17 19  1  0  0  0  0
 19 18  1  1  0  0  0
 19 21  1  0  0  0  0
 21 20  1  0  0  0  0
 22 23  1  0  0  0  0
 23 32  1  0  0  0  0
 24 23  1  0  0  0  0
 25 26  2  0  0  0  0
 26 24  1  0  0  0  0
 27 25  1  0  0  0  0
 28 27  1  0  0  0  0
 29 30  1  0  0  0  0
 29 28  1  0  0  0  0
 30 31  1  0  0  0  0
 32 33  1  0  0  0  0
 33 35  1  0  0  0  0
 35 36  1  0  0  0  0
 35 34  2  0  0  0  0
 36 37  1  0  0  0  0
M  END
>  <MODEL>
1

>  <REMARK>
 VINA RESULT:      -5.7      0.000      0.000
  Name = 
  26 active torsions:
  status: ('A' for Active; 'I' for Inactive)
    1  A    between atoms: O_1  and  C_23
    2  A    between atoms: O_2  and  C_8
    3  A    between atoms: C_3  and  C_15
    4  A    between atoms: C_3  and  C_30
    5  A    between atoms: C_4  and  C_10
    6  A    between atoms: C_4  and  C_24
    7  A    between atoms: C_6  and  C_8
    8  A    between atoms: C_6  and  C_31
    9  A    between atoms: C_7  and  C_33
   10  A    between atoms: C_8  and  C_19
   11  A    between atoms: C_10  and  C_13
   12  A    between atoms: C_10  and  C_30
   13  A    between atoms: C_11  and  C_26
   14  A    between atoms: C_13  and  N_20
   15  A    between atoms: C_14  and  C_31
   16  A    between atoms: C_14  and  C_37
   17  A    between atoms: C_15  and  C_19
   18  A    between atoms: C_17  and  C_26
   19  A    between atoms: C_17  and  C_33
   20  A    between atoms: N_20  and  C_21
   21  A    between atoms: N_20  and  C_29
   22  A    between atoms: C_21  and  C_25
   23  A    between atoms: C_23  and  C_25
   24  A    between atoms: C_24  and  N_28
   25  A    between atoms: C_29  and  C_36
   26  A    between atoms: C_30  and  O_32
                            x       y       z     vdW  Elec       q    Type
                         _______ _______ _______ _____ _____    ______ ____

>  <TORSDO>
F 26

$$$$
=
 OpenBabel11062409173D

 37 36  0  0  1  0  0  0  0  0999 V2000
  161.6160  207.6840  152.4870 C   0  0  2  0  0  3  0  0  0  0  0  0
  161.9070  206.6370  151.3980 C   0  0  1  0  0  3  0  0  0  0  0  0
  160.8590  204.7580  151.3810 O   0  0  0  0  0  1  0  0  0  0  0  0
  161.9300  205.3270  151.8960 O   0  0  0  0  0  0  0  0  0  0  0  0
  160.9070  206.7480  150.2450 C   0  0  0  0  0  2  0  0  0  0  0  0
  161.5880  206.8930  148.8880 C   0  0  2  0  0  3  0  0  0  0  0  0
  161.4350  208.1980  148.4210 O   0  0  0  0  0  1  0  0  0  0  0  0
  160.9600  205.9320  147.8890 C   0  0  0  0  0  2  0  0  0  0  0  0
  161.9060  205.5450  146.7490 C   0  0  2  0  0  3  0  0  0  0  0  0
  161.3840  205.8870  145.4980 O   0  0  0  0  0  0  0  0  0  0  0  0
  160.1690  206.3280  145.7520 O   0  0  0  0  0  1  0  0  0  0  0  0
  162.3450  204.0820  146.8000 C   0  0  0  0  0  2  0  0  0  0  0  0
  161.1910  203.1170  146.5720 C   0  0  0  0  0  2  0  0  0  0  0  0
  161.2630  202.0020  147.5940 C   0  0  0  0  0  2  0  0  0  0  0  0
  160.1670  201.3230  149.7050 C   0  0  0  0  0  1  0  0  0  0  0  0
  160.7170  202.4940  148.9180 C   0  0  0  0  0  2  0  0  0  0  0  0
  160.8990  207.0280  153.6630 C   0  0  0  0  0  2  0  0  0  0  0  0
  159.7650  207.3700  155.8730 C   0  0  0  0  0  1  0  0  0  0  0  0
  160.5650  208.0320  154.7630 C   0  0  1  0  0  3  0  0  0  0  0  0
  161.9100  208.4560  156.7210 C   0  0  0  0  0  1  0  0  0  0  0  0
  161.7560  208.7070  155.2900 N   0  0  0  0  0  2  0  0  0  0  0  0
  160.7540  208.8330  151.9730 C   0  0  0  0  0  2  0  0  0  0  0  0
  161.5390  210.0600  151.9070 N   0  0  0  0  0  0  0  0  0  0  0  0
  162.1170  210.1960  150.5620 C   0  0  0  0  0  2  0  0  0  0  0  0
  161.9180  211.6730  148.6080 C   0  0  0  0  0  3  0  0  0  0  0  0
  161.8660  211.5390  149.9340 C   0  0  0  0  0  3  0  0  0  0  0  0
  161.6820  213.0010  147.9540 C   0  0  0  0  0  2  0  0  0  0  0  0
  161.4220  212.8420  146.4640 C   0  0  0  0  0  2  0  0  0  0  0  0
  160.0450  213.3810  146.1030 C   0  0  0  0  0  2  0  0  0  0  0  0
  159.2810  212.3700  145.2660 C   0  0  0  0  0  2  0  0  0  0  0  0
  159.9560  212.1770  143.9210 C   0  0  0  0  0  1  0  0  0  0  0  0
  160.6630  211.1920  152.2000 C   0  0  0  0  0  2  0  0  0  0  0  0
  159.3580  210.7110  152.8210 C   0  0  0  0  0  2  0  0  0  0  0  0
  158.5780  210.8980  155.0620 O   0  0  0  0  0  0  0  0  0  0  0  0
  159.0240  211.4960  154.0460 C   0  0  0  0  0  0  0  0  0  0  0  0
  159.1920  212.8820  154.0500 O   0  0  0  0  0  0  0  0  0  0  0  0
  158.2160  213.7540  154.6010 C   0  0  0  0  0  1  0  0  0  0  0  0
  1 22  1  6  0  0  0
  1 17  1  0  0  0  0
  2  5  1  6  0  0  0
  2  4  1  0  0  0  0
  2  1  1  0  0  0  0
  3  4  1  0  0  0  0
  6  7  1  6  0  0  0
  6  5  1  0  0  0  0
  8  6  1  0  0  0  0
  9 12  1  6  0  0  0
  9  8  1  0  0  0  0
 10 11  1  0  0  0  0
 10  9  1  0  0  0  0
 13 12  1  0  0  0  0
 13 14  1  0  0  0  0
 14 16  1  0  0  0  0
 16 15  1  0  0  0  0
 17 19  1  0  0  0  0
 19 21  1  0  0  0  0
 19 18  1  1  0  0  0
 21 20  1  0  0  0  0
 23 22  1  0  0  0  0
 23 32  1  0  0  0  0
 24 23  1  0  0  0  0
 25 26  2  0  0  0  0
 26 24  1  0  0  0  0
 27 25  1  0  0  0  0
 28 27  1  0  0  0  0
 29 28  1  0  0  0  0
 30 29  1  0  0  0  0
 31 30  1  0  0  0  0
 32 33  1  0  0  0  0
 33 35  1  0  0  0  0
 35 36  1  0  0  0  0
 35 34  2  0  0  0  0
 36 37  1  0  0  0  0
M  END
>  <MODEL>
2

>  <REMARK>
 VINA RESULT:      -5.6      1.532      2.120
  Name = 
  26 active torsions:
  status: ('A' for Active; 'I' for Inactive)
    1  A    between atoms: O_1  and  C_23
    2  A    between atoms: O_2  and  C_8
    3  A    between atoms: C_3  and  C_15
    4  A    between atoms: C_3  and  C_30
    5  A    between atoms: C_4  and  C_10
    6  A    between atoms: C_4  and  C_24
    7  A    between atoms: C_6  and  C_8
    8  A    between atoms: C_6  and  C_31
    9  A    between atoms: C_7  and  C_33
   10  A    between atoms: C_8  and  C_19
   11  A    between atoms: C_10  and  C_13
   12  A    between atoms: C_10  and  C_30
   13  A    between atoms: C_11  and  C_26
   14  A    between atoms: C_13  and  N_20
   15  A    between atoms: C_14  and  C_31
   16  A    between atoms: C_14  and  C_37
   17  A    between atoms: C_15  and  C_19
   18  A    between atoms: C_17  and  C_26
   19  A    between atoms: C_17  and  C_33
   20  A    between atoms: N_20  and  C_21
   21  A    between atoms: N_20  and  C_29
   22  A    between atoms: C_21  and  C_25
   23  A    between atoms: C_23  and  C_25
   24  A    between atoms: C_24  and  N_28
   25  A    between atoms: C_29  and  C_36
   26  A    between atoms: C_30  and  O_32
                            x       y       z     vdW  Elec       q    Type
                         _______ _______ _______ _____ _____    ______ ____

>  <TORSDO>
F 26

$$$$
=
 OpenBabel11062409173D

 37 36  0  0  1  0  0  0  0  0999 V2000
  161.4770  207.8340  152.6700 C   0  0  2  0  0  3  0  0  0  0  0  0
  161.7110  206.7770  151.5760 C   0  0  1  0  0  3  0  0  0  0  0  0
  162.3230  207.0660  149.5340 O   0  0  0  0  0  1  0  0  0  0  0  0
  162.8090  207.0750  150.7580 O   0  0  0  0  0  0  0  0  0  0  0  0
  161.8650  205.3810  152.1830 C   0  0  0  0  0  2  0  0  0  0  0  0
  160.9080  204.3640  151.5690 C   0  0  2  0  0  3  0  0  0  0  0  0
  160.4560  203.4870  152.5550 O   0  0  0  0  0  1  0  0  0  0  0  0
  161.6240  203.5670  150.4880 C   0  0  0  0  0  2  0  0  0  0  0  0
  160.7040  203.1510  149.3370 C   0  0  2  0  0  3  0  0  0  0  0  0
  160.1240  201.8980  149.5590 O   0  0  0  0  0  0  0  0  0  0  0  0
  160.7770  201.0800  148.7590 O   0  0  0  0  0  1  0  0  0  0  0  0
  161.3780  203.2290  147.9670 C   0  0  0  0  0  2  0  0  0  0  0  0
  161.4280  204.6470  147.4200 C   0  0  0  0  0  2  0  0  0  0  0  0
  162.5490  204.7530  146.4070 C   0  0  0  0  0  2  0  0  0  0  0  0
  160.6310  205.9500  145.4050 C   0  0  0  0  0  1  0  0  0  0  0  0
  162.0950  205.6020  145.2390 C   0  0  0  0  0  2  0  0  0  0  0  0
  160.8390  207.1840  153.8930 C   0  0  0  0  0  2  0  0  0  0  0  0
  159.8990  207.5270  156.1930 C   0  0  0  0  0  1  0  0  0  0  0  0
  160.5730  208.1960  155.0050 C   0  0  1  0  0  3  0  0  0  0  0  0
  161.4450  210.1910  156.0430 C   0  0  0  0  0  1  0  0  0  0  0  0
  161.7830  208.9180  155.4120 N   0  0  0  0  0  2  0  0  0  0  0  0
  160.5750  208.9690  152.1970 C   0  0  0  0  0  2  0  0  0  0  0  0
  161.3540  210.1890  152.0160 N   0  0  0  0  0  0  0  0  0  0  0  0
  161.9360  210.1970  150.6660 C   0  0  0  0  0  2  0  0  0  0  0  0
  162.3630  211.7100  148.7770 C   0  0  0  0  0  3  0  0  0  0  0  0
  161.7350  211.4950  149.9330 C   0  0  0  0  0  3  0  0  0  0  0  0
  162.1900  212.9980  148.0290 C   0  0  0  0  0  2  0  0  0  0  0  0
  160.9750  212.9460  147.1170 C   0  0  0  0  0  2  0  0  0  0  0  0
  161.1360  213.9210  145.9590 C   0  0  0  0  0  2  0  0  0  0  0  0
  160.3510  213.4430  144.7490 C   0  0  0  0  0  2  0  0  0  0  0  0
  159.6780  212.1160  145.0440 C   0  0  0  0  0  1  0  0  0  0  0  0
  160.4710  211.3390  152.1950 C   0  0  0  0  0  2  0  0  0  0  0  0
  159.3130  210.9850  153.1190 C   0  0  0  0  0  2  0  0  0  0  0  0
  157.8490  212.8410  152.8400 O   0  0  0  0  0  0  0  0  0  0  0  0
  158.6240  212.2130  153.6120 C   0  0  0  0  0  0  0  0  0  0  0  0
  158.8560  212.6660  154.9120 O   0  0  0  0  0  0  0  0  0  0  0  0
  158.6400  214.0180  155.2860 C   0  0  0  0  0  1  0  0  0  0  0  0
  1 22  1  6  0  0  0
  1 17  1  0  0  0  0
  2  5  1  1  0  0  0
  2  1  1  0  0  0  0
  3  4  1  0  0  0  0
  4  2  1  0  0  0  0
  6  5  1  0  0  0  0
  6  7  1  1  0  0  0
  8  6  1  0  0  0  0
  9 12  1  6  0  0  0
  9 10  1  0  0  0  0
  9  8  1  0  0  0  0
 11 10  1  0  0  0  0
 13 12  1  0  0  0  0
 14 13  1  0  0  0  0
 16 15  1  0  0  0  0
 16 14  1  0  0  0  0
 17 19  1  0  0  0  0
 19 21  1  0  0  0  0
 19 18  1  1  0  0  0
 21 20  1  0  0  0  0
 23 32  1  0  0  0  0
 23 22  1  0  0  0  0
 24 23  1  0  0  0  0
 25 26  2  0  0  0  0
 26 24  1  0  0  0  0
 27 25  1  0  0  0  0
 28 27  1  0  0  0  0
 29 28  1  0  0  0  0
 30 31  1  0  0  0  0
 30 29  1  0  0  0  0
 32 33  1  0  0  0  0
 33 35  1  0  0  0  0
 34 35  2  0  0  0  0
 35 36  1  0  0  0  0
 36 37  1  0  0  0  0
M  END
>  <MODEL>
3

>  <REMARK>
 VINA RESULT:      -5.6      2.208      3.502
  Name = 
  26 active torsions:
  status: ('A' for Active; 'I' for Inactive)
    1  A    between atoms: O_1  and  C_23
    2  A    between atoms: O_2  and  C_8
    3  A    between atoms: C_3  and  C_15
    4  A    between atoms: C_3  and  C_30
    5  A    between atoms: C_4  and  C_10
    6  A    between atoms: C_4  and  C_24
    7  A    between atoms: C_6  and  C_8
    8  A    between atoms: C_6  and  C_31
    9  A    between atoms: C_7  and  C_33
   10  A    between atoms: C_8  and  C_19
   11  A    between atoms: C_10  and  C_13
   12  A    between atoms: C_10  and  C_30
   13  A    between atoms: C_11  and  C_26
   14  A    between atoms: C_13  and  N_20
   15  A    between atoms: C_14  and  C_31
   16  A    between atoms: C_14  and  C_37
   17  A    between atoms: C_15  and  C_19
   18  A    between atoms: C_17  and  C_26
   19  A    between atoms: C_17  and  C_33
   20  A    between atoms: N_20  and  C_21
   21  A    between atoms: N_20  and  C_29
   22  A    between atoms: C_21  and  C_25
   23  A    between atoms: C_23  and  C_25
   24  A    between atoms: C_24  and  N_28
   25  A    between atoms: C_29  and  C_36
   26  A    between atoms: C_30  and  O_32
                            x       y       z     vdW  Elec       q    Type
                         _______ _______ _______ _____ _____    ______ ____

>  <TORSDO>
F 26

$$$$
=
 OpenBabel11062409173D

 37 36  0  0  1  0  0  0  0  0999 V2000
  161.0830  208.1990  150.4280 C   0  0  2  0  0  3  0  0  0  0  0  0
  161.6110  208.3140  148.9880 C   0  0  1  0  0  3  0  0  0  0  0  0
  161.7380  210.3650  148.3490 O   0  0  0  0  0  1  0  0  0  0  0  0
  162.4920  209.3910  148.8160 O   0  0  0  0  0  0  0  0  0  0  0  0
  162.2740  207.0110  148.5370 C   0  0  0  0  0  2  0  0  0  0  0  0
  161.6220  206.4190  147.2920 C   0  0  2  0  0  3  0  0  0  0  0  0
  160.2340  206.5110  147.3980 O   0  0  0  0  0  1  0  0  0  0  0  0
  162.0110  204.9540  147.1500 C   0  0  0  0  0  2  0  0  0  0  0  0
  162.2060  204.5210  145.6950 C   0  0  2  0  0  3  0  0  0  0  0  0
  162.4500  205.6110  144.8540 O   0  0  0  0  0  0  0  0  0  0  0  0
  161.5130  205.5370  143.9310 O   0  0  0  0  0  1  0  0  0  0  0  0
  161.0710  203.6420  145.1700 C   0  0  0  0  0  2  0  0  0  0  0  0
  160.9530  202.3260  145.9240 C   0  0  0  0  0  2  0  0  0  0  0  0
  159.9550  201.4330  145.2190 C   0  0  0  0  0  2  0  0  0  0  0  0
  161.4340  199.8730  146.4420 C   0  0  0  0  0  1  0  0  0  0  0  0
  160.3850  199.9880  145.3550 C   0  0  0  0  0  2  0  0  0  0  0  0
  162.0970  208.7880  151.4030 C   0  0  0  0  0  2  0  0  0  0  0  0
  162.4180  210.1940  153.4550 C   0  0  0  0  0  1  0  0  0  0  0  0
  161.4650  209.8230  152.3300 C   0  0  1  0  0  3  0  0  0  0  0  0
  160.0510  211.7760  152.4200 C   0  0  0  0  0  1  0  0  0  0  0  0
  160.9980  211.0130  151.6100 N   0  0  0  0  0  2  0  0  0  0  0  0
  160.8060  206.7540  150.8310 C   0  0  0  0  0  2  0  0  0  0  0  0
  161.5760  206.4070  152.0200 N   0  0  0  0  0  0  0  0  0  0  0  0
  160.6680  206.2990  153.1720 C   0  0  0  0  0  2  0  0  0  0  0  0
  160.3910  207.3360  155.3830 C   0  0  0  0  0  3  0  0  0  0  0  0
  161.2210  206.9110  154.4300 C   0  0  0  0  0  3  0  0  0  0  0  0
  160.9110  207.9590  156.6430 C   0  0  0  0  0  2  0  0  0  0  0  0
  160.1400  209.2220  156.9920 C   0  0  0  0  0  2  0  0  0  0  0  0
  159.5910  209.8770  155.7310 C   0  0  0  0  0  2  0  0  0  0  0  0
  158.8320  211.1450  156.0790 C   0  0  0  0  0  2  0  0  0  0  0  0
  157.4480  211.1220  155.4570 C   0  0  0  0  0  1  0  0  0  0  0  0
  162.2510  205.1330  151.7850 C   0  0  0  0  0  2  0  0  0  0  0  0
  161.4630  204.2860  150.7940 C   0  0  0  0  0  2  0  0  0  0  0  0
  160.7300  203.0340  152.6820 O   0  0  0  0  0  0  0  0  0  0  0  0
  160.9480  203.0420  151.4400 C   0  0  0  0  0  0  0  0  0  0  0  0
  160.7300  201.8980  150.6700 O   0  0  0  0  0  0  0  0  0  0  0  0
  160.5170  201.9670  149.2680 C   0  0  0  0  0  1  0  0  0  0  0  0
  1 22  1  1  0  0  0
  1 17  1  0  0  0  0
  2  5  1  1  0  0  0
  2  1  1  0  0  0  0
  3  4  1  0  0  0  0
  4  2  1  0  0  0  0
  6  7  1  1  0  0  0
  6  5  1  0  0  0  0
  8  6  1  0  0  0  0
  9 12  1  6  0  0  0
  9  8  1  0  0  0  0
 10  9  1  0  0  0  0
 11 10  1  0  0  0  0
 12 13  1  0  0  0  0
 14 16  1  0  0  0  0
 14 13  1  0  0  0  0
 16 15  1  0  0  0  0
 17 19  1  0  0  0  0
 19 18  1  1  0  0  0
 21 19  1  0  0  0  0
 21 20  1  0  0  0  0
 22 23  1  0  0  0  0
 23 24  1  0  0  0  0
 24 26  1  0  0  0  0
 25 27  1  0  0  0  0
 26 25  2  0  0  0  0
 27 28  1  0  0  0  0
 29 30  1  0  0  0  0
 29 28  1  0  0  0  0
 31 30  1  0  0  0  0
 32 23  1  0  0  0  0
 33 35  1  0  0  0  0
 33 32  1  0  0  0  0
 35 34  2  0  0  0  0
 36 35  1  0  0  0  0
 37 36  1  0  0  0  0
M  END
>  <MODEL>
4

>  <REMARK>
 VINA RESULT:      -5.5      2.984      6.045
  Name = 
  26 active torsions:
  status: ('A' for Active; 'I' for Inactive)
    1  A    between atoms: O_1  and  C_23
    2  A    between atoms: O_2  and  C_8
    3  A    between atoms: C_3  and  C_15
    4  A    between atoms: C_3  and  C_30
    5  A    between atoms: C_4  and  C_10
    6  A    between atoms: C_4  and  C_24
    7  A    between atoms: C_6  and  C_8
    8  A    between atoms: C_6  and  C_31
    9  A    between atoms: C_7  and  C_33
   10  A    between atoms: C_8  and  C_19
   11  A    between atoms: C_10  and  C_13
   12  A    between atoms: C_10  and  C_30
   13  A    between atoms: C_11  and  C_26
   14  A    between atoms: C_13  and  N_20
   15  A    between atoms: C_14  and  C_31
   16  A    between atoms: C_14  and  C_37
   17  A    between atoms: C_15  and  C_19
   18  A    between atoms: C_17  and  C_26
   19  A    between atoms: C_17  and  C_33
   20  A    between atoms: N_20  and  C_21
   21  A    between atoms: N_20  and  C_29
   22  A    between atoms: C_21  and  C_25
   23  A    between atoms: C_23  and  C_25
   24  A    between atoms: C_24  and  N_28
   25  A    between atoms: C_29  and  C_36
   26  A    between atoms: C_30  and  O_32
                            x       y       z     vdW  Elec       q    Type
                         _______ _______ _______ _____ _____    ______ ____

>  <TORSDO>
F 26

$$$$
=
 OpenBabel11062409173D

 37 36  0  0  1  0  0  0  0  0999 V2000
  161.1030  209.3280  153.8490 C   0  0  2  0  0  3  0  0  0  0  0  0
  161.3350  207.9780  154.5480 C   0  0  1  0  0  3  0  0  0  0  0  0
  162.1430  208.8410  156.3460 O   0  0  0  0  0  1  0  0  0  0  0  0
  161.1720  208.0490  155.9380 O   0  0  0  0  0  0  0  0  0  0  0  0
  160.4300  206.8920  153.9640 C   0  0  0  0  0  2  0  0  0  0  0  0
  161.2140  205.7740  153.2850 C   0  0  2  0  0  3  0  0  0  0  0  0
  162.5320  206.1820  153.0770 O   0  0  0  0  0  1  0  0  0  0  0  0
  160.5830  205.4400  151.9410 C   0  0  0  0  0  2  0  0  0  0  0  0
  160.7250  203.9650  151.5580 C   0  0  2  0  0  3  0  0  0  0  0  0
  161.3310  203.2180  152.5730 O   0  0  0  0  0  0  0  0  0  0  0  0
  161.8030  202.1490  151.9640 O   0  0  0  0  0  1  0  0  0  0  0  0
  161.4140  203.7550  150.2100 C   0  0  0  0  0  2  0  0  0  0  0  0
  160.5690  202.9420  149.2410 C   0  0  0  0  0  2  0  0  0  0  0  0
  161.4370  202.4730  148.0920 C   0  0  0  0  0  2  0  0  0  0  0  0
  160.5540  201.4600  146.0160 C   0  0  0  0  0  1  0  0  0  0  0  0
  160.8380  201.2220  147.4840 C   0  0  0  0  0  2  0  0  0  0  0  0
  159.9080  210.0400  154.4760 C   0  0  0  0  0  2  0  0  0  0  0  0
  159.5070  212.3490  153.5810 C   0  0  0  0  0  1  0  0  0  0  0  0
  160.1700  211.5300  154.6770 C   0  0  1  0  0  3  0  0  0  0  0  0
  160.9090  211.9960  156.9270 C   0  0  0  0  0  1  0  0  0  0  0  0
  159.7720  211.9970  156.0100 N   0  0  0  0  0  2  0  0  0  0  0  0
  160.8450  209.1720  152.3540 C   0  0  0  0  0  2  0  0  0  0  0  0
  161.9530  209.7340  151.5910 N   0  0  0  0  0  0  0  0  0  0  0  0
  162.4760  208.7140  150.6700 C   0  0  0  0  0  2  0  0  0  0  0  0
  161.3680  207.4680  148.8640 C   0  0  0  0  0  3  0  0  0  0  0  0
  161.4230  207.7680  150.1620 C   0  0  0  0  0  3  0  0  0  0  0  0
  160.3240  206.5360  148.3270 C   0  0  0  0  0  2  0  0  0  0  0  0
  160.7810  205.8860  147.0310 C   0  0  0  0  0  2  0  0  0  0  0  0
  162.2510  206.1850  146.7740 C   0  0  0  0  0  2  0  0  0  0  0  0
  162.9190  205.0110  146.0800 C   0  0  0  0  0  2  0  0  0  0  0  0
  162.0520  204.5050  144.9420 C   0  0  0  0  0  1  0  0  0  0  0  0
  161.4680  210.8920  150.8430 C   0  0  0  0  0  2  0  0  0  0  0  0
  162.1890  211.0040  149.5060 C   0  0  0  0  0  2  0  0  0  0  0  0
  161.1210  211.7380  147.5090 O   0  0  0  0  0  0  0  0  0  0  0  0
  161.5660  212.0530  148.6460 C   0  0  0  0  0  0  0  0  0  0  0  0
  161.4970  213.3720  149.0990 O   0  0  0  0  0  0  0  0  0  0  0  0
  162.0440  214.4500  148.3550 C   0  0  0  0  0  1  0  0  0  0  0  0
  1 22  1  6  0  0  0
  1 17  1  0  0  0  0
  1  2  1  0  0  0  0
  2  5  1  6  0  0  0
  2  4  1  0  0  0  0
  4  3  1  0  0  0  0
  6  7  1  6  0  0  0
  6  5  1  0  0  0  0
  8  6  1  0  0  0  0
  9 12  1  6  0  0  0
  9  8  1  0  0  0  0
  9 10  1  0  0  0  0
 11 10  1  0  0  0  0
 13 12  1  0  0  0  0
 14 13  1  0  0  0  0
 15 16  1  0  0  0  0
 16 14  1  0  0  0  0
 17 19  1  0  0  0  0
 19 18  1  6  0  0  0
 19 21  1  0  0  0  0
 21 20  1  0  0  0  0
 23 22  1  0  0  0  0
 24 23  1  0  0  0  0
 25 26  2  0  0  0  0
 26 24  1  0  0  0  0
 27 25  1  0  0  0  0
 28 27  1  0  0  0  0
 29 28  1  0  0  0  0
 30 29  1  0  0  0  0
 31 30  1  0  0  0  0
 32 23  1  0  0  0  0
 33 32  1  0  0  0  0
 34 35  2  0  0  0  0
 35 36  1  0  0  0  0
 35 33  1  0  0  0  0
 37 36  1  0  0  0  0
M  END
>  <MODEL>
5

>  <REMARK>
 VINA RESULT:      -5.4      2.783      5.964
  Name = 
  26 active torsions:
  status: ('A' for Active; 'I' for Inactive)
    1  A    between atoms: O_1  and  C_23
    2  A    between atoms: O_2  and  C_8
    3  A    between atoms: C_3  and  C_15
    4  A    between atoms: C_3  and  C_30
    5  A    between atoms: C_4  and  C_10
    6  A    between atoms: C_4  and  C_24
    7  A    between atoms: C_6  and  C_8
    8  A    between atoms: C_6  and  C_31
    9  A    between atoms: C_7  and  C_33
   10  A    between atoms: C_8  and  C_19
   11  A    between atoms: C_10  and  C_13
   12  A    between atoms: C_10  and  C_30
   13  A    between atoms: C_11  and  C_26
   14  A    between atoms: C_13  and  N_20
   15  A    between atoms: C_14  and  C_31
   16  A    between atoms: C_14  and  C_37
   17  A    between atoms: C_15  and  C_19
   18  A    between atoms: C_17  and  C_26
   19  A    between atoms: C_17  and  C_33
   20  A    between atoms: N_20  and  C_21
   21  A    between atoms: N_20  and  C_29
   22  A    between atoms: C_21  and  C_25
   23  A    between atoms: C_23  and  C_25
   24  A    between atoms: C_24  and  N_28
   25  A    between atoms: C_29  and  C_36
   26  A    between atoms: C_30  and  O_32
                            x       y       z     vdW  Elec       q    Type
                         _______ _______ _______ _____ _____    ______ ____

>  <TORSDO>
F 26

$$$$
=
 OpenBabel11062409173D

 37 36  0  0  1  0  0  0  0  0999 V2000
  161.1210  210.5350  152.2570 C   0  0  2  0  0  3  0  0  0  0  0  0
  161.7390  209.7150  153.4020 C   0  0  1  0  0  3  0  0  0  0  0  0
  162.0210  210.5340  155.3720 O   0  0  0  0  0  1  0  0  0  0  0  0
  162.6140  210.4670  154.1980 O   0  0  0  0  0  0  0  0  0  0  0  0
  160.6540  209.0730  154.2690 C   0  0  0  0  0  2  0  0  0  0  0  0
  160.4900  207.5820  153.9970 C   0  0  2  0  0  3  0  0  0  0  0  0
  159.7640  206.9900  155.0310 O   0  0  0  0  0  1  0  0  0  0  0  0
  161.8570  206.9180  153.9100 C   0  0  0  0  0  2  0  0  0  0  0  0
  162.0190  206.0320  152.6720 C   0  0  2  0  0  3  0  0  0  0  0  0
  161.8780  206.7600  151.4870 O   0  0  0  0  0  0  0  0  0  0  0  0
  163.1120  207.0190  151.1050 O   0  0  0  0  0  1  0  0  0  0  0  0
  161.1160  204.7980  152.6910 C   0  0  0  0  0  2  0  0  0  0  0  0
  160.5520  204.4650  151.3190 C   0  0  0  0  0  2  0  0  0  0  0  0
  161.0690  203.1120  150.8790 C   0  0  0  0  0  2  0  0  0  0  0  0
  160.4390  201.4560  149.1540 C   0  0  0  0  0  1  0  0  0  0  0  0
  160.7740  202.9110  149.4080 C   0  0  0  0  0  2  0  0  0  0  0  0
  159.6480  210.8070  152.5470 C   0  0  0  0  0  2  0  0  0  0  0  0
  158.4870  212.8490  151.6680 C   0  0  0  0  0  1  0  0  0  0  0  0
  159.3730  212.2910  152.7710 C   0  0  1  0  0  3  0  0  0  0  0  0
  157.5880  211.8010  154.3190 C   0  0  0  0  0  1  0  0  0  0  0  0
  158.8130  212.5660  154.0990 N   0  0  0  0  0  2  0  0  0  0  0  0
  161.2260  209.8250  150.9110 C   0  0  0  0  0  2  0  0  0  0  0  0
  162.1320  210.5520  150.0280 N   0  0  0  0  0  0  0  0  0  0  0  0
  162.3320  209.7790  148.7940 C   0  0  0  0  0  2  0  0  0  0  0  0
  161.8810  207.4640  148.1040 C   0  0  0  0  0  3  0  0  0  0  0  0
  161.4350  208.5760  148.6860 C   0  0  0  0  0  3  0  0  0  0  0  0
  161.0080  206.2530  147.9730 C   0  0  0  0  0  2  0  0  0  0  0  0
  160.8420  205.8480  146.5170 C   0  0  0  0  0  2  0  0  0  0  0  0
  162.1960  205.7850  145.8240 C   0  0  0  0  0  2  0  0  0  0  0  0
  162.6230  204.3410  145.6230 C   0  0  0  0  0  2  0  0  0  0  0  0
  161.4180  203.4210  145.6640 C   0  0  0  0  0  1  0  0  0  0  0  0
  161.5430  211.8530  149.7220 C   0  0  0  0  0  2  0  0  0  0  0  0
  161.8170  212.2360  148.2730 C   0  0  0  0  0  2  0  0  0  0  0  0
  159.8290  213.5360  148.1230 O   0  0  0  0  0  0  0  0  0  0  0  0
  160.5640  212.6650  147.5850 C   0  0  0  0  0  0  0  0  0  0  0  0
  160.2090  212.0860  146.3640 O   0  0  0  0  0  0  0  0  0  0  0  0
  159.0430  212.4810  145.6570 C   0  0  0  0  0  1  0  0  0  0  0  0
  1 22  1  6  0  0  0
  1 17  1  0  0  0  0
  1  2  1  0  0  0  0
  2  4  1  0  0  0  0
  2  5  1  1  0  0  0
  4  3  1  0  0  0  0
  6  5  1  0  0  0  0
  6  7  1  1  0  0  0
  8  6  1  0  0  0  0
  9 12  1  1  0  0  0
  9  8  1  0  0  0  0
 10  9  1  0  0  0  0
 11 10  1  0  0  0  0
 13 12  1  0  0  0  0
 14 13  1  0  0  0  0
 15 16  1  0  0  0  0
 16 14  1  0  0  0  0
 17 19  1  0  0  0  0
 19 18  1  6  0  0  0
 19 21  1  0  0  0  0
 21 20  1  0  0  0  0
 23 22  1  0  0  0  0
 24 23  1  0  0  0  0
 25 26  2  0  0  0  0
 26 24  1  0  0  0  0
 27 25  1  0  0  0  0
 28 27  1  0  0  0  0
 29 28  1  0  0  0  0
 30 31  1  0  0  0  0
 30 29  1  0  0  0  0
 32 23  1  0  0  0  0
 33 32  1  0  0  0  0
 35 34  2  0  0  0  0
 35 33  1  0  0  0  0
 36 35  1  0  0  0  0
 37 36  1  0  0  0  0
M  END
>  <MODEL>
6

>  <REMARK>
 VINA RESULT:      -5.4      2.522      6.508
  Name = 
  26 active torsions:
  status: ('A' for Active; 'I' for Inactive)
    1  A    between atoms: O_1  and  C_23
    2  A    between atoms: O_2  and  C_8
    3  A    between atoms: C_3  and  C_15
    4  A    between atoms: C_3  and  C_30
    5  A    between atoms: C_4  and  C_10
    6  A    between atoms: C_4  and  C_24
    7  A    between atoms: C_6  and  C_8
    8  A    between atoms: C_6  and  C_31
    9  A    between atoms: C_7  and  C_33
   10  A    between atoms: C_8  and  C_19
   11  A    between atoms: C_10  and  C_13
   12  A    between atoms: C_10  and  C_30
   13  A    between atoms: C_11  and  C_26
   14  A    between atoms: C_13  and  N_20
   15  A    between atoms: C_14  and  C_31
   16  A    between atoms: C_14  and  C_37
   17  A    between atoms: C_15  and  C_19
   18  A    between atoms: C_17  and  C_26
   19  A    between atoms: C_17  and  C_33
   20  A    between atoms: N_20  and  C_21
   21  A    between atoms: N_20  and  C_29
   22  A    between atoms: C_21  and  C_25
   23  A    between atoms: C_23  and  C_25
   24  A    between atoms: C_24  and  N_28
   25  A    between atoms: C_29  and  C_36
   26  A    between atoms: C_30  and  O_32
                            x       y       z     vdW  Elec       q    Type
                         _______ _______ _______ _____ _____    ______ ____

>  <TORSDO>
F 26

$$$$
=
 OpenBabel11062409173D

 37 36  0  0  1  0  0  0  0  0999 V2000
  161.7340  207.3780  151.8590 C   0  0  2  0  0  3  0  0  0  0  0  0
  161.0470  206.8460  153.1290 C   0  0  1  0  0  3  0  0  0  0  0  0
  161.0280  204.6980  153.0060 O   0  0  0  0  0  1  0  0  0  0  0  0
  161.6480  205.6820  153.6260 O   0  0  0  0  0  0  0  0  0  0  0  0
  160.9930  207.9210  154.2170 C   0  0  0  0  0  2  0  0  0  0  0  0
  160.8180  207.3340  155.6140 C   0  0  2  0  0  3  0  0  0  0  0  0
  159.4630  207.1360  155.8770 O   0  0  0  0  0  1  0  0  0  0  0  0
  161.3890  208.2890  156.6520 C   0  0  0  0  0  2  0  0  0  0  0  0
  161.3260  209.7560  156.2200 C   0  0  2  0  0  3  0  0  0  0  0  0
  162.5590  210.3980  156.3670 O   0  0  0  0  0  0  0  0  0  0  0  0
  162.8870  210.7760  155.1490 O   0  0  0  0  0  1  0  0  0  0  0  0
  160.1970  210.5360  156.8940 C   0  0  0  0  0  2  0  0  0  0  0  0
  159.1060  210.9480  155.9170 C   0  0  0  0  0  2  0  0  0  0  0  0
  158.2760  212.0560  156.5320 C   0  0  0  0  0  2  0  0  0  0  0  0
  156.6290  211.0430  154.9910 C   0  0  0  0  0  1  0  0  0  0  0  0
  156.8060  211.7710  156.3070 C   0  0  0  0  0  2  0  0  0  0  0  0
  162.1830  208.8200  152.0750 C   0  0  0  0  0  2  0  0  0  0  0  0
  160.5060  210.6840  152.1400 C   0  0  0  0  0  1  0  0  0  0  0  0
  161.3650  209.8050  151.2450 C   0  0  1  0  0  3  0  0  0  0  0  0
  161.9640  210.2450  148.9490 C   0  0  0  0  0  1  0  0  0  0  0  0
  162.1970  210.6100  150.3440 N   0  0  0  0  0  2  0  0  0  0  0  0
  160.8180  207.3330  150.6400 C   0  0  0  0  0  2  0  0  0  0  0  0
  161.2570  206.2920  149.7190 N   0  0  0  0  0  0  0  0  0  0  0  0
  160.4900  205.0630  149.9720 C   0  0  0  0  0  2  0  0  0  0  0  0
  160.5080  202.6720  149.4020 C   0  0  0  0  0  3  0  0  0  0  0  0
  161.1880  203.8140  149.5080 C   0  0  0  0  0  3  0  0  0  0  0  0
  161.1770  201.4090  148.9530 C   0  0  0  0  0  2  0  0  0  0  0  0
  160.9010  201.1320  147.4830 C   0  0  0  0  0  2  0  0  0  0  0  0
  161.4970  199.7930  147.0720 C   0  0  0  0  0  2  0  0  0  0  0  0
  161.0940  199.4460  145.6500 C   0  0  0  0  0  2  0  0  0  0  0  0
  161.4690  198.0120  145.3270 C   0  0  0  0  0  1  0  0  0  0  0  0
  161.0380  206.7540  148.3510 C   0  0  0  0  0  2  0  0  0  0  0  0
  162.3120  206.6100  147.5280 C   0  0  0  0  0  2  0  0  0  0  0  0
  162.7980  206.0210  145.2730 O   0  0  0  0  0  0  0  0  0  0  0  0
  162.0610  205.8330  146.2790 C   0  0  0  0  0  0  0  0  0  0  0  0
  161.0040  204.9220  146.2280 O   0  0  0  0  0  0  0  0  0  0  0  0
  160.9530  203.8840  145.2610 C   0  0  0  0  0  1  0  0  0  0  0  0
  1 22  1  6  0  0  0
  1 17  1  0  0  0  0
  1  2  1  0  0  0  0
  2  4  1  0  0  0  0
  2  5  1  1  0  0  0
  3  4  1  0  0  0  0
  5  6  1  0  0  0  0
  6  7  1  1  0  0  0
  6  8  1  0  0  0  0
  9 10  1  0  0  0  0
  9  8  1  1  0  0  0
  9 12  1  0  0  0  0
 11 10  1  0  0  0  0
 13 14  1  0  0  0  0
 13 12  1  0  0  0  0
 15 16  1  0  0  0  0
 16 14  1  0  0  0  0
 19 17  1  0  0  0  0
 19 18  1  1  0  0  0
 20 21  1  0  0  0  0
 21 19  1  0  0  0  0
 23 24  1  0  0  0  0
 23 22  1  0  0  0  0
 25 26  2  0  0  0  0
 26 24  1  0  0  0  0
 27 25  1  0  0  0  0
 28 27  1  0  0  0  0
 29 28  1  0  0  0  0
 30 29  1  0  0  0  0
 31 30  1  0  0  0  0
 32 23  1  0  0  0  0
 33 32  1  0  0  0  0
 34 35  2  0  0  0  0
 35 33  1  0  0  0  0
 36 35  1  0  0  0  0
 37 36  1  0  0  0  0
M  END
>  <MODEL>
7

>  <REMARK>
 VINA RESULT:      -5.4      2.317      9.711
  Name = 
  26 active torsions:
  status: ('A' for Active; 'I' for Inactive)
    1  A    between atoms: O_1  and  C_23
    2  A    between atoms: O_2  and  C_8
    3  A    between atoms: C_3  and  C_15
    4  A    between atoms: C_3  and  C_30
    5  A    between atoms: C_4  and  C_10
    6  A    between atoms: C_4  and  C_24
    7  A    between atoms: C_6  and  C_8
    8  A    between atoms: C_6  and  C_31
    9  A    between atoms: C_7  and  C_33
   10  A    between atoms: C_8  and  C_19
   11  A    between atoms: C_10  and  C_13
   12  A    between atoms: C_10  and  C_30
   13  A    between atoms: C_11  and  C_26
   14  A    between atoms: C_13  and  N_20
   15  A    between atoms: C_14  and  C_31
   16  A    between atoms: C_14  and  C_37
   17  A    between atoms: C_15  and  C_19
   18  A    between atoms: C_17  and  C_26
   19  A    between atoms: C_17  and  C_33
   20  A    between atoms: N_20  and  C_21
   21  A    between atoms: N_20  and  C_29
   22  A    between atoms: C_21  and  C_25
   23  A    between atoms: C_23  and  C_25
   24  A    between atoms: C_24  and  N_28
   25  A    between atoms: C_29  and  C_36
   26  A    between atoms: C_30  and  O_32
                            x       y       z     vdW  Elec       q    Type
                         _______ _______ _______ _____ _____    ______ ____

>  <TORSDO>
F 26

$$$$
=
 OpenBabel11062409173D

 37 36  0  0  1  0  0  0  0  0999 V2000
  160.5670  210.0580  153.1900 C   0  0  2  0  0  3  0  0  0  0  0  0
  160.9780  209.6530  151.7640 C   0  0  1  0  0  3  0  0  0  0  0  0
  162.8890  210.2740  152.5330 O   0  0  0  0  0  1  0  0  0  0  0  0
  162.2330  210.1560  151.3970 O   0  0  0  0  0  0  0  0  0  0  0  0
  160.9460  208.1330  151.5920 C   0  0  0  0  0  2  0  0  0  0  0  0
  161.8270  207.6530  150.4430 C   0  0  2  0  0  3  0  0  0  0  0  0
  161.1370  207.7750  149.2370 O   0  0  0  0  0  1  0  0  0  0  0  0
  162.2010  206.1920  150.6530 C   0  0  0  0  0  2  0  0  0  0  0  0
  161.0470  205.3470  151.2000 C   0  0  2  0  0  3  0  0  0  0  0  0
  161.4050  204.6690  152.3690 O   0  0  0  0  0  0  0  0  0  0  0  0
  160.8080  203.4990  152.2720 O   0  0  0  0  0  1  0  0  0  0  0  0
  160.4440  204.4040  150.1590 C   0  0  0  0  0  2  0  0  0  0  0  0
  161.0730  204.5710  148.7840 C   0  0  0  0  0  2  0  0  0  0  0  0
  161.3780  203.2050  148.2050 C   0  0  0  0  0  2  0  0  0  0  0  0
  161.2460  200.7730  148.6350 C   0  0  0  0  0  1  0  0  0  0  0  0
  160.7570  202.1360  149.0800 C   0  0  0  0  0  2  0  0  0  0  0  0
  160.3050  208.8120  154.0300 C   0  0  0  0  0  2  0  0  0  0  0  0
  160.5610  207.7390  156.2830 C   0  0  0  0  0  1  0  0  0  0  0  0
  160.5900  209.0490  155.5110 C   0  0  1  0  0  3  0  0  0  0  0  0
  162.3760  209.5050  157.0670 C   0  0  0  0  0  1  0  0  0  0  0  0
  161.8450  209.7750  155.7340 N   0  0  0  0  0  2  0  0  0  0  0  0
  159.3140  210.9280  153.2090 C   0  0  0  0  0  2  0  0  0  0  0  0
  159.6790  212.3380  153.1320 N   0  0  0  0  0  0  0  0  0  0  0  0
  158.9560  212.9670  152.0160 C   0  0  0  0  0  2  0  0  0  0  0  0
  160.3100  213.1900  149.9770 C   0  0  0  0  0  3  0  0  0  0  0  0
  159.8450  213.7530  151.0920 C   0  0  0  0  0  3  0  0  0  0  0  0
  161.2050  213.9450  149.0430 C   0  0  0  0  0  2  0  0  0  0  0  0
  160.8900  213.6160  147.5920 C   0  0  0  0  0  2  0  0  0  0  0  0
  159.4590  214.0090  147.2550 C   0  0  0  0  0  2  0  0  0  0  0  0
  158.7140  212.8330  146.6470 C   0  0  0  0  0  2  0  0  0  0  0  0
  157.3890  212.6210  147.3570 C   0  0  0  0  0  1  0  0  0  0  0  0
  159.3250  212.9830  154.3940 C   0  0  0  0  0  2  0  0  0  0  0  0
  157.8120  213.0890  154.5330 C   0  0  0  0  0  2  0  0  0  0  0  0
  157.5090  213.3860  156.8760 O   0  0  0  0  0  0  0  0  0  0  0  0
  157.3630  212.6270  155.8800 C   0  0  0  0  0  0  0  0  0  0  0  0
  156.8030  211.3560  156.0270 O   0  0  0  0  0  0  0  0  0  0  0  0
  155.8020  210.8700  155.1460 C   0  0  0  0  0  1  0  0  0  0  0  0
  1 22  1  6  0  0  0
  1 17  1  0  0  0  0
  2  5  1  1  0  0  0
  2  1  1  0  0  0  0
  4  2  1  0  0  0  0
  4  3  1  0  0  0  0
  6  7  1  6  0  0  0
  6  8  1  0  0  0  0
  6  5  1  0  0  0  0
  8  9  1  0  0  0  0
  9 12  1  6  0  0  0
  9 10  1  0  0  0  0
 11 10  1  0  0  0  0
 13 12  1  0  0  0  0
 14 13  1  0  0  0  0
 14 16  1  0  0  0  0
 15 16  1  0  0  0  0
 17 19  1  0  0  0  0
 19 21  1  0  0  0  0
 19 18  1  1  0  0  0
 21 20  1  0  0  0  0
 23 22  1  0  0  0  0
 23 32  1  0  0  0  0
 24 23  1  0  0  0  0
 25 26  2  0  0  0  0
 26 24  1  0  0  0  0
 27 25  1  0  0  0  0
 28 27  1  0  0  0  0
 29 28  1  0  0  0  0
 30 29  1  0  0  0  0
 30 31  1  0  0  0  0
 32 33  1  0  0  0  0
 33 35  1  0  0  0  0
 35 36  1  0  0  0  0
 35 34  2  0  0  0  0
 37 36  1  0  0  0  0
M  END
>  <MODEL>
8

>  <REMARK>
 VINA RESULT:      -5.2      2.413      4.037
  Name = 
  26 active torsions:
  status: ('A' for Active; 'I' for Inactive)
    1  A    between atoms: O_1  and  C_23
    2  A    between atoms: O_2  and  C_8
    3  A    between atoms: C_3  and  C_15
    4  A    between atoms: C_3  and  C_30
    5  A    between atoms: C_4  and  C_10
    6  A    between atoms: C_4  and  C_24
    7  A    between atoms: C_6  and  C_8
    8  A    between atoms: C_6  and  C_31
    9  A    between atoms: C_7  and  C_33
   10  A    between atoms: C_8  and  C_19
   11  A    between atoms: C_10  and  C_13
   12  A    between atoms: C_10  and  C_30
   13  A    between atoms: C_11  and  C_26
   14  A    between atoms: C_13  and  N_20
   15  A    between atoms: C_14  and  C_31
   16  A    between atoms: C_14  and  C_37
   17  A    between atoms: C_15  and  C_19
   18  A    between atoms: C_17  and  C_26
   19  A    between atoms: C_17  and  C_33
   20  A    between atoms: N_20  and  C_21
   21  A    between atoms: N_20  and  C_29
   22  A    between atoms: C_21  and  C_25
   23  A    between atoms: C_23  and  C_25
   24  A    between atoms: C_24  and  N_28
   25  A    between atoms: C_29  and  C_36
   26  A    between atoms: C_30  and  O_32
                            x       y       z     vdW  Elec       q    Type
                         _______ _______ _______ _____ _____    ______ ____

>  <TORSDO>
F 26

$$$$
=
 OpenBabel11062409173D

 37 36  0  0  1  0  0  0  0  0999 V2000
  162.0370  207.2030  149.3020 C   0  0  2  0  0  3  0  0  0  0  0  0
  161.9450  208.6830  149.7110 C   0  0  1  0  0  3  0  0  0  0  0  0
  162.3530  210.5700  148.7610 O   0  0  0  0  0  1  0  0  0  0  0  0
  161.5670  209.5180  148.6510 O   0  0  0  0  0  0  0  0  0  0  0  0
  160.9940  208.8690  150.8960 C   0  0  0  0  0  2  0  0  0  0  0  0
  161.3760  210.0550  151.7760 C   0  0  2  0  0  3  0  0  0  0  0  0
  162.7180  209.9550  152.1450 O   0  0  0  0  0  1  0  0  0  0  0  0
  160.5180  210.0650  153.0330 C   0  0  0  0  0  2  0  0  0  0  0  0
  161.0250  211.0360  154.1010 C   0  0  2  0  0  3  0  0  0  0  0  0
  161.5090  210.3650  155.2290 O   0  0  0  0  0  0  0  0  0  0  0  0
  162.7820  210.6980  155.2950 O   0  0  0  0  0  1  0  0  0  0  0  0
  160.0030  212.1100  154.4750 C   0  0  0  0  0  2  0  0  0  0  0  0
  159.5230  211.9860  155.9130 C   0  0  0  0  0  2  0  0  0  0  0  0
  158.2030  211.2450  155.9370 C   0  0  0  0  0  2  0  0  0  0  0  0
  155.9170  211.5480  155.0440 C   0  0  0  0  0  1  0  0  0  0  0  0
  157.3930  211.6160  154.7130 C   0  0  0  0  0  2  0  0  0  0  0  0
  162.4610  207.0920  147.8410 C   0  0  0  0  0  2  0  0  0  0  0  0
  160.8410  206.2080  146.1430 C   0  0  0  0  0  1  0  0  0  0  0  0
  161.8960  205.8410  147.1740 C   0  0  1  0  0  3  0  0  0  0  0  0
  162.6910  204.7520  145.1730 C   0  0  0  0  0  1  0  0  0  0  0  0
  162.9420  204.9930  146.5920 N   0  0  0  0  0  2  0  0  0  0  0  0
  160.7130  206.4670  149.4800 C   0  0  0  0  0  2  0  0  0  0  0  0
  160.7660  205.6150  150.6620 N   0  0  0  0  0  0  0  0  0  0  0  0
  160.0530  204.3590  150.3880 C   0  0  0  0  0  2  0  0  0  0  0  0
  160.5400  202.0270  149.7840 C   0  0  0  0  0  3  0  0  0  0  0  0
  160.9170  203.3050  149.7510 C   0  0  0  0  0  3  0  0  0  0  0  0
  161.3840  200.9530  149.1680 C   0  0  0  0  0  2  0  0  0  0  0  0
  160.9570  200.6700  147.7360 C   0  0  0  0  0  2  0  0  0  0  0  0
  161.3600  201.8190  146.8230 C   0  0  0  0  0  2  0  0  0  0  0  0
  160.2680  202.0980  145.8050 C   0  0  0  0  0  2  0  0  0  0  0  0
  160.0810  200.9040  144.8880 C   0  0  0  0  0  1  0  0  0  0  0  0
  162.1650  205.3450  150.9830 C   0  0  0  0  0  2  0  0  0  0  0  0
  162.5910  206.1300  152.2160 C   0  0  0  0  0  2  0  0  0  0  0  0
  161.1960  204.8060  153.6180 O   0  0  0  0  0  0  0  0  0  0  0  0
  161.6090  205.9610  153.3270 C   0  0  0  0  0  0  0  0  0  0  0  0
  161.1450  207.0810  154.0210 O   0  0  0  0  0  0  0  0  0  0  0  0
  160.4590  206.9660  155.2590 C   0  0  0  0  0  1  0  0  0  0  0  0
  1 17  1  6  0  0  0
  1 22  1  0  0  0  0
  1  2  1  0  0  0  0
  2  5  1  1  0  0  0
  4  3  1  0  0  0  0
  4  2  1  0  0  0  0
  5  6  1  0  0  0  0
  6  7  1  1  0  0  0
  6  8  1  0  0  0  0
  9  8  1  6  0  0  0
  9 12  1  0  0  0  0
  9 10  1  0  0  0  0
 10 11  1  0  0  0  0
 12 13  1  0  0  0  0
 13 14  1  0  0  0  0
 16 15  1  0  0  0  0
 16 14  1  0  0  0  0
 19 18  1  6  0  0  0
 19 17  1  0  0  0  0
 20 21  1  0  0  0  0
 21 19  1  0  0  0  0
 22 23  1  0  0  0  0
 23 32  1  0  0  0  0
 24 23  1  0  0  0  0
 26 25  2  0  0  0  0
 26 24  1  0  0  0  0
 27 25  1  0  0  0  0
 28 27  1  0  0  0  0
 29 28  1  0  0  0  0
 30 29  1  0  0  0  0
 31 30  1  0  0  0  0
 32 33  1  0  0  0  0
 33 35  1  0  0  0  0
 35 34  2  0  0  0  0
 35 36  1  0  0  0  0
 36 37  1  0  0  0  0
M  END
>  <MODEL>
9

>  <REMARK>
 VINA RESULT:      -5.1      3.146      8.658
  Name = 
  26 active torsions:
  status: ('A' for Active; 'I' for Inactive)
    1  A    between atoms: O_1  and  C_23
    2  A    between atoms: O_2  and  C_8
    3  A    between atoms: C_3  and  C_15
    4  A    between atoms: C_3  and  C_30
    5  A    between atoms: C_4  and  C_10
    6  A    between atoms: C_4  and  C_24
    7  A    between atoms: C_6  and  C_8
    8  A    between atoms: C_6  and  C_31
    9  A    between atoms: C_7  and  C_33
   10  A    between atoms: C_8  and  C_19
   11  A    between atoms: C_10  and  C_13
   12  A    between atoms: C_10  and  C_30
   13  A    between atoms: C_11  and  C_26
   14  A    between atoms: C_13  and  N_20
   15  A    between atoms: C_14  and  C_31
   16  A    between atoms: C_14  and  C_37
   17  A    between atoms: C_15  and  C_19
   18  A    between atoms: C_17  and  C_26
   19  A    between atoms: C_17  and  C_33
   20  A    between atoms: N_20  and  C_21
   21  A    between atoms: N_20  and  C_29
   22  A    between atoms: C_21  and  C_25
   23  A    between atoms: C_23  and  C_25
   24  A    between atoms: C_24  and  N_28
   25  A    between atoms: C_29  and  C_36
   26  A    between atoms: C_30  and  O_32
                            x       y       z     vdW  Elec       q    Type
                         _______ _______ _______ _____ _____    ______ ____

>  <TORSDO>
F 26

$$$$
