=
 OpenBabel11052423113D

 27 31  0  0  1  0  0  0  0  0999 V2000
  161.2740  214.4520  139.2950 C   0  0  0  0  0  2  0  0  0  0  0  0
  159.7090  213.1050  140.7710 C   0  0  1  0  0  0  0  0  0  0  0  0
  160.7400  210.8360  141.1460 C   0  0  0  0  0  2  0  0  0  0  0  0
  160.3470  212.8840  145.0420 C   0  0  0  0  0  3  0  0  0  0  0  0
  162.7610  213.3140  145.3160 C   0  0  0  0  0  3  0  0  0  0  0  0
  158.6820  213.2980  141.7840 N   0  0  0  0  0  0  0  0  0  0  0  0
  162.5710  212.8770  142.8840 N   0  0  0  0  0  0  0  0  0  0  0  0
  159.2450  212.9130  139.3380 C   0  0  2  0  0  3  0  0  0  0  0  0
  162.3390  210.1360  137.7740 C   0  0  0  0  0  2  0  0  0  0  0  0
  163.2520  213.2610  144.0810 C   0  0  0  0  0  3  0  0  0  0  0  0
  162.5190  211.4570  137.0390 C   0  0  0  0  0  2  0  0  0  0  0  0
  161.3080  212.7430  142.6220 C   0  0  0  0  0  0  0  0  0  0  0  0
  159.8330  214.2620  139.7800 C   0  0  2  0  0  3  0  0  0  0  0  0
  161.4320  213.0080  145.7370 N   0  0  0  0  0  2  0  0  0  0  0  0
  160.2090  213.0070  143.5900 C   0  0  0  0  0  0  0  0  0  0  0  0
  161.4310  214.1070  137.8150 C   0  0  0  0  0  2  0  0  0  0  0  0
  160.9550  212.3430  141.2210 C   0  0  2  0  0  3  0  0  0  0  0  0
  161.1950  210.2340  138.7700 C   0  0  0  0  0  2  0  0  0  0  0  0
  159.0030  213.2310  143.1520 N   0  0  0  0  0  0  0  0  0  0  0  0
  163.0260  212.5290  137.9960 C   0  0  0  0  0  2  0  0  0  0  0  0
  162.7680  213.8170  137.5010 O   0  0  0  0  0  0  0  0  0  0  0  0
  161.7450  210.2230  140.1860 C   0  0  0  0  0  2  0  0  0  0  0  0
  156.0490  211.7010  138.1810 C   0  0  0  0  0  2  0  0  0  0  0  0
  157.7380  213.0390  139.1660 C   0  0  2  0  0  3  0  0  0  0  0  0
  157.0980  211.6720  139.2480 C   0  0  0  0  0  2  0  0  0  0  0  0
  156.1810  213.0770  137.5760 C   0  0  0  0  0  2  0  0  0  0  0  0
  157.4430  213.5880  137.9100 O   0  0  0  0  0  0  0  0  0  0  0  0
  2 17  1  0  0  0  0
  2  6  1  1  0  0  0
  4 14  1  0  0  0  0
  5 14  1  0  0  0  0
  6 19  2  0  0  0  0
  7 10  1  0  0  0  0
  8 24  1  1  0  0  0
  8 13  1  0  0  0  0
  8  2  1  0  0  0  0
  9 18  1  0  0  0  0
 10  5  2  0  0  0  0
 11  9  1  0  0  0  0
 11 20  1  0  0  0  0
 12  7  2  0  0  0  0
 12 15  1  0  0  0  0
 13  1  1  6  0  0  0
 13  2  1  0  0  0  0
 15  4  2  0  0  0  0
 16  1  1  0  0  0  0
 17  3  1  1  0  0  0
 17 12  1  0  0  0  0
 18 22  1  0  0  0  0
 19 15  1  0  0  0  0
 21 16  1  0  0  0  0
 21 20  1  0  0  0  0
 22  3  1  0  0  0  0
 23 25  1  0  0  0  0
 24 25  1  6  0  0  0
 26 27  1  0  0  0  0
 26 23  1  0  0  0  0
 27 24  1  0  0  0  0
M  END
>  <MODEL>
1

>  <REMARK>
 VINA RESULT:      -4.7      0.000      0.000
  Name = 
  1 active torsions:
  status: ('A' for Active; 'I' for Inactive)
    1  A    between atoms: C_9  and  C_11
                            x       y       z     vdW  Elec       q    Type
                         _______ _______ _______ _____ _____    ______ ____

>  <TORSDO>
F 1

$$$$
=
 OpenBabel11052423113D

 27 31  0  0  1  0  0  0  0  0999 V2000
  161.1390  210.5890  140.8780 C   0  0  0  0  0  2  0  0  0  0  0  0
  161.9160  212.8710  141.6670 C   0  0  1  0  0  0  0  0  0  0  0  0
  159.9470  214.4430  141.5930 C   0  0  0  0  0  2  0  0  0  0  0  0
  161.3420  214.1020  145.7720 C   0  0  0  0  0  3  0  0  0  0  0  0
  159.4210  212.7590  146.5430 C   0  0  0  0  0  3  0  0  0  0  0  0
  162.9360  213.4780  142.5110 N   0  0  0  0  0  0  0  0  0  0  0  0
  159.3300  212.4560  144.0850 N   0  0  0  0  0  0  0  0  0  0  0  0
  162.2040  212.7930  140.1770 C   0  0  2  0  0  3  0  0  0  0  0  0
  158.1350  213.2780  138.4660 C   0  0  0  0  0  2  0  0  0  0  0  0
  158.9370  212.2030  145.4360 C   0  0  0  0  0  3  0  0  0  0  0  0
  158.5810  211.8590  138.1470 C   0  0  0  0  0  2  0  0  0  0  0  0
  160.3760  213.0450  143.5930 C   0  0  0  0  0  0  0  0  0  0  0  0
  162.3300  211.5350  141.0520 C   0  0  2  0  0  3  0  0  0  0  0  0
  160.4590  213.7340  146.6440 N   0  0  0  0  0  2  0  0  0  0  0  0
  161.4900  213.6090  144.4020 C   0  0  0  0  0  0  0  0  0  0  0  0
  160.8060  210.3500  139.4060 C   0  0  0  0  0  2  0  0  0  0  0  0
  160.4690  213.1030  142.0970 C   0  0  2  0  0  3  0  0  0  0  0  0
  159.2110  214.0110  139.2510 C   0  0  0  0  0  2  0  0  0  0  0  0
  162.6500  213.8170  143.8460 N   0  0  0  0  0  0  0  0  0  0  0  0
  158.6590  211.0300  139.4220 C   0  0  0  0  0  2  0  0  0  0  0  0
  159.4830  209.9060  139.2500 O   0  0  0  0  0  0  0  0  0  0  0  0
  158.7520  214.2160  140.6830 C   0  0  0  0  0  2  0  0  0  0  0  0
  164.5600  214.2100  137.8390 C   0  0  0  0  0  2  0  0  0  0  0  0
  163.5890  213.2990  139.8000 C   0  0  2  0  0  3  0  0  0  0  0  0
  163.4650  214.4530  138.8310 C   0  0  0  0  0  2  0  0  0  0  0  0
  165.2130  212.9370  138.3220 C   0  0  0  0  0  2  0  0  0  0  0  0
  164.3190  212.2780  139.1770 O   0  0  0  0  0  0  0  0  0  0  0  0
  2 17  1  0  0  0  0
  2  6  1  1  0  0  0
  4 14  1  0  0  0  0
  5 14  1  0  0  0  0
  6 19  2  0  0  0  0
  7 10  1  0  0  0  0
  8 24  1  1  0  0  0
  8 13  1  0  0  0  0
  8  2  1  0  0  0  0
  9 18  1  0  0  0  0
 10  5  2  0  0  0  0
 11  9  1  0  0  0  0
 11 20  1  0  0  0  0
 12  7  2  0  0  0  0
 12 15  1  0  0  0  0
 13  1  1  6  0  0  0
 13  2  1  0  0  0  0
 15  4  2  0  0  0  0
 16  1  1  0  0  0  0
 17  3  1  1  0  0  0
 17 12  1  0  0  0  0
 18 22  1  0  0  0  0
 19 15  1  0  0  0  0
 21 16  1  0  0  0  0
 21 20  1  0  0  0  0
 22  3  1  0  0  0  0
 23 26  1  0  0  0  0
 23 25  1  0  0  0  0
 24 25  1  6  0  0  0
 26 27  1  0  0  0  0
 27 24  1  0  0  0  0
M  END
>  <MODEL>
2

>  <REMARK>
 VINA RESULT:      -4.1      1.904      4.736
  Name = 
  1 active torsions:
  status: ('A' for Active; 'I' for Inactive)
    1  A    between atoms: C_9  and  C_11
                            x       y       z     vdW  Elec       q    Type
                         _______ _______ _______ _____ _____    ______ ____

>  <TORSDO>
F 1

$$$$
=
 OpenBabel11052423113D

 27 31  0  0  1  0  0  0  0  0999 V2000
  159.6460  211.4850  141.0790 C   0  0  0  0  0  2  0  0  0  0  0  0
  160.1690  211.0190  138.6400 C   0  0  1  0  0  0  0  0  0  0  0  0
  162.6360  211.3850  138.2800 C   0  0  0  0  0  2  0  0  0  0  0  0
  161.6790  207.1610  137.4030 C   0  0  0  0  0  3  0  0  0  0  0  0
  162.7630  206.2580  139.4270 C   0  0  0  0  0  3  0  0  0  0  0  0
  159.6670  210.2430  137.5150 N   0  0  0  0  0  0  0  0  0  0  0  0
  162.4480  208.6460  140.0120 N   0  0  0  0  0  0  0  0  0  0  0  0
  159.7320  212.4710  138.7330 C   0  0  2  0  0  3  0  0  0  0  0  0
  163.3240  214.3590  140.5390 C   0  0  0  0  0  2  0  0  0  0  0  0
  162.8000  207.2850  140.2720 C   0  0  0  0  0  3  0  0  0  0  0  0
  162.2110  214.4500  141.5720 C   0  0  0  0  0  2  0  0  0  0  0  0
  161.7810  209.1880  139.0400 C   0  0  0  0  0  0  0  0  0  0  0  0
  159.0950  211.4170  139.6520 C   0  0  2  0  0  3  0  0  0  0  0  0
  162.3520  206.2710  138.0600 N   0  0  0  0  0  2  0  0  0  0  0  0
  161.1720  208.4380  137.9080 C   0  0  0  0  0  0  0  0  0  0  0  0
  159.6710  212.9140  141.6170 C   0  0  0  0  0  2  0  0  0  0  0  0
  161.5790  210.6720  139.1140 C   0  0  2  0  0  3  0  0  0  0  0  0
  162.8280  213.6590  139.2840 C   0  0  0  0  0  2  0  0  0  0  0  0
  160.2140  208.9830  137.2150 N   0  0  0  0  0  0  0  0  0  0  0  0
  161.8650  213.0640  142.1010 C   0  0  0  0  0  2  0  0  0  0  0  0
  160.5840  213.0430  142.6760 O   0  0  0  0  0  0  0  0  0  0  0  0
  163.4700  212.2870  139.1730 C   0  0  0  0  0  2  0  0  0  0  0  0
  156.9630  214.4360  137.5110 C   0  0  0  0  0  2  0  0  0  0  0  0
  158.7420  212.8770  137.6500 C   0  0  2  0  0  3  0  0  0  0  0  0
  158.4360  214.3530  137.7660 C   0  0  0  0  0  2  0  0  0  0  0  0
  156.5510  213.0030  137.2770 C   0  0  0  0  0  2  0  0  0  0  0  0
  157.5440  212.1650  137.8060 O   0  0  0  0  0  0  0  0  0  0  0  0
  1 16  1  0  0  0  0
  2  6  1  6  0  0  0
  2  8  1  0  0  0  0
  2 17  1  0  0  0  0
  2 13  1  0  0  0  0
  3 22  1  0  0  0  0
  4 15  2  0  0  0  0
  4 14  1  0  0  0  0
  5 10  2  0  0  0  0
  7 10  1  0  0  0  0
  8 24  1  6  0  0  0
  8 13  1  0  0  0  0
  9 11  1  0  0  0  0
 11 20  1  0  0  0  0
 12 17  1  0  0  0  0
 12  7  2  0  0  0  0
 13  1  1  1  0  0  0
 14  5  1  0  0  0  0
 15 12  1  0  0  0  0
 16 21  1  0  0  0  0
 17  3  1  6  0  0  0
 18  9  1  0  0  0  0
 19  6  2  0  0  0  0
 19 15  1  0  0  0  0
 20 21  1  0  0  0  0
 22 18  1  0  0  0  0
 23 25  1  0  0  0  0
 24 25  1  1  0  0  0
 24 27  1  0  0  0  0
 26 23  1  0  0  0  0
 26 27  1  0  0  0  0
M  END
>  <MODEL>
3

>  <REMARK>
 VINA RESULT:      -3.1      3.190      5.268
  Name = 
  1 active torsions:
  status: ('A' for Active; 'I' for Inactive)
    1  A    between atoms: C_9  and  C_11
                            x       y       z     vdW  Elec       q    Type
                         _______ _______ _______ _____ _____    ______ ____

>  <TORSDO>
F 1

$$$$
=
 OpenBabel11052423113D

 27 31  0  0  1  0  0  0  0  0999 V2000
  160.4420  212.9350  155.8650 C   0  0  0  0  0  2  0  0  0  0  0  0
  160.3710  211.0150  154.2070 C   0  0  1  0  0  0  0  0  0  0  0  0
  158.1040  211.0120  153.1040 C   0  0  0  0  0  2  0  0  0  0  0  0
  161.1910  211.6850  150.0160 C   0  0  0  0  0  3  0  0  0  0  0  0
  160.6460  214.0660  149.6650 C   0  0  0  0  0  3  0  0  0  0  0  0
  161.2640  210.2080  153.3880 N   0  0  0  0  0  2  0  0  0  0  0  0
  159.6220  213.6040  151.8740 N   0  0  0  0  0  0  0  0  0  0  0  0
  159.9690  210.4510  155.5590 C   0  0  2  0  0  3  0  0  0  0  0  0
  155.8350  212.0200  155.9770 C   0  0  0  0  0  2  0  0  0  0  0  0
  160.0280  214.4350  150.7840 C   0  0  0  0  0  3  0  0  0  0  0  0
  156.6770  212.7070  157.0420 C   0  0  0  0  0  2  0  0  0  0  0  0
  159.9500  212.3920  152.1970 C   0  0  0  0  0  0  0  0  0  0  0  0
  161.0190  211.5710  155.4750 C   0  0  2  0  0  3  0  0  0  0  0  0
  161.0580  212.7510  149.2920 N   0  0  0  0  0  0  0  0  0  0  0  0
  160.9210  211.5490  151.4470 C   0  0  0  0  0  0  0  0  0  0  0  0
  159.6390  212.8680  157.1630 C   0  0  0  0  0  2  0  0  0  0  0  0
  159.3340  211.8420  153.4490 C   0  0  2  0  0  3  0  0  0  0  0  0
  156.6890  211.0670  155.1560 C   0  0  0  0  0  2  0  0  0  0  0  0
  161.4810  210.5310  152.0360 N   0  0  0  0  0  0  0  0  0  0  0  0
  157.6750  213.6580  156.3940 C   0  0  0  0  0  2  0  0  0  0  0  0
  158.7420  213.9450  157.2610 O   0  0  0  0  0  0  0  0  0  0  0  0
  156.8750  211.6230  153.7550 C   0  0  0  0  0  2  0  0  0  0  0  0
  159.9690  206.8610  155.9310 C   0  0  0  0  0  2  0  0  0  0  0  0
  160.6500  209.1310  155.8930 C   0  0  2  0  0  3  0  0  0  0  0  0
  160.0970  208.0350  155.0100 C   0  0  0  0  0  2  0  0  0  0  0  0
  160.4520  207.3870  157.2610 C   0  0  0  0  0  2  0  0  0  0  0  0
  160.4010  208.7870  157.2290 O   0  0  0  0  0  0  0  0  0  0  0  0
  1 16  1  0  0  0  0
  2  6  1  6  0  0  0
  2 13  1  0  0  0  0
  2  8  1  0  0  0  0
  3 22  1  0  0  0  0
  4 15  1  0  0  0  0
  5 10  2  0  0  0  0
  7 12  2  0  0  0  0
  8 24  1  6  0  0  0
  9 11  1  0  0  0  0
 10  7  1  0  0  0  0
 12 17  1  0  0  0  0
 13  8  1  0  0  0  0
 13  1  1  1  0  0  0
 14  5  1  0  0  0  0
 14  4  2  0  0  0  0
 15 19  2  0  0  0  0
 15 12  1  0  0  0  0
 16 21  1  0  0  0  0
 17  3  1  6  0  0  0
 17  2  1  0  0  0  0
 18  9  1  0  0  0  0
 19  6  1  0  0  0  0
 20 11  1  0  0  0  0
 20 21  1  0  0  0  0
 22 18  1  0  0  0  0
 23 26  1  0  0  0  0
 24 25  1  6  0  0  0
 24 27  1  0  0  0  0
 25 23  1  0  0  0  0
 27 26  1  0  0  0  0
M  END
>  <MODEL>
4

>  <REMARK>
 VINA RESULT:      -2.6     10.688     15.079
  Name = 
  1 active torsions:
  status: ('A' for Active; 'I' for Inactive)
    1  A    between atoms: C_9  and  C_11
                            x       y       z     vdW  Elec       q    Type
                         _______ _______ _______ _____ _____    ______ ____

>  <TORSDO>
F 1

$$$$
=
 OpenBabel11052423113D

 27 31  0  0  1  0  0  0  0  0999 V2000
  157.9510  210.7440  153.5440 C   0  0  0  0  0  2  0  0  0  0  0  0
  160.2740  210.9150  152.5390 C   0  0  1  0  0  0  0  0  0  0  0  0
  161.9570  210.6540  154.3980 C   0  0  0  0  0  2  0  0  0  0  0  0
  162.5020  207.3560  151.5080 C   0  0  0  0  0  3  0  0  0  0  0  0
  161.5670  205.6090  152.9780 C   0  0  0  0  0  3  0  0  0  0  0  0
  160.9690  210.6960  151.2790 N   0  0  0  0  0  0  0  0  0  0  0  0
  160.6920  207.6910  154.0010 N   0  0  0  0  0  0  0  0  0  0  0  0
  159.8150  212.3310  152.8430 C   0  0  2  0  0  3  0  0  0  0  0  0
  160.2490  212.4710  157.2610 C   0  0  0  0  0  2  0  0  0  0  0  0
  160.8090  206.2750  153.8450 C   0  0  0  0  0  3  0  0  0  0  0  0
  158.7590  212.5570  156.9600 C   0  0  0  0  0  2  0  0  0  0  0  0
  161.0470  208.6700  153.2270 C   0  0  0  0  0  0  0  0  0  0  0  0
  158.7970  211.2740  152.3830 C   0  0  2  0  0  3  0  0  0  0  0  0
  162.4380  206.1560  151.9870 N   0  0  0  0  0  2  0  0  0  0  0  0
  161.6830  208.5070  151.8910 C   0  0  0  0  0  0  0  0  0  0  0  0
  157.3970  211.8720  154.4130 C   0  0  0  0  0  2  0  0  0  0  0  0
  160.7350  210.0530  153.7130 C   0  0  2  0  0  3  0  0  0  0  0  0
  161.0450  212.3590  155.9710 C   0  0  0  0  0  2  0  0  0  0  0  0
  161.6430  209.4860  151.0340 N   0  0  0  0  0  0  0  0  0  0  0  0
  158.2570  211.2350  156.3950 C   0  0  0  0  0  2  0  0  0  0  0  0
  157.0530  211.4060  155.6920 O   0  0  0  0  0  0  0  0  0  0  0  0
  161.6300  210.9630  155.8490 C   0  0  0  0  0  2  0  0  0  0  0  0
  158.7390  214.4530  150.1290 C   0  0  0  0  0  2  0  0  0  0  0  0
  160.0850  213.3120  151.7110 C   0  0  2  0  0  3  0  0  0  0  0  0
  158.9420  214.2960  151.6040 C   0  0  0  0  0  2  0  0  0  0  0  0
  159.7770  213.5430  149.5190 C   0  0  0  0  0  2  0  0  0  0  0  0
  160.1880  212.6240  150.4940 O   0  0  0  0  0  0  0  0  0  0  0  0
  1 16  1  0  0  0  0
  2  6  1  6  0  0  0
  2  8  1  0  0  0  0
  2 17  1  0  0  0  0
  3 22  1  0  0  0  0
  4 15  2  0  0  0  0
  4 14  1  0  0  0  0
  5 10  2  0  0  0  0
  8 24  1  6  0  0  0
 10  7  1  0  0  0  0
 11  9  1  0  0  0  0
 12 17  1  0  0  0  0
 12  7  2  0  0  0  0
 13  2  1  0  0  0  0
 13  8  1  0  0  0  0
 13  1  1  1  0  0  0
 14  5  1  0  0  0  0
 15 12  1  0  0  0  0
 16 21  1  0  0  0  0
 17  3  1  6  0  0  0
 18  9  1  0  0  0  0
 19  6  2  0  0  0  0
 19 15  1  0  0  0  0
 20 11  1  0  0  0  0
 21 20  1  0  0  0  0
 22 18  1  0  0  0  0
 23 25  1  0  0  0  0
 24 25  1  6  0  0  0
 26 23  1  0  0  0  0
 26 27  1  0  0  0  0
 27 24  1  0  0  0  0
M  END
>  <MODEL>
5

>  <REMARK>
 VINA RESULT:      -2.6     10.025     13.929
  Name = 
  1 active torsions:
  status: ('A' for Active; 'I' for Inactive)
    1  A    between atoms: C_9  and  C_11
                            x       y       z     vdW  Elec       q    Type
                         _______ _______ _______ _____ _____    ______ ____

>  <TORSDO>
F 1

$$$$
=
 OpenBabel11052423113D

 27 31  0  0  1  0  0  0  0  0999 V2000
  157.2020  210.4210  139.5650 C   0  0  0  0  0  2  0  0  0  0  0  0
  159.6360  211.0720  139.2690 C   0  0  1  0  0  0  0  0  0  0  0  0
  159.7690  213.5870  139.1490 C   0  0  0  0  0  2  0  0  0  0  0  0
  162.0470  212.2070  142.6740 C   0  0  0  0  0  3  0  0  0  0  0  0
  160.4100  213.0150  144.3330 C   0  0  0  0  0  3  0  0  0  0  0  0
  160.9730  210.5710  139.5550 N   0  0  0  0  0  0  0  0  0  0  0  0
  159.0670  212.9400  142.2520 N   0  0  0  0  0  0  0  0  0  0  0  0
  159.0750  210.8050  137.8830 C   0  0  2  0  0  3  0  0  0  0  0  0
  156.6190  214.4440  137.2090 C   0  0  0  0  0  2  0  0  0  0  0  0
  159.2680  213.1080  143.6570 C   0  0  0  0  0  3  0  0  0  0  0  0
  155.6540  213.2720  137.3100 C   0  0  0  0  0  2  0  0  0  0  0  0
  159.8220  212.4200  141.3340 C   0  0  0  0  0  0  0  0  0  0  0  0
  158.5860  209.9780  139.0830 C   0  0  2  0  0  3  0  0  0  0  0  0
  161.7060  212.7150  143.8140 N   0  0  0  0  0  2  0  0  0  0  0  0
  161.1600  211.8160  141.5780 C   0  0  0  0  0  0  0  0  0  0  0  0
  156.2130  210.5720  138.4100 C   0  0  0  0  0  2  0  0  0  0  0  0
  159.2600  212.3910  139.9440 C   0  0  2  0  0  3  0  0  0  0  0  0
  158.0530  213.9680  137.3810 C   0  0  0  0  0  2  0  0  0  0  0  0
  161.6620  210.9870  140.7090 N   0  0  0  0  0  0  0  0  0  0  0  0
  155.6340  212.7240  138.7310 C   0  0  0  0  0  2  0  0  0  0  0  0
  155.1430  211.4100  138.7640 O   0  0  0  0  0  0  0  0  0  0  0  0
  158.5970  214.4490  138.7150 C   0  0  0  0  0  2  0  0  0  0  0  0
  161.1190  207.8910  137.2850 C   0  0  0  0  0  2  0  0  0  0  0  0
  159.9910  209.9570  137.0110 C   0  0  2  0  0  3  0  0  0  0  0  0
  159.7470  208.4920  137.2890 C   0  0  0  0  0  2  0  0  0  0  0  0
  162.0290  209.0640  137.0110 C   0  0  0  0  0  2  0  0  0  0  0  0
  161.3320  210.2440  137.3040 O   0  0  0  0  0  0  0  0  0  0  0  0
  2  6  1  1  0  0  0
  2 17  1  0  0  0  0
  4 14  1  0  0  0  0
  6 19  2  0  0  0  0
  7 10  1  0  0  0  0
  8 24  1  6  0  0  0
  8 13  1  0  0  0  0
  8  2  1  0  0  0  0
  9 11  1  0  0  0  0
  9 18  1  0  0  0  0
 10  5  2  0  0  0  0
 11 20  1  0  0  0  0
 12 15  1  0  0  0  0
 12  7  2  0  0  0  0
 13  2  1  0  0  0  0
 13  1  1  1  0  0  0
 14  5  1  0  0  0  0
 15  4  2  0  0  0  0
 16 21  1  0  0  0  0
 16  1  1  0  0  0  0
 17  3  1  6  0  0  0
 17 12  1  0  0  0  0
 18 22  1  0  0  0  0
 19 15  1  0  0  0  0
 20 21  1  0  0  0  0
 22  3  1  0  0  0  0
 23 25  1  0  0  0  0
 24 25  1  1  0  0  0
 24 27  1  0  0  0  0
 26 23  1  0  0  0  0
 26 27  1  0  0  0  0
M  END
>  <MODEL>
6

>  <REMARK>
 VINA RESULT:      -1.9      2.001      4.924
  Name = 
  1 active torsions:
  status: ('A' for Active; 'I' for Inactive)
    1  A    between atoms: C_9  and  C_11
                            x       y       z     vdW  Elec       q    Type
                         _______ _______ _______ _____ _____    ______ ____

>  <TORSDO>
F 1

$$$$
=
 OpenBabel11052423113D

 27 31  0  0  1  0  0  0  0  0999 V2000
  160.2450  212.0120  142.9680 C   0  0  0  0  0  2  0  0  0  0  0  0
  159.9260  212.2180  140.4590 C   0  0  1  0  0  0  0  0  0  0  0  0
  162.2020  212.3700  139.3860 C   0  0  0  0  0  2  0  0  0  0  0  0
  160.1710  208.7350  137.9090 C   0  0  0  0  0  3  0  0  0  0  0  0
  161.5830  207.1560  139.1740 C   0  0  0  0  0  3  0  0  0  0  0  0
  158.9690  211.8700  139.4190 N   0  0  0  0  0  2  0  0  0  0  0  0
  161.9580  209.2890  140.3790 N   0  0  0  0  0  0  0  0  0  0  0  0
  159.8490  213.6210  141.0350 C   0  0  2  0  0  3  0  0  0  0  0  0
  164.1220  214.4490  141.9180 C   0  0  0  0  0  2  0  0  0  0  0  0
  162.0780  207.8800  140.1750 C   0  0  0  0  0  3  0  0  0  0  0  0
  163.4020  214.3700  143.2560 C   0  0  0  0  0  2  0  0  0  0  0  0
  161.1660  210.1680  139.8460 C   0  0  0  0  0  0  0  0  0  0  0  0
  159.3010  212.4300  141.8370 C   0  0  2  0  0  3  0  0  0  0  0  0
  160.8040  207.6170  138.0700 N   0  0  0  0  0  0  0  0  0  0  0  0
  160.1110  209.8600  138.8430 C   0  0  0  0  0  0  0  0  0  0  0  0
  160.7230  213.2080  143.7890 C   0  0  0  0  0  2  0  0  0  0  0  0
  161.3090  211.5790  140.3330 C   0  0  2  0  0  3  0  0  0  0  0  0
  163.1480  214.2110  140.7750 C   0  0  0  0  0  2  0  0  0  0  0  0
  159.1290  210.6960  138.6620 N   0  0  0  0  0  0  0  0  0  0  0  0
  162.9440  212.9420  143.5260 C   0  0  0  0  0  2  0  0  0  0  0  0
  161.9110  212.9100  144.4770 O   0  0  0  0  0  0  0  0  0  0  0  0
  163.4290  212.8640  140.1340 C   0  0  0  0  0  2  0  0  0  0  0  0
  156.3340  214.2370  140.4980 C   0  0  0  0  0  2  0  0  0  0  0  0
  158.6940  214.4430  140.4780 C   0  0  2  0  0  3  0  0  0  0  0  0
  157.5110  214.3600  141.4150 C   0  0  0  0  0  2  0  0  0  0  0  0
  156.9440  214.2540  139.1170 C   0  0  0  0  0  2  0  0  0  0  0  0
  158.3050  213.9360  139.2300 O   0  0  0  0  0  0  0  0  0  0  0  0
  1 16  1  0  0  0  0
  2  6  1  6  0  0  0
  2  8  1  0  0  0  0
  2 13  1  0  0  0  0
  3 22  1  0  0  0  0
  4 14  2  0  0  0  0
  4 15  1  0  0  0  0
  5 10  2  0  0  0  0
  8 24  1  6  0  0  0
  8 13  1  0  0  0  0
  9 11  1  0  0  0  0
 10  7  1  0  0  0  0
 11 20  1  0  0  0  0
 12 17  1  0  0  0  0
 12  7  2  0  0  0  0
 13  1  1  1  0  0  0
 14  5  1  0  0  0  0
 15 12  1  0  0  0  0
 16 21  1  0  0  0  0
 17  3  1  6  0  0  0
 17  2  1  0  0  0  0
 18  9  1  0  0  0  0
 19 15  2  0  0  0  0
 19  6  1  0  0  0  0
 20 21  1  0  0  0  0
 22 18  1  0  0  0  0
 23 25  1  0  0  0  0
 24 25  1  1  0  0  0
 26 27  1  0  0  0  0
 26 23  1  0  0  0  0
 27 24  1  0  0  0  0
M  END
>  <MODEL>
7

>  <REMARK>
 VINA RESULT:      -1.7      2.810      5.076
  Name = 
  1 active torsions:
  status: ('A' for Active; 'I' for Inactive)
    1  A    between atoms: C_9  and  C_11
                            x       y       z     vdW  Elec       q    Type
                         _______ _______ _______ _____ _____    ______ ____

>  <TORSDO>
F 1

$$$$
