=
 OpenBabel11052422093D

 25 27  0  0  1  0  0  0  0  0999 V2000
  161.4400  206.2660  150.8540 C   0  0  1  0  0  3  0  0  0  0  0  0
  162.6350  204.3560  151.7350 O   0  0  0  0  0  1  0  0  0  0  0  0
  160.4540  203.9860  150.7890 C   0  0  2  0  0  3  0  0  0  0  0  0
  160.4920  202.6920  151.3090 O   0  0  0  0  0  1  0  0  0  0  0  0
  161.9320  206.1240  149.5410 O   0  0  0  0  0  0  0  0  0  0  0  0
  160.8430  203.9730  149.3130 C   0  0  0  0  0  2  0  0  0  0  0  0
  160.9540  205.4170  148.8130 C   0  0  2  0  0  3  0  0  0  0  0  0
  161.3640  204.9210  151.5910 C   0  0  2  0  0  3  0  0  0  0  0  0
  162.1500  207.3750  151.6510 C   0  0  2  0  0  3  0  0  0  0  0  0
  161.7310  208.9760  149.6050 C   0  0  0  0  0  1  0  0  0  0  0  0
  161.4280  207.6410  152.9240 C   0  0  0  0  0  0  0  0  0  0  0  0
  160.0910  208.5900  155.1650 C   0  0  0  0  0  3  0  0  0  0  0  0
  161.1200  208.9700  153.0300 C   0  0  0  0  0  0  0  0  0  0  0  0
  160.4470  209.4790  154.1390 C   0  0  0  0  0  3  0  0  0  0  0  0
  160.4150  207.2240  155.0640 C   0  0  0  0  0  3  0  0  0  0  0  0
  162.2640  208.8040  151.0190 C   0  0  1  0  0  3  0  0  0  0  0  0
  161.5680  209.7200  151.9210 N   0  0  0  0  0  2  0  0  0  0  0  0
  161.0940  206.7380  153.9360 C   0  0  0  0  0  3  0  0  0  0  0  0
  161.2690  205.4590  147.3220 C   0  0  0  0  0  2  0  0  0  0  0  0
  161.9360  204.1730  146.8470 C   0  0  0  0  0  2  0  0  0  0  0  0
  160.7240  202.1980  145.8570 C   0  0  0  0  0  0  0  0  0  0  0  0
  159.9940  201.6350  144.8170 O   0  0  0  0  0  0  0  0  0  0  0  0
  161.0040  201.4950  146.8650 O   0  0  0  0  0  1  0  0  0  0  0  0
  161.1540  203.5640  145.7810 N   0  0  0  0  0  0  0  0  0  0  0  0
  160.9070  204.3410  144.5780 C   0  0  0  0  0  1  0  0  0  0  0  0
  1  5  1  6  0  0  0
  1  8  1  0  0  0  0
  1  9  1  0  0  0  0
  3  4  1  1  0  0  0
  3  8  1  0  0  0  0
  6  3  1  0  0  0  0
  7 19  1  6  0  0  0
  7  6  1  0  0  0  0
  7  5  1  0  0  0  0
  8  2  1  6  0  0  0
  9 11  1  1  0  0  0
 11 13  2  0  0  0  0
 11 18  1  0  0  0  0
 13 14  1  0  0  0  0
 14 12  2  0  0  0  0
 15 12  1  0  0  0  0
 16 10  1  6  0  0  0
 16  9  1  0  0  0  0
 16 17  1  0  0  0  0
 17 13  1  0  0  0  0
 18 15  2  0  0  0  0
 20 19  1  0  0  0  0
 21 23  1  0  0  0  0
 22 21  2  0  0  0  0
 24 21  1  0  0  0  0
 24 20  1  0  0  0  0
 25 24  1  0  0  0  0
M  END
>  <MODEL>
1

>  <REMARK>
 VINA RESULT:      -8.4      0.000      0.000
  Name = 
  4 active torsions:
  status: ('A' for Active; 'I' for Inactive)
    1  A    between atoms: C_1  and  C_3
    2  A    between atoms: C_6  and  C_15
    3  A    between atoms: C_6  and  C_23
    4  A    between atoms: C_15  and  N_21
                            x       y       z     vdW  Elec       q    Type
                         _______ _______ _______ _____ _____    ______ ____

>  <TORSDO>
F 4

$$$$
=
 OpenBabel11052422093D

 25 27  0  0  1  0  0  0  0  0999 V2000
  161.2450  205.4980  150.2910 C   0  0  1  0  0  3  0  0  0  0  0  0
  159.7050  203.6330  150.3230 O   0  0  0  0  0  1  0  0  0  0  0  0
  161.7400  203.4390  151.5900 C   0  0  2  0  0  3  0  0  0  0  0  0
  161.4490  202.0860  151.7730 O   0  0  0  0  0  1  0  0  0  0  0  0
  160.7030  206.1240  151.4310 O   0  0  0  0  0  0  0  0  0  0  0  0
  161.3220  204.2390  152.8210 C   0  0  0  0  0  2  0  0  0  0  0  0
  161.4980  205.7330  152.5270 C   0  0  2  0  0  3  0  0  0  0  0  0
  161.0600  203.9740  150.3260 C   0  0  2  0  0  3  0  0  0  0  0  0
  160.7960  206.1500  148.9700 C   0  0  2  0  0  3  0  0  0  0  0  0
  162.1010  208.3120  149.7100 C   0  0  0  0  0  1  0  0  0  0  0  0
  161.3060  205.3720  147.8090 C   0  0  0  0  0  0  0  0  0  0  0  0
  162.4210  204.3350  145.4870 C   0  0  0  0  0  3  0  0  0  0  0  0
  162.0040  206.1850  146.9590 C   0  0  0  0  0  0  0  0  0  0  0  0
  162.5800  205.6970  145.7870 C   0  0  0  0  0  3  0  0  0  0  0  0
  161.6950  203.4980  146.3550 C   0  0  0  0  0  3  0  0  0  0  0  0
  161.2800  207.6050  148.6440 C   0  0  1  0  0  3  0  0  0  0  0  0
  162.0490  207.5240  147.4040 N   0  0  0  0  0  2  0  0  0  0  0  0
  161.1250  204.0160  147.5290 C   0  0  0  0  0  3  0  0  0  0  0  0
  161.1640  206.5750  153.7530 C   0  0  0  0  0  2  0  0  0  0  0  0
  160.8610  208.0230  153.3810 C   0  0  0  0  0  2  0  0  0  0  0  0
  161.4670  210.3010  154.2730 C   0  0  0  0  0  0  0  0  0  0  0  0
  161.8110  211.1200  155.3420 O   0  0  0  0  0  1  0  0  0  0  0  0
  161.3950  210.7950  153.1160 O   0  0  0  0  0  0  0  0  0  0  0  0
  161.2020  208.9070  154.4860 N   0  0  0  0  0  0  0  0  0  0  0  0
  161.3780  208.3250  155.8060 C   0  0  0  0  0  1  0  0  0  0  0  0
  1  8  1  0  0  0  0
  1  5  1  1  0  0  0
  3  4  1  1  0  0  0
  3  6  1  0  0  0  0
  5  7  1  0  0  0  0
  7  6  1  0  0  0  0
  7 19  1  1  0  0  0
  8  2  1  1  0  0  0
  8  3  1  0  0  0  0
  9 11  1  6  0  0  0
  9  1  1  0  0  0  0
 12 14  2  0  0  0  0
 12 15  1  0  0  0  0
 13 17  1  0  0  0  0
 13 11  2  0  0  0  0
 14 13  1  0  0  0  0
 15 18  2  0  0  0  0
 16  9  1  0  0  0  0
 16 10  1  1  0  0  0
 17 16  1  0  0  0  0
 18 11  1  0  0  0  0
 20 19  1  0  0  0  0
 20 24  1  0  0  0  0
 21 24  1  0  0  0  0
 21 22  1  0  0  0  0
 23 21  2  0  0  0  0
 24 25  1  0  0  0  0
M  END
>  <MODEL>
2

>  <REMARK>
 VINA RESULT:      -7.8      2.487      7.300
  Name = 
  4 active torsions:
  status: ('A' for Active; 'I' for Inactive)
    1  A    between atoms: C_1  and  C_3
    2  A    between atoms: C_6  and  C_15
    3  A    between atoms: C_6  and  C_23
    4  A    between atoms: C_15  and  N_21
                            x       y       z     vdW  Elec       q    Type
                         _______ _______ _______ _____ _____    ______ ____

>  <TORSDO>
F 4

$$$$
=
 OpenBabel11052422093D

 25 27  0  0  1  0  0  0  0  0999 V2000
  161.2440  206.5050  151.5290 C   0  0  1  0  0  3  0  0  0  0  0  0
  162.8570  204.7210  151.7920 O   0  0  0  0  0  1  0  0  0  0  0  0
  160.6050  204.1280  151.1900 C   0  0  2  0  0  3  0  0  0  0  0  0
  160.9350  202.7930  151.4300 O   0  0  0  0  0  1  0  0  0  0  0  0
  161.4700  206.6720  150.1480 O   0  0  0  0  0  0  0  0  0  0  0  0
  160.6790  204.4280  149.6950 C   0  0  0  0  0  2  0  0  0  0  0  0
  160.4760  205.9320  149.4780 C   0  0  2  0  0  3  0  0  0  0  0  0
  161.5160  205.0650  151.9880 C   0  0  2  0  0  3  0  0  0  0  0  0
  161.9360  207.5760  152.3910 C   0  0  2  0  0  3  0  0  0  0  0  0
  161.6770  209.2330  150.3630 C   0  0  0  0  0  1  0  0  0  0  0  0
  161.1490  207.8340  153.6270 C   0  0  0  0  0  0  0  0  0  0  0  0
  159.7100  208.7680  155.8100 C   0  0  0  0  0  3  0  0  0  0  0  0
  160.8700  209.1670  153.7470 C   0  0  0  0  0  0  0  0  0  0  0  0
  160.1480  209.6700  154.8280 C   0  0  0  0  0  3  0  0  0  0  0  0
  160.0040  207.3970  155.6960 C   0  0  0  0  0  3  0  0  0  0  0  0
  162.1230  209.0150  151.8000 C   0  0  1  0  0  3  0  0  0  0  0  0
  161.4000  209.9290  152.6830 N   0  0  0  0  0  2  0  0  0  0  0  0
  160.7340  206.9170  154.5960 C   0  0  0  0  0  3  0  0  0  0  0  0
  160.4680  206.2750  147.9930 C   0  0  0  0  0  2  0  0  0  0  0  0
  161.8770  206.4870  147.4520 C   0  0  0  0  0  2  0  0  0  0  0  0
  161.1770  205.6940  145.1650 C   0  0  0  0  0  0  0  0  0  0  0  0
  161.3940  204.8840  144.0560 O   0  0  0  0  0  0  0  0  0  0  0  0
  160.1700  206.4500  145.1890 O   0  0  0  0  0  1  0  0  0  0  0  0
  162.0910  205.6650  146.2700 N   0  0  0  0  0  0  0  0  0  0  0  0
  163.1980  204.7240  146.2760 C   0  0  0  0  0  1  0  0  0  0  0  0
  1  5  1  6  0  0  0
  1  8  1  0  0  0  0
  1  9  1  0  0  0  0
  3  4  1  6  0  0  0
  3  8  1  0  0  0  0
  6  3  1  0  0  0  0
  7 19  1  6  0  0  0
  7  6  1  0  0  0  0
  7  5  1  0  0  0  0
  8  2  1  6  0  0  0
  9 11  1  1  0  0  0
 11 13  2  0  0  0  0
 11 18  1  0  0  0  0
 13 14  1  0  0  0  0
 14 12  2  0  0  0  0
 15 12  1  0  0  0  0
 16 10  1  6  0  0  0
 16  9  1  0  0  0  0
 16 17  1  0  0  0  0
 17 13  1  0  0  0  0
 18 15  2  0  0  0  0
 20 19  1  0  0  0  0
 21 23  1  0  0  0  0
 21 24  1  0  0  0  0
 22 21  2  0  0  0  0
 24 25  1  0  0  0  0
 24 20  1  0  0  0  0
M  END
>  <MODEL>
3

>  <REMARK>
 VINA RESULT:      -7.8      1.626      1.845
  Name = 
  4 active torsions:
  status: ('A' for Active; 'I' for Inactive)
    1  A    between atoms: C_1  and  C_3
    2  A    between atoms: C_6  and  C_15
    3  A    between atoms: C_6  and  C_23
    4  A    between atoms: C_15  and  N_21
                            x       y       z     vdW  Elec       q    Type
                         _______ _______ _______ _____ _____    ______ ____

>  <TORSDO>
F 4

$$$$
=
 OpenBabel11052422093D

 25 27  0  0  1  0  0  0  0  0999 V2000
  161.5330  206.2380  149.0000 C   0  0  1  0  0  3  0  0  0  0  0  0
  160.1720  206.2590  151.0000 O   0  0  0  0  0  1  0  0  0  0  0  0
  162.4550  206.9960  151.1800 C   0  0  2  0  0  3  0  0  0  0  0  0
  162.3070  206.9850  152.5670 O   0  0  0  0  0  1  0  0  0  0  0  0
  161.2310  207.5640  148.6320 O   0  0  0  0  0  0  0  0  0  0  0  0
  162.2820  208.4140  150.6420 C   0  0  0  0  0  2  0  0  0  0  0  0
  162.2830  208.3700  149.1100 C   0  0  2  0  0  3  0  0  0  0  0  0
  161.4650  206.0310  150.5210 C   0  0  2  0  0  3  0  0  0  0  0  0
  160.7460  205.1900  148.1920 C   0  0  2  0  0  3  0  0  0  0  0  0
  162.2800  205.7710  146.1350 C   0  0  0  0  0  1  0  0  0  0  0  0
  160.8760  203.8480  148.8210 C   0  0  0  0  0  0  0  0  0  0  0  0
  161.2420  201.1980  149.5640 C   0  0  0  0  0  3  0  0  0  0  0  0
  161.3270  202.9340  147.9090 C   0  0  0  0  0  0  0  0  0  0  0  0
  161.5250  201.5970  148.2480 C   0  0  0  0  0  3  0  0  0  0  0  0
  160.7680  202.1320  150.5030 C   0  0  0  0  0  3  0  0  0  0  0  0
  161.1640  204.9120  146.7080 C   0  0  1  0  0  3  0  0  0  0  0  0
  161.5420  203.5020  146.6340 N   0  0  0  0  0  2  0  0  0  0  0  0
  160.5760  203.4740  150.1330 C   0  0  0  0  0  3  0  0  0  0  0  0
  162.1880  209.7730  148.5210 C   0  0  0  0  0  2  0  0  0  0  0  0
  161.9350  210.8230  149.5970 C   0  0  0  0  0  2  0  0  0  0  0  0
  160.9240  213.1290  149.4860 C   0  0  0  0  0  0  0  0  0  0  0  0
  160.8460  214.3790  148.8820 O   0  0  0  0  0  0  0  0  0  0  0  0
  160.1740  212.8700  150.4650 O   0  0  0  0  0  1  0  0  0  0  0  0
  161.8470  212.1470  148.9960 N   0  0  0  0  0  0  0  0  0  0  0  0
  162.6420  212.4190  147.8110 C   0  0  0  0  0  1  0  0  0  0  0  0
  1  5  1  1  0  0  0
  1  8  1  0  0  0  0
  3  4  1  1  0  0  0
  5  7  1  0  0  0  0
  6  3  1  0  0  0  0
  7 19  1  6  0  0  0
  7  6  1  0  0  0  0
  8  2  1  1  0  0  0
  8  3  1  0  0  0  0
  9 11  1  1  0  0  0
  9  1  1  0  0  0  0
 11 18  1  0  0  0  0
 12 15  1  0  0  0  0
 13 14  1  0  0  0  0
 13 11  2  0  0  0  0
 14 12  2  0  0  0  0
 16 10  1  1  0  0  0
 16  9  1  0  0  0  0
 17 16  1  0  0  0  0
 17 13  1  0  0  0  0
 18 15  2  0  0  0  0
 19 20  1  0  0  0  0
 21 23  1  0  0  0  0
 22 21  2  0  0  0  0
 24 21  1  0  0  0  0
 24 20  1  0  0  0  0
 25 24  1  0  0  0  0
M  END
>  <MODEL>
4

>  <REMARK>
 VINA RESULT:      -7.3      3.031      7.144
  Name = 
  4 active torsions:
  status: ('A' for Active; 'I' for Inactive)
    1  A    between atoms: C_1  and  C_3
    2  A    between atoms: C_6  and  C_15
    3  A    between atoms: C_6  and  C_23
    4  A    between atoms: C_15  and  N_21
                            x       y       z     vdW  Elec       q    Type
                         _______ _______ _______ _____ _____    ______ ____

>  <TORSDO>
F 4

$$$$
=
 OpenBabel11052422093D

 25 27  0  0  1  0  0  0  0  0999 V2000
  161.4370  205.5030  150.5120 C   0  0  1  0  0  3  0  0  0  0  0  0
  162.6120  204.1920  152.1720 O   0  0  0  0  0  1  0  0  0  0  0  0
  160.3840  203.5140  151.5660 C   0  0  2  0  0  3  0  0  0  0  0  0
  160.4070  202.6250  152.6410 O   0  0  0  0  0  1  0  0  0  0  0  0
  161.8700  204.7300  149.4160 O   0  0  0  0  0  0  0  0  0  0  0  0
  160.7120  202.7810  150.2680 C   0  0  0  0  0  2  0  0  0  0  0  0
  160.8440  203.8060  149.1360 C   0  0  2  0  0  3  0  0  0  0  0  0
  161.3530  204.6770  151.8040 C   0  0  2  0  0  3  0  0  0  0  0  0
  162.2110  206.8250  150.6660 C   0  0  2  0  0  3  0  0  0  0  0  0
  161.4630  207.4320  148.2170 C   0  0  0  0  0  1  0  0  0  0  0  0
  161.6600  207.6180  151.7970 C   0  0  0  0  0  0  0  0  0  0  0  0
  160.6080  209.4530  153.5960 C   0  0  0  0  0  3  0  0  0  0  0  0
  161.3240  208.8770  151.3790 C   0  0  0  0  0  0  0  0  0  0  0  0
  160.7910  209.8220  152.2540 C   0  0  0  0  0  3  0  0  0  0  0  0
  160.9620  208.1620  154.0330 C   0  0  0  0  0  3  0  0  0  0  0  0
  162.1890  207.8540  149.4850 C   0  0  1  0  0  3  0  0  0  0  0  0
  161.5910  209.0810  150.0080 N   0  0  0  0  0  2  0  0  0  0  0  0
  161.4980  207.2310  153.1290 C   0  0  0  0  0  3  0  0  0  0  0  0
  161.0980  203.1180  147.8000 C   0  0  0  0  0  2  0  0  0  0  0  0
  162.0830  203.8990  146.9380 C   0  0  0  0  0  2  0  0  0  0  0  0
  161.8240  205.2190  144.8070 C   0  0  0  0  0  0  0  0  0  0  0  0
  161.2990  205.3400  143.5250 O   0  0  0  0  0  0  0  0  0  0  0  0
  162.5280  206.1530  145.2760 O   0  0  0  0  0  1  0  0  0  0  0  0
  161.5640  204.0430  145.5860 N   0  0  0  0  0  0  0  0  0  0  0  0
  160.6760  203.0110  145.0750 C   0  0  0  0  0  1  0  0  0  0  0  0
  1  5  1  6  0  0  0
  1  9  1  0  0  0  0
  1  8  1  0  0  0  0
  3  8  1  0  0  0  0
  3  4  1  1  0  0  0
  6  3  1  0  0  0  0
  7 19  1  6  0  0  0
  7  5  1  0  0  0  0
  7  6  1  0  0  0  0
  8  2  1  6  0  0  0
  9 11  1  1  0  0  0
 11 18  1  0  0  0  0
 12 15  1  0  0  0  0
 13 11  2  0  0  0  0
 13 14  1  0  0  0  0
 14 12  2  0  0  0  0
 16 10  1  6  0  0  0
 16 17  1  0  0  0  0
 16  9  1  0  0  0  0
 17 13  1  0  0  0  0
 18 15  2  0  0  0  0
 20 19  1  0  0  0  0
 21 23  1  0  0  0  0
 21 24  1  0  0  0  0
 22 21  2  0  0  0  0
 24 20  1  0  0  0  0
 25 24  1  0  0  0  0
M  END
>  <MODEL>
5

>  <REMARK>
 VINA RESULT:      -7.2      1.615      2.017
  Name = 
  4 active torsions:
  status: ('A' for Active; 'I' for Inactive)
    1  A    between atoms: C_1  and  C_3
    2  A    between atoms: C_6  and  C_15
    3  A    between atoms: C_6  and  C_23
    4  A    between atoms: C_15  and  N_21
                            x       y       z     vdW  Elec       q    Type
                         _______ _______ _______ _____ _____    ______ ____

>  <TORSDO>
F 4

$$$$
=
 OpenBabel11052422093D

 25 27  0  0  1  0  0  0  0  0999 V2000
  161.4530  205.8300  149.6370 C   0  0  1  0  0  3  0  0  0  0  0  0
  160.0800  205.1720  151.5170 O   0  0  0  0  0  1  0  0  0  0  0  0
  162.3280  205.9040  151.9610 C   0  0  2  0  0  3  0  0  0  0  0  0
  162.1720  205.4540  153.2730 O   0  0  0  0  0  1  0  0  0  0  0  0
  161.0960  207.1920  149.6960 O   0  0  0  0  0  0  0  0  0  0  0  0
  162.0980  207.4110  151.8900 C   0  0  0  0  0  2  0  0  0  0  0  0
  162.1100  207.8490  150.4210 C   0  0  2  0  0  3  0  0  0  0  0  0
  161.3850  205.1550  151.0150 C   0  0  2  0  0  3  0  0  0  0  0  0
  160.7160  205.0570  148.5280 C   0  0  2  0  0  3  0  0  0  0  0  0
  162.3310  206.2040  146.7950 C   0  0  0  0  0  1  0  0  0  0  0  0
  160.8360  203.5910  148.7510 C   0  0  0  0  0  0  0  0  0  0  0  0
  161.2060  200.8390  148.7200 C   0  0  0  0  0  3  0  0  0  0  0  0
  161.3400  202.9770  147.6370 C   0  0  0  0  0  0  0  0  0  0  0  0
  161.5410  201.5990  147.5880 C   0  0  0  0  0  3  0  0  0  0  0  0
  160.6780  201.4660  149.8650 C   0  0  0  0  0  3  0  0  0  0  0  0
  161.2030  205.2170  147.0470 C   0  0  1  0  0  3  0  0  0  0  0  0
  161.6030  203.8870  146.5900 N   0  0  0  0  0  2  0  0  0  0  0  0
  160.4850  202.8560  149.8860 C   0  0  0  0  0  3  0  0  0  0  0  0
  161.9580  209.3600  150.2970 C   0  0  0  0  0  2  0  0  0  0  0  0
  162.1380  210.0600  151.6400 C   0  0  0  0  0  2  0  0  0  0  0  0
  160.1100  210.5340  153.0590 C   0  0  0  0  0  0  0  0  0  0  0  0
  158.9820  211.3020  153.3240 O   0  0  0  0  0  0  0  0  0  0  0  0
  160.3730  209.5490  153.8000 O   0  0  0  0  0  1  0  0  0  0  0  0
  160.9620  210.8590  151.9520 N   0  0  0  0  0  0  0  0  0  0  0  0
  160.6030  211.9390  151.0480 C   0  0  0  0  0  1  0  0  0  0  0  0
  1  5  1  1  0  0  0
  1  8  1  0  0  0  0
  3  4  1  1  0  0  0
  5  7  1  0  0  0  0
  6  3  1  0  0  0  0
  7 19  1  1  0  0  0
  7  6  1  0  0  0  0
  8  2  1  1  0  0  0
  8  3  1  0  0  0  0
  9 11  1  1  0  0  0
  9  1  1  0  0  0  0
 11 18  1  0  0  0  0
 12 15  1  0  0  0  0
 13 11  2  0  0  0  0
 14 13  1  0  0  0  0
 14 12  2  0  0  0  0
 15 18  2  0  0  0  0
 16 10  1  1  0  0  0
 16  9  1  0  0  0  0
 17 16  1  0  0  0  0
 17 13  1  0  0  0  0
 19 20  1  0  0  0  0
 20 24  1  0  0  0  0
 21 22  2  0  0  0  0
 21 23  1  0  0  0  0
 24 21  1  0  0  0  0
 25 24  1  0  0  0  0
M  END
>  <MODEL>
6

>  <REMARK>
 VINA RESULT:      -6.8      2.528      7.113
  Name = 
  4 active torsions:
  status: ('A' for Active; 'I' for Inactive)
    1  A    between atoms: C_1  and  C_3
    2  A    between atoms: C_6  and  C_15
    3  A    between atoms: C_6  and  C_23
    4  A    between atoms: C_15  and  N_21
                            x       y       z     vdW  Elec       q    Type
                         _______ _______ _______ _____ _____    ______ ____

>  <TORSDO>
F 4

$$$$
=
 OpenBabel11052422093D

 25 27  0  0  1  0  0  0  0  0999 V2000
  161.3000  206.8510  151.9560 C   0  0  1  0  0  3  0  0  0  0  0  0
  162.6990  208.7530  151.4320 O   0  0  0  0  0  1  0  0  0  0  0  0
  160.4720  209.1770  152.2360 C   0  0  2  0  0  3  0  0  0  0  0  0
  160.6470  210.5180  151.8940 O   0  0  0  0  0  1  0  0  0  0  0  0
  161.6780  206.7900  153.3120 O   0  0  0  0  0  0  0  0  0  0  0  0
  160.7250  208.9770  153.7290 C   0  0  0  0  0  2  0  0  0  0  0  0
  160.6900  207.4770  154.0440 C   0  0  2  0  0  3  0  0  0  0  0  0
  161.3850  208.2790  151.3960 C   0  0  2  0  0  3  0  0  0  0  0  0
  162.0010  205.7950  151.0820 C   0  0  2  0  0  3  0  0  0  0  0  0
  160.7010  203.9530  152.4380 C   0  0  0  0  0  1  0  0  0  0  0  0
  161.6590  206.0000  149.6490 C   0  0  0  0  0  0  0  0  0  0  0  0
  160.9080  205.9240  146.9770 C   0  0  0  0  0  3  0  0  0  0  0  0
  161.1600  204.8480  149.1080 C   0  0  0  0  0  0  0  0  0  0  0  0
  160.7700  204.7750  147.7710 C   0  0  0  0  0  3  0  0  0  0  0  0
  161.4310  207.1090  147.5270 C   0  0  0  0  0  3  0  0  0  0  0  0
  161.6560  204.2830  151.3020 C   0  0  1  0  0  3  0  0  0  0  0  0
  161.1080  203.7890  150.0400 N   0  0  0  0  0  2  0  0  0  0  0  0
  161.8160  207.1540  148.8770 C   0  0  0  0  0  3  0  0  0  0  0  0
  160.8630  207.2270  155.5370 C   0  0  0  0  0  2  0  0  0  0  0  0
  159.9250  208.0930  156.3700 C   0  0  0  0  0  2  0  0  0  0  0  0
  160.0070  210.5720  156.8130 C   0  0  0  0  0  0  0  0  0  0  0  0
  160.7040  211.6920  157.2540 O   0  0  0  0  0  1  0  0  0  0  0  0
  158.8310  210.7080  156.3820 O   0  0  0  0  0  0  0  0  0  0  0  0
  160.6240  209.2780  156.8450 N   0  0  0  0  0  0  0  0  0  0  0  0
  162.0120  209.1420  157.2550 C   0  0  0  0  0  1  0  0  0  0  0  0
  1  5  1  1  0  0  0
  3  4  1  6  0  0  0
  3  6  1  0  0  0  0
  5  7  1  0  0  0  0
  6  7  1  0  0  0  0
  7 19  1  1  0  0  0
  8  2  1  1  0  0  0
  8  1  1  0  0  0  0
  8  3  1  0  0  0  0
  9 11  1  6  0  0  0
  9 16  1  0  0  0  0
  9  1  1  0  0  0  0
 12 15  2  0  0  0  0
 12 14  1  0  0  0  0
 13 11  1  0  0  0  0
 13 17  1  0  0  0  0
 14 13  2  0  0  0  0
 15 18  1  0  0  0  0
 16 10  1  1  0  0  0
 17 16  1  0  0  0  0
 18 11  2  0  0  0  0
 19 20  1  0  0  0  0
 20 24  1  0  0  0  0
 21 24  1  0  0  0  0
 21 22  1  0  0  0  0
 23 21  2  0  0  0  0
 24 25  1  0  0  0  0
M  END
>  <MODEL>
7

>  <REMARK>
 VINA RESULT:      -6.7      3.437      8.311
  Name = 
  4 active torsions:
  status: ('A' for Active; 'I' for Inactive)
    1  A    between atoms: C_1  and  C_3
    2  A    between atoms: C_6  and  C_15
    3  A    between atoms: C_6  and  C_23
    4  A    between atoms: C_15  and  N_21
                            x       y       z     vdW  Elec       q    Type
                         _______ _______ _______ _____ _____    ______ ____

>  <TORSDO>
F 4

$$$$
=
 OpenBabel11052422093D

 25 27  0  0  1  0  0  0  0  0999 V2000
  161.2510  206.0720  150.0320 C   0  0  1  0  0  3  0  0  0  0  0  0
  159.6070  204.3540  150.4770 O   0  0  0  0  0  1  0  0  0  0  0  0
  161.6920  204.2590  151.6730 C   0  0  2  0  0  3  0  0  0  0  0  0
  161.3320  202.9870  152.1190 O   0  0  0  0  0  1  0  0  0  0  0  0
  160.8080  206.9330  151.0560 O   0  0  0  0  0  0  0  0  0  0  0  0
  161.3870  205.3000  152.7480 C   0  0  0  0  0  2  0  0  0  0  0  0
  161.6350  206.6990  152.1730 C   0  0  2  0  0  3  0  0  0  0  0  0
  160.9790  204.5960  150.3600 C   0  0  2  0  0  3  0  0  0  0  0  0
  160.7720  206.4980  148.6320 C   0  0  2  0  0  3  0  0  0  0  0  0
  162.0150  208.7860  149.0130 C   0  0  0  0  0  1  0  0  0  0  0  0
  161.2980  205.5650  147.5990 C   0  0  0  0  0  0  0  0  0  0  0  0
  162.4270  204.2140  145.4530 C   0  0  0  0  0  3  0  0  0  0  0  0
  161.9640  206.2560  146.6260 C   0  0  0  0  0  0  0  0  0  0  0  0
  162.5460  205.6100  145.5360 C   0  0  0  0  0  3  0  0  0  0  0  0
  161.7340  203.5000  146.4480 C   0  0  0  0  0  3  0  0  0  0  0  0
  161.2080  207.8980  148.0800 C   0  0  1  0  0  3  0  0  0  0  0  0
  161.9700  207.6490  146.8580 N   0  0  0  0  0  2  0  0  0  0  0  0
  161.1570  204.1770  147.5350 C   0  0  0  0  0  3  0  0  0  0  0  0
  161.4160  207.7730  153.2310 C   0  0  0  0  0  2  0  0  0  0  0  0
  160.5560  208.9180  152.7080 C   0  0  0  0  0  2  0  0  0  0  0  0
  159.7030  211.1500  153.5090 C   0  0  0  0  0  0  0  0  0  0  0  0
  159.4520  212.0370  154.5500 O   0  0  0  0  0  1  0  0  0  0  0  0
  159.4350  211.4940  152.3270 O   0  0  0  0  0  0  0  0  0  0  0  0
  160.2640  209.8580  153.7800 N   0  0  0  0  0  0  0  0  0  0  0  0
  160.6560  209.5030  155.1340 C   0  0  0  0  0  1  0  0  0  0  0  0
  1  8  1  0  0  0  0
  1  5  1  1  0  0  0
  3  4  1  1  0  0  0
  3  6  1  0  0  0  0
  5  7  1  0  0  0  0
  7  6  1  0  0  0  0
  7 19  1  1  0  0  0
  8  2  1  1  0  0  0
  8  3  1  0  0  0  0
  9 11  1  6  0  0  0
  9  1  1  0  0  0  0
 12 14  2  0  0  0  0
 12 15  1  0  0  0  0
 13 17  1  0  0  0  0
 13 11  2  0  0  0  0
 14 13  1  0  0  0  0
 15 18  2  0  0  0  0
 16  9  1  0  0  0  0
 16 10  1  1  0  0  0
 17 16  1  0  0  0  0
 18 11  1  0  0  0  0
 20 19  1  0  0  0  0
 20 24  1  0  0  0  0
 21 24  1  0  0  0  0
 21 22  1  0  0  0  0
 23 21  2  0  0  0  0
 24 25  1  0  0  0  0
M  END
>  <MODEL>
8

>  <REMARK>
 VINA RESULT:      -6.4      2.591      7.348
  Name = 
  4 active torsions:
  status: ('A' for Active; 'I' for Inactive)
    1  A    between atoms: C_1  and  C_3
    2  A    between atoms: C_6  and  C_15
    3  A    between atoms: C_6  and  C_23
    4  A    between atoms: C_15  and  N_21
                            x       y       z     vdW  Elec       q    Type
                         _______ _______ _______ _____ _____    ______ ____

>  <TORSDO>
F 4

$$$$
=
 OpenBabel11052422093D

 25 27  0  0  1  0  0  0  0  0999 V2000
  160.1510  209.4660  154.5110 C   0  0  1  0  0  3  0  0  0  0  0  0
  161.2560  209.3200  156.6580 O   0  0  0  0  0  1  0  0  0  0  0  0
  159.8980  207.4620  155.9580 C   0  0  2  0  0  3  0  0  0  0  0  0
  160.0190  206.9400  157.2470 O   0  0  0  0  0  1  0  0  0  0  0  0
  161.1970  208.8530  153.7930 O   0  0  0  0  0  0  0  0  0  0  0  0
  160.8970  206.7870  155.0210 C   0  0  0  0  0  2  0  0  0  0  0  0
  160.8590  207.4910  153.6610 C   0  0  2  0  0  3  0  0  0  0  0  0
  160.0890  208.9810  155.9680 C   0  0  2  0  0  3  0  0  0  0  0  0
  160.1290  210.9980  154.3620 C   0  0  2  0  0  3  0  0  0  0  0  0
  160.8560  210.6640  151.8550 C   0  0  0  0  0  1  0  0  0  0  0  0
  158.7680  211.5260  154.6460 C   0  0  0  0  0  0  0  0  0  0  0  0
  156.2710  212.7350  154.7610 C   0  0  0  0  0  3  0  0  0  0  0  0
  158.3260  212.2930  153.6030 C   0  0  0  0  0  0  0  0  0  0  0  0
  157.0770  212.9120  153.6260 C   0  0  0  0  0  3  0  0  0  0  0  0
  156.7260  211.9560  155.8410 C   0  0  0  0  0  3  0  0  0  0  0  0
  160.4540  211.6250  152.9630 C   0  0  1  0  0  3  0  0  0  0  0  0
  159.2690  212.3780  152.5550 N   0  0  0  0  0  2  0  0  0  0  0  0
  157.9890  211.3440  155.7910 C   0  0  0  0  0  3  0  0  0  0  0  0
  161.7860  206.8080  152.6630 C   0  0  0  0  0  2  0  0  0  0  0  0
  161.1890  206.7780  151.2610 C   0  0  0  0  0  2  0  0  0  0  0  0
  160.8320  205.1430  149.3760 C   0  0  0  0  0  0  0  0  0  0  0  0
  160.8590  203.8390  148.8970 O   0  0  0  0  0  1  0  0  0  0  0  0
  160.4550  206.0730  148.6140 O   0  0  0  0  0  0  0  0  0  0  0  0
  161.2270  205.4250  150.7260 N   0  0  0  0  0  0  0  0  0  0  0  0
  161.5720  204.3380  151.6270 C   0  0  0  0  0  1  0  0  0  0  0  0
  1  5  1  1  0  0  0
  1  8  1  0  0  0  0
  3  8  1  0  0  0  0
  3  4  1  1  0  0  0
  6  3  1  0  0  0  0
  7 19  1  6  0  0  0
  7  5  1  0  0  0  0
  7  6  1  0  0  0  0
  8  2  1  1  0  0  0
  9  1  1  0  0  0  0
  9 11  1  6  0  0  0
 11 18  1  0  0  0  0
 12 15  1  0  0  0  0
 13 14  1  0  0  0  0
 13 11  2  0  0  0  0
 14 12  2  0  0  0  0
 16 10  1  6  0  0  0
 16  9  1  0  0  0  0
 17 16  1  0  0  0  0
 17 13  1  0  0  0  0
 18 15  2  0  0  0  0
 20 19  1  0  0  0  0
 21 24  1  0  0  0  0
 22 21  1  0  0  0  0
 23 21  2  0  0  0  0
 24 20  1  0  0  0  0
 24 25  1  0  0  0  0
M  END
>  <MODEL>
9

>  <REMARK>
 VINA RESULT:      -6.4      3.397      5.422
  Name = 
  4 active torsions:
  status: ('A' for Active; 'I' for Inactive)
    1  A    between atoms: C_1  and  C_3
    2  A    between atoms: C_6  and  C_15
    3  A    between atoms: C_6  and  C_23
    4  A    between atoms: C_15  and  N_21
                            x       y       z     vdW  Elec       q    Type
                         _______ _______ _______ _____ _____    ______ ____

>  <TORSDO>
F 4

$$$$
