=
 OpenBabel11062407573D

 34 38  0  0  1  0  0  0  0  0999 V2000
  160.9080  208.3170  155.7380 C   0  0  1  0  0  3  0  0  0  0  0  0
  161.9570  210.4880  154.9240 C   0  0  0  0  0  2  0  0  0  0  0  0
  161.1760  208.7840  153.2170 C   0  0  0  0  0  0  0  0  0  0  0  0
  161.5760  209.0430  150.8660 N   0  0  0  0  0  0  0  0  0  0  0  0
  159.7840  210.2540  157.0180 C   0  0  0  0  0  2  0  0  0  0  0  0
  161.0260  211.1230  157.2330 C   0  0  0  0  0  2  0  0  0  0  0  0
  161.4020  210.8650  152.2160 O   0  0  0  0  0  0  0  0  0  0  0  0
  160.9400  209.3700  154.6030 C   0  0  1  0  0  3  0  0  0  0  0  0
  160.0810  208.7500  156.9610 C   0  0  0  0  0  2  0  0  0  0  0  0
  161.0480  207.3960  153.0120 C   0  0  0  0  0  0  0  0  0  0  0  0
  160.4780  206.9520  155.3060 C   0  0  0  0  0  3  0  0  0  0  0  0
  162.2490  210.7010  156.4140 C   0  0  0  0  0  2  0  0  0  0  0  0
  161.5100  207.7240  150.7000 N   0  0  0  0  0  0  0  0  0  0  0  0
  161.2520  206.8650  151.7210 C   0  0  0  0  0  0  0  0  0  0  0  0
  161.3930  209.6080  152.0950 C   0  0  0  0  0  0  0  0  0  0  0  0
  160.5930  206.5550  154.0790 N   0  0  0  0  0  0  0  0  0  0  0  0
  160.9360  203.5680  149.8430 C   0  0  0  0  0  0  0  0  0  0  0  0
  160.9780  202.6550  150.8980 C   0  0  0  0  0  3  0  0  0  0  0  0
  161.1770  205.4130  151.4150 C   0  0  0  0  0  0  0  0  0  0  0  0
  161.1110  203.1120  152.2120 C   0  0  0  0  0  3  0  0  0  0  0  0
  161.0300  204.9390  150.1010 C   0  0  0  0  0  3  0  0  0  0  0  0
  161.2060  204.4830  152.4670 C   0  0  0  0  0  3  0  0  0  0  0  0
  160.8000  203.1160  148.5380 O   0  0  0  0  0  1  0  0  0  0  0  0
  161.8110  209.8750  149.6930 C   0  0  0  0  0  2  0  0  0  0  0  0
  162.5480  209.0780  148.6350 C   0  0  0  0  0  2  0  0  0  0  0  0
  161.6570  207.9610  148.1280 C   0  0  0  0  0  2  0  0  0  0  0  0
  162.4890  206.7340  147.7820 C   0  0  0  0  0  2  0  0  0  0  0  0
  163.7630  204.7030  146.3860 O   0  0  0  0  0  0  0  0  0  0  0  0
  161.9170  206.0250  146.6400 N   0  0  0  0  0  0  0  0  0  0  0  0
  162.6060  205.0290  146.0050 C   0  0  0  0  0  0  0  0  0  0  0  0
  160.8020  204.7030  144.5110 C   0  0  0  0  0  3  0  0  0  0  0  0
  160.0820  205.7150  145.1410 C   0  0  0  0  0  3  0  0  0  0  0  0
  160.6700  206.3720  146.2200 C   0  0  0  0  0  3  0  0  0  0  0  0
  162.0440  204.3790  144.9510 N   0  0  0  0  0  0  0  0  0  0  0  0
  1 11  1  6  0  0  0
  1  9  1  0  0  0  0
  2 12  1  0  0  0  0
  3  8  1  0  0  0  0
  4 15  1  0  0  0  0
  5  6  1  0  0  0  0
  8  2  1  1  0  0  0
  8  1  1  0  0  0  0
  9  5  1  0  0  0  0
 10  3  2  0  0  0  0
 10 16  1  0  0  0  0
 12  6  1  0  0  0  0
 13  4  1  0  0  0  0
 13 14  2  0  0  0  0
 14 10  1  0  0  0  0
 15  7  2  0  0  0  0
 15  3  1  0  0  0  0
 16 11  2  0  0  0  0
 17 21  2  0  0  0  0
 17 18  1  0  0  0  0
 18 20  2  0  0  0  0
 19 14  1  0  0  0  0
 19 22  2  0  0  0  0
 20 22  1  0  0  0  0
 21 19  1  0  0  0  0
 23 17  1  0  0  0  0
 24  4  1  0  0  0  0
 25 24  1  0  0  0  0
 26 25  1  0  0  0  0
 27 26  1  0  0  0  0
 29 27  1  0  0  0  0
 30 28  2  0  0  0  0
 30 29  1  0  0  0  0
 31 34  2  0  0  0  0
 31 32  1  0  0  0  0
 32 33  2  0  0  0  0
 33 29  1  0  0  0  0
 34 30  1  0  0  0  0
M  END
>  <MODEL>
1

>  <REMARK>
 VINA RESULT:      -9.8      0.000      0.000
  Name = 
  6 active torsions:
  status: ('A' for Active; 'I' for Inactive)
    1  A    between atoms: C_3  and  N_13
    2  A    between atoms: C_3  and  C_17
    3  A    between atoms: N_5  and  C_18
    4  A    between atoms: C_12  and  C_28
    5  A    between atoms: C_17  and  C_29
    6  A    between atoms: C_18  and  C_29
                            x       y       z     vdW  Elec       q    Type
                         _______ _______ _______ _____ _____    ______ ____

>  <TORSDO>
F 6

$$$$
=
 OpenBabel11062407573D

 34 38  0  0  1  0  0  0  0  0999 V2000
  160.7620  205.0900  152.1360 C   0  0  1  0  0  3  0  0  0  0  0  0
  160.8310  205.1370  149.5930 C   0  0  0  0  0  2  0  0  0  0  0  0
  161.4860  207.2210  150.8800 C   0  0  0  0  0  0  0  0  0  0  0  0
  161.9690  209.3050  149.7940 N   0  0  0  0  0  0  0  0  0  0  0  0
  162.0080  202.9730  151.3520 C   0  0  0  0  0  2  0  0  0  0  0  0
  161.1360  202.6440  150.1360 C   0  0  0  0  0  2  0  0  0  0  0  0
  162.3130  207.3320  148.7150 O   0  0  0  0  0  0  0  0  0  0  0  0
  161.4540  205.6980  150.8920 C   0  0  1  0  0  3  0  0  0  0  0  0
  161.2520  203.6740  152.4860 C   0  0  0  0  0  2  0  0  0  0  0  0
  161.1920  207.9370  152.0570 C   0  0  0  0  0  0  0  0  0  0  0  0
  160.8150  205.9500  153.3580 C   0  0  0  0  0  3  0  0  0  0  0  0
  160.1720  203.7590  149.7240 C   0  0  0  0  0  2  0  0  0  0  0  0
  161.6320  209.9690  150.8970 N   0  0  0  0  0  0  0  0  0  0  0  0
  161.2430  209.3470  152.0410 C   0  0  0  0  0  0  0  0  0  0  0  0
  161.9330  207.9410  149.7540 C   0  0  0  0  0  0  0  0  0  0  0  0
  160.9690  207.2330  153.2850 N   0  0  0  0  0  0  0  0  0  0  0  0
  161.4300  211.0760  155.4280 C   0  0  0  0  0  0  0  0  0  0  0  0
  160.2060  211.7460  155.4530 C   0  0  0  0  0  3  0  0  0  0  0  0
  160.9110  210.1890  153.2200 C   0  0  0  0  0  0  0  0  0  0  0  0
  159.3280  211.6370  154.3720 C   0  0  0  0  0  3  0  0  0  0  0  0
  161.7780  210.2990  154.3190 C   0  0  0  0  0  3  0  0  0  0  0  0
  159.6780  210.8600  153.2640 C   0  0  0  0  0  3  0  0  0  0  0  0
  162.3020  211.1810  156.5020 O   0  0  0  0  0  1  0  0  0  0  0  0
  162.4180  210.0700  148.6370 C   0  0  0  0  0  2  0  0  0  0  0  0
  162.0060  211.5210  148.7890 C   0  0  0  0  0  2  0  0  0  0  0  0
  162.9140  212.3970  147.9470 C   0  0  0  0  0  2  0  0  0  0  0  0
  162.1090  213.4930  147.2630 C   0  0  0  0  0  2  0  0  0  0  0  0
  159.6780  212.5490  146.3170 O   0  0  0  0  0  0  0  0  0  0  0  0
  161.8380  213.1430  145.8700 N   0  0  0  0  0  0  0  0  0  0  0  0
  160.6090  212.6880  145.4790 C   0  0  0  0  0  0  0  0  0  0  0  0
  161.3610  212.5150  143.2430 C   0  0  0  0  0  3  0  0  0  0  0  0
  162.6210  212.9750  143.6180 C   0  0  0  0  0  3  0  0  0  0  0  0
  162.8380  213.2870  144.9590 C   0  0  0  0  0  3  0  0  0  0  0  0
  160.3830  212.3810  144.1740 N   0  0  0  0  0  0  0  0  0  0  0  0
  1  9  1  1  0  0  0
  1 11  1  0  0  0  0
  2 12  1  0  0  0  0
  3  8  1  0  0  0  0
  3 10  2  0  0  0  0
  4 13  1  0  0  0  0
  5  9  1  0  0  0  0
  6  5  1  0  0  0  0
  7 15  2  0  0  0  0
  8  2  1  6  0  0  0
  8  1  1  0  0  0  0
 10 16  1  0  0  0  0
 12  6  1  0  0  0  0
 13 14  2  0  0  0  0
 14 10  1  0  0  0  0
 14 19  1  0  0  0  0
 15  4  1  0  0  0  0
 15  3  1  0  0  0  0
 16 11  2  0  0  0  0
 17 18  1  0  0  0  0
 17 23  1  0  0  0  0
 19 22  2  0  0  0  0
 19 21  1  0  0  0  0
 20 18  2  0  0  0  0
 21 17  2  0  0  0  0
 22 20  1  0  0  0  0
 24 25  1  0  0  0  0
 24  4  1  0  0  0  0
 26 25  1  0  0  0  0
 27 26  1  0  0  0  0
 29 27  1  0  0  0  0
 30 29  1  0  0  0  0
 30 28  2  0  0  0  0
 31 32  1  0  0  0  0
 31 34  2  0  0  0  0
 32 33  2  0  0  0  0
 33 29  1  0  0  0  0
 34 30  1  0  0  0  0
M  END
>  <MODEL>
2

>  <REMARK>
 VINA RESULT:      -9.8      3.325      6.777
  Name = 
  6 active torsions:
  status: ('A' for Active; 'I' for Inactive)
    1  A    between atoms: C_3  and  N_13
    2  A    between atoms: C_3  and  C_17
    3  A    between atoms: N_5  and  C_18
    4  A    between atoms: C_12  and  C_28
    5  A    between atoms: C_17  and  C_29
    6  A    between atoms: C_18  and  C_29
                            x       y       z     vdW  Elec       q    Type
                         _______ _______ _______ _____ _____    ______ ____

>  <TORSDO>
F 6

$$$$
=
 OpenBabel11062407573D

 34 38  0  0  1  0  0  0  0  0999 V2000
  160.8580  205.1130  149.0570 C   0  0  1  0  0  3  0  0  0  0  0  0
  161.0210  206.7970  147.1560 C   0  0  0  0  0  2  0  0  0  0  0  0
  161.5780  207.5460  149.5130 C   0  0  0  0  0  0  0  0  0  0  0  0
  162.0520  209.8340  150.0570 N   0  0  0  0  0  0  0  0  0  0  0  0
  162.1820  204.0010  147.1430 C   0  0  0  0  0  2  0  0  0  0  0  0
  161.3650  204.5440  145.9670 C   0  0  0  0  0  2  0  0  0  0  0  0
  162.4820  209.0280  147.9740 O   0  0  0  0  0  0  0  0  0  0  0  0
  161.5810  206.3780  148.5340 C   0  0  1  0  0  3  0  0  0  0  0  0
  161.3680  203.8050  148.4280 C   0  0  0  0  0  2  0  0  0  0  0  0
  161.2240  207.3300  150.8590 C   0  0  0  0  0  0  0  0  0  0  0  0
  160.8460  204.9760  150.5460 C   0  0  0  0  0  3  0  0  0  0  0  0
  160.3900  205.6660  146.3340 C   0  0  0  0  0  2  0  0  0  0  0  0
  161.6580  209.6270  151.3120 N   0  0  0  0  0  0  0  0  0  0  0  0
  161.2410  208.4140  151.7620 C   0  0  0  0  0  0  0  0  0  0  0  0
  162.0490  208.8210  149.1420 C   0  0  0  0  0  0  0  0  0  0  0  0
  160.9720  206.0000  151.3280 N   0  0  0  0  0  0  0  0  0  0  0  0
  160.1360  209.2760  155.3020 C   0  0  0  0  0  0  0  0  0  0  0  0
  160.1700  208.0180  155.9060 C   0  0  0  0  0  3  0  0  0  0  0  0
  160.8470  208.2940  153.1900 C   0  0  0  0  0  0  0  0  0  0  0  0
  160.5490  206.8970  155.1620 C   0  0  0  0  0  3  0  0  0  0  0  0
  160.4770  209.4130  153.9530 C   0  0  0  0  0  3  0  0  0  0  0  0
  160.8880  207.0360  153.8140 C   0  0  0  0  0  3  0  0  0  0  0  0
  159.7640  210.3910  156.0400 O   0  0  0  0  0  1  0  0  0  0  0  0
  162.5250  211.1630  149.6920 C   0  0  0  0  0  2  0  0  0  0  0  0
  161.3710  211.9960  149.1700 C   0  0  0  0  0  2  0  0  0  0  0  0
  161.8680  212.9310  148.0850 C   0  0  0  0  0  2  0  0  0  0  0  0
  160.7840  213.1580  147.0410 C   0  0  0  0  0  2  0  0  0  0  0  0
  159.3420  212.2090  144.8700 O   0  0  0  0  0  0  0  0  0  0  0  0
  161.3220  212.9980  145.6920 N   0  0  0  0  0  0  0  0  0  0  0  0
  160.5450  212.5280  144.6690 C   0  0  0  0  0  0  0  0  0  0  0  0
  162.3620  212.7310  143.1680 C   0  0  0  0  0  3  0  0  0  0  0  0
  163.1720  213.2110  144.1940 C   0  0  0  0  0  3  0  0  0  0  0  0
  162.6200  213.3370  145.4680 C   0  0  0  0  0  3  0  0  0  0  0  0
  161.0700  212.4000  143.4220 N   0  0  0  0  0  0  0  0  0  0  0  0
  1  9  1  6  0  0  0
  1 11  1  0  0  0  0
  3 10  2  0  0  0  0
  4 13  1  0  0  0  0
  5  9  1  0  0  0  0
  6 12  1  0  0  0  0
  6  5  1  0  0  0  0
  7 15  2  0  0  0  0
  8  2  1  6  0  0  0
  8  1  1  0  0  0  0
  8  3  1  0  0  0  0
 10 16  1  0  0  0  0
 10 14  1  0  0  0  0
 11 16  2  0  0  0  0
 12  2  1  0  0  0  0
 13 14  2  0  0  0  0
 14 19  1  0  0  0  0
 15  3  1  0  0  0  0
 15  4  1  0  0  0  0
 17 18  1  0  0  0  0
 17 23  1  0  0  0  0
 19 22  2  0  0  0  0
 19 21  1  0  0  0  0
 20 18  2  0  0  0  0
 21 17  2  0  0  0  0
 22 20  1  0  0  0  0
 24  4  1  0  0  0  0
 25 24  1  0  0  0  0
 26 25  1  0  0  0  0
 27 26  1  0  0  0  0
 29 27  1  0  0  0  0
 30 28  2  0  0  0  0
 30 29  1  0  0  0  0
 31 34  2  0  0  0  0
 31 32  1  0  0  0  0
 32 33  2  0  0  0  0
 33 29  1  0  0  0  0
 34 30  1  0  0  0  0
M  END
>  <MODEL>
3

>  <REMARK>
 VINA RESULT:      -9.7      3.422      6.960
  Name = 
  6 active torsions:
  status: ('A' for Active; 'I' for Inactive)
    1  A    between atoms: C_3  and  N_13
    2  A    between atoms: C_3  and  C_17
    3  A    between atoms: N_5  and  C_18
    4  A    between atoms: C_12  and  C_28
    5  A    between atoms: C_17  and  C_29
    6  A    between atoms: C_18  and  C_29
                            x       y       z     vdW  Elec       q    Type
                         _______ _______ _______ _____ _____    ______ ____

>  <TORSDO>
F 6

$$$$
=
 OpenBabel11062407573D

 34 38  0  0  1  0  0  0  0  0999 V2000
  161.0410  207.3230  154.3740 C   0  0  1  0  0  3  0  0  0  0  0  0
  161.8320  209.7250  154.6590 C   0  0  0  0  0  2  0  0  0  0  0  0
  161.2470  208.8900  152.3370 C   0  0  0  0  0  0  0  0  0  0  0  0
  161.6080  210.2110  150.3680 N   0  0  0  0  0  0  0  0  0  0  0  0
  159.7060  208.3570  156.3230 C   0  0  0  0  0  2  0  0  0  0  0  0
  160.8400  209.1630  156.9620 C   0  0  0  0  0  2  0  0  0  0  0  0
  161.2300  211.2110  152.3750 O   0  0  0  0  0  0  0  0  0  0  0  0
  160.9480  208.7690  153.8270 C   0  0  1  0  0  3  0  0  0  0  0  0
  160.1730  207.0770  155.6200 C   0  0  0  0  0  2  0  0  0  0  0  0
  161.2780  207.7350  151.5320 C   0  0  0  0  0  0  0  0  0  0  0  0
  160.7690  206.2580  153.3610 C   0  0  0  0  0  3  0  0  0  0  0  0
  162.1010  209.2800  156.1010 C   0  0  0  0  0  2  0  0  0  0  0  0
  161.6930  209.1060  149.6300 N   0  0  0  0  0  0  0  0  0  0  0  0
  161.5380  207.8600  150.1520 C   0  0  0  0  0  0  0  0  0  0  0  0
  161.3640  210.1460  151.7090 C   0  0  0  0  0  0  0  0  0  0  0  0
  160.9250  206.4640  152.0920 N   0  0  0  0  0  0  0  0  0  0  0  0
  162.1340  205.7300  147.0530 C   0  0  0  0  0  0  0  0  0  0  0  0
  161.7240  204.4760  147.5080 C   0  0  0  0  0  3  0  0  0  0  0  0
  161.6300  206.6980  149.2300 C   0  0  0  0  0  0  0  0  0  0  0  0
  161.2590  204.3270  148.8170 C   0  0  0  0  0  3  0  0  0  0  0  0
  162.0830  206.8340  147.9080 C   0  0  0  0  0  3  0  0  0  0  0  0
  161.2100  205.4320  149.6700 C   0  0  0  0  0  3  0  0  0  0  0  0
  162.5930  205.8800  145.7520 O   0  0  0  0  0  1  0  0  0  0  0  0
  161.7430  211.4990  149.6980 C   0  0  0  0  0  2  0  0  0  0  0  0
  162.3440  211.3030  148.3200 C   0  0  0  0  0  2  0  0  0  0  0  0
  162.9540  212.6060  147.8420 C   0  0  0  0  0  2  0  0  0  0  0  0
  161.8930  213.4820  147.1930 C   0  0  0  0  0  2  0  0  0  0  0  0
  159.5390  212.4890  146.1130 O   0  0  0  0  0  0  0  0  0  0  0  0
  161.7100  213.1220  145.7890 N   0  0  0  0  0  0  0  0  0  0  0  0
  160.5140  212.6420  145.3290 C   0  0  0  0  0  0  0  0  0  0  0  0
  161.3980  212.4740  143.1420 C   0  0  0  0  0  3  0  0  0  0  0  0
  162.6250  212.9590  143.5870 C   0  0  0  0  0  3  0  0  0  0  0  0
  162.7580  213.2810  144.9370 C   0  0  0  0  0  3  0  0  0  0  0  0
  160.3700  212.3250  144.0150 N   0  0  0  0  0  0  0  0  0  0  0  0
  1 11  1  6  0  0  0
  1  9  1  0  0  0  0
  2 12  1  0  0  0  0
  3  8  1  0  0  0  0
  4 15  1  0  0  0  0
  5  6  1  0  0  0  0
  8  1  1  0  0  0  0
  8  2  1  1  0  0  0
  9  5  1  0  0  0  0
 10 16  1  0  0  0  0
 10  3  2  0  0  0  0
 12  6  1  0  0  0  0
 13 14  2  0  0  0  0
 13  4  1  0  0  0  0
 14 10  1  0  0  0  0
 15  3  1  0  0  0  0
 15  7  2  0  0  0  0
 16 11  2  0  0  0  0
 17 18  2  0  0  0  0
 17 21  1  0  0  0  0
 18 20  1  0  0  0  0
 19 22  1  0  0  0  0
 19 14  1  0  0  0  0
 20 22  2  0  0  0  0
 21 19  2  0  0  0  0
 23 17  1  0  0  0  0
 24  4  1  0  0  0  0
 25 24  1  0  0  0  0
 26 25  1  0  0  0  0
 27 26  1  0  0  0  0
 29 27  1  0  0  0  0
 30 29  1  0  0  0  0
 30 28  2  0  0  0  0
 31 32  1  0  0  0  0
 31 34  2  0  0  0  0
 32 33  2  0  0  0  0
 33 29  1  0  0  0  0
 34 30  1  0  0  0  0
M  END
>  <MODEL>
4

>  <REMARK>
 VINA RESULT:      -9.7      3.206      4.338
  Name = 
  6 active torsions:
  status: ('A' for Active; 'I' for Inactive)
    1  A    between atoms: C_3  and  N_13
    2  A    between atoms: C_3  and  C_17
    3  A    between atoms: N_5  and  C_18
    4  A    between atoms: C_12  and  C_28
    5  A    between atoms: C_17  and  C_29
    6  A    between atoms: C_18  and  C_29
                            x       y       z     vdW  Elec       q    Type
                         _______ _______ _______ _____ _____    ______ ____

>  <TORSDO>
F 6

$$$$
=
 OpenBabel11062407573D

 34 38  0  0  1  0  0  0  0  0999 V2000
  161.0160  207.2590  154.3570 C   0  0  1  0  0  3  0  0  0  0  0  0
  161.8270  209.6490  154.6850 C   0  0  0  0  0  2  0  0  0  0  0  0
  161.2390  208.8600  152.3480 C   0  0  0  0  0  0  0  0  0  0  0  0
  161.6170  210.2110  150.4020 N   0  0  0  0  0  0  0  0  0  0  0  0
  159.6850  208.2710  156.3210 C   0  0  0  0  0  2  0  0  0  0  0  0
  160.8260  209.0570  156.9760 C   0  0  0  0  0  2  0  0  0  0  0  0
  161.2430  211.1790  152.4260 O   0  0  0  0  0  0  0  0  0  0  0  0
  160.9370  208.7150  153.8350 C   0  0  1  0  0  3  0  0  0  0  0  0
  160.1430  207.0000  155.5970 C   0  0  0  0  0  2  0  0  0  0  0  0
  161.2630  207.7180  151.5240 C   0  0  0  0  0  0  0  0  0  0  0  0
  160.7370  206.2140  153.3260 C   0  0  0  0  0  3  0  0  0  0  0  0
  162.0890  209.1770  156.1200 C   0  0  0  0  0  2  0  0  0  0  0  0
  161.6940  209.1170  149.6470 N   0  0  0  0  0  0  0  0  0  0  0  0
  161.5260  207.8650  150.1460 C   0  0  0  0  0  0  0  0  0  0  0  0
  161.3690  210.1250  151.7420 C   0  0  0  0  0  0  0  0  0  0  0  0
  160.8980  206.4400  152.0610 N   0  0  0  0  0  0  0  0  0  0  0  0
  161.2540  204.3720  148.6540 C   0  0  0  0  0  0  0  0  0  0  0  0
  161.8530  204.5660  147.4090 C   0  0  0  0  0  3  0  0  0  0  0  0
  161.6100  206.7170  149.2040 C   0  0  0  0  0  0  0  0  0  0  0  0
  162.3380  205.8280  147.0570 C   0  0  0  0  0  3  0  0  0  0  0  0
  161.1390  205.4400  149.5480 C   0  0  0  0  0  3  0  0  0  0  0  0
  162.2200  206.8950  147.9520 C   0  0  0  0  0  3  0  0  0  0  0  0
  160.7750  203.1180  149.0070 O   0  0  0  0  0  1  0  0  0  0  0  0
  161.7640  211.5080  149.7550 C   0  0  0  0  0  2  0  0  0  0  0  0
  161.9760  211.3210  148.2660 C   0  0  0  0  0  2  0  0  0  0  0  0
  161.0720  212.2670  147.5010 C   0  0  0  0  0  2  0  0  0  0  0  0
  161.8830  213.0910  146.5110 C   0  0  0  0  0  2  0  0  0  0  0  0
  163.4900  213.3310  144.2620 O   0  0  0  0  0  0  0  0  0  0  0  0
  161.4390  212.8410  145.1420 N   0  0  0  0  0  0  0  0  0  0  0  0
  162.2940  212.9750  144.0830 C   0  0  0  0  0  0  0  0  0  0  0  0
  160.5750  212.3420  142.5870 C   0  0  0  0  0  3  0  0  0  0  0  0
  159.6860  212.2000  143.6490 C   0  0  0  0  0  3  0  0  0  0  0  0
  160.1490  212.4600  144.9380 C   0  0  0  0  0  3  0  0  0  0  0  0
  161.8560  212.7250  142.8200 N   0  0  0  0  0  0  0  0  0  0  0  0
  1 11  1  6  0  0  0
  1  9  1  0  0  0  0
  2 12  1  0  0  0  0
  3  8  1  0  0  0  0
  4 15  1  0  0  0  0
  5  6  1  0  0  0  0
  8  1  1  0  0  0  0
  8  2  1  1  0  0  0
  9  5  1  0  0  0  0
 10 16  1  0  0  0  0
 10  3  2  0  0  0  0
 12  6  1  0  0  0  0
 13 14  2  0  0  0  0
 13  4  1  0  0  0  0
 14 10  1  0  0  0  0
 15  3  1  0  0  0  0
 15  7  2  0  0  0  0
 16 11  2  0  0  0  0
 17 23  1  0  0  0  0
 17 21  1  0  0  0  0
 18 17  2  0  0  0  0
 19 21  2  0  0  0  0
 19 14  1  0  0  0  0
 20 18  1  0  0  0  0
 20 22  2  0  0  0  0
 22 19  1  0  0  0  0
 24  4  1  0  0  0  0
 25 24  1  0  0  0  0
 26 25  1  0  0  0  0
 27 26  1  0  0  0  0
 29 27  1  0  0  0  0
 30 28  2  0  0  0  0
 30 29  1  0  0  0  0
 31 34  2  0  0  0  0
 31 32  1  0  0  0  0
 32 33  2  0  0  0  0
 33 29  1  0  0  0  0
 34 30  1  0  0  0  0
M  END
>  <MODEL>
5

>  <REMARK>
 VINA RESULT:      -9.4      3.457      4.253
  Name = 
  6 active torsions:
  status: ('A' for Active; 'I' for Inactive)
    1  A    between atoms: C_3  and  N_13
    2  A    between atoms: C_3  and  C_17
    3  A    between atoms: N_5  and  C_18
    4  A    between atoms: C_12  and  C_28
    5  A    between atoms: C_17  and  C_29
    6  A    between atoms: C_18  and  C_29
                            x       y       z     vdW  Elec       q    Type
                         _______ _______ _______ _____ _____    ______ ____

>  <TORSDO>
F 6

$$$$
=
 OpenBabel11062407573D

 34 38  0  0  1  0  0  0  0  0999 V2000
  161.5340  209.1760  151.3110 C   0  0  1  0  0  3  0  0  0  0  0  0
  160.5480  207.9220  153.2930 C   0  0  0  0  0  2  0  0  0  0  0  0
  161.3630  206.6040  151.2870 C   0  0  0  0  0  0  0  0  0  0  0  0
  161.0510  204.2330  151.0930 N   0  0  0  0  0  0  0  0  0  0  0  0
  162.6410  210.1020  153.4480 C   0  0  0  0  0  2  0  0  0  0  0  0
  161.4060  210.1000  154.3530 C   0  0  0  0  0  2  0  0  0  0  0  0
  161.2050  205.2150  153.1390 O   0  0  0  0  0  0  0  0  0  0  0  0
  161.5590  207.8600  152.1270 C   0  0  1  0  0  3  0  0  0  0  0  0
  162.3240  210.3230  151.9640 C   0  0  0  0  0  2  0  0  0  0  0  0
  161.4770  206.6740  149.8850 C   0  0  0  0  0  0  0  0  0  0  0  0
  161.9580  209.0300  149.8850 C   0  0  0  0  0  3  0  0  0  0  0  0
  160.2070  209.3320  153.7910 C   0  0  0  0  0  2  0  0  0  0  0  0
  161.1030  204.3250  149.7660 N   0  0  0  0  0  0  0  0  0  0  0  0
  161.3110  205.5020  149.1180 C   0  0  0  0  0  0  0  0  0  0  0  0
  161.1990  205.3370  151.8820 C   0  0  0  0  0  0  0  0  0  0  0  0
  161.8810  207.8990  149.2600 N   0  0  0  0  0  0  0  0  0  0  0  0
  162.4550  204.8430  145.5460 C   0  0  0  0  0  0  0  0  0  0  0  0
  161.4800  205.5320  144.8220 C   0  0  0  0  0  3  0  0  0  0  0  0
  161.3740  205.4820  147.6320 C   0  0  0  0  0  0  0  0  0  0  0  0
  160.4560  206.2030  145.4950 C   0  0  0  0  0  3  0  0  0  0  0  0
  162.4040  204.8230  146.9430 C   0  0  0  0  0  3  0  0  0  0  0  0
  160.4070  206.1810  146.8910 C   0  0  0  0  0  3  0  0  0  0  0  0
  163.4750  204.1790  144.8790 O   0  0  0  0  0  1  0  0  0  0  0  0
  160.8700  202.9140  151.6860 C   0  0  0  0  0  2  0  0  0  0  0  0
  161.6360  201.8800  150.8860 C   0  0  0  0  0  2  0  0  0  0  0  0
  160.7480  201.3260  149.7890 C   0  0  0  0  0  2  0  0  0  0  0  0
  161.5810  200.5810  148.7560 C   0  0  0  0  0  2  0  0  0  0  0  0
  161.7610  198.7760  146.6570 O   0  0  0  0  0  0  0  0  0  0  0  0
  161.0700  200.8200  147.4080 N   0  0  0  0  0  0  0  0  0  0  0  0
  161.1920  199.8770  146.4250 C   0  0  0  0  0  0  0  0  0  0  0  0
  160.0810  201.2970  144.8950 C   0  0  0  0  0  3  0  0  0  0  0  0
  159.9460  202.2730  145.8780 C   0  0  0  0  0  3  0  0  0  0  0  0
  160.4580  202.0070  147.1480 C   0  0  0  0  0  3  0  0  0  0  0  0
  160.6980  200.1220  145.1830 N   0  0  0  0  0  0  0  0  0  0  0  0
  1 11  1  6  0  0  0
  1  9  1  0  0  0  0
  1  8  1  0  0  0  0
  2 12  1  0  0  0  0
  3 15  1  0  0  0  0
  3  8  1  0  0  0  0
  4 24  1  0  0  0  0
  4 15  1  0  0  0  0
  5  6  1  0  0  0  0
  8  2  1  1  0  0  0
  9  5  1  0  0  0  0
 10  3  2  0  0  0  0
 12  6  1  0  0  0  0
 13  4  1  0  0  0  0
 14 13  2  0  0  0  0
 14 10  1  0  0  0  0
 15  7  2  0  0  0  0
 16 11  2  0  0  0  0
 16 10  1  0  0  0  0
 17 21  1  0  0  0  0
 18 20  1  0  0  0  0
 18 17  2  0  0  0  0
 19 14  1  0  0  0  0
 20 22  2  0  0  0  0
 21 19  2  0  0  0  0
 22 19  1  0  0  0  0
 23 17  1  0  0  0  0
 25 24  1  0  0  0  0
 26 25  1  0  0  0  0
 27 26  1  0  0  0  0
 29 27  1  0  0  0  0
 30 28  2  0  0  0  0
 30 29  1  0  0  0  0
 31 34  2  0  0  0  0
 31 32  1  0  0  0  0
 32 33  2  0  0  0  0
 33 29  1  0  0  0  0
 34 30  1  0  0  0  0
M  END
>  <MODEL>
6

>  <REMARK>
 VINA RESULT:      -9.3      2.483      5.025
  Name = 
  6 active torsions:
  status: ('A' for Active; 'I' for Inactive)
    1  A    between atoms: C_3  and  N_13
    2  A    between atoms: C_3  and  C_17
    3  A    between atoms: N_5  and  C_18
    4  A    between atoms: C_12  and  C_28
    5  A    between atoms: C_17  and  C_29
    6  A    between atoms: C_18  and  C_29
                            x       y       z     vdW  Elec       q    Type
                         _______ _______ _______ _____ _____    ______ ____

>  <TORSDO>
F 6

$$$$
=
 OpenBabel11062407573D

 34 38  0  0  1  0  0  0  0  0999 V2000
  160.6550  209.7170  154.6060 C   0  0  1  0  0  3  0  0  0  0  0  0
  160.5570  207.2180  154.1330 C   0  0  0  0  0  2  0  0  0  0  0  0
  161.5170  208.7670  152.3700 C   0  0  0  0  0  0  0  0  0  0  0  0
  162.1440  207.9950  150.1860 N   0  0  0  0  0  0  0  0  0  0  0  0
  161.6120  208.4960  156.6660 C   0  0  0  0  0  2  0  0  0  0  0  0
  160.6290  207.3210  156.7000 C   0  0  0  0  0  2  0  0  0  0  0  0
  162.2010  206.5860  151.9700 O   0  0  0  0  0  0  0  0  0  0  0  0
  161.3220  208.5330  153.8630 C   0  0  1  0  0  3  0  0  0  0  0  0
  161.0140  209.7900  156.1000 C   0  0  0  0  0  2  0  0  0  0  0  0
  161.3820  210.0650  151.8400 C   0  0  0  0  0  0  0  0  0  0  0  0
  160.8830  211.0530  153.9750 C   0  0  0  0  0  3  0  0  0  0  0  0
  159.7640  207.1790  155.4450 C   0  0  0  0  0  2  0  0  0  0  0  0
  161.9560  209.2170  149.6900 N   0  0  0  0  0  0  0  0  0  0  0  0
  161.5810  210.2730  150.4590 C   0  0  0  0  0  0  0  0  0  0  0  0
  161.9590  207.7380  151.5140 C   0  0  0  0  0  0  0  0  0  0  0  0
  161.1690  211.1770  152.7180 N   0  0  0  0  0  0  0  0  0  0  0  0
  162.0010  213.2070  148.0690 C   0  0  0  0  0  0  0  0  0  0  0  0
  161.1330  214.1400  148.6370 C   0  0  0  0  0  3  0  0  0  0  0  0
  161.4230  211.5970  149.8020 C   0  0  0  0  0  0  0  0  0  0  0  0
  160.4130  213.8130  149.7890 C   0  0  0  0  0  3  0  0  0  0  0  0
  162.1490  211.9450  148.6510 C   0  0  0  0  0  3  0  0  0  0  0  0
  160.5610  212.5500  150.3690 C   0  0  0  0  0  3  0  0  0  0  0  0
  162.7190  213.5320  146.9270 O   0  0  0  0  0  1  0  0  0  0  0  0
  162.5920  206.9450  149.2810 C   0  0  0  0  0  2  0  0  0  0  0  0
  161.8010  207.0050  147.9900 C   0  0  0  0  0  2  0  0  0  0  0  0
  160.8440  205.8310  147.9250 C   0  0  0  0  0  2  0  0  0  0  0  0
  161.5710  204.5790  147.4570 C   0  0  0  0  0  2  0  0  0  0  0  0
  161.2060  201.9770  146.5670 O   0  0  0  0  0  0  0  0  0  0  0  0
  161.2520  203.4420  148.3190 N   0  0  0  0  0  0  0  0  0  0  0  0
  161.0920  202.1850  147.8050 C   0  0  0  0  0  0  0  0  0  0  0  0
  160.6740  201.3310  149.9700 C   0  0  0  0  0  3  0  0  0  0  0  0
  160.8310  202.6020  150.5160 C   0  0  0  0  0  3  0  0  0  0  0  0
  161.1250  203.6590  149.6560 C   0  0  0  0  0  3  0  0  0  0  0  0
  160.8060  201.1450  148.6320 N   0  0  0  0  0  0  0  0  0  0  0  0
  1 11  1  6  0  0  0
  1  9  1  0  0  0  0
  2 12  1  0  0  0  0
  3  8  1  0  0  0  0
  4 15  1  0  0  0  0
  5  6  1  0  0  0  0
  8  2  1  6  0  0  0
  8  1  1  0  0  0  0
  9  5  1  0  0  0  0
 10  3  2  0  0  0  0
 10 16  1  0  0  0  0
 12  6  1  0  0  0  0
 13  4  1  0  0  0  0
 13 14  2  0  0  0  0
 14 10  1  0  0  0  0
 15  7  2  0  0  0  0
 15  3  1  0  0  0  0
 16 11  2  0  0  0  0
 17 18  2  0  0  0  0
 17 21  1  0  0  0  0
 18 20  1  0  0  0  0
 19 22  1  0  0  0  0
 19 14  1  0  0  0  0
 20 22  2  0  0  0  0
 21 19  2  0  0  0  0
 23 17  1  0  0  0  0
 24  4  1  0  0  0  0
 25 24  1  0  0  0  0
 26 25  1  0  0  0  0
 27 26  1  0  0  0  0
 27 29  1  0  0  0  0
 28 30  2  0  0  0  0
 29 33  1  0  0  0  0
 30 29  1  0  0  0  0
 30 34  1  0  0  0  0
 31 32  1  0  0  0  0
 33 32  2  0  0  0  0
 34 31  2  0  0  0  0
M  END
>  <MODEL>
7

>  <REMARK>
 VINA RESULT:      -9.3      2.476      5.359
  Name = 
  6 active torsions:
  status: ('A' for Active; 'I' for Inactive)
    1  A    between atoms: C_3  and  N_13
    2  A    between atoms: C_3  and  C_17
    3  A    between atoms: N_5  and  C_18
    4  A    between atoms: C_12  and  C_28
    5  A    between atoms: C_17  and  C_29
    6  A    between atoms: C_18  and  C_29
                            x       y       z     vdW  Elec       q    Type
                         _______ _______ _______ _____ _____    ______ ____

>  <TORSDO>
F 6

$$$$
=
 OpenBabel11062407573D

 34 38  0  0  1  0  0  0  0  0999 V2000
  160.9760  213.2840  149.4140 C   0  0  1  0  0  3  0  0  0  0  0  0
  162.6960  211.8050  148.2580 C   0  0  0  0  0  2  0  0  0  0  0  0
  161.4150  210.8830  150.2430 C   0  0  0  0  0  0  0  0  0  0  0  0
  161.9080  208.7420  151.2080 N   0  0  0  0  0  0  0  0  0  0  0  0
  160.5410  213.4200  146.8750 C   0  0  0  0  0  2  0  0  0  0  0  0
  161.9990  213.4430  146.4040 C   0  0  0  0  0  2  0  0  0  0  0  0
  162.3300  209.1430  149.0090 O   0  0  0  0  0  0  0  0  0  0  0  0
  161.3690  211.8300  149.0510 C   0  0  1  0  0  3  0  0  0  0  0  0
  160.3240  214.0560  148.2540 C   0  0  0  0  0  2  0  0  0  0  0  0
  160.8380  211.2690  151.4680 C   0  0  0  0  0  0  0  0  0  0  0  0
  160.1240  213.4090  150.6350 C   0  0  0  0  0  3  0  0  0  0  0  0
  163.0230  213.0890  147.4860 C   0  0  0  0  0  2  0  0  0  0  0  0
  161.4100  209.1440  152.3760 N   0  0  0  0  0  0  0  0  0  0  0  0
  160.8700  210.3770  152.5600 C   0  0  0  0  0  0  0  0  0  0  0  0
  161.9070  209.5680  150.1210 C   0  0  0  0  0  0  0  0  0  0  0  0
  160.1160  212.5040  151.5600 N   0  0  0  0  0  0  0  0  0  0  0  0
  158.4520  211.0980  155.4120 C   0  0  0  0  0  0  0  0  0  0  0  0
  159.3400  211.4070  156.4430 C   0  0  0  0  0  3  0  0  0  0  0  0
  160.3220  210.7090  153.9020 C   0  0  0  0  0  0  0  0  0  0  0  0
  160.7170  211.3770  156.2100 C   0  0  0  0  0  3  0  0  0  0  0  0
  158.9400  210.7560  154.1480 C   0  0  0  0  0  3  0  0  0  0  0  0
  161.2040  211.0340  154.9460 C   0  0  0  0  0  3  0  0  0  0  0  0
  157.0830  211.1300  155.6400 O   0  0  0  0  0  1  0  0  0  0  0  0
  162.4200  207.3820  151.1080 C   0  0  0  0  0  2  0  0  0  0  0  0
  161.8750  206.5410  152.2450 C   0  0  0  0  0  2  0  0  0  0  0  0
  161.1830  205.3140  151.6830 C   0  0  0  0  0  2  0  0  0  0  0  0
  161.2120  205.3380  150.1620 C   0  0  0  0  0  2  0  0  0  0  0  0
  161.5440  204.6790  147.4880 O   0  0  0  0  0  0  0  0  0  0  0  0
  161.1080  203.9850  149.6200 N   0  0  0  0  0  0  0  0  0  0  0  0
  161.2900  203.7380  148.2870 C   0  0  0  0  0  0  0  0  0  0  0  0
  160.9240  201.4290  148.6430 C   0  0  0  0  0  3  0  0  0  0  0  0
  160.7330  201.6560  150.0030 C   0  0  0  0  0  3  0  0  0  0  0  0
  160.8310  202.9640  150.4750 C   0  0  0  0  0  3  0  0  0  0  0  0
  161.1980  202.4670  147.8130 N   0  0  0  0  0  0  0  0  0  0  0  0
  1  9  1  6  0  0  0
  1 11  1  0  0  0  0
  3 10  2  0  0  0  0
  4 13  1  0  0  0  0
  5  9  1  0  0  0  0
  6  5  1  0  0  0  0
  6 12  1  0  0  0  0
  7 15  2  0  0  0  0
  8  2  1  1  0  0  0
  8  1  1  0  0  0  0
  8  3  1  0  0  0  0
 10 16  1  0  0  0  0
 10 14  1  0  0  0  0
 11 16  2  0  0  0  0
 12  2  1  0  0  0  0
 13 14  2  0  0  0  0
 14 19  1  0  0  0  0
 15  3  1  0  0  0  0
 15  4  1  0  0  0  0
 17 23  1  0  0  0  0
 17 18  1  0  0  0  0
 19 21  1  0  0  0  0
 19 22  2  0  0  0  0
 20 18  2  0  0  0  0
 21 17  2  0  0  0  0
 22 20  1  0  0  0  0
 24  4  1  0  0  0  0
 24 25  1  0  0  0  0
 26 25  1  0  0  0  0
 27 26  1  0  0  0  0
 28 30  2  0  0  0  0
 29 27  1  0  0  0  0
 29 33  1  0  0  0  0
 30 29  1  0  0  0  0
 31 32  1  0  0  0  0
 32 33  2  0  0  0  0
 34 30  1  0  0  0  0
 34 31  2  0  0  0  0
M  END
>  <MODEL>
8

>  <REMARK>
 VINA RESULT:      -9.1      2.732      6.644
  Name = 
  6 active torsions:
  status: ('A' for Active; 'I' for Inactive)
    1  A    between atoms: C_3  and  N_13
    2  A    between atoms: C_3  and  C_17
    3  A    between atoms: N_5  and  C_18
    4  A    between atoms: C_12  and  C_28
    5  A    between atoms: C_17  and  C_29
    6  A    between atoms: C_18  and  C_29
                            x       y       z     vdW  Elec       q    Type
                         _______ _______ _______ _____ _____    ______ ____

>  <TORSDO>
F 6

$$$$
=
 OpenBabel11062407573D

 34 38  0  0  1  0  0  0  0  0999 V2000
  160.8940  205.0680  149.0410 C   0  0  1  0  0  3  0  0  0  0  0  0
  161.0000  206.7220  147.1090 C   0  0  0  0  0  2  0  0  0  0  0  0
  161.5400  207.5300  149.4510 C   0  0  0  0  0  0  0  0  0  0  0  0
  161.9450  209.8410  149.9520 N   0  0  0  0  0  0  0  0  0  0  0  0
  162.2460  203.9630  147.1430 C   0  0  0  0  0  2  0  0  0  0  0  0
  161.4090  204.4600  145.9610 C   0  0  0  0  0  2  0  0  0  0  0  0
  162.3950  209.0110  147.8830 O   0  0  0  0  0  0  0  0  0  0  0  0
  161.5760  206.3460  148.4930 C   0  0  1  0  0  3  0  0  0  0  0  0
  161.4420  203.7660  148.4340 C   0  0  0  0  0  2  0  0  0  0  0  0
  161.1960  207.3280  150.8020 C   0  0  0  0  0  0  0  0  0  0  0  0
  160.8890  204.9580  150.5320 C   0  0  0  0  0  3  0  0  0  0  0  0
  160.4020  205.5580  146.3100 C   0  0  0  0  0  2  0  0  0  0  0  0
  161.5610  209.6450  151.2120 N   0  0  0  0  0  0  0  0  0  0  0  0
  161.1830  208.4280  151.6850 C   0  0  0  0  0  0  0  0  0  0  0  0
  161.9710  208.8120  149.0550 C   0  0  0  0  0  0  0  0  0  0  0  0
  160.9860  205.9990  151.2960 N   0  0  0  0  0  0  0  0  0  0  0  0
  160.0970  209.3240  155.2230 C   0  0  0  0  0  0  0  0  0  0  0  0
  160.1340  208.0720  155.8380 C   0  0  0  0  0  3  0  0  0  0  0  0
  160.7960  208.3210  153.1160 C   0  0  0  0  0  0  0  0  0  0  0  0
  160.5080  206.9440  155.1030 C   0  0  0  0  0  3  0  0  0  0  0  0
  160.4310  209.4480  153.8710 C   0  0  0  0  0  3  0  0  0  0  0  0
  160.8400  207.0700  153.7520 C   0  0  0  0  0  3  0  0  0  0  0  0
  159.7300  210.4460  155.9520 O   0  0  0  0  0  1  0  0  0  0  0  0
  162.3760  211.1770  149.5620 C   0  0  0  0  0  2  0  0  0  0  0  0
  161.5910  211.6390  148.3500 C   0  0  0  0  0  2  0  0  0  0  0  0
  161.6400  213.1520  148.2590 C   0  0  0  0  0  2  0  0  0  0  0  0
  161.2280  213.7770  149.5840 C   0  0  0  0  0  2  0  0  0  0  0  0
  159.9070  212.8830  151.8540 O   0  0  0  0  0  0  0  0  0  0  0  0
  159.7760  213.7460  149.7430 N   0  0  0  0  0  0  0  0  0  0  0  0
  159.1970  213.2940  150.8970 C   0  0  0  0  0  0  0  0  0  0  0  0
  157.0460  213.7200  150.0100 C   0  0  0  0  0  3  0  0  0  0  0  0
  157.6120  214.1820  148.8260 C   0  0  0  0  0  3  0  0  0  0  0  0
  159.0020  214.1850  148.7140 C   0  0  0  0  0  3  0  0  0  0  0  0
  157.8430  213.2860  151.0200 N   0  0  0  0  0  0  0  0  0  0  0  0
  1  9  1  6  0  0  0
  1 11  1  0  0  0  0
  3 10  2  0  0  0  0
  4 13  1  0  0  0  0
  5  9  1  0  0  0  0
  6 12  1  0  0  0  0
  6  5  1  0  0  0  0
  7 15  2  0  0  0  0
  8  2  1  6  0  0  0
  8  1  1  0  0  0  0
  8  3  1  0  0  0  0
 10 16  1  0  0  0  0
 10 14  1  0  0  0  0
 11 16  2  0  0  0  0
 12  2  1  0  0  0  0
 13 14  2  0  0  0  0
 14 19  1  0  0  0  0
 15  3  1  0  0  0  0
 15  4  1  0  0  0  0
 17 18  1  0  0  0  0
 17 23  1  0  0  0  0
 19 22  2  0  0  0  0
 19 21  1  0  0  0  0
 20 18  2  0  0  0  0
 21 17  2  0  0  0  0
 22 20  1  0  0  0  0
 24  4  1  0  0  0  0
 25 24  1  0  0  0  0
 26 25  1  0  0  0  0
 26 27  1  0  0  0  0
 27 29  1  0  0  0  0
 29 30  1  0  0  0  0
 30 34  1  0  0  0  0
 30 28  2  0  0  0  0
 31 34  2  0  0  0  0
 32 31  1  0  0  0  0
 33 32  2  0  0  0  0
 33 29  1  0  0  0  0
M  END
>  <MODEL>
9

>  <REMARK>
 VINA RESULT:      -8.8      2.908      7.531
  Name = 
  6 active torsions:
  status: ('A' for Active; 'I' for Inactive)
    1  A    between atoms: C_3  and  N_13
    2  A    between atoms: C_3  and  C_17
    3  A    between atoms: N_5  and  C_18
    4  A    between atoms: C_12  and  C_28
    5  A    between atoms: C_17  and  C_29
    6  A    between atoms: C_18  and  C_29
                            x       y       z     vdW  Elec       q    Type
                         _______ _______ _______ _____ _____    ______ ____

>  <TORSDO>
F 6

$$$$
