=
 OpenBabel11052423023D

 28 32  0  0  1  0  0  0  0  0999 V2000
  161.8360  209.7660  151.0200 C   0  0  0  0  0  3  0  0  0  0  0  0
  161.9800  208.4250  156.7940 O   0  0  0  0  0  1  0  0  0  0  0  0
  161.1160  207.5740  151.7460 C   0  0  0  0  0  0  0  0  0  0  0  0
  160.9280  209.4520  153.3710 C   0  0  2  0  0  3  0  0  0  0  0  0
  161.9970  207.8630  149.5560 C   0  0  0  0  0  0  0  0  0  0  0  0
  161.2870  208.9440  152.0120 C   0  0  0  0  0  0  0  0  0  0  0  0
  160.8580  206.9570  154.5240 S   0  0  0  0  0  0  0  0  0  0  0  0
  161.4610  207.0760  150.5280 N   0  0  0  0  0  0  0  0  0  0  0  0
  160.8590  210.4380  156.0300 C   0  0  2  0  0  3  0  0  0  0  0  0
  161.1980  210.9320  153.6220 C   0  0  0  0  0  2  0  0  0  0  0  0
  160.4510  206.6630  152.7440 C   0  0  0  0  0  2  0  0  0  0  0  0
  161.8870  209.3240  155.7280 C   0  0  2  0  0  3  0  0  0  0  0  0
  162.3650  207.2710  148.2430 C   0  0  0  0  0  1  0  0  0  0  0  0
  162.1920  209.2250  149.7840 C   0  0  0  0  0  3  0  0  0  0  0  0
  161.6600  208.6000  154.3880 C   0  0  2  0  0  3  0  0  0  0  0  0
  160.5750  211.3640  154.8920 N   0  0  1  0  0  0  0  0  0  0  0  0
  159.1070  211.6230  154.7350 C   0  0  1  0  0  0  0  0  0  0  0  0
  158.6130  212.8360  155.5500 C   0  0  2  0  0  3  0  0  0  0  0  0
  157.7840  213.1210  153.4510 C   0  0  2  0  0  0  0  0  0  0  0  0
  159.1450  213.3350  152.8180 C   0  0  0  0  0  2  0  0  0  0  0  0
  158.7030  211.9460  153.2980 C   0  0  1  0  0  3  0  0  0  0  0  0
  156.5690  213.0960  152.5500 C   0  0  0  0  0  1  0  0  0  0  0  0
  158.2720  210.4110  155.1530 C   0  0  0  0  0  1  0  0  0  0  0  0
  157.6180  213.4990  154.8000 O   0  0  0  0  0  0  0  0  0  0  0  0
  159.7070  213.8470  155.8960 C   0  0  0  0  0  2  0  0  0  0  0  0
  159.4470  214.4530  157.2610 C   0  0  0  0  0  1  0  0  0  0  0  0
  162.6710  211.5030  157.1940 O   0  0  0  0  0  1  0  0  0  0  0  0
  161.3050  211.2200  157.2610 C   0  0  0  0  0  2  0  0  0  0  0  0
  1  6  1  0  0  0  0
  3  6  2  0  0  0  0
  3 11  1  0  0  0  0
  4 10  1  6  0  0  0
  4 15  1  0  0  0  0
  5 14  1  0  0  0  0
  5  8  2  0  0  0  0
  6  4  1  0  0  0  0
  8  3  1  0  0  0  0
  9 28  1  1  0  0  0
 11  7  1  0  0  0  0
 12  9  1  0  0  0  0
 12  2  1  1  0  0  0
 13  5  1  0  0  0  0
 14  1  2  0  0  0  0
 15  7  1  1  0  0  0
 15 12  1  0  0  0  0
 16 10  1  6  0  0  0
 16  9  1  0  0  0  0
 17 16  1  0  0  0  0
 17 23  1  1  0  0  0
 17 18  1  0  0  0  0
 18 25  1  6  0  0  0
 19 22  1  6  0  0  0
 19 24  1  0  0  0  0
 20 19  1  0  0  0  0
 21 20  1  6  0  0  0
 21 19  1  0  0  0  0
 21 17  1  0  0  0  0
 24 18  1  0  0  0  0
 25 26  1  0  0  0  0
 27 28  1  0  0  0  0
M  END
>  <MODEL>
1

>  <REMARK>
 VINA RESULT:      -4.7      0.000      0.000
  Name = 
  3 active torsions:
  status: ('A' for Active; 'I' for Inactive)
    1  A    between atoms: C_1  and  N_27
    2  A    between atoms: C_2  and  C_3
    3  A    between atoms: C_16  and  C_21
                            x       y       z     vdW  Elec       q    Type
                         _______ _______ _______ _____ _____    ______ ____

>  <TORSDO>
F 3

$$$$
=
 OpenBabel11052423023D

 28 32  0  0  1  0  0  0  0  0999 V2000
  160.7540  209.3480  151.8900 C   0  0  0  0  0  3  0  0  0  0  0  0
  163.0870  210.2820  157.2610 O   0  0  0  0  0  1  0  0  0  0  0  0
  161.0770  207.4740  153.3850 C   0  0  0  0  0  0  0  0  0  0  0  0
  160.7640  209.7250  154.4020 C   0  0  2  0  0  3  0  0  0  0  0  0
  161.1000  207.1260  151.0320 C   0  0  0  0  0  0  0  0  0  0  0  0
  160.8450  208.8470  153.1960 C   0  0  0  0  0  0  0  0  0  0  0  0
  161.8990  207.8770  156.0910 S   0  0  0  0  0  0  0  0  0  0  0  0
  161.1840  206.6540  152.3050 N   0  0  0  0  0  0  0  0  0  0  0  0
  161.1740  211.5760  156.5130 C   0  0  2  0  0  3  0  0  0  0  0  0
  160.5780  211.2150  154.1310 C   0  0  0  0  0  2  0  0  0  0  0  0
  161.0970  206.8700  154.7640 C   0  0  0  0  0  2  0  0  0  0  0  0
  162.3760  210.6850  156.1270 C   0  0  2  0  0  3  0  0  0  0  0  0
  161.2310  206.1920  149.8840 C   0  0  0  0  0  1  0  0  0  0  0  0
  160.8800  208.4850  150.8020 C   0  0  0  0  0  3  0  0  0  0  0  0
  162.0140  209.4890  155.2270 C   0  0  2  0  0  3  0  0  0  0  0  0
  160.2610  211.9330  155.3840 N   0  0  1  0  0  0  0  0  0  0  0  0
  158.8180  211.7870  155.7640 C   0  0  1  0  0  0  0  0  0  0  0  0
  158.0080  213.0870  155.5860 C   0  0  2  0  0  3  0  0  0  0  0  0
  156.7860  211.4530  154.5810 C   0  0  2  0  0  0  0  0  0  0  0  0
  157.7970  211.2170  153.4750 C   0  0  0  0  0  2  0  0  0  0  0  0
  158.0740  210.7600  154.9140 C   0  0  1  0  0  3  0  0  0  0  0  0
  155.5590  210.5680  154.6320 C   0  0  0  0  0  1  0  0  0  0  0  0
  158.6600  211.3360  157.2180 C   0  0  0  0  0  1  0  0  0  0  0  0
  156.7130  212.7450  155.1420 O   0  0  0  0  0  0  0  0  0  0  0  0
  158.6130  214.0720  154.5860 C   0  0  0  0  0  2  0  0  0  0  0  0
  157.5860  214.4530  153.5390 C   0  0  0  0  0  1  0  0  0  0  0  0
  160.7040  213.8320  157.1940 O   0  0  0  0  0  1  0  0  0  0  0  0
  161.6780  212.8320  157.2150 C   0  0  0  0  0  2  0  0  0  0  0  0
  1  6  1  0  0  0  0
  3 11  1  0  0  0  0
  4 10  1  6  0  0  0
  4 15  1  0  0  0  0
  5  8  2  0  0  0  0
  6  3  2  0  0  0  0
  6  4  1  0  0  0  0
  8  3  1  0  0  0  0
  9 28  1  6  0  0  0
 11  7  1  0  0  0  0
 12  9  1  0  0  0  0
 12  2  1  1  0  0  0
 13  5  1  0  0  0  0
 14  5  1  0  0  0  0
 14  1  2  0  0  0  0
 15  7  1  1  0  0  0
 15 12  1  0  0  0  0
 16 10  1  6  0  0  0
 16 17  1  0  0  0  0
 16  9  1  0  0  0  0
 17 23  1  1  0  0  0
 18 25  1  6  0  0  0
 18 17  1  0  0  0  0
 19 22  1  6  0  0  0
 19 21  1  0  0  0  0
 19 24  1  0  0  0  0
 20 19  1  0  0  0  0
 21 20  1  6  0  0  0
 21 17  1  0  0  0  0
 24 18  1  0  0  0  0
 26 25  1  0  0  0  0
 27 28  1  0  0  0  0
M  END
>  <MODEL>
2

>  <REMARK>
 VINA RESULT:      -2.9      1.516      2.003
  Name = 
  3 active torsions:
  status: ('A' for Active; 'I' for Inactive)
    1  A    between atoms: C_1  and  N_27
    2  A    between atoms: C_2  and  C_3
    3  A    between atoms: C_16  and  C_21
                            x       y       z     vdW  Elec       q    Type
                         _______ _______ _______ _____ _____    ______ ____

>  <TORSDO>
F 3

$$$$
=
 OpenBabel11052423023D

 28 32  0  0  1  0  0  0  0  0999 V2000
  161.1810  210.8170  150.7100 C   0  0  0  0  0  3  0  0  0  0  0  0
  156.3270  212.9130  153.3940 O   0  0  0  0  0  1  0  0  0  0  0  0
  160.6840  213.1810  150.5840 C   0  0  0  0  0  0  0  0  0  0  0  0
  159.8160  211.9180  152.5480 C   0  0  2  0  0  3  0  0  0  0  0  0
  161.9350  212.1430  148.8480 C   0  0  0  0  0  0  0  0  0  0  0  0
  160.5920  211.9580  151.2710 C   0  0  0  0  0  0  0  0  0  0  0  0
  158.5470  214.3160  152.1040 S   0  0  0  0  0  0  0  0  0  0  0  0
  161.3600  213.2420  149.4050 N   0  0  0  0  0  0  0  0  0  0  0  0
  157.9180  211.5520  154.6240 C   0  0  2  0  0  3  0  0  0  0  0  0
  159.6950  210.5500  153.2110 C   0  0  0  0  0  2  0  0  0  0  0  0
  160.1460  214.4530  151.1830 C   0  0  0  0  0  2  0  0  0  0  0  0
  157.3670  211.9910  153.2480 C   0  0  2  0  0  3  0  0  0  0  0  0
  162.6560  212.2590  147.5540 C   0  0  0  0  0  1  0  0  0  0  0  0
  161.8570  210.9080  149.4930 C   0  0  0  0  0  3  0  0  0  0  0  0
  158.4420  212.4940  152.2670 C   0  0  2  0  0  3  0  0  0  0  0  0
  159.1330  210.6830  154.5730 N   0  0  1  0  0  0  0  0  0  0  0  0
  160.1700  211.1130  155.5670 C   0  0  1  0  0  0  0  0  0  0  0  0
  160.2510  210.1880  156.7990 C   0  0  2  0  0  3  0  0  0  0  0  0
  162.3930  210.4530  156.0800 C   0  0  2  0  0  0  0  0  0  0  0  0
  162.1710  209.7040  154.7800 C   0  0  0  0  0  2  0  0  0  0  0  0
  161.5870  211.1070  154.9980 C   0  0  1  0  0  3  0  0  0  0  0  0
  163.7490  211.0780  156.3260 C   0  0  0  0  0  1  0  0  0  0  0  0
  159.9150  212.5360  156.0690 C   0  0  0  0  0  1  0  0  0  0  0  0
  161.6030  210.0910  157.1910 O   0  0  0  0  0  0  0  0  0  0  0  0
  159.7170  208.7760  156.5600 C   0  0  0  0  0  2  0  0  0  0  0  0
  160.5960  207.7590  157.2600 C   0  0  0  0  0  1  0  0  0  0  0  0
  156.5940  211.5510  156.6280 O   0  0  0  0  0  1  0  0  0  0  0  0
  156.8080  210.8790  155.4230 C   0  0  0  0  0  2  0  0  0  0  0  0
  1  6  1  0  0  0  0
  3 11  1  0  0  0  0
  3  6  2  0  0  0  0
  4 10  1  6  0  0  0
  5  8  2  0  0  0  0
  5 14  1  0  0  0  0
  6  4  1  0  0  0  0
  8  3  1  0  0  0  0
  9 28  1  6  0  0  0
 11  7  1  0  0  0  0
 12  2  1  1  0  0  0
 12  9  1  0  0  0  0
 13  5  1  0  0  0  0
 14  1  2  0  0  0  0
 15  7  1  1  0  0  0
 15  4  1  0  0  0  0
 15 12  1  0  0  0  0
 16 10  1  6  0  0  0
 16  9  1  0  0  0  0
 16 17  1  0  0  0  0
 17 23  1  1  0  0  0
 17 18  1  0  0  0  0
 18 25  1  6  0  0  0
 18 24  1  0  0  0  0
 19 22  1  1  0  0  0
 19 24  1  0  0  0  0
 20 19  1  0  0  0  0
 21 20  1  6  0  0  0
 21 17  1  0  0  0  0
 21 19  1  0  0  0  0
 25 26  1  0  0  0  0
 28 27  1  0  0  0  0
M  END
>  <MODEL>
3

>  <REMARK>
 VINA RESULT:      -2.8      2.704      5.153
  Name = 
  3 active torsions:
  status: ('A' for Active; 'I' for Inactive)
    1  A    between atoms: C_1  and  N_27
    2  A    between atoms: C_2  and  C_3
    3  A    between atoms: C_16  and  C_21
                            x       y       z     vdW  Elec       q    Type
                         _______ _______ _______ _____ _____    ______ ____

>  <TORSDO>
F 3

$$$$
=
 OpenBabel11052423023D

 28 32  0  0  1  0  0  0  0  0999 V2000
  158.5060  212.0800  153.8370 C   0  0  0  0  0  3  0  0  0  0  0  0
  161.4730  207.0090  154.6410 O   0  0  0  0  0  1  0  0  0  0  0  0
  160.1220  211.9230  155.6300 C   0  0  0  0  0  0  0  0  0  0  0  0
  160.4450  210.4500  153.6480 C   0  0  2  0  0  3  0  0  0  0  0  0
  158.2890  213.4260  155.8210 C   0  0  0  0  0  0  0  0  0  0  0  0
  159.6770  211.5160  154.3610 C   0  0  0  0  0  0  0  0  0  0  0  0
  161.8120  209.6340  155.8900 S   0  0  0  0  0  0  0  0  0  0  0  0
  159.4280  212.8710  156.3150 N   0  0  0  0  0  0  0  0  0  0  0  0
  161.4230  208.0690  152.4570 C   0  0  2  0  0  3  0  0  0  0  0  0
  159.8750  210.0020  152.3060 C   0  0  0  0  0  2  0  0  0  0  0  0
  161.4190  211.4150  156.2010 C   0  0  0  0  0  2  0  0  0  0  0  0
  160.7770  207.9320  153.8540 C   0  0  2  0  0  3  0  0  0  0  0  0
  157.5600  214.4530  156.6100 C   0  0  0  0  0  1  0  0  0  0  0  0
  157.8080  213.0410  154.5690 C   0  0  0  0  0  3  0  0  0  0  0  0
  160.5720  209.2690  154.5900 C   0  0  2  0  0  3  0  0  0  0  0  0
  160.8440  209.1420  151.5930 N   0  0  1  0  0  0  0  0  0  0  0  0
  161.9100  209.9470  150.9120 C   0  0  1  0  0  0  0  0  0  0  0  0
  162.4340  209.2900  149.6180 C   0  0  2  0  0  3  0  0  0  0  0  0
  161.9760  211.4500  149.0740 C   0  0  2  0  0  0  0  0  0  0  0  0
  160.4780  211.3010  149.2620 C   0  0  0  0  0  2  0  0  0  0  0  0
  161.4300  211.3260  150.4660 C   0  0  1  0  0  3  0  0  0  0  0  0
  162.5230  212.8190  148.7290 C   0  0  0  0  0  1  0  0  0  0  0  0
  163.1100  210.1870  151.8300 C   0  0  0  0  0  1  0  0  0  0  0  0
  162.7080  210.3100  148.6830 O   0  0  0  0  0  0  0  0  0  0  0  0
  161.4610  208.3000  148.9790 C   0  0  0  0  0  2  0  0  0  0  0  0
  162.2130  207.3180  148.1020 C   0  0  0  0  0  1  0  0  0  0  0  0
  162.6590  206.1720  151.6500 O   0  0  0  0  0  1  0  0  0  0  0  0
  161.3780  206.7220  151.7430 C   0  0  0  0  0  2  0  0  0  0  0  0
  1  6  2  0  0  0  0
  1 14  1  0  0  0  0
  3 11  1  0  0  0  0
  3  8  2  0  0  0  0
  4 10  1  6  0  0  0
  4  6  1  0  0  0  0
  4 15  1  0  0  0  0
  5  8  1  0  0  0  0
  5 13  1  0  0  0  0
  6  3  1  0  0  0  0
  7 11  1  0  0  0  0
  9 28  1  6  0  0  0
  9 12  1  0  0  0  0
 12 15  1  0  0  0  0
 12  2  1  1  0  0  0
 14  5  2  0  0  0  0
 15  7  1  1  0  0  0
 16 10  1  1  0  0  0
 16  9  1  0  0  0  0
 17 16  1  0  0  0  0
 17 23  1  1  0  0  0
 18 25  1  6  0  0  0
 18 17  1  0  0  0  0
 19 22  1  6  0  0  0
 19 20  1  0  0  0  0
 19 21  1  0  0  0  0
 21 20  1  6  0  0  0
 21 17  1  0  0  0  0
 24 19  1  0  0  0  0
 24 18  1  0  0  0  0
 26 25  1  0  0  0  0
 27 28  1  0  0  0  0
M  END
>  <MODEL>
4

>  <REMARK>
 VINA RESULT:      -2.0      2.544      6.506
  Name = 
  3 active torsions:
  status: ('A' for Active; 'I' for Inactive)
    1  A    between atoms: C_1  and  N_27
    2  A    between atoms: C_2  and  C_3
    3  A    between atoms: C_16  and  C_21
                            x       y       z     vdW  Elec       q    Type
                         _______ _______ _______ _____ _____    ______ ____

>  <TORSDO>
F 3

$$$$
=
 OpenBabel11052423023D

 28 32  0  0  1  0  0  0  0  0999 V2000
  160.7820  208.2970  151.9320 C   0  0  0  0  0  3  0  0  0  0  0  0
  157.3770  213.0410  152.9620 O   0  0  0  0  0  1  0  0  0  0  0  0
  161.3400  210.4070  150.8880 C   0  0  0  0  0  0  0  0  0  0  0  0
  160.0770  210.4750  153.0330 C   0  0  2  0  0  3  0  0  0  0  0  0
  161.9730  208.3660  149.8410 C   0  0  0  0  0  0  0  0  0  0  0  0
  160.7560  209.6980  151.9520 C   0  0  0  0  0  0  0  0  0  0  0  0
  159.9430  212.8020  151.5750 S   0  0  0  0  0  0  0  0  0  0  0  0
  161.9410  209.7260  149.8740 N   0  0  0  0  0  0  0  0  0  0  0  0
  158.2700  211.7470  154.8120 C   0  0  2  0  0  3  0  0  0  0  0  0
  159.4030  209.6490  154.1240 C   0  0  0  0  0  2  0  0  0  0  0  0
  161.4170  211.9100  150.9020 C   0  0  0  0  0  2  0  0  0  0  0  0
  157.9180  211.7990  153.3080 C   0  0  2  0  0  3  0  0  0  0  0  0
  162.6340  207.6680  148.7080 C   0  0  0  0  0  1  0  0  0  0  0  0
  161.3940  207.6260  150.8730 C   0  0  0  0  0  3  0  0  0  0  0  0
  159.0740  211.3990  152.3720 C   0  0  2  0  0  3  0  0  0  0  0  0
  158.9950  210.5160  155.2510 N   0  0  1  0  0  0  0  0  0  0  0  0
  160.1460  210.8370  156.1560 C   0  0  1  0  0  0  0  0  0  0  0  0
  160.5150  209.6780  157.1040 C   0  0  2  0  0  3  0  0  0  0  0  0
  162.4720  210.3580  156.1640 C   0  0  2  0  0  0  0  0  0  0  0  0
  162.0950  209.8970  154.7690 C   0  0  0  0  0  2  0  0  0  0  0  0
  161.4400  211.1330  155.4010 C   0  0  1  0  0  3  0  0  0  0  0  0
  163.7920  211.0750  156.3520 C   0  0  0  0  0  1  0  0  0  0  0  0
  159.8600  212.0690  157.0170 C   0  0  0  0  0  1  0  0  0  0  0  0
  161.9180  209.6630  157.2590 O   0  0  0  0  0  0  0  0  0  0  0  0
  160.0710  208.3000  156.6140 C   0  0  0  0  0  2  0  0  0  0  0  0
  160.9130  207.2180  157.2610 C   0  0  0  0  0  1  0  0  0  0  0  0
  156.1110  210.8960  155.4320 O   0  0  0  0  0  1  0  0  0  0  0  0
  157.0040  211.9500  155.6370 C   0  0  0  0  0  2  0  0  0  0  0  0
  1  6  1  0  0  0  0
  3 11  1  0  0  0  0
  3  6  2  0  0  0  0
  4 10  1  1  0  0  0
  5  8  2  0  0  0  0
  5 14  1  0  0  0  0
  6  4  1  0  0  0  0
  8  3  1  0  0  0  0
  9 16  1  0  0  0  0
  9 28  1  1  0  0  0
 11  7  1  0  0  0  0
 12  2  1  6  0  0  0
 12  9  1  0  0  0  0
 13  5  1  0  0  0  0
 14  1  2  0  0  0  0
 15  7  1  1  0  0  0
 15  4  1  0  0  0  0
 15 12  1  0  0  0  0
 16 10  1  6  0  0  0
 16 17  1  0  0  0  0
 17 23  1  1  0  0  0
 17 18  1  0  0  0  0
 18 25  1  6  0  0  0
 18 24  1  0  0  0  0
 19 22  1  1  0  0  0
 19 24  1  0  0  0  0
 20 19  1  0  0  0  0
 21 20  1  6  0  0  0
 21 17  1  0  0  0  0
 21 19  1  0  0  0  0
 25 26  1  0  0  0  0
 27 28  1  0  0  0  0
M  END
>  <MODEL>
5

>  <REMARK>
 VINA RESULT:      -1.7      2.056      4.599
  Name = 
  3 active torsions:
  status: ('A' for Active; 'I' for Inactive)
    1  A    between atoms: C_1  and  N_27
    2  A    between atoms: C_2  and  C_3
    3  A    between atoms: C_16  and  C_21
                            x       y       z     vdW  Elec       q    Type
                         _______ _______ _______ _____ _____    ______ ____

>  <TORSDO>
F 3

$$$$
