=
 OpenBabel11052422043D

 30 30  0  0  1  0  0  0  0  0999 V2000
  161.4340  207.7300  150.3880 C   0  0  2  0  0  3  0  0  0  0  0  0
  161.8410  209.1630  150.1770 C   0  0  0  0  0  0  0  0  0  0  0  0
  162.1930  210.1310  151.4630 S   0  0  0  0  0  0  0  0  0  0  0  0
  161.9850  209.6420  148.8360 N   0  0  0  0  0  2  0  0  0  0  0  0
  162.2360  211.0350  148.5040 C   0  0  0  0  0  2  0  0  0  0  0  0
  161.2120  211.5090  147.6850 O   0  0  0  0  0  1  0  0  0  0  0  0
  163.1490  206.1350  151.3660 C   0  0  0  0  0  1  0  0  0  0  0  0
  162.0360  207.1360  151.6730 C   0  0  2  0  0  3  0  0  0  0  0  0
  160.9750  206.5380  152.6180 C   0  0  1  0  0  3  0  0  0  0  0  0
  161.3690  205.1780  153.1810 C   0  0  0  0  0  2  0  0  0  0  0  0
  160.6800  204.0720  152.4060 C   0  0  0  0  0  1  0  0  0  0  0  0
  160.6630  207.4940  153.7580 C   0  0  0  0  0  2  0  0  0  0  0  0
  160.9790  206.8940  154.9790 O   0  0  0  0  0  0  0  0  0  0  0  0
  159.9950  207.3480  155.8610 C   0  0  0  0  0  2  0  0  0  0  0  0
  162.0130  208.1730  156.8480 O   0  0  0  0  0  1  0  0  0  0  0  0
  160.6230  208.1760  156.9730 C   0  0  0  0  0  3  0  0  0  0  0  0
  160.1480  209.4880  156.9210 O   0  0  0  0  0  1  0  0  0  0  0  0
  161.8380  206.9020  149.1720 C   0  0  0  0  0  2  0  0  0  0  0  0
  160.7260  205.9460  148.7540 C   0  0  0  0  0  2  0  0  0  0  0  0
  161.2810  204.6440  148.1760 C   0  0  2  0  0  0  0  0  0  0  0  0
  161.3080  203.1380  146.1550 O   0  0  0  0  0  1  0  0  0  0  0  0
  162.5080  204.8870  147.3110 C   0  0  0  0  0  2  0  0  0  0  0  0
  161.2100  204.4340  146.6730 C   0  0  2  0  0  0  0  0  0  0  0  0
  161.4290  203.4050  149.0560 C   0  0  0  0  0  2  0  0  0  0  0  0
  160.2120  202.7250  149.1380 O   0  0  0  0  0  0  0  0  0  0  0  0
  161.3260  200.7110  148.5460 C   0  0  0  0  0  1  0  0  0  0  0  0
  160.5500  201.4580  149.6110 C   0  0  0  0  0  2  0  0  0  0  0  0
  160.6590  205.4250  145.8490 O   0  0  0  0  0  0  0  0  0  0  0  0
  161.7230  205.9480  145.1070 C   0  0  0  0  0  2  0  0  0  0  0  0
  161.4440  205.6250  143.3430 S   0  0  0  0  0  1  0  0  0  0  0  0
  1 18  1  6  0  0  0
  1  8  1  0  0  0  0
  2  1  1  0  0  0  0
  2  3  2  0  0  0  0
  4  2  1  0  0  0  0
  5  4  1  0  0  0  0
  6  5  1  0  0  0  0
  8  7  1  6  0  0  0
  8  9  1  0  0  0  0
  9 10  1  1  0  0  0
  9 12  1  0  0  0  0
 11 10  1  0  0  0  0
 12 13  1  0  0  0  0
 13 14  1  0  0  0  0
 14 16  1  0  0  0  0
 15 16  1  0  0  0  0
 17 16  1  0  0  0  0
 19 18  1  0  0  0  0
 20 19  1  1  0  0  0
 20 24  1  0  0  0  0
 22 20  1  0  0  0  0
 23 21  1  6  0  0  0
 23 22  1  0  0  0  0
 23 20  1  0  0  0  0
 24 25  1  0  0  0  0
 25 27  1  0  0  0  0
 26 27  1  0  0  0  0
 28 23  1  0  0  0  0
 29 28  1  0  0  0  0
 30 29  1  0  0  0  0
M  END
>  <MODEL>
1

>  <REMARK>
 VINA RESULT:      -5.6      0.000      0.000
  Name = 
  18 active torsions:
  status: ('A' for Active; 'I' for Inactive)
    1  A    between atoms: C_1  and  C_4
    2  A    between atoms: C_1  and  C_22
    3  A    between atoms: C_2  and  N_14
    4  A    between atoms: C_2  and  C_29
    5  A    between atoms: C_3  and  C_11
    6  A    between atoms: C_4  and  C_5
    7  A    between atoms: C_5  and  O_21
    8  A    between atoms: C_11  and  C_23
    9  A    between atoms: C_11  and  C_24
   10  A    between atoms: C_12  and  O_27
   11  A    between atoms: C_13  and  O_27
   12  A    between atoms: N_14  and  C_20
   13  A    between atoms: O_15  and  C_24
   14  A    between atoms: O_15  and  C_25
   15  A    between atoms: C_16  and  C_25
   16  A    between atoms: C_17  and  O_21
   17  A    between atoms: C_22  and  C_29
   18  A    between atoms: C_23  and  C_29
                            x       y       z     vdW  Elec       q    Type
                         _______ _______ _______ _____ _____    ______ ____

>  <TORSDO>
F 18

$$$$
=
 OpenBabel11052422043D

 30 30  0  0  1  0  0  0  0  0999 V2000
  161.8580  206.2290  148.6010 C   0  0  2  0  0  3  0  0  0  0  0  0
  161.8840  206.0510  147.1070 C   0  0  0  0  0  0  0  0  0  0  0  0
  163.0170  205.0880  146.3980 S   0  0  0  0  0  0  0  0  0  0  0  0
  160.8590  206.6760  146.3270 N   0  0  0  0  0  2  0  0  0  0  0  0
  160.1270  205.9950  145.2710 C   0  0  0  0  0  2  0  0  0  0  0  0
  160.9420  205.8650  144.1470 O   0  0  0  0  0  1  0  0  0  0  0  0
  160.0830  206.0300  150.4030 C   0  0  0  0  0  1  0  0  0  0  0  0
  160.8280  205.3100  149.2800 C   0  0  2  0  0  3  0  0  0  0  0  0
  161.4310  203.9750  149.7580 C   0  0  1  0  0  3  0  0  0  0  0  0
  161.3690  203.7930  151.2700 C   0  0  0  0  0  2  0  0  0  0  0  0
  161.2650  202.3210  151.6160 C   0  0  0  0  0  1  0  0  0  0  0  0
  160.7560  202.7980  149.0720 C   0  0  0  0  0  2  0  0  0  0  0  0
  161.1460  202.7420  147.7330 O   0  0  0  0  0  0  0  0  0  0  0  0
  160.7460  201.4760  147.3000 C   0  0  0  0  0  2  0  0  0  0  0  0
  160.9160  202.5850  145.1860 O   0  0  0  0  0  1  0  0  0  0  0  0
  160.2830  201.5340  145.8520 C   0  0  0  0  0  3  0  0  0  0  0  0
  160.5680  200.3280  145.2070 O   0  0  0  0  0  1  0  0  0  0  0  0
  161.5780  207.6910  148.9340 C   0  0  0  0  0  2  0  0  0  0  0  0
  162.4930  208.1950  150.0450 C   0  0  0  0  0  2  0  0  0  0  0  0
  162.1350  209.6170  150.4770 C   0  0  2  0  0  0  0  0  0  0  0  0
  160.4570  211.0260  151.7240 O   0  0  0  0  0  1  0  0  0  0  0  0
  162.5900  209.9070  151.8990 C   0  0  0  0  0  2  0  0  0  0  0  0
  161.1110  209.7970  151.5860 C   0  0  2  0  0  0  0  0  0  0  0  0
  162.3740  210.7980  149.5400 C   0  0  0  0  0  2  0  0  0  0  0  0
  161.6170  210.6500  148.3760 O   0  0  0  0  0  0  0  0  0  0  0  0
  162.8300  212.5680  147.6720 C   0  0  0  0  0  1  0  0  0  0  0  0
  161.4660  211.9480  147.8900 C   0  0  0  0  0  2  0  0  0  0  0  0
  160.5300  208.6770  152.1970 O   0  0  0  0  0  0  0  0  0  0  0  0
  160.9320  208.7130  153.5360 C   0  0  0  0  0  2  0  0  0  0  0  0
  160.9760  207.0230  154.1980 S   0  0  0  0  0  1  0  0  0  0  0  0
  1 18  1  6  0  0  0
  1  8  1  0  0  0  0
  2  1  1  0  0  0  0
  3  2  2  0  0  0  0
  4  2  1  0  0  0  0
  5  4  1  0  0  0  0
  6  5  1  0  0  0  0
  8  9  1  0  0  0  0
  8  7  1  1  0  0  0
  9 12  1  6  0  0  0
  9 10  1  0  0  0  0
 10 11  1  0  0  0  0
 13 12  1  0  0  0  0
 14 13  1  0  0  0  0
 15 16  1  0  0  0  0
 16 14  1  0  0  0  0
 17 16  1  0  0  0  0
 18 19  1  0  0  0  0
 19 20  1  0  0  0  0
 20 24  1  6  0  0  0
 20 23  1  0  0  0  0
 20 22  1  0  0  0  0
 23 21  1  6  0  0  0
 23 22  1  0  0  0  0
 23 28  1  0  0  0  0
 25 24  1  0  0  0  0
 26 27  1  0  0  0  0
 27 25  1  0  0  0  0
 28 29  1  0  0  0  0
 29 30  1  0  0  0  0
M  END
>  <MODEL>
2

>  <REMARK>
 VINA RESULT:      -5.5      2.442      7.887
  Name = 
  18 active torsions:
  status: ('A' for Active; 'I' for Inactive)
    1  A    between atoms: C_1  and  C_4
    2  A    between atoms: C_1  and  C_22
    3  A    between atoms: C_2  and  N_14
    4  A    between atoms: C_2  and  C_29
    5  A    between atoms: C_3  and  C_11
    6  A    between atoms: C_4  and  C_5
    7  A    between atoms: C_5  and  O_21
    8  A    between atoms: C_11  and  C_23
    9  A    between atoms: C_11  and  C_24
   10  A    between atoms: C_12  and  O_27
   11  A    between atoms: C_13  and  O_27
   12  A    between atoms: N_14  and  C_20
   13  A    between atoms: O_15  and  C_24
   14  A    between atoms: O_15  and  C_25
   15  A    between atoms: C_16  and  C_25
   16  A    between atoms: C_17  and  O_21
   17  A    between atoms: C_22  and  C_29
   18  A    between atoms: C_23  and  C_29
                            x       y       z     vdW  Elec       q    Type
                         _______ _______ _______ _____ _____    ______ ____

>  <TORSDO>
F 18

$$$$
=
 OpenBabel11052422043D

 30 30  0  0  1  0  0  0  0  0999 V2000
  161.1170  205.5340  149.5990 C   0  0  2  0  0  3  0  0  0  0  0  0
  161.0740  204.1230  150.1160 C   0  0  0  0  0  0  0  0  0  0  0  0
  161.4360  203.7970  151.6910 S   0  0  0  0  0  0  0  0  0  0  0  0
  160.6430  203.0830  149.2320 N   0  0  0  0  0  2  0  0  0  0  0  0
  160.1860  201.7800  149.6880 C   0  0  0  0  0  2  0  0  0  0  0  0
  161.1480  200.8180  149.3860 O   0  0  0  0  0  1  0  0  0  0  0  0
  162.5150  207.0640  148.1350 C   0  0  0  0  0  1  0  0  0  0  0  0
  161.9430  205.6580  148.3070 C   0  0  2  0  0  3  0  0  0  0  0  0
  161.1780  205.1940  147.0530 C   0  0  1  0  0  3  0  0  0  0  0  0
  160.3960  206.3130  146.3770 C   0  0  0  0  0  2  0  0  0  0  0  0
  160.5090  206.1940  144.8700 C   0  0  0  0  0  1  0  0  0  0  0  0
  162.1200  204.5490  146.0490 C   0  0  0  0  0  2  0  0  0  0  0  0
  161.4290  203.6030  145.2890 O   0  0  0  0  0  0  0  0  0  0  0  0
  161.1590  202.5620  146.1800 C   0  0  0  0  0  2  0  0  0  0  0  0
  160.9830  200.1750  146.2050 O   0  0  0  0  0  1  0  0  0  0  0  0
  160.7540  201.3070  145.4210 C   0  0  0  0  0  3  0  0  0  0  0  0
  159.4040  201.3720  145.0690 O   0  0  0  0  0  1  0  0  0  0  0  0
  161.6690  206.4570  150.6820 C   0  0  0  0  0  2  0  0  0  0  0  0
  160.6110  207.4410  151.1680 C   0  0  0  0  0  2  0  0  0  0  0  0
  161.1700  208.4110  152.2100 C   0  0  2  0  0  0  0  0  0  0  0  0
  162.8050  210.2890  152.6010 O   0  0  0  0  0  1  0  0  0  0  0  0
  160.4920  209.7700  152.1370 C   0  0  0  0  0  2  0  0  0  0  0  0
  161.9420  209.6250  151.7220 C   0  0  2  0  0  0  0  0  0  0  0  0
  161.4050  207.9560  153.6480 C   0  0  0  0  0  2  0  0  0  0  0  0
  160.5010  206.9470  153.9870 O   0  0  0  0  0  0  0  0  0  0  0  0
  159.8980  208.3520  155.8080 C   0  0  0  0  0  1  0  0  0  0  0  0
  160.4260  206.9990  155.3790 C   0  0  0  0  0  2  0  0  0  0  0  0
  162.1160  209.8440  150.3480 O   0  0  0  0  0  0  0  0  0  0  0  0
  161.7010  211.1570  150.1080 C   0  0  0  0  0  2  0  0  0  0  0  0
  162.1410  211.6290  148.4120 S   0  0  0  0  0  1  0  0  0  0  0  0
  1  2  1  0  0  0  0
  1 18  1  1  0  0  0
  2  3  2  0  0  0  0
  4  5  1  0  0  0  0
  4  2  1  0  0  0  0
  6  5  1  0  0  0  0
  8  7  1  6  0  0  0
  8  1  1  0  0  0  0
  9 12  1  6  0  0  0
  9  8  1  0  0  0  0
 10  9  1  0  0  0  0
 11 10  1  0  0  0  0
 13 12  1  0  0  0  0
 13 14  1  0  0  0  0
 16 14  1  0  0  0  0
 16 15  1  0  0  0  0
 17 16  1  0  0  0  0
 18 19  1  0  0  0  0
 20 19  1  6  0  0  0
 20 24  1  0  0  0  0
 22 20  1  0  0  0  0
 23 22  1  0  0  0  0
 23 20  1  0  0  0  0
 23 21  1  1  0  0  0
 24 25  1  0  0  0  0
 25 27  1  0  0  0  0
 27 26  1  0  0  0  0
 28 23  1  0  0  0  0
 29 28  1  0  0  0  0
 30 29  1  0  0  0  0
M  END
>  <MODEL>
3

>  <REMARK>
 VINA RESULT:      -5.4      2.661      8.184
  Name = 
  18 active torsions:
  status: ('A' for Active; 'I' for Inactive)
    1  A    between atoms: C_1  and  C_4
    2  A    between atoms: C_1  and  C_22
    3  A    between atoms: C_2  and  N_14
    4  A    between atoms: C_2  and  C_29
    5  A    between atoms: C_3  and  C_11
    6  A    between atoms: C_4  and  C_5
    7  A    between atoms: C_5  and  O_21
    8  A    between atoms: C_11  and  C_23
    9  A    between atoms: C_11  and  C_24
   10  A    between atoms: C_12  and  O_27
   11  A    between atoms: C_13  and  O_27
   12  A    between atoms: N_14  and  C_20
   13  A    between atoms: O_15  and  C_24
   14  A    between atoms: O_15  and  C_25
   15  A    between atoms: C_16  and  C_25
   16  A    between atoms: C_17  and  O_21
   17  A    between atoms: C_22  and  C_29
   18  A    between atoms: C_23  and  C_29
                            x       y       z     vdW  Elec       q    Type
                         _______ _______ _______ _____ _____    ______ ____

>  <TORSDO>
F 18

$$$$
=
 OpenBabel11052422043D

 30 30  0  0  1  0  0  0  0  0999 V2000
  161.0070  206.9930  150.3790 C   0  0  2  0  0  3  0  0  0  0  0  0
  161.3550  205.8820  151.3310 C   0  0  0  0  0  0  0  0  0  0  0  0
  162.5560  206.0770  152.4430 S   0  0  0  0  0  0  0  0  0  0  0  0
  160.5730  204.6830  151.2990 N   0  0  0  0  0  2  0  0  0  0  0  0
  160.7630  203.5760  152.2220 C   0  0  0  0  0  2  0  0  0  0  0  0
  161.4530  202.5480  151.5800 O   0  0  0  0  0  1  0  0  0  0  0  0
  162.0910  208.2020  148.4300 C   0  0  0  0  0  1  0  0  0  0  0  0
  161.7200  206.8450  149.0240 C   0  0  2  0  0  3  0  0  0  0  0  0
  160.9380  205.9760  148.0200 C   0  0  1  0  0  3  0  0  0  0  0  0
  160.5490  206.7250  146.7510 C   0  0  0  0  0  2  0  0  0  0  0  0
  160.7300  205.8310  145.5410 C   0  0  0  0  0  1  0  0  0  0  0  0
  161.7230  204.7250  147.6570 C   0  0  0  0  0  2  0  0  0  0  0  0
  161.2080  203.6260  148.3450 O   0  0  0  0  0  0  0  0  0  0  0  0
  161.3250  202.5600  147.4490 C   0  0  0  0  0  2  0  0  0  0  0  0
  161.5040  200.3820  148.4260 O   0  0  0  0  0  1  0  0  0  0  0  0
  160.5890  201.3390  147.9800 C   0  0  0  0  0  3  0  0  0  0  0  0
  159.7430  201.7060  149.0290 O   0  0  0  0  0  1  0  0  0  0  0  0
  161.3420  208.3360  151.0200 C   0  0  0  0  0  2  0  0  0  0  0  0
  160.5290  208.5660  152.2890 C   0  0  0  0  0  2  0  0  0  0  0  0
  160.7780  209.9530  152.8820 C   0  0  2  0  0  0  0  0  0  0  0  0
  161.0470  211.2560  155.0240 O   0  0  0  0  0  1  0  0  0  0  0  0
  162.2430  210.1640  153.2320 C   0  0  0  0  0  2  0  0  0  0  0  0
  161.2110  210.0480  154.3360 C   0  0  2  0  0  0  0  0  0  0  0  0
  160.1490  211.1920  152.2500 C   0  0  0  0  0  2  0  0  0  0  0  0
  158.7980  211.2740  152.5920 O   0  0  0  0  0  0  0  0  0  0  0  0
  158.7720  213.4640  153.5160 C   0  0  0  0  0  1  0  0  0  0  0  0
  158.4470  212.5960  152.3190 C   0  0  0  0  0  2  0  0  0  0  0  0
  161.3870  208.8840  155.0960 O   0  0  0  0  0  0  0  0  0  0  0  0
  160.3820  208.8970  156.0670 C   0  0  0  0  0  2  0  0  0  0  0  0
  160.0700  207.2030  156.6360 S   0  0  0  0  0  1  0  0  0  0  0  0
  1 18  1  1  0  0  0
  1  2  1  0  0  0  0
  2  3  2  0  0  0  0
  4  2  1  0  0  0  0
  4  5  1  0  0  0  0
  6  5  1  0  0  0  0
  8  7  1  6  0  0  0
  8  1  1  0  0  0  0
  9 10  1  6  0  0  0
  9  8  1  0  0  0  0
 11 10  1  0  0  0  0
 12  9  1  0  0  0  0
 12 13  1  0  0  0  0
 14 16  1  0  0  0  0
 14 13  1  0  0  0  0
 16 15  1  0  0  0  0
 16 17  1  0  0  0  0
 18 19  1  0  0  0  0
 19 20  1  0  0  0  0
 20 24  1  6  0  0  0
 20 22  1  0  0  0  0
 20 23  1  0  0  0  0
 22 23  1  0  0  0  0
 23 21  1  1  0  0  0
 23 28  1  0  0  0  0
 24 25  1  0  0  0  0
 27 25  1  0  0  0  0
 27 26  1  0  0  0  0
 28 29  1  0  0  0  0
 29 30  1  0  0  0  0
M  END
>  <MODEL>
4

>  <REMARK>
 VINA RESULT:      -5.3      2.993      8.600
  Name = 
  18 active torsions:
  status: ('A' for Active; 'I' for Inactive)
    1  A    between atoms: C_1  and  C_4
    2  A    between atoms: C_1  and  C_22
    3  A    between atoms: C_2  and  N_14
    4  A    between atoms: C_2  and  C_29
    5  A    between atoms: C_3  and  C_11
    6  A    between atoms: C_4  and  C_5
    7  A    between atoms: C_5  and  O_21
    8  A    between atoms: C_11  and  C_23
    9  A    between atoms: C_11  and  C_24
   10  A    between atoms: C_12  and  O_27
   11  A    between atoms: C_13  and  O_27
   12  A    between atoms: N_14  and  C_20
   13  A    between atoms: O_15  and  C_24
   14  A    between atoms: O_15  and  C_25
   15  A    between atoms: C_16  and  C_25
   16  A    between atoms: C_17  and  O_21
   17  A    between atoms: C_22  and  C_29
   18  A    between atoms: C_23  and  C_29
                            x       y       z     vdW  Elec       q    Type
                         _______ _______ _______ _____ _____    ______ ____

>  <TORSDO>
F 18

$$$$
=
 OpenBabel11052422043D

 30 30  0  0  1  0  0  0  0  0999 V2000
  161.1310  206.5100  150.4500 C   0  0  2  0  0  3  0  0  0  0  0  0
  161.0980  205.3460  151.4020 C   0  0  0  0  0  0  0  0  0  0  0  0
  161.5550  205.5360  152.9730 S   0  0  0  0  0  0  0  0  0  0  0  0
  160.5930  204.0920  150.9310 N   0  0  0  0  0  2  0  0  0  0  0  0
  161.0860  202.8040  151.3920 C   0  0  0  0  0  2  0  0  0  0  0  0
  160.9350  201.8580  150.3790 O   0  0  0  0  0  1  0  0  0  0  0  0
  162.6030  207.4270  148.5980 C   0  0  0  0  0  1  0  0  0  0  0  0
  161.9080  206.1890  149.1610 C   0  0  2  0  0  3  0  0  0  0  0  0
  161.0460  205.4830  148.0960 C   0  0  1  0  0  3  0  0  0  0  0  0
  160.3680  206.4500  147.1330 C   0  0  0  0  0  2  0  0  0  0  0  0
  160.7160  206.0920  145.7020 C   0  0  0  0  0  1  0  0  0  0  0  0
  161.8710  204.4740  147.3130 C   0  0  0  0  0  2  0  0  0  0  0  0
  161.3280  203.1970  147.4680 O   0  0  0  0  0  0  0  0  0  0  0  0
  161.3210  202.6560  146.1800 C   0  0  0  0  0  2  0  0  0  0  0  0
  159.9980  201.1520  144.8690 O   0  0  0  0  0  1  0  0  0  0  0  0
  160.5090  201.3700  146.1510 C   0  0  0  0  0  3  0  0  0  0  0  0
  161.3060  200.2890  146.5300 O   0  0  0  0  0  1  0  0  0  0  0  0
  161.7310  207.7250  151.1520 C   0  0  0  0  0  2  0  0  0  0  0  0
  160.6520  208.5790  151.8070 C   0  0  0  0  0  2  0  0  0  0  0  0
  161.0810  210.0420  151.9330 C   0  0  2  0  0  0  0  0  0  0  0  0
  160.2770  212.3890  152.3800 O   0  0  0  0  0  1  0  0  0  0  0  0
  161.2990  210.4440  153.3840 C   0  0  0  0  0  2  0  0  0  0  0  0
  160.1290  211.0160  152.6080 C   0  0  2  0  0  0  0  0  0  0  0  0
  162.1440  210.6220  151.0040 C   0  0  0  0  0  2  0  0  0  0  0  0
  161.5550  211.4850  150.0780 O   0  0  0  0  0  0  0  0  0  0  0  0
  162.2520  212.4080  148.0020 C   0  0  0  0  0  1  0  0  0  0  0  0
  162.1660  211.1670  148.8650 C   0  0  0  0  0  2  0  0  0  0  0  0
  158.9000  210.5670  153.1100 O   0  0  0  0  0  0  0  0  0  0  0  0
  158.2820  211.6830  153.6810 C   0  0  0  0  0  2  0  0  0  0  0  0
  157.6070  211.2340  155.3050 S   0  0  0  0  0  1  0  0  0  0  0  0
  1 18  1  1  0  0  0
  1  2  1  0  0  0  0
  2  3  2  0  0  0  0
  4  5  1  0  0  0  0
  4  2  1  0  0  0  0
  6  5  1  0  0  0  0
  8  7  1  6  0  0  0
  8  1  1  0  0  0  0
  9 10  1  6  0  0  0
  9  8  1  0  0  0  0
 11 10  1  0  0  0  0
 12 13  1  0  0  0  0
 12  9  1  0  0  0  0
 14 13  1  0  0  0  0
 15 16  1  0  0  0  0
 16 14  1  0  0  0  0
 16 17  1  0  0  0  0
 18 19  1  0  0  0  0
 19 20  1  0  0  0  0
 20 24  1  6  0  0  0
 20 23  1  0  0  0  0
 20 22  1  0  0  0  0
 23 21  1  6  0  0  0
 23 28  1  0  0  0  0
 23 22  1  0  0  0  0
 25 24  1  0  0  0  0
 26 27  1  0  0  0  0
 27 25  1  0  0  0  0
 28 29  1  0  0  0  0
 29 30  1  0  0  0  0
M  END
>  <MODEL>
5

>  <REMARK>
 VINA RESULT:      -5.2      3.267      8.712
  Name = 
  18 active torsions:
  status: ('A' for Active; 'I' for Inactive)
    1  A    between atoms: C_1  and  C_4
    2  A    between atoms: C_1  and  C_22
    3  A    between atoms: C_2  and  N_14
    4  A    between atoms: C_2  and  C_29
    5  A    between atoms: C_3  and  C_11
    6  A    between atoms: C_4  and  C_5
    7  A    between atoms: C_5  and  O_21
    8  A    between atoms: C_11  and  C_23
    9  A    between atoms: C_11  and  C_24
   10  A    between atoms: C_12  and  O_27
   11  A    between atoms: C_13  and  O_27
   12  A    between atoms: N_14  and  C_20
   13  A    between atoms: O_15  and  C_24
   14  A    between atoms: O_15  and  C_25
   15  A    between atoms: C_16  and  C_25
   16  A    between atoms: C_17  and  O_21
   17  A    between atoms: C_22  and  C_29
   18  A    between atoms: C_23  and  C_29
                            x       y       z     vdW  Elec       q    Type
                         _______ _______ _______ _____ _____    ______ ____

>  <TORSDO>
F 18

$$$$
=
 OpenBabel11052422043D

 30 30  0  0  1  0  0  0  0  0999 V2000
  160.8390  209.2760  152.8150 C   0  0  2  0  0  3  0  0  0  0  0  0
  161.2200  209.3930  154.2660 C   0  0  0  0  0  0  0  0  0  0  0  0
  160.7830  208.2240  155.3430 S   0  0  0  0  0  0  0  0  0  0  0  0
  162.0300  210.5000  154.6730 N   0  0  0  0  0  2  0  0  0  0  0  0
  162.5310  210.6740  156.0270 C   0  0  0  0  0  2  0  0  0  0  0  0
  161.6540  211.4830  156.7480 O   0  0  0  0  0  1  0  0  0  0  0  0
  162.2110  210.0420  150.8230 C   0  0  0  0  0  1  0  0  0  0  0  0
  162.0520  208.9850  151.9150 C   0  0  2  0  0  3  0  0  0  0  0  0
  162.0450  207.5580  151.3340 C   0  0  1  0  0  3  0  0  0  0  0  0
  160.9000  206.7010  151.8590 C   0  0  0  0  0  2  0  0  0  0  0  0
  161.4440  205.5500  152.6830 C   0  0  0  0  0  1  0  0  0  0  0  0
  162.0050  207.5910  149.8140 C   0  0  0  0  0  2  0  0  0  0  0  0
  160.9870  206.7560  149.3490 O   0  0  0  0  0  0  0  0  0  0  0  0
  161.4470  206.2920  148.1140 C   0  0  0  0  0  2  0  0  0  0  0  0
  162.3010  204.2310  147.2480 O   0  0  0  0  0  1  0  0  0  0  0  0
  161.2770  204.7830  148.0200 C   0  0  0  0  0  3  0  0  0  0  0  0
  161.2920  204.2170  149.2960 O   0  0  0  0  0  1  0  0  0  0  0  0
  160.1320  210.5530  152.3700 C   0  0  0  0  0  2  0  0  0  0  0  0
  158.9540  210.8840  153.2800 C   0  0  0  0  0  2  0  0  0  0  0  0
  158.7270  212.3920  153.3930 C   0  0  2  0  0  0  0  0  0  0  0  0
  157.1460  214.1770  154.2110 O   0  0  0  0  0  1  0  0  0  0  0  0
  159.1390  212.9250  154.7560 C   0  0  0  0  0  2  0  0  0  0  0  0
  157.6740  212.8910  154.3680 C   0  0  2  0  0  0  0  0  0  0  0  0
  159.1360  213.3260  152.2570 C   0  0  0  0  0  2  0  0  0  0  0  0
  158.2770  213.1650  151.1680 O   0  0  0  0  0  0  0  0  0  0  0  0
  160.2340  213.3330  149.8300 C   0  0  0  0  0  1  0  0  0  0  0  0
  158.8680  213.9050  150.1440 C   0  0  0  0  0  2  0  0  0  0  0  0
  156.9490  211.9790  155.1490 O   0  0  0  0  0  0  0  0  0  0  0  0
  155.7410  212.6100  155.4620 C   0  0  0  0  0  2  0  0  0  0  0  0
  155.6140  212.8130  157.2610 S   0  0  0  0  0  1  0  0  0  0  0  0
  1 18  1  6  0  0  0
  1  2  1  0  0  0  0
  2  4  1  0  0  0  0
  2  3  2  0  0  0  0
  4  5  1  0  0  0  0
  5  6  1  0  0  0  0
  8  7  1  6  0  0  0
  8  1  1  0  0  0  0
  9 12  1  6  0  0  0
  9 10  1  0  0  0  0
  9  8  1  0  0  0  0
 10 11  1  0  0  0  0
 13 12  1  0  0  0  0
 14 13  1  0  0  0  0
 15 16  1  0  0  0  0
 16 14  1  0  0  0  0
 16 17  1  0  0  0  0
 18 19  1  0  0  0  0
 19 20  1  0  0  0  0
 20 24  1  6  0  0  0
 20 23  1  0  0  0  0
 20 22  1  0  0  0  0
 23 21  1  6  0  0  0
 23 22  1  0  0  0  0
 23 28  1  0  0  0  0
 25 24  1  0  0  0  0
 26 27  1  0  0  0  0
 27 25  1  0  0  0  0
 28 29  1  0  0  0  0
 29 30  1  0  0  0  0
M  END
>  <MODEL>
6

>  <REMARK>
 VINA RESULT:      -5.1      4.092      9.053
  Name = 
  18 active torsions:
  status: ('A' for Active; 'I' for Inactive)
    1  A    between atoms: C_1  and  C_4
    2  A    between atoms: C_1  and  C_22
    3  A    between atoms: C_2  and  N_14
    4  A    between atoms: C_2  and  C_29
    5  A    between atoms: C_3  and  C_11
    6  A    between atoms: C_4  and  C_5
    7  A    between atoms: C_5  and  O_21
    8  A    between atoms: C_11  and  C_23
    9  A    between atoms: C_11  and  C_24
   10  A    between atoms: C_12  and  O_27
   11  A    between atoms: C_13  and  O_27
   12  A    between atoms: N_14  and  C_20
   13  A    between atoms: O_15  and  C_24
   14  A    between atoms: O_15  and  C_25
   15  A    between atoms: C_16  and  C_25
   16  A    between atoms: C_17  and  O_21
   17  A    between atoms: C_22  and  C_29
   18  A    between atoms: C_23  and  C_29
                            x       y       z     vdW  Elec       q    Type
                         _______ _______ _______ _____ _____    ______ ____

>  <TORSDO>
F 18

$$$$
=
 OpenBabel11052422043D

 30 30  0  0  1  0  0  0  0  0999 V2000
  160.5840  209.2060  152.5360 C   0  0  2  0  0  3  0  0  0  0  0  0
  160.9110  208.8130  153.9510 C   0  0  0  0  0  0  0  0  0  0  0  0
  160.8500  207.2330  154.4160 S   0  0  0  0  0  0  0  0  0  0  0  0
  161.3450  209.8290  154.8600 N   0  0  0  0  0  2  0  0  0  0  0  0
  160.7050  210.0890  156.1390 C   0  0  0  0  0  2  0  0  0  0  0  0
  159.3200  210.0980  155.9730 O   0  0  0  0  0  1  0  0  0  0  0  0
  162.2460  209.9460  150.7680 C   0  0  0  0  0  1  0  0  0  0  0  0
  161.6700  208.7620  151.5410 C   0  0  2  0  0  3  0  0  0  0  0  0
  161.2030  207.6360  150.5980 C   0  0  1  0  0  3  0  0  0  0  0  0
  161.5260  207.9050  149.1340 C   0  0  0  0  0  2  0  0  0  0  0  0
  161.0370  206.7590  148.2710 C   0  0  0  0  0  1  0  0  0  0  0  0
  161.7920  206.2980  151.0150 C   0  0  0  0  0  2  0  0  0  0  0  0
  160.7860  205.3320  151.0690 O   0  0  0  0  0  0  0  0  0  0  0  0
  161.4380  204.1260  150.8040 C   0  0  0  0  0  2  0  0  0  0  0  0
  161.0610  203.1890  148.6340 O   0  0  0  0  0  1  0  0  0  0  0  0
  160.5640  203.2310  149.9380 C   0  0  0  0  0  3  0  0  0  0  0  0
  160.5230  201.9390  150.4680 O   0  0  0  0  0  1  0  0  0  0  0  0
  160.3710  210.7150  152.4630 C   0  0  0  0  0  2  0  0  0  0  0  0
  158.9270  211.0900  152.7730 C   0  0  0  0  0  2  0  0  0  0  0  0
  158.7220  212.6050  152.7880 C   0  0  2  0  0  0  0  0  0  0  0  0
  157.0800  214.4530  153.2820 O   0  0  0  0  0  1  0  0  0  0  0  0
  158.9360  213.1910  154.1750 C   0  0  0  0  0  2  0  0  0  0  0  0
  157.5460  213.1650  153.5700 C   0  0  2  0  0  0  0  0  0  0  0  0
  159.3210  213.4810  151.6900 C   0  0  0  0  0  2  0  0  0  0  0  0
  158.5870  213.3430  150.5100 O   0  0  0  0  0  0  0  0  0  0  0  0
  160.6790  213.2970  149.3820 C   0  0  0  0  0  1  0  0  0  0  0  0
  159.3490  214.0020  149.5460 C   0  0  0  0  0  2  0  0  0  0  0  0
  156.6890  212.3030  154.2680 O   0  0  0  0  0  0  0  0  0  0  0  0
  156.3370  212.9720  155.4440 C   0  0  0  0  0  2  0  0  0  0  0  0
  155.7050  211.7750  156.6530 S   0  0  0  0  0  1  0  0  0  0  0  0
  1 18  1  1  0  0  0
  1  2  1  0  0  0  0
  2  3  2  0  0  0  0
  2  4  1  0  0  0  0
  4  5  1  0  0  0  0
  6  5  1  0  0  0  0
  8  7  1  6  0  0  0
  8  1  1  0  0  0  0
  9 10  1  6  0  0  0
  9 12  1  0  0  0  0
  9  8  1  0  0  0  0
 11 10  1  0  0  0  0
 12 13  1  0  0  0  0
 14 13  1  0  0  0  0
 15 16  1  0  0  0  0
 16 17  1  0  0  0  0
 16 14  1  0  0  0  0
 18 19  1  0  0  0  0
 19 20  1  0  0  0  0
 20 24  1  6  0  0  0
 20 23  1  0  0  0  0
 20 22  1  0  0  0  0
 23 21  1  6  0  0  0
 23 22  1  0  0  0  0
 23 28  1  0  0  0  0
 25 24  1  0  0  0  0
 26 27  1  0  0  0  0
 27 25  1  0  0  0  0
 28 29  1  0  0  0  0
 29 30  1  0  0  0  0
M  END
>  <MODEL>
7

>  <REMARK>
 VINA RESULT:      -5.0      4.024      8.872
  Name = 
  18 active torsions:
  status: ('A' for Active; 'I' for Inactive)
    1  A    between atoms: C_1  and  C_4
    2  A    between atoms: C_1  and  C_22
    3  A    between atoms: C_2  and  N_14
    4  A    between atoms: C_2  and  C_29
    5  A    between atoms: C_3  and  C_11
    6  A    between atoms: C_4  and  C_5
    7  A    between atoms: C_5  and  O_21
    8  A    between atoms: C_11  and  C_23
    9  A    between atoms: C_11  and  C_24
   10  A    between atoms: C_12  and  O_27
   11  A    between atoms: C_13  and  O_27
   12  A    between atoms: N_14  and  C_20
   13  A    between atoms: O_15  and  C_24
   14  A    between atoms: O_15  and  C_25
   15  A    between atoms: C_16  and  C_25
   16  A    between atoms: C_17  and  O_21
   17  A    between atoms: C_22  and  C_29
   18  A    between atoms: C_23  and  C_29
                            x       y       z     vdW  Elec       q    Type
                         _______ _______ _______ _____ _____    ______ ____

>  <TORSDO>
F 18

$$$$
=
 OpenBabel11052422043D

 30 30  0  0  1  0  0  0  0  0999 V2000
  161.4340  207.3520  150.7070 C   0  0  2  0  0  3  0  0  0  0  0  0
  161.9630  208.4990  149.8910 C   0  0  0  0  0  0  0  0  0  0  0  0
  162.1690  208.3430  148.2640 S   0  0  0  0  0  0  0  0  0  0  0  0
  162.2120  209.7470  150.5470 N   0  0  0  0  0  2  0  0  0  0  0  0
  161.5890  211.0000  150.1510 C   0  0  0  0  0  2  0  0  0  0  0  0
  162.3170  211.5720  149.1080 O   0  0  0  0  0  1  0  0  0  0  0  0
  162.6430  206.0930  152.5490 C   0  0  0  0  0  1  0  0  0  0  0  0
  161.9340  207.3900  152.1610 C   0  0  2  0  0  3  0  0  0  0  0  0
  160.8310  207.7630  153.1710 C   0  0  1  0  0  3  0  0  0  0  0  0
  160.6150  206.7020  154.2440 C   0  0  0  0  0  2  0  0  0  0  0  0
  160.3920  207.3600  155.5910 C   0  0  0  0  0  1  0  0  0  0  0  0
  161.1260  209.1020  153.8270 C   0  0  0  0  0  2  0  0  0  0  0  0
  160.1230  210.0180  153.5050 O   0  0  0  0  0  0  0  0  0  0  0  0
  160.3960  211.1360  154.2970 C   0  0  0  0  0  2  0  0  0  0  0  0
  158.2920  212.0780  153.6540 O   0  0  0  0  0  1  0  0  0  0  0  0
  159.1010  211.7890  154.7550 C   0  0  0  0  0  3  0  0  0  0  0  0
  158.4180  210.9420  155.6300 O   0  0  0  0  0  1  0  0  0  0  0  0
  161.8160  206.0340  150.0400 C   0  0  0  0  0  2  0  0  0  0  0  0
  160.7380  205.5670  149.0680 C   0  0  0  0  0  2  0  0  0  0  0  0
  161.2380  204.4440  148.1590 C   0  0  2  0  0  0  0  0  0  0  0  0
  161.2490  203.5620  145.7970 O   0  0  0  0  0  1  0  0  0  0  0  0
  162.5060  204.8400  147.4170 C   0  0  0  0  0  2  0  0  0  0  0  0
  161.2060  204.6660  146.6560 C   0  0  2  0  0  0  0  0  0  0  0  0
  161.2850  203.0030  148.6590 C   0  0  0  0  0  2  0  0  0  0  0  0
  160.1800  202.7380  149.4710 O   0  0  0  0  0  0  0  0  0  0  0  0
  161.1870  200.7530  148.6370 C   0  0  0  0  0  1  0  0  0  0  0  0
  160.0800  201.3470  149.4830 C   0  0  0  0  0  2  0  0  0  0  0  0
  160.7410  205.8810  146.1330 O   0  0  0  0  0  0  0  0  0  0  0  0
  160.2520  205.5930  144.8560 C   0  0  0  0  0  2  0  0  0  0  0  0
  161.5790  205.8130  143.6380 S   0  0  0  0  0  1  0  0  0  0  0  0
  1 18  1  6  0  0  0
  1  8  1  0  0  0  0
  2  4  1  0  0  0  0
  2  1  1  0  0  0  0
  3  2  2  0  0  0  0
  5  4  1  0  0  0  0
  6  5  1  0  0  0  0
  8  7  1  1  0  0  0
  8  9  1  0  0  0  0
  9 12  1  1  0  0  0
  9 10  1  0  0  0  0
 10 11  1  0  0  0  0
 13 12  1  0  0  0  0
 13 14  1  0  0  0  0
 14 16  1  0  0  0  0
 15 16  1  0  0  0  0
 16 17  1  0  0  0  0
 19 18  1  0  0  0  0
 20 24  1  1  0  0  0
 20 19  1  0  0  0  0
 22 20  1  0  0  0  0
 23 21  1  6  0  0  0
 23 22  1  0  0  0  0
 23 20  1  0  0  0  0
 24 25  1  0  0  0  0
 25 27  1  0  0  0  0
 26 27  1  0  0  0  0
 28 23  1  0  0  0  0
 29 28  1  0  0  0  0
 30 29  1  0  0  0  0
M  END
>  <MODEL>
8

>  <REMARK>
 VINA RESULT:      -4.9      1.907      2.287
  Name = 
  18 active torsions:
  status: ('A' for Active; 'I' for Inactive)
    1  A    between atoms: C_1  and  C_4
    2  A    between atoms: C_1  and  C_22
    3  A    between atoms: C_2  and  N_14
    4  A    between atoms: C_2  and  C_29
    5  A    between atoms: C_3  and  C_11
    6  A    between atoms: C_4  and  C_5
    7  A    between atoms: C_5  and  O_21
    8  A    between atoms: C_11  and  C_23
    9  A    between atoms: C_11  and  C_24
   10  A    between atoms: C_12  and  O_27
   11  A    between atoms: C_13  and  O_27
   12  A    between atoms: N_14  and  C_20
   13  A    between atoms: O_15  and  C_24
   14  A    between atoms: O_15  and  C_25
   15  A    between atoms: C_16  and  C_25
   16  A    between atoms: C_17  and  O_21
   17  A    between atoms: C_22  and  C_29
   18  A    between atoms: C_23  and  C_29
                            x       y       z     vdW  Elec       q    Type
                         _______ _______ _______ _____ _____    ______ ____

>  <TORSDO>
F 18

$$$$
=
 OpenBabel11052422043D

 30 30  0  0  1  0  0  0  0  0999 V2000
  160.9650  208.1580  151.6130 C   0  0  2  0  0  3  0  0  0  0  0  0
  161.0920  206.6940  151.9370 C   0  0  0  0  0  0  0  0  0  0  0  0
  161.3540  206.1990  153.4860 S   0  0  0  0  0  0  0  0  0  0  0  0
  160.9060  205.7430  150.8840 N   0  0  0  0  0  2  0  0  0  0  0  0
  161.1390  204.3160  151.0400 C   0  0  0  0  0  2  0  0  0  0  0  0
  160.9480  203.6760  149.8160 O   0  0  0  0  0  1  0  0  0  0  0  0
  162.8090  209.8930  151.4540 C   0  0  0  0  0  1  0  0  0  0  0  0
  162.1580  208.6790  150.7930 C   0  0  2  0  0  3  0  0  0  0  0  0
  161.8050  208.9510  149.3180 C   0  0  1  0  0  3  0  0  0  0  0  0
  162.3300  210.2890  148.8110 C   0  0  0  0  0  2  0  0  0  0  0  0
  161.1880  211.1300  148.2760 C   0  0  0  0  0  1  0  0  0  0  0  0
  162.3090  207.8300  148.4230 C   0  0  0  0  0  2  0  0  0  0  0  0
  161.2330  207.2190  147.7780 O   0  0  0  0  0  0  0  0  0  0  0  0
  161.7170  205.9670  147.3900 C   0  0  0  0  0  2  0  0  0  0  0  0
  161.8860  204.4870  145.5160 O   0  0  0  0  0  1  0  0  0  0  0  0
  161.6300  205.8110  145.8790 C   0  0  0  0  0  3  0  0  0  0  0  0
  160.3610  206.1850  145.4300 O   0  0  0  0  0  1  0  0  0  0  0  0
  160.8110  208.9530  152.9060 C   0  0  0  0  0  2  0  0  0  0  0  0
  159.7190  210.0100  152.7840 C   0  0  0  0  0  2  0  0  0  0  0  0
  159.4870  210.7450  154.1050 C   0  0  2  0  0  0  0  0  0  0  0  0
  159.6700  212.9670  155.2800 O   0  0  0  0  0  1  0  0  0  0  0  0
  158.1600  211.4880  154.1120 C   0  0  0  0  0  2  0  0  0  0  0  0
  159.4620  212.2640  154.0890 C   0  0  2  0  0  0  0  0  0  0  0  0
  159.7740  210.0580  155.4370 C   0  0  0  0  0  2  0  0  0  0  0  0
  161.0280  210.4430  155.9170 O   0  0  0  0  0  0  0  0  0  0  0  0
  160.7300  208.2740  156.8440 C   0  0  0  0  0  1  0  0  0  0  0  0
  161.6870  209.2410  156.1780 C   0  0  0  0  0  2  0  0  0  0  0  0
  159.6330  212.9590  152.8830 O   0  0  0  0  0  0  0  0  0  0  0  0
  158.3760  213.4680  152.5460 C   0  0  0  0  0  2  0  0  0  0  0  0
  158.1900  213.4670  150.7400 S   0  0  0  0  0  1  0  0  0  0  0  0
  1  2  1  0  0  0  0
  1 18  1  1  0  0  0
  2  3  2  0  0  0  0
  4  5  1  0  0  0  0
  4  2  1  0  0  0  0
  6  5  1  0  0  0  0
  8  7  1  1  0  0  0
  8  1  1  0  0  0  0
  9 12  1  6  0  0  0
  9  8  1  0  0  0  0
 10  9  1  0  0  0  0
 11 10  1  0  0  0  0
 13 12  1  0  0  0  0
 14 13  1  0  0  0  0
 15 16  1  0  0  0  0
 16 14  1  0  0  0  0
 17 16  1  0  0  0  0
 19 18  1  0  0  0  0
 20 19  1  6  0  0  0
 20 22  1  0  0  0  0
 20 24  1  0  0  0  0
 23 20  1  0  0  0  0
 23 22  1  0  0  0  0
 23 21  1  1  0  0  0
 24 25  1  0  0  0  0
 25 27  1  0  0  0  0
 27 26  1  0  0  0  0
 28 23  1  0  0  0  0
 29 28  1  0  0  0  0
 30 29  1  0  0  0  0
M  END
>  <MODEL>
9

>  <REMARK>
 VINA RESULT:      -4.8      2.936      8.594
  Name = 
  18 active torsions:
  status: ('A' for Active; 'I' for Inactive)
    1  A    between atoms: C_1  and  C_4
    2  A    between atoms: C_1  and  C_22
    3  A    between atoms: C_2  and  N_14
    4  A    between atoms: C_2  and  C_29
    5  A    between atoms: C_3  and  C_11
    6  A    between atoms: C_4  and  C_5
    7  A    between atoms: C_5  and  O_21
    8  A    between atoms: C_11  and  C_23
    9  A    between atoms: C_11  and  C_24
   10  A    between atoms: C_12  and  O_27
   11  A    between atoms: C_13  and  O_27
   12  A    between atoms: N_14  and  C_20
   13  A    between atoms: O_15  and  C_24
   14  A    between atoms: O_15  and  C_25
   15  A    between atoms: C_16  and  C_25
   16  A    between atoms: C_17  and  O_21
   17  A    between atoms: C_22  and  C_29
   18  A    between atoms: C_23  and  C_29
                            x       y       z     vdW  Elec       q    Type
                         _______ _______ _______ _____ _____    ______ ____

>  <TORSDO>
F 18

$$$$
