=
 OpenBabel11052423203D

 27 30  0  0  1  0  0  0  0  0999 V2000
  161.5940  209.3410  150.7000 C   0  0  2  0  0  3  0  0  0  0  0  0
  161.3520  209.5430  152.1870 C   0  0  1  0  0  3  0  0  0  0  0  0
  161.8140  207.1360  151.7780 C   0  0  2  0  0  0  0  0  0  0  0  0
  159.9970  210.1620  152.4450 C   0  0  0  0  0  2  0  0  0  0  0  0
  161.3190  206.1260  149.0860 C   0  0  0  0  0  0  0  0  0  0  0  0
  162.9230  206.4500  152.2770 O   0  0  0  0  0  1  0  0  0  0  0  0
  161.0380  205.6070  147.8280 O   0  0  0  0  0  1  0  0  0  0  0  0
  160.9120  207.8930  153.9810 C   0  0  0  0  0  3  0  0  0  0  0  0
  160.3840  208.9400  154.9330 C   0  0  2  0  0  3  0  0  0  0  0  0
  162.2200  207.9530  150.5380 C   0  0  1  0  0  3  0  0  0  0  0  0
  161.3680  208.1720  152.7530 C   0  0  0  0  0  0  0  0  0  0  0  0
  161.0170  205.2870  150.2890 C   0  0  0  0  0  2  0  0  0  0  0  0
  159.8650  210.5650  154.2190 S   0  0  0  0  0  0  0  0  0  0  0  0
  162.2030  208.0450  148.0420 O   0  0  0  0  0  1  0  0  0  0  0  0
  161.8890  207.3340  149.1960 C   0  0  0  0  0  0  0  0  0  0  0  0
  160.6720  206.1610  151.4850 C   0  0  0  0  0  2  0  0  0  0  0  0
  161.2950  209.1320  156.0570 N   0  0  0  0  0  2  0  0  0  0  0  0
  163.2630  210.1450  157.2610 C   0  0  0  0  0  1  0  0  0  0  0  0
  162.6600  210.7440  155.0440 O   0  0  0  0  0  0  0  0  0  0  0  0
  162.4030  210.0380  156.0540 C   0  0  0  0  0  0  0  0  0  0  0  0
  162.4650  210.4530  150.1020 C   0  0  0  0  0  2  0  0  0  0  0  0
  160.2550  213.3920  147.8810 C   0  0  0  0  0  3  0  0  0  0  0  0
  161.6840  211.4690  149.3280 C   0  0  0  0  0  0  0  0  0  0  0  0
  161.0240  212.5060  149.9980 C   0  0  0  0  0  3  0  0  0  0  0  0
  160.3100  213.4660  149.2760 C   0  0  0  0  0  3  0  0  0  0  0  0
  160.9120  212.3580  147.2090 C   0  0  0  0  0  3  0  0  0  0  0  0
  161.6260  211.3970  147.9310 C   0  0  0  0  0  3  0  0  0  0  0  0
  1 21  1  1  0  0  0
  1  2  1  0  0  0  0
  2  4  1  6  0  0  0
  2 11  1  0  0  0  0
  3  6  1  1  0  0  0
  3 11  1  0  0  0  0
  4 13  1  0  0  0  0
  5 15  2  0  0  0  0
  5 12  1  0  0  0  0
  7  5  1  0  0  0  0
  8  9  1  0  0  0  0
  9 17  1  1  0  0  0
 10 15  1  6  0  0  0
 10  1  1  0  0  0  0
 10  3  1  0  0  0  0
 11  8  2  0  0  0  0
 12 16  1  0  0  0  0
 13  9  1  0  0  0  0
 14 15  1  0  0  0  0
 16  3  1  0  0  0  0
 19 20  2  0  0  0  0
 20 17  1  0  0  0  0
 20 18  1  0  0  0  0
 22 25  1  0  0  0  0
 23 24  1  0  0  0  0
 23 21  1  0  0  0  0
 25 24  2  0  0  0  0
 26 22  2  0  0  0  0
 26 27  1  0  0  0  0
 27 23  2  0  0  0  0
M  END
>  <MODEL>
1

>  <REMARK>
 VINA RESULT:      -6.7      0.000      0.000
  Name = 
  3 active torsions:
  status: ('A' for Active; 'I' for Inactive)
    1  A    between atoms: C_1  and  C_15
    2  A    between atoms: N_4  and  C_17
    3  A    between atoms: C_9  and  C_15
                            x       y       z     vdW  Elec       q    Type
                         _______ _______ _______ _____ _____    ______ ____

>  <TORSDO>
F 3

$$$$
=
 OpenBabel11052423203D

 27 30  0  0  1  0  0  0  0  0999 V2000
  159.6430  211.4440  153.1470 C   0  0  2  0  0  3  0  0  0  0  0  0
  160.0910  210.1110  152.5710 C   0  0  1  0  0  3  0  0  0  0  0  0
  160.1900  209.9760  155.0490 C   0  0  2  0  0  0  0  0  0  0  0  0
  161.2680  210.2830  151.6360 C   0  0  0  0  0  2  0  0  0  0  0  0
  160.4310  212.4910  156.5100 C   0  0  0  0  0  0  0  0  0  0  0  0
  159.4000  209.1240  155.8250 O   0  0  0  0  0  1  0  0  0  0  0  0
  160.6020  213.6690  157.2260 O   0  0  0  0  0  1  0  0  0  0  0  0
  161.2530  208.2060  153.6440 C   0  0  0  0  0  3  0  0  0  0  0  0
  161.6600  207.5980  152.3230 C   0  0  2  0  0  3  0  0  0  0  0  0
  159.3720  211.2130  154.6370 C   0  0  1  0  0  3  0  0  0  0  0  0
  160.5260  209.3260  153.7510 C   0  0  0  0  0  0  0  0  0  0  0  0
  161.1480  211.2610  156.9740 C   0  0  0  0  0  2  0  0  0  0  0  0
  161.6110  208.6850  150.8270 S   0  0  0  0  0  0  0  0  0  0  0  0
  158.9140  213.6240  155.1060 O   0  0  0  0  0  1  0  0  0  0  0  0
  159.6010  212.4660  155.4560 C   0  0  0  0  0  0  0  0  0  0  0  0
  161.4700  210.3480  155.8010 C   0  0  0  0  0  2  0  0  0  0  0  0
  160.9490  206.3470  152.0810 N   0  0  0  0  0  2  0  0  0  0  0  0
  160.7530  203.8910  151.5470 C   0  0  0  0  0  1  0  0  0  0  0  0
  162.8380  205.0150  151.6980 O   0  0  0  0  0  0  0  0  0  0  0  0
  161.5850  205.1010  151.7760 C   0  0  0  0  0  0  0  0  0  0  0  0
  158.4250  212.0120  152.4080 C   0  0  0  0  0  2  0  0  0  0  0  0
  159.4830  214.4520  149.0340 C   0  0  0  0  0  3  0  0  0  0  0  0
  158.7880  212.8730  151.2380 C   0  0  0  0  0  0  0  0  0  0  0  0
  160.0440  213.4870  151.1820 C   0  0  0  0  0  3  0  0  0  0  0  0
  160.3910  214.2760  150.0820 C   0  0  0  0  0  3  0  0  0  0  0  0
  158.2270  213.8400  149.0870 C   0  0  0  0  0  3  0  0  0  0  0  0
  157.8800  213.0510  150.1880 C   0  0  0  0  0  3  0  0  0  0  0  0
  1 21  1  6  0  0  0
  1 10  1  0  0  0  0
  2  4  1  6  0  0  0
  2  1  1  0  0  0  0
  2 11  1  0  0  0  0
  3 16  1  0  0  0  0
  3  6  1  1  0  0  0
  5 12  1  0  0  0  0
  5  7  1  0  0  0  0
  8 11  2  0  0  0  0
  9 17  1  6  0  0  0
  9  8  1  0  0  0  0
 10  3  1  0  0  0  0
 10 15  1  1  0  0  0
 11  3  1  0  0  0  0
 13  4  1  0  0  0  0
 13  9  1  0  0  0  0
 14 15  1  0  0  0  0
 15  5  2  0  0  0  0
 16 12  1  0  0  0  0
 18 20  1  0  0  0  0
 19 20  2  0  0  0  0
 20 17  1  0  0  0  0
 22 26  2  0  0  0  0
 22 25  1  0  0  0  0
 23 21  1  0  0  0  0
 24 23  1  0  0  0  0
 25 24  2  0  0  0  0
 26 27  1  0  0  0  0
 27 23  2  0  0  0  0
M  END
>  <MODEL>
2

>  <REMARK>
 VINA RESULT:      -5.9      2.585      5.896
  Name = 
  3 active torsions:
  status: ('A' for Active; 'I' for Inactive)
    1  A    between atoms: C_1  and  C_15
    2  A    between atoms: N_4  and  C_17
    3  A    between atoms: C_9  and  C_15
                            x       y       z     vdW  Elec       q    Type
                         _______ _______ _______ _____ _____    ______ ____

>  <TORSDO>
F 3

$$$$
=
 OpenBabel11052423203D

 27 30  0  0  1  0  0  0  0  0999 V2000
  161.2170  206.0270  150.9380 C   0  0  2  0  0  3  0  0  0  0  0  0
  161.4030  207.4820  150.5380 C   0  0  1  0  0  3  0  0  0  0  0  0
  160.8530  206.1640  148.5050 C   0  0  2  0  0  0  0  0  0  0  0  0
  162.7730  207.9900  150.9310 C   0  0  0  0  0  2  0  0  0  0  0  0
  161.4190  203.3030  148.5800 C   0  0  0  0  0  0  0  0  0  0  0  0
  159.6930  206.3350  147.7450 O   0  0  0  0  0  1  0  0  0  0  0  0
  161.7310  201.9490  148.5690 O   0  0  0  0  0  1  0  0  0  0  0  0
  161.6910  208.5080  148.3030 C   0  0  0  0  0  3  0  0  0  0  0  0
  162.2230  209.8030  148.8710 C   0  0  2  0  0  3  0  0  0  0  0  0
  160.5380  205.3270  149.7570 C   0  0  1  0  0  3  0  0  0  0  0  0
  161.3010  207.4730  149.0590 C   0  0  0  0  0  0  0  0  0  0  0  0
  161.6300  204.0950  147.3270 C   0  0  0  0  0  2  0  0  0  0  0  0
  162.8450  209.7840  150.6120 S   0  0  0  0  0  0  0  0  0  0  0  0
  160.6680  203.0610  150.8000 O   0  0  0  0  0  1  0  0  0  0  0  0
  160.8990  203.8580  149.6840 C   0  0  0  0  0  0  0  0  0  0  0  0
  161.9620  205.5430  147.6520 C   0  0  0  0  0  2  0  0  0  0  0  0
  161.2740  210.8930  148.6680 N   0  0  0  0  0  2  0  0  0  0  0  0
  160.5820  213.2550  148.1290 C   0  0  0  0  0  1  0  0  0  0  0  0
  162.8460  212.5440  148.1340 O   0  0  0  0  0  0  0  0  0  0  0  0
  161.6400  212.2280  148.3060 C   0  0  0  0  0  0  0  0  0  0  0  0
  160.4240  205.8850  152.2430 C   0  0  0  0  0  2  0  0  0  0  0  0
  161.1800  209.0190  155.0830 C   0  0  0  0  0  3  0  0  0  0  0  0
  160.7010  206.9780  153.2290 C   0  0  0  0  0  0  0  0  0  0  0  0
  160.4100  208.3070  152.9010 C   0  0  0  0  0  3  0  0  0  0  0  0
  160.6490  209.3270  153.8270 C   0  0  0  0  0  3  0  0  0  0  0  0
  161.4720  207.6920  155.4130 C   0  0  0  0  0  3  0  0  0  0  0  0
  161.2330  206.6720  154.4870 C   0  0  0  0  0  3  0  0  0  0  0  0
  1 21  1  1  0  0  0
  2  4  1  6  0  0  0
  2  1  1  0  0  0  0
  3  6  1  6  0  0  0
  3 11  1  0  0  0  0
  3 10  1  0  0  0  0
  5 15  2  0  0  0  0
  7  5  1  0  0  0  0
  8  9  1  0  0  0  0
  8 11  2  0  0  0  0
  9 17  1  1  0  0  0
  9 13  1  0  0  0  0
 10 15  1  6  0  0  0
 10  1  1  0  0  0  0
 11  2  1  0  0  0  0
 12 16  1  0  0  0  0
 12  5  1  0  0  0  0
 13  4  1  0  0  0  0
 15 14  1  0  0  0  0
 16  3  1  0  0  0  0
 18 20  1  0  0  0  0
 19 20  2  0  0  0  0
 20 17  1  0  0  0  0
 21 23  1  0  0  0  0
 22 26  1  0  0  0  0
 23 27  1  0  0  0  0
 24 23  2  0  0  0  0
 24 25  1  0  0  0  0
 25 22  2  0  0  0  0
 27 26  2  0  0  0  0
M  END
>  <MODEL>
3

>  <REMARK>
 VINA RESULT:      -5.4      2.744      5.859
  Name = 
  3 active torsions:
  status: ('A' for Active; 'I' for Inactive)
    1  A    between atoms: C_1  and  C_15
    2  A    between atoms: N_4  and  C_17
    3  A    between atoms: C_9  and  C_15
                            x       y       z     vdW  Elec       q    Type
                         _______ _______ _______ _____ _____    ______ ____

>  <TORSDO>
F 3

$$$$
=
 OpenBabel11052423203D

 27 30  0  0  1  0  0  0  0  0999 V2000
  161.5930  206.3780  149.7280 C   0  0  2  0  0  3  0  0  0  0  0  0
  161.6210  207.4080  150.8460 C   0  0  1  0  0  3  0  0  0  0  0  0
  161.6870  205.1380  151.8550 C   0  0  2  0  0  0  0  0  0  0  0  0
  160.4190  208.3240  150.7820 C   0  0  0  0  0  2  0  0  0  0  0  0
  160.6360  202.9390  150.2520 C   0  0  0  0  0  0  0  0  0  0  0  0
  162.7600  204.6340  152.5930 O   0  0  0  0  0  1  0  0  0  0  0  0
  160.0900  201.8830  149.5320 O   0  0  0  0  0  1  0  0  0  0  0  0
  161.2580  207.1440  153.2810 C   0  0  0  0  0  3  0  0  0  0  0  0
  161.0340  208.6220  153.4960 C   0  0  2  0  0  3  0  0  0  0  0  0
  161.9940  205.0380  150.3510 C   0  0  1  0  0  3  0  0  0  0  0  0
  161.5450  206.6040  152.0900 C   0  0  0  0  0  0  0  0  0  0  0  0
  160.4220  202.9800  151.7330 C   0  0  0  0  0  2  0  0  0  0  0  0
  160.6280  209.6520  152.0140 S   0  0  0  0  0  0  0  0  0  0  0  0
  161.5890  203.7440  148.2520 O   0  0  0  0  0  1  0  0  0  0  0  0
  161.3730  203.8650  149.6210 C   0  0  0  0  0  0  0  0  0  0  0  0
  160.3920  204.4150  152.2350 C   0  0  0  0  0  2  0  0  0  0  0  0
  162.1300  209.2130  154.2560 N   0  0  0  0  0  2  0  0  0  0  0  0
  163.1640  210.7540  155.9620 C   0  0  0  0  0  1  0  0  0  0  0  0
  160.8300  210.6800  155.5380 O   0  0  0  0  0  0  0  0  0  0  0  0
  161.9690  210.2270  155.2530 C   0  0  0  0  0  0  0  0  0  0  0  0
  162.4960  206.7770  148.5550 C   0  0  0  0  0  2  0  0  0  0  0  0
  160.9690  205.5060  144.7460 C   0  0  0  0  0  3  0  0  0  0  0  0
  161.9660  206.3460  147.2220 C   0  0  0  0  0  0  0  0  0  0  0  0
  162.7910  205.6480  146.3330 C   0  0  0  0  0  3  0  0  0  0  0  0
  162.2930  205.2280  145.0960 C   0  0  0  0  0  3  0  0  0  0  0  0
  160.1420  206.2040  145.6320 C   0  0  0  0  0  3  0  0  0  0  0  0
  160.6410  206.6230  146.8690 C   0  0  0  0  0  3  0  0  0  0  0  0
  1 21  1  6  0  0  0
  1 10  1  0  0  0  0
  1  2  1  0  0  0  0
  2  4  1  6  0  0  0
  2 11  1  0  0  0  0
  3 11  1  0  0  0  0
  3 16  1  0  0  0  0
  3  6  1  1  0  0  0
  4 13  1  0  0  0  0
  5 12  1  0  0  0  0
  7  5  1  0  0  0  0
  8  9  1  0  0  0  0
  9 17  1  6  0  0  0
 10 15  1  6  0  0  0
 10  3  1  0  0  0  0
 11  8  2  0  0  0  0
 12 16  1  0  0  0  0
 13  9  1  0  0  0  0
 14 15  1  0  0  0  0
 15  5  2  0  0  0  0
 17 20  1  0  0  0  0
 20 19  2  0  0  0  0
 20 18  1  0  0  0  0
 22 25  2  0  0  0  0
 22 26  1  0  0  0  0
 23 21  1  0  0  0  0
 24 23  2  0  0  0  0
 25 24  1  0  0  0  0
 26 27  2  0  0  0  0
 27 23  1  0  0  0  0
M  END
>  <MODEL>
4

>  <REMARK>
 VINA RESULT:      -5.1      2.819      4.183
  Name = 
  3 active torsions:
  status: ('A' for Active; 'I' for Inactive)
    1  A    between atoms: C_1  and  C_15
    2  A    between atoms: N_4  and  C_17
    3  A    between atoms: C_9  and  C_15
                            x       y       z     vdW  Elec       q    Type
                         _______ _______ _______ _____ _____    ______ ____

>  <TORSDO>
F 3

$$$$
=
 OpenBabel11052423203D

 27 30  0  0  1  0  0  0  0  0999 V2000
  161.6240  206.9610  151.8680 C   0  0  2  0  0  3  0  0  0  0  0  0
  161.8880  207.9060  150.7070 C   0  0  1  0  0  3  0  0  0  0  0  0
  161.5910  209.2530  152.7730 C   0  0  2  0  0  0  0  0  0  0  0  0
  160.8670  207.7210  149.6050 C   0  0  0  0  0  2  0  0  0  0  0  0
  160.0920  208.0280  154.9560 C   0  0  0  0  0  0  0  0  0  0  0  0
  162.5890  210.0410  153.3500 O   0  0  0  0  0  1  0  0  0  0  0  0
  159.3340  207.4900  155.9880 O   0  0  0  0  0  1  0  0  0  0  0  0
  161.5940  210.3590  150.5330 C   0  0  0  0  0  3  0  0  0  0  0  0
  161.6480  210.3450  149.0240 C   0  0  2  0  0  3  0  0  0  0  0  0
  161.8070  207.7770  153.1520 C   0  0  1  0  0  3  0  0  0  0  0  0
  161.7250  209.2600  151.2880 C   0  0  0  0  0  0  0  0  0  0  0  0
  159.9560  209.4890  154.6550 C   0  0  0  0  0  2  0  0  0  0  0  0
  161.3670  208.7290  148.1690 S   0  0  0  0  0  0  0  0  0  0  0  0
  161.0820  205.9120  154.6470 O   0  0  0  0  0  1  0  0  0  0  0  0
  160.9530  207.2490  154.2850 C   0  0  0  0  0  0  0  0  0  0  0  0
  160.2070  209.7630  153.1810 C   0  0  0  0  0  2  0  0  0  0  0  0
  162.8660  210.9860  148.5380 N   0  0  0  0  0  2  0  0  0  0  0  0
  164.2440  212.8880  147.6240 C   0  0  0  0  0  1  0  0  0  0  0  0
  161.9300  213.0910  148.1130 O   0  0  0  0  0  0  0  0  0  0  0  0
  162.9450  212.3470  148.1000 C   0  0  0  0  0  0  0  0  0  0  0  0
  162.5310  205.7250  151.8220 C   0  0  0  0  0  2  0  0  0  0  0  0
  160.6730  202.2730  150.0630 C   0  0  0  0  0  3  0  0  0  0  0  0
  161.8710  204.5260  151.2140 C   0  0  0  0  0  0  0  0  0  0  0  0
  161.4890  204.5440  149.8670 C   0  0  0  0  0  3  0  0  0  0  0  0
  160.8900  203.4190  149.2930 C   0  0  0  0  0  3  0  0  0  0  0  0
  161.0540  202.2520  151.4090 C   0  0  0  0  0  3  0  0  0  0  0  0
  161.6520  203.3780  151.9830 C   0  0  0  0  0  3  0  0  0  0  0  0
  1 21  1  1  0  0  0
  1 10  1  0  0  0  0
  2  4  1  6  0  0  0
  2 11  1  0  0  0  0
  2  1  1  0  0  0  0
  3 10  1  0  0  0  0
  3 16  1  0  0  0  0
  3  6  1  1  0  0  0
  5  7  1  0  0  0  0
  8 11  2  0  0  0  0
  9 17  1  1  0  0  0
  9  8  1  0  0  0  0
 10 15  1  1  0  0  0
 11  3  1  0  0  0  0
 12  5  1  0  0  0  0
 13  9  1  0  0  0  0
 13  4  1  0  0  0  0
 15 14  1  0  0  0  0
 15  5  2  0  0  0  0
 16 12  1  0  0  0  0
 18 20  1  0  0  0  0
 20 19  2  0  0  0  0
 20 17  1  0  0  0  0
 22 26  1  0  0  0  0
 23 21  1  0  0  0  0
 23 27  1  0  0  0  0
 24 23  2  0  0  0  0
 25 24  1  0  0  0  0
 25 22  2  0  0  0  0
 26 27  2  0  0  0  0
M  END
>  <MODEL>
5

>  <REMARK>
 VINA RESULT:      -4.9      3.097      6.823
  Name = 
  3 active torsions:
  status: ('A' for Active; 'I' for Inactive)
    1  A    between atoms: C_1  and  C_15
    2  A    between atoms: N_4  and  C_17
    3  A    between atoms: C_9  and  C_15
                            x       y       z     vdW  Elec       q    Type
                         _______ _______ _______ _____ _____    ______ ____

>  <TORSDO>
F 3

$$$$
=
 OpenBabel11052423203D

 27 30  0  0  1  0  0  0  0  0999 V2000
  160.4100  211.0410  152.9260 C   0  0  2  0  0  3  0  0  0  0  0  0
  160.6530  209.7330  152.1920 C   0  0  1  0  0  3  0  0  0  0  0  0
  160.6570  209.2830  154.6350 C   0  0  2  0  0  0  0  0  0  0  0  0
  161.8690  209.8220  151.2970 C   0  0  0  0  0  2  0  0  0  0  0  0
  161.2580  211.5280  156.4000 C   0  0  0  0  0  0  0  0  0  0  0  0
  159.7180  208.4840  155.2910 O   0  0  0  0  0  1  0  0  0  0  0  0
  161.5970  212.5660  157.2590 O   0  0  0  0  0  1  0  0  0  0  0  0
  161.4610  207.5470  153.0300 C   0  0  0  0  0  3  0  0  0  0  0  0
  161.8030  207.0460  151.6470 C   0  0  2  0  0  3  0  0  0  0  0  0
  160.0630  210.6780  154.3730 C   0  0  1  0  0  3  0  0  0  0  0  0
  160.9220  208.7490  153.2690 C   0  0  0  0  0  0  0  0  0  0  0  0
  161.7540  210.1500  156.7130 C   0  0  0  0  0  2  0  0  0  0  0  0
  161.9730  208.2990  150.2970 S   0  0  0  0  0  0  0  0  0  0  0  0
  159.9860  213.0560  155.1350 O   0  0  0  0  0  1  0  0  0  0  0  0
  160.4670  211.7670  155.3440 C   0  0  0  0  0  0  0  0  0  0  0  0
  161.9590  209.3460  155.4390 C   0  0  0  0  0  2  0  0  0  0  0  0
  160.9060  205.9660  151.2440 N   0  0  0  0  0  2  0  0  0  0  0  0
  160.2490  203.5670  150.8390 C   0  0  0  0  0  1  0  0  0  0  0  0
  162.3820  204.1970  151.6700 O   0  0  0  0  0  0  0  0  0  0  0  0
  161.2480  204.5770  151.2770 C   0  0  0  0  0  0  0  0  0  0  0  0
  159.3220  211.8860  152.2530 C   0  0  0  0  0  2  0  0  0  0  0  0
  155.9230  212.5750  154.7890 C   0  0  0  0  0  3  0  0  0  0  0  0
  158.1290  212.1260  153.1260 C   0  0  0  0  0  0  0  0  0  0  0  0
  157.5320  211.0570  153.8050 C   0  0  0  0  0  3  0  0  0  0  0  0
  156.4300  211.2820  154.6350 C   0  0  0  0  0  3  0  0  0  0  0  0
  156.5170  213.6440  154.1120 C   0  0  0  0  0  3  0  0  0  0  0  0
  157.6190  213.4200  153.2810 C   0  0  0  0  0  3  0  0  0  0  0  0
  1 21  1  6  0  0  0
  1 10  1  0  0  0  0
  2  4  1  6  0  0  0
  2  1  1  0  0  0  0
  2 11  1  0  0  0  0
  3  6  1  1  0  0  0
  3 16  1  0  0  0  0
  5 12  1  0  0  0  0
  5  7  1  0  0  0  0
  8 11  2  0  0  0  0
  9 17  1  6  0  0  0
  9  8  1  0  0  0  0
 10  3  1  0  0  0  0
 10 15  1  1  0  0  0
 11  3  1  0  0  0  0
 13  4  1  0  0  0  0
 13  9  1  0  0  0  0
 14 15  1  0  0  0  0
 15  5  2  0  0  0  0
 16 12  1  0  0  0  0
 17 20  1  0  0  0  0
 18 20  1  0  0  0  0
 20 19  2  0  0  0  0
 21 23  1  0  0  0  0
 23 27  2  0  0  0  0
 23 24  1  0  0  0  0
 24 25  2  0  0  0  0
 25 22  1  0  0  0  0
 26 22  2  0  0  0  0
 27 26  1  0  0  0  0
M  END
>  <MODEL>
6

>  <REMARK>
 VINA RESULT:      -4.7      2.957      6.431
  Name = 
  3 active torsions:
  status: ('A' for Active; 'I' for Inactive)
    1  A    between atoms: C_1  and  C_15
    2  A    between atoms: N_4  and  C_17
    3  A    between atoms: C_9  and  C_15
                            x       y       z     vdW  Elec       q    Type
                         _______ _______ _______ _____ _____    ______ ____

>  <TORSDO>
F 3

$$$$
=
 OpenBabel11052423203D

 27 30  0  0  1  0  0  0  0  0999 V2000
  161.6170  207.0960  151.6050 C   0  0  2  0  0  3  0  0  0  0  0  0
  161.3820  205.7510  150.9360 C   0  0  1  0  0  3  0  0  0  0  0  0
  162.2950  207.3270  149.2470 C   0  0  2  0  0  0  0  0  0  0  0  0
  159.9390  205.3160  151.0670 C   0  0  0  0  0  2  0  0  0  0  0  0
  161.9310  210.1770  149.7550 C   0  0  0  0  0  0  0  0  0  0  0  0
  163.5300  207.1760  148.6150 O   0  0  0  0  0  1  0  0  0  0  0  0
  161.7210  211.5380  149.9450 O   0  0  0  0  0  1  0  0  0  0  0  0
  161.3240  205.1380  148.5380 C   0  0  0  0  0  3  0  0  0  0  0  0
  160.6290  203.8230  148.8020 C   0  0  2  0  0  3  0  0  0  0  0  0
  162.4980  207.9130  150.6560 C   0  0  1  0  0  3  0  0  0  0  0  0
  161.6820  205.9930  149.5050 C   0  0  0  0  0  0  0  0  0  0  0  0
  161.8340  209.6260  148.3660 C   0  0  0  0  0  2  0  0  0  0  0  0
  159.7810  203.6130  150.4320 S   0  0  0  0  0  0  0  0  0  0  0  0
  162.3920  209.9780  152.0580 O   0  0  0  0  0  1  0  0  0  0  0  0
  162.2560  209.4010  150.7990 C   0  0  0  0  0  0  0  0  0  0  0  0
  161.3580  208.1820  148.3900 C   0  0  0  0  0  2  0  0  0  0  0  0
  161.5160  202.6970  148.5270 N   0  0  0  0  0  2  0  0  0  0  0  0
  162.0700  200.3150  147.9200 C   0  0  0  0  0  1  0  0  0  0  0  0
  159.8430  201.1200  148.0800 O   0  0  0  0  0  0  0  0  0  0  0  0
  161.0700  201.3830  148.1750 C   0  0  0  0  0  0  0  0  0  0  0  0
  162.2350  206.9450  153.0000 C   0  0  0  0  0  2  0  0  0  0  0  0
  159.6520  208.3470  156.1340 C   0  0  0  0  0  3  0  0  0  0  0  0
  161.3450  207.4320  154.1020 C   0  0  0  0  0  0  0  0  0  0  0  0
  161.1780  208.8060  154.3120 C   0  0  0  0  0  3  0  0  0  0  0  0
  160.3320  209.2630  155.3270 C   0  0  0  0  0  3  0  0  0  0  0  0
  159.8170  206.9740  155.9270 C   0  0  0  0  0  3  0  0  0  0  0  0
  160.6630  206.5170  154.9110 C   0  0  0  0  0  3  0  0  0  0  0  0
  1 21  1  1  0  0  0
  2  4  1  6  0  0  0
  2  1  1  0  0  0  0
  3  6  1  6  0  0  0
  3 11  1  0  0  0  0
  3 10  1  0  0  0  0
  5  7  1  0  0  0  0
  5 15  2  0  0  0  0
  8  9  1  0  0  0  0
  8 11  2  0  0  0  0
  9 17  1  1  0  0  0
  9 13  1  0  0  0  0
 10 15  1  6  0  0  0
 10  1  1  0  0  0  0
 11  2  1  0  0  0  0
 12 16  1  0  0  0  0
 12  5  1  0  0  0  0
 13  4  1  0  0  0  0
 15 14  1  0  0  0  0
 16  3  1  0  0  0  0
 18 20  1  0  0  0  0
 19 20  2  0  0  0  0
 20 17  1  0  0  0  0
 21 23  1  0  0  0  0
 23 24  2  0  0  0  0
 23 27  1  0  0  0  0
 24 25  1  0  0  0  0
 25 22  2  0  0  0  0
 26 22  1  0  0  0  0
 27 26  2  0  0  0  0
M  END
>  <MODEL>
7

>  <REMARK>
 VINA RESULT:      -4.0      3.280      7.099
  Name = 
  3 active torsions:
  status: ('A' for Active; 'I' for Inactive)
    1  A    between atoms: C_1  and  C_15
    2  A    between atoms: N_4  and  C_17
    3  A    between atoms: C_9  and  C_15
                            x       y       z     vdW  Elec       q    Type
                         _______ _______ _______ _____ _____    ______ ____

>  <TORSDO>
F 3

$$$$
=
 OpenBabel11052423203D

 27 30  0  0  1  0  0  0  0  0999 V2000
  161.5710  205.2900  150.3010 C   0  0  2  0  0  3  0  0  0  0  0  0
  161.2800  203.8780  149.8190 C   0  0  1  0  0  3  0  0  0  0  0  0
  161.9350  205.2630  147.8640 C   0  0  2  0  0  0  0  0  0  0  0  0
  159.8740  203.4520  150.1820 C   0  0  0  0  0  2  0  0  0  0  0  0
  161.5820  208.1500  148.1010 C   0  0  0  0  0  0  0  0  0  0  0  0
  163.0830  205.0510  147.0960 O   0  0  0  0  0  1  0  0  0  0  0  0
  161.3710  209.5220  148.1660 O   0  0  0  0  0  1  0  0  0  0  0  0
  160.9260  203.0030  147.5300 C   0  0  0  0  0  3  0  0  0  0  0  0
  160.2970  201.7220  148.0230 C   0  0  2  0  0  3  0  0  0  0  0  0
  162.3060  206.0030  149.1620 C   0  0  1  0  0  3  0  0  0  0  0  0
  161.3880  203.9620  148.3430 C   0  0  0  0  0  0  0  0  0  0  0  0
  161.3190  207.4470  146.8050 C   0  0  0  0  0  2  0  0  0  0  0  0
  159.6710  201.6880  149.7630 S   0  0  0  0  0  0  0  0  0  0  0  0
  162.3390  208.2100  150.3320 O   0  0  0  0  0  1  0  0  0  0  0  0
  162.0550  207.4960  149.1720 C   0  0  0  0  0  0  0  0  0  0  0  0
  160.8790  206.0120  147.0480 C   0  0  0  0  0  2  0  0  0  0  0  0
  161.1650  200.5780  147.7600 N   0  0  0  0  0  2  0  0  0  0  0  0
  162.1300  198.7080  146.3720 C   0  0  0  0  0  1  0  0  0  0  0  0
  160.4660  200.1920  145.5570 O   0  0  0  0  0  0  0  0  0  0  0  0
  161.2040  199.8610  146.5210 C   0  0  0  0  0  0  0  0  0  0  0  0
  162.3660  205.2990  151.6120 C   0  0  0  0  0  2  0  0  0  0  0  0
  160.4640  207.5910  154.7080 C   0  0  0  0  0  3  0  0  0  0  0  0
  161.7150  206.0980  152.6980 C   0  0  0  0  0  0  0  0  0  0  0  0
  161.5970  207.4870  152.5710 C   0  0  0  0  0  3  0  0  0  0  0  0
  160.9720  208.2330  153.5760 C   0  0  0  0  0  3  0  0  0  0  0  0
  160.5800  206.2030  154.8380 C   0  0  0  0  0  3  0  0  0  0  0  0
  161.2050  205.4580  153.8330 C   0  0  0  0  0  3  0  0  0  0  0  0
  1 21  1  1  0  0  0
  2  4  1  6  0  0  0
  2  1  1  0  0  0  0
  3  6  1  6  0  0  0
  3 11  1  0  0  0  0
  3 10  1  0  0  0  0
  5  7  1  0  0  0  0
  5 15  2  0  0  0  0
  8  9  1  0  0  0  0
  8 11  2  0  0  0  0
  9 17  1  1  0  0  0
  9 13  1  0  0  0  0
 10 15  1  6  0  0  0
 10  1  1  0  0  0  0
 11  2  1  0  0  0  0
 12 16  1  0  0  0  0
 12  5  1  0  0  0  0
 13  4  1  0  0  0  0
 15 14  1  0  0  0  0
 16  3  1  0  0  0  0
 18 20  1  0  0  0  0
 19 20  2  0  0  0  0
 20 17  1  0  0  0  0
 21 23  1  0  0  0  0
 22 26  1  0  0  0  0
 23 27  1  0  0  0  0
 24 23  2  0  0  0  0
 24 25  1  0  0  0  0
 25 22  2  0  0  0  0
 27 26  2  0  0  0  0
M  END
>  <MODEL>
8

>  <REMARK>
 VINA RESULT:      -4.0      4.205      7.960
  Name = 
  3 active torsions:
  status: ('A' for Active; 'I' for Inactive)
    1  A    between atoms: C_1  and  C_15
    2  A    between atoms: N_4  and  C_17
    3  A    between atoms: C_9  and  C_15
                            x       y       z     vdW  Elec       q    Type
                         _______ _______ _______ _____ _____    ______ ____

>  <TORSDO>
F 3

$$$$
=
 OpenBabel11052423203D

 27 30  0  0  1  0  0  0  0  0999 V2000
  161.8720  210.9200  152.4180 C   0  0  2  0  0  3  0  0  0  0  0  0
  161.6940  210.4110  153.8390 C   0  0  1  0  0  3  0  0  0  0  0  0
  159.5330  211.3540  153.0580 C   0  0  2  0  0  0  0  0  0  0  0  0
  162.6700  211.0740  154.7870 C   0  0  0  0  0  2  0  0  0  0  0  0
  159.6390  213.3110  150.8960 C   0  0  0  0  0  0  0  0  0  0  0  0
  158.3650  210.6080  152.8810 O   0  0  0  0  0  1  0  0  0  0  0  0
  159.6660  214.2860  149.9070 O   0  0  0  0  0  1  0  0  0  0  0  0
  159.8760  210.8090  155.4710 C   0  0  0  0  0  3  0  0  0  0  0  0
  160.7070  210.3410  156.6420 C   0  0  2  0  0  3  0  0  0  0  0  0
  160.4680  211.1530  151.8520 C   0  0  1  0  0  3  0  0  0  0  0  0
  160.3170  210.8170  154.2070 C   0  0  0  0  0  0  0  0  0  0  0  0
  158.6560  213.4560  152.0170 C   0  0  0  0  0  2  0  0  0  0  0  0
  162.5410  210.2670  156.4180 S   0  0  0  0  0  0  0  0  0  0  0  0
  161.3030  212.1350  149.7130 O   0  0  0  0  0  1  0  0  0  0  0  0
  160.4520  212.2480  150.8070 C   0  0  0  0  0  0  0  0  0  0  0  0
  159.1940  212.8280  153.2930 C   0  0  0  0  0  2  0  0  0  0  0  0
  160.1970  209.0810  157.1760 N   0  0  0  0  0  2  0  0  0  0  0  0
  159.9130  206.5780  157.2600 C   0  0  0  0  0  1  0  0  0  0  0  0
  161.2410  207.6710  155.6240 O   0  0  0  0  0  0  0  0  0  0  0  0
  160.4940  207.7920  156.6300 C   0  0  0  0  0  0  0  0  0  0  0  0
  162.7000  209.9550  151.5600 C   0  0  0  0  0  2  0  0  0  0  0  0
  160.8040  206.1590  150.8850 C   0  0  0  0  0  3  0  0  0  0  0  0
  162.0270  208.6370  151.3280 C   0  0  0  0  0  0  0  0  0  0  0  0
  161.6280  208.2720  150.0370 C   0  0  0  0  0  3  0  0  0  0  0  0
  161.0170  207.0340  149.8160 C   0  0  0  0  0  3  0  0  0  0  0  0
  161.2000  206.5220  152.1760 C   0  0  0  0  0  3  0  0  0  0  0  0
  161.8120  207.7600  152.3970 C   0  0  0  0  0  3  0  0  0  0  0  0
  1 21  1  6  0  0  0
  1  2  1  0  0  0  0
  2 11  1  0  0  0  0
  2  4  1  1  0  0  0
  3  6  1  6  0  0  0
  3 16  1  0  0  0  0
  3 11  1  0  0  0  0
  4 13  1  0  0  0  0
  5 12  1  0  0  0  0
  7  5  1  0  0  0  0
  8  9  1  0  0  0  0
  9 17  1  6  0  0  0
 10 15  1  6  0  0  0
 10  1  1  0  0  0  0
 10  3  1  0  0  0  0
 11  8  2  0  0  0  0
 12 16  1  0  0  0  0
 13  9  1  0  0  0  0
 14 15  1  0  0  0  0
 15  5  2  0  0  0  0
 19 20  2  0  0  0  0
 20 17  1  0  0  0  0
 20 18  1  0  0  0  0
 22 26  1  0  0  0  0
 23 21  1  0  0  0  0
 23 27  1  0  0  0  0
 24 23  2  0  0  0  0
 25 24  1  0  0  0  0
 25 22  2  0  0  0  0
 26 27  2  0  0  0  0
M  END
>  <MODEL>
9

>  <REMARK>
 VINA RESULT:      -4.0      2.626      5.197
  Name = 
  3 active torsions:
  status: ('A' for Active; 'I' for Inactive)
    1  A    between atoms: C_1  and  C_15
    2  A    between atoms: N_4  and  C_17
    3  A    between atoms: C_9  and  C_15
                            x       y       z     vdW  Elec       q    Type
                         _______ _______ _______ _____ _____    ______ ____

>  <TORSDO>
F 3

$$$$
