=
 OpenBabel11062409183D

 37 41  0  0  1  0  0  0  0  0999 V2000
  157.7350  210.3750  154.9420 S   0  0  0  0  0  0  0  0  0  0  0  0
  161.2540  209.3920  151.9900 C   0  0  2  0  0  3  0  0  0  0  0  0
  156.4230  211.5740  154.6410 C   0  0  2  0  0  3  0  0  0  0  0  0
  160.2340  213.1980  151.4790 C   0  0  0  0  0  2  0  0  0  0  0  0
  160.4390  210.6970  152.0080 C   0  0  2  0  0  3  0  0  0  0  0  0
  161.6630  209.1160  153.4220 C   0  0  1  0  0  3  0  0  0  0  0  0
  161.0950  211.9340  151.3270 C   0  0  1  0  0  3  0  0  0  0  0  0
  156.9910  212.8470  154.4830 O   0  0  0  0  0  0  0  0  0  0  0  0
  160.6230  209.8050  154.2800 C   0  0  2  0  0  3  0  0  0  0  0  0
  161.9450  209.1970  149.8570 C   0  0  0  0  0  2  0  0  0  0  0  0
  158.1620  212.7290  153.6990 C   0  0  2  0  0  0  0  0  0  0  0  0
  158.7720  212.9200  151.1590 C   0  0  0  0  0  2  0  0  0  0  0  0
  162.3850  209.4650  151.1640 O   0  0  0  0  0  0  0  0  0  0  0  0
  160.0860  210.9750  153.4640 C   0  0  2  0  0  3  0  0  0  0  0  0
  161.6390  211.7040  149.8810 C   0  0  1  0  0  3  0  0  0  0  0  0
  157.8520  213.3330  152.3100 C   0  0  0  0  0  2  0  0  0  0  0  0
  158.5660  211.2380  153.5970 C   0  0  1  0  0  3  0  0  0  0  0  0
  161.1960  210.3890  149.2450 C   0  0  0  0  0  2  0  0  0  0  0  0
  159.2630  213.5470  154.3990 C   0  0  0  0  0  2  0  0  0  0  0  0
  158.8450  214.0430  155.7750 C   0  0  0  0  0  1  0  0  0  0  0  0
  155.4510  212.9590  156.4690 C   0  0  0  0  0  1  0  0  0  0  0  0
  155.4510  211.5950  155.8060 C   0  0  0  0  0  2  0  0  0  0  0  0
  161.2310  210.2910  155.5540 C   0  0  0  0  0  0  0  0  0  0  0  0
  162.2830  210.9840  155.5110 O   0  0  0  0  0  0  0  0  0  0  0  0
  160.6310  209.9810  156.7780 O   0  0  0  0  0  0  0  0  0  0  0  0
  160.5320  208.6480  157.2610 C   0  0  0  0  0  2  0  0  0  0  0  0
  161.7600  208.0010  157.1190 O   0  0  0  0  0  1  0  0  0  0  0  0
  161.4350  212.8580  148.9020 C   0  0  0  0  0  2  0  0  0  0  0  0
  162.5950  213.1420  146.7340 C   0  0  0  0  0  2  0  0  0  0  0  0
  160.2970  212.5460  146.8070 O   0  0  0  0  0  0  0  0  0  0  0  0
  160.0320  212.2510  144.5490 O   0  0  0  0  0  1  0  0  0  0  0  0
  162.0730  213.1730  145.3390 C   0  0  0  0  0  2  0  0  0  0  0  0
  160.5800  213.0740  145.5330 C   0  0  2  0  0  3  0  0  0  0  0  0
  161.5290  212.3700  147.4650 C   0  0  2  0  0  3  0  0  0  0  0  0
  161.6610  207.6230  153.7050 C   0  0  0  0  0  2  0  0  0  0  0  0
  160.9470  206.8750  152.5960 C   0  0  0  0  0  2  0  0  0  0  0  0
  161.3400  205.5370  152.6100 O   0  0  0  0  0  1  0  0  0  0  0  0
  2 13  1  6  0  0  0
  2  5  1  0  0  0  0
  2  6  1  0  0  0  0
  3  1  1  0  0  0  0
  3 22  1  1  0  0  0
  5 14  1  0  0  0  0
  6 35  1  0  0  0  0
  6  9  1  0  0  0  0
  7  4  1  0  0  0  0
  7  5  1  0  0  0  0
  8  3  1  0  0  0  0
  9 23  1  0  0  0  0
 10 13  1  0  0  0  0
 11 19  1  0  0  0  0
 11  8  1  0  0  0  0
 12  4  1  0  0  0  0
 12 16  1  0  0  0  0
 14 17  1  0  0  0  0
 14  9  1  0  0  0  0
 15  7  1  0  0  0  0
 16 11  1  0  0  0  0
 17 11  1  0  0  0  0
 17  1  1  0  0  0  0
 18 10  1  0  0  0  0
 18 15  1  0  0  0  0
 19 20  1  0  0  0  0
 22 21  1  0  0  0  0
 23 25  1  0  0  0  0
 24 23  2  0  0  0  0
 25 26  1  0  0  0  0
 27 26  1  0  0  0  0
 28 15  1  0  0  0  0
 29 34  1  0  0  0  0
 30 34  1  0  0  0  0
 31 33  1  0  0  0  0
 32 33  1  0  0  0  0
 32 29  1  0  0  0  0
 33 30  1  0  0  0  0
 34 28  1  0  0  0  0
 36 37  1  0  0  0  0
 36 35  1  0  0  0  0
M  END
>  <MODEL>
1

>  <REMARK>
 VINA RESULT:      -3.9      0.000      0.000
  Name = 
  9 active torsions:
  status: ('A' for Active; 'I' for Inactive)
    1  A    between atoms: C_3  and  O_32
    2  A    between atoms: C_5  and  C_23
    3  A    between atoms: C_6  and  C_31
    4  A    between atoms: C_6  and  C_35
    5  A    between atoms: C_9  and  C_13
    6  A    between atoms: C_9  and  C_16
    7  A    between atoms: C_11  and  C_26
    8  A    between atoms: C_20  and  C_21
    9  A    between atoms: C_21  and  O_32
                            x       y       z     vdW  Elec       q    Type
                         _______ _______ _______ _____ _____    ______ ____

>  <TORSDO>
F 9

$$$$
=
 OpenBabel11062409183D

 37 41  0  0  1  0  0  0  0  0999 V2000
  157.7780  210.5230  154.6830 S   0  0  0  0  0  0  0  0  0  0  0  0
  160.9910  210.4220  151.2580 C   0  0  2  0  0  3  0  0  0  0  0  0
  156.3770  211.6540  154.7680 C   0  0  2  0  0  3  0  0  0  0  0  0
  159.7130  214.1640  151.6480 C   0  0  0  0  0  2  0  0  0  0  0  0
  160.1120  211.6300  151.6260 C   0  0  2  0  0  3  0  0  0  0  0  0
  161.5730  209.8980  152.5540 C   0  0  1  0  0  3  0  0  0  0  0  0
  160.6190  213.0250  151.1540 C   0  0  1  0  0  3  0  0  0  0  0  0
  156.8530  212.9730  154.8210 O   0  0  0  0  0  0  0  0  0  0  0  0
  160.6000  210.3190  153.6340 C   0  0  2  0  0  3  0  0  0  0  0  0
  161.4460  210.7100  149.0730 C   0  0  0  0  0  2  0  0  0  0  0  0
  157.9320  213.1040  153.9180 C   0  0  2  0  0  0  0  0  0  0  0  0
  158.2420  213.8440  151.4240 C   0  0  0  0  0  2  0  0  0  0  0  0
  162.0160  210.7450  150.3570 O   0  0  0  0  0  0  0  0  0  0  0  0
  159.9110  211.5850  153.1360 C   0  0  2  0  0  3  0  0  0  0  0  0
  161.0080  213.1310  149.6440 C   0  0  1  0  0  3  0  0  0  0  0  0
  157.4360  213.9470  152.7210 C   0  0  0  0  0  2  0  0  0  0  0  0
  158.4030  211.6980  153.4700 C   0  0  1  0  0  3  0  0  0  0  0  0
  160.5700  211.9400  148.7980 C   0  0  0  0  0  2  0  0  0  0  0  0
  159.0590  213.8470  154.6580 C   0  0  0  0  0  2  0  0  0  0  0  0
  158.6330  214.3460  156.0310 C   0  0  0  0  0  1  0  0  0  0  0  0
  155.6670  212.5030  157.0000 C   0  0  0  0  0  1  0  0  0  0  0  0
  155.5420  211.3670  156.0020 C   0  0  0  0  0  2  0  0  0  0  0  0
  161.3200  210.5870  154.9150 C   0  0  0  0  0  0  0  0  0  0  0  0
  162.5280  210.9430  154.8810 O   0  0  0  0  0  0  0  0  0  0  0  0
  160.6520  210.4460  156.1350 O   0  0  0  0  0  0  0  0  0  0  0  0
  160.9020  209.3620  157.0190 C   0  0  0  0  0  2  0  0  0  0  0  0
  160.1640  208.2470  156.6230 O   0  0  0  0  0  1  0  0  0  0  0  0
  160.6330  214.4380  148.9510 C   0  0  0  0  0  2  0  0  0  0  0  0
  160.1940  213.6840  146.6340 C   0  0  0  0  0  2  0  0  0  0  0  0
  162.4190  213.8680  147.4440 O   0  0  0  0  0  0  0  0  0  0  0  0
  163.4610  213.3820  145.4600 O   0  0  0  0  0  1  0  0  0  0  0  0
  161.1030  213.1230  145.5970 C   0  0  0  0  0  2  0  0  0  0  0  0
  162.4230  213.0200  146.3200 C   0  0  2  0  0  3  0  0  0  0  0  0
  161.1410  214.4530  147.5170 C   0  0  2  0  0  3  0  0  0  0  0  0
  161.6850  208.3830  152.5210 C   0  0  0  0  0  2  0  0  0  0  0  0
  161.4580  207.8650  151.1140 C   0  0  0  0  0  2  0  0  0  0  0  0
  162.6770  207.4840  150.5560 O   0  0  0  0  0  1  0  0  0  0  0  0
  1  3  1  0  0  0  0
  2 13  1  6  0  0  0
  2  5  1  0  0  0  0
  2  6  1  0  0  0  0
  3  8  1  0  0  0  0
  3 22  1  1  0  0  0
  5 14  1  0  0  0  0
  6  9  1  0  0  0  0
  7  5  1  0  0  0  0
  7  4  1  0  0  0  0
  9 23  1  0  0  0  0
 10 13  1  0  0  0  0
 11 19  1  0  0  0  0
 11  8  1  0  0  0  0
 12  4  1  0  0  0  0
 12 16  1  0  0  0  0
 14 17  1  0  0  0  0
 14  9  1  0  0  0  0
 15  7  1  0  0  0  0
 16 11  1  0  0  0  0
 17 11  1  0  0  0  0
 17  1  1  0  0  0  0
 18 10  1  0  0  0  0
 18 15  1  0  0  0  0
 19 20  1  0  0  0  0
 22 21  1  0  0  0  0
 23 25  1  0  0  0  0
 24 23  2  0  0  0  0
 25 26  1  0  0  0  0
 27 26  1  0  0  0  0
 28 15  1  0  0  0  0
 29 34  1  0  0  0  0
 30 34  1  0  0  0  0
 31 33  1  0  0  0  0
 32 33  1  0  0  0  0
 32 29  1  0  0  0  0
 33 30  1  0  0  0  0
 34 28  1  0  0  0  0
 35  6  1  0  0  0  0
 36 35  1  0  0  0  0
 37 36  1  0  0  0  0
M  END
>  <MODEL>
2

>  <REMARK>
 VINA RESULT:      -2.3      1.293      1.493
  Name = 
  9 active torsions:
  status: ('A' for Active; 'I' for Inactive)
    1  A    between atoms: C_3  and  O_32
    2  A    between atoms: C_5  and  C_23
    3  A    between atoms: C_6  and  C_31
    4  A    between atoms: C_6  and  C_35
    5  A    between atoms: C_9  and  C_13
    6  A    between atoms: C_9  and  C_16
    7  A    between atoms: C_11  and  C_26
    8  A    between atoms: C_20  and  C_21
    9  A    between atoms: C_21  and  O_32
                            x       y       z     vdW  Elec       q    Type
                         _______ _______ _______ _____ _____    ______ ____

>  <TORSDO>
F 9

$$$$
=
 OpenBabel11062409183D

 37 41  0  0  1  0  0  0  0  0999 V2000
  157.8970  211.6000  156.1780 S   0  0  0  0  0  0  0  0  0  0  0  0
  161.0250  208.3850  154.7870 C   0  0  2  0  0  3  0  0  0  0  0  0
  156.7560  212.4840  155.0970 C   0  0  2  0  0  3  0  0  0  0  0  0
  160.5370  210.9970  151.8330 C   0  0  0  0  0  2  0  0  0  0  0  0
  160.4110  209.4800  153.8970 C   0  0  2  0  0  3  0  0  0  0  0  0
  161.4860  209.0660  156.0580 C   0  0  1  0  0  3  0  0  0  0  0  0
  161.1920  209.8360  152.5980 C   0  0  1  0  0  3  0  0  0  0  0  0
  157.4910  213.2270  154.1610 O   0  0  0  0  0  0  0  0  0  0  0  0
  160.6190  210.2990  156.1940 C   0  0  2  0  0  3  0  0  0  0  0  0
  161.5320  206.7240  153.3550 C   0  0  0  0  0  2  0  0  0  0  0  0
  158.5750  212.4410  153.7070 C   0  0  2  0  0  0  0  0  0  0  0  0
  159.0320  210.8060  151.7120 C   0  0  0  0  0  2  0  0  0  0  0  0
  162.0950  207.7180  154.1740 O   0  0  0  0  0  0  0  0  0  0  0  0
  160.2030  210.7010  154.7840 C   0  0  2  0  0  3  0  0  0  0  0  0
  161.5960  208.6270  151.6960 C   0  0  1  0  0  3  0  0  0  0  0  0
  158.2630  212.0130  152.2550 C   0  0  0  0  0  2  0  0  0  0  0  0
  158.7500  211.2170  154.6390 C   0  0  1  0  0  3  0  0  0  0  0  0
  160.9250  207.3090  152.0730 C   0  0  0  0  0  2  0  0  0  0  0  0
  159.8290  213.3340  153.7370 C   0  0  0  0  0  2  0  0  0  0  0  0
  159.8650  214.3380  152.5950 C   0  0  0  0  0  1  0  0  0  0  0  0
  155.0170  214.2640  154.9900 C   0  0  0  0  0  1  0  0  0  0  0  0
  155.8790  213.4200  155.9090 C   0  0  0  0  0  2  0  0  0  0  0  0
  161.3770  211.4050  156.8510 C   0  0  0  0  0  0  0  0  0  0  0  0
  160.8130  212.5160  157.0360 O   0  0  0  0  0  0  0  0  0  0  0  0
  162.6990  211.1990  157.2590 O   0  0  0  0  0  0  0  0  0  0  0  0
  163.8020  211.3670  156.3780 C   0  0  0  0  0  2  0  0  0  0  0  0
  164.9110  211.8210  157.0910 O   0  0  0  0  0  1  0  0  0  0  0  0
  161.4960  208.8580  150.1900 C   0  0  0  0  0  2  0  0  0  0  0  0
  162.9420  207.4950  148.7140 C   0  0  0  0  0  2  0  0  0  0  0  0
  160.5790  207.4200  148.4950 O   0  0  0  0  0  0  0  0  0  0  0  0
  160.5150  205.7670  146.9070 O   0  0  0  0  0  1  0  0  0  0  0  0
  162.6230  206.6840  147.5060 C   0  0  0  0  0  2  0  0  0  0  0  0
  161.1520  206.9450  147.3000 C   0  0  2  0  0  3  0  0  0  0  0  0
  161.6200  207.5450  149.4330 C   0  0  2  0  0  3  0  0  0  0  0  0
  161.2870  208.1580  157.2600 C   0  0  0  0  0  2  0  0  0  0  0  0
  160.7550  206.8070  156.8210 C   0  0  0  0  0  2  0  0  0  0  0  0
  159.3660  206.7940  156.9360 O   0  0  0  0  0  1  0  0  0  0  0  0
  2 13  1  6  0  0  0
  2  6  1  0  0  0  0
  3 22  1  1  0  0  0
  3  1  1  0  0  0  0
  4  7  1  0  0  0  0
  5 14  1  0  0  0  0
  5  2  1  0  0  0  0
  6  9  1  0  0  0  0
  6 35  1  0  0  0  0
  7  5  1  0  0  0  0
  8  3  1  0  0  0  0
  9 23  1  0  0  0  0
 10 13  1  0  0  0  0
 11 19  1  0  0  0  0
 11  8  1  0  0  0  0
 11 17  1  0  0  0  0
 12  4  1  0  0  0  0
 12 16  1  0  0  0  0
 14  9  1  0  0  0  0
 15 18  1  0  0  0  0
 15  7  1  0  0  0  0
 16 11  1  0  0  0  0
 17 14  1  0  0  0  0
 17  1  1  0  0  0  0
 18 10  1  0  0  0  0
 20 19  1  0  0  0  0
 21 22  1  0  0  0  0
 23 24  2  0  0  0  0
 23 25  1  0  0  0  0
 26 27  1  0  0  0  0
 26 25  1  0  0  0  0
 28 15  1  0  0  0  0
 29 34  1  0  0  0  0
 30 34  1  0  0  0  0
 31 33  1  0  0  0  0
 32 29  1  0  0  0  0
 33 32  1  0  0  0  0
 33 30  1  0  0  0  0
 34 28  1  0  0  0  0
 36 37  1  0  0  0  0
 36 35  1  0  0  0  0
M  END
>  <MODEL>
3

>  <REMARK>
 VINA RESULT:      -1.9      2.813      3.645
  Name = 
  9 active torsions:
  status: ('A' for Active; 'I' for Inactive)
    1  A    between atoms: C_3  and  O_32
    2  A    between atoms: C_5  and  C_23
    3  A    between atoms: C_6  and  C_31
    4  A    between atoms: C_6  and  C_35
    5  A    between atoms: C_9  and  C_13
    6  A    between atoms: C_9  and  C_16
    7  A    between atoms: C_11  and  C_26
    8  A    between atoms: C_20  and  C_21
    9  A    between atoms: C_21  and  O_32
                            x       y       z     vdW  Elec       q    Type
                         _______ _______ _______ _____ _____    ______ ____

>  <TORSDO>
F 9

$$$$
=
 OpenBabel11062409183D

 37 41  0  0  1  0  0  0  0  0999 V2000
  159.8330  211.9290  151.6090 S   0  0  0  0  0  0  0  0  0  0  0  0
  160.8410  207.3500  151.8940 C   0  0  2  0  0  3  0  0  0  0  0  0
  159.6640  212.8680  150.0800 C   0  0  2  0  0  3  0  0  0  0  0  0
  162.5860  208.8020  148.6330 C   0  0  0  0  0  2  0  0  0  0  0  0
  161.1670  208.2660  150.7010 C   0  0  2  0  0  3  0  0  0  0  0  0
  161.3010  208.0790  153.1390 C   0  0  1  0  0  3  0  0  0  0  0  0
  162.2840  207.7740  149.7340 C   0  0  1  0  0  3  0  0  0  0  0  0
  160.8780  212.8270  149.3780 O   0  0  0  0  0  0  0  0  0  0  0  0
  161.2700  209.5500  152.7830 C   0  0  2  0  0  3  0  0  0  0  0  0
  160.6400  205.3020  150.9830 C   0  0  0  0  0  2  0  0  0  0  0  0
  161.4050  211.5180  149.4570 C   0  0  2  0  0  0  0  0  0  0  0  0
  161.3070  209.3390  148.0050 C   0  0  0  0  0  2  0  0  0  0  0  0
  161.4600  206.0950  151.8050 O   0  0  0  0  0  0  0  0  0  0  0  0
  161.4840  209.6410  151.2760 C   0  0  2  0  0  3  0  0  0  0  0  0
  162.1340  206.3080  149.2130 C   0  0  1  0  0  3  0  0  0  0  0  0
  161.2460  210.8670  148.0640 C   0  0  0  0  0  2  0  0  0  0  0  0
  160.6470  210.7220  150.5490 C   0  0  1  0  0  3  0  0  0  0  0  0
  160.7760  205.6760  149.5010 C   0  0  0  0  0  2  0  0  0  0  0  0
  162.8980  211.6480  149.8130 C   0  0  0  0  0  2  0  0  0  0  0  0
  163.7300  212.2090  148.6700 C   0  0  0  0  0  1  0  0  0  0  0  0
  158.8750  214.4530  151.8320 C   0  0  0  0  0  1  0  0  0  0  0  0
  159.3040  214.3110  150.3840 C   0  0  0  0  0  2  0  0  0  0  0  0
  162.3440  210.2890  153.5090 C   0  0  0  0  0  0  0  0  0  0  0  0
  163.5160  210.2890  153.0460 O   0  0  0  0  0  0  0  0  0  0  0  0
  162.0430  210.9770  154.6880 O   0  0  0  0  0  0  0  0  0  0  0  0
  162.5760  210.5950  155.9500 C   0  0  0  0  0  2  0  0  0  0  0  0
  163.8690  211.1010  156.0900 O   0  0  0  0  0  1  0  0  0  0  0  0
  162.5250  206.0770  147.7560 C   0  0  0  0  0  2  0  0  0  0  0  0
  162.1100  203.7600  146.9920 C   0  0  0  0  0  2  0  0  0  0  0  0
  161.2520  205.6070  145.7710 O   0  0  0  0  0  0  0  0  0  0  0  0
  160.0610  204.3800  144.2430 O   0  0  0  0  0  1  0  0  0  0  0  0
  161.5150  203.2340  145.7320 C   0  0  0  0  0  2  0  0  0  0  0  0
  161.2760  204.4840  144.9220 C   0  0  2  0  0  3  0  0  0  0  0  0
  161.5340  205.1490  147.0720 C   0  0  2  0  0  3  0  0  0  0  0  0
  160.3610  207.8070  154.3010 C   0  0  0  0  0  2  0  0  0  0  0  0
  161.1390  207.3330  155.5130 C   0  0  0  0  0  2  0  0  0  0  0  0
  160.2580  206.8030  156.4540 O   0  0  0  0  0  1  0  0  0  0  0  0
  2 13  1  6  0  0  0
  2  6  1  0  0  0  0
  3 22  1  1  0  0  0
  3  1  1  0  0  0  0
  4  7  1  0  0  0  0
  5 14  1  0  0  0  0
  5  2  1  0  0  0  0
  6 35  1  0  0  0  0
  7  5  1  0  0  0  0
  8 11  1  0  0  0  0
  8  3  1  0  0  0  0
  9  6  1  0  0  0  0
  9 23  1  0  0  0  0
 10 13  1  0  0  0  0
 11 19  1  0  0  0  0
 11 17  1  0  0  0  0
 12 16  1  0  0  0  0
 12  4  1  0  0  0  0
 14  9  1  0  0  0  0
 15 18  1  0  0  0  0
 15  7  1  0  0  0  0
 16 11  1  0  0  0  0
 17 14  1  0  0  0  0
 17  1  1  0  0  0  0
 18 10  1  0  0  0  0
 20 19  1  0  0  0  0
 22 21  1  0  0  0  0
 23 25  1  0  0  0  0
 24 23  2  0  0  0  0
 25 26  1  0  0  0  0
 26 27  1  0  0  0  0
 28 15  1  0  0  0  0
 29 34  1  0  0  0  0
 30 34  1  0  0  0  0
 31 33  1  0  0  0  0
 32 29  1  0  0  0  0
 33 32  1  0  0  0  0
 33 30  1  0  0  0  0
 34 28  1  0  0  0  0
 35 36  1  0  0  0  0
 36 37  1  0  0  0  0
M  END
>  <MODEL>
4

>  <REMARK>
 VINA RESULT:      -1.7      3.237      5.489
  Name = 
  9 active torsions:
  status: ('A' for Active; 'I' for Inactive)
    1  A    between atoms: C_3  and  O_32
    2  A    between atoms: C_5  and  C_23
    3  A    between atoms: C_6  and  C_31
    4  A    between atoms: C_6  and  C_35
    5  A    between atoms: C_9  and  C_13
    6  A    between atoms: C_9  and  C_16
    7  A    between atoms: C_11  and  C_26
    8  A    between atoms: C_20  and  C_21
    9  A    between atoms: C_21  and  O_32
                            x       y       z     vdW  Elec       q    Type
                         _______ _______ _______ _____ _____    ______ ____

>  <TORSDO>
F 9

$$$$
=
 OpenBabel11062409183D

 37 41  0  0  1  0  0  0  0  0999 V2000
  158.0260  209.5340  154.5190 S   0  0  0  0  0  0  0  0  0  0  0  0
  160.9770  207.9700  151.2170 C   0  0  2  0  0  3  0  0  0  0  0  0
  157.3100  211.1870  154.5830 C   0  0  2  0  0  3  0  0  0  0  0  0
  161.5720  211.8730  151.6630 C   0  0  0  0  0  2  0  0  0  0  0  0
  160.7460  209.4460  151.5850 C   0  0  2  0  0  3  0  0  0  0  0  0
  161.1870  207.2260  152.5200 C   0  0  1  0  0  3  0  0  0  0  0  0
  161.8650  210.4460  151.1720 C   0  0  1  0  0  3  0  0  0  0  0  0
  158.3420  212.1310  154.6910 O   0  0  0  0  0  0  0  0  0  0  0  0
  160.4730  208.0450  153.5740 C   0  0  2  0  0  3  0  0  0  0  0  0
  161.6150  208.0270  149.0600 C   0  0  0  0  0  2  0  0  0  0  0  0
  159.3990  211.7500  153.8330 C   0  0  2  0  0  0  0  0  0  0  0  0
  160.1330  212.2780  151.3740 C   0  0  0  0  0  2  0  0  0  0  0  0
  162.0750  207.7840  150.3650 O   0  0  0  0  0  0  0  0  0  0  0  0
  160.4770  209.4890  153.0840 C   0  0  2  0  0  3  0  0  0  0  0  0
  162.3290  210.3690  149.6810 C   0  0  1  0  0  3  0  0  0  0  0  0
  159.4090  212.7360  152.6420 C   0  0  0  0  0  2  0  0  0  0  0  0
  159.1810  210.2900  153.3640 C   0  0  1  0  0  3  0  0  0  0  0  0
  161.4260  209.5260  148.7860 C   0  0  0  0  0  2  0  0  0  0  0  0
  160.7060  211.8780  154.6360 C   0  0  0  0  0  2  0  0  0  0  0  0
  160.4660  212.1260  156.1180 C   0  0  0  0  0  1  0  0  0  0  0  0
  155.1630  210.4300  155.5920 C   0  0  0  0  0  1  0  0  0  0  0  0
  156.3810  211.3140  155.7760 C   0  0  0  0  0  2  0  0  0  0  0  0
  161.1750  207.9370  154.8870 C   0  0  0  0  0  0  0  0  0  0  0  0
  162.1770  207.1800  154.9920 O   0  0  0  0  0  0  0  0  0  0  0  0
  160.7220  208.6760  155.9840 O   0  0  0  0  0  0  0  0  0  0  0  0
  160.5060  208.0890  157.2600 C   0  0  0  0  0  2  0  0  0  0  0  0
  159.6810  206.9710  157.1330 O   0  0  0  0  0  1  0  0  0  0  0  0
  162.6380  211.7050  149.0110 C   0  0  0  0  0  2  0  0  0  0  0  0
  162.4050  212.7510  146.7790 C   0  0  0  0  0  2  0  0  0  0  0  0
  160.5590  212.6610  148.2710 O   0  0  0  0  0  0  0  0  0  0  0  0
  159.0100  213.5370  146.8240 O   0  0  0  0  0  1  0  0  0  0  0  0
  161.2970  213.5450  146.1790 C   0  0  0  0  0  2  0  0  0  0  0  0
  160.3100  213.6640  147.3150 C   0  0  2  0  0  3  0  0  0  0  0  0
  161.6970  211.9520  147.8420 C   0  0  2  0  0  3  0  0  0  0  0  0
  160.5820  205.8340  152.4490 C   0  0  0  0  0  2  0  0  0  0  0  0
  161.3600  204.9670  151.4780 C   0  0  0  0  0  2  0  0  0  0  0  0
  162.5960  204.6400  152.0330 O   0  0  0  0  0  1  0  0  0  0  0  0
  1  3  1  0  0  0  0
  2 13  1  6  0  0  0
  2  5  1  0  0  0  0
  2  6  1  0  0  0  0
  3  8  1  0  0  0  0
  3 22  1  1  0  0  0
  5 14  1  0  0  0  0
  6  9  1  0  0  0  0
  7  5  1  0  0  0  0
  7  4  1  0  0  0  0
  9 23  1  0  0  0  0
 10 13  1  0  0  0  0
 11 19  1  0  0  0  0
 11  8  1  0  0  0  0
 12  4  1  0  0  0  0
 12 16  1  0  0  0  0
 14 17  1  0  0  0  0
 14  9  1  0  0  0  0
 15  7  1  0  0  0  0
 16 11  1  0  0  0  0
 17 11  1  0  0  0  0
 17  1  1  0  0  0  0
 18 10  1  0  0  0  0
 18 15  1  0  0  0  0
 19 20  1  0  0  0  0
 21 22  1  0  0  0  0
 23 24  2  0  0  0  0
 23 25  1  0  0  0  0
 25 26  1  0  0  0  0
 27 26  1  0  0  0  0
 28 15  1  0  0  0  0
 29 34  1  0  0  0  0
 31 33  1  0  0  0  0
 32 29  1  0  0  0  0
 32 33  1  0  0  0  0
 33 30  1  0  0  0  0
 34 30  1  0  0  0  0
 34 28  1  0  0  0  0
 35  6  1  0  0  0  0
 36 37  1  0  0  0  0
 36 35  1  0  0  0  0
M  END
>  <MODEL>
5

>  <REMARK>
 VINA RESULT:      -1.5      1.476      1.834
  Name = 
  9 active torsions:
  status: ('A' for Active; 'I' for Inactive)
    1  A    between atoms: C_3  and  O_32
    2  A    between atoms: C_5  and  C_23
    3  A    between atoms: C_6  and  C_31
    4  A    between atoms: C_6  and  C_35
    5  A    between atoms: C_9  and  C_13
    6  A    between atoms: C_9  and  C_16
    7  A    between atoms: C_11  and  C_26
    8  A    between atoms: C_20  and  C_21
    9  A    between atoms: C_21  and  O_32
                            x       y       z     vdW  Elec       q    Type
                         _______ _______ _______ _____ _____    ______ ____

>  <TORSDO>
F 9

$$$$
=
 OpenBabel11062409183D

 37 41  0  0  1  0  0  0  0  0999 V2000
  160.8580  208.7320  150.9680 S   0  0  0  0  0  0  0  0  0  0  0  0
  158.7790  212.9350  150.6880 C   0  0  2  0  0  3  0  0  0  0  0  0
  160.8320  207.6480  152.4080 C   0  0  2  0  0  3  0  0  0  0  0  0
  159.8620  212.3370  154.4640 C   0  0  0  0  0  2  0  0  0  0  0  0
  159.1980  212.2280  151.9890 C   0  0  2  0  0  3  0  0  0  0  0  0
  159.9690  212.8620  149.7530 C   0  0  1  0  0  3  0  0  0  0  0  0
  159.3600  213.1310  153.2470 C   0  0  1  0  0  3  0  0  0  0  0  0
  161.4340  208.3060  153.4910 O   0  0  0  0  0  0  0  0  0  0  0  0
  160.7560  211.6460  150.1940 C   0  0  2  0  0  3  0  0  0  0  0  0
  157.0510  214.2430  151.2960 C   0  0  0  0  0  2  0  0  0  0  0  0
  161.0070  209.6540  153.4980 C   0  0  2  0  0  0  0  0  0  0  0  0
  159.0930  211.0340  154.6360 C   0  0  0  0  0  2  0  0  0  0  0  0
  158.3970  214.2690  150.8890 O   0  0  0  0  0  0  0  0  0  0  0  0
  160.4740  211.4560  151.6800 C   0  0  2  0  0  3  0  0  0  0  0  0
  158.1620  214.0840  153.5590 C   0  0  1  0  0  3  0  0  0  0  0  0
  160.0320  209.8260  154.6850 C   0  0  0  0  0  2  0  0  0  0  0  0
  160.3270  209.9860  152.1460 C   0  0  1  0  0  3  0  0  0  0  0  0
  156.9000  213.7890  152.7550 C   0  0  0  0  0  2  0  0  0  0  0  0
  162.2580  210.5260  153.7090 C   0  0  0  0  0  2  0  0  0  0  0  0
  162.7040  210.5740  155.1630 C   0  0  0  0  0  1  0  0  0  0  0  0
  161.1730  205.2750  153.0870 C   0  0  0  0  0  1  0  0  0  0  0  0
  161.5860  206.3630  152.1140 C   0  0  0  0  0  2  0  0  0  0  0  0
  162.2160  211.8540  149.9620 C   0  0  0  0  0  0  0  0  0  0  0  0
  163.0490  211.1800  150.6250 O   0  0  0  0  0  0  0  0  0  0  0  0
  162.6460  212.7860  149.0120 O   0  0  0  0  0  0  0  0  0  0  0  0
  163.2750  212.3990  147.7970 C   0  0  0  0  0  2  0  0  0  0  0  0
  162.6890  213.0740  146.7260 O   0  0  0  0  0  1  0  0  0  0  0  0
  157.8180  214.2590  155.0360 C   0  0  0  0  0  2  0  0  0  0  0  0
  155.9480  214.1890  156.6560 C   0  0  0  0  0  2  0  0  0  0  0  0
  156.5760  212.2420  155.4500 O   0  0  0  0  0  0  0  0  0  0  0  0
  154.8800  210.9020  156.2150 O   0  0  0  0  0  1  0  0  0  0  0  0
  155.1630  213.0460  157.1980 C   0  0  0  0  0  2  0  0  0  0  0  0
  155.8390  211.8460  156.5820 C   0  0  2  0  0  3  0  0  0  0  0  0
  156.4650  213.6410  155.3520 C   0  0  2  0  0  3  0  0  0  0  0  0
  159.5130  212.6900  148.3140 C   0  0  0  0  0  2  0  0  0  0  0  0
  158.9120  213.9800  147.7900 C   0  0  0  0  0  2  0  0  0  0  0  0
  157.5790  213.7660  147.4450 O   0  0  0  0  0  1  0  0  0  0  0  0
  1 17  1  0  0  0  0
  1  3  1  0  0  0  0
  2 13  1  1  0  0  0
  2  5  1  0  0  0  0
  3 22  1  6  0  0  0
  3  8  1  0  0  0  0
  4 12  1  0  0  0  0
  5  7  1  0  0  0  0
  6  9  1  0  0  0  0
  6  2  1  0  0  0  0
  7 15  1  0  0  0  0
  7  4  1  0  0  0  0
  8 11  1  0  0  0  0
  9 14  1  0  0  0  0
 10 18  1  0  0  0  0
 11 19  1  0  0  0  0
 11 16  1  0  0  0  0
 12 16  1  0  0  0  0
 13 10  1  0  0  0  0
 14  5  1  0  0  0  0
 14 17  1  0  0  0  0
 15 28  1  0  0  0  0
 17 11  1  0  0  0  0
 18 15  1  0  0  0  0
 19 20  1  0  0  0  0
 22 21  1  0  0  0  0
 23  9  1  0  0  0  0
 23 24  2  0  0  0  0
 25 23  1  0  0  0  0
 26 25  1  0  0  0  0
 27 26  1  0  0  0  0
 28 34  1  0  0  0  0
 29 32  1  0  0  0  0
 30 33  1  0  0  0  0
 31 33  1  0  0  0  0
 33 32  1  0  0  0  0
 34 30  1  0  0  0  0
 34 29  1  0  0  0  0
 35  6  1  0  0  0  0
 36 35  1  0  0  0  0
 37 36  1  0  0  0  0
M  END
>  <MODEL>
6

>  <REMARK>
 VINA RESULT:      -1.2      2.147      7.634
  Name = 
  9 active torsions:
  status: ('A' for Active; 'I' for Inactive)
    1  A    between atoms: C_3  and  O_32
    2  A    between atoms: C_5  and  C_23
    3  A    between atoms: C_6  and  C_31
    4  A    between atoms: C_6  and  C_35
    5  A    between atoms: C_9  and  C_13
    6  A    between atoms: C_9  and  C_16
    7  A    between atoms: C_11  and  C_26
    8  A    between atoms: C_20  and  C_21
    9  A    between atoms: C_21  and  O_32
                            x       y       z     vdW  Elec       q    Type
                         _______ _______ _______ _____ _____    ______ ____

>  <TORSDO>
F 9

$$$$
=
 OpenBabel11062409183D

 37 41  0  0  1  0  0  0  0  0999 V2000
  161.5830  209.3580  148.5140 S   0  0  0  0  0  0  0  0  0  0  0  0
  159.1670  213.2640  149.4970 C   0  0  2  0  0  3  0  0  0  0  0  0
  161.7410  207.9270  149.5990 C   0  0  2  0  0  3  0  0  0  0  0  0
  160.5520  211.7730  152.9090 C   0  0  0  0  0  2  0  0  0  0  0  0
  159.7290  212.2740  150.5330 C   0  0  2  0  0  3  0  0  0  0  0  0
  160.2910  213.5590  148.5250 C   0  0  1  0  0  3  0  0  0  0  0  0
  159.9070  212.8150  151.9820 C   0  0  1  0  0  3  0  0  0  0  0  0
  162.3630  208.3210  150.7930 O   0  0  0  0  0  0  0  0  0  0  0  0
  161.1990  212.3490  148.5780 C   0  0  2  0  0  3  0  0  0  0  0  0
  157.3890  214.1900  150.5190 C   0  0  0  0  0  2  0  0  0  0  0  0
  161.8340  209.5710  151.1900 C   0  0  2  0  0  0  0  0  0  0  0  0
  159.9020  210.4060  152.7500 C   0  0  0  0  0  2  0  0  0  0  0  0
  158.6960  214.4520  150.0750 O   0  0  0  0  0  0  0  0  0  0  0  0
  161.0370  211.7390  149.9650 C   0  0  2  0  0  3  0  0  0  0  0  0
  158.6630  213.5310  152.5980 C   0  0  1  0  0  3  0  0  0  0  0  0
  160.9330  209.3230  152.4220 C   0  0  0  0  0  2  0  0  0  0  0  0
  161.0390  210.1900  150.0150 C   0  0  1  0  0  3  0  0  0  0  0  0
  157.3740  213.3470  151.8020 C   0  0  0  0  0  2  0  0  0  0  0  0
  163.0250  210.4670  151.5770 C   0  0  0  0  0  2  0  0  0  0  0  0
  163.3360  210.4230  153.0660 C   0  0  0  0  0  1  0  0  0  0  0  0
  162.0780  206.6030  147.5160 C   0  0  0  0  0  1  0  0  0  0  0  0
  162.5710  206.8460  148.9300 C   0  0  0  0  0  2  0  0  0  0  0  0
  162.6190  212.7490  148.3460 C   0  0  0  0  0  0  0  0  0  0  0  0
  163.5400  211.9240  148.5880 O   0  0  0  0  0  0  0  0  0  0  0  0
  162.9150  214.0260  147.8600 O   0  0  0  0  0  0  0  0  0  0  0  0
  162.6970  214.3940  146.5040 C   0  0  0  0  0  2  0  0  0  0  0  0
  162.9690  213.3090  145.6710 O   0  0  0  0  0  1  0  0  0  0  0  0
  158.4090  213.2670  154.0800 C   0  0  0  0  0  2  0  0  0  0  0  0
  156.3610  213.4300  155.4600 C   0  0  0  0  0  2  0  0  0  0  0  0
  157.0550  211.3410  154.5690 O   0  0  0  0  0  0  0  0  0  0  0  0
  155.2340  210.1380  155.2710 O   0  0  0  0  0  1  0  0  0  0  0  0
  155.4770  212.3760  156.0310 C   0  0  0  0  0  2  0  0  0  0  0  0
  156.1770  211.0970  155.6420 C   0  0  2  0  0  3  0  0  0  0  0  0
  157.0070  212.7210  154.2990 C   0  0  2  0  0  3  0  0  0  0  0  0
  159.7510  213.7400  147.1160 C   0  0  0  0  0  2  0  0  0  0  0  0
  159.3780  212.3990  146.5150 C   0  0  0  0  0  2  0  0  0  0  0  0
  158.0170  212.3860  146.2130 O   0  0  0  0  0  1  0  0  0  0  0  0
  1  3  1  0  0  0  0
  1 17  1  0  0  0  0
  2 13  1  1  0  0  0
  2  5  1  0  0  0  0
  3 22  1  6  0  0  0
  3  8  1  0  0  0  0
  5  7  1  0  0  0  0
  6  9  1  0  0  0  0
  6  2  1  0  0  0  0
  7 15  1  0  0  0  0
  7  4  1  0  0  0  0
  8 11  1  0  0  0  0
  9 14  1  0  0  0  0
 10 18  1  0  0  0  0
 11 19  1  0  0  0  0
 11 16  1  0  0  0  0
 12  4  1  0  0  0  0
 13 10  1  0  0  0  0
 14 17  1  0  0  0  0
 14  5  1  0  0  0  0
 15 28  1  0  0  0  0
 16 12  1  0  0  0  0
 17 11  1  0  0  0  0
 18 15  1  0  0  0  0
 19 20  1  0  0  0  0
 21 22  1  0  0  0  0
 23  9  1  0  0  0  0
 23 24  2  0  0  0  0
 25 23  1  0  0  0  0
 26 25  1  0  0  0  0
 27 26  1  0  0  0  0
 28 34  1  0  0  0  0
 29 32  1  0  0  0  0
 30 33  1  0  0  0  0
 31 33  1  0  0  0  0
 33 32  1  0  0  0  0
 34 30  1  0  0  0  0
 34 29  1  0  0  0  0
 35  6  1  0  0  0  0
 36 35  1  0  0  0  0
 37 36  1  0  0  0  0
M  END
>  <MODEL>
7

>  <REMARK>
 VINA RESULT:      -1.1      2.610      8.049
  Name = 
  9 active torsions:
  status: ('A' for Active; 'I' for Inactive)
    1  A    between atoms: C_3  and  O_32
    2  A    between atoms: C_5  and  C_23
    3  A    between atoms: C_6  and  C_31
    4  A    between atoms: C_6  and  C_35
    5  A    between atoms: C_9  and  C_13
    6  A    between atoms: C_9  and  C_16
    7  A    between atoms: C_11  and  C_26
    8  A    between atoms: C_20  and  C_21
    9  A    between atoms: C_21  and  O_32
                            x       y       z     vdW  Elec       q    Type
                         _______ _______ _______ _____ _____    ______ ____

>  <TORSDO>
F 9

$$$$
