=
 OpenBabel11062409073D

 37 41  0  0  1  0  0  0  0  0999 V2000
  160.7040  207.7610  151.4070 C   0  0  2  0  0  3  0  0  0  0  0  0
  163.2540  208.0710  148.5130 C   0  0  0  0  0  2  0  0  0  0  0  0
  161.7490  206.3450  153.6190 C   0  0  0  0  0  3  0  0  0  0  0  0
  162.0080  208.2150  150.7230 C   0  0  0  0  0  2  0  0  0  0  0  0
  160.5310  208.3600  152.8170 C   0  0  1  0  0  3  0  0  0  0  0  0
  162.1060  207.5710  149.3570 C   0  0  0  0  0  0  0  0  0  0  0  0
  161.4690  204.2100  152.4500 C   0  0  0  0  0  1  0  0  0  0  0  0
  159.2330  206.0710  149.4040 C   0  0  0  0  0  1  0  0  0  0  0  0
  161.6670  205.7070  152.2590 C   0  0  1  0  0  3  0  0  0  0  0  0
  161.8180  208.4680  148.1750 C   0  0  0  0  0  2  0  0  0  0  0  0
  160.5710  206.2880  151.4610 N   0  0  2  0  0  0  0  0  0  0  0  0
  161.2800  207.5770  153.8850 C   0  0  0  0  0  0  0  0  0  0  0  0
  161.7910  206.0720  149.2750 C   0  0  1  0  0  3  0  0  0  0  0  0
  160.5400  205.7060  150.1020 C   0  0  2  0  0  3  0  0  0  0  0  0
  162.4030  206.0470  146.8730 C   0  0  0  0  0  3  0  0  0  0  0  0
  161.8940  205.4010  147.9290 C   0  0  0  0  0  0  0  0  0  0  0  0
  161.4040  203.9800  147.8240 C   0  0  0  0  0  2  0  0  0  0  0  0
  161.1940  202.2160  146.2280 O   0  0  0  0  0  0  0  0  0  0  0  0
  162.1170  204.1760  145.3800 N   0  0  0  0  0  0  0  0  0  0  0  0
  161.5600  203.4000  146.4460 C   0  0  0  0  0  0  0  0  0  0  0  0
  162.5110  205.3990  145.5580 C   0  0  0  0  0  3  0  0  0  0  0  0
  161.3430  208.0590  155.3170 C   0  0  0  0  0  0  0  0  0  0  0  0
  162.1010  209.2160  155.3980 F   0  0  0  0  0  0  0  0  0  0  0  0
  160.0630  208.3290  155.7640 F   0  0  0  0  0  0  0  0  0  0  0  0
  161.9160  207.1120  156.1460 F   0  0  0  0  0  0  0  0  0  0  0  0
  160.8540  209.8570  152.8500 C   0  0  0  0  0  2  0  0  0  0  0  0
  158.8620  211.2890  152.4400 C   0  0  0  0  0  2  0  0  0  0  0  0
  158.2880  212.5280  153.0950 C   0  0  1  0  0  3  0  0  0  0  0  0
  160.2740  211.7920  154.3290 C   0  0  0  0  0  2  0  0  0  0  0  0
  159.2700  212.9260  154.1880 C   0  0  2  0  0  3  0  0  0  0  0  0
  159.7290  210.6470  153.4980 C   0  0  2  0  0  3  0  0  0  0  0  0
  158.1640  213.6030  152.1090 C   0  0  0  0  0  0  0  0  0  0  0  0
  158.0660  214.4530  151.3280 N   0  0  0  0  0  0  0  0  0  0  0  0
  158.5630  213.2380  155.5100 C   0  0  0  0  0  2  0  0  0  0  0  0
  157.2560  212.5240  155.6680 C   0  0  0  0  0  0  0  0  0  0  0  0
  156.1760  213.1460  155.5020 O   0  0  0  0  0  0  0  0  0  0  0  0
  157.2360  211.1690  155.9690 O   0  0  0  0  0  1  0  0  0  0  0  0
  1  4  1  1  0  0  0
  1 11  1  0  0  0  0
  1  5  1  0  0  0  0
  2  6  1  0  0  0  0
  3 12  2  0  0  0  0
  5 26  1  6  0  0  0
  5 12  1  0  0  0  0
  6  4  1  0  0  0  0
  8 14  1  0  0  0  0
  9  7  1  1  0  0  0
  9  3  1  0  0  0  0
 10  2  1  0  0  0  0
 10  6  1  0  0  0  0
 11  9  1  0  0  0  0
 12 22  1  0  0  0  0
 13  6  1  0  0  0  0
 13 14  1  0  0  0  0
 14 11  1  0  0  0  0
 15 16  2  0  0  0  0
 16 13  1  0  0  0  0
 17 16  1  0  0  0  0
 18 20  2  0  0  0  0
 19 21  2  0  0  0  0
 19 20  1  0  0  0  0
 20 17  1  0  0  0  0
 21 15  1  0  0  0  0
 22 23  1  0  0  0  0
 22 24  1  0  0  0  0
 22 25  1  0  0  0  0
 26 31  1  0  0  0  0
 27 28  1  0  0  0  0
 27 31  1  0  0  0  0
 28 30  1  0  0  0  0
 30 29  1  0  0  0  0
 30 34  1  0  0  0  0
 31 29  1  0  0  0  0
 32 28  1  0  0  0  0
 33 32  3  0  0  0  0
 34 35  1  0  0  0  0
 35 37  1  0  0  0  0
 36 35  2  0  0  0  0
M  END
>  <MODEL>
1

>  <REMARK>
 VINA RESULT:      -5.7      0.000      0.000
  Name = 
  7 active torsions:
  status: ('A' for Active; 'I' for Inactive)
    1  A    between atoms: C_3  and  C_30
    2  A    between atoms: C_5  and  C_12
    3  A    between atoms: C_6  and  C_31
    4  A    between atoms: C_11  and  C_26
    5  A    between atoms: C_13  and  C_20
    6  A    between atoms: C_20  and  C_36
    7  A    between atoms: C_26  and  C_33
                            x       y       z     vdW  Elec       q    Type
                         _______ _______ _______ _____ _____    ______ ____

>  <TORSDO>
F 7

$$$$
=
 OpenBabel11062409073D

 37 41  0  0  1  0  0  0  0  0999 V2000
  160.7360  207.8000  151.3690 C   0  0  2  0  0  3  0  0  0  0  0  0
  163.3360  207.9570  148.5070 C   0  0  0  0  0  2  0  0  0  0  0  0
  161.6940  206.3850  153.6200 C   0  0  0  0  0  3  0  0  0  0  0  0
  162.0660  208.1900  150.6950 C   0  0  0  0  0  2  0  0  0  0  0  0
  160.5670  208.4310  152.7640 C   0  0  1  0  0  3  0  0  0  0  0  0
  162.1570  207.5180  149.3420 C   0  0  0  0  0  0  0  0  0  0  0  0
  161.3480  204.2410  152.4850 C   0  0  0  0  0  1  0  0  0  0  0  0
  159.2280  206.1320  149.3750 C   0  0  0  0  0  1  0  0  0  0  0  0
  161.6070  205.7250  152.2700 C   0  0  1  0  0  3  0  0  0  0  0  0
  161.9210  208.4040  148.1400 C   0  0  0  0  0  2  0  0  0  0  0  0
  160.5450  206.3340  151.4460 N   0  0  2  0  0  0  0  0  0  0  0  0
  161.2700  207.6390  153.8570 C   0  0  0  0  0  0  0  0  0  0  0  0
  161.7860  206.0310  149.2830 C   0  0  1  0  0  3  0  0  0  0  0  0
  160.5100  205.7290  150.0980 C   0  0  2  0  0  3  0  0  0  0  0  0
  162.4110  205.9460  146.8850 C   0  0  0  0  0  3  0  0  0  0  0  0
  161.8810  205.3320  147.9510 C   0  0  0  0  0  0  0  0  0  0  0  0
  161.3600  203.9200  147.8700 C   0  0  0  0  0  2  0  0  0  0  0  0
  161.1190  202.1310  146.3060 O   0  0  0  0  0  0  0  0  0  0  0  0
  162.0900  204.0540  145.4270 N   0  0  0  0  0  0  0  0  0  0  0  0
  161.5110  203.3110  146.5040 C   0  0  0  0  0  0  0  0  0  0  0  0
  162.5110  205.2710  145.5840 C   0  0  0  0  0  3  0  0  0  0  0  0
  161.3320  208.1440  155.2810 C   0  0  0  0  0  0  0  0  0  0  0  0
  161.8810  209.4160  155.3120 F   0  0  0  0  0  0  0  0  0  0  0  0
  160.0530  208.1940  155.8030 F   0  0  0  0  0  0  0  0  0  0  0  0
  162.1090  207.3220  156.0780 F   0  0  0  0  0  0  0  0  0  0  0  0
  160.9470  209.9140  152.7760 C   0  0  0  0  0  2  0  0  0  0  0  0
  160.1090  212.1800  153.3670 C   0  0  0  0  0  2  0  0  0  0  0  0
  158.9020  212.7080  154.1130 C   0  0  1  0  0  3  0  0  0  0  0  0
  158.7730  210.2650  153.9680 C   0  0  0  0  0  2  0  0  0  0  0  0
  158.1470  211.4880  154.6210 C   0  0  2  0  0  3  0  0  0  0  0  0
  159.7160  210.7960  152.9060 C   0  0  2  0  0  3  0  0  0  0  0  0
  159.3330  213.5420  155.2370 C   0  0  0  0  0  0  0  0  0  0  0  0
  159.6750  214.2000  156.1260 N   0  0  0  0  0  0  0  0  0  0  0  0
  156.6440  211.5840  154.3430 C   0  0  0  0  0  2  0  0  0  0  0  0
  155.8020  210.9520  155.4080 C   0  0  0  0  0  0  0  0  0  0  0  0
  155.1150  209.9320  155.1440 O   0  0  0  0  0  0  0  0  0  0  0  0
  155.8010  211.4750  156.6940 O   0  0  0  0  0  1  0  0  0  0  0  0
  1  4  1  1  0  0  0
  1 11  1  0  0  0  0
  1  5  1  0  0  0  0
  2  6  1  0  0  0  0
  3 12  2  0  0  0  0
  5 26  1  6  0  0  0
  5 12  1  0  0  0  0
  6  4  1  0  0  0  0
  8 14  1  0  0  0  0
  9  7  1  1  0  0  0
  9  3  1  0  0  0  0
 10  2  1  0  0  0  0
 10  6  1  0  0  0  0
 11  9  1  0  0  0  0
 12 22  1  0  0  0  0
 13  6  1  0  0  0  0
 13 14  1  0  0  0  0
 14 11  1  0  0  0  0
 15 16  2  0  0  0  0
 16 13  1  0  0  0  0
 17 16  1  0  0  0  0
 18 20  2  0  0  0  0
 19 21  2  0  0  0  0
 19 20  1  0  0  0  0
 20 17  1  0  0  0  0
 21 15  1  0  0  0  0
 22 23  1  0  0  0  0
 22 24  1  0  0  0  0
 22 25  1  0  0  0  0
 26 31  1  0  0  0  0
 27 28  1  0  0  0  0
 28 30  1  0  0  0  0
 28 32  1  0  0  0  0
 29 30  1  0  0  0  0
 31 27  1  0  0  0  0
 31 29  1  0  0  0  0
 32 33  3  0  0  0  0
 34 30  1  0  0  0  0
 34 35  1  0  0  0  0
 35 37  1  0  0  0  0
 36 35  2  0  0  0  0
M  END
>  <MODEL>
2

>  <REMARK>
 VINA RESULT:      -5.5      1.160      1.445
  Name = 
  7 active torsions:
  status: ('A' for Active; 'I' for Inactive)
    1  A    between atoms: C_3  and  C_30
    2  A    between atoms: C_5  and  C_12
    3  A    between atoms: C_6  and  C_31
    4  A    between atoms: C_11  and  C_26
    5  A    between atoms: C_13  and  C_20
    6  A    between atoms: C_20  and  C_36
    7  A    between atoms: C_26  and  C_33
                            x       y       z     vdW  Elec       q    Type
                         _______ _______ _______ _____ _____    ______ ____

>  <TORSDO>
F 7

$$$$
=
 OpenBabel11062409073D

 37 41  0  0  1  0  0  0  0  0999 V2000
  161.1950  208.6540  152.8450 C   0  0  2  0  0  3  0  0  0  0  0  0
  158.2960  211.1860  153.2510 C   0  0  0  0  0  2  0  0  0  0  0  0
  160.6860  206.2100  154.1710 C   0  0  0  0  0  3  0  0  0  0  0  0
  159.7590  209.1880  152.6790 C   0  0  0  0  0  2  0  0  0  0  0  0
  161.4330  207.3360  152.0820 C   0  0  1  0  0  3  0  0  0  0  0  0
  159.6070  210.4700  153.4700 C   0  0  0  0  0  0  0  0  0  0  0  0
  161.1840  207.2260  156.3440 C   0  0  0  0  0  1  0  0  0  0  0  0
  162.6790  210.6940  154.4790 C   0  0  0  0  0  1  0  0  0  0  0  0
  160.7090  207.5110  154.9270 C   0  0  1  0  0  3  0  0  0  0  0  0
  159.5910  211.7500  152.6670 C   0  0  0  0  0  2  0  0  0  0  0  0
  161.5840  208.4970  154.2650 N   0  0  2  0  0  0  0  0  0  0  0  0
  160.9650  206.1140  152.8580 C   0  0  0  0  0  0  0  0  0  0  0  0
  160.1620  210.4690  154.8990 C   0  0  1  0  0  3  0  0  0  0  0  0
  161.5490  209.7950  154.9730 C   0  0  2  0  0  3  0  0  0  0  0  0
  161.0340  212.2080  156.4370 C   0  0  0  0  0  3  0  0  0  0  0  0
  160.0130  211.7280  155.7160 C   0  0  0  0  0  0  0  0  0  0  0  0
  158.6740  212.4190  155.6860 C   0  0  0  0  0  2  0  0  0  0  0  0
  157.5720  214.3410  156.5780 O   0  0  0  0  0  0  0  0  0  0  0  0
  159.7830  214.0960  157.2600 N   0  0  0  0  0  0  0  0  0  0  0  0
  158.6340  213.6670  156.5230 C   0  0  0  0  0  0  0  0  0  0  0  0
  160.8990  213.4360  157.2330 C   0  0  0  0  0  3  0  0  0  0  0  0
  160.9950  204.7320  152.2460 C   0  0  0  0  0  0  0  0  0  0  0  0
  162.2310  204.4950  151.6660 F   0  0  0  0  0  0  0  0  0  0  0  0
  160.7740  203.7900  153.2330 F   0  0  0  0  0  0  0  0  0  0  0  0
  160.0280  204.5900  151.2670 F   0  0  0  0  0  0  0  0  0  0  0  0
  160.8640  207.3830  150.6610 C   0  0  0  0  0  2  0  0  0  0  0  0
  161.7640  207.0290  148.3700 C   0  0  0  0  0  2  0  0  0  0  0  0
  161.8240  205.8520  147.4190 C   0  0  1  0  0  3  0  0  0  0  0  0
  160.8050  205.1480  149.5340 C   0  0  0  0  0  2  0  0  0  0  0  0
  161.0800  204.7130  148.1030 C   0  0  2  0  0  3  0  0  0  0  0  0
  161.6010  206.4210  149.7430 C   0  0  2  0  0  3  0  0  0  0  0  0
  161.1730  206.1960  146.1540 C   0  0  0  0  0  0  0  0  0  0  0  0
  160.6580  206.4680  145.1530 N   0  0  0  0  0  0  0  0  0  0  0  0
  161.8580  203.3960  148.0390 C   0  0  0  0  0  2  0  0  0  0  0  0
  160.9760  202.1860  148.0050 C   0  0  0  0  0  0  0  0  0  0  0  0
  160.6560  201.6730  146.9020 O   0  0  0  0  0  0  0  0  0  0  0  0
  160.5360  201.6130  149.1910 O   0  0  0  0  0  1  0  0  0  0  0  0
  1  4  1  1  0  0  0
  1 11  1  0  0  0  0
  2  6  1  0  0  0  0
  3  9  1  0  0  0  0
  4  6  1  0  0  0  0
  5 26  1  6  0  0  0
  5  1  1  0  0  0  0
  5 12  1  0  0  0  0
  6 13  1  0  0  0  0
  8 14  1  0  0  0  0
  9  7  1  1  0  0  0
 10  2  1  0  0  0  0
 10  6  1  0  0  0  0
 11  9  1  0  0  0  0
 11 14  1  0  0  0  0
 12  3  2  0  0  0  0
 13 14  1  0  0  0  0
 13 16  1  0  0  0  0
 15 21  1  0  0  0  0
 16 15  2  0  0  0  0
 17 16  1  0  0  0  0
 17 20  1  0  0  0  0
 20 18  2  0  0  0  0
 20 19  1  0  0  0  0
 21 19  2  0  0  0  0
 22 12  1  0  0  0  0
 22 24  1  0  0  0  0
 23 22  1  0  0  0  0
 25 22  1  0  0  0  0
 27 31  1  0  0  0  0
 28 30  1  0  0  0  0
 28 27  1  0  0  0  0
 29 31  1  0  0  0  0
 30 29  1  0  0  0  0
 31 26  1  0  0  0  0
 32 28  1  0  0  0  0
 33 32  3  0  0  0  0
 34 30  1  0  0  0  0
 35 34  1  0  0  0  0
 35 37  1  0  0  0  0
 36 35  2  0  0  0  0
M  END
>  <MODEL>
3

>  <REMARK>
 VINA RESULT:      -4.8      2.363      9.082
  Name = 
  7 active torsions:
  status: ('A' for Active; 'I' for Inactive)
    1  A    between atoms: C_3  and  C_30
    2  A    between atoms: C_5  and  C_12
    3  A    between atoms: C_6  and  C_31
    4  A    between atoms: C_11  and  C_26
    5  A    between atoms: C_13  and  C_20
    6  A    between atoms: C_20  and  C_36
    7  A    between atoms: C_26  and  C_33
                            x       y       z     vdW  Elec       q    Type
                         _______ _______ _______ _____ _____    ______ ____

>  <TORSDO>
F 7

$$$$
=
 OpenBabel11062409073D

 37 41  0  0  1  0  0  0  0  0999 V2000
  161.3170  207.4960  149.1290 C   0  0  2  0  0  3  0  0  0  0  0  0
  163.4520  205.1660  146.8960 C   0  0  0  0  0  2  0  0  0  0  0  0
  162.2120  207.5380  151.8100 C   0  0  0  0  0  3  0  0  0  0  0  0
  162.5940  207.0140  148.4140 C   0  0  0  0  0  2  0  0  0  0  0  0
  161.5020  208.8590  149.8250 C   0  0  1  0  0  3  0  0  0  0  0  0
  162.3310  205.6680  147.7740 C   0  0  0  0  0  0  0  0  0  0  0  0
  161.2040  205.3450  152.2350 C   0  0  0  0  0  1  0  0  0  0  0  0
  159.1880  205.4590  148.5380 C   0  0  0  0  0  1  0  0  0  0  0  0
  161.7800  206.2520  151.1570 C   0  0  1  0  0  3  0  0  0  0  0  0
  162.1490  205.6680  146.2740 C   0  0  0  0  0  2  0  0  0  0  0  0
  160.7920  206.5010  150.0910 N   0  0  2  0  0  0  0  0  0  0  0  0
  162.1400  208.7350  151.2010 C   0  0  0  0  0  0  0  0  0  0  0  0
  161.6080  204.6240  148.6340 C   0  0  1  0  0  3  0  0  0  0  0  0
  160.4230  205.2430  149.4070 C   0  0  2  0  0  3  0  0  0  0  0  0
  161.4680  202.1510  148.7550 C   0  0  0  0  0  3  0  0  0  0  0  0
  161.3450  203.2690  148.0270 C   0  0  0  0  0  0  0  0  0  0  0  0
  160.9390  203.2250  146.5770 C   0  0  0  0  0  2  0  0  0  0  0  0
  160.3380  201.6590  144.8770 O   0  0  0  0  0  0  0  0  0  0  0  0
  160.8520  200.6990  146.9330 N   0  0  0  0  0  0  0  0  0  0  0  0
  160.6900  201.8310  146.0730 C   0  0  0  0  0  0  0  0  0  0  0  0
  161.2100  200.8270  148.1740 C   0  0  0  0  0  3  0  0  0  0  0  0
  162.5200  209.9570  152.0060 C   0  0  0  0  0  0  0  0  0  0  0  0
  163.6990  210.4990  151.5220 F   0  0  0  0  0  0  0  0  0  0  0  0
  161.5150  210.9010  151.9040 F   0  0  0  0  0  0  0  0  0  0  0  0
  162.7080  209.6460  153.3410 F   0  0  0  0  0  0  0  0  0  0  0  0
  162.2260  209.8690  148.9300 C   0  0  0  0  0  2  0  0  0  0  0  0
  161.2960  211.3160  147.1340 C   0  0  0  0  0  2  0  0  0  0  0  0
  161.0380  212.8010  146.9890 C   0  0  1  0  0  3  0  0  0  0  0  0
  161.9010  212.3330  149.2350 C   0  0  0  0  0  2  0  0  0  0  0  0
  161.5660  213.4510  148.2600 C   0  0  2  0  0  3  0  0  0  0  0  0
  161.3390  211.0650  148.6230 C   0  0  2  0  0  3  0  0  0  0  0  0
  161.7490  213.3210  145.8200 C   0  0  0  0  0  0  0  0  0  0  0  0
  162.3110  213.7310  144.8940 N   0  0  0  0  0  0  0  0  0  0  0  0
  160.5690  214.4520  148.8520 C   0  0  0  0  0  2  0  0  0  0  0  0
  159.4470  213.8010  149.5990 C   0  0  0  0  0  0  0  0  0  0  0  0
  158.4310  213.3940  148.9800 O   0  0  0  0  0  0  0  0  0  0  0  0
  159.5400  213.6200  150.9730 O   0  0  0  0  0  1  0  0  0  0  0  0
  1  4  1  1  0  0  0
  1  5  1  0  0  0  0
  1 11  1  0  0  0  0
  2  6  1  0  0  0  0
  5 26  1  6  0  0  0
  5 12  1  0  0  0  0
  6  4  1  0  0  0  0
  6 13  1  0  0  0  0
  8 14  1  0  0  0  0
  9  3  1  0  0  0  0
  9  7  1  1  0  0  0
 10  2  1  0  0  0  0
 10  6  1  0  0  0  0
 11  9  1  0  0  0  0
 12  3  2  0  0  0  0
 12 22  1  0  0  0  0
 13 14  1  0  0  0  0
 14 11  1  0  0  0  0
 16 13  1  0  0  0  0
 16 15  2  0  0  0  0
 17 16  1  0  0  0  0
 18 20  2  0  0  0  0
 19 21  2  0  0  0  0
 20 17  1  0  0  0  0
 20 19  1  0  0  0  0
 21 15  1  0  0  0  0
 22 25  1  0  0  0  0
 23 22  1  0  0  0  0
 24 22  1  0  0  0  0
 27 31  1  0  0  0  0
 28 27  1  0  0  0  0
 28 30  1  0  0  0  0
 30 34  1  0  0  0  0
 30 29  1  0  0  0  0
 31 26  1  0  0  0  0
 31 29  1  0  0  0  0
 32 28  1  0  0  0  0
 33 32  3  0  0  0  0
 34 35  1  0  0  0  0
 35 37  1  0  0  0  0
 36 35  2  0  0  0  0
M  END
>  <MODEL>
4

>  <REMARK>
 VINA RESULT:      -3.9      3.256      4.378
  Name = 
  7 active torsions:
  status: ('A' for Active; 'I' for Inactive)
    1  A    between atoms: C_3  and  C_30
    2  A    between atoms: C_5  and  C_12
    3  A    between atoms: C_6  and  C_31
    4  A    between atoms: C_11  and  C_26
    5  A    between atoms: C_13  and  C_20
    6  A    between atoms: C_20  and  C_36
    7  A    between atoms: C_26  and  C_33
                            x       y       z     vdW  Elec       q    Type
                         _______ _______ _______ _____ _____    ______ ____

>  <TORSDO>
F 7

$$$$
=
 OpenBabel11062409073D

 37 41  0  0  1  0  0  0  0  0999 V2000
  160.4860  208.5890  151.8190 C   0  0  2  0  0  3  0  0  0  0  0  0
  161.6030  208.9000  155.5120 C   0  0  0  0  0  2  0  0  0  0  0  0
  162.2710  209.8730  150.0410 C   0  0  0  0  0  3  0  0  0  0  0  0
  161.4090  208.3710  153.0340 C   0  0  0  0  0  2  0  0  0  0  0  0
  160.9580  207.8250  150.5670 C   0  0  1  0  0  3  0  0  0  0  0  0
  160.8840  209.1660  154.2100 C   0  0  0  0  0  0  0  0  0  0  0  0
  161.3920  212.0730  150.6660 C   0  0  0  0  0  1  0  0  0  0  0  0
  158.2080  210.2990  152.7770 C   0  0  0  0  0  1  0  0  0  0  0  0
  161.5860  210.6400  151.1400 C   0  0  1  0  0  3  0  0  0  0  0  0
  160.1850  208.3740  155.2910 C   0  0  0  0  0  2  0  0  0  0  0  0
  160.2960  210.0220  151.4990 N   0  0  2  0  0  0  0  0  0  0  0  0
  162.0350  208.5710  149.7940 C   0  0  0  0  0  0  0  0  0  0  0  0
  160.4710  210.6160  153.9340 C   0  0  1  0  0  3  0  0  0  0  0  0
  159.6610  210.7390  152.6260 C   0  0  2  0  0  3  0  0  0  0  0  0
  160.7260  212.3680  155.6700 C   0  0  0  0  0  3  0  0  0  0  0  0
  159.9580  211.4370  155.0900 C   0  0  0  0  0  0  0  0  0  0  0  0
  158.5520  211.1680  155.5620 C   0  0  0  0  0  2  0  0  0  0  0  0
  156.9790  211.9230  157.1920 O   0  0  0  0  0  0  0  0  0  0  0  0
  159.0330  213.0120  157.2610 N   0  0  0  0  0  0  0  0  0  0  0  0
  158.1340  212.0440  156.7090 C   0  0  0  0  0  0  0  0  0  0  0  0
  160.2330  213.1750  156.7950 C   0  0  0  0  0  3  0  0  0  0  0  0
  162.7230  207.9480  148.5990 C   0  0  0  0  0  0  0  0  0  0  0  0
  161.7900  207.3350  147.7790 F   0  0  0  0  0  0  0  0  0  0  0  0
  163.3730  208.9350  147.8820 F   0  0  0  0  0  0  0  0  0  0  0  0
  163.6460  206.9940  148.9870 F   0  0  0  0  0  0  0  0  0  0  0  0
  161.3590  206.3830  150.8900 C   0  0  0  0  0  2  0  0  0  0  0  0
  160.3210  204.1460  150.5680 C   0  0  0  0  0  2  0  0  0  0  0  0
  160.4360  203.0590  149.5210 C   0  0  1  0  0  3  0  0  0  0  0  0
  161.8210  204.9740  148.8720 C   0  0  0  0  0  2  0  0  0  0  0  0
  161.5000  203.5260  148.5370 C   0  0  2  0  0  3  0  0  0  0  0  0
  160.7750  205.4110  149.8780 C   0  0  2  0  0  3  0  0  0  0  0  0
  160.8430  201.8000  150.1480 C   0  0  0  0  0  0  0  0  0  0  0  0
  161.1650  200.8040  150.6440 N   0  0  0  0  0  0  0  0  0  0  0  0
  161.0530  203.3550  147.0820 C   0  0  0  0  0  2  0  0  0  0  0  0
  161.6180  204.3940  146.1620 C   0  0  0  0  0  0  0  0  0  0  0  0
  160.8490  205.1960  145.5730 O   0  0  0  0  0  0  0  0  0  0  0  0
  162.9910  204.4900  145.9820 O   0  0  0  0  0  1  0  0  0  0  0  0
  1  4  1  1  0  0  0
  3  9  1  0  0  0  0
  4  6  1  0  0  0  0
  5 26  1  1  0  0  0
  5  1  1  0  0  0  0
  6 10  1  0  0  0  0
  6  2  1  0  0  0  0
  9  7  1  6  0  0  0
  9 11  1  0  0  0  0
 10  2  1  0  0  0  0
 11  1  1  0  0  0  0
 11 14  1  0  0  0  0
 12  3  2  0  0  0  0
 12  5  1  0  0  0  0
 13  6  1  0  0  0  0
 13 16  1  0  0  0  0
 14  8  1  0  0  0  0
 14 13  1  0  0  0  0
 15 21  1  0  0  0  0
 16 17  1  0  0  0  0
 16 15  2  0  0  0  0
 17 20  1  0  0  0  0
 20 18  2  0  0  0  0
 20 19  1  0  0  0  0
 21 19  2  0  0  0  0
 22 25  1  0  0  0  0
 22 12  1  0  0  0  0
 23 22  1  0  0  0  0
 24 22  1  0  0  0  0
 28 32  1  0  0  0  0
 28 27  1  0  0  0  0
 29 31  1  0  0  0  0
 30 29  1  0  0  0  0
 30 28  1  0  0  0  0
 31 27  1  0  0  0  0
 31 26  1  0  0  0  0
 32 33  3  0  0  0  0
 34 30  1  0  0  0  0
 35 34  1  0  0  0  0
 36 35  2  0  0  0  0
 37 35  1  0  0  0  0
M  END
>  <MODEL>
5

>  <REMARK>
 VINA RESULT:      -3.8      3.017      9.439
  Name = 
  7 active torsions:
  status: ('A' for Active; 'I' for Inactive)
    1  A    between atoms: C_3  and  C_30
    2  A    between atoms: C_5  and  C_12
    3  A    between atoms: C_6  and  C_31
    4  A    between atoms: C_11  and  C_26
    5  A    between atoms: C_13  and  C_20
    6  A    between atoms: C_20  and  C_36
    7  A    between atoms: C_26  and  C_33
                            x       y       z     vdW  Elec       q    Type
                         _______ _______ _______ _____ _____    ______ ____

>  <TORSDO>
F 7

$$$$
=
 OpenBabel11062409073D

 37 41  0  0  1  0  0  0  0  0999 V2000
  160.2480  210.7520  152.1430 C   0  0  2  0  0  3  0  0  0  0  0  0
  160.8170  212.0800  155.7330 C   0  0  0  0  0  2  0  0  0  0  0  0
  160.7730  212.7100  150.1720 C   0  0  0  0  0  3  0  0  0  0  0  0
  161.0640  211.3150  153.3230 C   0  0  0  0  0  2  0  0  0  0  0  0
  161.1290  210.3690  150.9370 C   0  0  1  0  0  3  0  0  0  0  0  0
  160.1250  211.6780  154.4520 C   0  0  0  0  0  0  0  0  0  0  0  0
  158.6510  213.8360  150.6520 C   0  0  0  0  0  1  0  0  0  0  0  0
  157.3920  210.6230  153.0680 C   0  0  0  0  0  1  0  0  0  0  0  0
  159.7330  212.9400  151.2360 C   0  0  1  0  0  3  0  0  0  0  0  0
  160.1040  210.7320  155.6310 C   0  0  0  0  0  2  0  0  0  0  0  0
  159.1650  211.6650  151.7120 N   0  0  2  0  0  0  0  0  0  0  0  0
  161.4590  211.5590  150.0490 C   0  0  0  0  0  0  0  0  0  0  0  0
  158.8620  212.4620  154.0760 C   0  0  1  0  0  3  0  0  0  0  0  0
  158.1950  211.8930  152.8050 C   0  0  2  0  0  3  0  0  0  0  0  0
  157.9700  214.0650  155.7440 C   0  0  0  0  0  3  0  0  0  0  0  0
  157.9150  212.8500  155.1820 C   0  0  0  0  0  0  0  0  0  0  0  0
  156.9090  211.8200  155.6270 C   0  0  0  0  0  2  0  0  0  0  0  0
  155.1170  211.5450  157.1820 O   0  0  0  0  0  0  0  0  0  0  0  0
  156.1490  213.6290  157.2610 N   0  0  0  0  0  0  0  0  0  0  0  0
  156.0070  212.3090  156.7250 C   0  0  0  0  0  0  0  0  0  0  0  0
  157.0490  214.4530  156.8210 C   0  0  0  0  0  3  0  0  0  0  0  0
  162.4080  211.4300  148.8780 C   0  0  0  0  0  0  0  0  0  0  0  0
  162.4170  210.1240  148.4150 F   0  0  0  0  0  0  0  0  0  0  0  0
  161.9910  212.2650  147.8580 F   0  0  0  0  0  0  0  0  0  0  0  0
  163.7010  211.7680  149.2330 F   0  0  0  0  0  0  0  0  0  0  0  0
  162.3760  209.5880  151.3600 C   0  0  0  0  0  2  0  0  0  0  0  0
  162.6420  207.7230  149.7360 C   0  0  0  0  0  2  0  0  0  0  0  0
  161.8200  206.5060  149.3680 C   0  0  1  0  0  3  0  0  0  0  0  0
  160.7320  207.7060  151.2070 C   0  0  0  0  0  2  0  0  0  0  0  0
  160.5440  206.5880  150.1920 C   0  0  2  0  0  3  0  0  0  0  0  0
  162.1940  208.0960  151.1300 C   0  0  2  0  0  3  0  0  0  0  0  0
  161.5030  206.5300  147.9380 C   0  0  0  0  0  0  0  0  0  0  0  0
  161.2530  206.5490  146.8080 N   0  0  0  0  0  0  0  0  0  0  0  0
  160.2030  205.2530  150.8610 C   0  0  0  0  0  2  0  0  0  0  0  0
  161.2920  204.2320  150.7370 C   0  0  0  0  0  0  0  0  0  0  0  0
  162.2520  204.2350  151.5490 O   0  0  0  0  0  1  0  0  0  0  0  0
  161.2270  203.2640  149.7430 O   0  0  0  0  0  0  0  0  0  0  0  0
  1  4  1  1  0  0  0
  3  9  1  0  0  0  0
  4  6  1  0  0  0  0
  5 26  1  1  0  0  0
  5  1  1  0  0  0  0
  6 10  1  0  0  0  0
  6  2  1  0  0  0  0
  9  7  1  6  0  0  0
  9 11  1  0  0  0  0
 10  2  1  0  0  0  0
 11  1  1  0  0  0  0
 11 14  1  0  0  0  0
 12  3  2  0  0  0  0
 12  5  1  0  0  0  0
 13  6  1  0  0  0  0
 13 16  1  0  0  0  0
 14  8  1  0  0  0  0
 14 13  1  0  0  0  0
 15 21  1  0  0  0  0
 16 17  1  0  0  0  0
 16 15  2  0  0  0  0
 17 20  1  0  0  0  0
 20 18  2  0  0  0  0
 20 19  1  0  0  0  0
 21 19  2  0  0  0  0
 22 25  1  0  0  0  0
 22 12  1  0  0  0  0
 23 22  1  0  0  0  0
 24 22  1  0  0  0  0
 27 31  1  0  0  0  0
 28 27  1  0  0  0  0
 28 30  1  0  0  0  0
 30 34  1  0  0  0  0
 30 29  1  0  0  0  0
 31 29  1  0  0  0  0
 31 26  1  0  0  0  0
 32 28  1  0  0  0  0
 33 32  3  0  0  0  0
 35 34  1  0  0  0  0
 35 36  1  0  0  0  0
 37 35  2  0  0  0  0
M  END
>  <MODEL>
6

>  <REMARK>
 VINA RESULT:      -3.5      3.062      9.198
  Name = 
  7 active torsions:
  status: ('A' for Active; 'I' for Inactive)
    1  A    between atoms: C_3  and  C_30
    2  A    between atoms: C_5  and  C_12
    3  A    between atoms: C_6  and  C_31
    4  A    between atoms: C_11  and  C_26
    5  A    between atoms: C_13  and  C_20
    6  A    between atoms: C_20  and  C_36
    7  A    between atoms: C_26  and  C_33
                            x       y       z     vdW  Elec       q    Type
                         _______ _______ _______ _____ _____    ______ ____

>  <TORSDO>
F 7

$$$$
=
 OpenBabel11062409073D

 37 41  0  0  1  0  0  0  0  0999 V2000
  161.7700  207.9030  153.5740 C   0  0  2  0  0  3  0  0  0  0  0  0
  160.0020  211.1230  152.3550 C   0  0  0  0  0  2  0  0  0  0  0  0
  160.0050  205.7020  153.7440 C   0  0  0  0  0  3  0  0  0  0  0  0
  161.0060  208.8000  152.5800 C   0  0  0  0  0  2  0  0  0  0  0  0
  162.2030  206.5600  152.9550 C   0  0  1  0  0  3  0  0  0  0  0  0
  160.6060  210.0860  153.2710 C   0  0  0  0  0  0  0  0  0  0  0  0
  159.0320  206.5760  155.8160 C   0  0  0  0  0  1  0  0  0  0  0  0
  162.0560  209.4940  156.1080 C   0  0  0  0  0  1  0  0  0  0  0  0
  159.7530  206.9590  154.5320 C   0  0  1  0  0  3  0  0  0  0  0  0
  161.4120  211.3130  152.9120 C   0  0  0  0  0  2  0  0  0  0  0  0
  161.0140  207.6670  154.8250 N   0  0  2  0  0  0  0  0  0  0  0  0
  161.0940  205.5180  152.9770 C   0  0  0  0  0  0  0  0  0  0  0  0
  159.9880  209.9560  154.6680 C   0  0  1  0  0  3  0  0  0  0  0  0
  160.7550  208.9360  155.5380 C   0  0  2  0  0  3  0  0  0  0  0  0
  160.4750  212.0390  155.9210 C   0  0  0  0  0  3  0  0  0  0  0  0
  159.5680  211.2190  155.3750 C   0  0  0  0  0  0  0  0  0  0  0  0
  158.0920  211.5180  155.4400 C   0  0  0  0  0  2  0  0  0  0  0  0
  156.5820  213.1700  156.2730 O   0  0  0  0  0  0  0  0  0  0  0  0
  158.8250  213.6110  156.7070 N   0  0  0  0  0  0  0  0  0  0  0  0
  157.7800  212.8030  156.1550 C   0  0  0  0  0  0  0  0  0  0  0  0
  160.0740  213.2740  156.6090 C   0  0  0  0  0  3  0  0  0  0  0  0
  161.2660  204.1700  152.3130 C   0  0  0  0  0  0  0  0  0  0  0  0
  160.5300  204.1180  151.1410 F   0  0  0  0  0  0  0  0  0  0  0  0
  162.6020  203.9760  152.0140 F   0  0  0  0  0  0  0  0  0  0  0  0
  160.8370  203.1420  153.1340 F   0  0  0  0  0  0  0  0  0  0  0  0
  162.8140  206.7380  151.5620 C   0  0  0  0  0  2  0  0  0  0  0  0
  161.3320  206.5760  149.5710 C   0  0  0  0  0  2  0  0  0  0  0  0
  161.0350  207.4730  148.3890 C   0  0  1  0  0  3  0  0  0  0  0  0
  162.6000  208.6000  149.9010 C   0  0  0  0  0  2  0  0  0  0  0  0
  161.9540  208.6780  148.5260 C   0  0  2  0  0  3  0  0  0  0  0  0
  161.8710  207.4960  150.6410 C   0  0  2  0  0  3  0  0  0  0  0  0
  161.3130  206.7630  147.1390 C   0  0  0  0  0  0  0  0  0  0  0  0
  161.5330  206.2010  146.1500 N   0  0  0  0  0  0  0  0  0  0  0  0
  161.2080  209.9990  148.3140 C   0  0  0  0  0  2  0  0  0  0  0  0
  162.0420  211.2060  148.6130 C   0  0  0  0  0  0  0  0  0  0  0  0
  161.6790  212.0160  149.5050 O   0  0  0  0  0  1  0  0  0  0  0  0
  163.2310  211.4170  147.9270 O   0  0  0  0  0  0  0  0  0  0  0  0
  1  4  1  6  0  0  0
  1 11  1  0  0  0  0
  2 10  1  0  0  0  0
  2  6  1  0  0  0  0
  3  9  1  0  0  0  0
  4  6  1  0  0  0  0
  5 26  1  6  0  0  0
  5 12  1  0  0  0  0
  5  1  1  0  0  0  0
  6 13  1  0  0  0  0
  9 11  1  0  0  0  0
  9  7  1  1  0  0  0
 10  6  1  0  0  0  0
 11 14  1  0  0  0  0
 12  3  2  0  0  0  0
 13 16  1  0  0  0  0
 13 14  1  0  0  0  0
 14  8  1  0  0  0  0
 15 21  1  0  0  0  0
 16 17  1  0  0  0  0
 16 15  2  0  0  0  0
 17 20  1  0  0  0  0
 20 18  2  0  0  0  0
 20 19  1  0  0  0  0
 21 19  2  0  0  0  0
 22 12  1  0  0  0  0
 22 25  1  0  0  0  0
 23 22  1  0  0  0  0
 24 22  1  0  0  0  0
 27 31  1  0  0  0  0
 28 30  1  0  0  0  0
 28 27  1  0  0  0  0
 29 31  1  0  0  0  0
 30 29  1  0  0  0  0
 31 26  1  0  0  0  0
 32 28  1  0  0  0  0
 33 32  3  0  0  0  0
 34 30  1  0  0  0  0
 34 35  1  0  0  0  0
 35 36  1  0  0  0  0
 37 35  2  0  0  0  0
M  END
>  <MODEL>
7

>  <REMARK>
 VINA RESULT:      -3.5      3.074      8.005
  Name = 
  7 active torsions:
  status: ('A' for Active; 'I' for Inactive)
    1  A    between atoms: C_3  and  C_30
    2  A    between atoms: C_5  and  C_12
    3  A    between atoms: C_6  and  C_31
    4  A    between atoms: C_11  and  C_26
    5  A    between atoms: C_13  and  C_20
    6  A    between atoms: C_20  and  C_36
    7  A    between atoms: C_26  and  C_33
                            x       y       z     vdW  Elec       q    Type
                         _______ _______ _______ _____ _____    ______ ____

>  <TORSDO>
F 7

$$$$
=
 OpenBabel11062409073D

 37 41  0  0  1  0  0  0  0  0999 V2000
  162.2930  208.3570  151.7000 C   0  0  2  0  0  3  0  0  0  0  0  0
  161.2060  208.4110  147.9860 C   0  0  0  0  0  2  0  0  0  0  0  0
  160.1260  208.7820  153.4650 C   0  0  0  0  0  3  0  0  0  0  0  0
  161.5420  207.8690  150.4450 C   0  0  0  0  0  2  0  0  0  0  0  0
  162.1240  207.4090  152.9030 C   0  0  1  0  0  3  0  0  0  0  0  0
  161.7480  208.8620  149.3210 C   0  0  0  0  0  0  0  0  0  0  0  0
  160.1190  211.1800  152.9600 C   0  0  0  0  0  1  0  0  0  0  0  0
  163.7730  210.8450  150.8930 C   0  0  0  0  0  1  0  0  0  0  0  0
  160.4890  209.8050  152.4220 C   0  0  1  0  0  3  0  0  0  0  0  0
  162.7130  208.4470  148.2350 C   0  0  0  0  0  2  0  0  0  0  0  0
  161.9230  209.7380  152.0840 N   0  0  2  0  0  0  0  0  0  0  0  0
  160.8310  207.6550  153.6680 C   0  0  0  0  0  0  0  0  0  0  0  0
  161.5780  210.3450  149.6700 C   0  0  1  0  0  3  0  0  0  0  0  0
  162.2590  210.6980  151.0100 C   0  0  2  0  0  3  0  0  0  0  0  0
  162.9790  211.8280  148.2610 C   0  0  0  0  0  3  0  0  0  0  0  0
  161.7640  211.3560  148.5670 C   0  0  0  0  0  0  0  0  0  0  0  0
  160.5310  211.8100  147.8290 C   0  0  0  0  0  2  0  0  0  0  0  0
  159.8800  213.2610  146.0480 O   0  0  0  0  0  0  0  0  0  0  0  0
  162.1630  213.2520  146.4950 N   0  0  0  0  0  0  0  0  0  0  0  0
  160.8250  212.8080  146.7440 C   0  0  0  0  0  0  0  0  0  0  0  0
  163.1690  212.8110  147.1850 C   0  0  0  0  0  3  0  0  0  0  0  0
  160.4090  206.7590  154.8110 C   0  0  0  0  0  0  0  0  0  0  0  0
  160.5730  205.4290  154.4600 F   0  0  0  0  0  0  0  0  0  0  0  0
  161.1930  207.0320  155.9170 F   0  0  0  0  0  0  0  0  0  0  0  0
  159.0810  206.9540  155.1440 F   0  0  0  0  0  0  0  0  0  0  0  0
  162.3030  205.9400  152.5080 C   0  0  0  0  0  2  0  0  0  0  0  0
  160.7580  204.2220  151.5890 C   0  0  0  0  0  2  0  0  0  0  0  0
  160.4980  203.6510  150.2110 C   0  0  1  0  0  3  0  0  0  0  0  0
  162.1870  205.4210  150.0620 C   0  0  0  0  0  2  0  0  0  0  0  0
  161.5110  204.3040  149.2820 C   0  0  2  0  0  3  0  0  0  0  0  0
  161.3960  205.5690  151.3460 C   0  0  2  0  0  3  0  0  0  0  0  0
  160.6850  202.1990  150.2270 C   0  0  0  0  0  0  0  0  0  0  0  0
  160.8320  201.0510  150.2400 N   0  0  0  0  0  0  0  0  0  0  0  0
  160.8640  204.8130  147.9900 C   0  0  0  0  0  2  0  0  0  0  0  0
  161.7040  204.5790  146.7730 C   0  0  0  0  0  0  0  0  0  0  0  0
  162.7060  205.3050  146.5510 O   0  0  0  0  0  1  0  0  0  0  0  0
  161.3940  203.5410  145.9030 O   0  0  0  0  0  0  0  0  0  0  0  0
  1  4  1  6  0  0  0
  1 11  1  0  0  0  0
  1  5  1  0  0  0  0
  2 10  1  0  0  0  0
  2  6  1  0  0  0  0
  3 12  2  0  0  0  0
  5 26  1  6  0  0  0
  5 12  1  0  0  0  0
  6 13  1  0  0  0  0
  6  4  1  0  0  0  0
  8 14  1  0  0  0  0
  9  7  1  1  0  0  0
  9  3  1  0  0  0  0
 10  6  1  0  0  0  0
 11  9  1  0  0  0  0
 12 22  1  0  0  0  0
 13 14  1  0  0  0  0
 14 11  1  0  0  0  0
 15 16  2  0  0  0  0
 16 13  1  0  0  0  0
 17 16  1  0  0  0  0
 18 20  2  0  0  0  0
 19 20  1  0  0  0  0
 19 21  2  0  0  0  0
 20 17  1  0  0  0  0
 21 15  1  0  0  0  0
 22 25  1  0  0  0  0
 22 24  1  0  0  0  0
 23 22  1  0  0  0  0
 28 32  1  0  0  0  0
 28 27  1  0  0  0  0
 29 31  1  0  0  0  0
 30 29  1  0  0  0  0
 30 28  1  0  0  0  0
 31 27  1  0  0  0  0
 31 26  1  0  0  0  0
 32 33  3  0  0  0  0
 34 30  1  0  0  0  0
 35 34  1  0  0  0  0
 36 35  1  0  0  0  0
 37 35  2  0  0  0  0
M  END
>  <MODEL>
8

>  <REMARK>
 VINA RESULT:      -2.9      3.282      7.473
  Name = 
  7 active torsions:
  status: ('A' for Active; 'I' for Inactive)
    1  A    between atoms: C_3  and  C_30
    2  A    between atoms: C_5  and  C_12
    3  A    between atoms: C_6  and  C_31
    4  A    between atoms: C_11  and  C_26
    5  A    between atoms: C_13  and  C_20
    6  A    between atoms: C_20  and  C_36
    7  A    between atoms: C_26  and  C_33
                            x       y       z     vdW  Elec       q    Type
                         _______ _______ _______ _____ _____    ______ ____

>  <TORSDO>
F 7

$$$$
=
 OpenBabel11062409073D

 37 41  0  0  1  0  0  0  0  0999 V2000
  162.2480  207.4180  150.3540 C   0  0  2  0  0  3  0  0  0  0  0  0
  160.4040  210.0510  152.5090 C   0  0  0  0  0  2  0  0  0  0  0  0
  160.4650  205.6870  149.0060 C   0  0  0  0  0  3  0  0  0  0  0  0
  161.3230  208.6220  150.6200 C   0  0  0  0  0  2  0  0  0  0  0  0
  162.4680  207.1560  148.8510 C   0  0  1  0  0  3  0  0  0  0  0  0
  161.1490  208.7990  152.1130 C   0  0  0  0  0  0  0  0  0  0  0  0
  160.0230  204.4490  151.0730 C   0  0  0  0  0  1  0  0  0  0  0  0
  163.1690  206.4410  153.0430 C   0  0  0  0  0  1  0  0  0  0  0  0
  160.4560  205.7940  150.5070 C   0  0  1  0  0  3  0  0  0  0  0  0
  161.9100  209.9430  152.7420 C   0  0  0  0  0  2  0  0  0  0  0  0
  161.7810  206.1830  151.0230 N   0  0  2  0  0  0  0  0  0  0  0  0
  161.3450  206.3410  148.2260 C   0  0  0  0  0  0  0  0  0  0  0  0
  160.8550  207.5340  152.9280 C   0  0  1  0  0  3  0  0  0  0  0  0
  161.7490  206.3530  152.4920 C   0  0  2  0  0  3  0  0  0  0  0  0
  159.9020  206.8180  155.1020 C   0  0  0  0  0  3  0  0  0  0  0  0
  160.6620  207.6810  154.4160 C   0  0  0  0  0  0  0  0  0  0  0  0
  161.3570  208.8340  155.0950 C   0  0  0  0  0  2  0  0  0  0  0  0
  161.6400  209.7980  157.2610 O   0  0  0  0  0  0  0  0  0  0  0  0
  160.2770  207.9120  157.2170 N   0  0  0  0  0  0  0  0  0  0  0  0
  161.1090  208.8850  156.5760 C   0  0  0  0  0  0  0  0  0  0  0  0
  159.7120  206.9520  156.5530 C   0  0  0  0  0  3  0  0  0  0  0  0
  161.3010  206.0710  146.7390 C   0  0  0  0  0  0  0  0  0  0  0  0
  162.5670  206.2070  146.1920 F   0  0  0  0  0  0  0  0  0  0  0  0
  160.8540  204.7810  146.5220 F   0  0  0  0  0  0  0  0  0  0  0  0
  160.4570  206.9520  146.0880 F   0  0  0  0  0  0  0  0  0  0  0  0
  162.7590  208.4450  148.0780 C   0  0  0  0  0  2  0  0  0  0  0  0
  161.0730  210.1400  147.3930 C   0  0  0  0  0  2  0  0  0  0  0  0
  160.8100  211.5870  147.7520 C   0  0  1  0  0  3  0  0  0  0  0  0
  162.6920  210.7410  149.0750 C   0  0  0  0  0  2  0  0  0  0  0  0
  161.9300  212.0010  148.6970 C   0  0  2  0  0  3  0  0  0  0  0  0
  161.8680  209.5820  148.5500 C   0  0  2  0  0  3  0  0  0  0  0  0
  160.8330  212.4150  146.5440 C   0  0  0  0  0  0  0  0  0  0  0  0
  160.8520  213.0690  145.5890 N   0  0  0  0  0  0  0  0  0  0  0  0
  161.4000  212.7450  149.9260 C   0  0  0  0  0  2  0  0  0  0  0  0
  160.0750  213.4050  149.6960 C   0  0  0  0  0  0  0  0  0  0  0  0
  159.0640  213.0280  150.3420 O   0  0  0  0  0  1  0  0  0  0  0  0
  159.9680  214.4520  148.7900 O   0  0  0  0  0  0  0  0  0  0  0  0
  1  4  1  6  0  0  0
  1 11  1  0  0  0  0
  2 10  1  0  0  0  0
  3  9  1  0  0  0  0
  4  6  1  0  0  0  0
  5 26  1  6  0  0  0
  5  1  1  0  0  0  0
  6  2  1  0  0  0  0
  6 10  1  0  0  0  0
  6 13  1  0  0  0  0
  9 11  1  0  0  0  0
  9  7  1  1  0  0  0
 11 14  1  0  0  0  0
 12  5  1  0  0  0  0
 12  3  2  0  0  0  0
 13 16  1  0  0  0  0
 14 13  1  0  0  0  0
 14  8  1  0  0  0  0
 15 21  1  0  0  0  0
 16 17  1  0  0  0  0
 16 15  2  0  0  0  0
 17 20  1  0  0  0  0
 20 19  1  0  0  0  0
 20 18  2  0  0  0  0
 21 19  2  0  0  0  0
 22 12  1  0  0  0  0
 23 22  1  0  0  0  0
 24 22  1  0  0  0  0
 25 22  1  0  0  0  0
 26 31  1  0  0  0  0
 27 28  1  0  0  0  0
 27 31  1  0  0  0  0
 28 30  1  0  0  0  0
 30 29  1  0  0  0  0
 30 34  1  0  0  0  0
 31 29  1  0  0  0  0
 32 28  1  0  0  0  0
 33 32  3  0  0  0  0
 35 34  1  0  0  0  0
 35 36  1  0  0  0  0
 37 35  2  0  0  0  0
M  END
>  <MODEL>
9

>  <REMARK>
 VINA RESULT:      -2.7      4.329      7.071
  Name = 
  7 active torsions:
  status: ('A' for Active; 'I' for Inactive)
    1  A    between atoms: C_3  and  C_30
    2  A    between atoms: C_5  and  C_12
    3  A    between atoms: C_6  and  C_31
    4  A    between atoms: C_11  and  C_26
    5  A    between atoms: C_13  and  C_20
    6  A    between atoms: C_20  and  C_36
    7  A    between atoms: C_26  and  C_33
                            x       y       z     vdW  Elec       q    Type
                         _______ _______ _______ _____ _____    ______ ____

>  <TORSDO>
F 7

$$$$
