=
 OpenBabel11062407403D

 27 30  0  0  1  0  0  0  0  0999 V2000
  161.0970  209.7580  151.0570 C   0  0  2  0  0  3  0  0  0  0  0  0
  160.4540  210.1550  152.3910 C   0  0  0  0  0  2  0  0  0  0  0  0
  160.6830  207.8660  152.3530 C   0  0  2  0  0  3  0  0  0  0  0  0
  160.8250  206.0950  150.3220 C   0  0  1  0  0  3  0  0  0  0  0  0
  162.3470  206.5440  153.5030 O   0  0  0  0  0  1  0  0  0  0  0  0
  161.0280  205.0890  149.2040 C   0  0  0  0  0  1  0  0  0  0  0  0
  161.5920  208.3560  151.2680 C   0  0  1  0  0  3  0  0  0  0  0  0
  160.3660  208.9720  153.2690 N   0  0  1  0  0  0  0  0  0  0  0  0
  161.2320  205.4970  151.6850 C   0  0  0  0  0  2  0  0  0  0  0  0
  162.7760  207.2830  149.4980 O   0  0  0  0  0  1  0  0  0  0  0  0
  161.4930  207.4630  150.0220 C   0  0  1  0  0  3  0  0  0  0  0  0
  161.1040  206.4800  152.8690 C   0  0  2  0  0  3  0  0  0  0  0  0
  162.7010  210.4950  155.9680 C   0  0  0  0  0  2  0  0  0  0  0  0
  162.4110  209.3090  156.8970 C   0  0  0  0  0  2  0  0  0  0  0  0
  161.0450  208.9830  156.8480 O   0  0  0  0  0  0  0  0  0  0  0  0
  161.3340  209.0730  154.3840 C   0  0  2  0  0  3  0  0  0  0  0  0
  160.8110  208.3080  155.6300 C   0  0  0  0  0  2  0  0  0  0  0  0
  161.7420  210.5170  154.7700 C   0  0  1  0  0  3  0  0  0  0  0  0
  160.8150  212.2320  156.1590 O   0  0  0  0  0  1  0  0  0  0  0  0
  160.5280  211.3850  155.0870 C   0  0  0  0  0  2  0  0  0  0  0  0
  162.2180  210.7130  150.6320 C   0  0  0  0  0  2  0  0  0  0  0  0
  161.0760  213.4910  147.5580 C   0  0  0  0  0  3  0  0  0  0  0  0
  161.8200  211.6740  149.5530 C   0  0  0  0  0  0  0  0  0  0  0  0
  160.7920  212.5940  149.7900 C   0  0  0  0  0  3  0  0  0  0  0  0
  160.4200  213.5010  148.7930 C   0  0  0  0  0  3  0  0  0  0  0  0
  162.1020  212.5720  147.3180 C   0  0  0  0  0  3  0  0  0  0  0  0
  162.4720  211.6630  148.3140 C   0  0  0  0  0  3  0  0  0  0  0  0
  1 21  1  1  0  0  0
  1  7  1  0  0  0  0
  1  2  1  0  0  0  0
  2  8  1  0  0  0  0
  3 12  1  0  0  0  0
  3  8  1  0  0  0  0
  4  9  1  0  0  0  0
  6  4  1  0  0  0  0
  7  3  1  0  0  0  0
  8 16  1  0  0  0  0
  9 12  1  0  0  0  0
 10 11  1  0  0  0  0
 11  4  1  0  0  0  0
 11  7  1  0  0  0  0
 12  5  1  0  0  0  0
 13 14  1  0  0  0  0
 15 14  1  0  0  0  0
 16 18  1  0  0  0  0
 16 17  1  0  0  0  0
 17 15  1  0  0  0  0
 18 20  1  0  0  0  0
 18 13  1  0  0  0  0
 20 19  1  0  0  0  0
 22 25  1  0  0  0  0
 23 24  1  0  0  0  0
 23 21  1  0  0  0  0
 25 24  2  0  0  0  0
 26 22  2  0  0  0  0
 26 27  1  0  0  0  0
 27 23  2  0  0  0  0
M  END
>  <MODEL>
1

>  <REMARK>
 VINA RESULT:      -6.2      0.000      0.000
  Name = 
  4 active torsions:
  status: ('A' for Active; 'I' for Inactive)
    1  A    between atoms: C_1  and  C_15
    2  A    between atoms: C_9  and  C_15
    3  A    between atoms: C_14  and  N_19
    4  A    between atoms: C_17  and  C_21
                            x       y       z     vdW  Elec       q    Type
                         _______ _______ _______ _____ _____    ______ ____

>  <TORSDO>
F 4

$$$$
=
 OpenBabel11062407403D

 27 30  0  0  1  0  0  0  0  0999 V2000
  161.5710  205.7400  151.8100 C   0  0  2  0  0  3  0  0  0  0  0  0
  161.9380  206.1860  153.2290 C   0  0  0  0  0  2  0  0  0  0  0  0
  162.0430  208.0220  151.8460 C   0  0  2  0  0  3  0  0  0  0  0  0
  162.4670  208.2650  149.1930 C   0  0  1  0  0  3  0  0  0  0  0  0
  160.4250  209.8070  151.6600 O   0  0  0  0  0  1  0  0  0  0  0  0
  162.5830  208.4280  147.6880 C   0  0  0  0  0  1  0  0  0  0  0  0
  161.2520  207.0100  151.0740 C   0  0  1  0  0  3  0  0  0  0  0  0
  162.0550  207.6570  153.2700 N   0  0  1  0  0  0  0  0  0  0  0  0
  161.9420  209.5590  149.8500 C   0  0  0  0  0  2  0  0  0  0  0  0
  160.5190  206.8670  148.8100 O   0  0  0  0  0  1  0  0  0  0  0  0
  161.6670  206.9990  149.5960 C   0  0  1  0  0  3  0  0  0  0  0  0
  161.7470  209.4560  151.3780 C   0  0  2  0  0  3  0  0  0  0  0  0
  159.1100  208.0490  155.7660 C   0  0  0  0  0  2  0  0  0  0  0  0
  159.4430  209.5370  155.9350 C   0  0  0  0  0  2  0  0  0  0  0  0
  160.8340  209.7120  156.0210 O   0  0  0  0  0  0  0  0  0  0  0  0
  160.9220  208.2540  154.0130 C   0  0  2  0  0  3  0  0  0  0  0  0
  161.3630  209.5640  154.7190 C   0  0  0  0  0  2  0  0  0  0  0  0
  160.2260  207.3050  155.0220 C   0  0  1  0  0  3  0  0  0  0  0  0
  160.5990  206.5420  157.2600 O   0  0  0  0  0  1  0  0  0  0  0  0
  161.2170  206.7120  156.0200 C   0  0  0  0  0  2  0  0  0  0  0  0
  160.4050  204.7440  151.7830 C   0  0  0  0  0  2  0  0  0  0  0  0
  161.0680  201.3930  149.1760 C   0  0  0  0  0  3  0  0  0  0  0  0
  160.6300  203.5700  150.8810 C   0  0  0  0  0  0  0  0  0  0  0  0
  160.5390  203.7350  149.4940 C   0  0  0  0  0  3  0  0  0  0  0  0
  160.7570  202.6470  148.6420 C   0  0  0  0  0  3  0  0  0  0  0  0
  161.1580  201.2250  150.5610 C   0  0  0  0  0  3  0  0  0  0  0  0
  160.9370  202.3110  151.4130 C   0  0  0  0  0  3  0  0  0  0  0  0
  1 21  1  1  0  0  0
  1  2  1  0  0  0  0
  2  8  1  0  0  0  0
  3  8  1  0  0  0  0
  4 11  1  0  0  0  0
  4  9  1  0  0  0  0
  6  4  1  0  0  0  0
  7  1  1  0  0  0  0
  7  3  1  0  0  0  0
  8 16  1  0  0  0  0
  9 12  1  0  0  0  0
 10 11  1  0  0  0  0
 11  7  1  0  0  0  0
 12  5  1  0  0  0  0
 12  3  1  0  0  0  0
 13 14  1  0  0  0  0
 14 15  1  0  0  0  0
 16 17  1  0  0  0  0
 16 18  1  0  0  0  0
 17 15  1  0  0  0  0
 18 13  1  0  0  0  0
 18 20  1  0  0  0  0
 20 19  1  0  0  0  0
 22 26  1  0  0  0  0
 23 27  1  0  0  0  0
 23 21  1  0  0  0  0
 24 23  2  0  0  0  0
 25 22  2  0  0  0  0
 25 24  1  0  0  0  0
 26 27  2  0  0  0  0
M  END
>  <MODEL>
2

>  <REMARK>
 VINA RESULT:      -5.9      2.314      5.844
  Name = 
  4 active torsions:
  status: ('A' for Active; 'I' for Inactive)
    1  A    between atoms: C_1  and  C_15
    2  A    between atoms: C_9  and  C_15
    3  A    between atoms: C_14  and  N_19
    4  A    between atoms: C_17  and  C_21
                            x       y       z     vdW  Elec       q    Type
                         _______ _______ _______ _____ _____    ______ ____

>  <TORSDO>
F 4

$$$$
=
 OpenBabel11062407403D

 27 30  0  0  1  0  0  0  0  0999 V2000
  161.5960  210.7380  151.4690 C   0  0  2  0  0  3  0  0  0  0  0  0
  162.3310  209.5630  150.8140 C   0  0  0  0  0  2  0  0  0  0  0  0
  161.8280  208.9810  152.9820 C   0  0  2  0  0  3  0  0  0  0  0  0
  161.4000  210.4570  155.1990 C   0  0  1  0  0  3  0  0  0  0  0  0
  160.0610  207.5110  153.7290 O   0  0  0  0  0  1  0  0  0  0  0  0
  161.0370  211.2610  156.4350 C   0  0  0  0  0  1  0  0  0  0  0  0
  160.9440  210.1550  152.6910 C   0  0  1  0  0  3  0  0  0  0  0  0
  162.3080  208.3990  151.7200 N   0  0  1  0  0  0  0  0  0  0  0  0
  160.9740  208.9820  155.3550 C   0  0  0  0  0  2  0  0  0  0  0  0
  159.5760  211.5650  154.0410 O   0  0  0  0  0  1  0  0  0  0  0  0
  160.8900  211.1130  153.8890 C   0  0  1  0  0  3  0  0  0  0  0  0
  161.2630  208.1080  154.1160 C   0  0  2  0  0  3  0  0  0  0  0  0
  160.2480  206.2240  149.2530 C   0  0  0  0  0  2  0  0  0  0  0  0
  160.4550  204.9980  150.1510 C   0  0  0  0  0  2  0  0  0  0  0  0
  161.7790  204.9650  150.6220 O   0  0  0  0  0  0  0  0  0  0  0  0
  161.4010  207.3490  151.2040 C   0  0  2  0  0  3  0  0  0  0  0  0
  161.8940  205.9420  151.6360 C   0  0  0  0  0  2  0  0  0  0  0  0
  161.1550  207.3880  149.6750 C   0  0  1  0  0  3  0  0  0  0  0  0
  162.2290  206.8430  147.6070 O   0  0  0  0  0  1  0  0  0  0  0  0
  162.4610  207.3460  148.8880 C   0  0  0  0  0  2  0  0  0  0  0  0
  160.5820  211.4020  150.5300 C   0  0  0  0  0  2  0  0  0  0  0  0
  162.3730  213.9270  147.5500 C   0  0  0  0  0  3  0  0  0  0  0  0
  161.2050  212.2750  149.4840 C   0  0  0  0  0  0  0  0  0  0  0  0
  160.8520  213.6280  149.4110 C   0  0  0  0  0  3  0  0  0  0  0  0
  161.4350  214.4530  148.4440 C   0  0  0  0  0  3  0  0  0  0  0  0
  162.7250  212.5760  147.6190 C   0  0  0  0  0  3  0  0  0  0  0  0
  162.1400  211.7500  148.5840 C   0  0  0  0  0  3  0  0  0  0  0  0
  1 21  1  6  0  0  0
  1  7  1  0  0  0  0
  2  1  1  0  0  0  0
  2  8  1  0  0  0  0
  3 12  1  0  0  0  0
  4  9  1  0  0  0  0
  4  6  1  0  0  0  0
  5 12  1  0  0  0  0
  7  3  1  0  0  0  0
  7 11  1  0  0  0  0
  8  3  1  0  0  0  0
 11 10  1  0  0  0  0
 11  4  1  0  0  0  0
 12  9  1  0  0  0  0
 13 18  1  0  0  0  0
 13 14  1  0  0  0  0
 14 15  1  0  0  0  0
 15 17  1  0  0  0  0
 16 17  1  0  0  0  0
 16  8  1  0  0  0  0
 18 16  1  0  0  0  0
 19 20  1  0  0  0  0
 20 18  1  0  0  0  0
 22 26  2  0  0  0  0
 22 25  1  0  0  0  0
 23 21  1  0  0  0  0
 24 23  1  0  0  0  0
 25 24  2  0  0  0  0
 26 27  1  0  0  0  0
 27 23  2  0  0  0  0
M  END
>  <MODEL>
3

>  <REMARK>
 VINA RESULT:      -5.1      1.522      5.118
  Name = 
  4 active torsions:
  status: ('A' for Active; 'I' for Inactive)
    1  A    between atoms: C_1  and  C_15
    2  A    between atoms: C_9  and  C_15
    3  A    between atoms: C_14  and  N_19
    4  A    between atoms: C_17  and  C_21
                            x       y       z     vdW  Elec       q    Type
                         _______ _______ _______ _____ _____    ______ ____

>  <TORSDO>
F 4

$$$$
=
 OpenBabel11062407403D

 27 30  0  0  1  0  0  0  0  0999 V2000
  160.4810  204.7080  150.8820 C   0  0  2  0  0  3  0  0  0  0  0  0
  160.0690  204.7990  149.4080 C   0  0  0  0  0  2  0  0  0  0  0  0
  160.8530  206.8590  150.0670 C   0  0  2  0  0  3  0  0  0  0  0  0
  160.9850  208.0580  152.4800 C   0  0  1  0  0  3  0  0  0  0  0  0
  163.0070  207.8330  149.5660 O   0  0  0  0  0  1  0  0  0  0  0  0
  161.1830  208.7100  153.8370 C   0  0  0  0  0  1  0  0  0  0  0  0
  161.3470  205.9120  151.1170 C   0  0  1  0  0  3  0  0  0  0  0  0
  160.4780  206.1060  148.8610 N   0  0  1  0  0  0  0  0  0  0  0  0
  161.8200  208.7710  151.3970 C   0  0  0  0  0  2  0  0  0  0  0  0
  162.3420  206.2030  153.2640 O   0  0  0  0  0  1  0  0  0  0  0  0
  161.2040  206.5220  152.5190 C   0  0  1  0  0  3  0  0  0  0  0  0
  161.7120  208.1320  149.9950 C   0  0  2  0  0  3  0  0  0  0  0  0
  163.0750  204.4640  146.4920 C   0  0  0  0  0  2  0  0  0  0  0  0
  163.0810  205.7220  145.6150 C   0  0  0  0  0  2  0  0  0  0  0  0
  161.7710  206.2030  145.4550 O   0  0  0  0  0  0  0  0  0  0  0  0
  161.6100  205.9520  147.9200 C   0  0  2  0  0  3  0  0  0  0  0  0
  161.3990  206.8370  146.6620 C   0  0  0  0  0  2  0  0  0  0  0  0
  161.9240  204.4920  147.5060 C   0  0  1  0  0  3  0  0  0  0  0  0
  161.0900  202.8990  145.9260 O   0  0  0  0  0  1  0  0  0  0  0  0
  160.6990  203.7890  146.9270 C   0  0  0  0  0  2  0  0  0  0  0  0
  161.2030  203.3970  151.2160 C   0  0  0  0  0  2  0  0  0  0  0  0
  160.6650  200.3370  148.2480 C   0  0  0  0  0  3  0  0  0  0  0  0
  161.0230  202.3250  150.1860 C   0  0  0  0  0  0  0  0  0  0  0  0
  159.7320  201.9470  149.7980 C   0  0  0  0  0  3  0  0  0  0  0  0
  159.5540  200.9530  148.8300 C   0  0  0  0  0  3  0  0  0  0  0  0
  161.9560  200.7110  148.6350 C   0  0  0  0  0  3  0  0  0  0  0  0
  162.1350  201.7020  149.6050 C   0  0  0  0  0  3  0  0  0  0  0  0
  1  7  1  0  0  0  0
  1 21  1  6  0  0  0
  2  1  1  0  0  0  0
  3  7  1  0  0  0  0
  4 11  1  0  0  0  0
  4  6  1  0  0  0  0
  5 12  1  0  0  0  0
  7 11  1  0  0  0  0
  8  2  1  0  0  0  0
  8  3  1  0  0  0  0
  9  4  1  0  0  0  0
 11 10  1  0  0  0  0
 12  3  1  0  0  0  0
 12  9  1  0  0  0  0
 13 18  1  0  0  0  0
 14 13  1  0  0  0  0
 15 14  1  0  0  0  0
 15 17  1  0  0  0  0
 16  8  1  0  0  0  0
 17 16  1  0  0  0  0
 18 16  1  0  0  0  0
 19 20  1  0  0  0  0
 20 18  1  0  0  0  0
 22 26  2  0  0  0  0
 22 25  1  0  0  0  0
 23 21  1  0  0  0  0
 24 23  1  0  0  0  0
 25 24  2  0  0  0  0
 26 27  1  0  0  0  0
 27 23  2  0  0  0  0
M  END
>  <MODEL>
4

>  <REMARK>
 VINA RESULT:      -4.8      3.275      8.580
  Name = 
  4 active torsions:
  status: ('A' for Active; 'I' for Inactive)
    1  A    between atoms: C_1  and  C_15
    2  A    between atoms: C_9  and  C_15
    3  A    between atoms: C_14  and  N_19
    4  A    between atoms: C_17  and  C_21
                            x       y       z     vdW  Elec       q    Type
                         _______ _______ _______ _____ _____    ______ ____

>  <TORSDO>
F 4

$$$$
=
 OpenBabel11062407403D

 27 30  0  0  1  0  0  0  0  0999 V2000
  160.8950  210.2130  152.4660 C   0  0  2  0  0  3  0  0  0  0  0  0
  161.6510  209.5540  151.3070 C   0  0  0  0  0  2  0  0  0  0  0  0
  161.7230  208.1330  153.1160 C   0  0  2  0  0  3  0  0  0  0  0  0
  161.5460  208.5750  155.7710 C   0  0  1  0  0  3  0  0  0  0  0  0
  160.4150  206.1300  153.4530 O   0  0  0  0  0  1  0  0  0  0  0  0
  161.3310  208.7760  157.2610 C   0  0  0  0  0  1  0  0  0  0  0  0
  160.6210  209.0970  153.4340 C   0  0  1  0  0  3  0  0  0  0  0  0
  162.0090  208.1700  151.6740 N   0  0  1  0  0  0  0  0  0  0  0  0
  161.4050  207.0870  155.3880 C   0  0  0  0  0  2  0  0  0  0  0  0
  159.3640  209.5740  155.4030 O   0  0  0  0  0  1  0  0  0  0  0  0
  160.6710  209.5220  154.9090 C   0  0  1  0  0  3  0  0  0  0  0  0
  161.5600  206.8080  153.8780 C   0  0  2  0  0  3  0  0  0  0  0  0
  160.2590  206.3820  148.7080 C   0  0  0  0  0  2  0  0  0  0  0  0
  160.4380  205.0300  149.4100 C   0  0  0  0  0  2  0  0  0  0  0  0
  161.7160  204.9530  149.9890 O   0  0  0  0  0  0  0  0  0  0  0  0
  161.1930  207.1970  150.9130 C   0  0  2  0  0  3  0  0  0  0  0  0
  161.7040  205.7510  151.1540 C   0  0  0  0  0  2  0  0  0  0  0  0
  161.0780  207.4830  149.3950 C   0  0  1  0  0  3  0  0  0  0  0  0
  162.4180  207.0290  147.4630 O   0  0  0  0  0  1  0  0  0  0  0  0
  162.4490  207.6050  148.7340 C   0  0  0  0  0  2  0  0  0  0  0  0
  159.6110  210.9180  152.0120 C   0  0  0  0  0  2  0  0  0  0  0  0
  157.7820  213.3260  155.0660 C   0  0  0  0  0  3  0  0  0  0  0  0
  158.9770  211.7660  153.0730 C   0  0  0  0  0  0  0  0  0  0  0  0
  157.6660  211.4960  153.4830 C   0  0  0  0  0  3  0  0  0  0  0  0
  157.0690  212.2760  154.4790 C   0  0  0  0  0  3  0  0  0  0  0  0
  159.0910  213.5980  154.6560 C   0  0  0  0  0  3  0  0  0  0  0  0
  159.6870  212.8210  153.6590 C   0  0  0  0  0  3  0  0  0  0  0  0
  1 21  1  6  0  0  0
  1  7  1  0  0  0  0
  2  8  1  0  0  0  0
  2  1  1  0  0  0  0
  3  7  1  0  0  0  0
  3 12  1  0  0  0  0
  4  6  1  0  0  0  0
  5 12  1  0  0  0  0
  7 11  1  0  0  0  0
  8  3  1  0  0  0  0
  9  4  1  0  0  0  0
 11 10  1  0  0  0  0
 11  4  1  0  0  0  0
 12  9  1  0  0  0  0
 13 18  1  0  0  0  0
 13 14  1  0  0  0  0
 14 15  1  0  0  0  0
 15 17  1  0  0  0  0
 16 17  1  0  0  0  0
 16  8  1  0  0  0  0
 18 16  1  0  0  0  0
 19 20  1  0  0  0  0
 20 18  1  0  0  0  0
 21 23  1  0  0  0  0
 23 24  2  0  0  0  0
 23 27  1  0  0  0  0
 24 25  1  0  0  0  0
 25 22  2  0  0  0  0
 26 22  1  0  0  0  0
 27 26  2  0  0  0  0
M  END
>  <MODEL>
5

>  <REMARK>
 VINA RESULT:      -4.8      2.402      5.983
  Name = 
  4 active torsions:
  status: ('A' for Active; 'I' for Inactive)
    1  A    between atoms: C_1  and  C_15
    2  A    between atoms: C_9  and  C_15
    3  A    between atoms: C_14  and  N_19
    4  A    between atoms: C_17  and  C_21
                            x       y       z     vdW  Elec       q    Type
                         _______ _______ _______ _____ _____    ______ ____

>  <TORSDO>
F 4

$$$$
=
 OpenBabel11062407403D

 27 30  0  0  1  0  0  0  0  0999 V2000
  161.7750  206.6420  149.6610 C   0  0  2  0  0  3  0  0  0  0  0  0
  162.3050  205.2250  149.4150 C   0  0  0  0  0  2  0  0  0  0  0  0
  161.8420  205.4430  151.6580 C   0  0  2  0  0  3  0  0  0  0  0  0
  161.7400  207.5940  153.2830 C   0  0  1  0  0  3  0  0  0  0  0  0
  159.9310  204.5650  152.8490 O   0  0  0  0  0  1  0  0  0  0  0  0
  161.5570  208.7940  154.1950 C   0  0  0  0  0  1  0  0  0  0  0  0
  161.1140  206.5800  151.0080 C   0  0  1  0  0  3  0  0  0  0  0  0
  162.1690  204.4260  150.6480 N   0  0  1  0  0  0  0  0  0  0  0  0
  161.1230  206.3250  153.9080 C   0  0  0  0  0  2  0  0  0  0  0  0
  160.0280  208.5330  151.8390 O   0  0  0  0  0  1  0  0  0  0  0  0
  161.2570  207.8670  151.8340 C   0  0  1  0  0  3  0  0  0  0  0  0
  161.2230  205.0700  153.0150 C   0  0  2  0  0  3  0  0  0  0  0  0
  159.5210  202.1000  149.0260 C   0  0  0  0  0  2  0  0  0  0  0  0
  159.7880  201.0360  150.0990 C   0  0  0  0  0  2  0  0  0  0  0  0
  161.1680  200.9350  150.3430 O   0  0  0  0  0  0  0  0  0  0  0  0
  161.1000  203.4120  150.5030 C   0  0  2  0  0  3  0  0  0  0  0  0
  161.5480  202.0570  151.1140 C   0  0  0  0  0  2  0  0  0  0  0  0
  160.5820  203.2080  149.0570 C   0  0  1  0  0  3  0  0  0  0  0  0
  161.1900  202.5570  146.8350 O   0  0  0  0  0  1  0  0  0  0  0  0
  161.7140  202.8760  148.0890 C   0  0  0  0  0  2  0  0  0  0  0  0
  160.8140  207.1150  148.5630 C   0  0  0  0  0  2  0  0  0  0  0  0
  161.6040  205.3620  144.7200 C   0  0  0  0  0  3  0  0  0  0  0  0
  161.0830  206.5110  147.2190 C   0  0  0  0  0  0  0  0  0  0  0  0
  162.3930  206.1730  146.8610 C   0  0  0  0  0  3  0  0  0  0  0  0
  162.6530  205.5990  145.6120 C   0  0  0  0  0  3  0  0  0  0  0  0
  160.2940  205.7000  145.0740 C   0  0  0  0  0  3  0  0  0  0  0  0
  160.0340  206.2760  146.3210 C   0  0  0  0  0  3  0  0  0  0  0  0
  1 21  1  6  0  0  0
  1  7  1  0  0  0  0
  2  1  1  0  0  0  0
  2  8  1  0  0  0  0
  3 12  1  0  0  0  0
  4  9  1  0  0  0  0
  4  6  1  0  0  0  0
  5 12  1  0  0  0  0
  7  3  1  0  0  0  0
  7 11  1  0  0  0  0
  8  3  1  0  0  0  0
 11 10  1  0  0  0  0
 11  4  1  0  0  0  0
 12  9  1  0  0  0  0
 13 18  1  0  0  0  0
 13 14  1  0  0  0  0
 14 15  1  0  0  0  0
 15 17  1  0  0  0  0
 16  8  1  0  0  0  0
 16 17  1  0  0  0  0
 18 16  1  0  0  0  0
 19 20  1  0  0  0  0
 20 18  1  0  0  0  0
 22 26  2  0  0  0  0
 22 25  1  0  0  0  0
 23 21  1  0  0  0  0
 24 23  1  0  0  0  0
 25 24  2  0  0  0  0
 26 27  1  0  0  0  0
 27 23  2  0  0  0  0
M  END
>  <MODEL>
6

>  <REMARK>
 VINA RESULT:      -4.3      3.643      7.158
  Name = 
  4 active torsions:
  status: ('A' for Active; 'I' for Inactive)
    1  A    between atoms: C_1  and  C_15
    2  A    between atoms: C_9  and  C_15
    3  A    between atoms: C_14  and  N_19
    4  A    between atoms: C_17  and  C_21
                            x       y       z     vdW  Elec       q    Type
                         _______ _______ _______ _____ _____    ______ ____

>  <TORSDO>
F 4

$$$$
=
 OpenBabel11062407403D

 27 30  0  0  1  0  0  0  0  0999 V2000
  160.1750  212.8950  141.1870 C   0  0  2  0  0  3  0  0  0  0  0  0
  158.9480  213.5530  140.5470 C   0  0  0  0  0  2  0  0  0  0  0  0
  160.3720  212.8940  138.8650 C   0  0  2  0  0  3  0  0  0  0  0  0
  163.0390  212.4900  138.8060 C   0  0  1  0  0  3  0  0  0  0  0  0
  160.1390  210.9690  137.4230 O   0  0  0  0  0  1  0  0  0  0  0  0
  164.5150  212.1400  138.7710 C   0  0  0  0  0  1  0  0  0  0  0  0
  160.8330  212.1340  140.0710 C   0  0  1  0  0  3  0  0  0  0  0  0
  159.0020  213.3820  139.0830 N   0  0  1  0  0  0  0  0  0  0  0  0
  162.3070  211.9280  137.5690 C   0  0  0  0  0  2  0  0  0  0  0  0
  162.7690  210.8330  140.5590 O   0  0  0  0  0  1  0  0  0  0  0  0
  162.3660  212.1070  140.1500 C   0  0  1  0  0  3  0  0  0  0  0  0
  160.7880  212.1990  137.5580 C   0  0  2  0  0  3  0  0  0  0  0  0
  155.7770  211.2250  139.0010 C   0  0  0  0  0  2  0  0  0  0  0  0
  155.7460  211.3190  137.4700 C   0  0  0  0  0  2  0  0  0  0  0  0
  156.0670  212.6240  137.0610 O   0  0  0  0  0  0  0  0  0  0  0  0
  157.9800  212.4120  138.6280 C   0  0  2  0  0  3  0  0  0  0  0  0
  157.4610  212.7880  137.2150 C   0  0  0  0  0  2  0  0  0  0  0  0
  156.7930  212.2060  139.6030 C   0  0  1  0  0  3  0  0  0  0  0  0
  154.7580  213.2990  140.2300 O   0  0  0  0  0  1  0  0  0  0  0  0
  156.1060  213.5240  139.9470 C   0  0  0  0  0  2  0  0  0  0  0  0
  159.8140  211.9920  142.3720 C   0  0  0  0  0  2  0  0  0  0  0  0
  161.6910  213.1030  146.0750 C   0  0  0  0  0  3  0  0  0  0  0  0
  160.4720  212.3880  143.6590 C   0  0  0  0  0  0  0  0  0  0  0  0
  159.7870  212.2180  144.8680 C   0  0  0  0  0  3  0  0  0  0  0  0
  160.3960  212.5750  146.0750 C   0  0  0  0  0  3  0  0  0  0  0  0
  162.3760  213.2760  144.8690 C   0  0  0  0  0  3  0  0  0  0  0  0
  161.7670  212.9210  143.6620 C   0  0  0  0  0  3  0  0  0  0  0  0
  1 21  1  1  0  0  0
  2  1  1  0  0  0  0
  3  8  1  0  0  0  0
  3  7  1  0  0  0  0
  4 11  1  0  0  0  0
  5 12  1  0  0  0  0
  6  4  1  0  0  0  0
  7 11  1  0  0  0  0
  7  1  1  0  0  0  0
  8  2  1  0  0  0  0
  9  4  1  0  0  0  0
 11 10  1  0  0  0  0
 12  9  1  0  0  0  0
 12  3  1  0  0  0  0
 13 18  1  0  0  0  0
 14 13  1  0  0  0  0
 15 17  1  0  0  0  0
 15 14  1  0  0  0  0
 16  8  1  0  0  0  0
 16 18  1  0  0  0  0
 17 16  1  0  0  0  0
 18 20  1  0  0  0  0
 20 19  1  0  0  0  0
 21 23  1  0  0  0  0
 22 25  1  0  0  0  0
 23 27  2  0  0  0  0
 23 24  1  0  0  0  0
 24 25  2  0  0  0  0
 26 22  2  0  0  0  0
 27 26  1  0  0  0  0
M  END
>  <MODEL>
7

>  <REMARK>
 VINA RESULT:      -4.2      9.062     13.609
  Name = 
  4 active torsions:
  status: ('A' for Active; 'I' for Inactive)
    1  A    between atoms: C_1  and  C_15
    2  A    between atoms: C_9  and  C_15
    3  A    between atoms: C_14  and  N_19
    4  A    between atoms: C_17  and  C_21
                            x       y       z     vdW  Elec       q    Type
                         _______ _______ _______ _____ _____    ______ ____

>  <TORSDO>
F 4

$$$$
=
 OpenBabel11062407403D

 27 30  0  0  1  0  0  0  0  0999 V2000
  161.3500  206.5810  148.2320 C   0  0  2  0  0  3  0  0  0  0  0  0
  160.5510  205.8190  149.2960 C   0  0  0  0  0  2  0  0  0  0  0  0
  160.6470  204.5210  147.3990 C   0  0  2  0  0  3  0  0  0  0  0  0
  160.9680  205.1460  144.7940 C   0  0  1  0  0  3  0  0  0  0  0  0
  162.0530  202.5930  147.0160 O   0  0  0  0  0  1  0  0  0  0  0  0
  161.2650  205.4530  143.3370 C   0  0  0  0  0  1  0  0  0  0  0  0
  161.7270  205.5430  147.2140 C   0  0  1  0  0  3  0  0  0  0  0  0
  160.2720  204.4510  148.8190 N   0  0  1  0  0  0  0  0  0  0  0  0
  161.1440  203.6420  145.0880 C   0  0  0  0  0  2  0  0  0  0  0  0
  163.0810  206.1960  145.3640 O   0  0  0  0  0  1  0  0  0  0  0  0
  161.7500  206.0640  145.7690 C   0  0  1  0  0  3  0  0  0  0  0  0
  160.9090  203.2560  146.5640 C   0  0  2  0  0  3  0  0  0  0  0  0
  162.3510  202.8040  151.6510 C   0  0  0  0  0  2  0  0  0  0  0  0
  161.8100  201.4240  151.2540 C   0  0  0  0  0  2  0  0  0  0  0  0
  160.4380  201.5110  150.9640 O   0  0  0  0  0  0  0  0  0  0  0  0
  161.0780  203.4590  149.5650 C   0  0  2  0  0  3  0  0  0  0  0  0
  160.3080  202.1180  149.6950 C   0  0  0  0  0  2  0  0  0  0  0  0
  161.5780  203.9320  150.9540 C   0  0  1  0  0  3  0  0  0  0  0  0
  160.9250  204.8350  153.0720 O   0  0  0  0  0  1  0  0  0  0  0  0
  160.4290  204.4050  151.8400 C   0  0  0  0  0  2  0  0  0  0  0  0
  162.5740  207.3000  148.8110 C   0  0  0  0  0  2  0  0  0  0  0  0
  161.6730  209.7770  152.2060 C   0  0  0  0  0  3  0  0  0  0  0  0
  162.2680  208.1590  150.0000 C   0  0  0  0  0  0  0  0  0  0  0  0
  161.9860  209.5180  149.8180 C   0  0  0  0  0  3  0  0  0  0  0  0
  161.6900  210.3260  150.9200 C   0  0  0  0  0  3  0  0  0  0  0  0
  161.9570  208.4200  152.3910 C   0  0  0  0  0  3  0  0  0  0  0  0
  162.2560  207.6120  151.2890 C   0  0  0  0  0  3  0  0  0  0  0  0
  1 21  1  1  0  0  0
  1  2  1  0  0  0  0
  3  8  1  0  0  0  0
  4  9  1  0  0  0  0
  4 11  1  0  0  0  0
  6  4  1  0  0  0  0
  7  3  1  0  0  0  0
  7  1  1  0  0  0  0
  8  2  1  0  0  0  0
  8 16  1  0  0  0  0
  9 12  1  0  0  0  0
 10 11  1  0  0  0  0
 11  7  1  0  0  0  0
 12  5  1  0  0  0  0
 12  3  1  0  0  0  0
 14 13  1  0  0  0  0
 15 14  1  0  0  0  0
 16 17  1  0  0  0  0
 16 18  1  0  0  0  0
 17 15  1  0  0  0  0
 18 13  1  0  0  0  0
 18 20  1  0  0  0  0
 20 19  1  0  0  0  0
 21 23  1  0  0  0  0
 22 26  1  0  0  0  0
 23 27  1  0  0  0  0
 24 23  2  0  0  0  0
 24 25  1  0  0  0  0
 25 22  2  0  0  0  0
 27 26  2  0  0  0  0
M  END
>  <MODEL>
8

>  <REMARK>
 VINA RESULT:      -4.2      3.440      6.494
  Name = 
  4 active torsions:
  status: ('A' for Active; 'I' for Inactive)
    1  A    between atoms: C_1  and  C_15
    2  A    between atoms: C_9  and  C_15
    3  A    between atoms: C_14  and  N_19
    4  A    between atoms: C_17  and  C_21
                            x       y       z     vdW  Elec       q    Type
                         _______ _______ _______ _____ _____    ______ ____

>  <TORSDO>
F 4

$$$$
=
 OpenBabel11062407403D

 27 30  0  0  1  0  0  0  0  0999 V2000
  160.6010  205.5670  150.9510 C   0  0  2  0  0  3  0  0  0  0  0  0
  159.8390  204.3760  150.3590 C   0  0  0  0  0  2  0  0  0  0  0  0
  160.8600  205.5060  148.6360 C   0  0  2  0  0  3  0  0  0  0  0  0
  161.6480  208.0730  148.3720 C   0  0  1  0  0  3  0  0  0  0  0  0
  162.8650  204.8630  147.4500 O   0  0  0  0  0  1  0  0  0  0  0  0
  162.2100  209.4770  148.2370 C   0  0  0  0  0  1  0  0  0  0  0  0
  161.5550  205.9910  149.8710 C   0  0  1  0  0  3  0  0  0  0  0  0
  160.1600  204.2460  148.9250 N   0  0  1  0  0  0  0  0  0  0  0  0
  162.2190  207.1420  147.2810 C   0  0  0  0  0  2  0  0  0  0  0  0
  163.0680  207.7780  150.3190 O   0  0  0  0  0  1  0  0  0  0  0  0
  161.7960  207.5060  149.8080 C   0  0  1  0  0  3  0  0  0  0  0  0
  161.7340  205.6800  147.3830 C   0  0  2  0  0  3  0  0  0  0  0  0
  161.6160  200.6600  149.2050 C   0  0  0  0  0  2  0  0  0  0  0  0
  161.9570  200.6750  147.7100 C   0  0  0  0  0  2  0  0  0  0  0  0
  160.9040  201.2550  146.9820 O   0  0  0  0  0  0  0  0  0  0  0  0
  161.0130  203.0610  148.6820 C   0  0  2  0  0  3  0  0  0  0  0  0
  160.9640  202.6520  147.1860 C   0  0  0  0  0  2  0  0  0  0  0  0
  160.7100  201.8390  149.5860 C   0  0  1  0  0  3  0  0  0  0  0  0
  158.9550  200.4990  150.5110 O   0  0  0  0  0  1  0  0  0  0  0  0
  159.2440  201.4210  149.5030 C   0  0  0  0  0  2  0  0  0  0  0  0
  161.3210  205.2200  152.2600 C   0  0  0  0  0  2  0  0  0  0  0  0
  160.7470  208.1440  155.3560 C   0  0  0  0  0  3  0  0  0  0  0  0
  161.1270  206.2340  153.3460 C   0  0  0  0  0  0  0  0  0  0  0  0
  161.2140  207.5980  153.0430 C   0  0  0  0  0  3  0  0  0  0  0  0
  161.0250  208.5520  154.0480 C   0  0  0  0  0  3  0  0  0  0  0  0
  160.6620  206.7820  155.6620 C   0  0  0  0  0  3  0  0  0  0  0  0
  160.8540  205.8280  154.6580 C   0  0  0  0  0  3  0  0  0  0  0  0
  1 21  1  1  0  0  0
  2  1  1  0  0  0  0
  3  8  1  0  0  0  0
  3  7  1  0  0  0  0
  4 11  1  0  0  0  0
  6  4  1  0  0  0  0
  7  1  1  0  0  0  0
  8  2  1  0  0  0  0
  9 12  1  0  0  0  0
  9  4  1  0  0  0  0
 11  7  1  0  0  0  0
 11 10  1  0  0  0  0
 12  5  1  0  0  0  0
 12  3  1  0  0  0  0
 13 18  1  0  0  0  0
 14 13  1  0  0  0  0
 15 17  1  0  0  0  0
 15 14  1  0  0  0  0
 16  8  1  0  0  0  0
 16 18  1  0  0  0  0
 17 16  1  0  0  0  0
 20 18  1  0  0  0  0
 20 19  1  0  0  0  0
 21 23  1  0  0  0  0
 22 26  1  0  0  0  0
 23 27  1  0  0  0  0
 24 23  2  0  0  0  0
 24 25  1  0  0  0  0
 25 22  2  0  0  0  0
 27 26  2  0  0  0  0
M  END
>  <MODEL>
9

>  <REMARK>
 VINA RESULT:      -4.1      3.290      7.998
  Name = 
  4 active torsions:
  status: ('A' for Active; 'I' for Inactive)
    1  A    between atoms: C_1  and  C_15
    2  A    between atoms: C_9  and  C_15
    3  A    between atoms: C_14  and  N_19
    4  A    between atoms: C_17  and  C_21
                            x       y       z     vdW  Elec       q    Type
                         _______ _______ _______ _____ _____    ______ ____

>  <TORSDO>
F 4

$$$$
