=
 OpenBabel11062410453D

 32 38  0  0  1  0  0  0  0  0999 V2000
  159.6010  208.0640  155.1850 C   0  0  0  0  0  2  0  0  0  0  0  0
  162.1070  206.5620  151.0760 C   0  0  2  0  0  3  0  0  0  0  0  0
  161.1810  206.7340  153.4150 C   0  0  2  0  0  3  0  0  0  0  0  0
  161.0200  208.7170  151.9610 C   0  0  0  0  0  2  0  0  0  0  0  0
  160.5980  208.9750  154.4470 C   0  0  2  0  0  3  0  0  0  0  0  0
  161.3260  208.2790  149.5940 N   0  0  0  0  0  2  0  0  0  0  0  0
  161.9340  208.0750  150.9050 C   0  0  2  0  0  3  0  0  0  0  0  0
  160.7670  206.9960  149.1580 C   0  0  2  0  0  3  0  0  0  0  0  0
  160.9480  205.9970  150.3070 C   0  0  1  0  0  3  0  0  0  0  0  0
  160.0930  206.6110  155.3820 C   0  0  0  0  0  2  0  0  0  0  0  0
  161.3890  208.2390  153.3510 C   0  0  1  0  0  3  0  0  0  0  0  0
  161.3190  206.3240  154.7450 O   0  0  0  0  0  0  0  0  0  0  0  0
  162.2090  206.0580  152.5250 C   0  0  0  0  0  2  0  0  0  0  0  0
  160.9930  203.5240  150.7300 C   0  0  0  0  0  0  0  0  0  0  0  0
  161.1650  202.3530  149.9010 C   0  0  1  0  0  3  0  0  0  0  0  0
  160.8990  201.8670  147.7100 C   0  0  0  0  0  0  0  0  0  0  0  0
  160.3210  200.9210  148.3880 N   0  0  0  0  0  0  0  0  0  0  0  0
  160.4160  201.2650  149.7810 C   0  0  0  0  0  2  0  0  0  0  0  0
  161.3300  204.1400  148.5380 N   0  0  0  0  0  2  0  0  0  0  0  0
  160.5300  203.5700  152.4200 Cl  0  0  0  0  0  0  0  0  0  0  0  0
  160.9270  201.9210  146.2240 C   0  0  0  0  0  1  0  0  0  0  0  0
  161.1480  204.5640  149.9030 C   0  0  0  0  0  0  0  0  0  0  0  0
  161.4450  202.8560  148.6110 C   0  0  1  0  0  3  0  0  0  0  0  0
  161.3040  211.0820  155.9480 C   0  0  0  0  0  0  0  0  0  0  0  0
  159.7700  211.1100  156.0670 C   0  0  0  0  0  2  0  0  0  0  0  0
  160.4240  212.0750  155.1720 C   0  0  0  0  0  2  0  0  0  0  0  0
  162.2260  210.7540  154.7720 C   0  0  0  0  0  2  0  0  0  0  0  0
  161.5700  209.6190  155.4500 C   0  0  2  0  0  3  0  0  0  0  0  0
  161.4540  206.5710  147.8610 C   0  0  0  0  0  2  0  0  0  0  0  0
  160.4590  206.5520  146.7140 C   0  0  0  0  0  2  0  0  0  0  0  0
  162.4390  205.7780  145.6230 O   0  0  0  0  0  1  0  0  0  0  0  0
  161.0480  205.8120  145.5230 C   0  0  0  0  0  2  0  0  0  0  0  0
  1 10  1  0  0  0  0
  2 13  1  1  0  0  0
  3 13  1  6  0  0  0
  3 12  1  0  0  0  0
  5  1  1  1  0  0  0
  5 28  1  0  0  0  0
  6  7  1  0  0  0  0
  7  2  1  0  0  0  0
  7  4  1  1  0  0  0
  8 29  1  6  0  0  0
  8  6  1  0  0  0  0
  8  9  1  0  0  0  0
  9 22  1  6  0  0  0
  9  2  1  0  0  0  0
 11  4  1  6  0  0  0
 11  3  1  0  0  0  0
 11  5  1  0  0  0  0
 12 10  1  0  0  0  0
 14 20  1  0  0  0  0
 15 18  1  6  0  0  0
 15 14  1  0  0  0  0
 16 17  2  0  0  0  0
 17 18  1  0  0  0  0
 19 23  1  0  0  0  0
 19 22  1  0  0  0  0
 21 16  1  0  0  0  0
 22 14  2  0  0  0  0
 23 16  1  6  0  0  0
 23 15  1  0  0  0  0
 24 25  1  0  0  0  0
 26 24  1  0  0  0  0
 26 25  1  0  0  0  0
 27 24  1  0  0  0  0
 28 27  1  6  0  0  0
 28 24  1  0  0  0  0
 30 29  1  0  0  0  0
 32 31  1  0  0  0  0
 32 30  1  0  0  0  0
M  END
>  <MODEL>
1

>  <REMARK>
 VINA RESULT:      -9.2      0.000      0.000
  Name = 
  5 active torsions:
  status: ('A' for Active; 'I' for Inactive)
    1  A    between atoms: C_5  and  C_25
    2  A    between atoms: C_12  and  C_24
    3  A    between atoms: C_15  and  C_26
    4  A    between atoms: C_16  and  C_31
    5  A    between atoms: C_25  and  C_26
                            x       y       z     vdW  Elec       q    Type
                         _______ _______ _______ _____ _____    ______ ____

>  <TORSDO>
F 5

$$$$
=
 OpenBabel11062410453D

 32 38  0  0  1  0  0  0  0  0999 V2000
  162.7080  209.9620  153.5010 C   0  0  0  0  0  2  0  0  0  0  0  0
  160.4600  206.1930  151.0180 C   0  0  2  0  0  3  0  0  0  0  0  0
  161.2410  208.4740  151.7610 C   0  0  2  0  0  3  0  0  0  0  0  0
  161.4890  206.5970  153.3390 C   0  0  0  0  0  2  0  0  0  0  0  0
  161.7580  208.9690  154.1930 C   0  0  2  0  0  3  0  0  0  0  0  0
  161.3300  204.3910  152.3420 N   0  0  0  0  0  2  0  0  0  0  0  0
  160.6420  205.6740  152.4480 C   0  0  2  0  0  3  0  0  0  0  0  0
  161.9150  204.3100  151.0000 C   0  0  2  0  0  3  0  0  0  0  0  0
  161.6640  205.6530  150.3030 C   0  0  1  0  0  3  0  0  0  0  0  0
  162.2060  210.4740  152.1300 C   0  0  0  0  0  2  0  0  0  0  0  0
  161.0360  208.0370  153.2030 C   0  0  1  0  0  3  0  0  0  0  0  0
  161.0210  209.8530  151.6800 O   0  0  0  0  0  0  0  0  0  0  0  0
  160.2700  207.7120  150.8750 C   0  0  0  0  0  2  0  0  0  0  0  0
  161.9520  206.5230  147.9670 C   0  0  0  0  0  0  0  0  0  0  0  0
  161.6680  206.0080  146.6480 C   0  0  1  0  0  3  0  0  0  0  0  0
  161.3800  203.9600  145.7370 C   0  0  0  0  0  0  0  0  0  0  0  0
  162.1990  204.6120  144.9670 N   0  0  0  0  0  0  0  0  0  0  0  0
  162.4510  205.8870  145.5830 C   0  0  0  0  0  2  0  0  0  0  0  0
  160.9880  204.4390  148.1150 N   0  0  0  0  0  2  0  0  0  0  0  0
  162.8450  207.9770  148.3700 Cl  0  0  0  0  0  0  0  0  0  0  0  0
  160.9510  202.5580  145.4870 C   0  0  0  0  0  1  0  0  0  0  0  0
  161.4900  205.5940  148.8120 C   0  0  0  0  0  0  0  0  0  0  0  0
  161.0100  204.7780  146.8680 C   0  0  1  0  0  3  0  0  0  0  0  0
  160.6130  209.4160  156.5760 C   0  0  0  0  0  0  0  0  0  0  0  0
  162.0850  209.1910  156.9700 C   0  0  0  0  0  2  0  0  0  0  0  0
  161.1220  208.1030  157.1950 C   0  0  0  0  0  2  0  0  0  0  0  0
  159.7310  208.7470  155.5210 C   0  0  0  0  0  2  0  0  0  0  0  0
  160.7260  209.7280  155.0440 C   0  0  2  0  0  3  0  0  0  0  0  0
  161.3100  203.1160  150.2650 C   0  0  0  0  0  2  0  0  0  0  0  0
  161.1860  201.9240  151.1990 C   0  0  0  0  0  2  0  0  0  0  0  0
  160.9680  200.9130  149.0450 O   0  0  0  0  0  1  0  0  0  0  0  0
  160.8090  200.6790  150.4110 C   0  0  0  0  0  2  0  0  0  0  0  0
  2 13  1  1  0  0  0
  2  7  1  0  0  0  0
  3 13  1  6  0  0  0
  3 11  1  0  0  0  0
  5  1  1  6  0  0  0
  5 28  1  0  0  0  0
  6  7  1  0  0  0  0
  7  4  1  1  0  0  0
  8 29  1  6  0  0  0
  8  6  1  0  0  0  0
  9 22  1  6  0  0  0
  9  8  1  0  0  0  0
  9  2  1  0  0  0  0
 10  1  1  0  0  0  0
 11  4  1  6  0  0  0
 11  5  1  0  0  0  0
 12  3  1  0  0  0  0
 12 10  1  0  0  0  0
 14 20  1  0  0  0  0
 14 22  2  0  0  0  0
 15 18  1  6  0  0  0
 15 23  1  0  0  0  0
 15 14  1  0  0  0  0
 17 18  1  0  0  0  0
 17 16  2  0  0  0  0
 19 22  1  0  0  0  0
 21 16  1  0  0  0  0
 23 16  1  6  0  0  0
 23 19  1  0  0  0  0
 24 25  1  0  0  0  0
 24 26  1  0  0  0  0
 25 26  1  0  0  0  0
 27 24  1  0  0  0  0
 28 27  1  6  0  0  0
 28 24  1  0  0  0  0
 29 30  1  0  0  0  0
 31 32  1  0  0  0  0
 32 30  1  0  0  0  0
M  END
>  <MODEL>
2

>  <REMARK>
 VINA RESULT:      -6.8      2.357      3.978
  Name = 
  5 active torsions:
  status: ('A' for Active; 'I' for Inactive)
    1  A    between atoms: C_5  and  C_25
    2  A    between atoms: C_12  and  C_24
    3  A    between atoms: C_15  and  C_26
    4  A    between atoms: C_16  and  C_31
    5  A    between atoms: C_25  and  C_26
                            x       y       z     vdW  Elec       q    Type
                         _______ _______ _______ _____ _____    ______ ____

>  <TORSDO>
F 5

$$$$
=
 OpenBabel11062410453D

 32 38  0  0  1  0  0  0  0  0999 V2000
  162.2460  202.9870  147.8860 C   0  0  0  0  0  2  0  0  0  0  0  0
  160.6730  207.4220  149.6990 C   0  0  2  0  0  3  0  0  0  0  0  0
  160.9000  204.9630  149.1830 C   0  0  2  0  0  3  0  0  0  0  0  0
  162.0830  206.5620  147.7280 C   0  0  0  0  0  2  0  0  0  0  0  0
  161.8400  204.1550  146.9710 C   0  0  2  0  0  3  0  0  0  0  0  0
  162.3430  208.7910  148.6530 N   0  0  0  0  0  2  0  0  0  0  0  0
  161.3540  207.7550  148.3670 C   0  0  2  0  0  3  0  0  0  0  0  0
  162.5690  208.8020  150.1010 C   0  0  2  0  0  3  0  0  0  0  0  0
  161.7630  207.6460  150.7060 C   0  0  1  0  0  3  0  0  0  0  0  0
  161.2870  202.7480  149.0770 C   0  0  0  0  0  2  0  0  0  0  0  0
  161.2030  205.3280  147.7380 C   0  0  1  0  0  3  0  0  0  0  0  0
  160.2670  203.7160  149.2010 O   0  0  0  0  0  0  0  0  0  0  0  0
  160.0100  206.0370  149.7840 C   0  0  0  0  0  2  0  0  0  0  0  0
  161.1450  206.9020  153.0210 C   0  0  0  0  0  0  0  0  0  0  0  0
  160.7220  207.5760  154.2270 C   0  0  1  0  0  3  0  0  0  0  0  0
  160.9050  209.6680  155.0610 C   0  0  0  0  0  0  0  0  0  0  0  0
  161.2390  208.8450  156.0090 N   0  0  0  0  0  0  0  0  0  0  0  0
  161.2040  207.5160  155.4620 C   0  0  0  0  0  2  0  0  0  0  0  0
  160.9940  209.1690  152.6570 N   0  0  0  0  0  2  0  0  0  0  0  0
  161.5790  205.2130  152.8450 Cl  0  0  0  0  0  0  0  0  0  0  0  0
  160.9140  211.1480  155.2110 C   0  0  0  0  0  1  0  0  0  0  0  0
  161.2460  207.8660  152.0990 C   0  0  0  0  0  0  0  0  0  0  0  0
  160.5860  208.9330  153.8600 C   0  0  1  0  0  3  0  0  0  0  0  0
  160.8590  204.3840  144.4860 C   0  0  0  0  0  0  0  0  0  0  0  0
  162.3500  204.7040  144.2680 C   0  0  0  0  0  2  0  0  0  0  0  0
  161.3870  205.8150  144.2860 C   0  0  0  0  0  2  0  0  0  0  0  0
  159.9000  204.7400  145.6230 C   0  0  0  0  0  2  0  0  0  0  0  0
  160.8770  203.6630  145.8780 C   0  0  2  0  0  3  0  0  0  0  0  0
  162.1820  210.1730  150.6530 C   0  0  0  0  0  2  0  0  0  0  0  0
  162.1460  211.2040  149.5390 C   0  0  0  0  0  2  0  0  0  0  0  0
  161.0260  213.1760  148.7850 O   0  0  0  0  0  1  0  0  0  0  0  0
  161.0630  212.2350  149.8150 C   0  0  0  0  0  2  0  0  0  0  0  0
  1 10  1  0  0  0  0
  2 13  1  6  0  0  0
  2  9  1  0  0  0  0
  3 12  1  0  0  0  0
  3 13  1  6  0  0  0
  5 11  1  0  0  0  0
  5  1  1  1  0  0  0
  6  8  1  0  0  0  0
  7  4  1  1  0  0  0
  7  6  1  0  0  0  0
  7  2  1  0  0  0  0
  8 29  1  1  0  0  0
  8  9  1  0  0  0  0
  9 22  1  1  0  0  0
 10 12  1  0  0  0  0
 11  4  1  1  0  0  0
 11  3  1  0  0  0  0
 14 15  1  0  0  0  0
 15 18  1  1  0  0  0
 16 21  1  0  0  0  0
 16 17  2  0  0  0  0
 18 17  1  0  0  0  0
 20 14  1  0  0  0  0
 22 19  1  0  0  0  0
 22 14  2  0  0  0  0
 23 19  1  6  0  0  0
 23 15  1  0  0  0  0
 23 16  1  0  0  0  0
 24 27  1  0  0  0  0
 24 28  1  0  0  0  0
 25 26  1  0  0  0  0
 25 24  1  0  0  0  0
 26 24  1  0  0  0  0
 28 27  1  1  0  0  0
 28  5  1  0  0  0  0
 30 32  1  0  0  0  0
 30 29  1  0  0  0  0
 31 32  1  0  0  0  0
M  END
>  <MODEL>
3

>  <REMARK>
 VINA RESULT:      -6.7      2.589      7.912
  Name = 
  5 active torsions:
  status: ('A' for Active; 'I' for Inactive)
    1  A    between atoms: C_5  and  C_25
    2  A    between atoms: C_12  and  C_24
    3  A    between atoms: C_15  and  C_26
    4  A    between atoms: C_16  and  C_31
    5  A    between atoms: C_25  and  C_26
                            x       y       z     vdW  Elec       q    Type
                         _______ _______ _______ _____ _____    ______ ____

>  <TORSDO>
F 5

$$$$
=
 OpenBabel11062410453D

 32 38  0  0  1  0  0  0  0  0999 V2000
  160.6180  207.1470  147.3390 C   0  0  0  0  0  2  0  0  0  0  0  0
  162.2290  207.4020  152.1100 C   0  0  2  0  0  3  0  0  0  0  0  0
  161.8570  207.8490  149.6560 C   0  0  2  0  0  3  0  0  0  0  0  0
  161.1930  205.6470  150.5420 C   0  0  0  0  0  2  0  0  0  0  0  0
  161.3340  205.9740  148.0320 C   0  0  2  0  0  3  0  0  0  0  0  0
  160.9810  205.5360  152.9560 N   0  0  0  0  0  2  0  0  0  0  0  0
  161.8910  205.9240  151.8830 C   0  0  2  0  0  3  0  0  0  0  0  0
  160.4500  206.7640  153.5560 C   0  0  2  0  0  3  0  0  0  0  0  0
  160.9780  207.9470  152.7350 C   0  0  1  0  0  3  0  0  0  0  0  0
  161.2670  208.5280  147.5930 C   0  0  0  0  0  2  0  0  0  0  0  0
  161.9120  206.3500  149.4080 C   0  0  1  0  0  3  0  0  0  0  0  0
  162.3330  208.5050  148.5170 O   0  0  0  0  0  0  0  0  0  0  0  0
  162.7060  208.1780  150.8720 C   0  0  0  0  0  2  0  0  0  0  0  0
  160.3290  210.2340  153.5370 C   0  0  0  0  0  0  0  0  0  0  0  0
  160.8960  211.1850  154.4650 C   0  0  1  0  0  3  0  0  0  0  0  0
  162.3090  211.0850  156.2250 C   0  0  0  0  0  0  0  0  0  0  0  0
  161.2910  211.8050  156.5890 N   0  0  0  0  0  0  0  0  0  0  0  0
  160.3490  211.8060  155.5020 C   0  0  0  0  0  2  0  0  0  0  0  0
  162.2880  209.4140  154.4230 N   0  0  0  0  0  2  0  0  0  0  0  0
  158.7640  210.3180  152.7520 Cl  0  0  0  0  0  0  0  0  0  0  0  0
  163.4560  210.7660  157.1160 C   0  0  0  0  0  1  0  0  0  0  0  0
  161.2030  209.2220  153.4960 C   0  0  0  0  0  0  0  0  0  0  0  0
  162.1210  210.6140  154.8720 C   0  0  1  0  0  3  0  0  0  0  0  0
  162.0730  204.5970  145.8530 C   0  0  0  0  0  0  0  0  0  0  0  0
  160.8140  205.3300  145.3520 C   0  0  0  0  0  2  0  0  0  0  0  0
  160.7100  203.9030  145.6900 C   0  0  0  0  0  2  0  0  0  0  0  0
  162.4040  203.9540  147.2000 C   0  0  0  0  0  2  0  0  0  0  0  0
  162.4520  205.4270  147.1280 C   0  0  2  0  0  3  0  0  0  0  0  0
  160.8540  206.8110  155.0290 C   0  0  0  0  0  2  0  0  0  0  0  0
  159.6850  207.2660  155.8860 C   0  0  0  0  0  2  0  0  0  0  0  0
  161.5490  207.8540  157.2610 O   0  0  0  0  0  1  0  0  0  0  0  0
  160.1880  208.0880  157.0620 C   0  0  0  0  0  2  0  0  0  0  0  0
  1 10  1  0  0  0  0
  2 13  1  6  0  0  0
  2  9  1  0  0  0  0
  3 13  1  1  0  0  0
  5  1  1  6  0  0  0
  5 11  1  0  0  0  0
  6  8  1  0  0  0  0
  7  4  1  6  0  0  0
  7  2  1  0  0  0  0
  7  6  1  0  0  0  0
  8 29  1  1  0  0  0
  9 22  1  1  0  0  0
  9  8  1  0  0  0  0
 10 12  1  0  0  0  0
 11  3  1  0  0  0  0
 11  4  1  1  0  0  0
 12  3  1  0  0  0  0
 14 15  1  0  0  0  0
 15 23  1  0  0  0  0
 15 18  1  1  0  0  0
 16 17  2  0  0  0  0
 16 21  1  0  0  0  0
 18 17  1  0  0  0  0
 20 14  1  0  0  0  0
 22 14  2  0  0  0  0
 22 19  1  0  0  0  0
 23 19  1  1  0  0  0
 23 16  1  0  0  0  0
 24 28  1  0  0  0  0
 24 27  1  0  0  0  0
 25 26  1  0  0  0  0
 25 24  1  0  0  0  0
 26 24  1  0  0  0  0
 28 27  1  1  0  0  0
 28  5  1  0  0  0  0
 29 30  1  0  0  0  0
 30 32  1  0  0  0  0
 32 31  1  0  0  0  0
M  END
>  <MODEL>
4

>  <REMARK>
 VINA RESULT:      -6.5      2.644      8.812
  Name = 
  5 active torsions:
  status: ('A' for Active; 'I' for Inactive)
    1  A    between atoms: C_5  and  C_25
    2  A    between atoms: C_12  and  C_24
    3  A    between atoms: C_15  and  C_26
    4  A    between atoms: C_16  and  C_31
    5  A    between atoms: C_25  and  C_26
                            x       y       z     vdW  Elec       q    Type
                         _______ _______ _______ _____ _____    ______ ____

>  <TORSDO>
F 5

$$$$
=
 OpenBabel11062410453D

 32 38  0  0  1  0  0  0  0  0999 V2000
  162.0990  203.3470  148.2800 C   0  0  0  0  0  2  0  0  0  0  0  0
  160.6120  207.5540  150.6290 C   0  0  2  0  0  3  0  0  0  0  0  0
  160.7730  205.1810  149.7890 C   0  0  2  0  0  3  0  0  0  0  0  0
  162.0670  206.9150  148.6080 C   0  0  0  0  0  2  0  0  0  0  0  0
  161.7700  204.6450  147.5200 C   0  0  2  0  0  3  0  0  0  0  0  0
  162.3680  208.9850  149.8380 N   0  0  0  0  0  2  0  0  0  0  0  0
  161.3560  208.0380  149.3790 C   0  0  2  0  0  3  0  0  0  0  0  0
  162.5380  208.7900  151.2810 C   0  0  2  0  0  3  0  0  0  0  0  0
  161.6700  207.5960  151.6940 C   0  0  1  0  0  3  0  0  0  0  0  0
  161.0860  202.9870  149.3930 C   0  0  0  0  0  2  0  0  0  0  0  0
  161.1450  205.7270  148.4190 C   0  0  1  0  0  3  0  0  0  0  0  0
  160.0970  203.9700  149.6140 O   0  0  0  0  0  0  0  0  0  0  0  0
  159.8980  206.1980  150.5010 C   0  0  0  0  0  2  0  0  0  0  0  0
  160.8890  206.5650  153.8440 C   0  0  0  0  0  0  0  0  0  0  0  0
  160.4630  207.0820  155.1240 C   0  0  1  0  0  3  0  0  0  0  0  0
  160.7690  209.0010  156.2770 C   0  0  0  0  0  0  0  0  0  0  0  0
  160.9940  208.0190  157.0970 N   0  0  0  0  0  0  0  0  0  0  0  0
  160.8810  206.7950  156.3500 C   0  0  0  0  0  2  0  0  0  0  0  0
  160.9310  208.8660  153.8290 N   0  0  0  0  0  2  0  0  0  0  0  0
  161.1970  204.8910  153.4230 Cl  0  0  0  0  0  0  0  0  0  0  0  0
  160.8860  210.4350  156.6540 C   0  0  0  0  0  1  0  0  0  0  0  0
  161.1070  207.6450  153.0850 C   0  0  0  0  0  0  0  0  0  0  0  0
  160.4500  208.4850  154.9660 C   0  0  1  0  0  3  0  0  0  0  0  0
  161.2870  204.7150  144.8830 C   0  0  0  0  0  0  0  0  0  0  0  0
  162.7910  204.3890  144.9200 C   0  0  0  0  0  2  0  0  0  0  0  0
  162.3760  205.7620  144.5960 C   0  0  0  0  0  2  0  0  0  0  0  0
  160.4250  205.6340  145.7500 C   0  0  0  0  0  2  0  0  0  0  0  0
  160.8330  204.3440  146.3380 C   0  0  2  0  0  3  0  0  0  0  0  0
  162.1780  210.0880  152.0020 C   0  0  0  0  0  2  0  0  0  0  0  0
  161.2730  210.9450  151.1350 C   0  0  0  0  0  2  0  0  0  0  0  0
  159.2410  211.2150  152.3630 O   0  0  0  0  0  1  0  0  0  0  0  0
  160.4260  211.8590  152.0060 C   0  0  0  0  0  2  0  0  0  0  0  0
  1 10  1  0  0  0  0
  2 13  1  6  0  0  0
  2  9  1  0  0  0  0
  3 13  1  6  0  0  0
  5  1  1  1  0  0  0
  5 11  1  0  0  0  0
  6  8  1  0  0  0  0
  7  4  1  1  0  0  0
  7  6  1  0  0  0  0
  7  2  1  0  0  0  0
  8  9  1  0  0  0  0
  8 29  1  1  0  0  0
  9 22  1  1  0  0  0
 10 12  1  0  0  0  0
 11  4  1  1  0  0  0
 11  3  1  0  0  0  0
 12  3  1  0  0  0  0
 14 15  1  0  0  0  0
 15 18  1  1  0  0  0
 16 21  1  0  0  0  0
 16 17  2  0  0  0  0
 18 17  1  0  0  0  0
 20 14  1  0  0  0  0
 22 19  1  0  0  0  0
 22 14  2  0  0  0  0
 23 19  1  6  0  0  0
 23 15  1  0  0  0  0
 23 16  1  0  0  0  0
 24 25  1  0  0  0  0
 24 27  1  0  0  0  0
 24 28  1  0  0  0  0
 26 24  1  0  0  0  0
 26 25  1  0  0  0  0
 28 27  1  1  0  0  0
 28  5  1  0  0  0  0
 30 29  1  0  0  0  0
 30 32  1  0  0  0  0
 32 31  1  0  0  0  0
M  END
>  <MODEL>
5

>  <REMARK>
 VINA RESULT:      -6.3      2.558      7.901
  Name = 
  5 active torsions:
  status: ('A' for Active; 'I' for Inactive)
    1  A    between atoms: C_5  and  C_25
    2  A    between atoms: C_12  and  C_24
    3  A    between atoms: C_15  and  C_26
    4  A    between atoms: C_16  and  C_31
    5  A    between atoms: C_25  and  C_26
                            x       y       z     vdW  Elec       q    Type
                         _______ _______ _______ _____ _____    ______ ____

>  <TORSDO>
F 5

$$$$
