=
 OpenBabel11052422003D

 30 34  0  0  1  0  0  0  0  0999 V2000
  161.7110  210.9740  153.0910 C   0  0  2  0  0  3  0  0  0  0  0  0
  159.9270  211.2530  155.0420 C   0  0  1  0  0  3  0  0  0  0  0  0
  157.6030  212.8650  151.3960 C   0  0  0  0  0  2  0  0  0  0  0  0
  161.7070  211.3450  151.6050 C   0  0  1  0  0  3  0  0  0  0  0  0
  161.5390  209.5740  153.2390 O   0  0  0  0  0  0  0  0  0  0  0  0
  160.0610  206.9810  150.2450 C   0  0  0  0  0  1  0  0  0  0  0  0
  162.0510  210.0100  150.9950 C   0  0  1  0  0  3  0  0  0  0  0  0
  161.9260  207.6630  151.7870 C   0  0  0  0  0  2  0  0  0  0  0  0
  158.2890  212.5290  150.0530 C   0  0  1  0  0  3  0  0  0  0  0  0
  161.3720  209.0670  151.9410 C   0  0  1  0  0  3  0  0  0  0  0  0
  162.2730  208.0990  149.0470 S   0  0  0  0  0  0  0  0  0  0  0  0
  158.7570  210.3130  154.8030 C   0  0  0  0  0  2  0  0  0  0  0  0
  162.1080  205.8050  150.3230 O   0  0  0  0  0  1  0  0  0  0  0  0
  160.8820  210.6370  155.8520 O   0  0  0  0  0  1  0  0  0  0  0  0
  158.1850  212.0250  152.5430 C   0  0  2  0  0  3  0  0  0  0  0  0
  157.4840  212.3310  153.8530 C   0  0  0  0  0  2  0  0  0  0  0  0
  161.5700  207.0870  150.4110 C   0  0  2  0  0  0  0  0  0  0  0  0
  160.5590  211.7570  153.7320 C   0  0  2  0  0  3  0  0  0  0  0  0
  160.2580  211.7490  151.3520 C   0  0  2  0  0  3  0  0  0  0  0  0
  157.8110  213.3630  149.0400 O   0  0  0  0  0  1  0  0  0  0  0  0
  159.8360  212.5510  150.1150 C   0  0  2  0  0  3  0  0  0  0  0  0
  162.1790  210.7740  148.6170 C   0  0  0  0  0  1  0  0  0  0  0  0
  157.4360  211.0880  154.7460 C   0  0  0  0  0  2  0  0  0  0  0  0
  159.6820  212.3250  152.6160 C   0  0  1  0  0  3  0  0  0  0  0  0
  161.6130  209.7290  149.5590 C   0  0  2  0  0  3  0  0  0  0  0  0
  160.4240  213.9720  150.0180 C   0  0  1  0  0  3  0  0  0  0  0  0
  160.8340  214.4530  151.2640 O   0  0  0  0  0  1  0  0  0  0  0  0
  161.5690  214.0380  149.0160 C   0  0  0  0  0  2  0  0  0  0  0  0
  161.0640  214.1030  147.6700 N   0  0  0  0  0  0  0  0  0  0  0  0
  161.7780  213.8600  146.7440 O   0  0  0  0  0  0  0  0  0  0  0  0
  1  5  1  6  0  0  0
  1 18  1  0  0  0  0
  2 14  1  1  0  0  0
  3 15  1  0  0  0  0
  4  1  1  0  0  0  0
  6 17  1  0  0  0  0
  7  4  1  0  0  0  0
  7 10  1  0  0  0  0
  8 10  1  0  0  0  0
  9 21  1  0  0  0  0
  9  3  1  0  0  0  0
 10  5  1  0  0  0  0
 11 25  1  0  0  0  0
 11 17  1  0  0  0  0
 12  2  1  0  0  0  0
 13 17  1  0  0  0  0
 15 24  1  0  0  0  0
 15 16  1  0  0  0  0
 16 23  1  0  0  0  0
 17  8  1  0  0  0  0
 18  2  1  0  0  0  0
 19  4  1  0  0  0  0
 19 24  1  0  0  0  0
 20  9  1  0  0  0  0
 21 19  1  0  0  0  0
 22 25  1  0  0  0  0
 23 12  1  0  0  0  0
 24 18  1  0  0  0  0
 25  7  1  0  0  0  0
 26 21  1  0  0  0  0
 26 27  1  0  0  0  0
 28 26  1  0  0  0  0
 29 28  1  0  0  0  0
 30 29  2  0  0  0  0
M  END
>  <MODEL>
1

>  <REMARK>
 VINA RESULT:      -0.5      0.000      0.000
  Name = 
  3 active torsions:
  status: ('A' for Active; 'I' for Inactive)
    1  A    between atoms: C_7  and  C_10
    2  A    between atoms: C_7  and  N_16
    3  A    between atoms: C_10  and  C_25
                            x       y       z     vdW  Elec       q    Type
                         _______ _______ _______ _____ _____    ______ ____

>  <TORSDO>
F 3

$$$$
=
 OpenBabel11052422003D

 30 34  0  0  1  0  0  0  0  0999 V2000
  162.3460  209.9860  153.5400 C   0  0  2  0  0  3  0  0  0  0  0  0
  161.0940  209.5130  155.8370 C   0  0  1  0  0  3  0  0  0  0  0  0
  157.8410  211.7230  153.4250 C   0  0  0  0  0  2  0  0  0  0  0  0
  161.9470  210.7320  152.2630 C   0  0  1  0  0  3  0  0  0  0  0  0
  162.2980  208.5860  153.3150 O   0  0  0  0  0  0  0  0  0  0  0  0
  160.2700  206.7100  150.1150 C   0  0  0  0  0  1  0  0  0  0  0  0
  162.2050  209.6600  151.2350 C   0  0  1  0  0  3  0  0  0  0  0  0
  162.4190  207.1900  151.3280 C   0  0  0  0  0  2  0  0  0  0  0  0
  158.1860  211.8420  151.9230 C   0  0  1  0  0  3  0  0  0  0  0  0
  161.8410  208.4230  151.9990 C   0  0  1  0  0  3  0  0  0  0  0  0
  162.0420  208.3740  148.8240 S   0  0  0  0  0  0  0  0  0  0  0  0
  159.9590  208.5290  155.6080 C   0  0  0  0  0  2  0  0  0  0  0  0
  162.3360  205.8220  149.3910 O   0  0  0  0  0  1  0  0  0  0  0  0
  162.2570  208.8310  156.2010 O   0  0  0  0  0  1  0  0  0  0  0  0
  158.7390  210.6910  154.1220 C   0  0  2  0  0  3  0  0  0  0  0  0
  158.3720  210.5490  155.5860 C   0  0  0  0  0  2  0  0  0  0  0  0
  161.7630  206.9570  149.9610 C   0  0  2  0  0  0  0  0  0  0  0  0
  161.3470  210.4200  154.6200 C   0  0  2  0  0  3  0  0  0  0  0  0
  160.4600  211.0020  152.4680 C   0  0  2  0  0  3  0  0  0  0  0  0
  157.4220  212.8460  151.3260 O   0  0  0  0  0  1  0  0  0  0  0  0
  159.6950  212.0420  151.6400 C   0  0  2  0  0  3  0  0  0  0  0  0
  161.6870  211.0340  149.2100 C   0  0  0  0  0  1  0  0  0  0  0  0
  158.6230  209.1190  156.0730 C   0  0  0  0  0  2  0  0  0  0  0  0
  160.1870  211.1470  153.9400 C   0  0  1  0  0  3  0  0  0  0  0  0
  161.4370  209.7140  149.9160 C   0  0  2  0  0  3  0  0  0  0  0  0
  160.1560  213.5010  151.8250 C   0  0  1  0  0  3  0  0  0  0  0  0
  160.5450  214.0830  150.6160 O   0  0  0  0  0  1  0  0  0  0  0  0
  159.0860  214.3440  152.5050 C   0  0  0  0  0  2  0  0  0  0  0  0
  159.3440  214.4530  153.9170 N   0  0  0  0  0  0  0  0  0  0  0  0
  158.4460  214.3990  154.7020 O   0  0  0  0  0  0  0  0  0  0  0  0
  1  5  1  6  0  0  0
  1 18  1  0  0  0  0
  2 14  1  6  0  0  0
  3 15  1  0  0  0  0
  4 19  1  0  0  0  0
  4  1  1  0  0  0  0
  7 10  1  0  0  0  0
  7  4  1  0  0  0  0
  8 10  1  0  0  0  0
  9  3  1  0  0  0  0
 10  5  1  0  0  0  0
 11 25  1  0  0  0  0
 11 17  1  0  0  0  0
 12  2  1  0  0  0  0
 12 23  1  0  0  0  0
 13 17  1  0  0  0  0
 15 16  1  0  0  0  0
 16 23  1  0  0  0  0
 17  6  1  0  0  0  0
 17  8  1  0  0  0  0
 18  2  1  0  0  0  0
 19 24  1  0  0  0  0
 20  9  1  0  0  0  0
 21 26  1  0  0  0  0
 21  9  1  0  0  0  0
 21 19  1  0  0  0  0
 22 25  1  0  0  0  0
 24 15  1  0  0  0  0
 24 18  1  0  0  0  0
 25  7  1  0  0  0  0
 26 28  1  0  0  0  0
 27 26  1  0  0  0  0
 28 29  1  0  0  0  0
 29 30  2  0  0  0  0
M  END
>  <MODEL>
2

>  <REMARK>
 VINA RESULT:      -0.0      1.890      2.631
  Name = 
  3 active torsions:
  status: ('A' for Active; 'I' for Inactive)
    1  A    between atoms: C_7  and  C_10
    2  A    between atoms: C_7  and  N_16
    3  A    between atoms: C_10  and  C_25
                            x       y       z     vdW  Elec       q    Type
                         _______ _______ _______ _____ _____    ______ ____

>  <TORSDO>
F 3

$$$$
=
 OpenBabel11052422003D

 30 34  0  0  1  0  0  0  0  0999 V2000
  162.3590  210.3410  154.3540 C   0  0  2  0  0  3  0  0  0  0  0  0
  161.1590  210.9640  156.6420 C   0  0  1  0  0  3  0  0  0  0  0  0
  157.9690  212.1830  153.5400 C   0  0  0  0  0  2  0  0  0  0  0  0
  161.9640  210.5090  152.8830 C   0  0  1  0  0  3  0  0  0  0  0  0
  162.2160  208.9830  154.7390 O   0  0  0  0  0  0  0  0  0  0  0  0
  159.9690  206.0860  152.6340 C   0  0  0  0  0  1  0  0  0  0  0  0
  162.1200  209.0890  152.4010 C   0  0  1  0  0  3  0  0  0  0  0  0
  162.1830  206.8780  153.5220 C   0  0  0  0  0  2  0  0  0  0  0  0
  158.2700  211.6370  152.1260 C   0  0  1  0  0  3  0  0  0  0  0  0
  161.7060  208.3160  153.6150 C   0  0  1  0  0  3  0  0  0  0  0  0
  161.7960  206.9260  150.7550 S   0  0  0  0  0  0  0  0  0  0  0  0
  159.9570  210.0580  156.8540 C   0  0  0  0  0  2  0  0  0  0  0  0
  161.9500  204.8340  152.3410 O   0  0  0  0  0  1  0  0  0  0  0  0
  162.2880  210.4170  157.2540 O   0  0  0  0  0  1  0  0  0  0  0  0
  158.8250  211.4770  154.6020 C   0  0  2  0  0  3  0  0  0  0  0  0
  158.5000  211.9890  155.9920 C   0  0  0  0  0  2  0  0  0  0  0  0
  161.4680  206.1400  152.3840 C   0  0  2  0  0  0  0  0  0  0  0  0
  161.4260  211.2570  155.1550 C   0  0  2  0  0  3  0  0  0  0  0  0
  160.5050  210.9440  152.9630 C   0  0  2  0  0  3  0  0  0  0  0  0
  157.5500  212.3500  151.1650 O   0  0  0  0  0  1  0  0  0  0  0  0
  159.7790  211.5920  151.7770 C   0  0  2  0  0  3  0  0  0  0  0  0
  161.6210  209.5200  149.9880 C   0  0  0  0  0  1  0  0  0  0  0  0
  158.6770  210.8810  157.0340 C   0  0  0  0  0  2  0  0  0  0  0  0
  160.2910  211.7120  154.2380 C   0  0  1  0  0  3  0  0  0  0  0  0
  161.3130  208.6390  151.1840 C   0  0  2  0  0  3  0  0  0  0  0  0
  160.3350  212.9580  151.3300 C   0  0  1  0  0  3  0  0  0  0  0  0
  161.2020  212.8370  150.2400 O   0  0  0  0  0  1  0  0  0  0  0  0
  159.2170  213.9430  151.0160 C   0  0  0  0  0  2  0  0  0  0  0  0
  159.3420  214.4450  149.6730 N   0  0  0  0  0  0  0  0  0  0  0  0
  158.8510  213.8560  148.7580 O   0  0  0  0  0  0  0  0  0  0  0  0
  1  5  1  1  0  0  0
  1 18  1  0  0  0  0
  2 12  1  0  0  0  0
  2 14  1  6  0  0  0
  3 15  1  0  0  0  0
  4 19  1  0  0  0  0
  4  1  1  0  0  0  0
  7  4  1  0  0  0  0
  7 10  1  0  0  0  0
  8 10  1  0  0  0  0
  9  3  1  0  0  0  0
 10  5  1  0  0  0  0
 11 25  1  0  0  0  0
 11 17  1  0  0  0  0
 12 23  1  0  0  0  0
 13 17  1  0  0  0  0
 15 16  1  0  0  0  0
 16 23  1  0  0  0  0
 17  6  1  0  0  0  0
 17  8  1  0  0  0  0
 18  2  1  0  0  0  0
 19 24  1  0  0  0  0
 20  9  1  0  0  0  0
 21  9  1  0  0  0  0
 21 19  1  0  0  0  0
 22 25  1  0  0  0  0
 24 15  1  0  0  0  0
 24 18  1  0  0  0  0
 25  7  1  0  0  0  0
 26 21  1  0  0  0  0
 27 26  1  0  0  0  0
 28 26  1  0  0  0  0
 29 28  1  0  0  0  0
 30 29  2  0  0  0  0
M  END
>  <MODEL>
3

>  <REMARK>
 VINA RESULT:       0.7      1.696      2.183
  Name = 
  3 active torsions:
  status: ('A' for Active; 'I' for Inactive)
    1  A    between atoms: C_7  and  C_10
    2  A    between atoms: C_7  and  N_16
    3  A    between atoms: C_10  and  C_25
                            x       y       z     vdW  Elec       q    Type
                         _______ _______ _______ _____ _____    ______ ____

>  <TORSDO>
F 3

$$$$
=
 OpenBabel11052422003D

 30 34  0  0  1  0  0  0  0  0999 V2000
  162.0560  210.7170  151.5690 C   0  0  2  0  0  3  0  0  0  0  0  0
  162.2050  208.4660  150.1650 C   0  0  1  0  0  3  0  0  0  0  0  0
  160.3870  206.9830  154.1380 C   0  0  0  0  0  2  0  0  0  0  0  0
  161.6200  211.0310  153.0040 C   0  0  1  0  0  3  0  0  0  0  0  0
  161.0490  211.1270  150.6590 O   0  0  0  0  0  0  0  0  0  0  0  0
  157.0350  211.9600  151.6930 C   0  0  0  0  0  1  0  0  0  0  0  0
  160.5820  212.0920  152.7420 C   0  0  1  0  0  3  0  0  0  0  0  0
  159.2350  212.7440  150.7630 C   0  0  0  0  0  2  0  0  0  0  0  0
  159.8920  208.1370  155.0370 C   0  0  1  0  0  3  0  0  0  0  0  0
  159.9970  211.6220  151.4450 C   0  0  1  0  0  3  0  0  0  0  0  0
  158.4480  213.7290  153.2580 S   0  0  0  0  0  0  0  0  0  0  0  0
  160.8060  207.9600  149.8570 C   0  0  0  0  0  2  0  0  0  0  0  0
  157.3430  214.1670  150.9120 O   0  0  0  0  0  1  0  0  0  0  0  0
  162.6640  209.2760  149.1250 O   0  0  0  0  0  1  0  0  0  0  0  0
  160.6450  207.4670  152.7030 C   0  0  2  0  0  3  0  0  0  0  0  0
  161.0960  206.3230  151.8150 C   0  0  0  0  0  2  0  0  0  0  0  0
  157.9960  213.1330  151.5790 C   0  0  2  0  0  0  0  0  0  0  0  0
  162.2870  209.2020  151.5140 C   0  0  2  0  0  3  0  0  0  0  0  0
  161.0080  209.7160  153.4770 C   0  0  2  0  0  3  0  0  0  0  0  0
  159.7480  207.7000  156.3550 O   0  0  0  0  0  1  0  0  0  0  0  0
  160.7670  209.4130  154.9610 C   0  0  2  0  0  3  0  0  0  0  0  0
  160.0760  212.6350  155.1300 C   0  0  0  0  0  1  0  0  0  0  0  0
  160.6140  206.5310  150.3760 C   0  0  0  0  0  2  0  0  0  0  0  0
  161.6940  208.5770  152.7760 C   0  0  1  0  0  3  0  0  0  0  0  0
  159.4780  212.3050  153.7760 C   0  0  2  0  0  3  0  0  0  0  0  0
  162.0360  209.3280  155.8310 C   0  0  1  0  0  3  0  0  0  0  0  0
  163.1010  210.0380  155.2710 O   0  0  0  0  0  1  0  0  0  0  0  0
  161.7700  209.7960  157.2550 C   0  0  0  0  0  2  0  0  0  0  0  0
  161.2330  211.1320  157.2600 N   0  0  0  0  0  0  0  0  0  0  0  0
  161.9610  212.0770  157.2220 O   0  0  0  0  0  0  0  0  0  0  0  0
  1  5  1  6  0  0  0
  1  4  1  0  0  0  0
  2 14  1  6  0  0  0
  2 18  1  0  0  0  0
  3  9  1  0  0  0  0
  4 19  1  0  0  0  0
  5 10  1  0  0  0  0
  7  4  1  0  0  0  0
  7 25  1  0  0  0  0
  8 10  1  0  0  0  0
  8 17  1  0  0  0  0
  9 20  1  0  0  0  0
 10  7  1  0  0  0  0
 11 25  1  0  0  0  0
 12  2  1  0  0  0  0
 12 23  1  0  0  0  0
 13 17  1  0  0  0  0
 15 24  1  0  0  0  0
 15  3  1  0  0  0  0
 16 15  1  0  0  0  0
 17  6  1  0  0  0  0
 17 11  1  0  0  0  0
 18  1  1  0  0  0  0
 18 24  1  0  0  0  0
 19 21  1  0  0  0  0
 21  9  1  0  0  0  0
 21 26  1  0  0  0  0
 23 16  1  0  0  0  0
 24 19  1  0  0  0  0
 25 22  1  0  0  0  0
 26 28  1  0  0  0  0
 27 26  1  0  0  0  0
 28 29  1  0  0  0  0
 30 29  2  0  0  0  0
M  END
>  <MODEL>
4

>  <REMARK>
 VINA RESULT:       1.0      3.074      6.585
  Name = 
  3 active torsions:
  status: ('A' for Active; 'I' for Inactive)
    1  A    between atoms: C_7  and  C_10
    2  A    between atoms: C_7  and  N_16
    3  A    between atoms: C_10  and  C_25
                            x       y       z     vdW  Elec       q    Type
                         _______ _______ _______ _____ _____    ______ ____

>  <TORSDO>
F 3

$$$$
=
 OpenBabel11052422003D

 30 34  0  0  1  0  0  0  0  0999 V2000
  159.4360  203.8160  149.8570 C   0  0  2  0  0  3  0  0  0  0  0  0
  159.8380  201.2300  149.3910 C   0  0  1  0  0  3  0  0  0  0  0  0
  162.7080  203.1950  146.3590 C   0  0  0  0  0  2  0  0  0  0  0  0
  159.9750  205.0940  149.2080 C   0  0  1  0  0  3  0  0  0  0  0  0
  160.0670  203.6080  151.1100 O   0  0  0  0  0  0  0  0  0  0  0  0
  163.6570  205.4610  152.3560 C   0  0  0  0  0  1  0  0  0  0  0  0
  160.5190  205.8010  150.4230 C   0  0  1  0  0  3  0  0  0  0  0  0
  161.1970  205.0670  152.6930 C   0  0  0  0  0  2  0  0  0  0  0  0
  162.9190  204.7030  146.6250 C   0  0  1  0  0  3  0  0  0  0  0  0
  161.0000  204.6470  151.2480 C   0  0  1  0  0  3  0  0  0  0  0  0
  162.0090  207.6050  151.8460 S   0  0  0  0  0  0  0  0  0  0  0  0
  161.2510  200.8500  149.7990 C   0  0  0  0  0  2  0  0  0  0  0  0
  162.4740  206.4320  154.1540 O   0  0  0  0  0  1  0  0  0  0  0  0
  158.9560  201.0160  150.4520 O   0  0  0  0  0  1  0  0  0  0  0  0
  162.0570  202.5030  147.5660 C   0  0  2  0  0  3  0  0  0  0  0  0
  161.8860  201.0170  147.3160 C   0  0  0  0  0  2  0  0  0  0  0  0
  162.3450  206.0780  152.8130 C   0  0  2  0  0  0  0  0  0  0  0  0
  159.7380  202.6760  148.8760 C   0  0  2  0  0  3  0  0  0  0  0  0
  161.0760  204.5790  148.2870 C   0  0  2  0  0  3  0  0  0  0  0  0
  163.4280  205.3310  145.4880 O   0  0  0  0  0  1  0  0  0  0  0  0
  161.6570  205.4300  147.1510 C   0  0  2  0  0  3  0  0  0  0  0  0
  161.2060  207.9150  149.2750 C   0  0  0  0  0  1  0  0  0  0  0  0
  162.0120  200.2280  148.6230 C   0  0  0  0  0  2  0  0  0  0  0  0
  160.7180  203.1940  147.8220 C   0  0  1  0  0  3  0  0  0  0  0  0
  161.6410  206.8210  150.2320 C   0  0  2  0  0  3  0  0  0  0  0  0
  160.6650  205.8030  146.0320 C   0  0  1  0  0  3  0  0  0  0  0  0
  160.4860  207.1850  145.9320 O   0  0  0  0  0  1  0  0  0  0  0  0
  161.0900  205.2200  144.6910 C   0  0  0  0  0  2  0  0  0  0  0  0
  160.0810  204.3290  144.1810 N   0  0  0  0  0  0  0  0  0  0  0  0
  160.0650  203.1810  144.5110 O   0  0  0  0  0  0  0  0  0  0  0  0
  1  5  1  1  0  0  0
  2 12  1  0  0  0  0
  2 14  1  1  0  0  0
  3  9  1  0  0  0  0
  3 15  1  0  0  0  0
  4  1  1  0  0  0  0
  4  7  1  0  0  0  0
  5 10  1  0  0  0  0
  6 17  1  0  0  0  0
  7 10  1  0  0  0  0
  8 17  1  0  0  0  0
  9 21  1  0  0  0  0
 10  8  1  0  0  0  0
 11 17  1  0  0  0  0
 15 24  1  0  0  0  0
 16 15  1  0  0  0  0
 16 23  1  0  0  0  0
 17 13  1  0  0  0  0
 18  2  1  0  0  0  0
 18  1  1  0  0  0  0
 19  4  1  0  0  0  0
 20  9  1  0  0  0  0
 21 19  1  0  0  0  0
 22 25  1  0  0  0  0
 23 12  1  0  0  0  0
 24 19  1  0  0  0  0
 24 18  1  0  0  0  0
 25  7  1  0  0  0  0
 25 11  1  0  0  0  0
 26 21  1  0  0  0  0
 27 26  1  0  0  0  0
 28 26  1  0  0  0  0
 29 30  2  0  0  0  0
 29 28  1  0  0  0  0
M  END
>  <MODEL>
5

>  <REMARK>
 VINA RESULT:       1.6      5.448      8.809
  Name = 
  3 active torsions:
  status: ('A' for Active; 'I' for Inactive)
    1  A    between atoms: C_7  and  C_10
    2  A    between atoms: C_7  and  N_16
    3  A    between atoms: C_10  and  C_25
                            x       y       z     vdW  Elec       q    Type
                         _______ _______ _______ _____ _____    ______ ____

>  <TORSDO>
F 3

$$$$
