=
 OpenBabel11052422123D

 25 29  0  0  1  0  0  0  0  0999 V2000
  161.1900  205.1920  150.0620 C   0  0  0  0  0  0  0  0  0  0  0  0
  161.1550  206.2720  150.9400 C   0  0  0  0  0  0  0  0  0  0  0  0
  161.1060  203.6340  151.8500 N   0  0  0  0  0  0  0  0  0  0  0  0
  161.2350  205.0790  148.6920 C   0  0  0  0  0  0  0  0  0  0  0  0
  161.5020  208.7230  151.4670 C   0  0  2  0  0  0  0  0  0  0  0  0
  161.3280  204.1700  146.0800 C   0  0  0  0  0  3  0  0  0  0  0  0
  161.0680  204.6520  152.7200 N   0  0  0  0  0  0  0  0  0  0  0  0
  161.2420  203.7210  148.4310 C   0  0  0  0  0  0  0  0  0  0  0  0
  161.2890  203.2310  147.1280 C   0  0  0  0  0  3  0  0  0  0  0  0
  161.0710  207.0420  153.3140 C   0  0  0  0  0  0  0  0  0  0  0  0
  160.7460  206.7830  154.5040 O   0  0  0  0  0  0  0  0  0  0  0  0
  161.0530  207.6810  150.4390 C   0  0  0  0  0  2  0  0  0  0  0  0
  161.3190  205.5570  146.3510 C   0  0  0  0  0  3  0  0  0  0  0  0
  161.1680  203.9020  150.5260 C   0  0  0  0  0  0  0  0  0  0  0  0
  161.2020  203.0210  149.5480 O   0  0  0  0  0  0  0  0  0  0  0  0
  161.4890  208.4420  152.9690 C   0  0  2  0  0  3  0  0  0  0  0  0
  161.2730  206.0290  147.6740 C   0  0  0  0  0  3  0  0  0  0  0  0
  160.3400  209.1950  152.3150 C   0  0  0  0  0  2  0  0  0  0  0  0
  161.0910  205.9630  152.3150 C   0  0  0  0  0  0  0  0  0  0  0  0
  162.3630  209.8790  151.0000 C   0  0  0  0  0  2  0  0  0  0  0  0
  162.0560  210.2080  149.5480 C   0  0  0  0  0  2  0  0  0  0  0  0
  161.6930  212.3120  148.1930 C   0  0  0  0  0  0  0  0  0  0  0  0
  160.9330  211.7100  147.3890 O   0  0  0  0  0  0  0  0  0  0  0  0
  161.9820  213.7560  147.9900 C   0  0  0  0  0  1  0  0  0  0  0  0
  162.2770  211.6250  149.3000 N   0  0  0  0  0  2  0  0  0  0  0  0
  1 14  1  0  0  0  0
  1  2  2  0  0  0  0
  2 19  1  0  0  0  0
  3  7  1  0  0  0  0
  4  1  1  0  0  0  0
  5 20  1  6  0  0  0
  5 18  1  0  0  0  0
  5 16  1  0  0  0  0
  6 13  2  0  0  0  0
  6  9  1  0  0  0  0
  8  4  1  0  0  0  0
  8 15  1  0  0  0  0
  9  8  2  0  0  0  0
 10 11  2  0  0  0  0
 12  2  1  0  0  0  0
 12  5  1  0  0  0  0
 13 17  1  0  0  0  0
 14  3  2  0  0  0  0
 15 14  1  0  0  0  0
 16 18  1  1  0  0  0
 16 10  1  0  0  0  0
 17  4  2  0  0  0  0
 19  7  2  0  0  0  0
 19 10  1  0  0  0  0
 21 20  1  0  0  0  0
 22 25  1  0  0  0  0
 23 22  2  0  0  0  0
 24 22  1  0  0  0  0
 25 21  1  0  0  0  0
M  END
>  <MODEL>
1

>  <REMARK>
 VINA RESULT:      -9.4      0.000      0.000
  Name = 
  3 active torsions:
  status: ('A' for Active; 'I' for Inactive)
    1  A    between atoms: C_6  and  C_15
    2  A    between atoms: C_15  and  C_25
    3  A    between atoms: N_21  and  C_25
                            x       y       z     vdW  Elec       q    Type
                         _______ _______ _______ _____ _____    ______ ____

>  <TORSDO>
F 3

$$$$
=
 OpenBabel11052422123D

 25 29  0  0  1  0  0  0  0  0999 V2000
  161.3240  205.0050  148.8100 C   0  0  0  0  0  0  0  0  0  0  0  0
  161.4850  206.2340  149.4440 C   0  0  0  0  0  0  0  0  0  0  0  0
  161.4610  206.0060  146.6620 N   0  0  0  0  0  0  0  0  0  0  0  0
  161.1690  203.7150  149.2590 C   0  0  0  0  0  0  0  0  0  0  0  0
  161.3100  207.7270  151.4800 C   0  0  2  0  0  0  0  0  0  0  0  0
  160.8280  200.9770  149.4820 C   0  0  0  0  0  3  0  0  0  0  0  0
  161.6200  207.2020  147.2420 N   0  0  0  0  0  0  0  0  0  0  0  0
  161.0690  202.9350  148.1220 C   0  0  0  0  0  0  0  0  0  0  0  0
  160.8970  201.5540  148.2000 C   0  0  0  0  0  3  0  0  0  0  0  0
  161.7910  208.7000  149.1890 C   0  0  0  0  0  0  0  0  0  0  0  0
  162.1910  209.6520  148.4680 O   0  0  0  0  0  0  0  0  0  0  0  0
  161.6230  206.3320  150.9330 C   0  0  0  0  0  2  0  0  0  0  0  0
  160.9320  201.7790  150.6420 C   0  0  0  0  0  3  0  0  0  0  0  0
  161.3120  204.9110  147.4420 C   0  0  0  0  0  0  0  0  0  0  0  0
  161.1570  203.6690  147.0310 O   0  0  0  0  0  0  0  0  0  0  0  0
  161.4230  208.9830  150.6170 C   0  0  2  0  0  3  0  0  0  0  0  0
  161.1040  203.1700  150.5400 C   0  0  0  0  0  3  0  0  0  0  0  0
  162.5570  208.5830  151.5490 C   0  0  0  0  0  2  0  0  0  0  0  0
  161.6360  207.3590  148.6060 C   0  0  0  0  0  0  0  0  0  0  0  0
  160.4800  207.8420  152.7420 C   0  0  0  0  0  2  0  0  0  0  0  0
  161.1680  207.1230  153.8900 C   0  0  0  0  0  2  0  0  0  0  0  0
  160.2920  207.9460  156.1150 C   0  0  0  0  0  0  0  0  0  0  0  0
  159.3460  207.1140  156.0950 O   0  0  0  0  0  0  0  0  0  0  0  0
  160.4210  208.8850  157.2600 C   0  0  0  0  0  1  0  0  0  0  0  0
  161.2440  207.9960  155.0520 N   0  0  0  0  0  2  0  0  0  0  0  0
  1  4  1  0  0  0  0
  1  2  2  0  0  0  0
  2 12  1  0  0  0  0
  3  7  1  0  0  0  0
  3 14  2  0  0  0  0
  4 17  1  0  0  0  0
  5 18  1  0  0  0  0
  5 20  1  1  0  0  0
  6 13  1  0  0  0  0
  7 19  2  0  0  0  0
  8  9  1  0  0  0  0
  8  4  2  0  0  0  0
  9  6  2  0  0  0  0
 10 16  1  0  0  0  0
 11 10  2  0  0  0  0
 12  5  1  0  0  0  0
 14  1  1  0  0  0  0
 15 14  1  0  0  0  0
 15  8  1  0  0  0  0
 16  5  1  0  0  0  0
 16 18  1  1  0  0  0
 17 13  2  0  0  0  0
 19 10  1  0  0  0  0
 19  2  1  0  0  0  0
 20 21  1  0  0  0  0
 21 25  1  0  0  0  0
 22 24  1  0  0  0  0
 23 22  2  0  0  0  0
 25 22  1  0  0  0  0
M  END
>  <MODEL>
2

>  <REMARK>
 VINA RESULT:      -9.3      2.474      5.098
  Name = 
  3 active torsions:
  status: ('A' for Active; 'I' for Inactive)
    1  A    between atoms: C_6  and  C_15
    2  A    between atoms: C_15  and  C_25
    3  A    between atoms: N_21  and  C_25
                            x       y       z     vdW  Elec       q    Type
                         _______ _______ _______ _____ _____    ______ ____

>  <TORSDO>
F 3

$$$$
=
 OpenBabel11052422123D

 25 29  0  0  1  0  0  0  0  0999 V2000
  161.3390  205.8330  149.5010 C   0  0  0  0  0  0  0  0  0  0  0  0
  161.5050  207.1310  149.9770 C   0  0  0  0  0  0  0  0  0  0  0  0
  161.5120  206.5540  147.2460 N   0  0  0  0  0  0  0  0  0  0  0  0
  161.1650  204.6110  150.1060 C   0  0  0  0  0  0  0  0  0  0  0  0
  161.3210  208.8700  151.8070 C   0  0  2  0  0  0  0  0  0  0  0  0
  160.7940  201.9270  150.6670 C   0  0  0  0  0  3  0  0  0  0  0  0
  161.6760  207.8130  147.6730 N   0  0  0  0  0  0  0  0  0  0  0  0
  161.0710  203.6950  149.0750 C   0  0  0  0  0  0  0  0  0  0  0  0
  160.8840  202.3370  149.3230 C   0  0  0  0  0  3  0  0  0  0  0  0
  161.8390  209.5430  149.4190 C   0  0  0  0  0  0  0  0  0  0  0  0
  162.2580  210.3920  148.5890 O   0  0  0  0  0  0  0  0  0  0  0  0
  161.6270  207.4140  151.4440 C   0  0  0  0  0  2  0  0  0  0  0  0
  160.8910  202.8660  151.7180 C   0  0  0  0  0  3  0  0  0  0  0  0
  161.3430  205.5680  148.1550 C   0  0  0  0  0  0  0  0  0  0  0  0
  161.1800  204.2860  147.9010 O   0  0  0  0  0  0  0  0  0  0  0  0
  161.4570  210.0060  150.7950 C   0  0  2  0  0  3  0  0  0  0  0  0
  161.0800  204.2330  151.4440 C   0  0  0  0  0  3  0  0  0  0  0  0
  162.5760  209.7170  151.7840 C   0  0  0  0  0  2  0  0  0  0  0  0
  161.6780  208.1400  149.0060 C   0  0  0  0  0  0  0  0  0  0  0  0
  160.4770  209.1490  153.0340 C   0  0  0  0  0  2  0  0  0  0  0  0
  161.3620  209.2770  154.2620 C   0  0  0  0  0  2  0  0  0  0  0  0
  160.3880  208.2810  156.3720 C   0  0  0  0  0  0  0  0  0  0  0  0
  159.8730  209.3820  156.7010 O   0  0  0  0  0  0  0  0  0  0  0  0
  160.2150  207.0960  157.2530 C   0  0  0  0  0  1  0  0  0  0  0  0
  161.1340  208.1560  155.1610 N   0  0  0  0  0  2  0  0  0  0  0  0
  1  2  2  0  0  0  0
  1  4  1  0  0  0  0
  2 12  1  0  0  0  0
  3  7  1  0  0  0  0
  3 14  2  0  0  0  0
  4 17  1  0  0  0  0
  5 20  1  1  0  0  0
  6 13  1  0  0  0  0
  7 19  2  0  0  0  0
  8  9  1  0  0  0  0
  8  4  2  0  0  0  0
  9  6  2  0  0  0  0
 10 16  1  0  0  0  0
 11 10  2  0  0  0  0
 12  5  1  0  0  0  0
 14  1  1  0  0  0  0
 15 14  1  0  0  0  0
 15  8  1  0  0  0  0
 16 18  1  1  0  0  0
 16  5  1  0  0  0  0
 17 13  2  0  0  0  0
 18  5  1  0  0  0  0
 19 10  1  0  0  0  0
 19  2  1  0  0  0  0
 20 21  1  0  0  0  0
 21 25  1  0  0  0  0
 22 23  2  0  0  0  0
 22 24  1  0  0  0  0
 25 22  1  0  0  0  0
M  END
>  <MODEL>
3

>  <REMARK>
 VINA RESULT:      -9.2      2.411      5.150
  Name = 
  3 active torsions:
  status: ('A' for Active; 'I' for Inactive)
    1  A    between atoms: C_6  and  C_15
    2  A    between atoms: C_15  and  C_25
    3  A    between atoms: N_21  and  C_25
                            x       y       z     vdW  Elec       q    Type
                         _______ _______ _______ _____ _____    ______ ____

>  <TORSDO>
F 3

$$$$
=
 OpenBabel11052422123D

 25 29  0  0  1  0  0  0  0  0999 V2000
  161.3820  205.5320  149.2300 C   0  0  0  0  0  0  0  0  0  0  0  0
  161.5400  206.7960  149.7900 C   0  0  0  0  0  0  0  0  0  0  0  0
  161.6020  206.3930  147.0290 N   0  0  0  0  0  0  0  0  0  0  0  0
  161.1920  204.2740  149.7530 C   0  0  0  0  0  0  0  0  0  0  0  0
  161.3240  208.4170  151.7220 C   0  0  2  0  0  0  0  0  0  0  0  0
  160.8030  201.5610  150.1350 C   0  0  0  0  0  3  0  0  0  0  0  0
  161.7600  207.6220  147.5380 N   0  0  0  0  0  0  0  0  0  0  0  0
  161.1170  203.4260  148.6640 C   0  0  0  0  0  0  0  0  0  0  0  0
  160.9210  202.0560  148.8220 C   0  0  0  0  0  3  0  0  0  0  0  0
  161.8920  209.2370  149.3920 C   0  0  0  0  0  0  0  0  0  0  0  0
  162.3300  210.1360  148.6260 O   0  0  0  0  0  0  0  0  0  0  0  0
  161.6330  206.9850  151.2740 C   0  0  0  0  0  2  0  0  0  0  0  0
  160.8810  202.4330  151.2450 C   0  0  0  0  0  3  0  0  0  0  0  0
  161.4110  205.3520  147.8700 C   0  0  0  0  0  0  0  0  0  0  0  0
  161.2510  204.0890  147.5320 O   0  0  0  0  0  0  0  0  0  0  0  0
  161.4830  209.6140  150.7870 C   0  0  2  0  0  3  0  0  0  0  0  0
  161.0780  203.8130  151.0620 C   0  0  0  0  0  3  0  0  0  0  0  0
  162.5810  209.2590  151.7790 C   0  0  0  0  0  2  0  0  0  0  0  0
  161.7360  207.8640  148.8890 C   0  0  0  0  0  0  0  0  0  0  0  0
  160.4550  208.6210  152.9470 C   0  0  0  0  0  2  0  0  0  0  0  0
  161.2240  208.2480  154.2040 C   0  0  0  0  0  2  0  0  0  0  0  0
  161.4370  210.2810  155.6930 C   0  0  0  0  0  0  0  0  0  0  0  0
  162.4280  210.7040  155.0410 O   0  0  0  0  0  0  0  0  0  0  0  0
  160.9420  211.0550  156.8620 C   0  0  0  0  0  1  0  0  0  0  0  0
  160.7810  209.0680  155.3210 N   0  0  0  0  0  2  0  0  0  0  0  0
  1  4  1  0  0  0  0
  1  2  2  0  0  0  0
  2 12  1  0  0  0  0
  3  7  1  0  0  0  0
  3 14  2  0  0  0  0
  4 17  1  0  0  0  0
  5 18  1  0  0  0  0
  5 20  1  1  0  0  0
  6 13  1  0  0  0  0
  7 19  2  0  0  0  0
  8  9  1  0  0  0  0
  8  4  2  0  0  0  0
  9  6  2  0  0  0  0
 10 16  1  0  0  0  0
 11 10  2  0  0  0  0
 12  5  1  0  0  0  0
 14  1  1  0  0  0  0
 15 14  1  0  0  0  0
 15  8  1  0  0  0  0
 16  5  1  0  0  0  0
 16 18  1  1  0  0  0
 17 13  2  0  0  0  0
 19 10  1  0  0  0  0
 19  2  1  0  0  0  0
 20 21  1  0  0  0  0
 21 25  1  0  0  0  0
 22 24  1  0  0  0  0
 23 22  2  0  0  0  0
 25 22  1  0  0  0  0
M  END
>  <MODEL>
4

>  <REMARK>
 VINA RESULT:      -8.9      2.562      4.699
  Name = 
  3 active torsions:
  status: ('A' for Active; 'I' for Inactive)
    1  A    between atoms: C_6  and  C_15
    2  A    between atoms: C_15  and  C_25
    3  A    between atoms: N_21  and  C_25
                            x       y       z     vdW  Elec       q    Type
                         _______ _______ _______ _____ _____    ______ ____

>  <TORSDO>
F 3

$$$$
=
 OpenBabel11052422123D

 25 29  0  0  1  0  0  0  0  0999 V2000
  161.3820  208.4010  153.1040 C   0  0  0  0  0  0  0  0  0  0  0  0
  161.4030  207.6900  151.9070 C   0  0  0  0  0  0  0  0  0  0  0  0
  162.3010  210.3280  152.0670 N   0  0  0  0  0  0  0  0  0  0  0  0
  160.9700  208.1040  154.3820 C   0  0  0  0  0  0  0  0  0  0  0  0
  161.3240  205.5210  150.6060 C   0  0  2  0  0  0  0  0  0  0  0  0
  160.3540  208.1560  157.0790 C   0  0  0  0  0  3  0  0  0  0  0  0
  162.3310  209.6720  150.9000 N   0  0  0  0  0  0  0  0  0  0  0  0
  161.2060  209.2470  155.1240 C   0  0  0  0  0  0  0  0  0  0  0  0
  160.9070  209.3050  156.4830 C   0  0  0  0  0  3  0  0  0  0  0  0
  161.9770  207.6940  149.4760 C   0  0  0  0  0  0  0  0  0  0  0  0
  162.1600  208.3700  148.4290 O   0  0  0  0  0  0  0  0  0  0  0  0
  160.8020  206.3210  151.8020 C   0  0  0  0  0  2  0  0  0  0  0  0
  160.1140  206.9910  156.3160 C   0  0  0  0  0  3  0  0  0  0  0  0
  161.8300  209.6960  153.1650 C   0  0  0  0  0  0  0  0  0  0  0  0
  161.7260  210.2010  154.3770 O   0  0  0  0  0  0  0  0  0  0  0  0
  161.9040  206.1980  149.3650 C   0  0  2  0  0  3  0  0  0  0  0  0
  160.4240  206.9530  154.9450 C   0  0  0  0  0  3  0  0  0  0  0  0
  160.4560  205.7320  149.3830 C   0  0  0  0  0  2  0  0  0  0  0  0
  161.9000  208.3750  150.7770 C   0  0  0  0  0  0  0  0  0  0  0  0
  161.6670  204.0580  150.8050 C   0  0  0  0  0  2  0  0  0  0  0  0
  160.4560  203.1900  150.5060 C   0  0  0  0  0  2  0  0  0  0  0  0
  161.1760  201.7910  148.5270 C   0  0  0  0  0  0  0  0  0  0  0  0
  161.1010  202.7800  147.7510 O   0  0  0  0  0  0  0  0  0  0  0  0
  161.5810  200.4650  147.9910 C   0  0  0  0  0  1  0  0  0  0  0  0
  160.8790  201.9290  149.9170 N   0  0  0  0  0  2  0  0  0  0  0  0
  1 14  1  0  0  0  0
  1  4  1  0  0  0  0
  2  1  2  0  0  0  0
  3 14  2  0  0  0  0
  4 17  2  0  0  0  0
  4  8  1  0  0  0  0
  5 20  1  1  0  0  0
  5 12  1  0  0  0  0
  7  3  1  0  0  0  0
  8  9  2  0  0  0  0
  9  6  1  0  0  0  0
 10 19  1  0  0  0  0
 11 10  2  0  0  0  0
 12  2  1  0  0  0  0
 13  6  2  0  0  0  0
 14 15  1  0  0  0  0
 15  8  1  0  0  0  0
 16 18  1  6  0  0  0
 16 10  1  0  0  0  0
 16  5  1  0  0  0  0
 17 13  1  0  0  0  0
 18  5  1  0  0  0  0
 19  7  2  0  0  0  0
 19  2  1  0  0  0  0
 21 20  1  0  0  0  0
 22 25  1  0  0  0  0
 23 22  2  0  0  0  0
 24 22  1  0  0  0  0
 25 21  1  0  0  0  0
M  END
>  <MODEL>
5

>  <REMARK>
 VINA RESULT:      -8.8      2.584      7.544
  Name = 
  3 active torsions:
  status: ('A' for Active; 'I' for Inactive)
    1  A    between atoms: C_6  and  C_15
    2  A    between atoms: C_15  and  C_25
    3  A    between atoms: N_21  and  C_25
                            x       y       z     vdW  Elec       q    Type
                         _______ _______ _______ _____ _____    ______ ____

>  <TORSDO>
F 3

$$$$
=
 OpenBabel11052422123D

 25 29  0  0  1  0  0  0  0  0999 V2000
  161.1350  204.0520  149.0120 C   0  0  0  0  0  0  0  0  0  0  0  0
  161.2490  204.9990  150.0260 C   0  0  0  0  0  0  0  0  0  0  0  0
  161.0770  202.2680  150.5760 N   0  0  0  0  0  0  0  0  0  0  0  0
  161.0630  204.1280  147.6410 C   0  0  0  0  0  0  0  0  0  0  0  0
  161.8170  207.3260  150.8440 C   0  0  2  0  0  0  0  0  0  0  0  0
  160.8820  203.5890  144.9330 C   0  0  0  0  0  3  0  0  0  0  0  0
  161.1840  203.1550  151.5740 N   0  0  0  0  0  0  0  0  0  0  0  0
  160.9490  202.8220  147.2010 C   0  0  0  0  0  0  0  0  0  0  0  0
  160.8570  202.5170  145.8450 C   0  0  0  0  0  3  0  0  0  0  0  0
  161.4100  205.4340  152.4810 C   0  0  0  0  0  0  0  0  0  0  0  0
  161.1620  205.0330  153.6480 O   0  0  0  0  0  0  0  0  0  0  0  0
  161.2120  206.4680  149.7300 C   0  0  0  0  0  2  0  0  0  0  0  0
  160.9980  204.9220  145.3870 C   0  0  0  0  0  3  0  0  0  0  0  0
  161.0550  202.7140  149.3000 C   0  0  0  0  0  0  0  0  0  0  0  0
  160.9460  201.9770  148.2130 O   0  0  0  0  0  0  0  0  0  0  0  0
  161.9020  206.8390  152.2900 C   0  0  2  0  0  3  0  0  0  0  0  0
  161.0910  205.2070  146.7600 C   0  0  0  0  0  3  0  0  0  0  0  0
  160.7640  207.7470  151.8470 C   0  0  0  0  0  2  0  0  0  0  0  0
  161.2710  204.5060  151.3480 C   0  0  0  0  0  0  0  0  0  0  0  0
  162.7220  208.4800  150.4610 C   0  0  0  0  0  2  0  0  0  0  0  0
  161.9190  209.7670  150.3700 C   0  0  0  0  0  2  0  0  0  0  0  0
  161.7060  211.7260  148.7850 C   0  0  0  0  0  0  0  0  0  0  0  0
  161.1670  212.4370  149.6750 O   0  0  0  0  0  0  0  0  0  0  0  0
  161.9200  212.2860  147.4250 C   0  0  0  0  0  1  0  0  0  0  0  0
  162.1170  210.3880  149.0690 N   0  0  0  0  0  2  0  0  0  0  0  0
  1 14  1  0  0  0  0
  1  2  2  0  0  0  0
  2 19  1  0  0  0  0
  3  7  1  0  0  0  0
  4  1  1  0  0  0  0
  5 20  1  6  0  0  0
  5 18  1  0  0  0  0
  5 16  1  0  0  0  0
  6 13  2  0  0  0  0
  6  9  1  0  0  0  0
  8  4  1  0  0  0  0
  8 15  1  0  0  0  0
  9  8  2  0  0  0  0
 10 11  2  0  0  0  0
 12  2  1  0  0  0  0
 12  5  1  0  0  0  0
 13 17  1  0  0  0  0
 14  3  2  0  0  0  0
 15 14  1  0  0  0  0
 16 18  1  1  0  0  0
 16 10  1  0  0  0  0
 17  4  2  0  0  0  0
 19  7  2  0  0  0  0
 19 10  1  0  0  0  0
 21 20  1  0  0  0  0
 22 25  1  0  0  0  0
 22 23  2  0  0  0  0
 24 22  1  0  0  0  0
 25 21  1  0  0  0  0
M  END
>  <MODEL>
6

>  <REMARK>
 VINA RESULT:      -8.7      1.262      1.598
  Name = 
  3 active torsions:
  status: ('A' for Active; 'I' for Inactive)
    1  A    between atoms: C_6  and  C_15
    2  A    between atoms: C_15  and  C_25
    3  A    between atoms: N_21  and  C_25
                            x       y       z     vdW  Elec       q    Type
                         _______ _______ _______ _____ _____    ______ ____

>  <TORSDO>
F 3

$$$$
=
 OpenBabel11052422123D

 25 29  0  0  1  0  0  0  0  0999 V2000
  161.2180  204.2450  148.6840 C   0  0  0  0  0  0  0  0  0  0  0  0
  161.2520  204.9670  149.8740 C   0  0  0  0  0  0  0  0  0  0  0  0
  161.0150  202.1860  149.8460 N   0  0  0  0  0  0  0  0  0  0  0  0
  161.2640  204.5960  147.3550 C   0  0  0  0  0  0  0  0  0  0  0  0
  161.7650  207.0680  151.1890 C   0  0  2  0  0  0  0  0  0  0  0  0
  161.3100  204.6160  144.5890 C   0  0  0  0  0  3  0  0  0  0  0  0
  161.0430  202.8510  151.0080 N   0  0  0  0  0  0  0  0  0  0  0  0
  161.1780  203.4080  146.6530 C   0  0  0  0  0  0  0  0  0  0  0  0
  161.1990  203.3840  145.2610 C   0  0  0  0  0  3  0  0  0  0  0  0
  161.2070  204.8960  152.3710 C   0  0  0  0  0  0  0  0  0  0  0  0
  160.8570  204.2750  153.4090 O   0  0  0  0  0  0  0  0  0  0  0  0
  161.2500  206.4650  149.8780 C   0  0  0  0  0  2  0  0  0  0  0  0
  161.3950  205.8280  145.3100 C   0  0  0  0  0  3  0  0  0  0  0  0
  161.1040  202.8790  148.6880 C   0  0  0  0  0  0  0  0  0  0  0  0
  161.0830  202.3780  147.4700 O   0  0  0  0  0  0  0  0  0  0  0  0
  161.7230  206.2990  152.5090 C   0  0  2  0  0  3  0  0  0  0  0  0
  161.3740  205.8290  146.7160 C   0  0  0  0  0  3  0  0  0  0  0  0
  160.6330  207.3040  152.1670 C   0  0  0  0  0  2  0  0  0  0  0  0
  161.1580  204.2180  151.0670 C   0  0  0  0  0  0  0  0  0  0  0  0
  162.7060  208.2530  151.1220 C   0  0  0  0  0  2  0  0  0  0  0  0
  161.9290  209.5500  151.2800 C   0  0  0  0  0  2  0  0  0  0  0  0
  160.9760  210.5710  153.3880 C   0  0  0  0  0  0  0  0  0  0  0  0
  159.8120  210.5800  152.9040 O   0  0  0  0  0  0  0  0  0  0  0  0
  161.2060  211.0950  154.7590 C   0  0  0  0  0  1  0  0  0  0  0  0
  162.0760  210.0590  152.6340 N   0  0  0  0  0  2  0  0  0  0  0  0
  1 14  1  0  0  0  0
  1  2  2  0  0  0  0
  2 12  1  0  0  0  0
  2 19  1  0  0  0  0
  3  7  1  0  0  0  0
  4  1  1  0  0  0  0
  5 20  1  6  0  0  0
  5 18  1  0  0  0  0
  5 16  1  0  0  0  0
  6  9  2  0  0  0  0
  6 13  1  0  0  0  0
  7 19  2  0  0  0  0
  8  4  2  0  0  0  0
  8 15  1  0  0  0  0
  9  8  1  0  0  0  0
 10 16  1  0  0  0  0
 10 11  2  0  0  0  0
 12  5  1  0  0  0  0
 13 17  2  0  0  0  0
 14  3  2  0  0  0  0
 15 14  1  0  0  0  0
 16 18  1  1  0  0  0
 17  4  1  0  0  0  0
 19 10  1  0  0  0  0
 20 21  1  0  0  0  0
 21 25  1  0  0  0  0
 22 24  1  0  0  0  0
 23 22  2  0  0  0  0
 25 22  1  0  0  0  0
M  END
>  <MODEL>
7

>  <REMARK>
 VINA RESULT:      -8.6      2.293      2.886
  Name = 
  3 active torsions:
  status: ('A' for Active; 'I' for Inactive)
    1  A    between atoms: C_6  and  C_15
    2  A    between atoms: C_15  and  C_25
    3  A    between atoms: N_21  and  C_25
                            x       y       z     vdW  Elec       q    Type
                         _______ _______ _______ _____ _____    ______ ____

>  <TORSDO>
F 3

$$$$
=
 OpenBabel11052422123D

 25 29  0  0  1  0  0  0  0  0999 V2000
  161.2860  205.0890  150.2040 C   0  0  0  0  0  0  0  0  0  0  0  0
  161.1450  203.7830  149.7420 C   0  0  0  0  0  0  0  0  0  0  0  0
  160.9730  204.4080  152.4560 N   0  0  0  0  0  0  0  0  0  0  0  0
  161.5310  206.2950  149.5920 C   0  0  0  0  0  0  0  0  0  0  0  0
  160.7190  202.1130  147.8890 C   0  0  2  0  0  0  0  0  0  0  0  0
  161.9850  208.9630  149.0120 C   0  0  0  0  0  3  0  0  0  0  0  0
  160.8360  203.1420  152.0430 N   0  0  0  0  0  0  0  0  0  0  0  0
  161.5650  207.2290  150.6110 C   0  0  0  0  0  0  0  0  0  0  0  0
  161.7910  208.5790  150.3520 C   0  0  0  0  0  3  0  0  0  0  0  0
  160.7320  201.3880  150.3170 C   0  0  0  0  0  0  0  0  0  0  0  0
  160.7950  200.4790  151.1860 O   0  0  0  0  0  0  0  0  0  0  0  0
  161.3660  203.4390  148.3000 C   0  0  0  0  0  2  0  0  0  0  0  0
  161.9500  208.0050  147.9740 C   0  0  0  0  0  3  0  0  0  0  0  0
  161.1950  205.3790  151.5420 C   0  0  0  0  0  0  0  0  0  0  0  0
  161.3610  206.6630  151.7840 O   0  0  0  0  0  0  0  0  0  0  0  0
  160.4110  201.0100  148.9000 C   0  0  2  0  0  3  0  0  0  0  0  0
  161.7190  206.6470  148.2570 C   0  0  0  0  0  3  0  0  0  0  0  0
  161.6800  200.9560  148.0620 C   0  0  0  0  0  2  0  0  0  0  0  0
  160.9130  202.7920  150.7180 C   0  0  0  0  0  0  0  0  0  0  0  0
  159.9890  202.0430  146.5630 C   0  0  0  0  0  2  0  0  0  0  0  0
  160.9460  202.3410  145.4200 C   0  0  0  0  0  2  0  0  0  0  0  0
  161.5470  204.7350  144.8700 C   0  0  0  0  0  0  0  0  0  0  0  0
  162.6820  204.6130  145.4020 O   0  0  0  0  0  0  0  0  0  0  0  0
  161.1520  206.0350  144.2690 C   0  0  0  0  0  1  0  0  0  0  0  0
  160.6360  203.6350  144.8340 N   0  0  0  0  0  2  0  0  0  0  0  0
  1 14  1  0  0  0  0
  2  1  2  0  0  0  0
  2 19  1  0  0  0  0
  4  1  1  0  0  0  0
  4  8  1  0  0  0  0
  5 20  1  6  0  0  0
  5 18  1  0  0  0  0
  5 12  1  0  0  0  0
  5 16  1  0  0  0  0
  6  9  1  0  0  0  0
  7  3  1  0  0  0  0
  8 15  1  0  0  0  0
  9  8  2  0  0  0  0
 10 19  1  0  0  0  0
 10 11  2  0  0  0  0
 12  2  1  0  0  0  0
 13 17  1  0  0  0  0
 13  6  2  0  0  0  0
 14 15  1  0  0  0  0
 14  3  2  0  0  0  0
 16 18  1  6  0  0  0
 16 10  1  0  0  0  0
 17  4  2  0  0  0  0
 19  7  2  0  0  0  0
 21 20  1  0  0  0  0
 22 23  2  0  0  0  0
 24 22  1  0  0  0  0
 25 22  1  0  0  0  0
 25 21  1  0  0  0  0
M  END
>  <MODEL>
8

>  <REMARK>
 VINA RESULT:      -8.5      2.828      6.106
  Name = 
  3 active torsions:
  status: ('A' for Active; 'I' for Inactive)
    1  A    between atoms: C_6  and  C_15
    2  A    between atoms: C_15  and  C_25
    3  A    between atoms: N_21  and  C_25
                            x       y       z     vdW  Elec       q    Type
                         _______ _______ _______ _____ _____    ______ ____

>  <TORSDO>
F 3

$$$$
=
 OpenBabel11052422123D

 25 29  0  0  1  0  0  0  0  0999 V2000
  161.1690  202.9620  149.6500 C   0  0  0  0  0  0  0  0  0  0  0  0
  161.2150  204.2160  150.2530 C   0  0  0  0  0  0  0  0  0  0  0  0
  161.2700  201.8610  151.7500 N   0  0  0  0  0  0  0  0  0  0  0  0
  161.0800  202.5350  148.3460 C   0  0  0  0  0  0  0  0  0  0  0  0
  161.5990  206.7160  150.1640 C   0  0  2  0  0  0  0  0  0  0  0  0
  160.9200  201.0460  146.0190 C   0  0  0  0  0  3  0  0  0  0  0  0
  161.3120  203.0520  152.3600 N   0  0  0  0  0  0  0  0  0  0  0  0
  161.0690  201.1530  148.4070 C   0  0  0  0  0  0  0  0  0  0  0  0
  160.9890  200.3760  147.2540 C   0  0  0  0  0  3  0  0  0  0  0  0
  161.3610  205.5140  152.3820 C   0  0  0  0  0  0  0  0  0  0  0  0
  161.1550  205.5430  153.6250 O   0  0  0  0  0  0  0  0  0  0  0  0
  161.0560  205.4730  149.4530 C   0  0  0  0  0  2  0  0  0  0  0  0
  160.9310  202.4580  145.9610 C   0  0  0  0  0  3  0  0  0  0  0  0
  161.2000  201.8150  150.4000 C   0  0  0  0  0  0  0  0  0  0  0  0
  161.1420  200.7310  149.6540 O   0  0  0  0  0  0  0  0  0  0  0  0
  161.7350  206.7890  151.6840 C   0  0  2  0  0  3  0  0  0  0  0  0
  161.0130  203.2240  147.1370 C   0  0  0  0  0  3  0  0  0  0  0  0
  160.5240  207.3920  150.9880 C   0  0  0  0  0  2  0  0  0  0  0  0
  161.2880  204.2340  151.6620 C   0  0  0  0  0  0  0  0  0  0  0  0
  162.4030  207.7180  149.3600 C   0  0  0  0  0  2  0  0  0  0  0  0
  162.7340  207.1480  147.9910 C   0  0  0  0  0  2  0  0  0  0  0  0
  161.4960  206.2990  145.9550 C   0  0  0  0  0  0  0  0  0  0  0  0
  162.5500  205.8100  145.4690 O   0  0  0  0  0  0  0  0  0  0  0  0
  160.2160  206.1740  145.2100 C   0  0  0  0  0  1  0  0  0  0  0  0
  161.5150  206.9690  147.2170 N   0  0  0  0  0  2  0  0  0  0  0  0
  1  2  2  0  0  0  0
  1 14  1  0  0  0  0
  2 19  1  0  0  0  0
  3  7  1  0  0  0  0
  4  8  1  0  0  0  0
  4  1  1  0  0  0  0
  5 20  1  6  0  0  0
  5 18  1  0  0  0  0
  5 16  1  0  0  0  0
  6  9  1  0  0  0  0
  8 15  1  0  0  0  0
  9  8  2  0  0  0  0
 10 11  2  0  0  0  0
 12  5  1  0  0  0  0
 12  2  1  0  0  0  0
 13  6  2  0  0  0  0
 13 17  1  0  0  0  0
 14  3  2  0  0  0  0
 15 14  1  0  0  0  0
 16 18  1  1  0  0  0
 16 10  1  0  0  0  0
 17  4  2  0  0  0  0
 19  7  2  0  0  0  0
 19 10  1  0  0  0  0
 21 20  1  0  0  0  0
 22 25  1  0  0  0  0
 23 22  2  0  0  0  0
 24 22  1  0  0  0  0
 25 21  1  0  0  0  0
M  END
>  <MODEL>
9

>  <REMARK>
 VINA RESULT:      -8.5      2.687      3.476
  Name = 
  3 active torsions:
  status: ('A' for Active; 'I' for Inactive)
    1  A    between atoms: C_6  and  C_15
    2  A    between atoms: C_15  and  C_25
    3  A    between atoms: N_21  and  C_25
                            x       y       z     vdW  Elec       q    Type
                         _______ _______ _______ _____ _____    ______ ____

>  <TORSDO>
F 3

$$$$
