=
 OpenBabel11062408123D

 34 37  0  0  1  0  0  0  0  0999 V2000
  160.9510  207.1490  149.6490 C   0  0  0  0  0  2  0  0  0  0  0  0
  161.9560  206.3710  153.3180 C   0  0  0  0  0  1  0  0  0  0  0  0
  160.0460  213.0950  155.9300 N   0  0  0  0  0  2  0  0  0  0  0  0
  162.0410  208.5320  152.0260 C   0  0  1  0  0  3  0  0  0  0  0  0
  160.0160  210.1180  152.3220 C   0  0  1  0  0  3  0  0  0  0  0  0
  161.6160  209.6590  154.2100 C   0  0  0  0  0  3  0  0  0  0  0  0
  157.8320  212.5150  155.4250 N   0  0  0  0  0  2  0  0  0  0  0  0
  162.0550  206.9910  151.9290 C   0  0  2  0  0  0  0  0  0  0  0  0
  161.0400  210.6240  154.9270 C   0  0  0  0  0  3  0  0  0  0  0  0
  159.0620  210.7040  153.3600 C   0  0  0  0  0  2  0  0  0  0  0  0
  162.0440  209.1960  150.6310 C   0  0  2  0  0  3  0  0  0  0  0  0
  160.8850  206.5120  151.0380 C   0  0  2  0  0  3  0  0  0  0  0  0
  163.2720  206.5930  151.3650 O   0  0  0  0  0  1  0  0  0  0  0  0
  160.7600  211.2300  151.5710 C   0  0  0  0  0  2  0  0  0  0  0  0
  161.9860  210.7210  150.7950 C   0  0  2  0  0  3  0  0  0  0  0  0
  159.7830  211.2040  154.5380 N   0  0  0  0  0  0  0  0  0  0  0  0
  160.9610  209.0960  152.9820 C   0  0  2  0  0  3  0  0  0  0  0  0
  160.8970  208.6670  149.7580 C   0  0  0  0  0  2  0  0  0  0  0  0
  159.2430  212.2890  155.3140 C   0  0  0  0  0  0  0  0  0  0  0  0
  161.4890  212.5680  149.0950 C   0  0  0  0  0  0  0  0  0  0  0  0
  161.9620  212.9260  147.9300 O   0  0  0  0  0  0  0  0  0  0  0  0
  162.1760  211.4530  149.5040 C   0  0  0  0  0  0  0  0  0  0  0  0
  162.9220  212.0800  147.6150 C   0  0  0  0  0  3  0  0  0  0  0  0
  163.0960  211.1410  148.5720 N   0  0  0  0  0  0  0  0  0  0  0  0
  160.3780  213.2580  149.8110 C   0  0  0  0  0  2  0  0  0  0  0  0
  159.2970  213.6500  148.8250 C   0  0  0  0  0  1  0  0  0  0  0  0
  160.8140  205.0200  150.9100 C   0  0  0  0  0  0  0  0  0  0  0  0
  160.4980  204.2290  152.0080 O   0  0  0  0  0  1  0  0  0  0  0  0
  161.0340  204.4810  149.7950 O   0  0  0  0  0  0  0  0  0  0  0  0
  156.8050  211.5460  155.0610 C   0  0  0  0  0  3  0  0  0  0  0  0
  156.1420  210.9580  156.3100 C   0  0  0  0  0  2  0  0  0  0  0  0
  155.4000  212.0110  157.1180 C   0  0  0  0  0  1  0  0  0  0  0  0
  155.7890  212.1950  154.1330 C   0  0  0  0  0  2  0  0  0  0  0  0
  156.2460  213.5890  153.7440 C   0  0  0  0  0  1  0  0  0  0  0  0
  1 18  1  0  0  0  0
  1 12  1  0  0  0  0
  4 17  1  0  0  0  0
  5 17  1  0  0  0  0
  5 10  1  0  0  0  0
  6  9  2  0  0  0  0
  8  4  1  0  0  0  0
  8  2  1  0  0  0  0
 10 16  1  0  0  0  0
 11 15  1  0  0  0  0
 11  4  1  0  0  0  0
 12  8  1  0  0  0  0
 13  8  1  0  0  0  0
 14  5  1  0  0  0  0
 15 14  1  0  0  0  0
 16  9  1  0  0  0  0
 16 19  1  0  0  0  0
 17  6  1  0  0  0  0
 18 11  1  0  0  0  0
 19  7  1  0  0  0  0
 19  3  2  0  0  0  0
 20 22  2  0  0  0  0
 20 25  1  0  0  0  0
 21 20  1  0  0  0  0
 22 15  1  0  0  0  0
 23 21  1  0  0  0  0
 23 24  2  0  0  0  0
 24 22  1  0  0  0  0
 26 25  1  0  0  0  0
 27 12  1  0  0  0  0
 27 28  1  0  0  0  0
 29 27  2  0  0  0  0
 30  7  1  0  0  0  0
 30 31  1  0  0  0  0
 31 32  1  0  0  0  0
 33 30  1  0  0  0  0
 34 33  1  0  0  0  0
M  END
>  <MODEL>
1

>  <REMARK>
 VINA RESULT:      -4.5      0.000      0.000
  Name = 
  6 active torsions:
  status: ('A' for Active; 'I' for Inactive)
    1  A    between atoms: C_6  and  C_24
    2  A    between atoms: C_7  and  C_23
    3  A    between atoms: C_11  and  C_20
    4  A    between atoms: C_12  and  C_28
    5  A    between atoms: N_13  and  C_20
    6  A    between atoms: C_14  and  C_20
                            x       y       z     vdW  Elec       q    Type
                         _______ _______ _______ _____ _____    ______ ____

>  <TORSDO>
F 6

$$$$
=
 OpenBabel11062408123D

 34 37  0  0  1  0  0  0  0  0999 V2000
  156.8010  210.5920  155.6600 C   0  0  0  0  0  2  0  0  0  0  0  0
  157.1430  214.4510  155.3960 C   0  0  0  0  0  1  0  0  0  0  0  0
  161.0370  214.2990  149.0330 N   0  0  0  0  0  2  0  0  0  0  0  0
  158.7160  212.6190  154.6740 C   0  0  1  0  0  3  0  0  0  0  0  0
  158.5630  211.8980  152.1930 C   0  0  1  0  0  3  0  0  0  0  0  0
  159.4180  214.1710  152.8520 C   0  0  0  0  0  3  0  0  0  0  0  0
  159.0960  213.4630  148.0210 N   0  0  0  0  0  2  0  0  0  0  0  0
  157.5750  213.0080  155.6390 C   0  0  2  0  0  0  0  0  0  0  0  0
  159.7990  214.3880  151.5940 C   0  0  0  0  0  3  0  0  0  0  0  0
  158.4330  212.4320  150.7690 C   0  0  0  0  0  2  0  0  0  0  0  0
  159.1160  211.1340  154.8260 C   0  0  2  0  0  3  0  0  0  0  0  0
  156.3790  212.0470  155.4510 C   0  0  2  0  0  3  0  0  0  0  0  0
  158.0530  212.9170  156.9510 O   0  0  0  0  0  1  0  0  0  0  0  0
  159.8330  211.0510  152.3470 C   0  0  0  0  0  2  0  0  0  0  0  0
  160.2210  210.8010  153.8140 C   0  0  2  0  0  3  0  0  0  0  0  0
  159.3640  213.5390  150.5170 N   0  0  0  0  0  0  0  0  0  0  0  0
  158.4800  213.0540  153.2070 C   0  0  2  0  0  3  0  0  0  0  0  0
  157.8990  210.2100  154.6760 C   0  0  0  0  0  2  0  0  0  0  0  0
  159.8630  213.7820  149.1890 C   0  0  0  0  0  0  0  0  0  0  0  0
  161.3660  208.9590  155.1710 C   0  0  0  0  0  0  0  0  0  0  0  0
  161.7270  207.7200  154.9580 O   0  0  0  0  0  0  0  0  0  0  0  0
  160.8020  209.4370  154.0150 C   0  0  0  0  0  0  0  0  0  0  0  0
  161.3930  207.4160  153.7210 C   0  0  0  0  0  3  0  0  0  0  0  0
  160.8060  208.4590  153.0900 N   0  0  0  0  0  0  0  0  0  0  0  0
  161.5740  209.6990  156.4480 C   0  0  0  0  0  2  0  0  0  0  0  0
  162.8010  210.5790  156.3380 C   0  0  0  0  0  1  0  0  0  0  0  0
  155.2160  212.3710  156.3400 C   0  0  0  0  0  0  0  0  0  0  0  0
  154.6850  213.6550  156.3710 O   0  0  0  0  0  0  0  0  0  0  0  0
  154.7100  211.4690  157.0560 O   0  0  0  0  0  1  0  0  0  0  0  0
  157.6680  213.1710  148.0190 C   0  0  0  0  0  3  0  0  0  0  0  0
  156.8510  214.4440  148.2620 C   0  0  0  0  0  2  0  0  0  0  0  0
  155.9360  214.3200  149.4710 C   0  0  0  0  0  1  0  0  0  0  0  0
  157.2820  212.4920  146.7130 C   0  0  0  0  0  2  0  0  0  0  0  0
  156.5530  213.4660  145.8060 C   0  0  0  0  0  1  0  0  0  0  0  0
  2  8  1  0  0  0  0
  3 19  2  0  0  0  0
  4 11  1  0  0  0  0
  4  8  1  0  0  0  0
  5 14  1  0  0  0  0
  5 17  1  0  0  0  0
  6 17  1  0  0  0  0
  7 19  1  0  0  0  0
  8 13  1  0  0  0  0
  9  6  2  0  0  0  0
 10  5  1  0  0  0  0
 12  8  1  0  0  0  0
 12  1  1  0  0  0  0
 12 27  1  0  0  0  0
 14 15  1  0  0  0  0
 15 22  1  0  0  0  0
 15 11  1  0  0  0  0
 16 10  1  0  0  0  0
 16  9  1  0  0  0  0
 17  4  1  0  0  0  0
 18 11  1  0  0  0  0
 18  1  1  0  0  0  0
 19 16  1  0  0  0  0
 20 25  1  0  0  0  0
 21 20  1  0  0  0  0
 22 20  2  0  0  0  0
 23 21  1  0  0  0  0
 24 23  2  0  0  0  0
 24 22  1  0  0  0  0
 26 25  1  0  0  0  0
 27 28  2  0  0  0  0
 27 29  1  0  0  0  0
 30  7  1  0  0  0  0
 30 31  1  0  0  0  0
 31 32  1  0  0  0  0
 33 30  1  0  0  0  0
 34 33  1  0  0  0  0
M  END
>  <MODEL>
2

>  <REMARK>
 VINA RESULT:      -3.8      3.933      7.412
  Name = 
  6 active torsions:
  status: ('A' for Active; 'I' for Inactive)
    1  A    between atoms: C_6  and  C_24
    2  A    between atoms: C_7  and  C_23
    3  A    between atoms: C_11  and  C_20
    4  A    between atoms: C_12  and  C_28
    5  A    between atoms: N_13  and  C_20
    6  A    between atoms: C_14  and  C_20
                            x       y       z     vdW  Elec       q    Type
                         _______ _______ _______ _____ _____    ______ ____

>  <TORSDO>
F 6

$$$$
=
 OpenBabel11062408123D

 34 37  0  0  1  0  0  0  0  0999 V2000
  158.2600  211.9160  153.9270 C   0  0  0  0  0  2  0  0  0  0  0  0
  159.4810  213.3300  150.5230 C   0  0  0  0  0  1  0  0  0  0  0  0
  163.9110  207.5260  148.9880 N   0  0  0  0  0  2  0  0  0  0  0  0
  160.6740  211.8980  152.2190 C   0  0  1  0  0  3  0  0  0  0  0  0
  160.6350  209.3460  151.7860 C   0  0  1  0  0  3  0  0  0  0  0  0
  161.8990  210.9180  150.2790 C   0  0  0  0  0  3  0  0  0  0  0  0
  161.9540  206.2470  148.8210 N   0  0  0  0  0  2  0  0  0  0  0  0
  159.5500  212.9340  151.9940 C   0  0  2  0  0  0  0  0  0  0  0  0
  162.4520  209.8750  149.6630 C   0  0  0  0  0  3  0  0  0  0  0  0
  160.7830  208.2870  150.6960 C   0  0  0  0  0  2  0  0  0  0  0  0
  160.7140  211.4020  153.6810 C   0  0  2  0  0  3  0  0  0  0  0  0
  158.1980  212.3490  152.4620 C   0  0  2  0  0  3  0  0  0  0  0  0
  159.8500  214.0820  152.7350 O   0  0  0  0  0  1  0  0  0  0  0  0
  161.6600  209.1270  152.9070 C   0  0  0  0  0  2  0  0  0  0  0  0
  161.8200  210.3470  153.8290 C   0  0  2  0  0  3  0  0  0  0  0  0
  161.9590  208.5370  149.8540 N   0  0  0  0  0  0  0  0  0  0  0  0
  160.7020  210.7580  151.1720 C   0  0  2  0  0  3  0  0  0  0  0  0
  159.3460  210.8670  154.1270 C   0  0  0  0  0  2  0  0  0  0  0  0
  162.6410  207.4420  149.2140 C   0  0  0  0  0  0  0  0  0  0  0  0
  161.6240  208.7920  155.8520 C   0  0  0  0  0  0  0  0  0  0  0  0
  162.0570  208.7960  157.0860 O   0  0  0  0  0  0  0  0  0  0  0  0
  162.0570  209.9470  155.2510 C   0  0  0  0  0  0  0  0  0  0  0  0
  162.7500  209.9030  157.2600 C   0  0  0  0  0  3  0  0  0  0  0  0
  162.7820  210.6560  156.1370 N   0  0  0  0  0  0  0  0  0  0  0  0
  160.7850  207.7190  155.2460 C   0  0  0  0  0  2  0  0  0  0  0  0
  159.7170  207.2860  156.2290 C   0  0  0  0  0  1  0  0  0  0  0  0
  157.0470  213.2870  152.2570 C   0  0  0  0  0  0  0  0  0  0  0  0
  156.6230  213.6190  150.9750 O   0  0  0  0  0  0  0  0  0  0  0  0
  156.4530  213.7700  153.2550 O   0  0  0  0  0  1  0  0  0  0  0  0
  160.5060  206.1160  148.7200 C   0  0  0  0  0  3  0  0  0  0  0  0
  160.0690  205.9940  147.2570 C   0  0  0  0  0  2  0  0  0  0  0  0
  161.2230  205.6210  146.3400 C   0  0  0  0  0  1  0  0  0  0  0  0
  160.0370  204.9310  149.5520 C   0  0  0  0  0  2  0  0  0  0  0  0
  161.1500  203.9080  149.6880 C   0  0  0  0  0  1  0  0  0  0  0  0
  1 18  1  0  0  0  0
  2  8  1  0  0  0  0
  3 19  2  0  0  0  0
  4 11  1  0  0  0  0
  5 14  1  0  0  0  0
  6 17  1  0  0  0  0
  7 19  1  0  0  0  0
  8  4  1  0  0  0  0
  8 12  1  0  0  0  0
  8 13  1  0  0  0  0
  9 16  1  0  0  0  0
  9  6  2  0  0  0  0
 10  5  1  0  0  0  0
 11 15  1  0  0  0  0
 11 18  1  0  0  0  0
 12  1  1  0  0  0  0
 14 15  1  0  0  0  0
 15 22  1  0  0  0  0
 16 10  1  0  0  0  0
 17  5  1  0  0  0  0
 17  4  1  0  0  0  0
 19 16  1  0  0  0  0
 20 21  1  0  0  0  0
 21 23  1  0  0  0  0
 22 20  2  0  0  0  0
 22 24  1  0  0  0  0
 24 23  2  0  0  0  0
 25 20  1  0  0  0  0
 25 26  1  0  0  0  0
 27 12  1  0  0  0  0
 27 29  1  0  0  0  0
 28 27  2  0  0  0  0
 30  7  1  0  0  0  0
 30 33  1  0  0  0  0
 31 30  1  0  0  0  0
 32 31  1  0  0  0  0
 33 34  1  0  0  0  0
M  END
>  <MODEL>
3

>  <REMARK>
 VINA RESULT:      -2.7      3.191      7.944
  Name = 
  6 active torsions:
  status: ('A' for Active; 'I' for Inactive)
    1  A    between atoms: C_6  and  C_24
    2  A    between atoms: C_7  and  C_23
    3  A    between atoms: C_11  and  C_20
    4  A    between atoms: C_12  and  C_28
    5  A    between atoms: N_13  and  C_20
    6  A    between atoms: C_14  and  C_20
                            x       y       z     vdW  Elec       q    Type
                         _______ _______ _______ _____ _____    ______ ____

>  <TORSDO>
F 6

$$$$
=
 OpenBabel11062408123D

 34 37  0  0  1  0  0  0  0  0999 V2000
  157.9220  212.9050  151.8310 C   0  0  0  0  0  2  0  0  0  0  0  0
  160.6740  212.7950  149.0940 C   0  0  0  0  0  1  0  0  0  0  0  0
  163.8300  206.5280  151.6300 N   0  0  0  0  0  2  0  0  0  0  0  0
  160.7320  212.0430  151.4980 C   0  0  1  0  0  3  0  0  0  0  0  0
  160.2580  209.5330  151.9190 C   0  0  1  0  0  3  0  0  0  0  0  0
  162.3450  210.2990  150.7370 C   0  0  0  0  0  3  0  0  0  0  0  0
  161.8510  205.4370  151.0090 N   0  0  0  0  0  2  0  0  0  0  0  0
  160.0670  212.9940  150.4790 C   0  0  2  0  0  0  0  0  0  0  0  0
  162.8290  209.0590  150.7990 C   0  0  0  0  0  3  0  0  0  0  0  0
  160.5630  208.1270  151.4080 C   0  0  0  0  0  2  0  0  0  0  0  0
  160.0780  212.1490  152.8940 C   0  0  2  0  0  3  0  0  0  0  0  0
  158.5430  212.7410  150.4430 C   0  0  2  0  0  3  0  0  0  0  0  0
  160.3180  214.3130  150.8730 O   0  0  0  0  0  1  0  0  0  0  0  0
  160.6800  209.6860  153.3870 C   0  0  0  0  0  2  0  0  0  0  0  0
  160.7520  211.1510  153.8470 C   0  0  2  0  0  3  0  0  0  0  0  0
  161.9980  207.9410  151.1560 N   0  0  0  0  0  0  0  0  0  0  0  0
  160.8940  210.5880  150.9940 C   0  0  2  0  0  3  0  0  0  0  0  0
  158.5600  211.9340  152.8170 C   0  0  0  0  0  2  0  0  0  0  0  0
  162.5930  206.6360  151.2730 C   0  0  0  0  0  0  0  0  0  0  0  0
  159.8530  210.3220  156.0940 C   0  0  0  0  0  0  0  0  0  0  0  0
  159.6010  210.8560  157.2610 O   0  0  0  0  0  0  0  0  0  0  0  0
  160.3120  211.3160  155.2670 C   0  0  0  0  0  0  0  0  0  0  0  0
  159.9000  212.1360  157.1840 C   0  0  0  0  0  3  0  0  0  0  0  0
  160.3550  212.4720  155.9550 N   0  0  0  0  0  0  0  0  0  0  0  0
  159.6400  208.8870  155.7500 C   0  0  0  0  0  2  0  0  0  0  0  0
  160.3750  208.0060  156.7380 C   0  0  0  0  0  1  0  0  0  0  0  0
  157.8230  213.6120  149.4580 C   0  0  0  0  0  0  0  0  0  0  0  0
  158.0660  213.4910  148.0950 O   0  0  0  0  0  0  0  0  0  0  0  0
  156.9830  214.4530  149.8700 O   0  0  0  0  0  1  0  0  0  0  0  0
  160.5710  205.3890  150.3130 C   0  0  0  0  0  3  0  0  0  0  0  0
  160.7490  205.6930  148.8220 C   0  0  0  0  0  2  0  0  0  0  0  0
  161.2330  204.4820  148.0410 C   0  0  0  0  0  1  0  0  0  0  0  0
  159.9110  204.0380  150.5400 C   0  0  0  0  0  2  0  0  0  0  0  0
  160.7870  203.1640  151.4200 C   0  0  0  0  0  1  0  0  0  0  0  0
  1 18  1  0  0  0  0
  2  8  1  0  0  0  0
  4 11  1  0  0  0  0
  5 14  1  0  0  0  0
  6  9  2  0  0  0  0
  6 17  1  0  0  0  0
  7 19  1  0  0  0  0
  8 13  1  0  0  0  0
  8  4  1  0  0  0  0
  9 16  1  0  0  0  0
 10  5  1  0  0  0  0
 11 15  1  0  0  0  0
 12  8  1  0  0  0  0
 12  1  1  0  0  0  0
 14 15  1  0  0  0  0
 15 22  1  0  0  0  0
 16 19  1  0  0  0  0
 16 10  1  0  0  0  0
 17  4  1  0  0  0  0
 17  5  1  0  0  0  0
 18 11  1  0  0  0  0
 19  3  2  0  0  0  0
 20 21  1  0  0  0  0
 22 24  1  0  0  0  0
 22 20  2  0  0  0  0
 23 21  1  0  0  0  0
 24 23  2  0  0  0  0
 25 20  1  0  0  0  0
 25 26  1  0  0  0  0
 27 29  1  0  0  0  0
 27 12  1  0  0  0  0
 28 27  2  0  0  0  0
 30 33  1  0  0  0  0
 30  7  1  0  0  0  0
 31 30  1  0  0  0  0
 32 31  1  0  0  0  0
 33 34  1  0  0  0  0
M  END
>  <MODEL>
4

>  <REMARK>
 VINA RESULT:      -2.6      3.316      7.742
  Name = 
  6 active torsions:
  status: ('A' for Active; 'I' for Inactive)
    1  A    between atoms: C_6  and  C_24
    2  A    between atoms: C_7  and  C_23
    3  A    between atoms: C_11  and  C_20
    4  A    between atoms: C_12  and  C_28
    5  A    between atoms: N_13  and  C_20
    6  A    between atoms: C_14  and  C_20
                            x       y       z     vdW  Elec       q    Type
                         _______ _______ _______ _____ _____    ______ ____

>  <TORSDO>
F 6

$$$$
=
 OpenBabel11062408123D

 34 37  0  0  1  0  0  0  0  0999 V2000
  160.7010  206.4410  150.5270 C   0  0  0  0  0  2  0  0  0  0  0  0
  161.9430  206.0460  154.1850 C   0  0  0  0  0  1  0  0  0  0  0  0
  160.2390  213.0320  156.1790 N   0  0  0  0  0  2  0  0  0  0  0  0
  161.9520  208.0570  152.6660 C   0  0  1  0  0  3  0  0  0  0  0  0
  159.9590  209.6880  152.9210 C   0  0  1  0  0  3  0  0  0  0  0  0
  161.6780  209.4150  154.7400 C   0  0  0  0  0  3  0  0  0  0  0  0
  157.9940  212.4270  155.8840 N   0  0  0  0  0  2  0  0  0  0  0  0
  161.9520  206.5140  152.7330 C   0  0  2  0  0  0  0  0  0  0  0  0
  161.1550  210.4570  155.3850 C   0  0  0  0  0  3  0  0  0  0  0  0
  159.0780  210.3930  153.9500 C   0  0  0  0  0  2  0  0  0  0  0  0
  161.8670  208.5680  151.2100 C   0  0  2  0  0  3  0  0  0  0  0  0
  160.7250  205.9560  151.9770 C   0  0  2  0  0  3  0  0  0  0  0  0
  163.1280  206.0440  152.1380 O   0  0  0  0  0  1  0  0  0  0  0  0
  160.6570  210.7050  152.0080 C   0  0  0  0  0  2  0  0  0  0  0  0
  161.8270  210.1030  151.2130 C   0  0  2  0  0  3  0  0  0  0  0  0
  159.8770  211.0070  155.0180 N   0  0  0  0  0  0  0  0  0  0  0  0
  160.9400  208.7310  153.6240 C   0  0  2  0  0  3  0  0  0  0  0  0
  160.6620  207.9620  150.4750 C   0  0  0  0  0  2  0  0  0  0  0  0
  159.3950  212.1750  155.7070 C   0  0  0  0  0  0  0  0  0  0  0  0
  162.3310  210.0310  148.7060 C   0  0  0  0  0  0  0  0  0  0  0  0
  162.2630  210.8740  147.7080 O   0  0  0  0  0  0  0  0  0  0  0  0
  161.9340  210.6900  149.8410 C   0  0  0  0  0  0  0  0  0  0  0  0
  161.8270  212.0210  148.1870 C   0  0  0  0  0  3  0  0  0  0  0  0
  161.6020  211.9550  149.5200 N   0  0  0  0  0  0  0  0  0  0  0  0
  162.7910  208.6170  148.5960 C   0  0  0  0  0  2  0  0  0  0  0  0
  161.9740  207.8900  147.5480 C   0  0  0  0  0  1  0  0  0  0  0  0
  160.6390  204.4600  152.0140 C   0  0  0  0  0  0  0  0  0  0  0  0
  160.7700  203.7130  150.8500 O   0  0  0  0  0  0  0  0  0  0  0  0
  160.4550  203.8750  153.1130 O   0  0  0  0  0  1  0  0  0  0  0  0
  156.9420  211.4370  155.6940 C   0  0  0  0  0  3  0  0  0  0  0  0
  156.2440  211.1200  157.0210 C   0  0  0  0  0  2  0  0  0  0  0  0
  154.7940  210.7030  156.8240 C   0  0  0  0  0  1  0  0  0  0  0  0
  155.9590  211.9260  154.6400 C   0  0  0  0  0  2  0  0  0  0  0  0
  156.5260  213.1280  153.9070 C   0  0  0  0  0  1  0  0  0  0  0  0
  1 12  1  0  0  0  0
  4  8  1  0  0  0  0
  4 17  1  0  0  0  0
  5 17  1  0  0  0  0
  5 10  1  0  0  0  0
  6  9  2  0  0  0  0
  8  2  1  0  0  0  0
 10 16  1  0  0  0  0
 11 15  1  0  0  0  0
 11  4  1  0  0  0  0
 12 27  1  0  0  0  0
 12  8  1  0  0  0  0
 13  8  1  0  0  0  0
 14  5  1  0  0  0  0
 15 14  1  0  0  0  0
 16  9  1  0  0  0  0
 16 19  1  0  0  0  0
 17  6  1  0  0  0  0
 18  1  1  0  0  0  0
 18 11  1  0  0  0  0
 19  7  1  0  0  0  0
 19  3  2  0  0  0  0
 20 22  2  0  0  0  0
 21 23  1  0  0  0  0
 21 20  1  0  0  0  0
 22 15  1  0  0  0  0
 23 24  2  0  0  0  0
 24 22  1  0  0  0  0
 25 20  1  0  0  0  0
 26 25  1  0  0  0  0
 27 29  1  0  0  0  0
 28 27  2  0  0  0  0
 30  7  1  0  0  0  0
 30 31  1  0  0  0  0
 32 31  1  0  0  0  0
 33 30  1  0  0  0  0
 34 33  1  0  0  0  0
M  END
>  <MODEL>
5

>  <REMARK>
 VINA RESULT:      -2.0      1.157      1.871
  Name = 
  6 active torsions:
  status: ('A' for Active; 'I' for Inactive)
    1  A    between atoms: C_6  and  C_24
    2  A    between atoms: C_7  and  C_23
    3  A    between atoms: C_11  and  C_20
    4  A    between atoms: C_12  and  C_28
    5  A    between atoms: N_13  and  C_20
    6  A    between atoms: C_14  and  C_20
                            x       y       z     vdW  Elec       q    Type
                         _______ _______ _______ _____ _____    ______ ____

>  <TORSDO>
F 6

$$$$
