=
 OpenBabel11052422503D

 28 31  0  0  1  0  0  0  0  0999 V2000
  157.8470  213.3540  148.9960 C   0  0  0  0  0  1  0  0  0  0  0  0
  161.0250  213.2420  146.9530 C   0  0  1  0  0  3  0  0  0  0  0  0
  160.5180  213.1530  149.6620 C   0  0  2  0  0  0  0  0  0  0  0  0
  161.2910  211.8640  147.5680 C   0  0  0  0  0  2  0  0  0  0  0  0
  159.9810  213.1550  150.9400 C   0  0  0  0  0  0  0  0  0  0  0  0
  161.1610  214.4530  149.1740 C   0  0  0  0  0  2  0  0  0  0  0  0
  159.1270  213.2480  149.6700 N   0  0  0  0  0  0  0  0  0  0  0  0
  161.7310  214.3350  147.7560 C   0  0  0  0  0  2  0  0  0  0  0  0
  160.0910  213.1140  152.1930 O   0  0  0  0  0  0  0  0  0  0  0  0
  160.9850  211.8090  149.0780 C   0  0  1  0  0  3  0  0  0  0  0  0
  162.5930  214.0520  145.1970 C   0  0  0  0  0  2  0  0  0  0  0  0
  161.2660  212.2640  143.1950 C   0  0  0  0  0  2  0  0  0  0  0  0
  162.5500  213.0520  142.8970 C   0  0  2  0  0  3  0  0  0  0  0  0
  161.4030  213.2840  145.5420 N   0  0  0  0  0  0  0  0  0  0  0  0
  159.4480  212.2750  144.7270 O   0  0  0  0  0  0  0  0  0  0  0  0
  160.6370  212.6270  144.5110 C   0  0  0  0  0  0  0  0  0  0  0  0
  163.4100  213.3340  144.1330 C   0  0  0  0  0  2  0  0  0  0  0  0
  163.3260  214.2040  141.1890 O   0  0  0  0  0  1  0  0  0  0  0  0
  162.3510  214.1840  142.0800 O   0  0  0  0  0  0  0  0  0  0  0  0
  162.1210  211.1550  149.8760 C   0  0  0  0  0  2  0  0  0  0  0  0
  161.7890  209.7850  150.3910 C   0  0  0  0  0  0  0  0  0  0  0  0
  161.3010  209.6420  151.6950 C   0  0  0  0  0  3  0  0  0  0  0  0
  161.6520  207.3790  150.0930 C   0  0  0  0  0  0  0  0  0  0  0  0
  160.9830  208.3760  152.1930 C   0  0  0  0  0  3  0  0  0  0  0  0
  162.4830  208.7580  148.3380 F   0  0  0  0  0  0  0  0  0  0  0  0
  161.9770  208.6450  149.5910 C   0  0  0  0  0  0  0  0  0  0  0  0
  161.8250  206.2760  149.3240 F   0  0  0  0  0  0  0  0  0  0  0  0
  161.1560  207.2460  151.3920 C   0  0  0  0  0  3  0  0  0  0  0  0
  1  7  1  0  0  0  0
  2 14  1  6  0  0  0
  2  4  1  0  0  0  0
  2  8  1  0  0  0  0
  3  6  1  6  0  0  0
  3  7  1  0  0  0  0
  3  5  1  0  0  0  0
  4 10  1  0  0  0  0
  5  9  2  0  0  0  0
  7  5  1  0  0  0  0
  8  6  1  0  0  0  0
 10  3  1  0  0  0  0
 10 20  1  1  0  0  0
 11 14  1  0  0  0  0
 12 16  1  0  0  0  0
 13 19  1  1  0  0  0
 13 12  1  0  0  0  0
 13 17  1  0  0  0  0
 16 15  2  0  0  0  0
 16 14  1  0  0  0  0
 17 11  1  0  0  0  0
 18 19  1  0  0  0  0
 20 21  1  0  0  0  0
 21 22  1  0  0  0  0
 22 24  2  0  0  0  0
 23 28  2  0  0  0  0
 25 26  1  0  0  0  0
 26 23  1  0  0  0  0
 26 21  2  0  0  0  0
 27 23  1  0  0  0  0
 28 24  1  0  0  0  0
M  END
>  <MODEL>
1

>  <REMARK>
 VINA RESULT:      -6.0      0.000      0.000
  Name = 
  4 active torsions:
  status: ('A' for Active; 'I' for Inactive)
    1  A    between atoms: C_1  and  C_2
    2  A    between atoms: C_1  and  C_27
    3  A    between atoms: C_10  and  N_13
    4  A    between atoms: C_12  and  O_23
                            x       y       z     vdW  Elec       q    Type
                         _______ _______ _______ _____ _____    ______ ____

>  <TORSDO>
F 4

$$$$
=
 OpenBabel11052422503D

 28 31  0  0  1  0  0  0  0  0999 V2000
  158.5210  210.2180  155.3450 C   0  0  0  0  0  1  0  0  0  0  0  0
  161.0140  210.4970  152.5180 C   0  0  1  0  0  3  0  0  0  0  0  0
  160.8600  208.8810  154.7470 C   0  0  2  0  0  0  0  0  0  0  0  0
  160.6910  209.0380  152.1790 C   0  0  0  0  0  2  0  0  0  0  0  0
  160.5460  208.2360  155.9330 C   0  0  0  0  0  0  0  0  0  0  0  0
  161.9630  209.9400  154.8010 C   0  0  0  0  0  2  0  0  0  0  0  0
  159.6820  209.3470  155.3260 N   0  0  0  0  0  0  0  0  0  0  0  0
  162.2370  210.5790  153.4340 C   0  0  0  0  0  2  0  0  0  0  0  0
  160.7780  207.3890  156.8340 O   0  0  0  0  0  0  0  0  0  0  0  0
  160.5820  208.1400  153.4270 C   0  0  1  0  0  3  0  0  0  0  0  0
  162.1790  210.8380  150.3440 C   0  0  0  0  0  2  0  0  0  0  0  0
  160.2820  213.0590  149.6830 C   0  0  0  0  0  2  0  0  0  0  0  0
  161.3020  212.4980  148.6800 C   0  0  2  0  0  3  0  0  0  0  0  0
  161.1930  211.3030  151.3120 N   0  0  0  0  0  0  0  0  0  0  0  0
  159.8910  213.1190  152.0270 O   0  0  0  0  0  0  0  0  0  0  0  0
  160.4610  212.5240  151.0760 C   0  0  0  0  0  0  0  0  0  0  0  0
  161.6720  211.0320  148.9220 C   0  0  0  0  0  2  0  0  0  0  0  0
  163.2040  212.7310  147.5970 O   0  0  0  0  0  1  0  0  0  0  0  0
  162.4190  213.3330  148.4710 O   0  0  0  0  0  0  0  0  0  0  0  0
  161.3790  206.8370  153.2750 C   0  0  0  0  0  2  0  0  0  0  0  0
  161.2070  206.1740  151.9400 C   0  0  0  0  0  0  0  0  0  0  0  0
  161.2990  206.9440  150.7750 C   0  0  0  0  0  3  0  0  0  0  0  0
  160.7910  204.2020  150.5860 C   0  0  0  0  0  0  0  0  0  0  0  0
  161.1450  206.3460  149.5210 C   0  0  0  0  0  3  0  0  0  0  0  0
  160.8110  204.0420  152.9610 F   0  0  0  0  0  0  0  0  0  0  0  0
  160.9400  204.7980  151.8440 C   0  0  0  0  0  0  0  0  0  0  0  0
  160.5390  202.8740  150.4860 F   0  0  0  0  0  0  0  0  0  0  0  0
  160.8950  204.9760  149.4270 C   0  0  0  0  0  3  0  0  0  0  0  0
  2 14  1  6  0  0  0
  2  8  1  0  0  0  0
  3  6  1  1  0  0  0
  3  7  1  0  0  0  0
  3  5  1  0  0  0  0
  4  2  1  0  0  0  0
  4 10  1  0  0  0  0
  5  9  2  0  0  0  0
  7  1  1  0  0  0  0
  7  5  1  0  0  0  0
  8  6  1  0  0  0  0
 10 20  1  6  0  0  0
 10  3  1  0  0  0  0
 11 14  1  0  0  0  0
 12 16  1  0  0  0  0
 13 19  1  1  0  0  0
 13 17  1  0  0  0  0
 13 12  1  0  0  0  0
 16 14  1  0  0  0  0
 16 15  2  0  0  0  0
 17 11  1  0  0  0  0
 18 19  1  0  0  0  0
 21 20  1  0  0  0  0
 22 21  2  0  0  0  0
 23 26  2  0  0  0  0
 24 22  1  0  0  0  0
 26 21  1  0  0  0  0
 26 25  1  0  0  0  0
 27 23  1  0  0  0  0
 28 24  2  0  0  0  0
 28 23  1  0  0  0  0
M  END
>  <MODEL>
2

>  <REMARK>
 VINA RESULT:      -5.9      3.584      5.920
  Name = 
  4 active torsions:
  status: ('A' for Active; 'I' for Inactive)
    1  A    between atoms: C_1  and  C_2
    2  A    between atoms: C_1  and  C_27
    3  A    between atoms: C_10  and  N_13
    4  A    between atoms: C_12  and  O_23
                            x       y       z     vdW  Elec       q    Type
                         _______ _______ _______ _____ _____    ______ ____

>  <TORSDO>
F 4

$$$$
=
 OpenBabel11052422503D

 28 31  0  0  1  0  0  0  0  0999 V2000
  163.4720  210.6930  154.6270 C   0  0  0  0  0  1  0  0  0  0  0  0
  161.3610  208.4510  152.4350 C   0  0  1  0  0  3  0  0  0  0  0  0
  160.9520  209.6030  154.9070 C   0  0  2  0  0  0  0  0  0  0  0  0
  160.3170  209.5740  152.4080 C   0  0  0  0  0  2  0  0  0  0  0  0
  161.0270  210.2730  156.1180 C   0  0  0  0  0  0  0  0  0  0  0  0
  161.1610  208.0880  154.9350 C   0  0  0  0  0  2  0  0  0  0  0  0
  162.1550  210.2840  155.0790 N   0  0  0  0  0  0  0  0  0  0  0  0
  161.0430  207.4490  153.5450 C   0  0  0  0  0  2  0  0  0  0  0  0
  160.5510  210.6190  157.2300 O   0  0  0  0  0  0  0  0  0  0  0  0
  160.1070  210.2330  153.7860 C   0  0  1  0  0  3  0  0  0  0  0  0
  161.2680  206.3510  151.1020 C   0  0  0  0  0  2  0  0  0  0  0  0
  161.4500  207.9510  148.5780 C   0  0  0  0  0  2  0  0  0  0  0  0
  161.1800  206.4390  148.5960 C   0  0  2  0  0  3  0  0  0  0  0  0
  161.4760  207.7930  151.1360 N   0  0  0  0  0  0  0  0  0  0  0  0
  162.3310  209.6520  149.9870 O   0  0  0  0  0  0  0  0  0  0  0  0
  161.8080  208.5080  149.9270 C   0  0  0  0  0  0  0  0  0  0  0  0
  160.4770  205.9480  149.8650 C   0  0  0  0  0  2  0  0  0  0  0  0
  161.8310  204.6010  147.5770 O   0  0  0  0  0  1  0  0  0  0  0  0
  162.2910  205.6530  148.2280 O   0  0  0  0  0  0  0  0  0  0  0  0
  158.6200  210.3700  154.1410 C   0  0  0  0  0  2  0  0  0  0  0  0
  158.1350  211.7890  154.1820 C   0  0  0  0  0  0  0  0  0  0  0  0
  159.0070  212.8220  153.8210 C   0  0  0  0  0  3  0  0  0  0  0  0
  156.3960  213.4280  154.6140 C   0  0  0  0  0  0  0  0  0  0  0  0
  158.5750  214.1510  153.8490 C   0  0  0  0  0  3  0  0  0  0  0  0
  155.9780  211.1130  154.9800 F   0  0  0  0  0  0  0  0  0  0  0  0
  156.8270  212.0960  154.5920 C   0  0  0  0  0  0  0  0  0  0  0  0
  155.1330  213.7300  155.0030 F   0  0  0  0  0  0  0  0  0  0  0  0
  157.2690  214.4530  154.2430 C   0  0  0  0  0  3  0  0  0  0  0  0
  1  7  1  0  0  0  0
  2 14  1  6  0  0  0
  2  8  1  0  0  0  0
  3  6  1  1  0  0  0
  3  7  1  0  0  0  0
  3  5  1  0  0  0  0
  4  2  1  0  0  0  0
  4 10  1  0  0  0  0
  5  9  2  0  0  0  0
  7  5  1  0  0  0  0
  8  6  1  0  0  0  0
 10 20  1  1  0  0  0
 10  3  1  0  0  0  0
 11 14  1  0  0  0  0
 12 13  1  0  0  0  0
 12 16  1  0  0  0  0
 13 19  1  1  0  0  0
 13 17  1  0  0  0  0
 16 15  2  0  0  0  0
 16 14  1  0  0  0  0
 17 11  1  0  0  0  0
 18 19  1  0  0  0  0
 20 21  1  0  0  0  0
 21 26  1  0  0  0  0
 22 24  1  0  0  0  0
 22 21  2  0  0  0  0
 23 27  1  0  0  0  0
 24 28  2  0  0  0  0
 26 23  2  0  0  0  0
 26 25  1  0  0  0  0
 28 23  1  0  0  0  0
M  END
>  <MODEL>
3

>  <REMARK>
 VINA RESULT:      -5.4      5.884      7.967
  Name = 
  4 active torsions:
  status: ('A' for Active; 'I' for Inactive)
    1  A    between atoms: C_1  and  C_2
    2  A    between atoms: C_1  and  C_27
    3  A    between atoms: C_10  and  N_13
    4  A    between atoms: C_12  and  O_23
                            x       y       z     vdW  Elec       q    Type
                         _______ _______ _______ _____ _____    ______ ____

>  <TORSDO>
F 4

$$$$
=
 OpenBabel11052422503D

 28 31  0  0  1  0  0  0  0  0999 V2000
  155.9530  212.2250  154.6760 C   0  0  0  0  0  1  0  0  0  0  0  0
  158.1890  213.0760  151.7500 C   0  0  1  0  0  3  0  0  0  0  0  0
  158.6780  212.5710  154.4160 C   0  0  2  0  0  0  0  0  0  0  0  0
  158.8950  211.7360  151.9870 C   0  0  0  0  0  2  0  0  0  0  0  0
  158.6280  212.3070  155.7760 C   0  0  0  0  0  0  0  0  0  0  0  0
  158.8680  214.0300  153.9970 C   0  0  0  0  0  2  0  0  0  0  0  0
  157.3840  212.3420  154.8800 N   0  0  0  0  0  0  0  0  0  0  0  0
  158.9220  214.2060  152.4740 C   0  0  0  0  0  2  0  0  0  0  0  0
  159.1710  212.1540  156.9010 O   0  0  0  0  0  0  0  0  0  0  0  0
  159.1460  211.4450  153.4790 C   0  0  1  0  0  3  0  0  0  0  0  0
  156.6880  213.3270  149.7790 C   0  0  0  0  0  2  0  0  0  0  0  0
  158.9820  214.3880  148.1750 C   0  0  0  0  0  2  0  0  0  0  0  0
  157.5330  214.3810  147.6650 C   0  0  2  0  0  3  0  0  0  0  0  0
  158.0400  213.3600  150.3250 N   0  0  0  0  0  0  0  0  0  0  0  0
  160.3300  213.3260  149.8200 O   0  0  0  0  0  0  0  0  0  0  0  0
  159.1640  213.6380  149.4640 C   0  0  0  0  0  0  0  0  0  0  0  0
  156.4820  214.4530  148.7770 C   0  0  0  0  0  2  0  0  0  0  0  0
  158.3890  213.1650  146.0430 O   0  0  0  0  0  1  0  0  0  0  0  0
  157.2680  213.3830  146.7050 O   0  0  0  0  0  0  0  0  0  0  0  0
  160.5870  210.9850  153.7450 C   0  0  0  0  0  2  0  0  0  0  0  0
  160.7540  209.4940  153.7580 C   0  0  0  0  0  0  0  0  0  0  0  0
  161.1170  208.8340  152.5780 C   0  0  0  0  0  3  0  0  0  0  0  0
  160.7070  207.3610  154.9180 C   0  0  0  0  0  0  0  0  0  0  0  0
  161.2810  207.4460  152.5690 C   0  0  0  0  0  3  0  0  0  0  0  0
  160.1490  209.3660  156.0740 F   0  0  0  0  0  0  0  0  0  0  0  0
  160.5370  208.7510  154.9300 C   0  0  0  0  0  0  0  0  0  0  0  0
  160.5040  206.6390  156.0470 F   0  0  0  0  0  0  0  0  0  0  0  0
  161.0790  206.7110  153.7380 C   0  0  0  0  0  3  0  0  0  0  0  0
  1  7  1  0  0  0  0
  2 14  1  6  0  0  0
  2  4  1  0  0  0  0
  2  8  1  0  0  0  0
  3  6  1  6  0  0  0
  3  7  1  0  0  0  0
  3  5  1  0  0  0  0
  4 10  1  0  0  0  0
  5  9  2  0  0  0  0
  7  5  1  0  0  0  0
  8  6  1  0  0  0  0
 10 20  1  6  0  0  0
 10  3  1  0  0  0  0
 11 14  1  0  0  0  0
 12 16  1  0  0  0  0
 13 19  1  1  0  0  0
 13 12  1  0  0  0  0
 13 17  1  0  0  0  0
 16 15  2  0  0  0  0
 16 14  1  0  0  0  0
 17 11  1  0  0  0  0
 18 19  1  0  0  0  0
 20 21  1  0  0  0  0
 21 26  1  0  0  0  0
 22 21  2  0  0  0  0
 23 26  2  0  0  0  0
 23 27  1  0  0  0  0
 24 22  1  0  0  0  0
 24 28  2  0  0  0  0
 26 25  1  0  0  0  0
 28 23  1  0  0  0  0
M  END
>  <MODEL>
4

>  <REMARK>
 VINA RESULT:      -5.2      4.133      5.626
  Name = 
  4 active torsions:
  status: ('A' for Active; 'I' for Inactive)
    1  A    between atoms: C_1  and  C_2
    2  A    between atoms: C_1  and  C_27
    3  A    between atoms: C_10  and  N_13
    4  A    between atoms: C_12  and  O_23
                            x       y       z     vdW  Elec       q    Type
                         _______ _______ _______ _____ _____    ______ ____

>  <TORSDO>
F 4

$$$$
=
 OpenBabel11052422503D

 28 31  0  0  1  0  0  0  0  0999 V2000
  163.1780  210.7850  155.9670 C   0  0  0  0  0  1  0  0  0  0  0  0
  160.8790  208.8230  153.6980 C   0  0  1  0  0  3  0  0  0  0  0  0
  160.4530  210.8400  155.5300 C   0  0  2  0  0  0  0  0  0  0  0  0
  160.4970  210.1560  153.0440 C   0  0  0  0  0  2  0  0  0  0  0  0
  160.5300  211.8210  156.5060 C   0  0  0  0  0  0  0  0  0  0  0  0
  159.9410  209.4640  155.9620 C   0  0  0  0  0  2  0  0  0  0  0  0
  161.7530  211.0600  155.9810 N   0  0  0  0  0  0  0  0  0  0  0  0
  159.8860  208.4620  154.8030 C   0  0  0  0  0  2  0  0  0  0  0  0
  160.0090  212.6830  157.2600 O   0  0  0  0  0  0  0  0  0  0  0  0
  160.2830  211.2880  154.0680 C   0  0  1  0  0  3  0  0  0  0  0  0
  160.8130  208.1200  151.3100 C   0  0  0  0  0  2  0  0  0  0  0  0
  161.8350  205.4150  152.0850 C   0  0  0  0  0  2  0  0  0  0  0  0
  161.6770  205.8670  150.6250 C   0  0  2  0  0  3  0  0  0  0  0  0
  160.9940  207.7530  152.7100 N   0  0  0  0  0  0  0  0  0  0  0  0
  161.0510  205.9880  154.2540 O   0  0  0  0  0  0  0  0  0  0  0  0
  161.2460  206.3800  153.0740 C   0  0  0  0  0  0  0  0  0  0  0  0
  161.8050  207.3800  150.4250 C   0  0  0  0  0  2  0  0  0  0  0  0
  161.0210  204.6050  148.9460 O   0  0  0  0  0  1  0  0  0  0  0  0
  160.5640  205.3050  149.9670 O   0  0  0  0  0  0  0  0  0  0  0  0
  158.9830  212.0620  153.8120 C   0  0  0  0  0  2  0  0  0  0  0  0
  158.9230  212.7170  152.4620 C   0  0  0  0  0  0  0  0  0  0  0  0
  160.0750  212.7610  151.6700 C   0  0  0  0  0  3  0  0  0  0  0  0
  157.7020  213.8950  150.7260 C   0  0  0  0  0  0  0  0  0  0  0  0
  160.0400  213.3620  150.4090 C   0  0  0  0  0  3  0  0  0  0  0  0
  156.6160  213.2980  152.7590 F   0  0  0  0  0  0  0  0  0  0  0  0
  157.7330  213.2980  151.9920 C   0  0  0  0  0  0  0  0  0  0  0  0
  156.5560  214.4530  150.2630 F   0  0  0  0  0  0  0  0  0  0  0  0
  158.8540  213.9270  149.9360 C   0  0  0  0  0  3  0  0  0  0  0  0
  1  7  1  0  0  0  0
  2 14  1  6  0  0  0
  2  8  1  0  0  0  0
  3  6  1  1  0  0  0
  3  7  1  0  0  0  0
  3  5  1  0  0  0  0
  4  2  1  0  0  0  0
  4 10  1  0  0  0  0
  5  9  2  0  0  0  0
  7  5  1  0  0  0  0
  8  6  1  0  0  0  0
 10 20  1  1  0  0  0
 10  3  1  0  0  0  0
 11 14  1  0  0  0  0
 12 16  1  0  0  0  0
 13 19  1  1  0  0  0
 13 12  1  0  0  0  0
 14 16  1  0  0  0  0
 16 15  2  0  0  0  0
 17 13  1  0  0  0  0
 17 11  1  0  0  0  0
 18 19  1  0  0  0  0
 21 20  1  0  0  0  0
 22 21  2  0  0  0  0
 23 26  2  0  0  0  0
 24 22  1  0  0  0  0
 26 21  1  0  0  0  0
 26 25  1  0  0  0  0
 27 23  1  0  0  0  0
 28 24  2  0  0  0  0
 28 23  1  0  0  0  0
M  END
>  <MODEL>
5

>  <REMARK>
 VINA RESULT:      -5.0      5.949      8.351
  Name = 
  4 active torsions:
  status: ('A' for Active; 'I' for Inactive)
    1  A    between atoms: C_1  and  C_2
    2  A    between atoms: C_1  and  C_27
    3  A    between atoms: C_10  and  N_13
    4  A    between atoms: C_12  and  O_23
                            x       y       z     vdW  Elec       q    Type
                         _______ _______ _______ _____ _____    ______ ____

>  <TORSDO>
F 4

$$$$
=
 OpenBabel11052422503D

 28 31  0  0  1  0  0  0  0  0999 V2000
  159.2340  203.9650  151.1000 C   0  0  0  0  0  1  0  0  0  0  0  0
  161.2430  207.0380  151.9960 C   0  0  1  0  0  3  0  0  0  0  0  0
  161.5800  205.0410  150.1240 C   0  0  2  0  0  0  0  0  0  0  0  0
  161.0210  207.5200  150.5580 C   0  0  0  0  0  2  0  0  0  0  0  0
  161.5100  203.9190  149.3140 C   0  0  0  0  0  0  0  0  0  0  0  0
  162.5680  204.9960  151.2920 C   0  0  0  0  0  2  0  0  0  0  0  0
  160.4590  204.2530  150.3790 N   0  0  0  0  0  0  0  0  0  0  0  0
  162.5730  206.2910  152.1130 C   0  0  0  0  0  2  0  0  0  0  0  0
  161.9550  203.1760  148.4010 O   0  0  0  0  0  0  0  0  0  0  0  0
  161.1860  206.3970  149.5150 C   0  0  1  0  0  3  0  0  0  0  0  0
  161.5830  209.4560  152.4840 C   0  0  0  0  0  2  0  0  0  0  0  0
  160.1780  209.1170  155.1070 C   0  0  0  0  0  2  0  0  0  0  0  0
  160.5930  210.4860  154.5470 C   0  0  2  0  0  3  0  0  0  0  0  0
  161.1610  208.1400  152.9510 N   0  0  0  0  0  0  0  0  0  0  0  0
  160.6920  206.8130  154.8280 O   0  0  0  0  0  0  0  0  0  0  0  0
  160.7150  207.9600  154.3110 C   0  0  0  0  0  0  0  0  0  0  0  0
  160.6570  210.5400  153.0180 C   0  0  0  0  0  2  0  0  0  0  0  0
  161.7770  210.5520  156.4020 O   0  0  0  0  0  1  0  0  0  0  0  0
  161.7250  211.0430  155.1770 O   0  0  0  0  0  0  0  0  0  0  0  0
  162.0770  206.8250  148.3410 C   0  0  0  0  0  2  0  0  0  0  0  0
  161.7110  206.1800  147.0360 C   0  0  0  0  0  0  0  0  0  0  0  0
  160.4450  206.4140  146.4880 C   0  0  0  0  0  3  0  0  0  0  0  0
  162.2490  204.7520  145.1480 C   0  0  0  0  0  0  0  0  0  0  0  0
  160.0840  205.8260  145.2720 C   0  0  0  0  0  3  0  0  0  0  0  0
  163.8300  205.0670  146.9000 F   0  0  0  0  0  0  0  0  0  0  0  0
  162.6120  205.3350  146.3670 C   0  0  0  0  0  0  0  0  0  0  0  0
  163.1160  203.9400  144.4940 F   0  0  0  0  0  0  0  0  0  0  0  0
  160.9870  204.9980  144.6010 C   0  0  0  0  0  3  0  0  0  0  0  0
  2  4  1  6  0  0  0
  2  8  1  0  0  0  0
  2 14  1  0  0  0  0
  3  7  1  0  0  0  0
  3  6  1  1  0  0  0
  5  3  1  0  0  0  0
  5  7  1  0  0  0  0
  6  8  1  0  0  0  0
  7  1  1  0  0  0  0
  9  5  2  0  0  0  0
 10 20  1  6  0  0  0
 10  3  1  0  0  0  0
 10  4  1  0  0  0  0
 11 14  1  0  0  0  0
 11 17  1  0  0  0  0
 13 12  1  0  0  0  0
 13 19  1  1  0  0  0
 14 16  1  0  0  0  0
 16 15  2  0  0  0  0
 16 12  1  0  0  0  0
 17 13  1  0  0  0  0
 19 18  1  0  0  0  0
 21 20  1  0  0  0  0
 22 21  1  0  0  0  0
 23 26  1  0  0  0  0
 24 22  2  0  0  0  0
 26 25  1  0  0  0  0
 26 21  2  0  0  0  0
 27 23  1  0  0  0  0
 28 23  2  0  0  0  0
 28 24  1  0  0  0  0
M  END
>  <MODEL>
6

>  <REMARK>
 VINA RESULT:      -4.9      6.338      9.014
  Name = 
  4 active torsions:
  status: ('A' for Active; 'I' for Inactive)
    1  A    between atoms: C_1  and  C_2
    2  A    between atoms: C_1  and  C_27
    3  A    between atoms: C_10  and  N_13
    4  A    between atoms: C_12  and  O_23
                            x       y       z     vdW  Elec       q    Type
                         _______ _______ _______ _____ _____    ______ ____

>  <TORSDO>
F 4

$$$$
=
 OpenBabel11052422503D

 28 31  0  0  1  0  0  0  0  0999 V2000
  163.2510  210.7070  156.5200 C   0  0  0  0  0  1  0  0  0  0  0  0
  160.9700  209.0820  153.9830 C   0  0  1  0  0  3  0  0  0  0  0  0
  160.6810  211.2430  155.6700 C   0  0  2  0  0  0  0  0  0  0  0  0
  160.9510  210.4230  153.2410 C   0  0  0  0  0  2  0  0  0  0  0  0
  160.8030  212.2470  156.6190 C   0  0  0  0  0  0  0  0  0  0  0  0
  159.8560  210.0150  156.0590 C   0  0  0  0  0  2  0  0  0  0  0  0
  161.9200  211.2430  156.3080 N   0  0  0  0  0  0  0  0  0  0  0  0
  159.7760  208.9760  154.9340 C   0  0  0  0  0  2  0  0  0  0  0  0
  160.3540  213.2330  157.2590 O   0  0  0  0  0  0  0  0  0  0  0  0
  160.8130  211.6320  154.1880 C   0  0  1  0  0  3  0  0  0  0  0  0
  160.9400  208.2630  151.6320 C   0  0  0  0  0  2  0  0  0  0  0  0
  161.6390  205.5120  152.5880 C   0  0  0  0  0  2  0  0  0  0  0  0
  161.5960  205.9000  151.1020 C   0  0  2  0  0  3  0  0  0  0  0  0
  161.0180  207.9540  153.0550 N   0  0  0  0  0  0  0  0  0  0  0  0
  160.8200  206.2770  154.6840 O   0  0  0  0  0  0  0  0  0  0  0  0
  161.1080  206.5840  153.4980 C   0  0  0  0  0  0  0  0  0  0  0  0
  161.8900  207.3800  150.8350 C   0  0  0  0  0  2  0  0  0  0  0  0
  160.8700  204.9650  149.2460 O   0  0  0  0  0  1  0  0  0  0  0  0
  160.4610  205.4200  150.4160 O   0  0  0  0  0  0  0  0  0  0  0  0
  159.7370  212.6190  153.7140 C   0  0  0  0  0  2  0  0  0  0  0  0
  158.4140  212.4500  154.4020 C   0  0  0  0  0  0  0  0  0  0  0  0
  158.0900  213.2860  155.4760 C   0  0  0  0  0  3  0  0  0  0  0  0
  156.2770  211.3260  154.6500 C   0  0  0  0  0  0  0  0  0  0  0  0
  156.8620  213.1480  156.1300 C   0  0  0  0  0  3  0  0  0  0  0  0
  157.8190  210.6130  152.9810 F   0  0  0  0  0  0  0  0  0  0  0  0
  157.5080  211.4570  153.9960 C   0  0  0  0  0  0  0  0  0  0  0  0
  155.3950  210.3730  154.2590 F   0  0  0  0  0  0  0  0  0  0  0  0
  155.9550  212.1710  155.7150 C   0  0  0  0  0  3  0  0  0  0  0  0
  2 14  1  6  0  0  0
  2  8  1  0  0  0  0
  3  6  1  1  0  0  0
  3  7  1  0  0  0  0
  3  5  1  0  0  0  0
  4  2  1  0  0  0  0
  4 10  1  0  0  0  0
  5  9  2  0  0  0  0
  7  1  1  0  0  0  0
  7  5  1  0  0  0  0
  8  6  1  0  0  0  0
 10 20  1  6  0  0  0
 10  3  1  0  0  0  0
 11 14  1  0  0  0  0
 12 16  1  0  0  0  0
 13 19  1  1  0  0  0
 13 12  1  0  0  0  0
 14 16  1  0  0  0  0
 16 15  2  0  0  0  0
 17 13  1  0  0  0  0
 17 11  1  0  0  0  0
 18 19  1  0  0  0  0
 20 21  1  0  0  0  0
 21 22  1  0  0  0  0
 22 24  2  0  0  0  0
 23 28  2  0  0  0  0
 25 26  1  0  0  0  0
 26 21  2  0  0  0  0
 26 23  1  0  0  0  0
 27 23  1  0  0  0  0
 28 24  1  0  0  0  0
M  END
>  <MODEL>
7

>  <REMARK>
 VINA RESULT:      -4.6      6.725      8.556
  Name = 
  4 active torsions:
  status: ('A' for Active; 'I' for Inactive)
    1  A    between atoms: C_1  and  C_2
    2  A    between atoms: C_1  and  C_27
    3  A    between atoms: C_10  and  N_13
    4  A    between atoms: C_12  and  O_23
                            x       y       z     vdW  Elec       q    Type
                         _______ _______ _______ _____ _____    ______ ____

>  <TORSDO>
F 4

$$$$
=
 OpenBabel11052422503D

 28 31  0  0  1  0  0  0  0  0999 V2000
  161.2610  210.4370  148.2750 C   0  0  0  0  0  1  0  0  0  0  0  0
  161.4940  206.6930  147.8090 C   0  0  1  0  0  3  0  0  0  0  0  0
  162.2860  208.3970  149.8260 C   0  0  2  0  0  0  0  0  0  0  0  0
  160.6500  206.5500  149.0800 C   0  0  0  0  0  2  0  0  0  0  0  0
  162.5930  209.4660  150.6540 C   0  0  0  0  0  0  0  0  0  0  0  0
  163.4320  207.7970  149.0090 C   0  0  0  0  0  2  0  0  0  0  0  0
  161.8820  209.6240  149.3050 N   0  0  0  0  0  0  0  0  0  0  0  0
  162.9840  206.6150  148.1410 C   0  0  0  0  0  2  0  0  0  0  0  0
  163.0810  209.9550  151.7050 O   0  0  0  0  0  0  0  0  0  0  0  0
  161.0780  207.5200  150.1980 C   0  0  1  0  0  3  0  0  0  0  0  0
  160.4560  206.2030  145.5990 C   0  0  0  0  0  2  0  0  0  0  0  0
  161.4210  203.3740  145.7800 C   0  0  0  0  0  2  0  0  0  0  0  0
  160.7670  203.9600  144.5190 C   0  0  2  0  0  3  0  0  0  0  0  0
  161.1170  205.7060  146.7990 N   0  0  0  0  0  0  0  0  0  0  0  0
  161.5810  203.8160  148.1100 O   0  0  0  0  0  0  0  0  0  0  0  0
  161.3510  204.2920  146.9680 C   0  0  0  0  0  0  0  0  0  0  0  0
  160.9590  205.4710  144.3630 C   0  0  0  0  0  2  0  0  0  0  0  0
  159.4030  202.2330  144.5110 O   0  0  0  0  0  1  0  0  0  0  0  0
  159.4370  203.5380  144.3140 O   0  0  0  0  0  0  0  0  0  0  0  0
  161.2280  206.8130  151.5520 C   0  0  0  0  0  2  0  0  0  0  0  0
  160.8310  207.6590  152.7260 C   0  0  0  0  0  0  0  0  0  0  0  0
  160.4560  208.9910  152.5150 C   0  0  0  0  0  3  0  0  0  0  0  0
  160.4620  207.9480  155.1080 C   0  0  0  0  0  0  0  0  0  0  0  0
  160.0790  209.7960  153.5940 C   0  0  0  0  0  3  0  0  0  0  0  0
  161.2390  205.8630  154.2610 F   0  0  0  0  0  0  0  0  0  0  0  0
  160.8450  207.1400  154.0310 C   0  0  0  0  0  0  0  0  0  0  0  0
  160.4680  207.4510  156.3700 F   0  0  0  0  0  0  0  0  0  0  0  0
  160.0790  209.2740  154.8890 C   0  0  0  0  0  3  0  0  0  0  0  0
  1  7  1  0  0  0  0
  2 14  1  6  0  0  0
  2  8  1  0  0  0  0
  2  4  1  0  0  0  0
  3  6  1  6  0  0  0
  3 10  1  0  0  0  0
  3  5  1  0  0  0  0
  4 10  1  0  0  0  0
  5  9  2  0  0  0  0
  7  3  1  0  0  0  0
  7  5  1  0  0  0  0
  8  6  1  0  0  0  0
 10 20  1  1  0  0  0
 11 14  1  0  0  0  0
 12 16  1  0  0  0  0
 13 19  1  1  0  0  0
 13 12  1  0  0  0  0
 14 16  1  0  0  0  0
 16 15  2  0  0  0  0
 17 13  1  0  0  0  0
 17 11  1  0  0  0  0
 19 18  1  0  0  0  0
 20 21  1  0  0  0  0
 21 26  1  0  0  0  0
 22 21  2  0  0  0  0
 22 24  1  0  0  0  0
 23 27  1  0  0  0  0
 24 28  2  0  0  0  0
 26 25  1  0  0  0  0
 26 23  2  0  0  0  0
 28 23  1  0  0  0  0
M  END
>  <MODEL>
8

>  <REMARK>
 VINA RESULT:      -4.3      4.954      6.932
  Name = 
  4 active torsions:
  status: ('A' for Active; 'I' for Inactive)
    1  A    between atoms: C_1  and  C_2
    2  A    between atoms: C_1  and  C_27
    3  A    between atoms: C_10  and  N_13
    4  A    between atoms: C_12  and  O_23
                            x       y       z     vdW  Elec       q    Type
                         _______ _______ _______ _____ _____    ______ ____

>  <TORSDO>
F 4

$$$$
=
 OpenBabel11052422503D

 28 31  0  0  1  0  0  0  0  0999 V2000
  161.6780  208.9800  148.6530 C   0  0  0  0  0  1  0  0  0  0  0  0
  161.5930  205.6130  150.3670 C   0  0  1  0  0  3  0  0  0  0  0  0
  162.1990  208.1580  151.2360 C   0  0  2  0  0  0  0  0  0  0  0  0
  160.5320  206.1930  151.3070 C   0  0  0  0  0  2  0  0  0  0  0  0
  162.4680  209.5100  151.3860 C   0  0  0  0  0  0  0  0  0  0  0  0
  163.4000  207.2160  151.1320 C   0  0  0  0  0  2  0  0  0  0  0  0
  162.0210  208.8840  150.0590 N   0  0  0  0  0  0  0  0  0  0  0  0
  162.9870  205.7470  150.9810 C   0  0  0  0  0  2  0  0  0  0  0  0
  162.8150  210.5050  152.0730 O   0  0  0  0  0  0  0  0  0  0  0  0
  160.8590  207.6250  151.7730 C   0  0  1  0  0  3  0  0  0  0  0  0
  161.1840  203.2700  151.1040 C   0  0  0  0  0  2  0  0  0  0  0  0
  160.3790  202.5390  148.3140 C   0  0  0  0  0  2  0  0  0  0  0  0
  160.2310  201.5850  149.5080 C   0  0  2  0  0  3  0  0  0  0  0  0
  161.2960  204.2270  150.0100 N   0  0  0  0  0  0  0  0  0  0  0  0
  161.5780  204.4960  147.6960 O   0  0  0  0  0  0  0  0  0  0  0  0
  161.1430  203.7910  148.6430 C   0  0  0  0  0  0  0  0  0  0  0  0
  160.0440  202.2940  150.8530 C   0  0  0  0  0  2  0  0  0  0  0  0
  161.5390  200.2940  148.2970 O   0  0  0  0  0  1  0  0  0  0  0  0
  161.1960  200.5570  149.5440 O   0  0  0  0  0  0  0  0  0  0  0  0
  160.6970  207.7920  153.2900 C   0  0  0  0  0  2  0  0  0  0  0  0
  160.4220  209.2040  153.7190 C   0  0  0  0  0  0  0  0  0  0  0  0
  159.5660  209.9990  152.9500 C   0  0  0  0  0  3  0  0  0  0  0  0
  160.7440  211.0580  155.2520 C   0  0  0  0  0  0  0  0  0  0  0  0
  159.2940  211.3160  153.3330 C   0  0  0  0  0  3  0  0  0  0  0  0
  161.8840  208.9980  155.6090 F   0  0  0  0  0  0  0  0  0  0  0  0
  161.0230  209.7410  154.8700 C   0  0  0  0  0  0  0  0  0  0  0  0
  161.3160  211.5810  156.3650 F   0  0  0  0  0  0  0  0  0  0  0  0
  159.8810  211.8440  154.4850 C   0  0  0  0  0  3  0  0  0  0  0  0
  1  7  1  0  0  0  0
  2 14  1  1  0  0  0
  2  8  1  0  0  0  0
  2  4  1  0  0  0  0
  3  6  1  1  0  0  0
  3  5  1  0  0  0  0
  3 10  1  0  0  0  0
  4 10  1  0  0  0  0
  5  9  2  0  0  0  0
  7  3  1  0  0  0  0
  7  5  1  0  0  0  0
  8  6  1  0  0  0  0
 10 20  1  1  0  0  0
 12 16  1  0  0  0  0
 12 13  1  0  0  0  0
 13 19  1  1  0  0  0
 13 17  1  0  0  0  0
 14 11  1  0  0  0  0
 15 16  2  0  0  0  0
 16 14  1  0  0  0  0
 17 11  1  0  0  0  0
 18 19  1  0  0  0  0
 20 21  1  0  0  0  0
 21 26  1  0  0  0  0
 22 24  1  0  0  0  0
 22 21  2  0  0  0  0
 23 27  1  0  0  0  0
 24 28  2  0  0  0  0
 26 23  2  0  0  0  0
 26 25  1  0  0  0  0
 28 23  1  0  0  0  0
M  END
>  <MODEL>
9

>  <REMARK>
 VINA RESULT:      -4.2      5.560      8.659
  Name = 
  4 active torsions:
  status: ('A' for Active; 'I' for Inactive)
    1  A    between atoms: C_1  and  C_2
    2  A    between atoms: C_1  and  C_27
    3  A    between atoms: C_10  and  N_13
    4  A    between atoms: C_12  and  O_23
                            x       y       z     vdW  Elec       q    Type
                         _______ _______ _______ _____ _____    ______ ____

>  <TORSDO>
F 4

$$$$
