=
 OpenBabel11052421513D

 30 35  0  0  1  0  0  0  0  0999 V2000
  161.0010  208.3430  152.7440 C   0  0  2  0  0  3  0  0  0  0  0  0
  160.9630  206.1040  151.6030 C   0  0  0  0  0  0  0  0  0  0  0  0
  162.3390  210.2210  149.0200 C   0  0  0  0  0  2  0  0  0  0  0  0
  160.5740  209.7610  152.2780 C   0  0  1  0  0  3  0  0  0  0  0  0
  161.8660  208.4050  153.9930 C   0  0  0  0  0  2  0  0  0  0  0  0
  159.3650  210.5150  155.6140 O   0  0  0  0  0  0  0  0  0  0  0  0
  159.5890  212.6930  152.0590 N   0  0  0  0  0  0  0  0  0  0  0  0
  160.1680  210.0820  154.8000 C   0  0  0  0  0  0  0  0  0  0  0  0
  160.7840  212.6630  151.2180 C   0  0  2  0  0  3  0  0  0  0  0  0
  161.6360  211.5400  149.2540 C   0  0  1  0  0  3  0  0  0  0  0  0
  161.0300  208.8960  155.1710 C   0  0  2  0  0  3  0  0  0  0  0  0
  160.3160  210.7440  153.4440 C   0  0  2  0  0  3  0  0  0  0  0  0
  160.5520  205.5620  150.3430 N   0  0  0  0  0  0  0  0  0  0  0  0
  160.5970  213.7870  150.3630 O   0  0  0  0  0  0  0  0  0  0  0  0
  158.8200  213.8280  151.6820 C   0  0  0  0  0  3  0  0  0  0  0  0
  160.7920  205.4280  152.6510 O   0  0  0  0  0  0  0  0  0  0  0  0
  162.3300  209.5190  150.3620 C   0  0  1  0  0  3  0  0  0  0  0  0
  160.7130  206.2100  149.2290 C   0  0  0  0  0  3  0  0  0  0  0  0
  161.6460  207.4470  151.6760 C   0  0  1  0  0  3  0  0  0  0  0  0
  161.5410  210.4420  151.2900 C   0  0  1  0  0  3  0  0  0  0  0  0
  160.7470  211.8390  148.0600 C   0  0  0  0  0  1  0  0  0  0  0  0
  160.8220  211.4050  150.4620 N   0  0  1  0  0  0  0  0  0  0  0  0
  159.4220  214.4530  150.6880 C   0  0  0  0  0  3  0  0  0  0  0  0
  157.8910  211.0790  152.7920 C   0  0  0  0  0  1  0  0  0  0  0  0
  161.3200  207.5490  149.2110 C   0  0  0  0  0  3  0  0  0  0  0  0
  161.7440  208.1350  150.3390 C   0  0  0  0  0  0  0  0  0  0  0  0
  159.2100  211.7650  153.1270 C   0  0  2  0  0  3  0  0  0  0  0  0
  161.9580  209.2330  156.3280 C   0  0  0  0  0  2  0  0  0  0  0  0
  163.3480  210.7030  157.2070 C   0  0  0  0  0  1  0  0  0  0  0  0
  162.7550  210.3300  156.0010 O   0  0  0  0  0  0  0  0  0  0  0  0
  1  5  1  1  0  0  0
  2 19  1  0  0  0  0
  2 16  2  0  0  0  0
  3 10  1  0  0  0  0
  3 17  1  0  0  0  0
  4  1  1  0  0  0  0
  4 12  1  0  0  0  0
  5 11  1  0  0  0  0
  7 27  1  0  0  0  0
  8 11  1  0  0  0  0
  8  6  2  0  0  0  0
  9  7  1  0  0  0  0
 10 22  1  0  0  0  0
 11 28  1  0  0  0  0
 12  8  1  0  0  0  0
 13  2  1  0  0  0  0
 14 23  1  0  0  0  0
 14  9  1  0  0  0  0
 15  7  1  0  0  0  0
 17 20  1  0  0  0  0
 18 13  2  0  0  0  0
 19  1  1  0  0  0  0
 20  4  1  0  0  0  0
 21 10  1  0  0  0  0
 22  9  1  0  0  0  0
 22 20  1  0  0  0  0
 23 15  2  0  0  0  0
 24 27  1  0  0  0  0
 25 18  1  0  0  0  0
 25 26  2  0  0  0  0
 26 17  1  0  0  0  0
 26 19  1  0  0  0  0
 27 12  1  0  0  0  0
 30 28  1  0  0  0  0
 30 29  1  0  0  0  0
M  END
>  <MODEL>
1

>  <REMARK>
 VINA RESULT:      -4.7      0.000      0.000
  Name = 
  2 active torsions:
  status: ('A' for Active; 'I' for Inactive)
    1  A    between atoms: C_9  and  C_12
    2  A    between atoms: C_9  and  O_21
                            x       y       z     vdW  Elec       q    Type
                         _______ _______ _______ _____ _____    ______ ____

>  <TORSDO>
F 2

$$$$
=
 OpenBabel11052421513D

 30 35  0  0  1  0  0  0  0  0999 V2000
  160.9710  210.9740  153.5630 C   0  0  2  0  0  3  0  0  0  0  0  0
  161.6810  211.2770  155.9550 C   0  0  0  0  0  0  0  0  0  0  0  0
  156.9380  212.3440  154.5850 C   0  0  0  0  0  2  0  0  0  0  0  0
  160.0730  211.8240  152.6240 C   0  0  1  0  0  3  0  0  0  0  0  0
  161.1930  209.5770  153.0060 C   0  0  0  0  0  2  0  0  0  0  0  0
  162.2170  211.0190  149.8110 O   0  0  0  0  0  0  0  0  0  0  0  0
  158.7060  213.2380  150.2270 N   0  0  0  0  0  0  0  0  0  0  0  0
  161.5690  210.7650  150.8170 C   0  0  0  0  0  0  0  0  0  0  0  0
  157.5860  212.7530  151.0310 C   0  0  2  0  0  3  0  0  0  0  0  0
  156.6580  212.9990  153.2490 C   0  0  1  0  0  3  0  0  0  0  0  0
  162.0370  209.6590  151.7370 C   0  0  2  0  0  3  0  0  0  0  0  0
  160.2980  211.5330  151.1220 C   0  0  2  0  0  3  0  0  0  0  0  0
  161.4970  212.2340  157.0040 N   0  0  0  0  0  0  0  0  0  0  0  0
  156.5080  213.5820  150.6050 O   0  0  0  0  0  0  0  0  0  0  0  0
  158.2160  214.2630  149.3720 C   0  0  0  0  0  3  0  0  0  0  0  0
  162.7940  210.7000  155.8320 O   0  0  0  0  0  0  0  0  0  0  0  0
  158.1510  211.4660  154.3530 C   0  0  1  0  0  3  0  0  0  0  0  0
  160.3680  212.8500  157.1830 C   0  0  0  0  0  3  0  0  0  0  0  0
  160.5410  210.9140  155.0370 C   0  0  1  0  0  3  0  0  0  0  0  0
  158.5610  211.7270  152.9040 C   0  0  1  0  0  3  0  0  0  0  0  0
  156.2620  214.4460  153.4880 C   0  0  0  0  0  1  0  0  0  0  0  0
  157.8850  212.9400  152.4560 N   0  0  1  0  0  0  0  0  0  0  0  0
  156.9320  214.4530  149.6090 C   0  0  0  0  0  3  0  0  0  0  0  0
  161.0300  213.9100  150.6410 C   0  0  0  0  0  1  0  0  0  0  0  0
  159.2180  212.6000  156.3020 C   0  0  0  0  0  3  0  0  0  0  0  0
  159.2920  211.7150  155.2980 C   0  0  0  0  0  0  0  0  0  0  0  0
  160.0950  212.7750  150.2380 C   0  0  2  0  0  3  0  0  0  0  0  0
  162.0040  208.3110  151.0350 C   0  0  0  0  0  2  0  0  0  0  0  0
  161.3590  206.2180  151.2950 C   0  0  0  0  0  1  0  0  0  0  0  0
  160.9610  207.5320  151.5370 O   0  0  0  0  0  0  0  0  0  0  0  0
  1  5  1  6  0  0  0
  1 19  1  0  0  0  0
  2 13  1  0  0  0  0
  4 20  1  0  0  0  0
  4  1  1  0  0  0  0
  6  8  2  0  0  0  0
  7 27  1  0  0  0  0
  7  9  1  0  0  0  0
  8 12  1  0  0  0  0
  8 11  1  0  0  0  0
  9 22  1  0  0  0  0
 10 21  1  0  0  0  0
 10  3  1  0  0  0  0
 11  5  1  0  0  0  0
 12  4  1  0  0  0  0
 13 18  2  0  0  0  0
 14  9  1  0  0  0  0
 15 23  2  0  0  0  0
 15  7  1  0  0  0  0
 16  2  2  0  0  0  0
 17  3  1  0  0  0  0
 17 26  1  0  0  0  0
 19 26  1  0  0  0  0
 19  2  1  0  0  0  0
 20 17  1  0  0  0  0
 22 20  1  0  0  0  0
 22 10  1  0  0  0  0
 23 14  1  0  0  0  0
 25 18  1  0  0  0  0
 26 25  2  0  0  0  0
 27 24  1  0  0  0  0
 27 12  1  0  0  0  0
 28 30  1  0  0  0  0
 28 11  1  0  0  0  0
 29 30  1  0  0  0  0
M  END
>  <MODEL>
2

>  <REMARK>
 VINA RESULT:      -3.4      2.290      5.638
  Name = 
  2 active torsions:
  status: ('A' for Active; 'I' for Inactive)
    1  A    between atoms: C_9  and  C_12
    2  A    between atoms: C_9  and  O_21
                            x       y       z     vdW  Elec       q    Type
                         _______ _______ _______ _____ _____    ______ ____

>  <TORSDO>
F 2

$$$$
=
 OpenBabel11052421513D

 30 35  0  0  1  0  0  0  0  0999 V2000
  158.3180  213.5930  151.5960 C   0  0  2  0  0  3  0  0  0  0  0  0
  155.9040  214.1890  151.2280 C   0  0  0  0  0  0  0  0  0  0  0  0
  157.8060  214.1740  155.9070 C   0  0  0  0  0  2  0  0  0  0  0  0
  159.0300  212.7430  152.6820 C   0  0  1  0  0  3  0  0  0  0  0  0
  159.3080  214.4420  150.8150 C   0  0  0  0  0  2  0  0  0  0  0  0
  161.3530  211.4800  150.2000 O   0  0  0  0  0  0  0  0  0  0  0  0
  160.9300  210.9150  154.3140 N   0  0  0  0  0  0  0  0  0  0  0  0
  160.7070  212.3480  150.7700 C   0  0  0  0  0  0  0  0  0  0  0  0
  160.6630  212.0340  155.2160 C   0  0  2  0  0  3  0  0  0  0  0  0
  158.8050  213.1150  156.3220 C   0  0  1  0  0  3  0  0  0  0  0  0
  160.2110  213.5390  149.9800 C   0  0  2  0  0  3  0  0  0  0  0  0
  160.4290  212.2420  152.2570 C   0  0  2  0  0  3  0  0  0  0  0  0
  154.6380  213.9170  151.8400 N   0  0  0  0  0  0  0  0  0  0  0  0
  160.9680  211.4880  156.4960 O   0  0  0  0  0  0  0  0  0  0  0  0
  161.4040  209.8280  155.0980 C   0  0  0  0  0  3  0  0  0  0  0  0
  155.9800  214.2670  149.9740 O   0  0  0  0  0  0  0  0  0  0  0  0
  158.0750  214.4230  154.4370 C   0  0  1  0  0  3  0  0  0  0  0  0
  154.4990  213.8370  153.1290 C   0  0  0  0  0  3  0  0  0  0  0  0
  157.1270  214.4390  152.0730 C   0  0  1  0  0  3  0  0  0  0  0  0
  159.1690  213.4260  154.0570 C   0  0  1  0  0  3  0  0  0  0  0  0
  158.1190  212.1360  157.2590 C   0  0  0  0  0  1  0  0  0  0  0  0
  159.2500  212.4220  155.1140 N   0  0  1  0  0  0  0  0  0  0  0  0
  161.4170  210.1790  156.3700 C   0  0  0  0  0  3  0  0  0  0  0  0
  159.7600  209.8080  152.4620 C   0  0  0  0  0  1  0  0  0  0  0  0
  155.6480  214.0120  154.0280 C   0  0  0  0  0  3  0  0  0  0  0  0
  156.8710  214.2790  153.5500 C   0  0  0  0  0  0  0  0  0  0  0  0
  160.7790  210.8700  152.8580 C   0  0  2  0  0  3  0  0  0  0  0  0
  161.3700  214.3620  149.4420 C   0  0  0  0  0  2  0  0  0  0  0  0
  162.7960  213.7290  147.8830 C   0  0  0  0  0  1  0  0  0  0  0  0
  161.4900  214.1830  148.0640 O   0  0  0  0  0  0  0  0  0  0  0  0
  1  5  1  1  0  0  0
  1 19  1  0  0  0  0
  1  4  1  0  0  0  0
  2 13  1  0  0  0  0
  2 19  1  0  0  0  0
  3 10  1  0  0  0  0
  4 20  1  0  0  0  0
  6  8  2  0  0  0  0
  7 15  1  0  0  0  0
  7  9  1  0  0  0  0
  8 12  1  0  0  0  0
  9 14  1  0  0  0  0
 10 21  1  0  0  0  0
 11  8  1  0  0  0  0
 11  5  1  0  0  0  0
 12  4  1  0  0  0  0
 12 27  1  0  0  0  0
 13 18  2  0  0  0  0
 15 23  2  0  0  0  0
 16  2  2  0  0  0  0
 17  3  1  0  0  0  0
 18 25  1  0  0  0  0
 19 26  1  0  0  0  0
 20 17  1  0  0  0  0
 20 22  1  0  0  0  0
 22  9  1  0  0  0  0
 22 10  1  0  0  0  0
 23 14  1  0  0  0  0
 24 27  1  0  0  0  0
 26 25  2  0  0  0  0
 26 17  1  0  0  0  0
 27  7  1  0  0  0  0
 28 11  1  0  0  0  0
 29 30  1  0  0  0  0
 30 28  1  0  0  0  0
M  END
>  <MODEL>
3

>  <REMARK>
 VINA RESULT:      -3.3      2.967      7.360
  Name = 
  2 active torsions:
  status: ('A' for Active; 'I' for Inactive)
    1  A    between atoms: C_9  and  C_12
    2  A    between atoms: C_9  and  O_21
                            x       y       z     vdW  Elec       q    Type
                         _______ _______ _______ _____ _____    ______ ____

>  <TORSDO>
F 2

$$$$
=
 OpenBabel11052421513D

 30 35  0  0  1  0  0  0  0  0999 V2000
  161.1220  208.9720  153.8390 C   0  0  2  0  0  3  0  0  0  0  0  0
  161.4510  209.2150  156.3190 C   0  0  0  0  0  0  0  0  0  0  0  0
  158.5330  212.5050  153.8340 C   0  0  0  0  0  2  0  0  0  0  0  0
  161.0630  210.0100  152.6860 C   0  0  1  0  0  3  0  0  0  0  0  0
  160.5820  207.6200  153.4000 C   0  0  0  0  0  2  0  0  0  0  0  0
  162.7840  207.6950  150.4870 O   0  0  0  0  0  0  0  0  0  0  0  0
  161.2080  211.5280  149.9860 N   0  0  0  0  0  0  0  0  0  0  0  0
  161.9480  208.0150  151.3200 C   0  0  0  0  0  0  0  0  0  0  0  0
  159.8970  211.8910  150.5200 C   0  0  2  0  0  3  0  0  0  0  0  0
  158.9210  212.9750  152.4480 C   0  0  1  0  0  3  0  0  0  0  0  0
  161.5190  207.0070  152.3630 C   0  0  2  0  0  3  0  0  0  0  0  0
  161.3300  209.4000  151.2910 C   0  0  2  0  0  3  0  0  0  0  0  0
  161.6800  210.2700  157.2600 N   0  0  0  0  0  0  0  0  0  0  0  0
  159.5940  213.0970  149.8240 O   0  0  0  0  0  0  0  0  0  0  0  0
  161.5610  212.4940  149.0050 C   0  0  0  0  0  3  0  0  0  0  0  0
  162.0230  208.1050  156.4820 O   0  0  0  0  0  0  0  0  0  0  0  0
  159.0280  211.0770  153.9250 C   0  0  1  0  0  3  0  0  0  0  0  0
  161.1100  211.4310  157.1470 C   0  0  0  0  0  3  0  0  0  0  0  0
  160.4920  209.4060  155.1710 C   0  0  1  0  0  3  0  0  0  0  0  0
  159.7550  210.8210  152.6060 C   0  0  1  0  0  3  0  0  0  0  0  0
  159.4050  214.4110  152.5360 C   0  0  0  0  0  1  0  0  0  0  0  0
  159.9990  212.1110  151.9680 N   0  0  1  0  0  0  0  0  0  0  0  0
  160.6090  213.4050  148.9260 C   0  0  0  0  0  3  0  0  0  0  0  0
  163.3760  210.8450  150.9120 C   0  0  0  0  0  1  0  0  0  0  0  0
  160.2010  211.7240  156.0300 C   0  0  0  0  0  3  0  0  0  0  0  0
  159.9180  210.7980  155.1030 C   0  0  0  0  0  0  0  0  0  0  0  0
  162.0430  210.3780  150.3400 C   0  0  2  0  0  3  0  0  0  0  0  0
  160.8300  205.8130  151.7210 C   0  0  0  0  0  2  0  0  0  0  0  0
  160.8620  203.6250  151.9960 C   0  0  0  0  0  1  0  0  0  0  0  0
  161.6860  204.7120  151.7100 O   0  0  0  0  0  0  0  0  0  0  0  0
  1  5  1  6  0  0  0
  1 19  1  0  0  0  0
  2 16  2  0  0  0  0
  2 13  1  0  0  0  0
  3 17  1  0  0  0  0
  4  1  1  0  0  0  0
  6  8  2  0  0  0  0
  7 27  1  0  0  0  0
  7  9  1  0  0  0  0
  8 11  1  0  0  0  0
  9 22  1  0  0  0  0
 10 21  1  0  0  0  0
 10  3  1  0  0  0  0
 11  5  1  0  0  0  0
 12  8  1  0  0  0  0
 12  4  1  0  0  0  0
 14  9  1  0  0  0  0
 15  7  1  0  0  0  0
 17 26  1  0  0  0  0
 18 13  2  0  0  0  0
 19  2  1  0  0  0  0
 20  4  1  0  0  0  0
 20 17  1  0  0  0  0
 22 10  1  0  0  0  0
 22 20  1  0  0  0  0
 23 15  2  0  0  0  0
 23 14  1  0  0  0  0
 25 18  1  0  0  0  0
 26 19  1  0  0  0  0
 26 25  2  0  0  0  0
 27 24  1  0  0  0  0
 27 12  1  0  0  0  0
 28 11  1  0  0  0  0
 30 28  1  0  0  0  0
 30 29  1  0  0  0  0
M  END
>  <MODEL>
4

>  <REMARK>
 VINA RESULT:      -3.2      1.836      5.169
  Name = 
  2 active torsions:
  status: ('A' for Active; 'I' for Inactive)
    1  A    between atoms: C_9  and  C_12
    2  A    between atoms: C_9  and  O_21
                            x       y       z     vdW  Elec       q    Type
                         _______ _______ _______ _____ _____    ______ ____

>  <TORSDO>
F 2

$$$$
=
 OpenBabel11052421513D

 30 35  0  0  1  0  0  0  0  0999 V2000
  159.1440  213.0200  150.4300 C   0  0  2  0  0  3  0  0  0  0  0  0
  156.8740  213.7650  149.6500 C   0  0  0  0  0  0  0  0  0  0  0  0
  158.1660  214.2990  154.5030 C   0  0  0  0  0  2  0  0  0  0  0  0
  159.6190  212.2870  151.7130 C   0  0  1  0  0  3  0  0  0  0  0  0
  160.3100  213.6480  149.6830 C   0  0  0  0  0  2  0  0  0  0  0  0
  162.0830  210.4580  149.7800 O   0  0  0  0  0  0  0  0  0  0  0  0
  161.0920  210.5700  153.8340 N   0  0  0  0  0  0  0  0  0  0  0  0
  161.4690  211.4560  150.1270 C   0  0  0  0  0  0  0  0  0  0  0  0
  160.8370  211.8330  154.5240 C   0  0  2  0  0  3  0  0  0  0  0  0
  158.9840  213.2320  155.1980 C   0  0  1  0  0  3  0  0  0  0  0  0
  161.2070  212.5510  149.1170 C   0  0  2  0  0  3  0  0  0  0  0  0
  160.9980  211.6050  151.5610 C   0  0  2  0  0  3  0  0  0  0  0  0
  155.5200  213.7040  150.1110 N   0  0  0  0  0  0  0  0  0  0  0  0
  160.9200  211.4660  155.8980 O   0  0  0  0  0  0  0  0  0  0  0  0
  161.3440  209.5790  154.8210 C   0  0  0  0  0  3  0  0  0  0  0  0
  157.1140  213.6420  148.4200 O   0  0  0  0  0  0  0  0  0  0  0  0
  158.6410  214.2950  153.0650 C   0  0  1  0  0  3  0  0  0  0  0  0
  155.2130  213.8350  151.3660 C   0  0  0  0  0  3  0  0  0  0  0  0
  158.0030  214.0320  150.6130 C   0  0  1  0  0  3  0  0  0  0  0  0
  159.6590  213.1580  152.9840 C   0  0  1  0  0  3  0  0  0  0  0  0
  158.0850  212.4730  156.1580 C   0  0  0  0  0  1  0  0  0  0  0  0
  159.4990  212.3250  154.1720 N   0  0  1  0  0  0  0  0  0  0  0  0
  161.2360  210.1180  156.0200 C   0  0  0  0  0  3  0  0  0  0  0  0
  160.0490  209.3000  152.0110 C   0  0  0  0  0  1  0  0  0  0  0  0
  156.2540  214.0430  152.3840 C   0  0  0  0  0  3  0  0  0  0  0  0
  157.5480  214.1240  152.0470 C   0  0  0  0  0  0  0  0  0  0  0  0
  161.1190  210.3160  152.3920 C   0  0  2  0  0  3  0  0  0  0  0  0
  162.5070  213.1760  148.6360 C   0  0  0  0  0  2  0  0  0  0  0  0
  162.3270  213.3530  146.4450 C   0  0  0  0  0  1  0  0  0  0  0  0
  162.9160  212.5790  147.4430 O   0  0  0  0  0  0  0  0  0  0  0  0
  1  5  1  1  0  0  0
  1 19  1  0  0  0  0
  1  4  1  0  0  0  0
  2 13  1  0  0  0  0
  2 19  1  0  0  0  0
  3 10  1  0  0  0  0
  4 20  1  0  0  0  0
  6  8  2  0  0  0  0
  7  9  1  0  0  0  0
  7 15  1  0  0  0  0
  8 12  1  0  0  0  0
  9 14  1  0  0  0  0
 10 21  1  0  0  0  0
 11  5  1  0  0  0  0
 11  8  1  0  0  0  0
 12  4  1  0  0  0  0
 12 27  1  0  0  0  0
 13 18  2  0  0  0  0
 14 23  1  0  0  0  0
 15 23  2  0  0  0  0
 16  2  2  0  0  0  0
 17  3  1  0  0  0  0
 18 25  1  0  0  0  0
 19 26  1  0  0  0  0
 20 17  1  0  0  0  0
 20 22  1  0  0  0  0
 22  9  1  0  0  0  0
 22 10  1  0  0  0  0
 24 27  1  0  0  0  0
 26 25  2  0  0  0  0
 26 17  1  0  0  0  0
 27  7  1  0  0  0  0
 28 11  1  0  0  0  0
 29 30  1  0  0  0  0
 30 28  1  0  0  0  0
M  END
>  <MODEL>
5

>  <REMARK>
 VINA RESULT:      -2.9      2.634      6.962
  Name = 
  2 active torsions:
  status: ('A' for Active; 'I' for Inactive)
    1  A    between atoms: C_9  and  C_12
    2  A    between atoms: C_9  and  O_21
                            x       y       z     vdW  Elec       q    Type
                         _______ _______ _______ _____ _____    ______ ____

>  <TORSDO>
F 2

$$$$
=
 OpenBabel11052421513D

 30 35  0  0  1  0  0  0  0  0999 V2000
  160.7450  210.7580  151.1060 C   0  0  2  0  0  3  0  0  0  0  0  0
  159.0300  212.3650  151.9970 C   0  0  0  0  0  0  0  0  0  0  0  0
  161.1010  208.9360  155.0730 C   0  0  0  0  0  2  0  0  0  0  0  0
  160.9860  209.2450  151.3540 C   0  0  1  0  0  3  0  0  0  0  0  0
  161.9480  211.4140  150.4480 C   0  0  0  0  0  2  0  0  0  0  0  0
  161.9560  208.8120  147.8860 O   0  0  0  0  0  0  0  0  0  0  0  0
  161.7350  206.2420  151.1680 N   0  0  0  0  0  0  0  0  0  0  0  0
  161.9560  209.3720  148.9730 C   0  0  0  0  0  0  0  0  0  0  0  0
  162.2240  206.6420  152.4860 C   0  0  2  0  0  3  0  0  0  0  0  0
  161.3930  207.5380  154.5730 C   0  0  1  0  0  3  0  0  0  0  0  0
  162.1120  210.8750  149.0300 C   0  0  2  0  0  3  0  0  0  0  0  0
  161.8270  208.5640  150.2490 C   0  0  2  0  0  3  0  0  0  0  0  0
  157.8960  212.3310  152.8720 N   0  0  0  0  0  0  0  0  0  0  0  0
  162.3150  205.4000  153.1800 O   0  0  0  0  0  0  0  0  0  0  0  0
  161.6170  204.8250  151.1590 C   0  0  0  0  0  3  0  0  0  0  0  0
  159.0010  213.1020  150.9770 O   0  0  0  0  0  0  0  0  0  0  0  0
  161.3030  209.8400  153.8750 C   0  0  1  0  0  3  0  0  0  0  0  0
  157.8750  211.5980  153.9440 C   0  0  0  0  0  3  0  0  0  0  0  0
  160.2720  211.5740  152.3200 C   0  0  1  0  0  3  0  0  0  0  0  0
  161.6230  208.9000  152.7150 C   0  0  1  0  0  3  0  0  0  0  0  0
  160.3880  206.5780  155.1850 C   0  0  0  0  0  1  0  0  0  0  0  0
  161.2540  207.5460  153.1170 N   0  0  1  0  0  0  0  0  0  0  0  0
  161.9560  204.3510  152.3430 C   0  0  0  0  0  3  0  0  0  0  0  0
  159.9600  206.9660  149.6360 C   0  0  0  0  0  1  0  0  0  0  0  0
  159.0210  210.7520  154.3070 C   0  0  0  0  0  3  0  0  0  0  0  0
  160.1300  210.7250  153.5570 C   0  0  0  0  0  0  0  0  0  0  0  0
  161.4290  207.0960  150.0180 C   0  0  2  0  0  3  0  0  0  0  0  0
  163.4680  211.3060  148.4930 C   0  0  0  0  0  2  0  0  0  0  0  0
  162.2930  212.5870  147.1350 C   0  0  0  0  0  1  0  0  0  0  0  0
  163.3950  212.6050  147.9880 O   0  0  0  0  0  0  0  0  0  0  0  0
  1  5  1  1  0  0  0
  1  4  1  0  0  0  0
  1 19  1  0  0  0  0
  2 19  1  0  0  0  0
  2 13  1  0  0  0  0
  4 20  1  0  0  0  0
  6  8  2  0  0  0  0
  7  9  1  0  0  0  0
  8 11  1  0  0  0  0
  8 12  1  0  0  0  0
  9 22  1  0  0  0  0
  9 14  1  0  0  0  0
 10  3  1  0  0  0  0
 10 21  1  0  0  0  0
 11  5  1  0  0  0  0
 12  4  1  0  0  0  0
 13 18  2  0  0  0  0
 15  7  1  0  0  0  0
 15 23  2  0  0  0  0
 16  2  2  0  0  0  0
 17  3  1  0  0  0  0
 18 25  1  0  0  0  0
 19 26  1  0  0  0  0
 20 22  1  0  0  0  0
 20 17  1  0  0  0  0
 22 10  1  0  0  0  0
 23 14  1  0  0  0  0
 24 27  1  0  0  0  0
 26 17  1  0  0  0  0
 26 25  2  0  0  0  0
 27 12  1  0  0  0  0
 27  7  1  0  0  0  0
 28 11  1  0  0  0  0
 29 30  1  0  0  0  0
 30 28  1  0  0  0  0
M  END
>  <MODEL>
6

>  <REMARK>
 VINA RESULT:      -2.9      2.131      6.803
  Name = 
  2 active torsions:
  status: ('A' for Active; 'I' for Inactive)
    1  A    between atoms: C_9  and  C_12
    2  A    between atoms: C_9  and  O_21
                            x       y       z     vdW  Elec       q    Type
                         _______ _______ _______ _____ _____    ______ ____

>  <TORSDO>
F 2

$$$$
=
 OpenBabel11052421513D

 30 35  0  0  1  0  0  0  0  0999 V2000
  160.0190  209.7690  154.4340 C   0  0  2  0  0  3  0  0  0  0  0  0
  160.3530  207.2810  154.5530 C   0  0  0  0  0  0  0  0  0  0  0  0
  162.6820  209.9630  150.9620 C   0  0  0  0  0  2  0  0  0  0  0  0
  159.8270  210.7410  153.2380 C   0  0  1  0  0  3  0  0  0  0  0  0
  160.3610  210.5190  155.7120 C   0  0  0  0  0  2  0  0  0  0  0  0
  157.4880  212.7100  155.1900 O   0  0  0  0  0  0  0  0  0  0  0  0
  159.0610  213.0700  151.3400 N   0  0  0  0  0  0  0  0  0  0  0  0
  158.5250  212.0900  155.0030 C   0  0  0  0  0  0  0  0  0  0  0  0
  160.4810  212.8540  151.0710 C   0  0  2  0  0  3  0  0  0  0  0  0
  161.9730  211.1190  150.2910 C   0  0  1  0  0  3  0  0  0  0  0  0
  159.1600  211.3470  156.1570 C   0  0  2  0  0  3  0  0  0  0  0  0
  159.1790  212.0880  153.6350 C   0  0  2  0  0  3  0  0  0  0  0  0
  160.4260  206.1750  153.6460 N   0  0  0  0  0  0  0  0  0  0  0  0
  160.6500  213.4310  149.7790 O   0  0  0  0  0  0  0  0  0  0  0  0
  158.5130  213.7800  150.2370 C   0  0  0  0  0  3  0  0  0  0  0  0
  159.7920  207.1290  155.6700 O   0  0  0  0  0  0  0  0  0  0  0  0
  162.1610  209.9450  152.3840 C   0  0  1  0  0  3  0  0  0  0  0  0
  161.0020  206.2720  152.4870 C   0  0  0  0  0  3  0  0  0  0  0  0
  160.9920  208.6020  154.2050 C   0  0  1  0  0  3  0  0  0  0  0  0
  161.1070  211.0490  152.4370 C   0  0  1  0  0  3  0  0  0  0  0  0
  161.5960  210.7080  148.8780 C   0  0  0  0  0  1  0  0  0  0  0  0
  160.7670  211.4140  151.0650 N   0  0  1  0  0  0  0  0  0  0  0  0
  159.4540  213.9790  149.3330 C   0  0  0  0  0  3  0  0  0  0  0  0
  157.1760  211.7120  152.1310 C   0  0  0  0  0  1  0  0  0  0  0  0
  161.6040  207.5370  152.0410 C   0  0  0  0  0  3  0  0  0  0  0  0
  161.5940  208.6250  152.8240 C   0  0  0  0  0  0  0  0  0  0  0  0
  158.2920  212.6730  152.5210 C   0  0  2  0  0  3  0  0  0  0  0  0
  159.6020  212.3070  157.2500 C   0  0  0  0  0  2  0  0  0  0  0  0
  160.4330  214.3460  157.1150 C   0  0  0  0  0  1  0  0  0  0  0  0
  160.7350  213.0130  156.8430 O   0  0  0  0  0  0  0  0  0  0  0  0
  1  5  1  1  0  0  0
  2 16  2  0  0  0  0
  3 17  1  0  0  0  0
  4 12  1  0  0  0  0
  4  1  1  0  0  0  0
  5 11  1  0  0  0  0
  7 27  1  0  0  0  0
  8  6  2  0  0  0  0
  8 11  1  0  0  0  0
  9  7  1  0  0  0  0
 10  3  1  0  0  0  0
 10 22  1  0  0  0  0
 11 28  1  0  0  0  0
 12  8  1  0  0  0  0
 13  2  1  0  0  0  0
 14  9  1  0  0  0  0
 15  7  1  0  0  0  0
 17 20  1  0  0  0  0
 17 26  1  0  0  0  0
 18 13  2  0  0  0  0
 19  1  1  0  0  0  0
 19  2  1  0  0  0  0
 20  4  1  0  0  0  0
 21 10  1  0  0  0  0
 22  9  1  0  0  0  0
 22 20  1  0  0  0  0
 23 14  1  0  0  0  0
 23 15  2  0  0  0  0
 24 27  1  0  0  0  0
 25 18  1  0  0  0  0
 25 26  2  0  0  0  0
 26 19  1  0  0  0  0
 27 12  1  0  0  0  0
 30 29  1  0  0  0  0
 30 28  1  0  0  0  0
M  END
>  <MODEL>
7

>  <REMARK>
 VINA RESULT:      -2.0      1.876      2.506
  Name = 
  2 active torsions:
  status: ('A' for Active; 'I' for Inactive)
    1  A    between atoms: C_9  and  C_12
    2  A    between atoms: C_9  and  O_21
                            x       y       z     vdW  Elec       q    Type
                         _______ _______ _______ _____ _____    ______ ____

>  <TORSDO>
F 2

$$$$
