=
 OpenBabel11052422463D

 28 31  0  0  1  0  0  0  0  0999 V2000
  160.6280  209.5500  152.8290 C   0  0  1  0  0  3  0  0  0  0  0  0
  161.9090  207.2670  148.5930 C   0  0  0  0  0  3  0  0  0  0  0  0
  162.7940  206.2130  153.6180 O   0  0  0  0  0  0  0  0  0  0  0  0
  161.2810  204.9380  148.8890 C   0  0  0  0  0  0  0  0  0  0  0  0
  161.2140  206.4630  150.7950 C   0  0  0  0  0  0  0  0  0  0  0  0
  161.9570  205.7450  146.7080 C   0  0  0  0  0  0  0  0  0  0  0  0
  161.4780  206.2300  149.4320 C   0  0  0  0  0  0  0  0  0  0  0  0
  160.6100  204.1160  151.0620 C   0  0  0  0  0  3  0  0  0  0  0  0
  161.5210  204.7040  147.5310 C   0  0  0  0  0  3  0  0  0  0  0  0
  161.5610  206.2350  153.8800 C   0  0  0  0  0  0  0  0  0  0  0  0
  161.3400  207.7880  151.3300 N   0  0  0  0  0  0  0  0  0  0  0  0
  160.8360  203.8960  149.7020 C   0  0  0  0  0  3  0  0  0  0  0  0
  161.4860  208.4800  154.9690 C   0  0  0  0  0  2  0  0  0  0  0  0
  160.6340  205.5380  153.0380 N   0  0  0  0  0  2  0  0  0  0  0  0
  161.0620  207.0130  155.0540 C   0  0  0  0  0  2  0  0  0  0  0  0
  162.2130  205.4930  145.2660 C   0  0  0  0  0  1  0  0  0  0  0  0
  162.1500  207.0250  147.2370 C   0  0  0  0  0  3  0  0  0  0  0  0
  160.8220  205.3770  151.6240 C   0  0  0  0  0  0  0  0  0  0  0  0
  160.4090  209.3580  154.3290 C   0  0  0  0  0  2  0  0  0  0  0  0
  160.4190  208.2770  152.0960 C   0  0  0  0  0  3  0  0  0  0  0  0
  159.8270  210.7230  152.2410 C   0  0  0  0  0  2  0  0  0  0  0  0
  159.9550  212.1310  152.8660 C   0  0  2  0  0  3  0  0  0  0  0  0
  158.3690  213.4390  153.4630 C   0  0  1  0  0  3  0  0  0  0  0  0
  159.1600  212.3330  154.1430 C   0  0  2  0  0  3  0  0  0  0  0  0
  159.9510  214.3080  151.9080 O   0  0  0  0  0  1  0  0  0  0  0  0
  159.1380  213.2060  152.1720 C   0  0  1  0  0  3  0  0  0  0  0  0
  157.0430  213.0380  153.3000 O   0  0  0  0  0  1  0  0  0  0  0  0
  159.9860  212.8860  155.1220 O   0  0  0  0  0  1  0  0  0  0  0  0
  1 21  1  6  0  0  0
  1 19  1  0  0  0  0
  2  7  1  0  0  0  0
  3 10  2  0  0  0  0
  4  7  2  0  0  0  0
  4 12  1  0  0  0  0
  5 11  1  0  0  0  0
  5 18  2  0  0  0  0
  6 17  1  0  0  0  0
  6  9  2  0  0  0  0
  7  5  1  0  0  0  0
  8 18  1  0  0  0  0
  9  4  1  0  0  0  0
 10 15  1  0  0  0  0
 11 20  2  0  0  0  0
 12  8  2  0  0  0  0
 13 15  1  0  0  0  0
 14 10  1  0  0  0  0
 16  6  1  0  0  0  0
 17  2  2  0  0  0  0
 18 14  1  0  0  0  0
 19 13  1  0  0  0  0
 20  1  1  0  0  0  0
 22 21  1  6  0  0  0
 22 24  1  0  0  0  0
 23 27  1  6  0  0  0
 23 24  1  0  0  0  0
 24 28  1  1  0  0  0
 26 25  1  1  0  0  0
 26 22  1  0  0  0  0
 26 23  1  0  0  0  0
M  END
>  <MODEL>
1

>  <REMARK>
 VINA RESULT:      -7.7      0.000      0.000
  Name = 
  2 active torsions:
  status: ('A' for Active; 'I' for Inactive)
    1  A    between atoms: C_1  and  C_2
    2  A    between atoms: C_2  and  C_3
                            x       y       z     vdW  Elec       q    Type
                         _______ _______ _______ _____ _____    ______ ____

>  <TORSDO>
F 2

$$$$
=
 OpenBabel11052422463D

 28 31  0  0  1  0  0  0  0  0999 V2000
  159.8740  212.2290  154.5320 C   0  0  1  0  0  3  0  0  0  0  0  0
  161.7280  209.3750  150.8960 C   0  0  0  0  0  3  0  0  0  0  0  0
  162.5780  209.6040  156.0300 O   0  0  0  0  0  0  0  0  0  0  0  0
  161.5240  207.0880  151.6900 C   0  0  0  0  0  0  0  0  0  0  0  0
  161.0990  208.9440  153.2190 C   0  0  0  0  0  0  0  0  0  0  0  0
  162.1310  207.5230  149.3870 C   0  0  0  0  0  0  0  0  0  0  0  0
  161.4580  208.4790  151.9410 C   0  0  0  0  0  0  0  0  0  0  0  0
  160.9240  206.6380  153.9900 C   0  0  0  0  0  3  0  0  0  0  0  0
  161.8600  206.6190  150.4170 C   0  0  0  0  0  3  0  0  0  0  0  0
  161.3530  209.4500  156.2800 C   0  0  0  0  0  0  0  0  0  0  0  0
  160.9580  210.3530  153.4530 N   0  0  0  0  0  0  0  0  0  0  0  0
  161.2430  206.1790  152.7110 C   0  0  0  0  0  3  0  0  0  0  0  0
  160.8220  211.8210  156.8540 C   0  0  0  0  0  2  0  0  0  0  0  0
  160.6040  208.4280  155.6100 N   0  0  0  0  0  2  0  0  0  0  0  0
  160.6700  210.3520  157.2570 C   0  0  0  0  0  2  0  0  0  0  0  0
  162.4900  207.0220  148.0350 C   0  0  0  0  0  1  0  0  0  0  0  0
  162.0650  208.8990  149.6260 C   0  0  0  0  0  3  0  0  0  0  0  0
  160.8780  208.0060  154.2640 C   0  0  0  0  0  0  0  0  0  0  0  0
  159.6310  212.3240  156.0380 C   0  0  0  0  0  2  0  0  0  0  0  0
  159.9320  210.8130  154.0930 C   0  0  0  0  0  3  0  0  0  0  0  0
  158.8970  213.0780  153.7020 C   0  0  0  0  0  2  0  0  0  0  0  0
  157.3970  212.7080  153.6670 C   0  0  2  0  0  3  0  0  0  0  0  0
  155.8570  213.3900  154.9880 C   0  0  1  0  0  3  0  0  0  0  0  0
  156.4500  213.8930  153.6820 C   0  0  2  0  0  3  0  0  0  0  0  0
  156.1400  211.0330  154.7960 O   0  0  0  0  0  1  0  0  0  0  0  0
  156.8350  212.2260  154.9920 C   0  0  1  0  0  3  0  0  0  0  0  0
  156.1720  214.2750  156.0200 O   0  0  0  0  0  1  0  0  0  0  0  0
  155.5110  213.7520  152.6590 O   0  0  0  0  0  1  0  0  0  0  0  0
  1 21  1  6  0  0  0
  1 19  1  0  0  0  0
  2  7  1  0  0  0  0
  3 10  2  0  0  0  0
  4  7  2  0  0  0  0
  4 12  1  0  0  0  0
  5 11  1  0  0  0  0
  5 18  2  0  0  0  0
  6 17  1  0  0  0  0
  6  9  2  0  0  0  0
  7  5  1  0  0  0  0
  8 18  1  0  0  0  0
  9  4  1  0  0  0  0
 10 15  1  0  0  0  0
 11 20  2  0  0  0  0
 12  8  2  0  0  0  0
 13 15  1  0  0  0  0
 14 10  1  0  0  0  0
 16  6  1  0  0  0  0
 17  2  2  0  0  0  0
 18 14  1  0  0  0  0
 19 13  1  0  0  0  0
 20  1  1  0  0  0  0
 22 24  1  0  0  0  0
 22 21  1  1  0  0  0
 22 26  1  0  0  0  0
 23 26  1  0  0  0  0
 23 27  1  1  0  0  0
 24 28  1  6  0  0  0
 24 23  1  0  0  0  0
 26 25  1  6  0  0  0
M  END
>  <MODEL>
2

>  <REMARK>
 VINA RESULT:      -7.5      2.304      3.657
  Name = 
  2 active torsions:
  status: ('A' for Active; 'I' for Inactive)
    1  A    between atoms: C_1  and  C_2
    2  A    between atoms: C_2  and  C_3
                            x       y       z     vdW  Elec       q    Type
                         _______ _______ _______ _____ _____    ______ ____

>  <TORSDO>
F 2

$$$$
=
 OpenBabel11052422463D

 28 31  0  0  1  0  0  0  0  0999 V2000
  161.8860  209.3840  148.8750 C   0  0  1  0  0  3  0  0  0  0  0  0
  159.8870  210.2770  153.3480 C   0  0  0  0  0  3  0  0  0  0  0  0
  159.9660  206.0880  150.2520 O   0  0  0  0  0  0  0  0  0  0  0  0
  160.6020  208.4370  154.7640 C   0  0  0  0  0  0  0  0  0  0  0  0
  160.9920  208.3350  152.3560 C   0  0  0  0  0  0  0  0  0  0  0  0
  159.5200  210.3710  155.7410 C   0  0  0  0  0  0  0  0  0  0  0  0
  160.4850  209.0160  153.4780 C   0  0  0  0  0  0  0  0  0  0  0  0
  161.6780  206.4960  153.8020 C   0  0  0  0  0  3  0  0  0  0  0  0
  160.1190  209.1170  155.8860 C   0  0  0  0  0  3  0  0  0  0  0  0
  161.2250  206.1010  150.2000 C   0  0  0  0  0  0  0  0  0  0  0  0
  160.9420  208.9540  151.0620 N   0  0  0  0  0  0  0  0  0  0  0  0
  161.2100  207.1910  154.9180 C   0  0  0  0  0  3  0  0  0  0  0  0
  161.4590  207.0710  147.9110 C   0  0  0  0  0  2  0  0  0  0  0  0
  161.9940  206.2600  151.3990 N   0  0  0  0  0  2  0  0  0  0  0  0
  161.9180  205.9810  148.8820 C   0  0  0  0  0  2  0  0  0  0  0  0
  159.0060  211.0900  156.9350 C   0  0  0  0  0  1  0  0  0  0  0  0
  159.4040  210.9500  154.4740 C   0  0  0  0  0  3  0  0  0  0  0  0
  161.5500  207.0380  152.5210 C   0  0  0  0  0  0  0  0  0  0  0  0
  162.3820  208.2900  147.9300 C   0  0  0  0  0  2  0  0  0  0  0  0
  161.9790  208.9440  150.2890 C   0  0  0  0  0  3  0  0  0  0  0  0
  162.5420  210.7510  148.6240 C   0  0  0  0  0  2  0  0  0  0  0  0
  161.6580  211.9900  148.3540 C   0  0  2  0  0  3  0  0  0  0  0  0
  161.7740  213.3330  146.6900 C   0  0  1  0  0  3  0  0  0  0  0  0
  161.0340  212.0340  146.9710 C   0  0  2  0  0  3  0  0  0  0  0  0
  161.9450  214.2960  148.8620 O   0  0  0  0  0  1  0  0  0  0  0  0
  162.4300  213.2630  148.0600 C   0  0  1  0  0  3  0  0  0  0  0  0
  162.7310  213.1240  145.6970 O   0  0  0  0  0  1  0  0  0  0  0  0
  159.6680  212.2920  147.0860 O   0  0  0  0  0  1  0  0  0  0  0  0
  1 21  1  1  0  0  0
  1 20  1  0  0  0  0
  2  7  2  0  0  0  0
  2 17  1  0  0  0  0
  4 12  1  0  0  0  0
  4  9  2  0  0  0  0
  5 18  2  0  0  0  0
  5  7  1  0  0  0  0
  6  9  1  0  0  0  0
  6 16  1  0  0  0  0
  7  4  1  0  0  0  0
  8 12  2  0  0  0  0
 10  3  2  0  0  0  0
 10 14  1  0  0  0  0
 11  5  1  0  0  0  0
 13 19  1  0  0  0  0
 13 15  1  0  0  0  0
 14 18  1  0  0  0  0
 15 10  1  0  0  0  0
 17  6  2  0  0  0  0
 18  8  1  0  0  0  0
 19  1  1  0  0  0  0
 20 11  2  0  0  0  0
 22 21  1  6  0  0  0
 23 27  1  6  0  0  0
 23 24  1  0  0  0  0
 23 26  1  0  0  0  0
 24 28  1  1  0  0  0
 24 22  1  0  0  0  0
 26 22  1  0  0  0  0
 26 25  1  1  0  0  0
M  END
>  <MODEL>
3

>  <REMARK>
 VINA RESULT:      -7.3      3.123      6.484
  Name = 
  2 active torsions:
  status: ('A' for Active; 'I' for Inactive)
    1  A    between atoms: C_1  and  C_2
    2  A    between atoms: C_2  and  C_3
                            x       y       z     vdW  Elec       q    Type
                         _______ _______ _______ _____ _____    ______ ____

>  <TORSDO>
F 2

$$$$
=
 OpenBabel11052422463D

 28 31  0  0  1  0  0  0  0  0999 V2000
  161.9310  209.3500  149.5150 C   0  0  1  0  0  3  0  0  0  0  0  0
  161.8970  204.8580  147.3660 C   0  0  0  0  0  3  0  0  0  0  0  0
  163.1630  206.5150  152.1400 O   0  0  0  0  0  0  0  0  0  0  0  0
  160.6890  203.4080  148.8980 C   0  0  0  0  0  0  0  0  0  0  0  0
  161.3280  205.6570  149.6050 C   0  0  0  0  0  0  0  0  0  0  0  0
  161.2440  202.6300  146.6720 C   0  0  0  0  0  0  0  0  0  0  0  0
  161.3170  204.6470  148.6250 C   0  0  0  0  0  0  0  0  0  0  0  0
  160.1340  204.1700  151.1250 C   0  0  0  0  0  3  0  0  0  0  0  0
  160.6570  202.4090  147.9210 C   0  0  0  0  0  3  0  0  0  0  0  0
  162.0370  207.0610  152.2920 C   0  0  0  0  0  0  0  0  0  0  0  0
  161.8960  206.9390  149.3040 N   0  0  0  0  0  0  0  0  0  0  0  0
  160.0910  203.1850  150.1380 C   0  0  0  0  0  3  0  0  0  0  0  0
  162.7520  209.4230  151.9190 C   0  0  0  0  0  2  0  0  0  0  0  0
  160.8400  206.3490  151.9530 N   0  0  0  0  0  2  0  0  0  0  0  0
  161.9490  208.4630  152.8000 C   0  0  0  0  0  2  0  0  0  0  0  0
  161.2090  201.5650  145.6370 C   0  0  0  0  0  1  0  0  0  0  0  0
  161.8630  203.8530  146.3950 C   0  0  0  0  0  3  0  0  0  0  0  0
  160.7700  205.3900  150.8860 C   0  0  0  0  0  0  0  0  0  0  0  0
  161.8850  210.0910  150.8510 C   0  0  0  0  0  2  0  0  0  0  0  0
  161.2700  208.0260  149.6200 C   0  0  0  0  0  3  0  0  0  0  0  0
  161.4150  210.1890  148.3340 C   0  0  0  0  0  2  0  0  0  0  0  0
  161.5250  211.7300  148.3810 C   0  0  2  0  0  3  0  0  0  0  0  0
  161.4160  213.0930  146.7340 C   0  0  1  0  0  3  0  0  0  0  0  0
  160.4010  212.4680  147.6780 C   0  0  2  0  0  3  0  0  0  0  0  0
  163.3680  213.2070  148.0950 O   0  0  0  0  0  1  0  0  0  0  0  0
  162.5350  212.3200  147.4130 C   0  0  1  0  0  3  0  0  0  0  0  0
  161.2210  212.6040  145.4420 O   0  0  0  0  0  1  0  0  0  0  0  0
  159.8880  213.4500  148.5260 O   0  0  0  0  0  1  0  0  0  0  0  0
  1 21  1  6  0  0  0
  1 20  1  0  0  0  0
  1 19  1  0  0  0  0
  2  7  1  0  0  0  0
  3 10  2  0  0  0  0
  4 12  1  0  0  0  0
  5 18  2  0  0  0  0
  6  9  2  0  0  0  0
  7  4  2  0  0  0  0
  7  5  1  0  0  0  0
  9  4  1  0  0  0  0
 10 15  1  0  0  0  0
 11  5  1  0  0  0  0
 11 20  2  0  0  0  0
 12  8  2  0  0  0  0
 13 15  1  0  0  0  0
 14 10  1  0  0  0  0
 16  6  1  0  0  0  0
 17  6  1  0  0  0  0
 17  2  2  0  0  0  0
 18  8  1  0  0  0  0
 18 14  1  0  0  0  0
 19 13  1  0  0  0  0
 22 21  1  6  0  0  0
 23 27  1  6  0  0  0
 23 26  1  0  0  0  0
 23 24  1  0  0  0  0
 24 22  1  0  0  0  0
 24 28  1  1  0  0  0
 26 25  1  1  0  0  0
 26 22  1  0  0  0  0
M  END
>  <MODEL>
4

>  <REMARK>
 VINA RESULT:      -6.7      3.058      4.021
  Name = 
  2 active torsions:
  status: ('A' for Active; 'I' for Inactive)
    1  A    between atoms: C_1  and  C_2
    2  A    between atoms: C_2  and  C_3
                            x       y       z     vdW  Elec       q    Type
                         _______ _______ _______ _____ _____    ______ ____

>  <TORSDO>
F 2

$$$$
=
 OpenBabel11052422463D

 28 31  0  0  1  0  0  0  0  0999 V2000
  161.5810  203.1480  146.6800 C   0  0  1  0  0  3  0  0  0  0  0  0
  160.8530  206.8180  149.9670 C   0  0  0  0  0  3  0  0  0  0  0  0
  159.0170  201.9570  149.5880 O   0  0  0  0  0  0  0  0  0  0  0  0
  161.2070  205.8180  152.1530 C   0  0  0  0  0  0  0  0  0  0  0  0
  161.0800  204.3920  150.1750 C   0  0  0  0  0  0  0  0  0  0  0  0
  160.9960  208.2210  151.9370 C   0  0  0  0  0  0  0  0  0  0  0  0
  161.0360  205.6730  150.7560 C   0  0  0  0  0  0  0  0  0  0  0  0
  161.4120  203.4190  152.3860 C   0  0  0  0  0  3  0  0  0  0  0  0
  161.1850  207.0900  152.7340 C   0  0  0  0  0  3  0  0  0  0  0  0
  160.1820  201.4780  149.5470 C   0  0  0  0  0  0  0  0  0  0  0  0
  160.9840  204.2500  148.7500 N   0  0  0  0  0  0  0  0  0  0  0  0
  161.4070  204.6940  152.9540 C   0  0  0  0  0  3  0  0  0  0  0  0
  160.2710  201.0100  147.0970 C   0  0  0  0  0  2  0  0  0  0  0  0
  161.1750  201.9180  150.4830 N   0  0  0  0  0  2  0  0  0  0  0  0
  160.5390  200.4700  148.5030 C   0  0  0  0  0  2  0  0  0  0  0  0
  160.9730  209.5710  152.5580 C   0  0  0  0  0  1  0  0  0  0  0  0
  160.8310  208.0860  150.5550 C   0  0  0  0  0  3  0  0  0  0  0  0
  161.2210  203.2520  151.0120 C   0  0  0  0  0  0  0  0  0  0  0  0
  161.5180  201.6350  146.4690 C   0  0  0  0  0  2  0  0  0  0  0  0
  161.7980  203.4740  148.1110 C   0  0  0  0  0  3  0  0  0  0  0  0
  162.5760  203.8530  145.7430 C   0  0  0  0  0  2  0  0  0  0  0  0
  162.2900  205.2950  145.2660 C   0  0  2  0  0  3  0  0  0  0  0  0
  160.3800  206.2220  144.9930 C   0  0  1  0  0  3  0  0  0  0  0  0
  161.3480  206.0840  146.1570 C   0  0  2  0  0  3  0  0  0  0  0  0
  161.8430  206.2040  143.1130 O   0  0  0  0  0  1  0  0  0  0  0  0
  161.3060  205.3950  144.1150 C   0  0  1  0  0  3  0  0  0  0  0  0
  159.2160  205.5000  145.2610 O   0  0  0  0  0  1  0  0  0  0  0  0
  161.9120  207.3280  146.4430 O   0  0  0  0  0  1  0  0  0  0  0  0
  1 21  1  6  0  0  0
  1 20  1  0  0  0  0
  2 17  2  0  0  0  0
  2  7  1  0  0  0  0
  4  9  1  0  0  0  0
  4 12  1  0  0  0  0
  5  7  1  0  0  0  0
  5 18  2  0  0  0  0
  6 16  1  0  0  0  0
  6  9  2  0  0  0  0
  7  4  2  0  0  0  0
  8 12  2  0  0  0  0
 10  3  2  0  0  0  0
 10 14  1  0  0  0  0
 11  5  1  0  0  0  0
 13 15  1  0  0  0  0
 14 18  1  0  0  0  0
 15 10  1  0  0  0  0
 17  6  1  0  0  0  0
 18  8  1  0  0  0  0
 19  1  1  0  0  0  0
 19 13  1  0  0  0  0
 20 11  2  0  0  0  0
 22 21  1  1  0  0  0
 22 24  1  0  0  0  0
 23 27  1  1  0  0  0
 23 24  1  0  0  0  0
 24 28  1  6  0  0  0
 26 25  1  6  0  0  0
 26 23  1  0  0  0  0
 26 22  1  0  0  0  0
M  END
>  <MODEL>
5

>  <REMARK>
 VINA RESULT:      -6.5      4.140      7.858
  Name = 
  2 active torsions:
  status: ('A' for Active; 'I' for Inactive)
    1  A    between atoms: C_1  and  C_2
    2  A    between atoms: C_2  and  C_3
                            x       y       z     vdW  Elec       q    Type
                         _______ _______ _______ _____ _____    ______ ____

>  <TORSDO>
F 2

$$$$
=
 OpenBabel11052422463D

 28 31  0  0  1  0  0  0  0  0999 V2000
  161.2110  202.9920  147.4430 C   0  0  1  0  0  3  0  0  0  0  0  0
  161.3300  207.8080  148.7060 C   0  0  0  0  0  3  0  0  0  0  0  0
  159.4180  203.5580  151.0360 O   0  0  0  0  0  0  0  0  0  0  0  0
  162.1940  207.8680  150.9760 C   0  0  0  0  0  0  0  0  0  0  0  0
  161.5800  205.7300  149.9690 C   0  0  0  0  0  0  0  0  0  0  0  0
  161.9560  209.9210  149.7130 C   0  0  0  0  0  0  0  0  0  0  0  0
  161.6890  207.1300  149.8800 C   0  0  0  0  0  0  0  0  0  0  0  0
  162.4310  205.8270  152.2520 C   0  0  0  0  0  3  0  0  0  0  0  0
  162.3240  209.2570  150.8860 C   0  0  0  0  0  3  0  0  0  0  0  0
  160.5350  202.9770  150.9800 C   0  0  0  0  0  0  0  0  0  0  0  0
  161.1410  204.9730  148.8320 N   0  0  0  0  0  0  0  0  0  0  0  0
  162.5740  207.2120  152.1470 C   0  0  0  0  0  3  0  0  0  0  0  0
  160.0240  201.4460  149.0750 C   0  0  0  0  0  2  0  0  0  0  0  0
  161.7280  203.6690  151.3690 N   0  0  0  0  0  2  0  0  0  0  0  0
  160.6200  201.5720  150.4780 C   0  0  0  0  0  2  0  0  0  0  0  0
  162.0940  211.3970  149.6210 C   0  0  0  0  0  1  0  0  0  0  0  0
  161.4600  209.1970  148.6240 C   0  0  0  0  0  3  0  0  0  0  0  0
  161.9110  205.0820  151.1910 C   0  0  0  0  0  0  0  0  0  0  0  0
  161.0860  201.5670  147.9820 C   0  0  0  0  0  2  0  0  0  0  0  0
  161.7700  203.9010  148.4740 C   0  0  0  0  0  3  0  0  0  0  0  0
  161.9550  203.0740  146.1000 C   0  0  0  0  0  2  0  0  0  0  0  0
  161.2750  203.7460  144.8850 C   0  0  2  0  0  3  0  0  0  0  0  0
  160.1030  205.5380  144.8760 C   0  0  1  0  0  3  0  0  0  0  0  0
  161.5820  205.2230  144.7220 C   0  0  2  0  0  3  0  0  0  0  0  0
  159.0750  203.5780  143.9940 O   0  0  0  0  0  1  0  0  0  0  0  0
  159.8030  204.0610  145.0820 C   0  0  1  0  0  3  0  0  0  0  0  0
  159.8910  206.2320  146.0670 O   0  0  0  0  0  1  0  0  0  0  0  0
  161.9770  205.4730  143.4070 O   0  0  0  0  0  1  0  0  0  0  0  0
  1 21  1  6  0  0  0
  1 19  1  0  0  0  0
  1 20  1  0  0  0  0
  2  7  1  0  0  0  0
  4 12  1  0  0  0  0
  5 18  2  0  0  0  0
  6  9  2  0  0  0  0
  7  5  1  0  0  0  0
  7  4  2  0  0  0  0
  9  4  1  0  0  0  0
 10  3  2  0  0  0  0
 10 14  1  0  0  0  0
 11  5  1  0  0  0  0
 12  8  2  0  0  0  0
 13 15  1  0  0  0  0
 15 10  1  0  0  0  0
 16  6  1  0  0  0  0
 17  2  2  0  0  0  0
 17  6  1  0  0  0  0
 18 14  1  0  0  0  0
 18  8  1  0  0  0  0
 19 13  1  0  0  0  0
 20 11  2  0  0  0  0
 22 26  1  0  0  0  0
 22 21  1  1  0  0  0
 23 26  1  0  0  0  0
 23 27  1  1  0  0  0
 24 28  1  6  0  0  0
 24 23  1  0  0  0  0
 24 22  1  0  0  0  0
 26 25  1  6  0  0  0
M  END
>  <MODEL>
6

>  <REMARK>
 VINA RESULT:      -6.5      4.341      7.825
  Name = 
  2 active torsions:
  status: ('A' for Active; 'I' for Inactive)
    1  A    between atoms: C_1  and  C_2
    2  A    between atoms: C_2  and  C_3
                            x       y       z     vdW  Elec       q    Type
                         _______ _______ _______ _____ _____    ______ ____

>  <TORSDO>
F 2

$$$$
=
 OpenBabel11052422463D

 28 31  0  0  1  0  0  0  0  0999 V2000
  161.4730  205.4820  148.8590 C   0  0  1  0  0  3  0  0  0  0  0  0
  160.3390  209.2480  151.9150 C   0  0  0  0  0  3  0  0  0  0  0  0
  159.3310  204.1380  152.0300 O   0  0  0  0  0  0  0  0  0  0  0  0
  160.9900  208.5080  154.1360 C   0  0  0  0  0  0  0  0  0  0  0  0
  160.9850  206.9180  152.2820 C   0  0  0  0  0  0  0  0  0  0  0  0
  160.3640  210.8170  153.7610 C   0  0  0  0  0  0  0  0  0  0  0  0
  160.7610  208.2190  152.7690 C   0  0  0  0  0  0  0  0  0  0  0  0
  161.6120  206.2030  154.5270 C   0  0  0  0  0  3  0  0  0  0  0  0
  160.7900  209.8030  154.6220 C   0  0  0  0  0  3  0  0  0  0  0  0
  160.5560  203.8540  151.9380 C   0  0  0  0  0  0  0  0  0  0  0  0
  160.8260  206.6430  150.8820 N   0  0  0  0  0  0  0  0  0  0  0  0
  161.4270  207.5030  155.0000 C   0  0  0  0  0  3  0  0  0  0  0  0
  160.5710  203.2020  149.5280 C   0  0  0  0  0  2  0  0  0  0  0  0
  161.5150  204.5280  152.7620 N   0  0  0  0  0  2  0  0  0  0  0  0
  161.0120  202.8340  150.9460 C   0  0  0  0  0  2  0  0  0  0  0  0
  160.1510  212.1920  154.2820 C   0  0  0  0  0  1  0  0  0  0  0  0
  160.1390  210.5400  152.4090 C   0  0  0  0  0  3  0  0  0  0  0  0
  161.3680  205.8920  153.1870 C   0  0  0  0  0  0  0  0  0  0  0  0
  161.6530  203.9670  148.7650 C   0  0  0  0  0  2  0  0  0  0  0  0
  161.7190  205.9590  150.2430 C   0  0  0  0  0  3  0  0  0  0  0  0
  162.2740  206.2590  147.8020 C   0  0  0  0  0  2  0  0  0  0  0  0
  161.8480  206.1980  146.3180 C   0  0  2  0  0  3  0  0  0  0  0  0
  161.3350  204.4580  145.1810 C   0  0  1  0  0  3  0  0  0  0  0  0
  160.5640  205.4320  146.0570 C   0  0  2  0  0  3  0  0  0  0  0  0
  163.0810  205.8280  144.3170 O   0  0  0  0  0  1  0  0  0  0  0  0
  162.6270  205.2020  145.4780 C   0  0  1  0  0  3  0  0  0  0  0  0
  161.3640  203.2020  145.7880 O   0  0  0  0  0  1  0  0  0  0  0  0
  159.7160  206.2030  145.2610 O   0  0  0  0  0  1  0  0  0  0  0  0
  1 21  1  6  0  0  0
  1 20  1  0  0  0  0
  2 17  2  0  0  0  0
  2  7  1  0  0  0  0
  4  9  1  0  0  0  0
  4 12  1  0  0  0  0
  5  7  1  0  0  0  0
  5 18  2  0  0  0  0
  6 16  1  0  0  0  0
  6  9  2  0  0  0  0
  7  4  2  0  0  0  0
  8 12  2  0  0  0  0
 10  3  2  0  0  0  0
 10 14  1  0  0  0  0
 11  5  1  0  0  0  0
 13 15  1  0  0  0  0
 14 18  1  0  0  0  0
 15 10  1  0  0  0  0
 17  6  1  0  0  0  0
 18  8  1  0  0  0  0
 19  1  1  0  0  0  0
 19 13  1  0  0  0  0
 20 11  2  0  0  0  0
 22 21  1  1  0  0  0
 23 26  1  0  0  0  0
 23 27  1  1  0  0  0
 23 24  1  0  0  0  0
 24 28  1  6  0  0  0
 24 22  1  0  0  0  0
 26 25  1  6  0  0  0
 26 22  1  0  0  0  0
M  END
>  <MODEL>
7

>  <REMARK>
 VINA RESULT:      -6.2      3.428      7.726
  Name = 
  2 active torsions:
  status: ('A' for Active; 'I' for Inactive)
    1  A    between atoms: C_1  and  C_2
    2  A    between atoms: C_2  and  C_3
                            x       y       z     vdW  Elec       q    Type
                         _______ _______ _______ _____ _____    ______ ____

>  <TORSDO>
F 2

$$$$
=
 OpenBabel11052422463D

 28 31  0  0  1  0  0  0  0  0999 V2000
  160.6890  209.8740  152.5990 C   0  0  1  0  0  3  0  0  0  0  0  0
  162.0310  207.2360  148.5940 C   0  0  0  0  0  3  0  0  0  0  0  0
  162.6960  206.5310  153.7130 O   0  0  0  0  0  0  0  0  0  0  0  0
  161.3040  204.9590  149.0360 C   0  0  0  0  0  0  0  0  0  0  0  0
  161.2280  206.6240  150.8210 C   0  0  0  0  0  0  0  0  0  0  0  0
  162.0870  205.5770  146.8290 C   0  0  0  0  0  0  0  0  0  0  0  0
  161.5310  206.2800  149.4910 C   0  0  0  0  0  0  0  0  0  0  0  0
  160.5260  204.3260  151.2370 C   0  0  0  0  0  3  0  0  0  0  0  0
  161.5840  204.6170  147.7090 C   0  0  0  0  0  3  0  0  0  0  0  0
  161.4570  206.6150  153.9260 C   0  0  0  0  0  0  0  0  0  0  0  0
  161.3850  207.9800  151.2620 N   0  0  0  0  0  0  0  0  0  0  0  0
  160.7910  203.9980  149.9060 C   0  0  0  0  0  3  0  0  0  0  0  0
  161.4290  208.9370  154.8430 C   0  0  0  0  0  2  0  0  0  0  0  0
  160.5340  205.8900  153.1030 N   0  0  0  0  0  2  0  0  0  0  0  0
  160.9460  207.4960  155.0200 C   0  0  0  0  0  2  0  0  0  0  0  0
  162.3850  205.2090  145.4200 C   0  0  0  0  0  1  0  0  0  0  0  0
  162.3100  206.8850  147.2700 C   0  0  0  0  0  3  0  0  0  0  0  0
  160.7660  205.6170  151.7120 C   0  0  0  0  0  0  0  0  0  0  0  0
  160.4100  209.8020  154.1000 C   0  0  0  0  0  2  0  0  0  0  0  0
  160.4570  208.5570  151.9540 C   0  0  0  0  0  3  0  0  0  0  0  0
  159.9540  211.0270  151.8960 C   0  0  0  0  0  2  0  0  0  0  0  0
  160.7580  212.0730  151.0920 C   0  0  2  0  0  3  0  0  0  0  0  0
  160.1970  213.0130  149.2520 C   0  0  1  0  0  3  0  0  0  0  0  0
  159.9830  213.3250  150.7240 C   0  0  2  0  0  3  0  0  0  0  0  0
  162.2830  211.8620  149.2770 O   0  0  0  0  0  1  0  0  0  0  0  0
  160.9370  211.7370  149.6220 C   0  0  1  0  0  3  0  0  0  0  0  0
  158.9760  212.6940  148.6560 O   0  0  0  0  0  1  0  0  0  0  0  0
  160.7270  214.4520  151.0740 O   0  0  0  0  0  1  0  0  0  0  0  0
  1 21  1  6  0  0  0
  1 19  1  0  0  0  0
  2  7  1  0  0  0  0
  3 10  2  0  0  0  0
  4  7  2  0  0  0  0
  4 12  1  0  0  0  0
  5 11  1  0  0  0  0
  5 18  2  0  0  0  0
  6 17  1  0  0  0  0
  6  9  2  0  0  0  0
  7  5  1  0  0  0  0
  8 18  1  0  0  0  0
  9  4  1  0  0  0  0
 10 15  1  0  0  0  0
 11 20  2  0  0  0  0
 12  8  2  0  0  0  0
 13 15  1  0  0  0  0
 14 10  1  0  0  0  0
 16  6  1  0  0  0  0
 17  2  2  0  0  0  0
 18 14  1  0  0  0  0
 19 13  1  0  0  0  0
 20  1  1  0  0  0  0
 22 21  1  1  0  0  0
 23 27  1  6  0  0  0
 23 26  1  0  0  0  0
 23 24  1  0  0  0  0
 24 28  1  1  0  0  0
 24 22  1  0  0  0  0
 26 25  1  6  0  0  0
 26 22  1  0  0  0  0
M  END
>  <MODEL>
8

>  <REMARK>
 VINA RESULT:      -6.0      1.535      2.033
  Name = 
  2 active torsions:
  status: ('A' for Active; 'I' for Inactive)
    1  A    between atoms: C_1  and  C_2
    2  A    between atoms: C_2  and  C_3
                            x       y       z     vdW  Elec       q    Type
                         _______ _______ _______ _____ _____    ______ ____

>  <TORSDO>
F 2

$$$$
=
 OpenBabel11052422463D

 28 31  0  0  1  0  0  0  0  0999 V2000
  161.1020  207.7470  151.9470 C   0  0  1  0  0  3  0  0  0  0  0  0
  162.0950  206.2060  147.3170 C   0  0  0  0  0  3  0  0  0  0  0  0
  162.8270  204.0770  152.0160 O   0  0  0  0  0  0  0  0  0  0  0  0
  161.1780  203.9600  147.1640 C   0  0  0  0  0  0  0  0  0  0  0  0
  161.2990  205.0740  149.3330 C   0  0  0  0  0  0  0  0  0  0  0  0
  161.9550  205.0930  145.1690 C   0  0  0  0  0  0  0  0  0  0  0  0
  161.5350  205.0840  147.9460 C   0  0  0  0  0  0  0  0  0  0  0  0
  160.4030  202.8140  149.1470 C   0  0  0  0  0  3  0  0  0  0  0  0
  161.3900  203.9720  145.7820 C   0  0  0  0  0  3  0  0  0  0  0  0
  161.6070  204.1990  152.3050 C   0  0  0  0  0  0  0  0  0  0  0  0
  161.5890  206.2420  150.1160 N   0  0  0  0  0  0  0  0  0  0  0  0
  160.6020  202.8420  147.7660 C   0  0  0  0  0  3  0  0  0  0  0  0
  161.8120  206.1760  153.8150 C   0  0  0  0  0  2  0  0  0  0  0  0
  160.6010  203.8030  151.3640 N   0  0  0  0  0  2  0  0  0  0  0  0
  161.2060  204.7850  153.6200 C   0  0  0  0  0  2  0  0  0  0  0  0
  162.1810  205.1020  143.7010 C   0  0  0  0  0  1  0  0  0  0  0  0
  162.3070  206.2090  145.9360 C   0  0  0  0  0  3  0  0  0  0  0  0
  160.7710  203.9030  149.9420 C   0  0  0  0  0  0  0  0  0  0  0  0
  160.8560  207.2900  153.3850 C   0  0  0  0  0  2  0  0  0  0  0  0
  160.7350  206.6800  150.9830 C   0  0  0  0  0  3  0  0  0  0  0  0
  160.4560  209.1030  151.6190 C   0  0  0  0  0  2  0  0  0  0  0  0
  160.8890  210.3670  152.3960 C   0  0  2  0  0  3  0  0  0  0  0  0
  160.0750  211.1090  154.2320 C   0  0  1  0  0  3  0  0  0  0  0  0
  161.1860  210.1380  153.8670 C   0  0  2  0  0  3  0  0  0  0  0  0
  160.0810  212.6050  152.3790 O   0  0  0  0  0  1  0  0  0  0  0  0
  159.7510  211.3040  152.7600 C   0  0  1  0  0  3  0  0  0  0  0  0
  159.0340  210.4200  154.8570 O   0  0  0  0  0  1  0  0  0  0  0  0
  162.4220  210.7030  154.1850 O   0  0  0  0  0  1  0  0  0  0  0  0
  1 21  1  6  0  0  0
  1 19  1  0  0  0  0
  2  7  1  0  0  0  0
  3 10  2  0  0  0  0
  4 12  2  0  0  0  0
  4  7  1  0  0  0  0
  5 18  1  0  0  0  0
  5 11  1  0  0  0  0
  6  9  2  0  0  0  0
  6 17  1  0  0  0  0
  7  5  2  0  0  0  0
  8 18  2  0  0  0  0
  9  4  1  0  0  0  0
 10 15  1  0  0  0  0
 11 20  2  0  0  0  0
 12  8  1  0  0  0  0
 14 10  1  0  0  0  0
 15 13  1  0  0  0  0
 16  6  1  0  0  0  0
 17  2  2  0  0  0  0
 18 14  1  0  0  0  0
 19 13  1  0  0  0  0
 20  1  1  0  0  0  0
 22 21  1  1  0  0  0
 22 26  1  0  0  0  0
 22 24  1  0  0  0  0
 23 27  1  1  0  0  0
 24 28  1  6  0  0  0
 24 23  1  0  0  0  0
 26 25  1  6  0  0  0
 26 23  1  0  0  0  0
M  END
>  <MODEL>
9

>  <REMARK>
 VINA RESULT:      -5.9      1.608      2.312
  Name = 
  2 active torsions:
  status: ('A' for Active; 'I' for Inactive)
    1  A    between atoms: C_1  and  C_2
    2  A    between atoms: C_2  and  C_3
                            x       y       z     vdW  Elec       q    Type
                         _______ _______ _______ _____ _____    ______ ____

>  <TORSDO>
F 2

$$$$
