=
 OpenBabel11062409203D

 37 42  0  0  1  0  0  0  0  0999 V2000
  162.1730  210.0360  152.5780 C   0  0  0  0  0  2  0  0  0  0  0  0
  160.8270  208.0290  152.0140 C   0  0  0  0  0  2  0  0  0  0  0  0
  160.6300  207.6170  153.4650 C   0  0  2  0  0  3  0  0  0  0  0  0
  160.9330  209.9290  153.4350 C   0  0  2  0  0  0  0  0  0  0  0  0
  159.8490  208.8380  155.2900 C   0  0  0  0  0  1  0  0  0  0  0  0
  160.9340  208.7580  154.3210 N   0  0  0  0  0  0  0  0  0  0  0  0
  160.8580  209.5390  151.9840 C   0  0  1  0  0  3  0  0  0  0  0  0
  161.7370  206.2320  153.8710 S   0  0  0  0  0  0  0  0  0  0  0  0
  161.1080  204.1870  152.1210 C   0  0  0  0  0  3  0  0  0  0  0  0
  160.9870  203.6090  150.8550 C   0  0  0  0  0  3  0  0  0  0  0  0
  161.9260  206.2280  151.1110 C   0  0  0  0  0  3  0  0  0  0  0  0
  161.5740  205.4970  152.2500 C   0  0  0  0  0  0  0  0  0  0  0  0
  161.3330  204.3340  149.7010 C   0  0  0  0  0  0  0  0  0  0  0  0
  161.8050  205.6490  149.8450 C   0  0  0  0  0  3  0  0  0  0  0  0
  160.9270  202.3490  148.2210 C   0  0  0  0  0  3  0  0  0  0  0  0
  161.2140  203.7190  148.3580 C   0  0  0  0  0  0  0  0  0  0  0  0
  161.3860  204.4930  147.1980 C   0  0  0  0  0  3  0  0  0  0  0  0
  161.4900  204.8930  144.4990 Cl  0  0  0  0  0  0  0  0  0  0  0  0
  160.9930  202.5500  145.8100 C   0  0  0  0  0  3  0  0  0  0  0  0
  161.2760  203.9120  145.9320 C   0  0  0  0  0  0  0  0  0  0  0  0
  160.8180  201.7690  146.9540 C   0  0  0  0  0  3  0  0  0  0  0  0
  160.3810  211.2850  153.8770 C   0  0  0  0  0  2  0  0  0  0  0  0
  158.5100  211.7540  152.3250 C   0  0  0  0  0  2  0  0  0  0  0  0
  159.9410  212.1140  152.6760 C   0  0  1  0  0  3  0  0  0  0  0  0
  158.8020  213.1120  152.9380 C   0  0  2  0  0  3  0  0  0  0  0  0
  158.8980  214.4530  155.1970 C   0  0  0  0  0  2  0  0  0  0  0  0
  159.1470  214.0870  156.6660 C   0  0  1  0  0  3  0  0  0  0  0  0
  156.1190  213.7940  155.6990 C   0  0  0  0  0  0  0  0  0  0  0  0
  158.0470  213.2070  157.2590 C   0  0  0  0  0  2  0  0  0  0  0  0
  156.6660  213.8320  157.1060 C   0  0  0  0  0  2  0  0  0  0  0  0
  156.7920  213.1020  154.5290 C   0  0  1  0  0  3  0  0  0  0  0  0
  154.9210  214.3360  155.4940 C   0  0  0  0  0  2  0  0  0  0  0  0
  158.3190  213.2730  154.4010 C   0  0  1  0  0  3  0  0  0  0  0  0
  156.7150  210.9350  155.5720 O   0  0  0  0  0  1  0  0  0  0  0  0
  156.3720  211.6400  154.4150 C   0  0  0  0  0  2  0  0  0  0  0  0
  160.2740  211.9420  157.2600 C   0  0  0  0  0  1  0  0  0  0  0  0
  160.4830  213.3780  156.8170 C   0  0  0  0  0  2  0  0  0  0  0  0
  1  4  1  0  0  0  0
  2  3  1  0  0  0  0
  3  8  1  1  0  0  0
  3  6  1  0  0  0  0
  4 22  1  1  0  0  0
  4  6  1  0  0  0  0
  6  5  1  0  0  0  0
  7  2  1  1  0  0  0
  7  1  1  0  0  0  0
  7  4  1  0  0  0  0
  9 12  1  0  0  0  0
 10  9  2  0  0  0  0
 11 12  2  0  0  0  0
 12  8  1  0  0  0  0
 13 14  2  0  0  0  0
 13 10  1  0  0  0  0
 14 11  1  0  0  0  0
 15 16  1  0  0  0  0
 16 13  1  0  0  0  0
 17 16  2  0  0  0  0
 18 20  1  0  0  0  0
 19 20  2  0  0  0  0
 19 21  1  0  0  0  0
 20 17  1  0  0  0  0
 21 15  2  0  0  0  0
 23 24  1  0  0  0  0
 24 25  1  0  0  0  0
 24 22  1  1  0  0  0
 25 23  1  6  0  0  0
 25 33  1  0  0  0  0
 26 27  1  0  0  0  0
 27 37  1  6  0  0  0
 27 29  1  0  0  0  0
 28 30  1  0  0  0  0
 30 29  1  0  0  0  0
 31 35  1  1  0  0  0
 31 28  1  0  0  0  0
 32 28  2  0  0  0  0
 33 31  1  0  0  0  0
 33 26  1  6  0  0  0
 35 34  1  0  0  0  0
 37 36  1  0  0  0  0
M  END
>  <MODEL>
1

>  <REMARK>
 VINA RESULT:      -8.3      0.000      0.000
  Name = 
  8 active torsions:
  status: ('A' for Active; 'I' for Inactive)
    1  A    between atoms: S_4  and  C_16
    2  A    between atoms: S_4  and  C_28
    3  A    between atoms: C_5  and  C_23
    4  A    between atoms: C_6  and  C_31
    5  A    between atoms: C_20  and  C_32
    6  A    between atoms: C_21  and  C_32
    7  A    between atoms: C_27  and  C_33
    8  A    between atoms: C_29  and  C_36
                            x       y       z     vdW  Elec       q    Type
                         _______ _______ _______ _____ _____    ______ ____

>  <TORSDO>
F 8

$$$$
=
 OpenBabel11062409203D

 37 42  0  0  1  0  0  0  0  0999 V2000
  162.3100  205.8640  153.1060 C   0  0  0  0  0  2  0  0  0  0  0  0
  160.5070  207.4030  153.8390 C   0  0  0  0  0  2  0  0  0  0  0  0
  161.1350  208.6260  153.1880 C   0  0  2  0  0  3  0  0  0  0  0  0
  161.8400  206.7590  151.9820 C   0  0  2  0  0  0  0  0  0  0  0  0
  161.8800  208.9610  151.0050 C   0  0  0  0  0  1  0  0  0  0  0  0
  162.1230  208.1810  152.2110 N   0  0  0  0  0  0  0  0  0  0  0  0
  160.8330  206.2180  152.9590 C   0  0  1  0  0  3  0  0  0  0  0  0
  161.9410  209.6550  154.4520 S   0  0  0  0  0  0  0  0  0  0  0  0
  159.9560  210.7630  156.0270 C   0  0  0  0  0  3  0  0  0  0  0  0
  158.8030  211.5200  156.2470 C   0  0  0  0  0  3  0  0  0  0  0  0
  159.8250  211.2530  153.6610 C   0  0  0  0  0  3  0  0  0  0  0  0
  160.4700  210.6320  154.7350 C   0  0  0  0  0  0  0  0  0  0  0  0
  158.1460  212.1530  155.1780 C   0  0  0  0  0  0  0  0  0  0  0  0
  158.6710  212.0100  153.8820 C   0  0  0  0  0  3  0  0  0  0  0  0
  156.5750  213.3760  156.7040 C   0  0  0  0  0  3  0  0  0  0  0  0
  156.9180  212.9490  155.4100 C   0  0  0  0  0  0  0  0  0  0  0  0
  156.0730  213.2890  154.3390 C   0  0  0  0  0  3  0  0  0  0  0  0
  153.8750  214.4530  153.2130 Cl  0  0  0  0  0  0  0  0  0  0  0  0
  154.5840  214.4530  155.8510 C   0  0  0  0  0  3  0  0  0  0  0  0
  154.9130  214.0370  154.5590 C   0  0  0  0  0  0  0  0  0  0  0  0
  155.4150  214.1240  156.9230 C   0  0  0  0  0  3  0  0  0  0  0  0
  161.9650  206.1150  150.6000 C   0  0  0  0  0  2  0  0  0  0  0  0
  161.7550  206.8620  148.2490 C   0  0  0  0  0  2  0  0  0  0  0  0
  161.0540  206.8060  149.5920 C   0  0  1  0  0  3  0  0  0  0  0  0
  160.5690  205.9310  148.4250 C   0  0  2  0  0  3  0  0  0  0  0  0
  160.0450  203.5180  149.3280 C   0  0  0  0  0  2  0  0  0  0  0  0
  160.8560  202.4250  150.0340 C   0  0  1  0  0  3  0  0  0  0  0  0
  161.0290  202.3840  146.8460 C   0  0  0  0  0  0  0  0  0  0  0  0
  161.9590  201.8340  149.1540 C   0  0  0  0  0  2  0  0  0  0  0  0
  161.4180  201.3080  147.8310 C   0  0  0  0  0  2  0  0  0  0  0  0
  161.2460  203.8700  147.0610 C   0  0  1  0  0  3  0  0  0  0  0  0
  160.5370  201.9910  145.6740 C   0  0  0  0  0  2  0  0  0  0  0  0
  160.9340  204.4260  148.4640 C   0  0  1  0  0  3  0  0  0  0  0  0
  162.4870  205.1230  145.4240 O   0  0  0  0  0  1  0  0  0  0  0  0
  162.6150  204.3220  146.5610 C   0  0  0  0  0  2  0  0  0  0  0  0
  160.4520  202.9990  152.4280 C   0  0  0  0  0  1  0  0  0  0  0  0
  161.4780  202.9660  151.3110 C   0  0  0  0  0  2  0  0  0  0  0  0
  3  2  1  0  0  0  0
  3  8  1  1  0  0  0
  4 22  1  6  0  0  0
  4  6  1  0  0  0  0
  4  7  1  0  0  0  0
  4  1  1  0  0  0  0
  5  6  1  0  0  0  0
  6  3  1  0  0  0  0
  7  1  1  1  0  0  0
  7  2  1  0  0  0  0
  8 12  1  0  0  0  0
  9 10  1  0  0  0  0
 11 14  2  0  0  0  0
 11 12  1  0  0  0  0
 12  9  2  0  0  0  0
 13 16  1  0  0  0  0
 13 10  2  0  0  0  0
 14 13  1  0  0  0  0
 15 21  1  0  0  0  0
 16 15  2  0  0  0  0
 17 20  2  0  0  0  0
 17 16  1  0  0  0  0
 18 20  1  0  0  0  0
 19 21  2  0  0  0  0
 20 19  1  0  0  0  0
 23 24  1  0  0  0  0
 24 22  1  1  0  0  0
 25 23  1  6  0  0  0
 25 33  1  0  0  0  0
 25 24  1  0  0  0  0
 26 27  1  0  0  0  0
 27 37  1  1  0  0  0
 28 31  1  0  0  0  0
 28 30  1  0  0  0  0
 29 27  1  0  0  0  0
 30 29  1  0  0  0  0
 31 35  1  1  0  0  0
 31 33  1  0  0  0  0
 32 28  2  0  0  0  0
 33 26  1  6  0  0  0
 34 35  1  0  0  0  0
 37 36  1  0  0  0  0
M  END
>  <MODEL>
2

>  <REMARK>
 VINA RESULT:      -7.8      3.594     10.897
  Name = 
  8 active torsions:
  status: ('A' for Active; 'I' for Inactive)
    1  A    between atoms: S_4  and  C_16
    2  A    between atoms: S_4  and  C_28
    3  A    between atoms: C_5  and  C_23
    4  A    between atoms: C_6  and  C_31
    5  A    between atoms: C_20  and  C_32
    6  A    between atoms: C_21  and  C_32
    7  A    between atoms: C_27  and  C_33
    8  A    between atoms: C_29  and  C_36
                            x       y       z     vdW  Elec       q    Type
                         _______ _______ _______ _____ _____    ______ ____

>  <TORSDO>
F 8

$$$$
=
 OpenBabel11062409203D

 37 42  0  0  1  0  0  0  0  0999 V2000
  161.5420  210.2560  152.6780 C   0  0  0  0  0  2  0  0  0  0  0  0
  160.5020  208.0320  152.3170 C   0  0  0  0  0  2  0  0  0  0  0  0
  160.4810  207.6790  153.7970 C   0  0  2  0  0  3  0  0  0  0  0  0
  160.4010  210.0040  153.6370 C   0  0  2  0  0  0  0  0  0  0  0  0
  159.6470  208.8640  155.6220 C   0  0  0  0  0  1  0  0  0  0  0  0
  160.6570  208.9020  154.5730 N   0  0  0  0  0  0  0  0  0  0  0  0
  160.2840  209.5240  152.2160 C   0  0  1  0  0  3  0  0  0  0  0  0
  161.8250  206.5130  154.1740 S   0  0  0  0  0  0  0  0  0  0  0  0
  162.3360  206.1420  151.4820 C   0  0  0  0  0  3  0  0  0  0  0  0
  162.2020  205.4840  150.2560 C   0  0  0  0  0  3  0  0  0  0  0  0
  160.8460  204.5350  152.5070 C   0  0  0  0  0  3  0  0  0  0  0  0
  161.6610  205.6650  152.6080 C   0  0  0  0  0  0  0  0  0  0  0  0
  161.3890  204.3430  150.1410 C   0  0  0  0  0  0  0  0  0  0  0  0
  160.7120  203.8770  151.2800 C   0  0  0  0  0  3  0  0  0  0  0  0
  160.8750  202.2940  148.7880 C   0  0  0  0  0  3  0  0  0  0  0  0
  161.2400  203.6510  148.8400 C   0  0  0  0  0  0  0  0  0  0  0  0
  161.4600  204.3390  147.6340 C   0  0  0  0  0  3  0  0  0  0  0  0
  161.5980  204.5580  144.9160 Cl  0  0  0  0  0  0  0  0  0  0  0  0
  160.9610  202.3360  146.3700 C   0  0  0  0  0  3  0  0  0  0  0  0
  161.3220  203.6850  146.4060 C   0  0  0  0  0  0  0  0  0  0  0  0
  160.7370  201.6410  147.5600 C   0  0  0  0  0  3  0  0  0  0  0  0
  159.6700  211.2790  154.0610 C   0  0  0  0  0  2  0  0  0  0  0  0
  159.0540  212.5350  152.0180 C   0  0  0  0  0  2  0  0  0  0  0  0
  160.0470  212.4500  153.1600 C   0  0  1  0  0  3  0  0  0  0  0  0
  159.0280  213.5990  153.1010 C   0  0  2  0  0  3  0  0  0  0  0  0
  156.5980  212.7090  153.5610 C   0  0  0  0  0  2  0  0  0  0  0  0
  155.2700  213.3510  153.9820 C   0  0  1  0  0  3  0  0  0  0  0  0
  157.2010  212.5440  156.3930 C   0  0  0  0  0  0  0  0  0  0  0  0
  155.3050  213.9270  155.3980 C   0  0  0  0  0  2  0  0  0  0  0  0
  155.7310  212.8900  156.4300 C   0  0  0  0  0  2  0  0  0  0  0  0
  158.2260  213.2260  155.5070 C   0  0  1  0  0  3  0  0  0  0  0  0
  157.6370  211.6350  157.2600 C   0  0  0  0  0  2  0  0  0  0  0  0
  157.8080  213.5180  154.0520 C   0  0  1  0  0  3  0  0  0  0  0  0
  160.0840  214.1480  156.7260 O   0  0  0  0  0  1  0  0  0  0  0  0
  158.8340  214.4520  156.1810 C   0  0  0  0  0  2  0  0  0  0  0  0
  155.5800  214.2570  151.6780 C   0  0  0  0  0  1  0  0  0  0  0  0
  154.8800  214.4530  153.0100 C   0  0  0  0  0  2  0  0  0  0  0  0
  1  4  1  0  0  0  0
  2  3  1  0  0  0  0
  3  8  1  6  0  0  0
  3  6  1  0  0  0  0
  4 22  1  1  0  0  0
  4  6  1  0  0  0  0
  6  5  1  0  0  0  0
  7  2  1  1  0  0  0
  7  1  1  0  0  0  0
  7  4  1  0  0  0  0
  9 12  1  0  0  0  0
 10  9  2  0  0  0  0
 11 12  2  0  0  0  0
 12  8  1  0  0  0  0
 13 10  1  0  0  0  0
 13 14  2  0  0  0  0
 14 11  1  0  0  0  0
 15 16  1  0  0  0  0
 16 13  1  0  0  0  0
 17 16  2  0  0  0  0
 18 20  1  0  0  0  0
 19 20  2  0  0  0  0
 19 21  1  0  0  0  0
 20 17  1  0  0  0  0
 21 15  2  0  0  0  0
 23 24  1  0  0  0  0
 24 22  1  1  0  0  0
 25 23  1  6  0  0  0
 25 24  1  0  0  0  0
 25 33  1  0  0  0  0
 26 27  1  0  0  0  0
 27 37  1  6  0  0  0
 27 29  1  0  0  0  0
 28 30  1  0  0  0  0
 28 32  2  0  0  0  0
 29 30  1  0  0  0  0
 31 35  1  1  0  0  0
 31 28  1  0  0  0  0
 33 26  1  6  0  0  0
 33 31  1  0  0  0  0
 35 34  1  0  0  0  0
 36 37  1  0  0  0  0
M  END
>  <MODEL>
3

>  <REMARK>
 VINA RESULT:      -7.3      1.278      2.588
  Name = 
  8 active torsions:
  status: ('A' for Active; 'I' for Inactive)
    1  A    between atoms: S_4  and  C_16
    2  A    between atoms: S_4  and  C_28
    3  A    between atoms: C_5  and  C_23
    4  A    between atoms: C_6  and  C_31
    5  A    between atoms: C_20  and  C_32
    6  A    between atoms: C_21  and  C_32
    7  A    between atoms: C_27  and  C_33
    8  A    between atoms: C_29  and  C_36
                            x       y       z     vdW  Elec       q    Type
                         _______ _______ _______ _____ _____    ______ ____

>  <TORSDO>
F 8

$$$$
=
 OpenBabel11062409203D

 37 42  0  0  1  0  0  0  0  0999 V2000
  162.2470  207.0980  151.9800 C   0  0  0  0  0  2  0  0  0  0  0  0
  160.8460  209.1320  151.7330 C   0  0  0  0  0  2  0  0  0  0  0  0
  161.4400  209.5110  150.3840 C   0  0  2  0  0  3  0  0  0  0  0  0
  161.6340  207.1980  150.6020 C   0  0  2  0  0  0  0  0  0  0  0  0
  161.6940  208.2550  148.4370 C   0  0  0  0  0  1  0  0  0  0  0  0
  162.1200  208.3460  149.8280 N   0  0  0  0  0  0  0  0  0  0  0  0
  160.8250  207.6220  151.7970 C   0  0  1  0  0  3  0  0  0  0  0  0
  162.6260  210.8740  150.5920 S   0  0  0  0  0  0  0  0  0  0  0  0
  160.8730  211.7460  148.6390 C   0  0  0  0  0  3  0  0  0  0  0  0
  160.5490  212.3110  147.4040 C   0  0  0  0  0  3  0  0  0  0  0  0
  163.2260  212.0250  148.1490 C   0  0  0  0  0  3  0  0  0  0  0  0
  162.2110  211.6060  149.0140 C   0  0  0  0  0  0  0  0  0  0  0  0
  161.5590  212.7410  146.5260 C   0  0  0  0  0  0  0  0  0  0  0  0
  162.9010  212.5900  146.9120 C   0  0  0  0  0  3  0  0  0  0  0  0
  159.9240  213.8320  144.9660 C   0  0  0  0  0  3  0  0  0  0  0  0
  161.2150  213.3310  145.2110 C   0  0  0  0  0  0  0  0  0  0  0  0
  162.1740  213.4020  144.1860 C   0  0  0  0  0  3  0  0  0  0  0  0
  163.0560  214.0390  141.6810 Cl  0  0  0  0  0  0  0  0  0  0  0  0
  160.5610  214.4480  142.7140 C   0  0  0  0  0  3  0  0  0  0  0  0
  161.8480  213.9570  142.9450 C   0  0  0  0  0  0  0  0  0  0  0  0
  159.6000  214.3860  143.7240 C   0  0  0  0  0  3  0  0  0  0  0  0
  161.3630  205.8370  149.9580 C   0  0  0  0  0  2  0  0  0  0  0  0
  160.3410  203.9140  151.1360 C   0  0  0  0  0  2  0  0  0  0  0  0
  161.6210  204.7040  150.9450 C   0  0  1  0  0  3  0  0  0  0  0  0
  161.4940  203.2830  150.3740 C   0  0  2  0  0  3  0  0  0  0  0  0
  162.3540  203.6990  147.9250 C   0  0  0  0  0  2  0  0  0  0  0  0
  161.7680  204.3500  146.6660 C   0  0  1  0  0  3  0  0  0  0  0  0
  161.0330  201.2670  147.0560 C   0  0  0  0  0  0  0  0  0  0  0  0
  160.5750  203.5830  146.0950 C   0  0  0  0  0  2  0  0  0  0  0  0
  160.9100  202.1220  145.8180 C   0  0  0  0  0  2  0  0  0  0  0  0
  160.7440  201.7440  148.4670 C   0  0  1  0  0  3  0  0  0  0  0  0
  161.3370  199.9840  146.8840 C   0  0  0  0  0  2  0  0  0  0  0  0
  161.2580  203.1460  148.8500 C   0  0  1  0  0  3  0  0  0  0  0  0
  159.1440  200.5880  149.8430 O   0  0  0  0  0  1  0  0  0  0  0  0
  159.2770  201.5530  148.8410 C   0  0  0  0  0  2  0  0  0  0  0  0
  160.4350  206.2970  145.8570 C   0  0  0  0  0  1  0  0  0  0  0  0
  161.3440  205.7800  146.9560 C   0  0  0  0  0  2  0  0  0  0  0  0
  3  8  1  1  0  0  0
  3  2  1  0  0  0  0
  4 22  1  6  0  0  0
  4  7  1  0  0  0  0
  4  1  1  0  0  0  0
  5  6  1  0  0  0  0
  6  3  1  0  0  0  0
  6  4  1  0  0  0  0
  7  2  1  6  0  0  0
  7  1  1  0  0  0  0
  9 12  1  0  0  0  0
 10  9  2  0  0  0  0
 11 12  2  0  0  0  0
 12  8  1  0  0  0  0
 13 14  2  0  0  0  0
 13 10  1  0  0  0  0
 14 11  1  0  0  0  0
 15 16  1  0  0  0  0
 16 13  1  0  0  0  0
 17 16  2  0  0  0  0
 18 20  1  0  0  0  0
 19 20  2  0  0  0  0
 19 21  1  0  0  0  0
 20 17  1  0  0  0  0
 21 15  2  0  0  0  0
 24 22  1  6  0  0  0
 24 23  1  0  0  0  0
 25 24  1  0  0  0  0
 25 23  1  1  0  0  0
 27 37  1  1  0  0  0
 27 26  1  0  0  0  0
 28 31  1  0  0  0  0
 29 27  1  0  0  0  0
 30 29  1  0  0  0  0
 30 28  1  0  0  0  0
 31 35  1  6  0  0  0
 31 33  1  0  0  0  0
 32 28  2  0  0  0  0
 33 26  1  6  0  0  0
 33 25  1  0  0  0  0
 35 34  1  0  0  0  0
 36 37  1  0  0  0  0
M  END
>  <MODEL>
4

>  <REMARK>
 VINA RESULT:      -6.8      5.146     10.495
  Name = 
  8 active torsions:
  status: ('A' for Active; 'I' for Inactive)
    1  A    between atoms: S_4  and  C_16
    2  A    between atoms: S_4  and  C_28
    3  A    between atoms: C_5  and  C_23
    4  A    between atoms: C_6  and  C_31
    5  A    between atoms: C_20  and  C_32
    6  A    between atoms: C_21  and  C_32
    7  A    between atoms: C_27  and  C_33
    8  A    between atoms: C_29  and  C_36
                            x       y       z     vdW  Elec       q    Type
                         _______ _______ _______ _____ _____    ______ ____

>  <TORSDO>
F 8

$$$$
=
 OpenBabel11062409203D

 37 42  0  0  1  0  0  0  0  0999 V2000
  159.2750  209.5730  155.5220 C   0  0  0  0  0  2  0  0  0  0  0  0
  161.6660  208.9300  155.3390 C   0  0  0  0  0  2  0  0  0  0  0  0
  161.4650  208.1220  154.0640 C   0  0  2  0  0  3  0  0  0  0  0  0
  159.8040  209.7590  154.1190 C   0  0  2  0  0  0  0  0  0  0  0  0
  160.4520  208.7080  152.0490 C   0  0  0  0  0  1  0  0  0  0  0  0
  160.1890  208.5010  153.4670 N   0  0  0  0  0  0  0  0  0  0  0  0
  160.6940  210.0860  155.2870 C   0  0  1  0  0  3  0  0  0  0  0  0
  161.4590  206.3460  154.4520 S   0  0  0  0  0  0  0  0  0  0  0  0
  162.4410  206.4300  151.8680 C   0  0  0  0  0  3  0  0  0  0  0  0
  162.4640  206.0640  150.5200 C   0  0  0  0  0  3  0  0  0  0  0  0
  160.5640  204.9490  152.2380 C   0  0  0  0  0  3  0  0  0  0  0  0
  161.4940  205.8700  152.7280 C   0  0  0  0  0  0  0  0  0  0  0  0
  161.5370  205.1360  150.0140 C   0  0  0  0  0  0  0  0  0  0  0  0
  160.5860  204.5840  150.8890 C   0  0  0  0  0  3  0  0  0  0  0  0
  161.8850  205.6980  147.5940 C   0  0  0  0  0  3  0  0  0  0  0  0
  161.5550  204.7550  148.5830 C   0  0  0  0  0  0  0  0  0  0  0  0
  161.2410  203.4430  148.1870 C   0  0  0  0  0  3  0  0  0  0  0  0
  160.8640  201.4460  146.3640 Cl  0  0  0  0  0  0  0  0  0  0  0  0
  161.5830  204.0330  145.8650 C   0  0  0  0  0  3  0  0  0  0  0  0
  161.2550  203.0840  146.8360 C   0  0  0  0  0  0  0  0  0  0  0  0
  161.8980  205.3390  146.2430 C   0  0  0  0  0  3  0  0  0  0  0  0
  159.1190  210.8950  153.3570 C   0  0  0  0  0  2  0  0  0  0  0  0
  159.5110  213.0140  152.1380 C   0  0  0  0  0  2  0  0  0  0  0  0
  160.0430  212.1000  153.2240 C   0  0  1  0  0  3  0  0  0  0  0  0
  159.4220  213.4570  153.5880 C   0  0  2  0  0  3  0  0  0  0  0  0
  156.9220  212.6680  153.3940 C   0  0  0  0  0  2  0  0  0  0  0  0
  155.5580  213.3690  153.4250 C   0  0  1  0  0  3  0  0  0  0  0  0
  156.7330  212.5790  156.2870 C   0  0  0  0  0  0  0  0  0  0  0  0
  155.2350  213.9900  154.7840 C   0  0  0  0  0  2  0  0  0  0  0  0
  155.3240  212.9750  155.9160 C   0  0  0  0  0  2  0  0  0  0  0  0
  157.9870  213.1950  155.6950 C   0  0  1  0  0  3  0  0  0  0  0  0
  156.8800  211.6850  157.2610 C   0  0  0  0  0  2  0  0  0  0  0  0
  157.9890  213.4510  154.1750 C   0  0  1  0  0  3  0  0  0  0  0  0
  159.6450  214.1670  157.1420 O   0  0  0  0  0  1  0  0  0  0  0  0
  158.4420  214.4220  156.4790 C   0  0  0  0  0  2  0  0  0  0  0  0
  156.0870  213.9460  151.0560 C   0  0  0  0  0  1  0  0  0  0  0  0
  155.4920  214.4490  152.3580 C   0  0  0  0  0  2  0  0  0  0  0  0
  3  8  1  1  0  0  0
  3  2  1  0  0  0  0
  4 22  1  6  0  0  0
  4  7  1  0  0  0  0
  4  1  1  0  0  0  0
  5  6  1  0  0  0  0
  6  3  1  0  0  0  0
  6  4  1  0  0  0  0
  7  2  1  1  0  0  0
  7  1  1  0  0  0  0
  9 12  1  0  0  0  0
 10  9  2  0  0  0  0
 11 12  2  0  0  0  0
 12  8  1  0  0  0  0
 13 10  1  0  0  0  0
 13 14  2  0  0  0  0
 14 11  1  0  0  0  0
 15 16  1  0  0  0  0
 16 13  1  0  0  0  0
 17 16  2  0  0  0  0
 18 20  1  0  0  0  0
 19 21  1  0  0  0  0
 19 20  2  0  0  0  0
 20 17  1  0  0  0  0
 21 15  2  0  0  0  0
 23 24  1  0  0  0  0
 24 22  1  1  0  0  0
 24 25  1  0  0  0  0
 25 23  1  6  0  0  0
 25 33  1  0  0  0  0
 26 27  1  0  0  0  0
 27 37  1  6  0  0  0
 27 29  1  0  0  0  0
 28 32  2  0  0  0  0
 29 30  1  0  0  0  0
 30 28  1  0  0  0  0
 31 28  1  0  0  0  0
 31 35  1  1  0  0  0
 33 26  1  6  0  0  0
 33 31  1  0  0  0  0
 35 34  1  0  0  0  0
 36 37  1  0  0  0  0
M  END
>  <MODEL>
5

>  <REMARK>
 VINA RESULT:      -6.4      1.638      3.090
  Name = 
  8 active torsions:
  status: ('A' for Active; 'I' for Inactive)
    1  A    between atoms: S_4  and  C_16
    2  A    between atoms: S_4  and  C_28
    3  A    between atoms: C_5  and  C_23
    4  A    between atoms: C_6  and  C_31
    5  A    between atoms: C_20  and  C_32
    6  A    between atoms: C_21  and  C_32
    7  A    between atoms: C_27  and  C_33
    8  A    between atoms: C_29  and  C_36
                            x       y       z     vdW  Elec       q    Type
                         _______ _______ _______ _____ _____    ______ ____

>  <TORSDO>
F 8

$$$$
=
 OpenBabel11062409203D

 37 42  0  0  1  0  0  0  0  0999 V2000
  162.2960  206.2390  152.8070 C   0  0  0  0  0  2  0  0  0  0  0  0
  160.6830  208.1260  152.7670 C   0  0  0  0  0  2  0  0  0  0  0  0
  161.3300  208.7970  151.5650 C   0  0  2  0  0  3  0  0  0  0  0  0
  161.7840  206.5150  151.4130 C   0  0  2  0  0  0  0  0  0  0  0  0
  161.8830  207.9380  149.4700 C   0  0  0  0  0  1  0  0  0  0  0  0
  162.1860  207.8270  150.8910 N   0  0  0  0  0  0  0  0  0  0  0  0
  160.8390  206.6350  152.5770 C   0  0  1  0  0  3  0  0  0  0  0  0
  162.3240  210.2190  152.1100 S   0  0  0  0  0  0  0  0  0  0  0  0
  159.8070  211.2680  152.5710 C   0  0  0  0  0  3  0  0  0  0  0  0
  158.7870  211.7790  153.3770 C   0  0  0  0  0  3  0  0  0  0  0  0
  161.2040  210.9750  154.5240 C   0  0  0  0  0  3  0  0  0  0  0  0
  161.0150  210.8630  153.1440 C   0  0  0  0  0  0  0  0  0  0  0  0
  158.9620  211.8930  154.7670 C   0  0  0  0  0  0  0  0  0  0  0  0
  160.1830  211.4860  155.3310 C   0  0  0  0  0  3  0  0  0  0  0  0
  157.9350  213.7730  156.0730 C   0  0  0  0  0  3  0  0  0  0  0  0
  157.8840  212.4420  155.6220 C   0  0  0  0  0  0  0  0  0  0  0  0
  156.7910  211.6430  155.9970 C   0  0  0  0  0  3  0  0  0  0  0  0
  154.4200  211.1510  157.2600 Cl  0  0  0  0  0  0  0  0  0  0  0  0
  155.8400  213.4840  157.2480 C   0  0  0  0  0  3  0  0  0  0  0  0
  155.7750  212.1610  156.8050 C   0  0  0  0  0  0  0  0  0  0  0  0
  156.9190  214.2900  156.8810 C   0  0  0  0  0  3  0  0  0  0  0  0
  161.7300  205.2680  150.5280 C   0  0  0  0  0  2  0  0  0  0  0  0
  160.5230  203.3340  151.4940 C   0  0  0  0  0  2  0  0  0  0  0  0
  161.8790  204.0000  151.3610 C   0  0  1  0  0  3  0  0  0  0  0  0
  161.5860  202.6830  150.6260 C   0  0  2  0  0  3  0  0  0  0  0  0
  162.4240  203.3530  148.2260 C   0  0  0  0  0  2  0  0  0  0  0  0
  161.8620  204.2020  147.0790 C   0  0  1  0  0  3  0  0  0  0  0  0
  160.9100  201.1550  147.0920 C   0  0  0  0  0  0  0  0  0  0  0  0
  160.6040  203.6020  146.4500 C   0  0  0  0  0  2  0  0  0  0  0  0
  160.8240  202.1710  145.9780 C   0  0  0  0  0  2  0  0  0  0  0  0
  160.6850  201.4630  148.5600 C   0  0  1  0  0  3  0  0  0  0  0  0
  161.1140  199.8860  146.7470 C   0  0  0  0  0  2  0  0  0  0  0  0
  161.3090  202.7630  149.1040 C   0  0  1  0  0  3  0  0  0  0  0  0
  159.0220  200.2130  149.7690 O   0  0  0  0  0  1  0  0  0  0  0  0
  159.2170  201.3290  148.9510 C   0  0  0  0  0  2  0  0  0  0  0  0
  161.3160  206.5350  146.3850 C   0  0  0  0  0  1  0  0  0  0  0  0
  161.5500  205.6090  147.5630 C   0  0  0  0  0  2  0  0  0  0  0  0
  3  8  1  1  0  0  0
  3  2  1  0  0  0  0
  4 22  1  6  0  0  0
  4  7  1  0  0  0  0
  4  1  1  0  0  0  0
  5  6  1  0  0  0  0
  6  4  1  0  0  0  0
  6  3  1  0  0  0  0
  7  2  1  1  0  0  0
  7  1  1  0  0  0  0
  8 12  1  0  0  0  0
  9 12  2  0  0  0  0
  9 10  1  0  0  0  0
 10 13  2  0  0  0  0
 11 14  2  0  0  0  0
 12 11  1  0  0  0  0
 13 14  1  0  0  0  0
 13 16  1  0  0  0  0
 15 21  1  0  0  0  0
 16 17  1  0  0  0  0
 16 15  2  0  0  0  0
 17 20  2  0  0  0  0
 20 19  1  0  0  0  0
 20 18  1  0  0  0  0
 21 19  2  0  0  0  0
 24 22  1  6  0  0  0
 24 23  1  0  0  0  0
 25 24  1  0  0  0  0
 25 23  1  1  0  0  0
 27 37  1  1  0  0  0
 27 26  1  0  0  0  0
 28 31  1  0  0  0  0
 29 27  1  0  0  0  0
 30 29  1  0  0  0  0
 30 28  1  0  0  0  0
 31 35  1  6  0  0  0
 31 33  1  0  0  0  0
 32 28  2  0  0  0  0
 33 26  1  6  0  0  0
 33 25  1  0  0  0  0
 35 34  1  0  0  0  0
 36 37  1  0  0  0  0
M  END
>  <MODEL>
6

>  <REMARK>
 VINA RESULT:      -6.1      3.668     11.240
  Name = 
  8 active torsions:
  status: ('A' for Active; 'I' for Inactive)
    1  A    between atoms: S_4  and  C_16
    2  A    between atoms: S_4  and  C_28
    3  A    between atoms: C_5  and  C_23
    4  A    between atoms: C_6  and  C_31
    5  A    between atoms: C_20  and  C_32
    6  A    between atoms: C_21  and  C_32
    7  A    between atoms: C_27  and  C_33
    8  A    between atoms: C_29  and  C_36
                            x       y       z     vdW  Elec       q    Type
                         _______ _______ _______ _____ _____    ______ ____

>  <TORSDO>
F 8

$$$$
=
 OpenBabel11062409203D

 37 42  0  0  1  0  0  0  0  0999 V2000
  158.9090  213.9440  147.7070 C   0  0  0  0  0  2  0  0  0  0  0  0
  159.2570  212.7310  145.5700 C   0  0  0  0  0  2  0  0  0  0  0  0
  160.7510  213.0160  145.5240 C   0  0  2  0  0  3  0  0  0  0  0  0
  160.1100  213.0290  147.7660 C   0  0  2  0  0  0  0  0  0  0  0  0
  162.4060  212.6680  147.1280 C   0  0  0  0  0  1  0  0  0  0  0  0
  161.1910  213.4240  146.8540 N   0  0  0  0  0  0  0  0  0  0  0  0
  158.8810  212.5780  147.0260 C   0  0  1  0  0  3  0  0  0  0  0  0
  161.0910  214.3450  144.3300 S   0  0  0  0  0  0  0  0  0  0  0  0
  159.8060  213.3050  142.1140 C   0  0  0  0  0  3  0  0  0  0  0  0
  159.6870  212.4470  141.0180 C   0  0  0  0  0  3  0  0  0  0  0  0
  161.9590  212.3340  142.6400 C   0  0  0  0  0  3  0  0  0  0  0  0
  160.9430  213.2530  142.9230 C   0  0  0  0  0  0  0  0  0  0  0  0
  160.7020  211.5220  140.7200 C   0  0  0  0  0  0  0  0  0  0  0  0
  161.8390  211.4750  141.5440 C   0  0  0  0  0  3  0  0  0  0  0  0
  159.7770  210.9540  138.4580 C   0  0  0  0  0  3  0  0  0  0  0  0
  160.5720  210.6040  139.5640 C   0  0  0  0  0  0  0  0  0  0  0  0
  161.2410  209.3680  139.5520 C   0  0  0  0  0  3  0  0  0  0  0  0
  161.9580  206.9680  138.4650 Cl  0  0  0  0  0  0  0  0  0  0  0  0
  160.3200  208.8610  137.3720 C   0  0  0  0  0  3  0  0  0  0  0  0
  161.1150  208.5020  138.4620 C   0  0  0  0  0  0  0  0  0  0  0  0
  159.6520  210.0860  137.3690 C   0  0  0  0  0  3  0  0  0  0  0  0
  160.3870  212.4790  149.1670 C   0  0  0  0  0  2  0  0  0  0  0  0
  158.9050  213.3770  150.9350 C   0  0  0  0  0  2  0  0  0  0  0  0
  160.2290  213.5680  150.2230 C   0  0  1  0  0  3  0  0  0  0  0  0
  160.1950  213.0800  151.6800 C   0  0  2  0  0  3  0  0  0  0  0  0
  161.8910  211.0720  151.7020 C   0  0  0  0  0  2  0  0  0  0  0  0
  161.9130  209.6650  151.0930 C   0  0  1  0  0  3  0  0  0  0  0  0
  160.4470  209.8870  153.9200 C   0  0  0  0  0  0  0  0  0  0  0  0
  160.8440  208.7420  151.6780 C   0  0  0  0  0  2  0  0  0  0  0  0
  160.9300  208.6520  153.1960 C   0  0  0  0  0  2  0  0  0  0  0  0
  159.8130  211.0890  153.2470 C   0  0  1  0  0  3  0  0  0  0  0  0
  160.5080  209.8780  155.2490 C   0  0  0  0  0  2  0  0  0  0  0  0
  160.4580  211.5760  151.9340 C   0  0  1  0  0  3  0  0  0  0  0  0
  157.6370  211.8960  153.8820 O   0  0  0  0  0  1  0  0  0  0  0  0
  158.3010  210.9350  153.1160 C   0  0  0  0  0  2  0  0  0  0  0  0
  161.9570  208.3720  148.9590 C   0  0  0  0  0  1  0  0  0  0  0  0
  161.7330  209.7360  149.5850 C   0  0  0  0  0  2  0  0  0  0  0  0
  1  4  1  0  0  0  0
  3  8  1  6  0  0  0
  3  2  1  0  0  0  0
  3  6  1  0  0  0  0
  4 22  1  1  0  0  0
  6  5  1  0  0  0  0
  6  4  1  0  0  0  0
  7  2  1  6  0  0  0
  7  1  1  0  0  0  0
  7  4  1  0  0  0  0
  9 12  1  0  0  0  0
 10  9  2  0  0  0  0
 11 12  2  0  0  0  0
 12  8  1  0  0  0  0
 13 10  1  0  0  0  0
 13 14  2  0  0  0  0
 14 11  1  0  0  0  0
 15 16  1  0  0  0  0
 16 13  1  0  0  0  0
 17 16  2  0  0  0  0
 19 20  2  0  0  0  0
 20 18  1  0  0  0  0
 20 17  1  0  0  0  0
 21 19  1  0  0  0  0
 21 15  2  0  0  0  0
 24 22  1  6  0  0  0
 24 23  1  0  0  0  0
 24 25  1  0  0  0  0
 25 23  1  6  0  0  0
 25 33  1  0  0  0  0
 27 37  1  6  0  0  0
 27 29  1  0  0  0  0
 27 26  1  0  0  0  0
 28 32  2  0  0  0  0
 29 30  1  0  0  0  0
 30 28  1  0  0  0  0
 31 35  1  6  0  0  0
 31 28  1  0  0  0  0
 33 26  1  1  0  0  0
 33 31  1  0  0  0  0
 35 34  1  0  0  0  0
 36 37  1  0  0  0  0
M  END
>  <MODEL>
7

>  <REMARK>
 VINA RESULT:      -6.1      6.671      8.642
  Name = 
  8 active torsions:
  status: ('A' for Active; 'I' for Inactive)
    1  A    between atoms: S_4  and  C_16
    2  A    between atoms: S_4  and  C_28
    3  A    between atoms: C_5  and  C_23
    4  A    between atoms: C_6  and  C_31
    5  A    between atoms: C_20  and  C_32
    6  A    between atoms: C_21  and  C_32
    7  A    between atoms: C_27  and  C_33
    8  A    between atoms: C_29  and  C_36
                            x       y       z     vdW  Elec       q    Type
                         _______ _______ _______ _____ _____    ______ ____

>  <TORSDO>
F 8

$$$$
=
 OpenBabel11062409203D

 37 42  0  0  1  0  0  0  0  0999 V2000
  162.1350  208.3480  151.4550 C   0  0  0  0  0  2  0  0  0  0  0  0
  160.9120  206.2830  150.8260 C   0  0  0  0  0  2  0  0  0  0  0  0
  160.8640  205.7450  152.2490 C   0  0  2  0  0  3  0  0  0  0  0  0
  160.9800  208.0700  152.3880 C   0  0  2  0  0  0  0  0  0  0  0  0
  160.1360  206.7520  154.2210 C   0  0  0  0  0  1  0  0  0  0  0  0
  161.1440  206.8400  153.1720 N   0  0  0  0  0  0  0  0  0  0  0  0
  160.8200  207.7880  150.9190 C   0  0  1  0  0  3  0  0  0  0  0  0
  162.1060  204.4340  152.4560 S   0  0  0  0  0  0  0  0  0  0  0  0
  161.3190  202.3110  150.8690 C   0  0  0  0  0  3  0  0  0  0  0  0
  161.0020  201.7020  149.6530 C   0  0  0  0  0  3  0  0  0  0  0  0
  161.7500  204.3920  149.7130 C   0  0  0  0  0  3  0  0  0  0  0  0
  161.6900  203.6570  150.9010 C   0  0  0  0  0  0  0  0  0  0  0  0
  161.0530  202.4300  148.4520 C   0  0  0  0  0  0  0  0  0  0  0  0
  161.4330  203.7820  148.4960 C   0  0  0  0  0  3  0  0  0  0  0  0
  160.0370  202.4890  146.1590 C   0  0  0  0  0  3  0  0  0  0  0  0
  160.7250  201.7820  147.1600 C   0  0  0  0  0  0  0  0  0  0  0  0
  161.0960  200.4490  146.9150 C   0  0  0  0  0  3  0  0  0  0  0  0
  161.2560  198.1770  145.4080 Cl  0  0  0  0  0  0  0  0  0  0  0  0
  160.0980  200.5500  144.7120 C   0  0  0  0  0  3  0  0  0  0  0  0
  160.7840  199.8370  145.6970 C   0  0  0  0  0  0  0  0  0  0  0  0
  159.7250  201.8750  144.9420 C   0  0  0  0  0  3  0  0  0  0  0  0
  160.3590  209.3370  152.9810 C   0  0  0  0  0  2  0  0  0  0  0  0
  159.9360  211.5690  151.9960 C   0  0  0  0  0  2  0  0  0  0  0  0
  161.0160  210.5870  152.4070 C   0  0  1  0  0  3  0  0  0  0  0  0
  160.7960  211.8800  153.2080 C   0  0  2  0  0  3  0  0  0  0  0  0
  160.9370  211.6540  155.8230 C   0  0  0  0  0  2  0  0  0  0  0  0
  160.3330  210.7010  156.8630 C   0  0  1  0  0  3  0  0  0  0  0  0
  158.4870  213.1860  156.0800 C   0  0  0  0  0  0  0  0  0  0  0  0
  158.8130  210.8220  156.9750 C   0  0  0  0  0  2  0  0  0  0  0  0
  158.3690  212.2510  157.2600 C   0  0  0  0  0  2  0  0  0  0  0  0
  158.8940  212.7630  154.6810 C   0  0  1  0  0  3  0  0  0  0  0  0
  158.1280  214.4530  156.2660 C   0  0  0  0  0  2  0  0  0  0  0  0
  160.0600  211.7620  154.5650 C   0  0  1  0  0  3  0  0  0  0  0  0
  157.1920  211.1080  154.2890 O   0  0  0  0  0  1  0  0  0  0  0  0
  157.6920  212.3350  153.8450 C   0  0  0  0  0  2  0  0  0  0  0  0
  162.1980  209.0950  156.4520 C   0  0  0  0  0  1  0  0  0  0  0  0
  160.6920  209.2610  156.5350 C   0  0  0  0  0  2  0  0  0  0  0  0
  1  4  1  0  0  0  0
  2  3  1  0  0  0  0
  3  8  1  6  0  0  0
  3  6  1  0  0  0  0
  4 22  1  1  0  0  0
  4  6  1  0  0  0  0
  6  5  1  0  0  0  0
  7  2  1  1  0  0  0
  7  1  1  0  0  0  0
  7  4  1  0  0  0  0
  9 12  1  0  0  0  0
 10  9  2  0  0  0  0
 11 12  2  0  0  0  0
 12  8  1  0  0  0  0
 13 14  2  0  0  0  0
 13 10  1  0  0  0  0
 14 11  1  0  0  0  0
 15 16  1  0  0  0  0
 16 13  1  0  0  0  0
 17 16  2  0  0  0  0
 18 20  1  0  0  0  0
 19 21  1  0  0  0  0
 19 20  2  0  0  0  0
 20 17  1  0  0  0  0
 21 15  2  0  0  0  0
 23 24  1  0  0  0  0
 24 22  1  1  0  0  0
 24 25  1  0  0  0  0
 25 23  1  6  0  0  0
 25 33  1  0  0  0  0
 26 27  1  0  0  0  0
 27 37  1  6  0  0  0
 27 29  1  0  0  0  0
 28 32  2  0  0  0  0
 28 30  1  0  0  0  0
 29 30  1  0  0  0  0
 31 35  1  1  0  0  0
 31 28  1  0  0  0  0
 33 31  1  0  0  0  0
 33 26  1  1  0  0  0
 35 34  1  0  0  0  0
 36 37  1  0  0  0  0
M  END
>  <MODEL>
8

>  <REMARK>
 VINA RESULT:      -5.9      1.799      2.775
  Name = 
  8 active torsions:
  status: ('A' for Active; 'I' for Inactive)
    1  A    between atoms: S_4  and  C_16
    2  A    between atoms: S_4  and  C_28
    3  A    between atoms: C_5  and  C_23
    4  A    between atoms: C_6  and  C_31
    5  A    between atoms: C_20  and  C_32
    6  A    between atoms: C_21  and  C_32
    7  A    between atoms: C_27  and  C_33
    8  A    between atoms: C_29  and  C_36
                            x       y       z     vdW  Elec       q    Type
                         _______ _______ _______ _____ _____    ______ ____

>  <TORSDO>
F 8

$$$$
=
 OpenBabel11062409203D

 37 42  0  0  1  0  0  0  0  0999 V2000
  162.7040  209.3030  151.4440 C   0  0  0  0  0  2  0  0  0  0  0  0
  160.8850  210.9590  151.1160 C   0  0  0  0  0  2  0  0  0  0  0  0
  161.2510  211.2390  149.6660 C   0  0  2  0  0  3  0  0  0  0  0  0
  161.9540  209.0700  150.1530 C   0  0  2  0  0  0  0  0  0  0  0  0
  161.5780  209.7780  147.8800 C   0  0  0  0  0  1  0  0  0  0  0  0
  162.1070  210.1610  149.1830 N   0  0  0  0  0  0  0  0  0  0  0  0
  161.1920  209.5020  151.3760 C   0  0  1  0  0  3  0  0  0  0  0  0
  162.1350  212.8240  149.5460 S   0  0  0  0  0  0  0  0  0  0  0  0
  160.3540  213.0850  147.4470 C   0  0  0  0  0  3  0  0  0  0  0  0
  160.0120  213.2540  146.1030 C   0  0  0  0  0  3  0  0  0  0  0  0
  162.7000  213.1760  146.8610 C   0  0  0  0  0  3  0  0  0  0  0  0
  161.6980  213.0500  147.8270 C   0  0  0  0  0  0  0  0  0  0  0  0
  161.0100  213.3870  145.1210 C   0  0  0  0  0  0  0  0  0  0  0  0
  162.3580  213.3450  145.5160 C   0  0  0  0  0  3  0  0  0  0  0  0
  159.3080  213.7440  143.3130 C   0  0  0  0  0  3  0  0  0  0  0  0
  160.6480  213.5560  143.6950 C   0  0  0  0  0  0  0  0  0  0  0  0
  161.6380  213.5320  142.6970 C   0  0  0  0  0  3  0  0  0  0  0  0
  162.5430  213.6590  140.1240 Cl  0  0  0  0  0  0  0  0  0  0  0  0
  159.9600  213.8730  140.9870 C   0  0  0  0  0  3  0  0  0  0  0  0
  161.2960  213.6900  141.3510 C   0  0  0  0  0  0  0  0  0  0  0  0
  158.9670  213.9010  141.9670 C   0  0  0  0  0  3  0  0  0  0  0  0
  161.9190  207.6000  149.7280 C   0  0  0  0  0  2  0  0  0  0  0  0
  161.6200  206.4750  147.5430 C   0  0  0  0  0  2  0  0  0  0  0  0
  160.9650  207.3940  148.5560 C   0  0  1  0  0  3  0  0  0  0  0  0
  160.4510  205.9580  148.3630 C   0  0  2  0  0  3  0  0  0  0  0  0
  160.1780  205.0660  150.8200 C   0  0  0  0  0  2  0  0  0  0  0  0
  161.1420  204.7070  151.9580 C   0  0  1  0  0  3  0  0  0  0  0  0
  160.5840  202.3540  149.8730 C   0  0  0  0  0  0  0  0  0  0  0  0
  162.0230  203.4990  151.6380 C   0  0  0  0  0  2  0  0  0  0  0  0
  161.2020  202.2760  151.2490 C   0  0  0  0  0  2  0  0  0  0  0  0
  160.8260  203.4760  148.8810 C   0  0  1  0  0  3  0  0  0  0  0  0
  159.8430  201.3240  149.4770 C   0  0  0  0  0  2  0  0  0  0  0  0
  160.8350  204.9130  149.4400 C   0  0  1  0  0  3  0  0  0  0  0  0
  161.6530  203.0430  146.6640 O   0  0  0  0  0  1  0  0  0  0  0  0
  162.0390  203.2020  147.9980 C   0  0  0  0  0  2  0  0  0  0  0  0
  161.5580  206.5700  153.5650 C   0  0  0  0  0  1  0  0  0  0  0  0
  162.0330  205.8930  152.2920 C   0  0  0  0  0  2  0  0  0  0  0  0
  3  8  1  1  0  0  0
  3  2  1  0  0  0  0
  4 22  1  6  0  0  0
  4  7  1  0  0  0  0
  4  1  1  0  0  0  0
  5  6  1  0  0  0  0
  6  3  1  0  0  0  0
  6  4  1  0  0  0  0
  7  2  1  6  0  0  0
  7  1  1  0  0  0  0
  9 12  1  0  0  0  0
 10  9  2  0  0  0  0
 11 12  2  0  0  0  0
 12  8  1  0  0  0  0
 13 14  2  0  0  0  0
 13 10  1  0  0  0  0
 14 11  1  0  0  0  0
 15 16  1  0  0  0  0
 16 13  1  0  0  0  0
 17 16  2  0  0  0  0
 18 20  1  0  0  0  0
 19 20  2  0  0  0  0
 19 21  1  0  0  0  0
 20 17  1  0  0  0  0
 21 15  2  0  0  0  0
 23 24  1  0  0  0  0
 24 22  1  1  0  0  0
 25 23  1  6  0  0  0
 25 24  1  0  0  0  0
 25 33  1  0  0  0  0
 26 27  1  0  0  0  0
 27 37  1  6  0  0  0
 28 30  1  0  0  0  0
 29 27  1  0  0  0  0
 30 29  1  0  0  0  0
 31 35  1  1  0  0  0
 31 33  1  0  0  0  0
 31 28  1  0  0  0  0
 32 28  2  0  0  0  0
 33 26  1  1  0  0  0
 34 35  1  0  0  0  0
 37 36  1  0  0  0  0
M  END
>  <MODEL>
9

>  <REMARK>
 VINA RESULT:      -5.8      5.952      9.749
  Name = 
  8 active torsions:
  status: ('A' for Active; 'I' for Inactive)
    1  A    between atoms: S_4  and  C_16
    2  A    between atoms: S_4  and  C_28
    3  A    between atoms: C_5  and  C_23
    4  A    between atoms: C_6  and  C_31
    5  A    between atoms: C_20  and  C_32
    6  A    between atoms: C_21  and  C_32
    7  A    between atoms: C_27  and  C_33
    8  A    between atoms: C_29  and  C_36
                            x       y       z     vdW  Elec       q    Type
                         _______ _______ _______ _____ _____    ______ ____

>  <TORSDO>
F 8

$$$$
