=
 OpenBabel11052422463D

 28 31  0  0  1  0  0  0  0  0999 V2000
  160.5960  210.0410  154.1170 C   0  0  2  0  0  3  0  0  0  0  0  0
  160.9900  207.7430  155.0620 C   0  0  2  0  0  3  0  0  0  0  0  0
  161.4750  209.9440  156.1850 C   0  0  0  0  0  2  0  0  0  0  0  0
  161.8620  208.4640  156.1010 C   0  0  0  0  0  2  0  0  0  0  0  0
  161.6260  210.5500  154.9270 O   0  0  0  0  0  0  0  0  0  0  0  0
  160.8570  208.5650  153.7730 C   0  0  2  0  0  3  0  0  0  0  0  0
  159.7320  206.8760  156.9000 O   0  0  0  0  0  1  0  0  0  0  0  0
  159.6110  207.4320  155.6280 C   0  0  0  0  0  2  0  0  0  0  0  0
  160.4760  210.8150  152.9460 O   0  0  0  0  0  0  0  0  0  0  0  0
  159.1730  211.3640  152.8640 C   0  0  2  0  0  3  0  0  0  0  0  0
  157.8940  213.1460  153.8670 N   0  0  0  0  0  0  0  0  0  0  0  0
  159.0360  212.4630  151.8400 C   0  0  0  0  0  2  0  0  0  0  0  0
  157.8550  211.0130  154.8160 O   0  0  0  0  0  1  0  0  0  0  0  0
  158.6670  211.9450  154.1720 C   0  0  1  0  0  3  0  0  0  0  0  0
  158.5630  214.2580  154.5200 C   0  0  0  0  0  1  0  0  0  0  0  0
  157.9820  213.3780  152.4250 C   0  0  0  0  0  2  0  0  0  0  0  0
  162.1030  208.4100  152.9030 C   0  0  0  0  0  2  0  0  0  0  0  0
  161.4030  205.6690  152.3060 C   0  0  0  0  0  3  0  0  0  0  0  0
  160.9380  206.3150  149.8490 C   0  0  0  0  0  0  0  0  0  0  0  0
  161.7250  207.9780  151.5190 C   0  0  1  0  0  3  0  0  0  0  0  0
  160.9070  203.9500  150.6410 C   0  0  0  0  0  0  0  0  0  0  0  0
  161.4040  206.6960  151.2430 C   0  0  0  0  0  0  0  0  0  0  0  0
  161.7580  208.7140  149.1670 C   0  0  0  0  0  3  0  0  0  0  0  0
  160.8340  204.8280  149.6380 C   0  0  0  0  0  3  0  0  0  0  0  0
  162.0490  207.0330  148.6010 S   0  0  0  0  0  0  0  0  0  0  0  0
  160.7750  202.6270  150.3800 F   0  0  0  0  0  0  0  0  0  0  0  0
  161.1640  204.3900  152.0220 C   0  0  0  0  0  3  0  0  0  0  0  0
  161.7040  209.0140  150.4650 C   0  0  0  0  0  3  0  0  0  0  0  0
  1  9  1  6  0  0  0
  1  5  1  0  0  0  0
  2  8  1  1  0  0  0
  2  4  1  0  0  0  0
  4  3  1  0  0  0  0
  5  3  1  0  0  0  0
  6 17  1  1  0  0  0
  6  1  1  0  0  0  0
  6  2  1  0  0  0  0
  8  7  1  0  0  0  0
 10  9  1  1  0  0  0
 10 14  1  0  0  0  0
 11 14  1  0  0  0  0
 11 15  1  0  0  0  0
 12 16  1  0  0  0  0
 12 10  1  0  0  0  0
 14 13  1  6  0  0  0
 16 11  1  0  0  0  0
 19 22  1  0  0  0  0
 20 17  1  1  0  0  0
 21 27  2  0  0  0  0
 22 20  1  0  0  0  0
 22 18  2  0  0  0  0
 23 28  2  0  0  0  0
 24 19  2  0  0  0  0
 24 21  1  0  0  0  0
 25 23  1  0  0  0  0
 25 19  1  0  0  0  0
 26 21  1  0  0  0  0
 27 18  1  0  0  0  0
 28 20  1  0  0  0  0
M  END
>  <MODEL>
1

>  <REMARK>
 VINA RESULT:      -7.3      0.000      0.000
  Name = 
  5 active torsions:
  status: ('A' for Active; 'I' for Inactive)
    1  A    between atoms: C_1  and  O_2
    2  A    between atoms: O_2  and  C_3
    3  A    between atoms: C_10  and  C_17
    4  A    between atoms: C_16  and  C_20
    5  A    between atoms: C_17  and  C_27
                            x       y       z     vdW  Elec       q    Type
                         _______ _______ _______ _____ _____    ______ ____

>  <TORSDO>
F 5

$$$$
=
 OpenBabel11052422463D

 28 31  0  0  1  0  0  0  0  0999 V2000
  160.1000  210.3420  153.9020 C   0  0  2  0  0  3  0  0  0  0  0  0
  161.2590  208.6190  155.3240 C   0  0  2  0  0  3  0  0  0  0  0  0
  161.3820  211.1210  155.5770 C   0  0  0  0  0  2  0  0  0  0  0  0
  162.1110  209.7960  155.8210 C   0  0  0  0  0  2  0  0  0  0  0  0
  161.1080  211.2710  154.2070 O   0  0  0  0  0  0  0  0  0  0  0  0
  160.6550  208.9070  153.9430 C   0  0  2  0  0  3  0  0  0  0  0  0
  159.4730  207.1410  155.9070 O   0  0  0  0  0  1  0  0  0  0  0  0
  160.1540  208.2860  156.3170 C   0  0  0  0  0  2  0  0  0  0  0  0
  159.5450  210.6280  152.6400 O   0  0  0  0  0  0  0  0  0  0  0  0
  158.5850  211.6620  152.7590 C   0  0  2  0  0  3  0  0  0  0  0  0
  157.9050  213.3230  154.3710 N   0  0  0  0  0  0  0  0  0  0  0  0
  159.0650  213.0040  152.2670 C   0  0  0  0  0  2  0  0  0  0  0  0
  156.8900  211.2190  154.3730 O   0  0  0  0  0  1  0  0  0  0  0  0
  158.0980  211.8880  154.1790 C   0  0  1  0  0  3  0  0  0  0  0  0
  158.8070  213.7330  155.4330 C   0  0  0  0  0  1  0  0  0  0  0  0
  158.3420  213.9980  153.1500 C   0  0  0  0  0  2  0  0  0  0  0  0
  161.6900  208.6820  152.8430 C   0  0  0  0  0  2  0  0  0  0  0  0
  161.5390  208.1240  150.0100 C   0  0  0  0  0  3  0  0  0  0  0  0
  161.5360  205.5880  150.5030 C   0  0  0  0  0  0  0  0  0  0  0  0
  161.6040  207.2800  152.3210 C   0  0  1  0  0  3  0  0  0  0  0  0
  161.1840  206.5080  148.2100 C   0  0  0  0  0  0  0  0  0  0  0  0
  161.5280  207.0230  150.9980 C   0  0  0  0  0  0  0  0  0  0  0  0
  161.1800  204.9570  153.0270 C   0  0  0  0  0  3  0  0  0  0  0  0
  161.2210  205.4590  149.0360 C   0  0  0  0  0  3  0  0  0  0  0  0
  160.3620  204.5890  151.4680 S   0  0  0  0  0  0  0  0  0  0  0  0
  160.9240  206.3120  146.8950 F   0  0  0  0  0  0  0  0  0  0  0  0
  161.3840  207.8780  148.7100 C   0  0  0  0  0  3  0  0  0  0  0  0
  161.6190  206.1840  153.3110 C   0  0  0  0  0  3  0  0  0  0  0  0
  1  9  1  6  0  0  0
  1  6  1  0  0  0  0
  1  5  1  0  0  0  0
  2  4  1  0  0  0  0
  2  8  1  1  0  0  0
  3  4  1  0  0  0  0
  5  3  1  0  0  0  0
  6 17  1  6  0  0  0
  6  2  1  0  0  0  0
  7  8  1  0  0  0  0
 10  9  1  1  0  0  0
 10 14  1  0  0  0  0
 11 15  1  0  0  0  0
 12 10  1  0  0  0  0
 12 16  1  0  0  0  0
 14 11  1  0  0  0  0
 14 13  1  6  0  0  0
 16 11  1  0  0  0  0
 18 22  1  0  0  0  0
 19 22  2  0  0  0  0
 19 25  1  0  0  0  0
 20 17  1  6  0  0  0
 20 28  1  0  0  0  0
 21 27  1  0  0  0  0
 21 24  2  0  0  0  0
 22 20  1  0  0  0  0
 23 28  2  0  0  0  0
 24 19  1  0  0  0  0
 25 23  1  0  0  0  0
 26 21  1  0  0  0  0
 27 18  2  0  0  0  0
M  END
>  <MODEL>
2

>  <REMARK>
 VINA RESULT:      -7.2      1.552      2.346
  Name = 
  5 active torsions:
  status: ('A' for Active; 'I' for Inactive)
    1  A    between atoms: C_1  and  O_2
    2  A    between atoms: O_2  and  C_3
    3  A    between atoms: C_10  and  C_17
    4  A    between atoms: C_16  and  C_20
    5  A    between atoms: C_17  and  C_27
                            x       y       z     vdW  Elec       q    Type
                         _______ _______ _______ _____ _____    ______ ____

>  <TORSDO>
F 5

$$$$
=
 OpenBabel11052422463D

 28 31  0  0  1  0  0  0  0  0999 V2000
  161.7440  210.1360  151.4890 C   0  0  2  0  0  3  0  0  0  0  0  0
  160.7520  208.6840  153.2880 C   0  0  2  0  0  3  0  0  0  0  0  0
  162.3710  210.5850  153.6020 C   0  0  0  0  0  2  0  0  0  0  0  0
  161.8560  209.2650  154.1820 C   0  0  0  0  0  2  0  0  0  0  0  0
  162.8640  210.3770  152.3030 O   0  0  0  0  0  0  0  0  0  0  0  0
  161.1330  208.7590  151.8040 C   0  0  2  0  0  3  0  0  0  0  0  0
  159.3530  209.8430  154.8420 O   0  0  0  0  0  1  0  0  0  0  0  0
  159.4270  209.3950  153.5240 C   0  0  0  0  0  2  0  0  0  0  0  0
  162.1060  210.2240  150.1310 O   0  0  0  0  0  0  0  0  0  0  0  0
  162.0390  211.5720  149.7020 C   0  0  2  0  0  3  0  0  0  0  0  0
  161.3000  212.8240  147.7770 N   0  0  0  0  0  0  0  0  0  0  0  0
  160.7560  212.2700  150.0740 C   0  0  0  0  0  2  0  0  0  0  0  0
  163.5100  212.0830  147.8990 O   0  0  0  0  0  1  0  0  0  0  0  0
  162.1910  211.7480  148.2020 C   0  0  1  0  0  3  0  0  0  0  0  0
  160.3530  212.2450  146.8400 C   0  0  0  0  0  1  0  0  0  0  0  0
  160.5360  213.2570  148.9480 C   0  0  0  0  0  2  0  0  0  0  0  0
  162.0910  207.6290  151.4330 C   0  0  0  0  0  2  0  0  0  0  0  0
  161.5220  204.8050  151.6780 C   0  0  0  0  0  3  0  0  0  0  0  0
  160.6490  204.7640  149.2470 C   0  0  0  0  0  0  0  0  0  0  0  0
  161.5460  206.8340  150.2860 C   0  0  1  0  0  3  0  0  0  0  0  0
  160.9170  202.6910  150.6100 C   0  0  0  0  0  0  0  0  0  0  0  0
  161.2870  205.5150  150.4020 C   0  0  0  0  0  0  0  0  0  0  0  0
  161.1730  206.9250  147.8510 C   0  0  0  0  0  3  0  0  0  0  0  0
  160.6300  203.2700  149.4420 C   0  0  0  0  0  3  0  0  0  0  0  0
  161.5050  205.1650  147.6930 S   0  0  0  0  0  0  0  0  0  0  0  0
  160.8490  201.3430  150.7200 F   0  0  0  0  0  0  0  0  0  0  0  0
  161.3420  203.4890  151.7720 C   0  0  0  0  0  3  0  0  0  0  0  0
  161.2900  207.5540  149.0210 C   0  0  0  0  0  3  0  0  0  0  0  0
  1  9  1  6  0  0  0
  1  6  1  0  0  0  0
  1  5  1  0  0  0  0
  2  8  1  6  0  0  0
  2  4  1  0  0  0  0
  3  4  1  0  0  0  0
  5  3  1  0  0  0  0
  6 17  1  1  0  0  0
  6  2  1  0  0  0  0
  8  7  1  0  0  0  0
 10 12  1  0  0  0  0
 10  9  1  6  0  0  0
 11 14  1  0  0  0  0
 11 16  1  0  0  0  0
 14 13  1  1  0  0  0
 14 10  1  0  0  0  0
 15 11  1  0  0  0  0
 16 12  1  0  0  0  0
 18 27  1  0  0  0  0
 19 24  2  0  0  0  0
 19 22  1  0  0  0  0
 20 22  1  0  0  0  0
 20 17  1  1  0  0  0
 21 26  1  0  0  0  0
 21 27  2  0  0  0  0
 22 18  2  0  0  0  0
 23 28  2  0  0  0  0
 24 21  1  0  0  0  0
 25 23  1  0  0  0  0
 25 19  1  0  0  0  0
 28 20  1  0  0  0  0
M  END
>  <MODEL>
3

>  <REMARK>
 VINA RESULT:      -6.7      2.615      3.729
  Name = 
  5 active torsions:
  status: ('A' for Active; 'I' for Inactive)
    1  A    between atoms: C_1  and  O_2
    2  A    between atoms: O_2  and  C_3
    3  A    between atoms: C_10  and  C_17
    4  A    between atoms: C_16  and  C_20
    5  A    between atoms: C_17  and  C_27
                            x       y       z     vdW  Elec       q    Type
                         _______ _______ _______ _____ _____    ______ ____

>  <TORSDO>
F 5

$$$$
=
 OpenBabel11052422463D

 28 31  0  0  1  0  0  0  0  0999 V2000
  158.5770  212.7080  152.6480 C   0  0  2  0  0  3  0  0  0  0  0  0
  157.9620  211.8260  154.9230 C   0  0  2  0  0  3  0  0  0  0  0  0
  157.8980  214.2250  154.1630 C   0  0  0  0  0  2  0  0  0  0  0  0
  158.0480  213.2930  155.3690 C   0  0  0  0  0  2  0  0  0  0  0  0
  158.9010  213.9510  153.2180 O   0  0  0  0  0  0  0  0  0  0  0  0
  158.7990  211.5730  153.6620 C   0  0  2  0  0  3  0  0  0  0  0  0
  155.7540  211.6580  155.8220 O   0  0  0  0  0  1  0  0  0  0  0  0
  156.5170  211.4120  154.6820 C   0  0  0  0  0  2  0  0  0  0  0  0
  159.3410  212.4970  151.4840 O   0  0  0  0  0  0  0  0  0  0  0  0
  159.0780  213.5220  150.5430 C   0  0  2  0  0  3  0  0  0  0  0  0
  159.2490  213.8810  148.1640 N   0  0  0  0  0  0  0  0  0  0  0  0
  157.6830  213.4840  149.9710 C   0  0  0  0  0  2  0  0  0  0  0  0
  161.0370  214.4480  149.5540 O   0  0  0  0  0  1  0  0  0  0  0  0
  160.0180  213.5180  149.3510 C   0  0  1  0  0  3  0  0  0  0  0  0
  159.3220  212.7530  147.2510 C   0  0  0  0  0  1  0  0  0  0  0  0
  157.8490  214.0190  148.5650 C   0  0  0  0  0  2  0  0  0  0  0  0
  160.2780  211.4270  154.0150 C   0  0  0  0  0  2  0  0  0  0  0  0
  160.8270  209.0490  152.4650 C   0  0  0  0  0  3  0  0  0  0  0  0
  161.1270  207.6900  154.6420 C   0  0  0  0  0  0  0  0  0  0  0  0
  160.5330  210.1020  154.6690 C   0  0  1  0  0  3  0  0  0  0  0  0
  161.1300  206.6240  152.3860 C   0  0  0  0  0  0  0  0  0  0  0  0
  160.7830  208.9930  153.9420 C   0  0  0  0  0  0  0  0  0  0  0  0
  160.3470  208.9230  156.8250 C   0  0  0  0  0  3  0  0  0  0  0  0
  161.1580  206.5030  153.7150 C   0  0  0  0  0  3  0  0  0  0  0  0
  159.9510  207.3780  155.9930 S   0  0  0  0  0  0  0  0  0  0  0  0
  161.1920  205.5130  151.6140 F   0  0  0  0  0  0  0  0  0  0  0  0
  160.9950  207.9420  151.7430 C   0  0  0  0  0  3  0  0  0  0  0  0
  160.5110  210.0580  156.1460 C   0  0  0  0  0  3  0  0  0  0  0  0
  1  9  1  6  0  0  0
  1  5  1  0  0  0  0
  1  6  1  0  0  0  0
  2  8  1  6  0  0  0
  2  4  1  0  0  0  0
  3  4  1  0  0  0  0
  5  3  1  0  0  0  0
  6 17  1  1  0  0  0
  6  2  1  0  0  0  0
  8  7  1  0  0  0  0
 10  9  1  1  0  0  0
 11 16  1  0  0  0  0
 11 14  1  0  0  0  0
 12 10  1  0  0  0  0
 14 13  1  1  0  0  0
 14 10  1  0  0  0  0
 15 11  1  0  0  0  0
 16 12  1  0  0  0  0
 18 22  1  0  0  0  0
 19 25  1  0  0  0  0
 20 17  1  1  0  0  0
 20 28  1  0  0  0  0
 21 24  2  0  0  0  0
 22 19  2  0  0  0  0
 22 20  1  0  0  0  0
 24 19  1  0  0  0  0
 25 23  1  0  0  0  0
 26 21  1  0  0  0  0
 27 21  1  0  0  0  0
 27 18  2  0  0  0  0
 28 23  2  0  0  0  0
M  END
>  <MODEL>
4

>  <REMARK>
 VINA RESULT:      -6.5      2.911      5.022
  Name = 
  5 active torsions:
  status: ('A' for Active; 'I' for Inactive)
    1  A    between atoms: C_1  and  O_2
    2  A    between atoms: O_2  and  C_3
    3  A    between atoms: C_10  and  C_17
    4  A    between atoms: C_16  and  C_20
    5  A    between atoms: C_17  and  C_27
                            x       y       z     vdW  Elec       q    Type
                         _______ _______ _______ _____ _____    ______ ____

>  <TORSDO>
F 5

$$$$
=
 OpenBabel11052422463D

 28 31  0  0  1  0  0  0  0  0999 V2000
  160.0370  210.3370  153.7130 C   0  0  2  0  0  3  0  0  0  0  0  0
  161.0700  208.4010  154.9450 C   0  0  2  0  0  3  0  0  0  0  0  0
  161.4180  210.8500  155.4120 C   0  0  0  0  0  2  0  0  0  0  0  0
  162.0320  209.4510  155.5190 C   0  0  0  0  0  2  0  0  0  0  0  0
  161.1300  211.1450  154.0700 O   0  0  0  0  0  0  0  0  0  0  0  0
  160.4650  208.8620  153.6130 C   0  0  2  0  0  3  0  0  0  0  0  0
  160.5110  207.7430  157.1740 O   0  0  0  0  0  1  0  0  0  0  0  0
  159.9620  208.0760  155.9370 C   0  0  0  0  0  2  0  0  0  0  0  0
  159.4840  210.7820  152.4970 O   0  0  0  0  0  0  0  0  0  0  0  0
  159.9520  212.0850  152.2040 C   0  0  2  0  0  3  0  0  0  0  0  0
  159.6940  213.7560  150.4830 N   0  0  0  0  0  0  0  0  0  0  0  0
  159.0850  213.1870  152.7600 C   0  0  0  0  0  2  0  0  0  0  0  0
  161.4130  212.1830  150.3250 O   0  0  0  0  0  1  0  0  0  0  0  0
  160.0880  212.3700  150.7190 C   0  0  1  0  0  3  0  0  0  0  0  0
  158.5490  213.7250  149.5900 C   0  0  0  0  0  1  0  0  0  0  0  0
  159.2320  214.3100  151.7560 C   0  0  0  0  0  2  0  0  0  0  0  0
  161.4530  208.6490  152.4680 C   0  0  0  0  0  2  0  0  0  0  0  0
  161.3610  207.8710  149.6850 C   0  0  0  0  0  3  0  0  0  0  0  0
  161.5350  205.3860  150.3660 C   0  0  0  0  0  0  0  0  0  0  0  0
  161.4710  207.2090  152.0520 C   0  0  1  0  0  3  0  0  0  0  0  0
  161.1340  206.1050  148.0100 C   0  0  0  0  0  0  0  0  0  0  0  0
  161.4220  206.8500  150.7520 C   0  0  0  0  0  0  0  0  0  0  0  0
  161.2090  204.9210  152.9290 C   0  0  0  0  0  3  0  0  0  0  0  0
  161.2400  205.1250  148.9120 C   0  0  0  0  0  3  0  0  0  0  0  0
  160.4290  204.3800  151.4010 S   0  0  0  0  0  0  0  0  0  0  0  0
  160.8980  205.7940  146.7130 F   0  0  0  0  0  0  0  0  0  0  0  0
  161.2330  207.5190  148.4060 C   0  0  0  0  0  3  0  0  0  0  0  0
  161.5570  206.1940  153.1220 C   0  0  0  0  0  3  0  0  0  0  0  0
  1  9  1  6  0  0  0
  1  5  1  0  0  0  0
  2  4  1  0  0  0  0
  2  8  1  1  0  0  0
  3  4  1  0  0  0  0
  5  3  1  0  0  0  0
  6 17  1  6  0  0  0
  6  1  1  0  0  0  0
  6  2  1  0  0  0  0
  8  7  1  0  0  0  0
 10  9  1  6  0  0  0
 10 12  1  0  0  0  0
 11 14  1  0  0  0  0
 11 16  1  0  0  0  0
 14 13  1  1  0  0  0
 14 10  1  0  0  0  0
 15 11  1  0  0  0  0
 16 12  1  0  0  0  0
 18 22  1  0  0  0  0
 19 22  2  0  0  0  0
 19 25  1  0  0  0  0
 20 17  1  6  0  0  0
 20 28  1  0  0  0  0
 21 27  1  0  0  0  0
 21 24  2  0  0  0  0
 22 20  1  0  0  0  0
 23 28  2  0  0  0  0
 24 19  1  0  0  0  0
 25 23  1  0  0  0  0
 26 21  1  0  0  0  0
 27 18  2  0  0  0  0
M  END
>  <MODEL>
5

>  <REMARK>
 VINA RESULT:      -6.3      1.903      2.913
  Name = 
  5 active torsions:
  status: ('A' for Active; 'I' for Inactive)
    1  A    between atoms: C_1  and  O_2
    2  A    between atoms: O_2  and  C_3
    3  A    between atoms: C_10  and  C_17
    4  A    between atoms: C_16  and  C_20
    5  A    between atoms: C_17  and  C_27
                            x       y       z     vdW  Elec       q    Type
                         _______ _______ _______ _____ _____    ______ ____

>  <TORSDO>
F 5

$$$$
=
 OpenBabel11052422463D

 28 31  0  0  1  0  0  0  0  0999 V2000
  161.6460  205.2140  148.9510 C   0  0  2  0  0  3  0  0  0  0  0  0
  161.2020  204.2350  151.2250 C   0  0  2  0  0  3  0  0  0  0  0  0
  160.4000  203.3430  149.0120 C   0  0  0  0  0  2  0  0  0  0  0  0
  160.1140  203.4170  150.5150 C   0  0  0  0  0  2  0  0  0  0  0  0
  160.4570  204.6380  148.4720 O   0  0  0  0  0  0  0  0  0  0  0  0
  161.5320  205.5200  150.4550 C   0  0  2  0  0  3  0  0  0  0  0  0
  162.1290  202.0750  151.6620 O   0  0  0  0  0  1  0  0  0  0  0  0
  162.4640  203.4080  151.4260 C   0  0  0  0  0  2  0  0  0  0  0  0
  161.9440  206.3830  148.2230 O   0  0  0  0  0  0  0  0  0  0  0  0
  162.1000  206.0690  146.8510 C   0  0  2  0  0  3  0  0  0  0  0  0
  161.9510  204.1430  145.4070 N   0  0  0  0  0  0  0  0  0  0  0  0
  160.8320  206.1970  146.0460 C   0  0  0  0  0  2  0  0  0  0  0  0
  163.9960  204.7030  146.3870 O   0  0  0  0  0  1  0  0  0  0  0  0
  162.6180  204.6650  146.5970 C   0  0  1  0  0  3  0  0  0  0  0  0
  161.2060  202.9670  145.8210 C   0  0  0  0  0  1  0  0  0  0  0  0
  160.9730  205.1400  144.9710 C   0  0  0  0  0  2  0  0  0  0  0  0
  160.4830  206.5960  150.7240 C   0  0  0  0  0  2  0  0  0  0  0  0
  160.5190  206.8170  153.6060 C   0  0  0  0  0  3  0  0  0  0  0  0
  161.8320  209.0350  153.4270 C   0  0  0  0  0  0  0  0  0  0  0  0
  161.1030  207.7720  151.4150 C   0  0  1  0  0  3  0  0  0  0  0  0
  160.9640  208.1640  155.5970 C   0  0  0  0  0  0  0  0  0  0  0  0
  161.1130  207.8750  152.7600 C   0  0  0  0  0  0  0  0  0  0  0  0
  161.9550  210.0490  151.0080 C   0  0  0  0  0  3  0  0  0  0  0  0
  161.5660  209.1340  154.9060 C   0  0  0  0  0  3  0  0  0  0  0  0
  161.3750  210.5990  152.6190 S   0  0  0  0  0  0  0  0  0  0  0  0
  160.7850  208.3090  156.9320 F   0  0  0  0  0  0  0  0  0  0  0  0
  160.4560  206.9530  154.9300 C   0  0  0  0  0  3  0  0  0  0  0  0
  161.7170  208.8130  150.5650 C   0  0  0  0  0  3  0  0  0  0  0  0
  1  9  1  6  0  0  0
  1  6  1  0  0  0  0
  2  8  1  6  0  0  0
  3  4  1  0  0  0  0
  4  2  1  0  0  0  0
  5  1  1  0  0  0  0
  5  3  1  0  0  0  0
  6 17  1  6  0  0  0
  6  2  1  0  0  0  0
  8  7  1  0  0  0  0
 10  9  1  1  0  0  0
 11 15  1  0  0  0  0
 11 14  1  0  0  0  0
 12 10  1  0  0  0  0
 14 13  1  6  0  0  0
 14 10  1  0  0  0  0
 16 11  1  0  0  0  0
 16 12  1  0  0  0  0
 18 27  1  0  0  0  0
 19 24  2  0  0  0  0
 20 17  1  1  0  0  0
 20 22  1  0  0  0  0
 21 26  1  0  0  0  0
 22 19  1  0  0  0  0
 22 18  2  0  0  0  0
 23 25  1  0  0  0  0
 24 21  1  0  0  0  0
 25 19  1  0  0  0  0
 27 21  2  0  0  0  0
 28 23  2  0  0  0  0
 28 20  1  0  0  0  0
M  END
>  <MODEL>
6

>  <REMARK>
 VINA RESULT:      -6.1      4.807      7.710
  Name = 
  5 active torsions:
  status: ('A' for Active; 'I' for Inactive)
    1  A    between atoms: C_1  and  O_2
    2  A    between atoms: O_2  and  C_3
    3  A    between atoms: C_10  and  C_17
    4  A    between atoms: C_16  and  C_20
    5  A    between atoms: C_17  and  C_27
                            x       y       z     vdW  Elec       q    Type
                         _______ _______ _______ _____ _____    ______ ____

>  <TORSDO>
F 5

$$$$
=
 OpenBabel11052422463D

 28 31  0  0  1  0  0  0  0  0999 V2000
  161.6930  203.9160  148.8970 C   0  0  2  0  0  3  0  0  0  0  0  0
  161.1550  204.1650  151.3420 C   0  0  2  0  0  3  0  0  0  0  0  0
  160.2730  202.4070  149.7710 C   0  0  0  0  0  2  0  0  0  0  0  0
  159.9940  203.2040  151.0490 C   0  0  0  0  0  2  0  0  0  0  0  0
  160.4550  203.2850  148.6890 O   0  0  0  0  0  0  0  0  0  0  0  0
  161.6080  204.9020  150.0760 C   0  0  2  0  0  3  0  0  0  0  0  0
  162.0660  202.0580  152.0110 O   0  0  0  0  0  1  0  0  0  0  0  0
  162.3310  203.4260  151.9650 C   0  0  0  0  0  2  0  0  0  0  0  0
  162.1030  204.5750  147.7220 O   0  0  0  0  0  0  0  0  0  0  0  0
  161.0780  204.5020  146.7470 C   0  0  2  0  0  3  0  0  0  0  0  0
  160.6470  205.2960  144.5100 N   0  0  0  0  0  0  0  0  0  0  0  0
  161.2070  203.3270  145.8110 C   0  0  0  0  0  2  0  0  0  0  0  0
  159.9820  206.5780  146.3450 O   0  0  0  0  0  1  0  0  0  0  0  0
  160.9800  205.7330  145.8640 C   0  0  1  0  0  3  0  0  0  0  0  0
  161.7430  205.7080  143.6500 C   0  0  0  0  0  1  0  0  0  0  0  0
  160.6260  203.8330  144.5080 C   0  0  0  0  0  2  0  0  0  0  0  0
  160.6660  206.0630  149.7600 C   0  0  0  0  0  2  0  0  0  0  0  0
  160.8320  207.3950  152.3210 C   0  0  0  0  0  3  0  0  0  0  0  0
  162.2530  209.2730  151.2600 C   0  0  0  0  0  0  0  0  0  0  0  0
  161.3760  207.3730  149.9210 C   0  0  1  0  0  3  0  0  0  0  0  0
  161.4290  209.3820  153.6120 C   0  0  0  0  0  0  0  0  0  0  0  0
  161.4460  207.9950  151.1170 C   0  0  0  0  0  0  0  0  0  0  0  0
  162.3310  209.2460  148.6360 C   0  0  0  0  0  3  0  0  0  0  0  0
  162.0530  209.9620  152.5840 C   0  0  0  0  0  3  0  0  0  0  0  0
  161.8480  210.4210  149.9090 S   0  0  0  0  0  0  0  0  0  0  0  0
  161.3130  210.0510  154.7850 F   0  0  0  0  0  0  0  0  0  0  0  0
  160.8310  208.0430  153.4840 C   0  0  0  0  0  3  0  0  0  0  0  0
  162.0090  207.9550  148.7200 C   0  0  0  0  0  3  0  0  0  0  0  0
  1  9  1  6  0  0  0
  1  6  1  0  0  0  0
  2  8  1  6  0  0  0
  3  4  1  0  0  0  0
  4  2  1  0  0  0  0
  5  1  1  0  0  0  0
  5  3  1  0  0  0  0
  6 17  1  6  0  0  0
  6  2  1  0  0  0  0
  8  7  1  0  0  0  0
 10  9  1  1  0  0  0
 11 14  1  0  0  0  0
 12 10  1  0  0  0  0
 14 13  1  1  0  0  0
 14 10  1  0  0  0  0
 15 11  1  0  0  0  0
 16 11  1  0  0  0  0
 16 12  1  0  0  0  0
 18 27  1  0  0  0  0
 19 24  2  0  0  0  0
 20 17  1  1  0  0  0
 20 22  1  0  0  0  0
 21 26  1  0  0  0  0
 22 19  1  0  0  0  0
 22 18  2  0  0  0  0
 23 28  2  0  0  0  0
 23 25  1  0  0  0  0
 24 21  1  0  0  0  0
 25 19  1  0  0  0  0
 27 21  2  0  0  0  0
 28 20  1  0  0  0  0
M  END
>  <MODEL>
7

>  <REMARK>
 VINA RESULT:      -6.0      4.902      7.769
  Name = 
  5 active torsions:
  status: ('A' for Active; 'I' for Inactive)
    1  A    between atoms: C_1  and  O_2
    2  A    between atoms: O_2  and  C_3
    3  A    between atoms: C_10  and  C_17
    4  A    between atoms: C_16  and  C_20
    5  A    between atoms: C_17  and  C_27
                            x       y       z     vdW  Elec       q    Type
                         _______ _______ _______ _____ _____    ______ ____

>  <TORSDO>
F 5

$$$$
=
 OpenBabel11052422463D

 28 31  0  0  1  0  0  0  0  0999 V2000
  160.8860  206.4410  150.8090 C   0  0  2  0  0  3  0  0  0  0  0  0
  161.2620  203.9540  150.8170 C   0  0  2  0  0  3  0  0  0  0  0  0
  162.1730  205.6260  152.4630 C   0  0  0  0  0  2  0  0  0  0  0  0
  162.3960  204.2610  151.8040 C   0  0  0  0  0  2  0  0  0  0  0  0
  162.1070  206.6270  151.4800 O   0  0  0  0  0  0  0  0  0  0  0  0
  160.9320  205.1710  149.9420 C   0  0  2  0  0  3  0  0  0  0  0  0
  160.3690  202.7280  152.6650 O   0  0  0  0  0  1  0  0  0  0  0  0
  160.0120  203.4840  151.5490 C   0  0  0  0  0  2  0  0  0  0  0  0
  160.5900  207.5730  150.0230 O   0  0  0  0  0  0  0  0  0  0  0  0
  161.6740  208.4840  150.0650 C   0  0  2  0  0  3  0  0  0  0  0  0
  162.3890  210.4970  148.9450 N   0  0  0  0  0  0  0  0  0  0  0  0
  161.4690  209.6350  151.0160 C   0  0  0  0  0  2  0  0  0  0  0  0
  163.0630  208.4150  148.1310 O   0  0  0  0  0  1  0  0  0  0  0  0
  162.0050  209.1060  148.7200 C   0  0  1  0  0  3  0  0  0  0  0  0
  161.4320  211.3210  148.2270 C   0  0  0  0  0  1  0  0  0  0  0  0
  162.2170  210.7810  150.3700 C   0  0  0  0  0  2  0  0  0  0  0  0
  161.9450  205.3100  148.8070 C   0  0  0  0  0  2  0  0  0  0  0  0
  161.4850  202.6260  147.8370 C   0  0  0  0  0  3  0  0  0  0  0  0
  160.3300  203.5770  145.7310 C   0  0  0  0  0  0  0  0  0  0  0  0
  161.2880  205.0530  147.4850 C   0  0  1  0  0  3  0  0  0  0  0  0
  160.8140  201.1460  146.0100 C   0  0  0  0  0  0  0  0  0  0  0  0
  161.0810  203.7990  147.0320 C   0  0  0  0  0  0  0  0  0  0  0  0
  160.6250  206.1630  145.3860 C   0  0  0  0  0  3  0  0  0  0  0  0
  160.3740  202.1510  145.2500 C   0  0  0  0  0  3  0  0  0  0  0  0
  160.9830  204.6780  144.4380 S   0  0  0  0  0  0  0  0  0  0  0  0
  160.7970  199.8830  145.5220 F   0  0  0  0  0  0  0  0  0  0  0  0
  161.3540  201.3900  147.3590 C   0  0  0  0  0  3  0  0  0  0  0  0
  160.8640  206.2290  146.6970 C   0  0  0  0  0  3  0  0  0  0  0  0
  1  9  1  6  0  0  0
  1  5  1  0  0  0  0
  2  8  1  1  0  0  0
  2  4  1  0  0  0  0
  4  3  1  0  0  0  0
  5  3  1  0  0  0  0
  6 17  1  6  0  0  0
  6  1  1  0  0  0  0
  6  2  1  0  0  0  0
  8  7  1  0  0  0  0
 10  9  1  6  0  0  0
 10 12  1  0  0  0  0
 11 16  1  0  0  0  0
 14 13  1  1  0  0  0
 14 11  1  0  0  0  0
 14 10  1  0  0  0  0
 15 11  1  0  0  0  0
 16 12  1  0  0  0  0
 19 22  1  0  0  0  0
 20 17  1  1  0  0  0
 21 27  2  0  0  0  0
 22 20  1  0  0  0  0
 22 18  2  0  0  0  0
 23 28  2  0  0  0  0
 24 19  2  0  0  0  0
 24 21  1  0  0  0  0
 25 23  1  0  0  0  0
 25 19  1  0  0  0  0
 26 21  1  0  0  0  0
 27 18  1  0  0  0  0
 28 20  1  0  0  0  0
M  END
>  <MODEL>
8

>  <REMARK>
 VINA RESULT:      -5.8      4.067      5.626
  Name = 
  5 active torsions:
  status: ('A' for Active; 'I' for Inactive)
    1  A    between atoms: C_1  and  O_2
    2  A    between atoms: O_2  and  C_3
    3  A    between atoms: C_10  and  C_17
    4  A    between atoms: C_16  and  C_20
    5  A    between atoms: C_17  and  C_27
                            x       y       z     vdW  Elec       q    Type
                         _______ _______ _______ _____ _____    ______ ____

>  <TORSDO>
F 5

$$$$
=
 OpenBabel11052422463D

 28 31  0  0  1  0  0  0  0  0999 V2000
  161.0020  204.2720  148.9570 C   0  0  2  0  0  3  0  0  0  0  0  0
  161.4670  206.5300  147.9500 C   0  0  2  0  0  3  0  0  0  0  0  0
  162.1430  204.2910  147.0190 C   0  0  0  0  0  2  0  0  0  0  0  0
  162.4830  205.7830  147.0740 C   0  0  0  0  0  2  0  0  0  0  0  0
  162.1400  203.7520  148.3170 O   0  0  0  0  0  0  0  0  0  0  0  0
  161.1840  205.7710  149.2530 C   0  0  2  0  0  3  0  0  0  0  0  0
  160.3600  206.5510  145.8320 O   0  0  0  0  0  1  0  0  0  0  0  0
  160.1680  206.7730  147.1950 C   0  0  0  0  0  2  0  0  0  0  0  0
  160.7460  203.5550  150.1420 O   0  0  0  0  0  0  0  0  0  0  0  0
  160.6330  202.1730  149.8540 C   0  0  2  0  0  3  0  0  0  0  0  0
  160.3790  200.7410  147.9290 N   0  0  0  0  0  0  0  0  0  0  0  0
  161.9540  201.4870  149.6150 C   0  0  0  0  0  2  0  0  0  0  0  0
  158.4860  201.5320  149.0440 O   0  0  0  0  0  1  0  0  0  0  0  0
  159.7770  201.8670  148.6380 C   0  0  1  0  0  3  0  0  0  0  0  0
  160.7360  201.2160  146.6040 C   0  0  0  0  0  1  0  0  0  0  0  0
  161.6260  200.4000  148.6140 C   0  0  0  0  0  2  0  0  0  0  0  0
  162.3000  206.0040  150.2690 C   0  0  0  0  0  2  0  0  0  0  0  0
  161.3740  205.9140  153.0060 C   0  0  0  0  0  3  0  0  0  0  0  0
  161.4430  208.4940  153.1220 C   0  0  0  0  0  0  0  0  0  0  0  0
  162.0420  207.2540  151.0540 C   0  0  1  0  0  3  0  0  0  0  0  0
  160.5060  207.0940  154.9630 C   0  0  0  0  0  0  0  0  0  0  0  0
  161.6040  207.2080  152.3290 C   0  0  0  0  0  0  0  0  0  0  0  0
  161.7680  209.6910  150.8080 C   0  0  0  0  0  3  0  0  0  0  0  0
  160.7390  208.3000  154.4400 C   0  0  0  0  0  3  0  0  0  0  0  0
  160.5500  209.7300  152.1300 S   0  0  0  0  0  0  0  0  0  0  0  0
  159.8960  206.9980  156.1680 F   0  0  0  0  0  0  0  0  0  0  0  0
  160.8670  205.8650  154.2370 C   0  0  0  0  0  3  0  0  0  0  0  0
  162.2970  208.5440  150.3800 C   0  0  0  0  0  3  0  0  0  0  0  0
  1  6  1  0  0  0  0
  1  9  1  1  0  0  0
  2  8  1  6  0  0  0
  2  6  1  0  0  0  0
  3  4  1  0  0  0  0
  3  5  1  0  0  0  0
  4  2  1  0  0  0  0
  5  1  1  0  0  0  0
  6 17  1  1  0  0  0
  7  8  1  0  0  0  0
 10  9  1  6  0  0  0
 11 16  1  0  0  0  0
 11 14  1  0  0  0  0
 12 10  1  0  0  0  0
 14 13  1  1  0  0  0
 14 10  1  0  0  0  0
 15 11  1  0  0  0  0
 16 12  1  0  0  0  0
 18 27  1  0  0  0  0
 19 24  2  0  0  0  0
 20 17  1  1  0  0  0
 20 22  1  0  0  0  0
 21 26  1  0  0  0  0
 22 18  2  0  0  0  0
 22 19  1  0  0  0  0
 23 25  1  0  0  0  0
 24 21  1  0  0  0  0
 25 19  1  0  0  0  0
 27 21  2  0  0  0  0
 28 23  2  0  0  0  0
 28 20  1  0  0  0  0
M  END
>  <MODEL>
9

>  <REMARK>
 VINA RESULT:      -5.5      4.980      8.429
  Name = 
  5 active torsions:
  status: ('A' for Active; 'I' for Inactive)
    1  A    between atoms: C_1  and  O_2
    2  A    between atoms: O_2  and  C_3
    3  A    between atoms: C_10  and  C_17
    4  A    between atoms: C_16  and  C_20
    5  A    between atoms: C_17  and  C_27
                            x       y       z     vdW  Elec       q    Type
                         _______ _______ _______ _____ _____    ______ ____

>  <TORSDO>
F 5

$$$$
