=
 OpenBabel11052422293D

 31 33  0  0  1  0  0  0  0  0999 V2000
  161.6100  206.7190  151.5400 C   0  0  0  0  0  0  0  0  0  0  0  0
  161.4150  207.9310  152.3680 C   0  0  1  0  0  3  0  0  0  0  0  0
  161.3750  210.3470  152.6160 C   0  0  0  0  0  3  0  0  0  0  0  0
  161.5700  209.2140  151.8210 C   0  0  0  0  0  3  0  0  0  0  0  0
  160.9060  206.4960  154.2640 N   0  0  0  0  0  0  0  0  0  0  0  0
  160.8290  211.3330  154.7490 O   0  0  0  0  0  1  0  0  0  0  0  0
  161.4830  205.4980  152.1190 C   0  0  0  0  0  0  0  0  0  0  0  0
  161.0220  210.2060  153.9620 C   0  0  0  0  0  0  0  0  0  0  0  0
  161.1190  205.3860  153.4710 O   0  0  0  0  0  0  0  0  0  0  0  0
  161.0610  207.8020  153.7180 C   0  0  0  0  0  0  0  0  0  0  0  0
  160.8650  208.9320  154.5140 C   0  0  0  0  0  3  0  0  0  0  0  0
  161.9710  206.9010  150.1580 N   0  0  0  0  0  2  0  0  0  0  0  0
  161.5390  208.4800  148.5030 O   0  0  0  0  0  1  0  0  0  0  0  0
  161.0790  207.2950  149.0760 C   0  0  1  0  0  3  0  0  0  0  0  0
  161.0400  206.2090  148.0180 C   0  0  0  0  0  2  0  0  0  0  0  0
  162.2280  206.3460  147.0840 C   0  0  0  0  0  2  0  0  0  0  0  0
  162.3370  205.1270  146.1870 C   0  0  2  0  0  3  0  0  0  0  0  0
  163.6680  204.7960  146.0260 F   0  0  0  0  0  0  0  0  0  0  0  0
  161.7530  205.4150  144.8880 N   0  0  0  0  0  1  0  0  0  0  0  0
  161.7440  204.2260  151.3820 C   0  0  0  0  0  2  0  0  0  0  0  0
  160.4470  203.4480  151.2030 C   0  0  0  0  0  2  0  0  0  0  0  0
  161.3400  201.2870  150.7060 F   0  0  0  0  0  0  0  0  0  0  0  0
  160.5970  202.3320  150.1790 C   0  0  2  0  0  3  0  0  0  0  0  0
  161.2340  202.8510  148.8960 C   0  0  0  0  0  2  0  0  0  0  0  0
  160.3750  201.3110  145.5440 C   0  0  0  0  0  0  0  0  0  0  0  0
  161.4570  199.6310  146.9120 C   0  0  0  0  0  3  0  0  0  0  0  0
  159.7940  201.6770  144.3770 F   0  0  0  0  0  0  0  0  0  0  0  0
  160.4950  202.2360  146.5850 C   0  0  0  0  0  3  0  0  0  0  0  0
  161.5770  200.5560  147.9540 C   0  0  0  0  0  3  0  0  0  0  0  0
  161.0930  201.8600  147.7930 C   0  0  0  0  0  0  0  0  0  0  0  0
  160.8560  200.0080  145.7080 C   0  0  0  0  0  3  0  0  0  0  0  0
  1  7  2  0  0  0  0
  1  2  1  0  0  0  0
  2  4  1  6  0  0  0
  2 10  1  0  0  0  0
  3  8  1  0  0  0  0
  4  3  2  0  0  0  0
  7  9  1  0  0  0  0
  8 11  2  0  0  0  0
  8  6  1  0  0  0  0
  9  5  1  0  0  0  0
 10  5  2  0  0  0  0
 10 11  1  0  0  0  0
 12  1  1  0  0  0  0
 14 13  1  6  0  0  0
 14 12  1  0  0  0  0
 15 14  1  0  0  0  0
 16 15  1  0  0  0  0
 17 19  1  6  0  0  0
 17 16  1  0  0  0  0
 18 17  1  0  0  0  0
 20  7  1  0  0  0  0
 21 20  1  0  0  0  0
 23 22  1  1  0  0  0
 23 21  1  0  0  0  0
 24 23  1  0  0  0  0
 25 31  2  0  0  0  0
 25 28  1  0  0  0  0
 26 29  2  0  0  0  0
 27 25  1  0  0  0  0
 28 30  2  0  0  0  0
 30 29  1  0  0  0  0
 30 24  1  0  0  0  0
 31 26  1  0  0  0  0
M  END
>  <MODEL>
1

>  <REMARK>
 VINA RESULT:      -8.8      0.000      0.000
  Name = 
  10 active torsions:
  status: ('A' for Active; 'I' for Inactive)
    1  A    between atoms: C_2  and  C_13
    2  A    between atoms: C_3  and  C_9
    3  A    between atoms: C_3  and  C_22
    4  A    between atoms: C_4  and  N_12
    5  A    between atoms: C_9  and  C_23
    6  A    between atoms: N_12  and  C_27
    7  A    between atoms: C_13  and  C_28
    8  A    between atoms: C_15  and  C_21
    9  A    between atoms: C_15  and  C_23
   10  A    between atoms: C_27  and  C_28
                            x       y       z     vdW  Elec       q    Type
                         _______ _______ _______ _____ _____    ______ ____

>  <TORSDO>
F 10

$$$$
=
 OpenBabel11052422293D

 31 33  0  0  1  0  0  0  0  0999 V2000
  161.8020  207.0200  152.1450 C   0  0  0  0  0  0  0  0  0  0  0  0
  161.2590  207.5980  153.3950 C   0  0  1  0  0  3  0  0  0  0  0  0
  160.3280  207.3400  155.6240 C   0  0  0  0  0  3  0  0  0  0  0  0
  160.8310  206.7750  154.4480 C   0  0  0  0  0  3  0  0  0  0  0  0
  161.6140  209.8170  152.4650 N   0  0  0  0  0  0  0  0  0  0  0  0
  159.7510  209.2880  156.9250 O   0  0  0  0  0  1  0  0  0  0  0  0
  162.1720  207.8530  151.1390 C   0  0  0  0  0  0  0  0  0  0  0  0
  160.2510  208.7300  155.7560 C   0  0  0  0  0  0  0  0  0  0  0  0
  162.0920  209.2450  151.3030 O   0  0  0  0  0  0  0  0  0  0  0  0
  161.1770  208.9900  153.5390 C   0  0  0  0  0  0  0  0  0  0  0  0
  160.6760  209.5570  154.7130 C   0  0  0  0  0  3  0  0  0  0  0  0
  161.8690  205.5850  152.0430 N   0  0  0  0  0  2  0  0  0  0  0  0
  160.1620  205.0980  150.5370 O   0  0  0  0  0  1  0  0  0  0  0  0
  160.7650  204.6890  151.7260 C   0  0  1  0  0  3  0  0  0  0  0  0
  161.2790  203.2720  151.5650 C   0  0  0  0  0  2  0  0  0  0  0  0
  161.2160  202.8550  150.1070 C   0  0  0  0  0  2  0  0  0  0  0  0
  160.7820  201.4050  149.9920 C   0  0  2  0  0  3  0  0  0  0  0  0
  161.6860  200.7200  149.2050 F   0  0  0  0  0  0  0  0  0  0  0  0
  159.4640  201.3290  149.3860 N   0  0  0  0  0  1  0  0  0  0  0  0
  162.6500  207.3540  149.8160 C   0  0  0  0  0  2  0  0  0  0  0  0
  161.8950  208.0500  148.6900 C   0  0  0  0  0  2  0  0  0  0  0  0
  160.0810  206.5810  148.1790 F   0  0  0  0  0  0  0  0  0  0  0  0
  161.2970  207.0500  147.7110 C   0  0  2  0  0  3  0  0  0  0  0  0
  162.2580  205.8960  147.4570 C   0  0  0  0  0  2  0  0  0  0  0  0
  161.0320  202.5790  146.0980 C   0  0  0  0  0  0  0  0  0  0  0  0
  160.4740  204.3190  144.5100 C   0  0  0  0  0  3  0  0  0  0  0  0
  161.0160  201.2750  146.4640 F   0  0  0  0  0  0  0  0  0  0  0  0
  161.6230  203.5310  146.9350 C   0  0  0  0  0  3  0  0  0  0  0  0
  161.0640  205.2730  145.3460 C   0  0  0  0  0  3  0  0  0  0  0  0
  161.6420  204.8790  146.5580 C   0  0  0  0  0  0  0  0  0  0  0  0
  160.4580  202.9730  144.8860 C   0  0  0  0  0  3  0  0  0  0  0  0
  1  2  1  0  0  0  0
  2 10  1  0  0  0  0
  2  4  1  1  0  0  0
  3  8  1  0  0  0  0
  4  3  2  0  0  0  0
  5 10  2  0  0  0  0
  7  9  1  0  0  0  0
  7  1  2  0  0  0  0
  8  6  1  0  0  0  0
  9  5  1  0  0  0  0
 10 11  1  0  0  0  0
 11  8  2  0  0  0  0
 12  1  1  0  0  0  0
 14 13  1  6  0  0  0
 14 12  1  0  0  0  0
 15 14  1  0  0  0  0
 16 15  1  0  0  0  0
 17 18  1  6  0  0  0
 17 16  1  0  0  0  0
 19 17  1  0  0  0  0
 20  7  1  0  0  0  0
 21 20  1  0  0  0  0
 23 22  1  1  0  0  0
 23 21  1  0  0  0  0
 24 23  1  0  0  0  0
 25 27  1  0  0  0  0
 25 28  1  0  0  0  0
 26 31  1  0  0  0  0
 26 29  2  0  0  0  0
 29 30  1  0  0  0  0
 30 28  2  0  0  0  0
 30 24  1  0  0  0  0
 31 25  2  0  0  0  0
M  END
>  <MODEL>
2

>  <REMARK>
 VINA RESULT:      -8.8      2.247      3.969
  Name = 
  10 active torsions:
  status: ('A' for Active; 'I' for Inactive)
    1  A    between atoms: C_2  and  C_13
    2  A    between atoms: C_3  and  C_9
    3  A    between atoms: C_3  and  C_22
    4  A    between atoms: C_4  and  N_12
    5  A    between atoms: C_9  and  C_23
    6  A    between atoms: N_12  and  C_27
    7  A    between atoms: C_13  and  C_28
    8  A    between atoms: C_15  and  C_21
    9  A    between atoms: C_15  and  C_23
   10  A    between atoms: C_27  and  C_28
                            x       y       z     vdW  Elec       q    Type
                         _______ _______ _______ _____ _____    ______ ____

>  <TORSDO>
F 10

$$$$
=
 OpenBabel11052422293D

 31 33  0  0  1  0  0  0  0  0999 V2000
  161.0940  207.1940  150.6900 C   0  0  0  0  0  0  0  0  0  0  0  0
  161.2270  208.1140  151.8430 C   0  0  1  0  0  3  0  0  0  0  0  0
  161.0430  208.5770  154.2200 C   0  0  0  0  0  3  0  0  0  0  0  0
  160.9040  207.6970  153.1430 C   0  0  0  0  0  3  0  0  0  0  0  0
  162.0150  209.8350  150.3160 N   0  0  0  0  0  0  0  0  0  0  0  0
  161.6440  210.7510  155.0770 O   0  0  0  0  0  1  0  0  0  0  0  0
  161.3840  207.6500  149.4450 C   0  0  0  0  0  0  0  0  0  0  0  0
  161.5060  209.8790  154.0060 C   0  0  0  0  0  0  0  0  0  0  0  0
  161.8560  208.9600  149.2600 O   0  0  0  0  0  0  0  0  0  0  0  0
  161.6900  209.4210  151.6390 C   0  0  0  0  0  0  0  0  0  0  0  0
  161.8310  210.3020  152.7140 C   0  0  0  0  0  3  0  0  0  0  0  0
  160.6150  205.8600  150.9470 N   0  0  0  0  0  2  0  0  0  0  0  0
  161.1750  204.2260  152.5080 O   0  0  0  0  0  1  0  0  0  0  0  0
  161.4330  204.6850  151.2160 C   0  0  1  0  0  3  0  0  0  0  0  0
  161.1060  203.5900  150.2200 C   0  0  0  0  0  2  0  0  0  0  0  0
  161.1350  202.2350  150.9050 C   0  0  0  0  0  2  0  0  0  0  0  0
  160.6680  201.1530  149.9490 C   0  0  2  0  0  3  0  0  0  0  0  0
  161.7150  200.7870  149.1260 F   0  0  0  0  0  0  0  0  0  0  0  0
  159.5700  201.6480  149.1380 N   0  0  0  0  0  1  0  0  0  0  0  0
  161.1980  206.8200  148.2190 C   0  0  0  0  0  2  0  0  0  0  0  0
  162.5270  206.6480  147.4950 C   0  0  0  0  0  2  0  0  0  0  0  0
  163.9680  204.9020  146.7280 F   0  0  0  0  0  0  0  0  0  0  0  0
  162.6390  205.2780  146.8400 C   0  0  2  0  0  3  0  0  0  0  0  0
  161.9600  205.2680  145.4770 C   0  0  0  0  0  2  0  0  0  0  0  0
  160.7830  201.6820  145.7950 C   0  0  0  0  0  0  0  0  0  0  0  0
  159.3050  202.8490  144.2720 C   0  0  0  0  0  3  0  0  0  0  0  0
  161.1350  200.5520  146.4530 F   0  0  0  0  0  0  0  0  0  0  0  0
  161.5320  202.8500  145.9640 C   0  0  0  0  0  3  0  0  0  0  0  0
  160.0540  204.0180  144.4410 C   0  0  0  0  0  3  0  0  0  0  0  0
  161.1700  204.0190  145.2850 C   0  0  0  0  0  0  0  0  0  0  0  0
  159.6690  201.6810  144.9490 C   0  0  0  0  0  3  0  0  0  0  0  0
  1 12  1  0  0  0  0
  1  2  1  0  0  0  0
  2  4  1  1  0  0  0
  4  3  2  0  0  0  0
  5 10  2  0  0  0  0
  7  1  2  0  0  0  0
  8  3  1  0  0  0  0
  8  6  1  0  0  0  0
  9  7  1  0  0  0  0
  9  5  1  0  0  0  0
 10  2  1  0  0  0  0
 10 11  1  0  0  0  0
 11  8  2  0  0  0  0
 12 14  1  0  0  0  0
 14 13  1  1  0  0  0
 15 16  1  0  0  0  0
 15 14  1  0  0  0  0
 17 18  1  6  0  0  0
 17 16  1  0  0  0  0
 19 17  1  0  0  0  0
 20  7  1  0  0  0  0
 21 20  1  0  0  0  0
 23 22  1  6  0  0  0
 23 21  1  0  0  0  0
 24 23  1  0  0  0  0
 25 28  1  0  0  0  0
 25 27  1  0  0  0  0
 26 29  2  0  0  0  0
 26 31  1  0  0  0  0
 29 30  1  0  0  0  0
 30 24  1  0  0  0  0
 30 28  2  0  0  0  0
 31 25  2  0  0  0  0
M  END
>  <MODEL>
3

>  <REMARK>
 VINA RESULT:      -8.8      1.773      3.966
  Name = 
  10 active torsions:
  status: ('A' for Active; 'I' for Inactive)
    1  A    between atoms: C_2  and  C_13
    2  A    between atoms: C_3  and  C_9
    3  A    between atoms: C_3  and  C_22
    4  A    between atoms: C_4  and  N_12
    5  A    between atoms: C_9  and  C_23
    6  A    between atoms: N_12  and  C_27
    7  A    between atoms: C_13  and  C_28
    8  A    between atoms: C_15  and  C_21
    9  A    between atoms: C_15  and  C_23
   10  A    between atoms: C_27  and  C_28
                            x       y       z     vdW  Elec       q    Type
                         _______ _______ _______ _____ _____    ______ ____

>  <TORSDO>
F 10

$$$$
=
 OpenBabel11052422293D

 31 33  0  0  1  0  0  0  0  0999 V2000
  160.9320  208.3100  152.8650 C   0  0  0  0  0  0  0  0  0  0  0  0
  160.4670  209.6440  153.3100 C   0  0  1  0  0  3  0  0  0  0  0  0
  159.7270  211.9050  152.8210 C   0  0  0  0  0  3  0  0  0  0  0  0
  160.1720  210.6550  152.3830 C   0  0  0  0  0  3  0  0  0  0  0  0
  160.6090  208.8710  155.6120 N   0  0  0  0  0  0  0  0  0  0  0  0
  159.1300  213.3960  154.6210 O   0  0  0  0  0  1  0  0  0  0  0  0
  161.2380  207.3730  153.7980 C   0  0  0  0  0  0  0  0  0  0  0  0
  159.5720  212.1530  154.1880 C   0  0  0  0  0  0  0  0  0  0  0  0
  161.0650  207.6470  155.1650 O   0  0  0  0  0  0  0  0  0  0  0  0
  160.3080  209.9030  154.6780 C   0  0  0  0  0  0  0  0  0  0  0  0
  159.8620  211.1520  155.1190 C   0  0  0  0  0  3  0  0  0  0  0  0
  161.0800  208.0890  151.4500 N   0  0  0  0  0  2  0  0  0  0  0  0
  163.0680  207.0970  150.7550 O   0  0  0  0  0  1  0  0  0  0  0  0
  162.3000  208.2580  150.6710 C   0  0  1  0  0  3  0  0  0  0  0  0
  161.9530  208.5250  149.2200 C   0  0  0  0  0  2  0  0  0  0  0  0
  162.2480  207.2980  148.3770 C   0  0  0  0  0  2  0  0  0  0  0  0
  161.1010  207.0280  147.4200 C   0  0  2  0  0  3  0  0  0  0  0  0
  160.0630  206.4300  148.1080 F   0  0  0  0  0  0  0  0  0  0  0  0
  161.5430  206.1450  146.3550 N   0  0  0  0  0  1  0  0  0  0  0  0
  161.7940  206.0340  153.4430 C   0  0  0  0  0  2  0  0  0  0  0  0
  160.6880  205.1330  152.9090 C   0  0  0  0  0  2  0  0  0  0  0  0
  162.6050  204.1600  151.8640 F   0  0  0  0  0  0  0  0  0  0  0  0
  161.2210  204.1260  151.8980 C   0  0  2  0  0  3  0  0  0  0  0  0
  160.6410  204.3870  150.5140 C   0  0  0  0  0  2  0  0  0  0  0  0
  161.1680  202.2470  147.4330 C   0  0  0  0  0  0  0  0  0  0  0  0
  160.9750  200.7940  149.3610 C   0  0  0  0  0  3  0  0  0  0  0  0
  161.3470  202.4110  146.1010 F   0  0  0  0  0  0  0  0  0  0  0  0
  160.9960  203.3630  148.2570 C   0  0  0  0  0  3  0  0  0  0  0  0
  160.8020  201.9100  150.1860 C   0  0  0  0  0  3  0  0  0  0  0  0
  160.8100  203.1960  149.6340 C   0  0  0  0  0  0  0  0  0  0  0  0
  161.1580  200.9620  147.9850 C   0  0  0  0  0  3  0  0  0  0  0  0
  1  2  1  0  0  0  0
  1  7  2  0  0  0  0
  2  4  1  6  0  0  0
  2 10  1  0  0  0  0
  3  8  1  0  0  0  0
  4  3  2  0  0  0  0
  7  9  1  0  0  0  0
  8  6  1  0  0  0  0
  8 11  2  0  0  0  0
  9  5  1  0  0  0  0
 10 11  1  0  0  0  0
 10  5  2  0  0  0  0
 12  1  1  0  0  0  0
 14 13  1  6  0  0  0
 14 12  1  0  0  0  0
 15 14  1  0  0  0  0
 16 15  1  0  0  0  0
 17 19  1  6  0  0  0
 17 18  1  0  0  0  0
 17 16  1  0  0  0  0
 20  7  1  0  0  0  0
 21 20  1  0  0  0  0
 23 22  1  6  0  0  0
 23 21  1  0  0  0  0
 24 23  1  0  0  0  0
 25 31  2  0  0  0  0
 25 28  1  0  0  0  0
 26 29  2  0  0  0  0
 27 25  1  0  0  0  0
 28 30  2  0  0  0  0
 30 29  1  0  0  0  0
 30 24  1  0  0  0  0
 31 26  1  0  0  0  0
M  END
>  <MODEL>
4

>  <REMARK>
 VINA RESULT:      -8.7      1.912      2.554
  Name = 
  10 active torsions:
  status: ('A' for Active; 'I' for Inactive)
    1  A    between atoms: C_2  and  C_13
    2  A    between atoms: C_3  and  C_9
    3  A    between atoms: C_3  and  C_22
    4  A    between atoms: C_4  and  N_12
    5  A    between atoms: C_9  and  C_23
    6  A    between atoms: N_12  and  C_27
    7  A    between atoms: C_13  and  C_28
    8  A    between atoms: C_15  and  C_21
    9  A    between atoms: C_15  and  C_23
   10  A    between atoms: C_27  and  C_28
                            x       y       z     vdW  Elec       q    Type
                         _______ _______ _______ _____ _____    ______ ____

>  <TORSDO>
F 10

$$$$
=
 OpenBabel11052422293D

 31 33  0  0  1  0  0  0  0  0999 V2000
  161.0340  208.3190  152.3200 C   0  0  0  0  0  0  0  0  0  0  0  0
  160.6110  209.5570  153.0140 C   0  0  1  0  0  3  0  0  0  0  0  0
  159.8210  211.8540  152.9630 C   0  0  0  0  0  3  0  0  0  0  0  0
  160.2250  210.6960  152.2910 C   0  0  0  0  0  3  0  0  0  0  0  0
  160.9790  208.4340  155.1390 N   0  0  0  0  0  0  0  0  0  0  0  0
  159.3990  213.0310  155.0250 O   0  0  0  0  0  1  0  0  0  0  0  0
  161.4320  207.2520  153.0590 C   0  0  0  0  0  0  0  0  0  0  0  0
  159.8000  211.8810  154.3600 C   0  0  0  0  0  0  0  0  0  0  0  0
  161.3920  207.3040  154.4620 O   0  0  0  0  0  0  0  0  0  0  0  0
  160.5850  209.5950  154.4150 C   0  0  0  0  0  0  0  0  0  0  0  0
  160.1820  210.7500  155.0880 C   0  0  0  0  0  3  0  0  0  0  0  0
  161.0430  208.3260  150.8800 N   0  0  0  0  0  2  0  0  0  0  0  0
  162.5640  207.3160  149.4350 O   0  0  0  0  0  1  0  0  0  0  0  0
  162.2050  208.5280  150.0240 C   0  0  1  0  0  3  0  0  0  0  0  0
  161.8780  209.5350  148.9400 C   0  0  0  0  0  2  0  0  0  0  0  0
  162.2250  210.9380  149.4070 C   0  0  0  0  0  2  0  0  0  0  0  0
  162.1520  211.9130  148.2460 C   0  0  2  0  0  3  0  0  0  0  0  0
  163.3830  212.5160  148.0790 F   0  0  0  0  0  0  0  0  0  0  0  0
  161.1510  212.9310  148.5170 N   0  0  0  0  0  1  0  0  0  0  0  0
  161.9530  205.9960  152.4440 C   0  0  0  0  0  2  0  0  0  0  0  0
  161.0650  204.8180  152.8240 C   0  0  0  0  0  2  0  0  0  0  0  0
  162.0420  202.9160  151.7570 F   0  0  0  0  0  0  0  0  0  0  0  0
  160.9740  203.7960  151.7000 C   0  0  2  0  0  3  0  0  0  0  0  0
  160.9150  204.4840  150.3420 C   0  0  0  0  0  2  0  0  0  0  0  0
  161.3290  202.8990  146.9270 C   0  0  0  0  0  0  0  0  0  0  0  0
  160.4540  201.2340  148.4520 C   0  0  0  0  0  3  0  0  0  0  0  0
  161.7530  203.2490  145.6890 F   0  0  0  0  0  0  0  0  0  0  0  0
  161.3340  203.8420  147.9590 C   0  0  0  0  0  3  0  0  0  0  0  0
  160.4570  202.1770  149.4850 C   0  0  0  0  0  3  0  0  0  0  0  0
  160.8950  203.4830  149.2390 C   0  0  0  0  0  0  0  0  0  0  0  0
  160.8890  201.5950  147.1730 C   0  0  0  0  0  3  0  0  0  0  0  0
  1  2  1  0  0  0  0
  1  7  2  0  0  0  0
  2  4  1  6  0  0  0
  2 10  1  0  0  0  0
  3  8  1  0  0  0  0
  4  3  2  0  0  0  0
  7  9  1  0  0  0  0
  8  6  1  0  0  0  0
  8 11  2  0  0  0  0
  9  5  1  0  0  0  0
 10 11  1  0  0  0  0
 10  5  2  0  0  0  0
 12  1  1  0  0  0  0
 14 13  1  6  0  0  0
 14 12  1  0  0  0  0
 15 16  1  0  0  0  0
 15 14  1  0  0  0  0
 17 18  1  1  0  0  0
 17 19  1  0  0  0  0
 17 16  1  0  0  0  0
 20 21  1  0  0  0  0
 20  7  1  0  0  0  0
 23 22  1  6  0  0  0
 23 21  1  0  0  0  0
 24 23  1  0  0  0  0
 25 31  2  0  0  0  0
 25 28  1  0  0  0  0
 26 29  2  0  0  0  0
 27 25  1  0  0  0  0
 28 30  2  0  0  0  0
 30 29  1  0  0  0  0
 30 24  1  0  0  0  0
 31 26  1  0  0  0  0
M  END
>  <MODEL>
5

>  <REMARK>
 VINA RESULT:      -8.6      2.542      3.330
  Name = 
  10 active torsions:
  status: ('A' for Active; 'I' for Inactive)
    1  A    between atoms: C_2  and  C_13
    2  A    between atoms: C_3  and  C_9
    3  A    between atoms: C_3  and  C_22
    4  A    between atoms: C_4  and  N_12
    5  A    between atoms: C_9  and  C_23
    6  A    between atoms: N_12  and  C_27
    7  A    between atoms: C_13  and  C_28
    8  A    between atoms: C_15  and  C_21
    9  A    between atoms: C_15  and  C_23
   10  A    between atoms: C_27  and  C_28
                            x       y       z     vdW  Elec       q    Type
                         _______ _______ _______ _____ _____    ______ ____

>  <TORSDO>
F 10

$$$$
=
 OpenBabel11052422293D

 31 33  0  0  1  0  0  0  0  0999 V2000
  161.0990  207.1710  151.5010 C   0  0  0  0  0  0  0  0  0  0  0  0
  161.0830  208.1020  152.6530 C   0  0  1  0  0  3  0  0  0  0  0  0
  161.0310  210.3550  153.5590 C   0  0  0  0  0  3  0  0  0  0  0  0
  161.0530  209.4920  152.4600 C   0  0  0  0  0  3  0  0  0  0  0  0
  161.1160  206.1820  154.1440 N   0  0  0  0  0  0  0  0  0  0  0  0
  161.0120  210.6960  155.9470 O   0  0  0  0  0  1  0  0  0  0  0  0
  161.1620  205.8350  151.7340 C   0  0  0  0  0  0  0  0  0  0  0  0
  161.0350  209.8370  154.8570 C   0  0  0  0  0  0  0  0  0  0  0  0
  161.1570  205.3420  153.0490 O   0  0  0  0  0  0  0  0  0  0  0  0
  161.0870  207.5930  153.9590 C   0  0  0  0  0  0  0  0  0  0  0  0
  161.0630  208.4540  155.0580 C   0  0  0  0  0  3  0  0  0  0  0  0
  161.0930  207.7400  150.1780 N   0  0  0  0  0  2  0  0  0  0  0  0
  162.6800  207.1560  148.5790 O   0  0  0  0  0  1  0  0  0  0  0  0
  162.2570  208.1820  149.4220 C   0  0  1  0  0  3  0  0  0  0  0  0
  161.9000  209.3990  148.5910 C   0  0  0  0  0  2  0  0  0  0  0  0
  162.1130  210.6650  149.4010 C   0  0  0  0  0  2  0  0  0  0  0  0
  161.9060  211.8900  148.5280 C   0  0  2  0  0  3  0  0  0  0  0  0
  160.9840  211.5960  147.5420 F   0  0  0  0  0  0  0  0  0  0  0  0
  163.1620  212.2770  147.9100 N   0  0  0  0  0  1  0  0  0  0  0  0
  161.2680  204.8300  150.6360 C   0  0  0  0  0  2  0  0  0  0  0  0
  160.4660  203.5840  150.9860 C   0  0  0  0  0  2  0  0  0  0  0  0
  160.2490  201.3010  150.3130 F   0  0  0  0  0  0  0  0  0  0  0  0
  160.4420  202.5870  149.8360 C   0  0  2  0  0  3  0  0  0  0  0  0
  161.7230  202.6710  149.0160 C   0  0  0  0  0  2  0  0  0  0  0  0
  160.5230  202.2060  145.4530 C   0  0  0  0  0  0  0  0  0  0  0  0
  161.4190  204.4440  145.6820 C   0  0  0  0  0  3  0  0  0  0  0  0
  159.9440  201.2460  144.6940 F   0  0  0  0  0  0  0  0  0  0  0  0
  160.8210  201.9500  146.7950 C   0  0  0  0  0  3  0  0  0  0  0  0
  161.7170  204.1890  147.0240 C   0  0  0  0  0  3  0  0  0  0  0  0
  161.4210  202.9390  147.5820 C   0  0  0  0  0  0  0  0  0  0  0  0
  160.8230  203.4530  144.8960 C   0  0  0  0  0  3  0  0  0  0  0  0
  1  7  2  0  0  0  0
  1  2  1  0  0  0  0
  2  4  1  6  0  0  0
  2 10  1  0  0  0  0
  3  8  1  0  0  0  0
  4  3  2  0  0  0  0
  7  9  1  0  0  0  0
  8 11  2  0  0  0  0
  8  6  1  0  0  0  0
  9  5  1  0  0  0  0
 10  5  2  0  0  0  0
 10 11  1  0  0  0  0
 12  1  1  0  0  0  0
 14 13  1  6  0  0  0
 14 12  1  0  0  0  0
 15 16  1  0  0  0  0
 15 14  1  0  0  0  0
 17 18  1  6  0  0  0
 17 16  1  0  0  0  0
 19 17  1  0  0  0  0
 20 21  1  0  0  0  0
 20  7  1  0  0  0  0
 23 22  1  1  0  0  0
 23 21  1  0  0  0  0
 24 23  1  0  0  0  0
 25 28  1  0  0  0  0
 26 29  2  0  0  0  0
 27 25  1  0  0  0  0
 28 30  2  0  0  0  0
 29 30  1  0  0  0  0
 30 24  1  0  0  0  0
 31 25  2  0  0  0  0
 31 26  1  0  0  0  0
M  END
>  <MODEL>
6

>  <REMARK>
 VINA RESULT:      -8.5      2.194      2.957
  Name = 
  10 active torsions:
  status: ('A' for Active; 'I' for Inactive)
    1  A    between atoms: C_2  and  C_13
    2  A    between atoms: C_3  and  C_9
    3  A    between atoms: C_3  and  C_22
    4  A    between atoms: C_4  and  N_12
    5  A    between atoms: C_9  and  C_23
    6  A    between atoms: N_12  and  C_27
    7  A    between atoms: C_13  and  C_28
    8  A    between atoms: C_15  and  C_21
    9  A    between atoms: C_15  and  C_23
   10  A    between atoms: C_27  and  C_28
                            x       y       z     vdW  Elec       q    Type
                         _______ _______ _______ _____ _____    ______ ____

>  <TORSDO>
F 10

$$$$
=
 OpenBabel11052422293D

 31 33  0  0  1  0  0  0  0  0999 V2000
  160.8930  204.0500  148.8920 C   0  0  0  0  0  0  0  0  0  0  0  0
  161.0200  202.7860  148.1310 C   0  0  0  0  0  0  0  0  0  0  0  0
  161.1950  201.5830  146.0280 C   0  0  0  0  0  3  0  0  0  0  0  0
  161.0670  202.7860  146.7280 C   0  0  0  0  0  3  0  0  0  0  0  0
  161.0570  201.5770  150.2410 N   0  0  0  0  0  0  0  0  0  0  0  0
  161.4050  199.1800  146.0250 O   0  0  0  0  0  1  0  0  0  0  0  0
  160.8170  204.0000  150.2460 C   0  0  0  0  0  0  0  0  0  0  0  0
  161.2780  200.3730  146.7230 C   0  0  0  0  0  0  0  0  0  0  0  0
  160.9120  202.7710  150.9190 O   0  0  0  0  0  0  0  0  0  0  0  0
  161.1050  201.5660  148.8180 C   0  0  0  0  0  0  0  0  0  0  0  0
  161.2340  200.3640  148.1200 C   0  0  0  0  0  2  0  0  0  0  0  0
  160.8110  205.2780  148.1430 N   0  0  0  0  0  2  0  0  0  0  0  0
  162.3640  206.2040  146.6770 O   0  0  0  0  0  1  0  0  0  0  0  0
  161.8710  206.2630  147.9810 C   0  0  1  0  0  3  0  0  0  0  0  0
  161.3290  207.6530  148.2490 C   0  0  0  0  0  2  0  0  0  0  0  0
  162.4330  208.5520  148.7760 C   0  0  0  0  0  2  0  0  0  0  0  0
  162.1130  209.0070  150.1880 C   0  0  2  0  0  3  0  0  0  0  0  0
  160.8850  208.4970  150.5640 F   0  0  0  0  0  0  0  0  0  0  0  0
  162.0660  210.4580  150.2430 N   0  0  0  0  0  1  0  0  0  0  0  0
  160.6030  205.2150  151.0860 C   0  0  0  0  0  2  0  0  0  0  0  0
  161.9250  205.6780  151.6850 C   0  0  0  0  0  2  0  0  0  0  0  0
  161.2770  205.0770  153.9060 F   0  0  0  0  0  0  0  0  0  0  0  0
  161.7630  206.1190  153.1330 C   0  0  2  0  0  3  0  0  0  0  0  0
  160.8500  207.3340  153.2330 C   0  0  0  0  0  2  0  0  0  0  0  0
  161.1130  209.6180  156.2440 C   0  0  0  0  0  0  0  0  0  0  0  0
  160.2190  207.4860  156.9650 C   0  0  0  0  0  3  0  0  0  0  0  0
  161.5080  210.8820  156.5290 F   0  0  0  0  0  0  0  0  0  0  0  0
  161.1890  209.1420  154.9310 C   0  0  0  0  0  3  0  0  0  0  0  0
  160.2950  207.0090  155.6530 C   0  0  0  0  0  3  0  0  0  0  0  0
  160.7830  207.8360  154.6340 C   0  0  0  0  0  0  0  0  0  0  0  0
  160.6280  208.7900  157.2610 C   0  0  0  0  0  3  0  0  0  0  0  0
  1  7  2  0  0  0  0
  2 10  1  0  0  0  0
  2  1  1  0  0  0  0
  3  8  2  0  0  0  0
  3  4  1  0  0  0  0
  4  2  2  0  0  0  0
  5  9  1  0  0  0  0
  6  8  1  0  0  0  0
  7  9  1  0  0  0  0
  7 20  1  0  0  0  0
  8 11  1  0  0  0  0
 10  5  2  0  0  0  0
 11 10  1  0  0  0  0
 12  1  1  0  0  0  0
 14 13  1  6  0  0  0
 14 12  1  0  0  0  0
 14 15  1  0  0  0  0
 15 16  1  0  0  0  0
 16 17  1  0  0  0  0
 17 19  1  6  0  0  0
 17 18  1  0  0  0  0
 20 21  1  0  0  0  0
 21 23  1  0  0  0  0
 23 24  1  0  0  0  0
 23 22  1  1  0  0  0
 24 30  1  0  0  0  0
 25 27  1  0  0  0  0
 25 31  1  0  0  0  0
 26 31  2  0  0  0  0
 28 25  2  0  0  0  0
 29 26  1  0  0  0  0
 30 28  1  0  0  0  0
 30 29  2  0  0  0  0
M  END
>  <MODEL>
7

>  <REMARK>
 VINA RESULT:      -8.2      3.606      8.444
  Name = 
  10 active torsions:
  status: ('A' for Active; 'I' for Inactive)
    1  A    between atoms: C_2  and  C_13
    2  A    between atoms: C_3  and  C_9
    3  A    between atoms: C_3  and  C_22
    4  A    between atoms: C_4  and  N_12
    5  A    between atoms: C_9  and  C_23
    6  A    between atoms: N_12  and  C_27
    7  A    between atoms: C_13  and  C_28
    8  A    between atoms: C_15  and  C_21
    9  A    between atoms: C_15  and  C_23
   10  A    between atoms: C_27  and  C_28
                            x       y       z     vdW  Elec       q    Type
                         _______ _______ _______ _____ _____    ______ ____

>  <TORSDO>
F 10

$$$$
=
 OpenBabel11052422293D

 31 33  0  0  1  0  0  0  0  0999 V2000
  161.2120  206.5050  150.2140 C   0  0  0  0  0  0  0  0  0  0  0  0
  161.1140  205.0310  150.3160 C   0  0  1  0  0  3  0  0  0  0  0  0
  160.5970  202.8660  149.3420 C   0  0  0  0  0  3  0  0  0  0  0  0
  160.6760  204.2580  149.2300 C   0  0  0  0  0  3  0  0  0  0  0  0
  161.9150  205.1840  152.6070 N   0  0  0  0  0  0  0  0  0  0  0  0
  160.8770  200.8570  150.6470 O   0  0  0  0  0  1  0  0  0  0  0  0
  161.6080  207.2160  151.3010 C   0  0  0  0  0  0  0  0  0  0  0  0
  160.9560  202.2390  150.5390 C   0  0  0  0  0  0  0  0  0  0  0  0
  161.9710  206.5590  152.4870 O   0  0  0  0  0  0  0  0  0  0  0  0
  161.4710  204.3910  151.5110 C   0  0  0  0  0  0  0  0  0  0  0  0
  161.3940  203.0020  151.6250 C   0  0  0  0  0  3  0  0  0  0  0  0
  160.8350  207.1190  148.9670 N   0  0  0  0  0  2  0  0  0  0  0  0
  163.0400  207.1950  148.2270 O   0  0  0  0  0  1  0  0  0  0  0  0
  161.7160  207.4010  147.8420 C   0  0  1  0  0  3  0  0  0  0  0  0
  161.3820  206.4840  146.6820 C   0  0  0  0  0  2  0  0  0  0  0  0
  162.4960  205.4730  146.4780 C   0  0  0  0  0  2  0  0  0  0  0  0
  162.2120  204.6150  145.2590 C   0  0  2  0  0  3  0  0  0  0  0  0
  161.3880  205.3080  144.3950 F   0  0  0  0  0  0  0  0  0  0  0  0
  161.5570  203.3830  145.6620 N   0  0  0  0  0  1  0  0  0  0  0  0
  161.6530  208.7080  151.3140 C   0  0  0  0  0  2  0  0  0  0  0  0
  160.5180  209.2600  152.1650 C   0  0  0  0  0  2  0  0  0  0  0  0
  162.2940  210.4690  153.2120 F   0  0  0  0  0  0  0  0  0  0  0  0
  160.9400  210.5110  152.9250 C   0  0  2  0  0  3  0  0  0  0  0  0
  160.1230  210.6740  154.2000 C   0  0  0  0  0  2  0  0  0  0  0  0
  160.4050  207.7220  156.5570 C   0  0  0  0  0  0  0  0  0  0  0  0
  162.2630  209.2200  156.9670 C   0  0  0  0  0  3  0  0  0  0  0  0
  159.7360  206.5790  156.8380 F   0  0  0  0  0  0  0  0  0  0  0  0
  159.9310  208.5830  155.5620 C   0  0  0  0  0  3  0  0  0  0  0  0
  161.7890  210.0820  155.9730 C   0  0  0  0  0  3  0  0  0  0  0  0
  160.6210  209.7650  155.2710 C   0  0  0  0  0  0  0  0  0  0  0  0
  161.5720  208.0410  157.2590 C   0  0  0  0  0  3  0  0  0  0  0  0
  1  2  1  0  0  0  0
  1  7  2  0  0  0  0
  2  4  1  6  0  0  0
  2 10  1  0  0  0  0
  3  8  1  0  0  0  0
  4  3  2  0  0  0  0
  7 20  1  0  0  0  0
  7  9  1  0  0  0  0
  8  6  1  0  0  0  0
  8 11  2  0  0  0  0
  9  5  1  0  0  0  0
 10 11  1  0  0  0  0
 10  5  2  0  0  0  0
 12  1  1  0  0  0  0
 14 13  1  1  0  0  0
 14 12  1  0  0  0  0
 15 14  1  0  0  0  0
 16 15  1  0  0  0  0
 17 18  1  6  0  0  0
 17 19  1  0  0  0  0
 17 16  1  0  0  0  0
 20 21  1  0  0  0  0
 21 23  1  0  0  0  0
 23 22  1  1  0  0  0
 23 24  1  0  0  0  0
 24 30  1  0  0  0  0
 25 27  1  0  0  0  0
 25 31  1  0  0  0  0
 26 31  2  0  0  0  0
 28 25  2  0  0  0  0
 29 26  1  0  0  0  0
 30 28  1  0  0  0  0
 30 29  2  0  0  0  0
M  END
>  <MODEL>
8

>  <REMARK>
 VINA RESULT:      -8.1      2.882      7.735
  Name = 
  10 active torsions:
  status: ('A' for Active; 'I' for Inactive)
    1  A    between atoms: C_2  and  C_13
    2  A    between atoms: C_3  and  C_9
    3  A    between atoms: C_3  and  C_22
    4  A    between atoms: C_4  and  N_12
    5  A    between atoms: C_9  and  C_23
    6  A    between atoms: N_12  and  C_27
    7  A    between atoms: C_13  and  C_28
    8  A    between atoms: C_15  and  C_21
    9  A    between atoms: C_15  and  C_23
   10  A    between atoms: C_27  and  C_28
                            x       y       z     vdW  Elec       q    Type
                         _______ _______ _______ _____ _____    ______ ____

>  <TORSDO>
F 10

$$$$
=
 OpenBabel11052422293D

 31 33  0  0  1  0  0  0  0  0999 V2000
  161.0580  206.4200  150.2880 C   0  0  0  0  0  0  0  0  0  0  0  0
  161.0330  204.9400  150.3200 C   0  0  1  0  0  3  0  0  0  0  0  0
  160.8000  202.7970  149.2010 C   0  0  0  0  0  3  0  0  0  0  0  0
  160.8140  204.1940  149.1520 C   0  0  0  0  0  3  0  0  0  0  0  0
  161.4620  205.0330  152.7120 N   0  0  0  0  0  0  0  0  0  0  0  0
  160.9940  200.7490  150.4610 O   0  0  0  0  0  1  0  0  0  0  0  0
  161.2400  207.1020  151.4480 C   0  0  0  0  0  0  0  0  0  0  0  0
  161.0080  202.1360  150.4160 C   0  0  0  0  0  0  0  0  0  0  0  0
  161.4540  206.4120  152.6520 O   0  0  0  0  0  0  0  0  0  0  0  0
  161.2390  204.2670  151.5330 C   0  0  0  0  0  0  0  0  0  0  0  0
  161.2280  202.8720  151.5830 C   0  0  0  0  0  3  0  0  0  0  0  0
  160.8420  207.0680  149.0200 N   0  0  0  0  0  2  0  0  0  0  0  0
  163.0820  207.6150  148.6940 O   0  0  0  0  0  1  0  0  0  0  0  0
  161.8650  207.4160  148.0420 C   0  0  1  0  0  3  0  0  0  0  0  0
  162.0140  206.2980  147.0310 C   0  0  0  0  0  2  0  0  0  0  0  0
  160.7700  206.2060  146.1660 C   0  0  0  0  0  2  0  0  0  0  0  0
  160.8660  205.0160  145.2290 C   0  0  2  0  0  3  0  0  0  0  0  0
  161.7690  204.1040  145.7410 F   0  0  0  0  0  0  0  0  0  0  0  0
  161.3160  205.4510  143.9190 N   0  0  0  0  0  1  0  0  0  0  0  0
  161.1950  208.5920  151.5210 C   0  0  0  0  0  2  0  0  0  0  0  0
  160.4950  209.0330  152.8000 C   0  0  0  0  0  2  0  0  0  0  0  0
  160.8060  211.2550  151.9750 F   0  0  0  0  0  0  0  0  0  0  0  0
  159.9300  210.4410  152.6750 C   0  0  2  0  0  3  0  0  0  0  0  0
  159.6280  211.0300  154.0470 C   0  0  0  0  0  2  0  0  0  0  0  0
  162.5400  210.2690  156.3480 C   0  0  0  0  0  0  0  0  0  0  0  0
  160.7390  208.7270  156.8430 C   0  0  0  0  0  3  0  0  0  0  0  0
  163.7900  210.7290  156.5910 F   0  0  0  0  0  0  0  0  0  0  0  0
  161.7580  210.8620  155.3520 C   0  0  0  0  0  3  0  0  0  0  0  0
  159.9570  209.3200  155.8470 C   0  0  0  0  0  3  0  0  0  0  0  0
  160.4670  210.3870  155.0980 C   0  0  0  0  0  0  0  0  0  0  0  0
  162.0300  209.2010  157.0930 C   0  0  0  0  0  3  0  0  0  0  0  0
  1  2  1  0  0  0  0
  1  7  2  0  0  0  0
  2  4  1  6  0  0  0
  2 10  1  0  0  0  0
  3  8  1  0  0  0  0
  4  3  2  0  0  0  0
  7 20  1  0  0  0  0
  7  9  1  0  0  0  0
  8  6  1  0  0  0  0
  8 11  2  0  0  0  0
  9  5  1  0  0  0  0
 10 11  1  0  0  0  0
 10  5  2  0  0  0  0
 12  1  1  0  0  0  0
 14 13  1  1  0  0  0
 14 12  1  0  0  0  0
 15 14  1  0  0  0  0
 16 15  1  0  0  0  0
 17 19  1  6  0  0  0
 17 18  1  0  0  0  0
 17 16  1  0  0  0  0
 20 21  1  0  0  0  0
 23 22  1  1  0  0  0
 23 21  1  0  0  0  0
 23 24  1  0  0  0  0
 24 30  1  0  0  0  0
 25 27  1  0  0  0  0
 25 31  1  0  0  0  0
 26 31  2  0  0  0  0
 28 25  2  0  0  0  0
 29 26  1  0  0  0  0
 30 28  1  0  0  0  0
 30 29  2  0  0  0  0
M  END
>  <MODEL>
9

>  <REMARK>
 VINA RESULT:      -8.0      3.192      8.050
  Name = 
  10 active torsions:
  status: ('A' for Active; 'I' for Inactive)
    1  A    between atoms: C_2  and  C_13
    2  A    between atoms: C_3  and  C_9
    3  A    between atoms: C_3  and  C_22
    4  A    between atoms: C_4  and  N_12
    5  A    between atoms: C_9  and  C_23
    6  A    between atoms: N_12  and  C_27
    7  A    between atoms: C_13  and  C_28
    8  A    between atoms: C_15  and  C_21
    9  A    between atoms: C_15  and  C_23
   10  A    between atoms: C_27  and  C_28
                            x       y       z     vdW  Elec       q    Type
                         _______ _______ _______ _____ _____    ______ ____

>  <TORSDO>
F 10

$$$$
