=
 OpenBabel11062410413D

 32 37  0  0  1  0  0  0  0  0999 V2000
  157.1280  212.3250  154.7910 C   0  0  2  0  0  3  0  0  0  0  0  0
  160.8350  210.8330  152.1540 C   0  0  0  0  0  2  0  0  0  0  0  0
  160.7210  207.8040  157.2600 C   0  0  0  0  0  3  0  0  0  0  0  0
  160.1840  206.8830  156.4270 C   0  0  0  0  0  3  0  0  0  0  0  0
  159.3960  212.7270  152.8780 C   0  0  2  0  0  3  0  0  0  0  0  0
  160.9370  211.7930  154.7610 C   0  0  0  0  0  2  0  0  0  0  0  0
  158.3500  211.4410  154.9830 C   0  0  0  0  0  2  0  0  0  0  0  0
  161.3810  209.0720  156.7510 C   0  0  0  0  0  2  0  0  0  0  0  0
  161.6280  210.4340  154.5770 C   0  0  1  0  0  3  0  0  0  0  0  0
  160.9020  209.3560  155.3350 C   0  0  1  0  0  3  0  0  0  0  0  0
  161.0150  208.5670  153.1160 N   0  0  0  0  0  0  0  0  0  0  0  0
  156.8420  212.5170  153.3060 C   0  0  0  0  0  2  0  0  0  0  0  0
  159.5490  211.8320  154.1110 C   0  0  1  0  0  0  0  0  0  0  0  0
  157.9800  213.2690  152.6180 C   0  0  0  0  0  2  0  0  0  0  0  0
  160.1230  207.0790  154.9220 C   0  0  0  0  0  2  0  0  0  0  0  0
  161.1380  208.1370  154.5000 C   0  0  2  0  0  3  0  0  0  0  0  0
  159.4650  211.2150  152.7080 C   0  0  2  0  0  3  0  0  0  0  0  0
  161.5940  209.9160  153.1200 C   0  0  1  0  0  3  0  0  0  0  0  0
  157.3170  213.9210  155.6590 S   0  0  0  0  0  0  0  0  0  0  0  0
  156.8170  213.2130  157.2590 C   0  0  0  0  0  2  0  0  0  0  0  0
  155.3700  212.8360  157.2410 C   0  0  0  0  0  0  0  0  0  0  0  0
  154.3230  213.9020  157.2610 C   0  0  0  0  0  1  0  0  0  0  0  0
  155.0440  211.6570  157.2600 O   0  0  0  0  0  0  0  0  0  0  0  0
  161.9170  207.7470  152.3160 C   0  0  0  0  0  2  0  0  0  0  0  0
  161.6700  207.4570  149.5450 O   0  0  0  0  0  1  0  0  0  0  0  0
  160.4720  205.3260  149.5790 C   0  0  2  0  0  3  0  0  0  0  0  0
  161.1900  206.5250  151.7600 C   0  0  2  0  0  3  0  0  0  0  0  0
  161.2000  204.0090  151.6470 C   0  0  0  0  0  2  0  0  0  0  0  0
  160.1060  204.2310  150.5880 C   0  0  0  0  0  2  0  0  0  0  0  0
  161.6140  204.8500  148.6870 C   0  0  0  0  0  1  0  0  0  0  0  0
  162.0190  205.2640  151.9730 C   0  0  0  0  0  2  0  0  0  0  0  0
  160.7640  206.6740  150.2810 C   0  0  1  0  0  3  0  0  0  0  0  0
  1  7  1  0  0  0  0
  1 19  1  6  0  0  0
  4  3  2  0  0  0  0
  5 14  1  1  0  0  0
  5 13  1  0  0  0  0
  8  3  1  0  0  0  0
  9  6  1  6  0  0  0
  9 10  1  0  0  0  0
 10  8  1  1  0  0  0
 11 18  1  0  0  0  0
 11 16  1  0  0  0  0
 12  1  1  0  0  0  0
 13  6  1  1  0  0  0
 13  7  1  0  0  0  0
 14 12  1  0  0  0  0
 15  4  1  0  0  0  0
 16 15  1  1  0  0  0
 16 10  1  0  0  0  0
 17  2  1  6  0  0  0
 17  5  1  0  0  0  0
 17 13  1  0  0  0  0
 18  2  1  6  0  0  0
 18  9  1  0  0  0  0
 19 20  1  0  0  0  0
 21 20  1  0  0  0  0
 21 23  2  0  0  0  0
 21 22  1  0  0  0  0
 24 11  1  0  0  0  0
 26 30  1  1  0  0  0
 26 32  1  0  0  0  0
 26 29  1  0  0  0  0
 27 31  1  0  0  0  0
 27 24  1  6  0  0  0
 28 31  1  0  0  0  0
 29 28  1  0  0  0  0
 32 25  1  6  0  0  0
 32 27  1  0  0  0  0
M  END
>  <MODEL>
1

>  <REMARK>
 VINA RESULT:      -7.2      0.000      0.000
  Name = 
  5 active torsions:
  status: ('A' for Active; 'I' for Inactive)
    1  A    between atoms: C_1  and  C_10
    2  A    between atoms: C_2  and  S_24
    3  A    between atoms: C_10  and  S_24
    4  A    between atoms: C_11  and  C_27
    5  A    between atoms: N_16  and  C_27
                            x       y       z     vdW  Elec       q    Type
                         _______ _______ _______ _____ _____    ______ ____

>  <TORSDO>
F 5

$$$$
=
 OpenBabel11062410413D

 32 37  0  0  1  0  0  0  0  0999 V2000
  162.5090  203.6930  146.8580 C   0  0  2  0  0  3  0  0  0  0  0  0
  161.8170  208.2420  148.1790 C   0  0  0  0  0  2  0  0  0  0  0  0
  161.0500  204.7020  152.8840 C   0  0  0  0  0  3  0  0  0  0  0  0
  162.2950  205.1650  153.1380 C   0  0  0  0  0  3  0  0  0  0  0  0
  161.5590  206.4980  146.4260 C   0  0  2  0  0  3  0  0  0  0  0  0
  160.0370  206.1330  148.5100 C   0  0  0  0  0  2  0  0  0  0  0  0
  161.9840  204.4330  148.0780 C   0  0  0  0  0  2  0  0  0  0  0  0
  160.1660  205.2980  151.8030 C   0  0  0  0  0  2  0  0  0  0  0  0
  160.3130  206.9150  149.8020 C   0  0  1  0  0  3  0  0  0  0  0  0
  161.0310  206.0560  150.8070 C   0  0  1  0  0  3  0  0  0  0  0  0
  162.3880  207.9680  150.5640 N   0  0  0  0  0  0  0  0  0  0  0  0
  163.3140  204.6360  145.9720 C   0  0  0  0  0  2  0  0  0  0  0  0
  161.3250  205.7800  147.7570 C   0  0  1  0  0  0  0  0  0  0  0  0
  162.4290  205.7460  145.4050 C   0  0  0  0  0  2  0  0  0  0  0  0
  162.9440  206.2610  152.3100 C   0  0  0  0  0  2  0  0  0  0  0  0
  161.8700  207.0410  151.5580 C   0  0  2  0  0  3  0  0  0  0  0  0
  162.3550  206.9130  147.6560 C   0  0  2  0  0  3  0  0  0  0  0  0
  161.2820  208.1060  149.6080 C   0  0  1  0  0  3  0  0  0  0  0  0
  161.1560  202.8810  145.9380 S   0  0  0  0  0  0  0  0  0  0  0  0
  160.3380  202.3130  147.4610 C   0  0  0  0  0  2  0  0  0  0  0  0
  161.0190  201.0980  148.0040 C   0  0  0  0  0  0  0  0  0  0  0  0
  161.2190  200.9540  149.4790 C   0  0  0  0  0  1  0  0  0  0  0  0
  161.4570  200.2480  147.2420 O   0  0  0  0  0  0  0  0  0  0  0  0
  162.5260  209.2720  151.2050 C   0  0  0  0  0  2  0  0  0  0  0  0
  162.3900  209.5970  153.9790 O   0  0  0  0  0  1  0  0  0  0  0  0
  160.0520  210.3020  154.0780 C   0  0  2  0  0  3  0  0  0  0  0  0
  161.2060  209.7080  151.8370 C   0  0  2  0  0  3  0  0  0  0  0  0
  159.4750  211.5360  151.9130 C   0  0  0  0  0  2  0  0  0  0  0  0
  158.9410  210.7330  153.1130 C   0  0  0  0  0  2  0  0  0  0  0  0
  160.6140  211.5210  154.8010 C   0  0  0  0  0  1  0  0  0  0  0  0
  160.9030  211.1630  151.4970 C   0  0  0  0  0  2  0  0  0  0  0  0
  161.1360  209.4610  153.3610 C   0  0  1  0  0  3  0  0  0  0  0  0
  1 19  1  6  0  0  0
  1  7  1  0  0  0  0
  3  4  2  0  0  0  0
  5 14  1  6  0  0  0
  5 17  1  0  0  0  0
  5 13  1  0  0  0  0
  8  3  1  0  0  0  0
  9  6  1  6  0  0  0
  9 10  1  0  0  0  0
 10 16  1  0  0  0  0
 10  8  1  1  0  0  0
 11 24  1  0  0  0  0
 11 16  1  0  0  0  0
 12  1  1  0  0  0  0
 13  7  1  1  0  0  0
 13  6  1  0  0  0  0
 14 12  1  0  0  0  0
 15  4  1  0  0  0  0
 16 15  1  6  0  0  0
 17 13  1  0  0  0  0
 17  2  1  1  0  0  0
 18  2  1  6  0  0  0
 18  9  1  0  0  0  0
 18 11  1  0  0  0  0
 19 20  1  0  0  0  0
 20 21  1  0  0  0  0
 21 22  1  0  0  0  0
 23 21  2  0  0  0  0
 26 30  1  6  0  0  0
 27 24  1  1  0  0  0
 27 32  1  0  0  0  0
 28 29  1  0  0  0  0
 29 26  1  0  0  0  0
 31 27  1  0  0  0  0
 31 28  1  0  0  0  0
 32 25  1  1  0  0  0
 32 26  1  0  0  0  0
M  END
>  <MODEL>
2

>  <REMARK>
 VINA RESULT:      -5.7      4.126      9.139
  Name = 
  5 active torsions:
  status: ('A' for Active; 'I' for Inactive)
    1  A    between atoms: C_1  and  C_10
    2  A    between atoms: C_2  and  S_24
    3  A    between atoms: C_10  and  S_24
    4  A    between atoms: C_11  and  C_27
    5  A    between atoms: N_16  and  C_27
                            x       y       z     vdW  Elec       q    Type
                         _______ _______ _______ _____ _____    ______ ____

>  <TORSDO>
F 5

$$$$
=
 OpenBabel11062410413D

 32 37  0  0  1  0  0  0  0  0999 V2000
  159.1170  210.3400  153.6850 C   0  0  2  0  0  3  0  0  0  0  0  0
  161.7900  210.2190  149.7150 C   0  0  0  0  0  2  0  0  0  0  0  0
  161.3610  204.7350  151.9500 C   0  0  0  0  0  3  0  0  0  0  0  0
  160.4580  204.6520  150.9470 C   0  0  0  0  0  3  0  0  0  0  0  0
  161.1340  211.4510  151.7720 C   0  0  2  0  0  3  0  0  0  0  0  0
  162.5210  209.2940  152.2320 C   0  0  0  0  0  2  0  0  0  0  0  0
  160.0070  209.3360  152.9690 C   0  0  0  0  0  2  0  0  0  0  0  0
  162.3220  205.9030  152.0840 C   0  0  0  0  0  2  0  0  0  0  0  0
  162.7130  208.2580  151.1140 C   0  0  1  0  0  3  0  0  0  0  0  0
  161.7840  207.0900  151.3000 C   0  0  1  0  0  3  0  0  0  0  0  0
  161.3570  207.8650  149.1140 N   0  0  0  0  0  0  0  0  0  0  0  0
  158.7220  211.4670  152.7370 C   0  0  0  0  0  2  0  0  0  0  0  0
  161.1480  209.9730  152.1650 C   0  0  1  0  0  0  0  0  0  0  0  0
  159.9440  212.2710  152.2990 C   0  0  0  0  0  2  0  0  0  0  0  0
  160.2720  205.7560  149.9200 C   0  0  0  0  0  2  0  0  0  0  0  0
  161.5110  206.6480  149.8960 C   0  0  2  0  0  3  0  0  0  0  0  0
  160.6950  210.3980  150.7620 C   0  0  2  0  0  3  0  0  0  0  0  0
  162.3320  208.7860  149.7110 C   0  0  1  0  0  3  0  0  0  0  0  0
  159.9130  210.9730  155.2010 S   0  0  0  0  0  0  0  0  0  0  0  0
  160.1920  209.3000  155.8620 C   0  0  0  0  0  2  0  0  0  0  0  0
  161.6000  209.1500  156.3410 C   0  0  0  0  0  0  0  0  0  0  0  0
  162.5590  210.2890  156.2030 C   0  0  0  0  0  1  0  0  0  0  0  0
  161.9810  208.0820  156.7990 O   0  0  0  0  0  0  0  0  0  0  0  0
  161.8420  207.5880  147.7660 C   0  0  0  0  0  2  0  0  0  0  0  0
  160.4550  207.0100  145.4080 O   0  0  0  0  0  1  0  0  0  0  0  0
  160.5620  204.5750  145.5940 C   0  0  2  0  0  3  0  0  0  0  0  0
  161.5960  206.1290  147.3890 C   0  0  2  0  0  3  0  0  0  0  0  0
  162.7080  203.9400  146.8310 C   0  0  0  0  0  2  0  0  0  0  0  0
  161.2800  203.5190  146.4430 C   0  0  0  0  0  2  0  0  0  0  0  0
  161.2010  204.6540  144.2130 C   0  0  0  0  0  1  0  0  0  0  0  0
  162.8970  205.4560  146.9710 C   0  0  0  0  0  2  0  0  0  0  0  0
  160.4970  205.9410  146.3190 C   0  0  1  0  0  3  0  0  0  0  0  0
  1 19  1  1  0  0  0
  3  8  1  0  0  0  0
  4  3  2  0  0  0  0
  5 13  1  0  0  0  0
  5 14  1  1  0  0  0
  7  1  1  0  0  0  0
  9 10  1  0  0  0  0
  9  6  1  1  0  0  0
 10  8  1  1  0  0  0
 11 18  1  0  0  0  0
 11 16  1  0  0  0  0
 12  1  1  0  0  0  0
 13  6  1  1  0  0  0
 13  7  1  0  0  0  0
 14 12  1  0  0  0  0
 15  4  1  0  0  0  0
 16 15  1  1  0  0  0
 16 10  1  0  0  0  0
 17  2  1  6  0  0  0
 17  5  1  0  0  0  0
 17 13  1  0  0  0  0
 18  2  1  1  0  0  0
 18  9  1  0  0  0  0
 19 20  1  0  0  0  0
 20 21  1  0  0  0  0
 21 23  2  0  0  0  0
 22 21  1  0  0  0  0
 24 11  1  0  0  0  0
 26 30  1  6  0  0  0
 26 32  1  0  0  0  0
 26 29  1  0  0  0  0
 27 24  1  6  0  0  0
 28 31  1  0  0  0  0
 29 28  1  0  0  0  0
 31 27  1  0  0  0  0
 32 25  1  6  0  0  0
 32 27  1  0  0  0  0
M  END
>  <MODEL>
3

>  <REMARK>
 VINA RESULT:      -4.9      2.967      4.755
  Name = 
  5 active torsions:
  status: ('A' for Active; 'I' for Inactive)
    1  A    between atoms: C_1  and  C_10
    2  A    between atoms: C_2  and  S_24
    3  A    between atoms: C_10  and  S_24
    4  A    between atoms: C_11  and  C_27
    5  A    between atoms: N_16  and  C_27
                            x       y       z     vdW  Elec       q    Type
                         _______ _______ _______ _____ _____    ______ ____

>  <TORSDO>
F 5

$$$$
=
 OpenBabel11062410413D

 32 37  0  0  1  0  0  0  0  0999 V2000
  160.9400  207.0980  149.3050 C   0  0  2  0  0  3  0  0  0  0  0  0
  161.1710  208.1240  153.9760 C   0  0  0  0  0  2  0  0  0  0  0  0
  159.6010  213.0020  150.9770 C   0  0  0  0  0  3  0  0  0  0  0  0
  158.3950  212.6230  151.4580 C   0  0  0  0  0  3  0  0  0  0  0  0
  162.1060  206.8580  152.0510 C   0  0  2  0  0  3  0  0  0  0  0  0
  162.5210  209.4280  151.9250 C   0  0  0  0  0  2  0  0  0  0  0  0
  160.8980  208.3420  150.1770 C   0  0  0  0  0  2  0  0  0  0  0  0
  160.8990  212.3790  151.4560 C   0  0  0  0  0  2  0  0  0  0  0  0
  161.7320  210.3740  152.8430 C   0  0  1  0  0  3  0  0  0  0  0  0
  160.6050  211.0300  152.0950 C   0  0  1  0  0  3  0  0  0  0  0  0
  159.5840  210.0150  153.9620 N   0  0  0  0  0  0  0  0  0  0  0  0
  160.6580  205.8550  150.1420 C   0  0  0  0  0  2  0  0  0  0  0  0
  161.6890  208.2170  151.4850 C   0  0  1  0  0  0  0  0  0  0  0  0
  161.7500  205.6370  151.1880 C   0  0  0  0  0  2  0  0  0  0  0  0
  158.2330  211.4870  152.4540 C   0  0  0  0  0  2  0  0  0  0  0  0
  159.5630  211.2230  153.1520 C   0  0  2  0  0  3  0  0  0  0  0  0
  160.8640  207.5520  152.5950 C   0  0  2  0  0  3  0  0  0  0  0  0
  161.0050  209.6470  153.9990 C   0  0  1  0  0  3  0  0  0  0  0  0
  162.5240  206.9680  148.4050 S   0  0  0  0  0  0  0  0  0  0  0  0
  161.7400  206.2030  146.9520 C   0  0  0  0  0  2  0  0  0  0  0  0
  162.2820  204.8300  146.7210 C   0  0  0  0  0  0  0  0  0  0  0  0
  161.5810  203.6450  147.3040 C   0  0  0  0  0  1  0  0  0  0  0  0
  163.3250  204.6790  146.0990 O   0  0  0  0  0  0  0  0  0  0  0  0
  159.2330  210.3910  155.3270 C   0  0  0  0  0  2  0  0  0  0  0  0
  156.5600  210.9520  155.9270 O   0  0  0  0  0  1  0  0  0  0  0  0
  156.7460  213.3880  155.8470 C   0  0  2  0  0  3  0  0  0  0  0  0
  158.7760  211.8470  155.3880 C   0  0  2  0  0  3  0  0  0  0  0  0
  159.1120  214.0540  156.5540 C   0  0  0  0  0  2  0  0  0  0  0  0
  157.8460  214.4530  155.7750 C   0  0  0  0  0  2  0  0  0  0  0  0
  156.1790  213.3200  157.2610 C   0  0  0  0  0  1  0  0  0  0  0  0
  159.3570  212.5410  156.6140 C   0  0  0  0  0  2  0  0  0  0  0  0
  157.2420  212.0190  155.3200 C   0  0  1  0  0  3  0  0  0  0  0  0
  1 19  1  1  0  0  0
  1 12  1  0  0  0  0
  1  7  1  0  0  0  0
  3  8  1  0  0  0  0
  3  4  2  0  0  0  0
  4 15  1  0  0  0  0
  5 14  1  6  0  0  0
  5 17  1  0  0  0  0
  9  6  1  6  0  0  0
  9 18  1  0  0  0  0
 10  8  1  1  0  0  0
 10  9  1  0  0  0  0
 10 16  1  0  0  0  0
 11 18  1  0  0  0  0
 11 24  1  0  0  0  0
 12 14  1  0  0  0  0
 13  7  1  6  0  0  0
 13  6  1  0  0  0  0
 13  5  1  0  0  0  0
 13 17  1  0  0  0  0
 16 15  1  6  0  0  0
 16 11  1  0  0  0  0
 17  2  1  1  0  0  0
 18  2  1  6  0  0  0
 20 19  1  0  0  0  0
 21 20  1  0  0  0  0
 21 22  1  0  0  0  0
 23 21  2  0  0  0  0
 26 30  1  1  0  0  0
 27 24  1  1  0  0  0
 27 31  1  0  0  0  0
 28 31  1  0  0  0  0
 29 26  1  0  0  0  0
 29 28  1  0  0  0  0
 32 27  1  0  0  0  0
 32 26  1  0  0  0  0
 32 25  1  1  0  0  0
M  END
>  <MODEL>
4

>  <REMARK>
 VINA RESULT:      -4.7      2.672      8.808
  Name = 
  5 active torsions:
  status: ('A' for Active; 'I' for Inactive)
    1  A    between atoms: C_1  and  C_10
    2  A    between atoms: C_2  and  S_24
    3  A    between atoms: C_10  and  S_24
    4  A    between atoms: C_11  and  C_27
    5  A    between atoms: N_16  and  C_27
                            x       y       z     vdW  Elec       q    Type
                         _______ _______ _______ _____ _____    ______ ____

>  <TORSDO>
F 5

$$$$
=
 OpenBabel11062410413D

 32 37  0  0  1  0  0  0  0  0999 V2000
  160.5810  204.2750  148.6770 C   0  0  2  0  0  3  0  0  0  0  0  0
  161.2130  204.6780  153.4060 C   0  0  0  0  0  2  0  0  0  0  0  0
  161.9020  210.0070  150.8800 C   0  0  0  0  0  3  0  0  0  0  0  0
  160.6480  210.1390  151.3700 C   0  0  0  0  0  3  0  0  0  0  0  0
  161.5210  203.3130  151.3510 C   0  0  2  0  0  3  0  0  0  0  0  0
  163.0000  205.4570  151.4240 C   0  0  0  0  0  2  0  0  0  0  0  0
  161.0750  205.3340  149.6510 C   0  0  0  0  0  2  0  0  0  0  0  0
  162.8050  208.8480  151.2590 C   0  0  0  0  0  2  0  0  0  0  0  0
  162.6900  206.5630  152.4450 C   0  0  1  0  0  3  0  0  0  0  0  0
  161.9570  207.7040  151.7940 C   0  0  1  0  0  3  0  0  0  0  0  0
  160.5930  207.0590  153.6050 N   0  0  0  0  0  0  0  0  0  0  0  0
  159.7900  203.2030  149.4180 C   0  0  0  0  0  2  0  0  0  0  0  0
  161.7310  204.7640  150.9150 C   0  0  1  0  0  0  0  0  0  0  0  0
  160.6790  202.4450  150.4020 C   0  0  0  0  0  2  0  0  0  0  0  0
  160.0100  209.0980  152.2730 C   0  0  0  0  0  2  0  0  0  0  0  0
  161.0950  208.2270  152.9000 C   0  0  2  0  0  3  0  0  0  0  0  0
  160.6950  204.4190  151.9940 C   0  0  2  0  0  3  0  0  0  0  0  0
  161.7180  206.1170  153.5620 C   0  0  1  0  0  3  0  0  0  0  0  0
  161.9590  203.5620  147.7140 S   0  0  0  0  0  0  0  0  0  0  0  0
  162.4550  205.1820  147.0510 C   0  0  0  0  0  2  0  0  0  0  0  0
  161.5540  205.5910  145.9300 C   0  0  0  0  0  0  0  0  0  0  0  0
  161.6340  204.8840  144.6150 C   0  0  0  0  0  1  0  0  0  0  0  0
  160.7900  206.5350  146.0710 O   0  0  0  0  0  0  0  0  0  0  0  0
  160.4320  207.4240  155.0080 C   0  0  0  0  0  2  0  0  0  0  0  0
  159.0410  209.8080  155.4660 O   0  0  0  0  0  1  0  0  0  0  0  0
  160.9950  211.2050  155.9180 C   0  0  2  0  0  3  0  0  0  0  0  0
  161.2190  208.6920  155.3330 C   0  0  2  0  0  3  0  0  0  0  0  0
  162.8210  209.7500  156.9620 C   0  0  0  0  0  2  0  0  0  0  0  0
  162.4970  211.0310  156.1730 C   0  0  0  0  0  2  0  0  0  0  0  0
  160.2780  211.5100  157.2280 C   0  0  0  0  0  1  0  0  0  0  0  0
  161.8320  208.6020  156.7240 C   0  0  0  0  0  2  0  0  0  0  0  0
  160.4010  209.9920  155.1620 C   0  0  1  0  0  3  0  0  0  0  0  0
  1 19  1  1  0  0  0
  1 12  1  0  0  0  0
  1  7  1  0  0  0  0
  3  8  1  0  0  0  0
  3  4  2  0  0  0  0
  4 15  1  0  0  0  0
  5 14  1  6  0  0  0
  5 17  1  0  0  0  0
  9  6  1  6  0  0  0
  9 18  1  0  0  0  0
 10  8  1  1  0  0  0
 10  9  1  0  0  0  0
 10 16  1  0  0  0  0
 11 24  1  0  0  0  0
 12 14  1  0  0  0  0
 13  7  1  6  0  0  0
 13  5  1  0  0  0  0
 13  6  1  0  0  0  0
 13 17  1  0  0  0  0
 16 15  1  6  0  0  0
 16 11  1  0  0  0  0
 17  2  1  1  0  0  0
 18  2  1  6  0  0  0
 18 11  1  0  0  0  0
 20 19  1  0  0  0  0
 21 23  2  0  0  0  0
 21 20  1  0  0  0  0
 22 21  1  0  0  0  0
 26 29  1  0  0  0  0
 26 30  1  1  0  0  0
 27 24  1  1  0  0  0
 27 31  1  0  0  0  0
 29 28  1  0  0  0  0
 31 28  1  0  0  0  0
 32 27  1  0  0  0  0
 32 25  1  1  0  0  0
 32 26  1  0  0  0  0
M  END
>  <MODEL>
5

>  <REMARK>
 VINA RESULT:      -4.6      3.631      8.820
  Name = 
  5 active torsions:
  status: ('A' for Active; 'I' for Inactive)
    1  A    between atoms: C_1  and  C_10
    2  A    between atoms: C_2  and  S_24
    3  A    between atoms: C_10  and  S_24
    4  A    between atoms: C_11  and  C_27
    5  A    between atoms: N_16  and  C_27
                            x       y       z     vdW  Elec       q    Type
                         _______ _______ _______ _____ _____    ______ ____

>  <TORSDO>
F 5

$$$$
=
 OpenBabel11062410413D

 32 37  0  0  1  0  0  0  0  0999 V2000
  160.6070  206.3920  148.5890 C   0  0  2  0  0  3  0  0  0  0  0  0
  161.1910  208.4020  152.8950 C   0  0  0  0  0  2  0  0  0  0  0  0
  161.5970  212.5930  148.7090 C   0  0  0  0  0  3  0  0  0  0  0  0
  160.3360  212.8160  149.1430 C   0  0  0  0  0  3  0  0  0  0  0  0
  161.5850  206.4410  151.4180 C   0  0  2  0  0  3  0  0  0  0  0  0
  162.9420  208.5610  150.7420 C   0  0  0  0  0  2  0  0  0  0  0  0
  161.0360  207.7420  149.1410 C   0  0  0  0  0  2  0  0  0  0  0  0
  162.5610  211.6800  149.4440 C   0  0  0  0  0  2  0  0  0  0  0  0
  162.5670  209.9280  151.3330 C   0  0  1  0  0  3  0  0  0  0  0  0
  161.7750  210.7400  150.3460 C   0  0  1  0  0  3  0  0  0  0  0  0
  160.4390  210.6730  152.2870 N   0  0  0  0  0  0  0  0  0  0  0  0
  159.8720  205.5920  149.6580 C   0  0  0  0  0  2  0  0  0  0  0  0
  161.7160  207.6690  150.5140 C   0  0  1  0  0  0  0  0  0  0  0  0
  160.7960  205.2600  150.8290 C   0  0  0  0  0  2  0  0  0  0  0  0
  159.7510  212.1070  150.3530 C   0  0  0  0  0  2  0  0  0  0  0  0
  160.8800  211.5590  151.2220 C   0  0  2  0  0  3  0  0  0  0  0  0
  160.6950  207.6540  151.6600 C   0  0  2  0  0  3  0  0  0  0  0  0
  161.6140  209.8340  152.5490 C   0  0  1  0  0  3  0  0  0  0  0  0
  162.0270  205.4700  147.9040 S   0  0  0  0  0  0  0  0  0  0  0  0
  161.7600  206.1240  146.2270 C   0  0  0  0  0  2  0  0  0  0  0  0
  161.4390  205.0170  145.2740 C   0  0  0  0  0  0  0  0  0  0  0  0
  161.4690  203.5990  145.7440 C   0  0  0  0  0  1  0  0  0  0  0  0
  161.2030  205.2680  144.1010 O   0  0  0  0  0  0  0  0  0  0  0  0
  160.2510  211.4820  153.4860 C   0  0  0  0  0  2  0  0  0  0  0  0
  159.5220  210.9990  156.1430 O   0  0  0  0  0  1  0  0  0  0  0  0
  157.1180  211.3280  155.8520 C   0  0  2  0  0  3  0  0  0  0  0  0
  158.7750  211.5430  153.8740 C   0  0  2  0  0  3  0  0  0  0  0  0
  156.7420  213.0260  153.9780 C   0  0  0  0  0  2  0  0  0  0  0  0
  156.1520  211.8570  154.7860 C   0  0  0  0  0  2  0  0  0  0  0  0
  157.2840  212.3610  156.9610 C   0  0  0  0  0  1  0  0  0  0  0  0
  158.2680  212.9800  153.8350 C   0  0  0  0  0  2  0  0  0  0  0  0
  158.4610  210.8740  155.2310 C   0  0  1  0  0  3  0  0  0  0  0  0
  1 19  1  1  0  0  0
  1  7  1  0  0  0  0
  1 12  1  0  0  0  0
  3  4  2  0  0  0  0
  3  8  1  0  0  0  0
  4 15  1  0  0  0  0
  5 14  1  6  0  0  0
  5 17  1  0  0  0  0
  9  6  1  6  0  0  0
  9 18  1  0  0  0  0
 10  8  1  1  0  0  0
 10 16  1  0  0  0  0
 10  9  1  0  0  0  0
 11 18  1  0  0  0  0
 11 24  1  0  0  0  0
 12 14  1  0  0  0  0
 13  7  1  6  0  0  0
 13  6  1  0  0  0  0
 13  5  1  0  0  0  0
 13 17  1  0  0  0  0
 16 15  1  6  0  0  0
 16 11  1  0  0  0  0
 17  2  1  1  0  0  0
 18  2  1  6  0  0  0
 20 19  1  0  0  0  0
 21 22  1  0  0  0  0
 21 20  1  0  0  0  0
 23 21  2  0  0  0  0
 26 30  1  1  0  0  0
 27 24  1  1  0  0  0
 27 32  1  0  0  0  0
 28 29  1  0  0  0  0
 29 26  1  0  0  0  0
 31 27  1  0  0  0  0
 31 28  1  0  0  0  0
 32 26  1  0  0  0  0
 32 25  1  1  0  0  0
M  END
>  <MODEL>
6

>  <REMARK>
 VINA RESULT:      -4.6      3.194      8.981
  Name = 
  5 active torsions:
  status: ('A' for Active; 'I' for Inactive)
    1  A    between atoms: C_1  and  C_10
    2  A    between atoms: C_2  and  S_24
    3  A    between atoms: C_10  and  S_24
    4  A    between atoms: C_11  and  C_27
    5  A    between atoms: N_16  and  C_27
                            x       y       z     vdW  Elec       q    Type
                         _______ _______ _______ _____ _____    ______ ____

>  <TORSDO>
F 5

$$$$
=
 OpenBabel11062410413D

 32 37  0  0  1  0  0  0  0  0999 V2000
  159.1620  210.5210  153.4660 C   0  0  2  0  0  3  0  0  0  0  0  0
  161.8760  210.2420  149.5320 C   0  0  0  0  0  2  0  0  0  0  0  0
  161.3560  204.8380  151.9370 C   0  0  0  0  0  3  0  0  0  0  0  0
  160.4630  204.7330  150.9270 C   0  0  0  0  0  3  0  0  0  0  0  0
  161.2120  211.5470  151.5420 C   0  0  2  0  0  3  0  0  0  0  0  0
  162.5680  209.3890  152.0860 C   0  0  0  0  0  2  0  0  0  0  0  0
  160.0470  209.4850  152.7930 C   0  0  0  0  0  2  0  0  0  0  0  0
  162.3290  205.9980  152.0450 C   0  0  0  0  0  2  0  0  0  0  0  0
  162.7600  208.3160  151.0040 C   0  0  1  0  0  3  0  0  0  0  0  0
  161.8140  207.1650  151.2170 C   0  0  1  0  0  3  0  0  0  0  0  0
  161.4200  207.8740  149.0030 N   0  0  0  0  0  0  0  0  0  0  0  0
  158.7900  211.6220  152.4790 C   0  0  0  0  0  2  0  0  0  0  0  0
  161.2040  210.0820  151.9820 C   0  0  1  0  0  0  0  0  0  0  0  0
  160.0270  212.3970  152.0290 C   0  0  0  0  0  2  0  0  0  0  0  0
  160.3020  205.8060  149.8640 C   0  0  0  0  0  2  0  0  0  0  0  0
  161.5510  206.6820  149.8250 C   0  0  2  0  0  3  0  0  0  0  0  0
  160.7720  210.4670  150.5610 C   0  0  2  0  0  3  0  0  0  0  0  0
  162.4000  208.8030  149.5800 C   0  0  1  0  0  3  0  0  0  0  0  0
  159.9490  211.1930  154.9710 S   0  0  0  0  0  0  0  0  0  0  0  0
  158.5680  210.6740  156.0360 C   0  0  0  0  0  2  0  0  0  0  0  0
  157.4170  211.6190  155.9070 C   0  0  0  0  0  0  0  0  0  0  0  0
  156.0680  211.1020  155.5260 C   0  0  0  0  0  1  0  0  0  0  0  0
  157.5900  212.8200  156.0640 O   0  0  0  0  0  0  0  0  0  0  0  0
  161.9160  207.5490  147.6700 C   0  0  0  0  0  2  0  0  0  0  0  0
  160.4510  206.9860  145.3550 O   0  0  0  0  0  1  0  0  0  0  0  0
  160.4860  204.5520  145.5710 C   0  0  2  0  0  3  0  0  0  0  0  0
  161.6140  206.0940  147.3190 C   0  0  2  0  0  3  0  0  0  0  0  0
  162.6420  203.8640  146.7610 C   0  0  0  0  0  2  0  0  0  0  0  0
  161.1920  203.4840  146.4140 C   0  0  0  0  0  2  0  0  0  0  0  0
  161.0910  204.5940  144.1720 C   0  0  0  0  0  1  0  0  0  0  0  0
  162.8820  205.3740  146.8760 C   0  0  0  0  0  2  0  0  0  0  0  0
  160.4820  205.9280  146.2790 C   0  0  1  0  0  3  0  0  0  0  0  0
  1 19  1  1  0  0  0
  3  8  1  0  0  0  0
  4  3  2  0  0  0  0
  5 13  1  0  0  0  0
  5 14  1  1  0  0  0
  7  1  1  0  0  0  0
  9 10  1  0  0  0  0
  9  6  1  1  0  0  0
 10  8  1  1  0  0  0
 11 18  1  0  0  0  0
 11 16  1  0  0  0  0
 12  1  1  0  0  0  0
 13  6  1  1  0  0  0
 13  7  1  0  0  0  0
 14 12  1  0  0  0  0
 15  4  1  0  0  0  0
 16 15  1  1  0  0  0
 16 10  1  0  0  0  0
 17  2  1  6  0  0  0
 17  5  1  0  0  0  0
 17 13  1  0  0  0  0
 18  2  1  1  0  0  0
 18  9  1  0  0  0  0
 19 20  1  0  0  0  0
 21 20  1  0  0  0  0
 21 23  2  0  0  0  0
 22 21  1  0  0  0  0
 24 11  1  0  0  0  0
 26 30  1  6  0  0  0
 26 32  1  0  0  0  0
 26 29  1  0  0  0  0
 27 24  1  6  0  0  0
 28 31  1  0  0  0  0
 29 28  1  0  0  0  0
 31 27  1  0  0  0  0
 32 25  1  6  0  0  0
 32 27  1  0  0  0  0
M  END
>  <MODEL>
7

>  <REMARK>
 VINA RESULT:      -4.3      2.454      4.152
  Name = 
  5 active torsions:
  status: ('A' for Active; 'I' for Inactive)
    1  A    between atoms: C_1  and  C_10
    2  A    between atoms: C_2  and  S_24
    3  A    between atoms: C_10  and  S_24
    4  A    between atoms: C_11  and  C_27
    5  A    between atoms: N_16  and  C_27
                            x       y       z     vdW  Elec       q    Type
                         _______ _______ _______ _____ _____    ______ ____

>  <TORSDO>
F 5

$$$$
=
 OpenBabel11062410413D

 32 37  0  0  1  0  0  0  0  0999 V2000
  158.0130  212.2740  153.3190 C   0  0  2  0  0  3  0  0  0  0  0  0
  161.8280  209.7090  151.9830 C   0  0  0  0  0  2  0  0  0  0  0  0
  159.9200  207.7710  157.2610 C   0  0  0  0  0  3  0  0  0  0  0  0
  159.4070  206.8110  156.4580 C   0  0  0  0  0  3  0  0  0  0  0  0
  160.6900  211.9190  152.0280 C   0  0  2  0  0  3  0  0  0  0  0  0
  161.5300  211.1180  154.3610 C   0  0  0  0  0  2  0  0  0  0  0  0
  158.9460  211.2520  153.9480 C   0  0  0  0  0  2  0  0  0  0  0  0
  160.9290  208.7910  156.7660 C   0  0  0  0  0  2  0  0  0  0  0  0
  161.9450  209.6520  154.5600 C   0  0  1  0  0  3  0  0  0  0  0  0
  160.8560  208.8760  155.2490 C   0  0  1  0  0  3  0  0  0  0  0  0
  161.3050  207.6710  153.2720 N   0  0  0  0  0  0  0  0  0  0  0  0
  158.1200  212.2240  151.8000 C   0  0  0  0  0  2  0  0  0  0  0  0
  160.3670  211.2630  153.3720 C   0  0  1  0  0  0  0  0  0  0  0  0
  159.5170  212.6300  151.3330 C   0  0  0  0  0  2  0  0  0  0  0  0
  159.7330  206.7240  154.9770 C   0  0  0  0  0  2  0  0  0  0  0  0
  161.0160  207.4970  154.6870 C   0  0  2  0  0  3  0  0  0  0  0  0
  160.4790  210.4120  152.1000 C   0  0  2  0  0  3  0  0  0  0  0  0
  162.1370  208.8790  153.2340 C   0  0  1  0  0  3  0  0  0  0  0  0
  158.3280  213.9520  153.9690 S   0  0  0  0  0  0  0  0  0  0  0  0
  156.6450  214.1050  154.6440 C   0  0  0  0  0  2  0  0  0  0  0  0
  156.2270  212.8360  155.3150 C   0  0  0  0  0  0  0  0  0  0  0  0
  156.3500  212.7040  156.7990 C   0  0  0  0  0  1  0  0  0  0  0  0
  155.8340  211.8900  154.6470 O   0  0  0  0  0  0  0  0  0  0  0  0
  162.1740  206.5740  152.8610 C   0  0  0  0  0  2  0  0  0  0  0  0
  161.4580  203.9280  152.3070 O   0  0  0  0  0  1  0  0  0  0  0  0
  161.1770  204.1980  149.8940 C   0  0  2  0  0  3  0  0  0  0  0  0
  161.8900  206.1690  151.4160 C   0  0  2  0  0  3  0  0  0  0  0  0
  160.4140  206.5930  149.4200 C   0  0  0  0  0  2  0  0  0  0  0  0
  161.1060  205.3340  148.8670 C   0  0  0  0  0  2  0  0  0  0  0  0
  159.7810  203.6430  150.1530 C   0  0  0  0  0  1  0  0  0  0  0  0
  160.5830  206.7860  150.9320 C   0  0  0  0  0  2  0  0  0  0  0  0
  161.9100  204.6410  151.1840 C   0  0  1  0  0  3  0  0  0  0  0  0
  1  7  1  0  0  0  0
  1 19  1  1  0  0  0
  4  3  2  0  0  0  0
  5 14  1  6  0  0  0
  5 17  1  0  0  0  0
  5 13  1  0  0  0  0
  8  3  1  0  0  0  0
  9  6  1  6  0  0  0
  9 10  1  0  0  0  0
 10  8  1  1  0  0  0
 11 16  1  0  0  0  0
 12  1  1  0  0  0  0
 13  7  1  1  0  0  0
 13  6  1  0  0  0  0
 14 12  1  0  0  0  0
 15  4  1  0  0  0  0
 16 15  1  6  0  0  0
 16 10  1  0  0  0  0
 17  2  1  1  0  0  0
 17 13  1  0  0  0  0
 18  2  1  6  0  0  0
 18 11  1  0  0  0  0
 18  9  1  0  0  0  0
 19 20  1  0  0  0  0
 20 21  1  0  0  0  0
 21 22  1  0  0  0  0
 23 21  2  0  0  0  0
 24 11  1  0  0  0  0
 26 30  1  1  0  0  0
 26 32  1  0  0  0  0
 27 24  1  1  0  0  0
 28 31  1  0  0  0  0
 29 28  1  0  0  0  0
 29 26  1  0  0  0  0
 31 27  1  0  0  0  0
 32 27  1  0  0  0  0
 32 25  1  1  0  0  0
M  END
>  <MODEL>
8

>  <REMARK>
 VINA RESULT:      -4.2      1.402      1.921
  Name = 
  5 active torsions:
  status: ('A' for Active; 'I' for Inactive)
    1  A    between atoms: C_1  and  C_10
    2  A    between atoms: C_2  and  S_24
    3  A    between atoms: C_10  and  S_24
    4  A    between atoms: C_11  and  C_27
    5  A    between atoms: N_16  and  C_27
                            x       y       z     vdW  Elec       q    Type
                         _______ _______ _______ _____ _____    ______ ____

>  <TORSDO>
F 5

$$$$
