=
 OpenBabel11062409053D

 37 42  0  0  1  0  0  0  0  0999 V2000
  161.5490  210.4380  150.8500 C   0  0  0  0  0  3  0  0  0  0  0  0
  159.9870  207.8750  154.7560 C   0  0  0  0  0  2  0  0  0  0  0  0
  158.5390  212.0560  154.0370 C   0  0  1  0  0  3  0  0  0  0  0  0
  159.5070  210.2590  155.6170 C   0  0  2  0  0  3  0  0  0  0  0  0
  158.5580  212.1530  152.5040 C   0  0  1  0  0  3  0  0  0  0  0  0
  158.9360  210.5600  154.2240 C   0  0  2  0  0  3  0  0  0  0  0  0
  158.1220  213.3860  151.6610 C   0  0  2  0  0  0  0  0  0  0  0  0
  160.9060  211.3450  156.0020 S   0  0  0  0  0  0  0  0  0  0  0  0
  159.8500  210.2880  153.0520 C   0  0  0  0  0  0  0  0  0  0  0  0
  161.7120  209.4120  151.7930 C   0  0  0  0  0  3  0  0  0  0  0  0
  159.1830  214.4530  154.5640 C   0  0  0  0  0  1  0  0  0  0  0  0
  159.8410  212.6960  155.9980 O   0  0  0  0  0  0  0  0  0  0  0  0
  160.8720  209.3270  152.9150 C   0  0  0  0  0  0  0  0  0  0  0  0
  160.4310  213.8210  151.1260 C   0  0  0  0  0  2  0  0  0  0  0  0
  159.6110  213.0000  154.6500 C   0  0  1  0  0  3  0  0  0  0  0  0
  159.6300  211.2230  152.0650 C   0  0  0  0  0  0  0  0  0  0  0  0
  159.7770  208.7890  155.9570 C   0  0  0  0  0  2  0  0  0  0  0  0
  159.1440  214.3510  151.4100 O   0  0  0  0  0  0  0  0  0  0  0  0
  161.2060  208.3100  153.9620 C   0  0  0  0  0  2  0  0  0  0  0  0
  160.4300  212.6320  150.1540 C   0  0  2  0  0  3  0  0  0  0  0  0
  160.5130  211.3800  150.9890 C   0  0  0  0  0  0  0  0  0  0  0  0
  156.9970  214.0870  152.4080 C   0  0  0  0  0  1  0  0  0  0  0  0
  157.5160  212.8750  150.3410 C   0  0  0  0  0  2  0  0  0  0  0  0
  156.7510  213.9440  149.5590 C   0  0  0  0  0  2  0  0  0  0  0  0
  157.6780  212.4230  146.1460 C   0  0  0  0  0  2  0  0  0  0  0  0
  157.6510  212.5760  147.6740 C   0  0  0  0  0  2  0  0  0  0  0  0
  157.1590  213.9640  148.0970 C   0  0  0  0  0  3  0  0  0  0  0  0
  156.2130  214.0790  145.7410 C   0  0  0  0  0  2  0  0  0  0  0  0
  156.0030  214.4530  147.2170 C   0  0  0  0  0  2  0  0  0  0  0  0
  157.5360  213.6660  145.5030 O   0  0  0  0  0  0  0  0  0  0  0  0
  161.5280  212.7640  149.0770 C   0  0  2  0  0  3  0  0  0  0  0  0
  162.9640  214.4530  148.1890 C   0  0  0  0  0  1  0  0  0  0  0  0
  161.5800  214.1140  148.4820 N   0  0  0  0  0  0  0  0  0  0  0  0
  161.7610  214.4530  146.0800 C   0  0  0  0  0  1  0  0  0  0  0  0
  160.8200  214.1890  147.2390 C   0  0  0  0  0  2  0  0  0  0  0  0
  161.5220  211.6130  148.0440 C   0  0  0  0  0  2  0  0  0  0  0  0
  162.8820  210.9510  147.8700 C   0  0  0  0  0  1  0  0  0  0  0  0
  1 21  2  0  0  0  0
  1 10  1  0  0  0  0
  2 17  1  0  0  0  0
  3  6  1  0  0  0  0
  3 15  1  0  0  0  0
  4 17  1  0  0  0  0
  4  8  1  0  0  0  0
  5  3  1  0  0  0  0
  6  4  1  0  0  0  0
  7 22  1  0  0  0  0
  7  5  1  0  0  0  0
  9  6  1  0  0  0  0
 10 13  2  0  0  0  0
 11 15  1  0  0  0  0
 12  8  1  0  0  0  0
 13  9  1  0  0  0  0
 13 19  1  0  0  0  0
 14 18  1  0  0  0  0
 15 12  1  0  0  0  0
 16  5  1  0  0  0  0
 16  9  2  0  0  0  0
 18  7  1  0  0  0  0
 19  2  1  0  0  0  0
 20 21  1  0  0  0  0
 20 14  1  0  0  0  0
 21 16  1  0  0  0  0
 23  7  1  0  0  0  0
 24 23  1  0  0  0  0
 25 26  1  0  0  0  0
 26 27  1  0  0  0  0
 27 24  1  0  0  0  0
 28 29  1  0  0  0  0
 29 27  1  0  0  0  0
 30 28  1  0  0  0  0
 30 25  1  0  0  0  0
 31 20  1  0  0  0  0
 32 33  1  0  0  0  0
 33 31  1  0  0  0  0
 34 35  1  0  0  0  0
 35 33  1  0  0  0  0
 36 31  1  0  0  0  0
 37 36  1  0  0  0  0
M  END
>  <MODEL>
1

>  <REMARK>
 VINA RESULT:      -3.1      0.000      0.000
  Name = 
  7 active torsions:
  status: ('A' for Active; 'I' for Inactive)
    1  A    between atoms: C_7  and  C_14
    2  A    between atoms: C_7  and  C_15
    3  A    between atoms: C_8  and  C_15
    4  A    between atoms: C_11  and  C_26
    5  A    between atoms: N_17  and  C_23
    6  A    between atoms: N_17  and  C_26
    7  A    between atoms: C_26  and  C_33
                            x       y       z     vdW  Elec       q    Type
                         _______ _______ _______ _____ _____    ______ ____

>  <TORSDO>
F 7

$$$$
=
 OpenBabel11062409053D

 37 42  0  0  1  0  0  0  0  0999 V2000
  161.7810  210.5480  150.8710 C   0  0  0  0  0  3  0  0  0  0  0  0
  162.5430  213.9890  147.4290 C   0  0  0  0  0  2  0  0  0  0  0  0
  158.8920  214.1220  150.0280 C   0  0  1  0  0  3  0  0  0  0  0  0
  159.9880  214.2380  147.6940 C   0  0  2  0  0  3  0  0  0  0  0  0
  159.3970  213.5000  151.3380 C   0  0  1  0  0  3  0  0  0  0  0  0
  160.2190  214.1560  149.2090 C   0  0  2  0  0  3  0  0  0  0  0  0
  158.5640  213.3070  152.6380 C   0  0  2  0  0  0  0  0  0  0  0  0
  158.9180  212.8930  147.1190 S   0  0  0  0  0  0  0  0  0  0  0  0
  160.9730  212.9470  149.7080 C   0  0  0  0  0  0  0  0  0  0  0  0
  162.3700  210.9800  149.6720 C   0  0  0  0  0  3  0  0  0  0  0  0
  156.5170  213.2300  150.0890 C   0  0  0  0  0  1  0  0  0  0  0  0
  157.6160  213.5600  148.0260 O   0  0  0  0  0  0  0  0  0  0  0  0
  161.9680  212.1810  149.0670 C   0  0  0  0  0  0  0  0  0  0  0  0
  158.4990  210.9330  152.2280 C   0  0  0  0  0  2  0  0  0  0  0  0
  157.8460  213.1890  149.3560 C   0  0  1  0  0  3  0  0  0  0  0  0
  160.4830  212.5680  150.9380 C   0  0  0  0  0  0  0  0  0  0  0  0
  161.2250  214.4400  146.8110 C   0  0  0  0  0  2  0  0  0  0  0  0
  157.8290  212.0850  152.7220 O   0  0  0  0  0  0  0  0  0  0  0  0
  162.5170  212.4970  147.7100 C   0  0  0  0  0  2  0  0  0  0  0  0
  159.9690  210.8180  152.6570 C   0  0  2  0  0  3  0  0  0  0  0  0
  160.8040  211.3310  151.5100 C   0  0  0  0  0  0  0  0  0  0  0  0
  157.5670  214.4530  152.7270 C   0  0  0  0  0  1  0  0  0  0  0  0
  159.5110  213.4590  153.8430 C   0  0  0  0  0  2  0  0  0  0  0  0
  158.9560  214.3490  154.9550 C   0  0  0  0  0  2  0  0  0  0  0  0
  155.7190  212.8680  156.4230 C   0  0  0  0  0  2  0  0  0  0  0  0
  156.6370  213.9140  155.7720 C   0  0  0  0  0  2  0  0  0  0  0  0
  158.1160  213.5530  155.9380 C   0  0  0  0  0  3  0  0  0  0  0  0
  157.2410  211.2140  156.4100 C   0  0  0  0  0  2  0  0  0  0  0  0
  158.3590  212.0490  155.7670 C   0  0  0  0  0  2  0  0  0  0  0  0
  156.4430  212.0000  157.2610 O   0  0  0  0  0  0  0  0  0  0  0  0
  160.3260  209.3920  153.1280 C   0  0  2  0  0  3  0  0  0  0  0  0
  161.5880  210.7550  154.6310 C   0  0  0  0  0  1  0  0  0  0  0  0
  161.1720  209.3910  154.3380 N   0  0  0  0  0  0  0  0  0  0  0  0
  161.4490  208.4050  156.5450 C   0  0  0  0  0  1  0  0  0  0  0  0
  160.4560  208.8750  155.5000 C   0  0  0  0  0  2  0  0  0  0  0  0
  160.8380  208.4770  151.9930 C   0  0  0  0  0  2  0  0  0  0  0  0
  160.9480  207.0140  152.4010 C   0  0  0  0  0  1  0  0  0  0  0  0
  1 21  1  0  0  0  0
  2 19  1  0  0  0  0
  3  5  1  0  0  0  0
  4  6  1  0  0  0  0
  5  7  1  0  0  0  0
  6  9  1  0  0  0  0
  6  3  1  0  0  0  0
  7 18  1  0  0  0  0
  7 22  1  0  0  0  0
  7 23  1  0  0  0  0
  8  4  1  0  0  0  0
  8 12  1  0  0  0  0
  9 16  1  0  0  0  0
 10  1  2  0  0  0  0
 12 15  1  0  0  0  0
 13 10  1  0  0  0  0
 13  9  2  0  0  0  0
 14 20  1  0  0  0  0
 14 18  1  0  0  0  0
 15  3  1  0  0  0  0
 15 11  1  0  0  0  0
 16  5  1  0  0  0  0
 16 21  2  0  0  0  0
 17  2  1  0  0  0  0
 17  4  1  0  0  0  0
 19 13  1  0  0  0  0
 20 31  1  0  0  0  0
 21 20  1  0  0  0  0
 23 24  1  0  0  0  0
 24 27  1  0  0  0  0
 25 30  1  0  0  0  0
 26 27  1  0  0  0  0
 26 25  1  0  0  0  0
 28 30  1  0  0  0  0
 29 27  1  0  0  0  0
 29 28  1  0  0  0  0
 31 33  1  0  0  0  0
 33 32  1  0  0  0  0
 33 35  1  0  0  0  0
 35 34  1  0  0  0  0
 36 37  1  0  0  0  0
 36 31  1  0  0  0  0
M  END
>  <MODEL>
2

>  <REMARK>
 VINA RESULT:      -2.6      2.580      6.998
  Name = 
  7 active torsions:
  status: ('A' for Active; 'I' for Inactive)
    1  A    between atoms: C_7  and  C_14
    2  A    between atoms: C_7  and  C_15
    3  A    between atoms: C_8  and  C_15
    4  A    between atoms: C_11  and  C_26
    5  A    between atoms: N_17  and  C_23
    6  A    between atoms: N_17  and  C_26
    7  A    between atoms: C_26  and  C_33
                            x       y       z     vdW  Elec       q    Type
                         _______ _______ _______ _____ _____    ______ ____

>  <TORSDO>
F 7

$$$$
=
 OpenBabel11062409053D

 37 42  0  0  1  0  0  0  0  0999 V2000
  159.9080  211.3620  155.1980 C   0  0  0  0  0  3  0  0  0  0  0  0
  156.6750  213.6920  152.3020 C   0  0  0  0  0  2  0  0  0  0  0  0
  160.0380  211.3170  150.5270 C   0  0  1  0  0  3  0  0  0  0  0  0
  158.6330  213.4800  150.6360 C   0  0  2  0  0  3  0  0  0  0  0  0
  160.2430  210.2070  151.5680 C   0  0  1  0  0  3  0  0  0  0  0  0
  158.7940  212.0370  151.1320 C   0  0  2  0  0  3  0  0  0  0  0  0
  161.2760  209.0470  151.4750 C   0  0  2  0  0  0  0  0  0  0  0  0
  160.1370  214.4470  150.9310 S   0  0  0  0  0  0  0  0  0  0  0  0
  158.9710  211.8560  152.6210 C   0  0  0  0  0  0  0  0  0  0  0  0
  158.9550  212.3690  154.9790 C   0  0  0  0  0  3  0  0  0  0  0  0
  162.4570  211.6060  149.8170 C   0  0  0  0  0  1  0  0  0  0  0  0
  160.9820  213.4500  149.8120 O   0  0  0  0  0  0  0  0  0  0  0  0
  158.4800  212.6390  153.6860 C   0  0  0  0  0  0  0  0  0  0  0  0
  162.5880  210.0940  153.2040 C   0  0  0  0  0  2  0  0  0  0  0  0
  161.2710  212.2630  150.4980 C   0  0  1  0  0  3  0  0  0  0  0  0
  159.8210  210.7990  152.8640 C   0  0  0  0  0  0  0  0  0  0  0  0
  157.3540  214.2200  151.0440 C   0  0  0  0  0  2  0  0  0  0  0  0
  162.5710  209.3340  152.0050 O   0  0  0  0  0  0  0  0  0  0  0  0
  157.5930  213.8320  153.5030 C   0  0  0  0  0  2  0  0  0  0  0  0
  161.5600  209.6500  154.2540 C   0  0  2  0  0  3  0  0  0  0  0  0
  160.3750  210.5750  154.1300 C   0  0  0  0  0  0  0  0  0  0  0  0
  161.4450  208.6910  150.0060 C   0  0  0  0  0  1  0  0  0  0  0  0
  160.6680  207.8070  152.1570 C   0  0  0  0  0  2  0  0  0  0  0  0
  161.6250  206.6170  152.2370 C   0  0  0  0  0  2  0  0  0  0  0  0
  160.8110  204.1430  149.4010 C   0  0  0  0  0  2  0  0  0  0  0  0
  161.0140  205.5030  150.0880 C   0  0  0  0  0  2  0  0  0  0  0  0
  161.0200  205.3720  151.6140 C   0  0  0  0  0  3  0  0  0  0  0  0
  161.4850  202.9150  151.1590 C   0  0  0  0  0  2  0  0  0  0  0  0
  161.7660  204.1150  152.0770 C   0  0  0  0  0  2  0  0  0  0  0  0
  160.3860  203.1640  150.3170 O   0  0  0  0  0  0  0  0  0  0  0  0
  162.1720  209.5730  155.6690 C   0  0  2  0  0  3  0  0  0  0  0  0
  160.4590  209.0840  157.2600 C   0  0  0  0  0  1  0  0  0  0  0  0
  161.5570  208.5140  156.4950 N   0  0  0  0  0  0  0  0  0  0  0  0
  159.5930  207.1410  156.0770 C   0  0  0  0  0  1  0  0  0  0  0  0
  161.0270  207.4280  155.6790 C   0  0  0  0  0  2  0  0  0  0  0  0
  162.2800  210.9460  156.3710 C   0  0  0  0  0  2  0  0  0  0  0  0
  163.5720  211.1210  157.1570 C   0  0  0  0  0  1  0  0  0  0  0  0
  2 19  1  0  0  0  0
  3  6  1  0  0  0  0
  3  5  1  0  0  0  0
  4  8  1  0  0  0  0
  4 17  1  0  0  0  0
  4  6  1  0  0  0  0
  5 16  1  0  0  0  0
  6  9  1  0  0  0  0
  7  5  1  0  0  0  0
  7 18  1  0  0  0  0
  7 23  1  0  0  0  0
  9 16  2  0  0  0  0
  9 13  1  0  0  0  0
 10  1  1  0  0  0  0
 11 15  1  0  0  0  0
 12 15  1  0  0  0  0
 12  8  1  0  0  0  0
 13 10  2  0  0  0  0
 14 20  1  0  0  0  0
 15  3  1  0  0  0  0
 16 21  1  0  0  0  0
 17  2  1  0  0  0  0
 18 14  1  0  0  0  0
 19 13  1  0  0  0  0
 20 31  1  0  0  0  0
 21 20  1  0  0  0  0
 21  1  2  0  0  0  0
 22  7  1  0  0  0  0
 23 24  1  0  0  0  0
 25 26  1  0  0  0  0
 25 30  1  0  0  0  0
 26 27  1  0  0  0  0
 27 29  1  0  0  0  0
 27 24  1  0  0  0  0
 28 29  1  0  0  0  0
 30 28  1  0  0  0  0
 31 36  1  0  0  0  0
 31 33  1  0  0  0  0
 33 32  1  0  0  0  0
 35 34  1  0  0  0  0
 35 33  1  0  0  0  0
 36 37  1  0  0  0  0
M  END
>  <MODEL>
3

>  <REMARK>
 VINA RESULT:      -1.6      3.671      7.678
  Name = 
  7 active torsions:
  status: ('A' for Active; 'I' for Inactive)
    1  A    between atoms: C_7  and  C_14
    2  A    between atoms: C_7  and  C_15
    3  A    between atoms: C_8  and  C_15
    4  A    between atoms: C_11  and  C_26
    5  A    between atoms: N_17  and  C_23
    6  A    between atoms: N_17  and  C_26
    7  A    between atoms: C_26  and  C_33
                            x       y       z     vdW  Elec       q    Type
                         _______ _______ _______ _____ _____    ______ ____

>  <TORSDO>
F 7

$$$$
=
 OpenBabel11062409053D

 37 42  0  0  1  0  0  0  0  0999 V2000
  162.1440  209.2060  149.5640 C   0  0  0  0  0  3  0  0  0  0  0  0
  162.0310  213.7530  147.6720 C   0  0  0  0  0  2  0  0  0  0  0  0
  160.0990  212.8700  151.6200 C   0  0  1  0  0  3  0  0  0  0  0  0
  160.0100  213.9260  149.2660 C   0  0  2  0  0  3  0  0  0  0  0  0
  160.9850  211.7460  152.1760 C   0  0  1  0  0  3  0  0  0  0  0  0
  160.8770  213.2140  150.3130 C   0  0  2  0  0  3  0  0  0  0  0  0
  160.8140  211.0460  153.5560 C   0  0  2  0  0  0  0  0  0  0  0  0
  158.5170  212.9700  148.8890 S   0  0  0  0  0  0  0  0  0  0  0  0
  161.4740  211.8890  149.8990 C   0  0  0  0  0  0  0  0  0  0  0  0
  162.2070  210.0870  148.4730 C   0  0  0  0  0  3  0  0  0  0  0  0
  157.8770  212.0880  152.5640 C   0  0  0  0  0  1  0  0  0  0  0  0
  157.9620  213.2260  150.4970 O   0  0  0  0  0  0  0  0  0  0  0  0
  161.8620  211.4390  148.6210 C   0  0  0  0  0  0  0  0  0  0  0  0
  160.0240  209.0630  152.4370 C   0  0  0  0  0  2  0  0  0  0  0  0
  158.6780  212.3270  151.2980 C   0  0  1  0  0  3  0  0  0  0  0  0
  161.5230  211.0420  150.9840 C   0  0  0  0  0  0  0  0  0  0  0  0
  160.7200  214.4510  148.0130 C   0  0  0  0  0  2  0  0  0  0  0  0
  159.9380  209.9180  153.5680 O   0  0  0  0  0  0  0  0  0  0  0  0
  161.7920  212.2810  147.3850 C   0  0  0  0  0  2  0  0  0  0  0  0
  161.4580  208.7460  151.9860 C   0  0  2  0  0  3  0  0  0  0  0  0
  161.7740  209.6720  150.8380 C   0  0  0  0  0  0  0  0  0  0  0  0
  160.2610  212.0720  154.5330 C   0  0  0  0  0  1  0  0  0  0  0  0
  162.2110  210.6590  154.0750 C   0  0  0  0  0  2  0  0  0  0  0  0
  162.3640  210.7910  155.5900 C   0  0  0  0  0  2  0  0  0  0  0  0
  159.6720  208.6020  157.2580 C   0  0  0  0  0  2  0  0  0  0  0  0
  160.4360  209.8830  156.8910 C   0  0  0  0  0  2  0  0  0  0  0  0
  161.8200  209.5720  156.3140 C   0  0  0  0  0  3  0  0  0  0  0  0
  160.8660  207.2510  155.9160 C   0  0  0  0  0  2  0  0  0  0  0  0
  161.7910  208.3560  155.3810 C   0  0  0  0  0  2  0  0  0  0  0  0
  160.5210  207.4810  157.2600 O   0  0  0  0  0  0  0  0  0  0  0  0
  161.6500  207.2460  151.6770 C   0  0  2  0  0  3  0  0  0  0  0  0
  162.6880  206.0080  149.9170 C   0  0  0  0  0  1  0  0  0  0  0  0
  161.6320  206.9600  150.2290 N   0  0  0  0  0  0  0  0  0  0  0  0
  160.4000  206.0940  148.3180 C   0  0  0  0  0  1  0  0  0  0  0  0
  160.3610  206.3830  149.8060 C   0  0  0  0  0  2  0  0  0  0  0  0
  160.7440  206.3200  152.5200 C   0  0  0  0  0  2  0  0  0  0  0  0
  161.4060  204.9990  152.8870 C   0  0  0  0  0  1  0  0  0  0  0  0
  1 21  1  0  0  0  0
  2 17  1  0  0  0  0
  3  5  1  0  0  0  0
  4  6  1  0  0  0  0
  5  7  1  0  0  0  0
  6  3  1  0  0  0  0
  7 18  1  0  0  0  0
  7 23  1  0  0  0  0
  7 22  1  0  0  0  0
  8  4  1  0  0  0  0
  8 12  1  0  0  0  0
  9  6  1  0  0  0  0
  9 16  1  0  0  0  0
 10 13  1  0  0  0  0
 10  1  2  0  0  0  0
 12 15  1  0  0  0  0
 13  9  2  0  0  0  0
 14 18  1  0  0  0  0
 15  3  1  0  0  0  0
 15 11  1  0  0  0  0
 16  5  1  0  0  0  0
 17  4  1  0  0  0  0
 19  2  1  0  0  0  0
 19 13  1  0  0  0  0
 20 14  1  0  0  0  0
 21 16  2  0  0  0  0
 21 20  1  0  0  0  0
 23 24  1  0  0  0  0
 24 27  1  0  0  0  0
 25 30  1  0  0  0  0
 26 25  1  0  0  0  0
 27 26  1  0  0  0  0
 28 30  1  0  0  0  0
 29 28  1  0  0  0  0
 29 27  1  0  0  0  0
 31 20  1  0  0  0  0
 31 36  1  0  0  0  0
 32 33  1  0  0  0  0
 33 31  1  0  0  0  0
 34 35  1  0  0  0  0
 35 33  1  0  0  0  0
 36 37  1  0  0  0  0
M  END
>  <MODEL>
4

>  <REMARK>
 VINA RESULT:      -1.3      2.840      7.371
  Name = 
  7 active torsions:
  status: ('A' for Active; 'I' for Inactive)
    1  A    between atoms: C_7  and  C_14
    2  A    between atoms: C_7  and  C_15
    3  A    between atoms: C_8  and  C_15
    4  A    between atoms: C_11  and  C_26
    5  A    between atoms: N_17  and  C_23
    6  A    between atoms: N_17  and  C_26
    7  A    between atoms: C_26  and  C_33
                            x       y       z     vdW  Elec       q    Type
                         _______ _______ _______ _____ _____    ______ ____

>  <TORSDO>
F 7

$$$$
=
 OpenBabel11062409053D

 37 42  0  0  1  0  0  0  0  0999 V2000
  162.1380  209.2410  149.6120 C   0  0  0  0  0  3  0  0  0  0  0  0
  161.4350  213.9020  148.1840 C   0  0  0  0  0  2  0  0  0  0  0  0
  160.1110  212.5300  152.2410 C   0  0  1  0  0  3  0  0  0  0  0  0
  159.6340  213.7670  150.0260 C   0  0  2  0  0  3  0  0  0  0  0  0
  161.1440  211.4440  152.5750 C   0  0  1  0  0  3  0  0  0  0  0  0
  160.6820  213.0470  150.8850 C   0  0  2  0  0  3  0  0  0  0  0  0
  161.2090  210.6200  153.8940 C   0  0  2  0  0  0  0  0  0  0  0  0
  158.1810  212.7190  149.7490 S   0  0  0  0  0  0  0  0  0  0  0  0
  161.3180  211.8180  150.2780 C   0  0  0  0  0  0  0  0  0  0  0  0
  161.9900  210.2110  148.6090 C   0  0  0  0  0  3  0  0  0  0  0  0
  158.0980  211.4820  153.3760 C   0  0  0  0  0  1  0  0  0  0  0  0
  157.8250  212.7920  151.4310 O   0  0  0  0  0  0  0  0  0  0  0  0
  161.5670  211.5120  148.9250 C   0  0  0  0  0  0  0  0  0  0  0  0
  160.4310  208.6760  152.7000 C   0  0  0  0  0  2  0  0  0  0  0  0
  158.7050  211.8950  152.0480 C   0  0  1  0  0  3  0  0  0  0  0  0
  161.5720  210.8910  151.2640 C   0  0  0  0  0  0  0  0  0  0  0  0
  160.1310  214.4530  148.7490 C   0  0  0  0  0  2  0  0  0  0  0  0
  160.4300  209.4230  153.9080 O   0  0  0  0  0  0  0  0  0  0  0  0
  161.2720  212.4450  147.7920 C   0  0  0  0  0  2  0  0  0  0  0  0
  161.8120  208.5230  152.0470 C   0  0  2  0  0  3  0  0  0  0  0  0
  161.9040  209.5650  150.9610 C   0  0  0  0  0  0  0  0  0  0  0  0
  160.7140  211.5090  155.0240 C   0  0  0  0  0  1  0  0  0  0  0  0
  162.6880  210.3130  154.1960 C   0  0  0  0  0  2  0  0  0  0  0  0
  163.0730  210.5220  155.6610 C   0  0  0  0  0  2  0  0  0  0  0  0
  166.1600  212.1780  157.2590 C   0  0  0  0  0  2  0  0  0  0  0  0
  164.8020  211.4610  157.1980 C   0  0  0  0  0  2  0  0  0  0  0  0
  164.1700  211.5620  155.8060 C   0  0  0  0  0  3  0  0  0  0  0  0
  166.5260  212.1260  155.0420 C   0  0  0  0  0  2  0  0  0  0  0  0
  165.2120  211.4110  154.6920 C   0  0  0  0  0  2  0  0  0  0  0  0
  166.3580  212.9980  156.1330 O   0  0  0  0  0  0  0  0  0  0  0  0
  162.0750  207.0760  151.5770 C   0  0  2  0  0  3  0  0  0  0  0  0
  161.4530  206.6720  149.3070 C   0  0  0  0  0  1  0  0  0  0  0  0
  161.0100  206.5680  150.6890 N   0  0  0  0  0  0  0  0  0  0  0  0
  160.6810  204.3860  149.6650 C   0  0  0  0  0  1  0  0  0  0  0  0
  160.6970  205.1700  150.9620 C   0  0  0  0  0  2  0  0  0  0  0  0
  162.4600  206.1140  152.7240 C   0  0  0  0  0  2  0  0  0  0  0  0
  161.5060  206.1760  153.9090 C   0  0  0  0  0  1  0  0  0  0  0  0
  1 21  1  0  0  0  0
  2 17  1  0  0  0  0
  3  5  1  0  0  0  0
  4  6  1  0  0  0  0
  5  7  1  0  0  0  0
  6  3  1  0  0  0  0
  7 18  1  0  0  0  0
  7 23  1  0  0  0  0
  7 22  1  0  0  0  0
  8  4  1  0  0  0  0
  8 12  1  0  0  0  0
  9  6  1  0  0  0  0
  9 16  1  0  0  0  0
 10 13  1  0  0  0  0
 10  1  2  0  0  0  0
 12 15  1  0  0  0  0
 13  9  2  0  0  0  0
 14 18  1  0  0  0  0
 15  3  1  0  0  0  0
 15 11  1  0  0  0  0
 16  5  1  0  0  0  0
 17  4  1  0  0  0  0
 19  2  1  0  0  0  0
 19 13  1  0  0  0  0
 20 14  1  0  0  0  0
 21 16  2  0  0  0  0
 21 20  1  0  0  0  0
 23 24  1  0  0  0  0
 24 27  1  0  0  0  0
 26 25  1  0  0  0  0
 27 26  1  0  0  0  0
 28 30  1  0  0  0  0
 29 28  1  0  0  0  0
 29 27  1  0  0  0  0
 30 25  1  0  0  0  0
 31 20  1  0  0  0  0
 31 36  1  0  0  0  0
 32 33  1  0  0  0  0
 33 35  1  0  0  0  0
 33 31  1  0  0  0  0
 34 35  1  0  0  0  0
 36 37  1  0  0  0  0
M  END
>  <MODEL>
5

>  <REMARK>
 VINA RESULT:      -1.2      3.572      7.710
  Name = 
  7 active torsions:
  status: ('A' for Active; 'I' for Inactive)
    1  A    between atoms: C_7  and  C_14
    2  A    between atoms: C_7  and  C_15
    3  A    between atoms: C_8  and  C_15
    4  A    between atoms: C_11  and  C_26
    5  A    between atoms: N_17  and  C_23
    6  A    between atoms: N_17  and  C_26
    7  A    between atoms: C_26  and  C_33
                            x       y       z     vdW  Elec       q    Type
                         _______ _______ _______ _____ _____    ______ ____

>  <TORSDO>
F 7

$$$$
=
 OpenBabel11062409053D

 37 42  0  0  1  0  0  0  0  0999 V2000
  159.4030  210.0430  156.1750 C   0  0  0  0  0  3  0  0  0  0  0  0
  155.1460  211.9580  154.6010 C   0  0  0  0  0  2  0  0  0  0  0  0
  158.7770  211.9880  151.9720 C   0  0  1  0  0  3  0  0  0  0  0  0
  156.7610  213.2080  153.0240 C   0  0  2  0  0  3  0  0  0  0  0  0
  159.5130  210.7140  152.4120 C   0  0  1  0  0  3  0  0  0  0  0  0
  157.4800  211.8670  152.8280 C   0  0  2  0  0  3  0  0  0  0  0  0
  160.8480  210.1790  151.8170 C   0  0  2  0  0  0  0  0  0  0  0  0
  157.8750  214.4530  153.7270 S   0  0  0  0  0  0  0  0  0  0  0  0
  157.9480  211.1670  154.0820 C   0  0  0  0  0  0  0  0  0  0  0  0
  158.1430  210.6100  156.4210 C   0  0  0  0  0  3  0  0  0  0  0  0
  160.8050  213.4300  151.4760 C   0  0  0  0  0  1  0  0  0  0  0  0
  158.8140  214.4070  152.2850 O   0  0  0  0  0  0  0  0  0  0  0  0
  157.4010  211.1910  155.3810 C   0  0  0  0  0  0  0  0  0  0  0  0
  161.9910  210.8250  153.8390 C   0  0  0  0  0  2  0  0  0  0  0  0
  159.5950  213.2480  152.3730 C   0  0  1  0  0  3  0  0  0  0  0  0
  159.1330  210.5100  153.8330 C   0  0  0  0  0  0  0  0  0  0  0  0
  155.3920  213.1720  153.7120 C   0  0  0  0  0  2  0  0  0  0  0  0
  162.0380  210.6840  152.4260 O   0  0  0  0  0  0  0  0  0  0  0  0
  156.1460  211.9220  155.7430 C   0  0  0  0  0  2  0  0  0  0  0  0
  161.3600  209.6350  154.5760 C   0  0  2  0  0  3  0  0  0  0  0  0
  159.9290  210.0080  154.8700 C   0  0  0  0  0  0  0  0  0  0  0  0
  160.8860  210.5550  150.3440 C   0  0  0  0  0  1  0  0  0  0  0  0
  160.8170  208.6400  151.8740 C   0  0  0  0  0  2  0  0  0  0  0  0
  162.1640  207.9840  151.5700 C   0  0  0  0  0  2  0  0  0  0  0  0
  160.8310  204.4860  150.6700 C   0  0  0  0  0  2  0  0  0  0  0  0
  161.4010  205.6070  151.5530 C   0  0  0  0  0  2  0  0  0  0  0  0
  161.9990  206.7410  150.7140 C   0  0  0  0  0  3  0  0  0  0  0  0
  160.6000  205.7600  148.8330 C   0  0  0  0  0  2  0  0  0  0  0  0
  161.1490  207.0440  149.4740 C   0  0  0  0  0  2  0  0  0  0  0  0
  161.2520  204.6200  149.3340 O   0  0  0  0  0  0  0  0  0  0  0  0
  162.1840  209.2150  155.8120 C   0  0  2  0  0  3  0  0  0  0  0  0
  160.6380  208.0950  157.2480 C   0  0  0  0  0  1  0  0  0  0  0  0
  161.7690  207.9050  156.3520 N   0  0  0  0  0  0  0  0  0  0  0  0
  159.9290  206.5480  155.5210 C   0  0  0  0  0  1  0  0  0  0  0  0
  161.3620  206.9870  155.2940 C   0  0  0  0  0  2  0  0  0  0  0  0
  162.3130  210.3300  156.8760 C   0  0  0  0  0  2  0  0  0  0  0  0
  163.6280  211.0910  156.7950 C   0  0  0  0  0  1  0  0  0  0  0  0
  1 10  1  0  0  0  0
  2 19  1  0  0  0  0
  3 15  1  0  0  0  0
  3  5  1  0  0  0  0
  3  6  1  0  0  0  0
  4 17  1  0  0  0  0
  4  8  1  0  0  0  0
  5 16  1  0  0  0  0
  6  4  1  0  0  0  0
  6  9  1  0  0  0  0
  7 23  1  0  0  0  0
  7  5  1  0  0  0  0
  7 18  1  0  0  0  0
  9 13  1  0  0  0  0
 11 15  1  0  0  0  0
 12 15  1  0  0  0  0
 12  8  1  0  0  0  0
 13 19  1  0  0  0  0
 13 10  2  0  0  0  0
 14 20  1  0  0  0  0
 16  9  2  0  0  0  0
 16 21  1  0  0  0  0
 17  2  1  0  0  0  0
 18 14  1  0  0  0  0
 20 21  1  0  0  0  0
 20 31  1  0  0  0  0
 21  1  2  0  0  0  0
 22  7  1  0  0  0  0
 24 23  1  0  0  0  0
 25 26  1  0  0  0  0
 27 26  1  0  0  0  0
 27 24  1  0  0  0  0
 28 30  1  0  0  0  0
 28 29  1  0  0  0  0
 29 27  1  0  0  0  0
 30 25  1  0  0  0  0
 31 33  1  0  0  0  0
 31 36  1  0  0  0  0
 33 32  1  0  0  0  0
 35 34  1  0  0  0  0
 35 33  1  0  0  0  0
 37 36  1  0  0  0  0
M  END
>  <MODEL>
6

>  <REMARK>
 VINA RESULT:      -1.0      3.639      7.027
  Name = 
  7 active torsions:
  status: ('A' for Active; 'I' for Inactive)
    1  A    between atoms: C_7  and  C_14
    2  A    between atoms: C_7  and  C_15
    3  A    between atoms: C_8  and  C_15
    4  A    between atoms: C_11  and  C_26
    5  A    between atoms: N_17  and  C_23
    6  A    between atoms: N_17  and  C_26
    7  A    between atoms: C_26  and  C_33
                            x       y       z     vdW  Elec       q    Type
                         _______ _______ _______ _____ _____    ______ ____

>  <TORSDO>
F 7

$$$$
=
 OpenBabel11062409053D

 37 42  0  0  1  0  0  0  0  0999 V2000
  162.3210  209.7050  149.9000 C   0  0  0  0  0  3  0  0  0  0  0  0
  162.4260  213.8560  147.2520 C   0  0  0  0  0  2  0  0  0  0  0  0
  159.5680  213.4000  150.6740 C   0  0  1  0  0  3  0  0  0  0  0  0
  160.0450  214.0560  148.2240 C   0  0  2  0  0  3  0  0  0  0  0  0
  160.3430  212.4820  151.6310 C   0  0  1  0  0  3  0  0  0  0  0  0
  160.6440  213.6170  149.5670 C   0  0  2  0  0  3  0  0  0  0  0  0
  159.8530  211.9930  153.0250 C   0  0  2  0  0  0  0  0  0  0  0  0
  158.7730  212.8950  147.6610 S   0  0  0  0  0  0  0  0  0  0  0  0
  161.4140  212.3170  149.5640 C   0  0  0  0  0  0  0  0  0  0  0  0
  162.6170  210.4040  148.7200 C   0  0  0  0  0  3  0  0  0  0  0  0
  157.2290  212.5380  151.1510 C   0  0  0  0  0  1  0  0  0  0  0  0
  157.7920  213.3390  149.0030 O   0  0  0  0  0  0  0  0  0  0  0  0
  162.1590  211.7170  148.5290 C   0  0  0  0  0  0  0  0  0  0  0  0
  159.5220  209.7840  152.1200 C   0  0  0  0  0  2  0  0  0  0  0  0
  158.3240  212.6610  150.1070 C   0  0  1  0  0  3  0  0  0  0  0  0
  161.2250  211.6620  150.7610 C   0  0  0  0  0  0  0  0  0  0  0  0
  161.0300  214.4520  147.1180 C   0  0  0  0  0  2  0  0  0  0  0  0
  159.0800  210.7920  153.0190 O   0  0  0  0  0  0  0  0  0  0  0  0
  162.3690  212.3410  147.1840 C   0  0  0  0  0  2  0  0  0  0  0  0
  161.0410  209.5590  152.1120 C   0  0  2  0  0  3  0  0  0  0  0  0
  161.5930  210.3220  150.9340 C   0  0  0  0  0  0  0  0  0  0  0  0
  158.9930  213.0940  153.6290 C   0  0  0  0  0  1  0  0  0  0  0  0
  161.0820  211.8480  153.9420 C   0  0  0  0  0  2  0  0  0  0  0  0
  160.7850  212.1170  155.4180 C   0  0  0  0  0  2  0  0  0  0  0  0
  159.7430  208.5310  156.3560 C   0  0  0  0  0  2  0  0  0  0  0  0
  159.5730  209.9870  155.8960 C   0  0  0  0  0  2  0  0  0  0  0  0
  160.8040  210.8350  156.2320 C   0  0  0  0  0  3  0  0  0  0  0  0
  161.9880  208.5970  156.4410 C   0  0  0  0  0  2  0  0  0  0  0  0
  162.1090  210.0640  156.0010 C   0  0  0  0  0  2  0  0  0  0  0  0
  160.8400  208.3920  157.2260 O   0  0  0  0  0  0  0  0  0  0  0  0
  161.4050  208.0600  152.1380 C   0  0  2  0  0  3  0  0  0  0  0  0
  162.7230  206.5580  150.8290 C   0  0  0  0  0  1  0  0  0  0  0  0
  161.6200  207.5060  150.7860 N   0  0  0  0  0  0  0  0  0  0  0  0
  160.8600  205.6680  149.3840 C   0  0  0  0  0  1  0  0  0  0  0  0
  160.4380  206.8070  150.2930 C   0  0  0  0  0  2  0  0  0  0  0  0
  160.4720  207.2120  153.0320 C   0  0  0  0  0  2  0  0  0  0  0  0
  161.2080  206.4660  154.1360 C   0  0  0  0  0  1  0  0  0  0  0  0
  1 21  1  0  0  0  0
  3  5  1  0  0  0  0
  4  6  1  0  0  0  0
  5  7  1  0  0  0  0
  6  3  1  0  0  0  0
  7 22  1  0  0  0  0
  7 23  1  0  0  0  0
  8  4  1  0  0  0  0
  8 12  1  0  0  0  0
  9  6  1  0  0  0  0
  9 16  1  0  0  0  0
 10  1  2  0  0  0  0
 12 15  1  0  0  0  0
 13 10  1  0  0  0  0
 13  9  2  0  0  0  0
 14 18  1  0  0  0  0
 15  3  1  0  0  0  0
 15 11  1  0  0  0  0
 16 21  2  0  0  0  0
 16  5  1  0  0  0  0
 17  2  1  0  0  0  0
 17  4  1  0  0  0  0
 18  7  1  0  0  0  0
 19  2  1  0  0  0  0
 19 13  1  0  0  0  0
 20 14  1  0  0  0  0
 20 31  1  0  0  0  0
 21 20  1  0  0  0  0
 23 24  1  0  0  0  0
 24 27  1  0  0  0  0
 25 30  1  0  0  0  0
 26 27  1  0  0  0  0
 26 25  1  0  0  0  0
 28 30  1  0  0  0  0
 29 27  1  0  0  0  0
 29 28  1  0  0  0  0
 31 36  1  0  0  0  0
 33 32  1  0  0  0  0
 33 31  1  0  0  0  0
 34 35  1  0  0  0  0
 35 33  1  0  0  0  0
 36 37  1  0  0  0  0
M  END
>  <MODEL>
7

>  <REMARK>
 VINA RESULT:      -0.7      2.673      7.281
  Name = 
  7 active torsions:
  status: ('A' for Active; 'I' for Inactive)
    1  A    between atoms: C_7  and  C_14
    2  A    between atoms: C_7  and  C_15
    3  A    between atoms: C_8  and  C_15
    4  A    between atoms: C_11  and  C_26
    5  A    between atoms: N_17  and  C_23
    6  A    between atoms: N_17  and  C_26
    7  A    between atoms: C_26  and  C_33
                            x       y       z     vdW  Elec       q    Type
                         _______ _______ _______ _____ _____    ______ ____

>  <TORSDO>
F 7

$$$$
