=
 OpenBabel11052423133D

 27 30  0  0  1  0  0  0  0  0999 V2000
  160.7190  211.3550  151.5900 C   0  0  0  0  0  2  0  0  0  0  0  0
  161.4370  209.0260  150.8900 C   0  0  0  0  0  0  0  0  0  0  0  0
  161.8180  208.9000  153.3580 N   0  0  0  0  0  2  0  0  0  0  0  0
  160.9730  204.8960  150.6930 C   0  0  0  0  0  3  0  0  0  0  0  0
  160.8730  202.6370  151.7530 C   0  0  0  0  0  1  0  0  0  0  0  0
  161.2210  208.3690  149.7170 N   0  0  0  0  0  0  0  0  0  0  0  0
  161.4490  206.0930  153.1780 C   0  0  0  0  0  3  0  0  0  0  0  0
  161.4580  210.1050  156.0770 C   0  0  0  0  0  2  0  0  0  0  0  0
  161.2850  204.7080  153.0870 C   0  0  0  0  0  3  0  0  0  0  0  0
  159.8400  210.9310  156.1140 S   0  0  0  0  0  0  0  0  0  0  0  0
  161.3750  206.8910  152.0270 C   0  0  0  0  0  0  0  0  0  0  0  0
  161.6160  210.4510  150.8660 N   0  0  0  0  0  0  0  0  0  0  0  0
  161.0470  204.1110  151.8460 C   0  0  0  0  0  0  0  0  0  0  0  0
  161.1360  206.2810  150.7800 C   0  0  0  0  0  0  0  0  0  0  0  0
  160.6750  211.0890  153.0930 C   0  0  1  0  0  3  0  0  0  0  0  0
  161.5360  208.2820  152.0890 C   0  0  0  0  0  0  0  0  0  0  0  0
  162.3530  210.6930  154.9940 C   0  0  0  0  0  2  0  0  0  0  0  0
  161.0710  207.0460  149.6620 N   0  0  0  0  0  0  0  0  0  0  0  0
  159.2190  209.8170  154.8230 C   0  0  0  0  0  2  0  0  0  0  0  0
  159.3250  210.4340  153.4320 C   0  0  0  0  0  2  0  0  0  0  0  0
  161.9290  210.3380  153.5670 C   0  0  1  0  0  3  0  0  0  0  0  0
  162.5800  211.0340  149.9450 C   0  0  0  0  0  2  0  0  0  0  0  0
  161.6300  212.2170  147.9690 C   0  0  0  0  0  3  0  0  0  0  0  0
  162.0140  211.0790  148.5580 C   0  0  0  0  0  3  0  0  0  0  0  0
  161.7170  213.5600  148.6290 C   0  0  0  0  0  2  0  0  0  0  0  0
  162.6880  214.4530  147.8800 C   0  0  0  0  0  2  0  0  0  0  0  0
  162.4420  214.3610  146.5110 O   0  0  0  0  0  1  0  0  0  0  0  0
  2 16  1  0  0  0  0
  3 21  1  0  0  0  0
  4 14  1  0  0  0  0
  4 13  2  0  0  0  0
  5 13  1  0  0  0  0
  6  2  2  0  0  0  0
  8 10  1  0  0  0  0
  9  7  2  0  0  0  0
 11 16  2  0  0  0  0
 11  7  1  0  0  0  0
 12  2  1  0  0  0  0
 12  1  1  0  0  0  0
 13  9  1  0  0  0  0
 14 11  1  0  0  0  0
 15  1  1  6  0  0  0
 15 20  1  0  0  0  0
 15 21  1  0  0  0  0
 16  3  1  0  0  0  0
 17  8  1  0  0  0  0
 18  6  1  0  0  0  0
 18 14  2  0  0  0  0
 19 10  1  0  0  0  0
 20 19  1  0  0  0  0
 21 17  1  1  0  0  0
 22 12  1  0  0  0  0
 23 24  2  0  0  0  0
 23 25  1  0  0  0  0
 24 22  1  0  0  0  0
 26 25  1  0  0  0  0
 27 26  1  0  0  0  0
M  END
>  <MODEL>
1

>  <REMARK>
 VINA RESULT:      -6.1      0.000      0.000
  Name = 
  4 active torsions:
  status: ('A' for Active; 'I' for Inactive)
    1  A    between atoms: C_7  and  C_11
    2  A    between atoms: C_7  and  C_25
    3  A    between atoms: C_9  and  N_15
    4  A    between atoms: C_9  and  C_27
                            x       y       z     vdW  Elec       q    Type
                         _______ _______ _______ _____ _____    ______ ____

>  <TORSDO>
F 4

$$$$
=
 OpenBabel11052423133D

 27 30  0  0  1  0  0  0  0  0999 V2000
  161.2070  208.5220  155.0990 C   0  0  0  0  0  2  0  0  0  0  0  0
  161.1020  209.1450  152.6430 C   0  0  0  0  0  0  0  0  0  0  0  0
  159.4630  210.7740  153.5980 N   0  0  0  0  0  2  0  0  0  0  0  0
  161.8180  211.6700  149.4150 C   0  0  0  0  0  3  0  0  0  0  0  0
  161.4540  213.7970  148.1580 C   0  0  0  0  0  1  0  0  0  0  0  0
  161.9470  208.8140  151.6280 N   0  0  0  0  0  0  0  0  0  0  0  0
  160.0200  212.4800  151.4020 C   0  0  0  0  0  3  0  0  0  0  0  0
  158.2440  212.0790  156.0040 C   0  0  0  0  0  2  0  0  0  0  0  0
  160.2810  213.3140  150.3100 C   0  0  0  0  0  3  0  0  0  0  0  0
  159.5440  212.2610  157.2610 S   0  0  0  0  0  0  0  0  0  0  0  0
  160.6570  211.2360  151.5090 C   0  0  0  0  0  0  0  0  0  0  0  0
  160.8880  208.2030  153.7050 N   0  0  0  0  0  0  0  0  0  0  0  0
  161.1790  212.9090  149.3180 C   0  0  0  0  0  0  0  0  0  0  0  0
  161.5600  210.8350  150.5050 C   0  0  0  0  0  0  0  0  0  0  0  0
  160.4520  209.7400  155.6280 C   0  0  1  0  0  3  0  0  0  0  0  0
  160.4140  210.3810  152.5930 C   0  0  0  0  0  0  0  0  0  0  0  0
  158.0400  210.6170  155.6290 C   0  0  0  0  0  2  0  0  0  0  0  0
  162.1740  209.6290  150.5990 N   0  0  0  0  0  0  0  0  0  0  0  0
  160.8180  212.2860  155.9700 C   0  0  0  0  0  2  0  0  0  0  0  0
  161.4430  210.9100  155.7520 C   0  0  0  0  0  2  0  0  0  0  0  0
  159.1820  210.0130  154.8080 C   0  0  1  0  0  3  0  0  0  0  0  0
  160.5390  206.8270  153.3800 C   0  0  0  0  0  2  0  0  0  0  0  0
  162.0050  205.2870  152.0830 C   0  0  0  0  0  3  0  0  0  0  0  0
  161.7780  206.0070  153.1870 C   0  0  0  0  0  3  0  0  0  0  0  0
  161.0490  205.2160  150.9310 C   0  0  0  0  0  2  0  0  0  0  0  0
  160.8970  203.7830  150.4590 C   0  0  0  0  0  2  0  0  0  0  0  0
  160.8470  203.7560  149.0670 O   0  0  0  0  0  1  0  0  0  0  0  0
  2 12  1  0  0  0  0
  3 21  1  0  0  0  0
  4 14  1  0  0  0  0
  5 13  1  0  0  0  0
  6  2  2  0  0  0  0
  7 11  1  0  0  0  0
  8 10  1  0  0  0  0
  9  7  2  0  0  0  0
 11 16  2  0  0  0  0
 12  1  1  0  0  0  0
 13  4  2  0  0  0  0
 13  9  1  0  0  0  0
 14 18  2  0  0  0  0
 14 11  1  0  0  0  0
 15  1  1  6  0  0  0
 15 20  1  0  0  0  0
 16  2  1  0  0  0  0
 16  3  1  0  0  0  0
 17  8  1  0  0  0  0
 18  6  1  0  0  0  0
 19 10  1  0  0  0  0
 20 19  1  0  0  0  0
 21 15  1  0  0  0  0
 21 17  1  1  0  0  0
 22 12  1  0  0  0  0
 23 24  2  0  0  0  0
 24 22  1  0  0  0  0
 25 23  1  0  0  0  0
 26 25  1  0  0  0  0
 27 26  1  0  0  0  0
M  END
>  <MODEL>
2

>  <REMARK>
 VINA RESULT:      -5.5      2.568      6.223
  Name = 
  4 active torsions:
  status: ('A' for Active; 'I' for Inactive)
    1  A    between atoms: C_7  and  C_11
    2  A    between atoms: C_7  and  C_25
    3  A    between atoms: C_9  and  N_15
    4  A    between atoms: C_9  and  C_27
                            x       y       z     vdW  Elec       q    Type
                         _______ _______ _______ _____ _____    ______ ____

>  <TORSDO>
F 4

$$$$
=
 OpenBabel11052423133D

 27 30  0  0  1  0  0  0  0  0999 V2000
  160.6990  204.9960  149.5360 C   0  0  0  0  0  2  0  0  0  0  0  0
  161.5340  207.2770  150.2640 C   0  0  0  0  0  0  0  0  0  0  0  0
  162.4390  207.1810  147.9350 N   0  0  0  0  0  2  0  0  0  0  0  0
  161.5510  211.4360  150.1600 C   0  0  0  0  0  3  0  0  0  0  0  0
  161.9560  213.6090  148.9980 C   0  0  0  0  0  1  0  0  0  0  0  0
  161.1590  208.0370  151.3290 N   0  0  0  0  0  0  0  0  0  0  0  0
  162.3890  210.0160  147.8970 C   0  0  0  0  0  3  0  0  0  0  0  0
  162.5140  205.8280  145.2620 C   0  0  0  0  0  2  0  0  0  0  0  0
  162.3810  211.4140  147.8840 C   0  0  0  0  0  3  0  0  0  0  0  0
  160.8500  205.1850  144.9140 S   0  0  0  0  0  0  0  0  0  0  0  0
  161.9770  209.3170  149.0410 C   0  0  0  0  0  0  0  0  0  0  0  0
  161.5270  205.8460  150.3930 N   0  0  0  0  0  0  0  0  0  0  0  0
  161.9630  212.1230  149.0140 C   0  0  0  0  0  0  0  0  0  0  0  0
  161.5580  210.0380  150.1760 C   0  0  0  0  0  0  0  0  0  0  0  0
  161.0040  205.1560  148.0480 C   0  0  1  0  0  3  0  0  0  0  0  0
  161.9750  207.9160  149.0810 C   0  0  0  0  0  0  0  0  0  0  0  0
  163.0810  205.2260  146.5410 C   0  0  0  0  0  2  0  0  0  0  0  0
  161.1650  209.3690  151.2870 N   0  0  0  0  0  0  0  0  0  0  0  0
  160.1130  206.4510  145.9840 C   0  0  0  0  0  2  0  0  0  0  0  0
  159.8470  205.9290  147.3930 C   0  0  0  0  0  2  0  0  0  0  0  0
  162.4130  205.7280  147.8230 C   0  0  1  0  0  3  0  0  0  0  0  0
  162.1970  205.2290  151.5290 C   0  0  0  0  0  2  0  0  0  0  0  0
  160.9300  203.2510  152.3590 C   0  0  0  0  0  3  0  0  0  0  0  0
  161.1970  204.5600  152.4220 C   0  0  0  0  0  3  0  0  0  0  0  0
  161.5920  202.3190  151.3900 C   0  0  0  0  0  2  0  0  0  0  0  0
  160.5590  201.6870  150.4760 C   0  0  0  0  0  2  0  0  0  0  0  0
  161.2060  200.9530  149.4830 O   0  0  0  0  0  1  0  0  0  0  0  0
  1 12  1  0  0  0  0
  2 12  1  0  0  0  0
  2  6  1  0  0  0  0
  3 16  1  0  0  0  0
  4 14  1  0  0  0  0
  5 13  1  0  0  0  0
  7 11  1  0  0  0  0
  8 17  1  0  0  0  0
  9  7  2  0  0  0  0
  9 13  1  0  0  0  0
 10  8  1  0  0  0  0
 10 19  1  0  0  0  0
 11 16  1  0  0  0  0
 11 14  2  0  0  0  0
 12 22  1  0  0  0  0
 13  4  2  0  0  0  0
 14 18  1  0  0  0  0
 15 20  1  1  0  0  0
 15  1  1  0  0  0  0
 16  2  2  0  0  0  0
 18  6  2  0  0  0  0
 19 20  1  0  0  0  0
 21 17  1  6  0  0  0
 21  3  1  0  0  0  0
 21 15  1  0  0  0  0
 22 24  1  0  0  0  0
 23 24  2  0  0  0  0
 25 23  1  0  0  0  0
 26 25  1  0  0  0  0
 27 26  1  0  0  0  0
M  END
>  <MODEL>
3

>  <REMARK>
 VINA RESULT:      -4.8      4.344      8.319
  Name = 
  4 active torsions:
  status: ('A' for Active; 'I' for Inactive)
    1  A    between atoms: C_7  and  C_11
    2  A    between atoms: C_7  and  C_25
    3  A    between atoms: C_9  and  N_15
    4  A    between atoms: C_9  and  C_27
                            x       y       z     vdW  Elec       q    Type
                         _______ _______ _______ _____ _____    ______ ____

>  <TORSDO>
F 4

$$$$
=
 OpenBabel11052423133D

 27 30  0  0  1  0  0  0  0  0999 V2000
  160.7890  205.5640  150.1760 C   0  0  0  0  0  2  0  0  0  0  0  0
  161.5940  207.9320  150.5950 C   0  0  0  0  0  0  0  0  0  0  0  0
  162.4500  207.5610  148.2750 N   0  0  0  0  0  2  0  0  0  0  0  0
  161.5240  212.0450  149.9720 C   0  0  0  0  0  3  0  0  0  0  0  0
  161.8590  214.0630  148.5390 C   0  0  0  0  0  1  0  0  0  0  0  0
  161.2260  208.8130  151.5650 N   0  0  0  0  0  0  0  0  0  0  0  0
  162.3410  210.3680  147.8850 C   0  0  0  0  0  3  0  0  0  0  0  0
  162.4950  205.8860  145.7900 C   0  0  0  0  0  2  0  0  0  0  0  0
  162.3050  211.7540  147.6980 C   0  0  0  0  0  3  0  0  0  0  0  0
  160.8370  205.1760  145.5650 S   0  0  0  0  0  0  0  0  0  0  0  0
  161.9680  209.8110  149.1160 C   0  0  0  0  0  0  0  0  0  0  0  0
  161.6190  206.5290  150.9010 N   0  0  0  0  0  0  0  0  0  0  0  0
  161.8960  212.5900  148.7410 C   0  0  0  0  0  0  0  0  0  0  0  0
  161.5590  210.6610  150.1620 C   0  0  0  0  0  0  0  0  0  0  0  0
  161.0600  205.5420  148.6730 C   0  0  1  0  0  3  0  0  0  0  0  0
  161.9950  208.4260  149.3310 C   0  0  0  0  0  0  0  0  0  0  0  0
  163.1010  205.4590  147.1200 C   0  0  0  0  0  2  0  0  0  0  0  0
  161.2040  210.1290  151.3580 N   0  0  0  0  0  0  0  0  0  0  0  0
  160.0980  206.5530  146.4860 C   0  0  0  0  0  2  0  0  0  0  0  0
  159.8730  206.2060  147.9550 C   0  0  0  0  0  2  0  0  0  0  0  0
  162.4510  206.1050  148.3460 C   0  0  1  0  0  3  0  0  0  0  0  0
  162.3250  206.0710  152.0890 C   0  0  0  0  0  2  0  0  0  0  0  0
  160.8670  206.0570  154.1090 C   0  0  0  0  0  3  0  0  0  0  0  0
  161.3700  205.4220  153.0440 C   0  0  0  0  0  3  0  0  0  0  0  0
  161.2070  207.4730  154.4630 C   0  0  0  0  0  2  0  0  0  0  0  0
  160.2940  207.9730  155.5670 C   0  0  0  0  0  2  0  0  0  0  0  0
  160.0830  206.9530  156.4930 O   0  0  0  0  0  1  0  0  0  0  0  0
  1 12  1  0  0  0  0
  2 12  1  0  0  0  0
  2  6  1  0  0  0  0
  3 21  1  0  0  0  0
  3 16  1  0  0  0  0
  4 14  1  0  0  0  0
  5 13  1  0  0  0  0
  7 11  1  0  0  0  0
  8 17  1  0  0  0  0
  9  7  2  0  0  0  0
  9 13  1  0  0  0  0
 10  8  1  0  0  0  0
 10 19  1  0  0  0  0
 11 16  1  0  0  0  0
 11 14  2  0  0  0  0
 12 22  1  0  0  0  0
 13  4  2  0  0  0  0
 14 18  1  0  0  0  0
 15 20  1  6  0  0  0
 15  1  1  0  0  0  0
 16  2  2  0  0  0  0
 18  6  2  0  0  0  0
 19 20  1  0  0  0  0
 21 17  1  6  0  0  0
 21 15  1  0  0  0  0
 22 24  1  0  0  0  0
 23 25  1  0  0  0  0
 24 23  2  0  0  0  0
 25 26  1  0  0  0  0
 26 27  1  0  0  0  0
M  END
>  <MODEL>
4

>  <REMARK>
 VINA RESULT:      -4.7      3.975      7.759
  Name = 
  4 active torsions:
  status: ('A' for Active; 'I' for Inactive)
    1  A    between atoms: C_7  and  C_11
    2  A    between atoms: C_7  and  C_25
    3  A    between atoms: C_9  and  N_15
    4  A    between atoms: C_9  and  C_27
                            x       y       z     vdW  Elec       q    Type
                         _______ _______ _______ _____ _____    ______ ____

>  <TORSDO>
F 4

$$$$
=
 OpenBabel11052423133D

 27 30  0  0  1  0  0  0  0  0999 V2000
  161.5890  206.6370  154.3320 C   0  0  0  0  0  2  0  0  0  0  0  0
  161.3870  207.6600  152.0210 C   0  0  0  0  0  0  0  0  0  0  0  0
  160.1820  209.3740  153.3870 N   0  0  0  0  0  2  0  0  0  0  0  0
  162.2820  210.5130  149.1280 C   0  0  0  0  0  3  0  0  0  0  0  0
  162.2210  212.8470  148.2420 C   0  0  0  0  0  1  0  0  0  0  0  0
  162.0590  207.3560  150.8770 N   0  0  0  0  0  0  0  0  0  0  0  0
  160.8570  211.2910  151.4080 C   0  0  0  0  0  3  0  0  0  0  0  0
  159.4540  210.4620  156.0820 C   0  0  0  0  0  2  0  0  0  0  0  0
  161.1740  212.2330  150.4250 C   0  0  0  0  0  3  0  0  0  0  0  0
  160.8720  210.2060  157.1900 S   0  0  0  0  0  0  0  0  0  0  0  0
  161.2510  209.9540  151.2600 C   0  0  0  0  0  0  0  0  0  0  0  0
  161.0920  206.6100  152.9550 N   0  0  0  0  0  0  0  0  0  0  0  0
  161.8860  211.8440  149.2860 C   0  0  0  0  0  0  0  0  0  0  0  0
  161.9670  209.5690  150.1090 C   0  0  0  0  0  0  0  0  0  0  0  0
  161.1320  207.8650  155.1160 C   0  0  1  0  0  3  0  0  0  0  0  0
  160.9460  208.9890  152.2300 C   0  0  0  0  0  0  0  0  0  0  0  0
  158.9420  209.1390  155.5280 C   0  0  0  0  0  2  0  0  0  0  0  0
  162.3450  208.2760  149.9560 N   0  0  0  0  0  0  0  0  0  0  0  0
  162.0070  210.2170  155.7750 C   0  0  0  0  0  2  0  0  0  0  0  0
  162.3350  208.8080  155.2900 C   0  0  0  0  0  2  0  0  0  0  0  0
  159.8690  208.4860  154.5000 C   0  0  1  0  0  3  0  0  0  0  0  0
  160.4590  205.3880  152.4790 C   0  0  0  0  0  2  0  0  0  0  0  0
  161.5640  203.5870  151.1600 C   0  0  0  0  0  3  0  0  0  0  0  0
  161.4840  204.3140  152.2800 C   0  0  0  0  0  3  0  0  0  0  0  0
  160.6410  203.7640  149.9930 C   0  0  0  0  0  2  0  0  0  0  0  0
  161.4050  204.2830  148.7890 C   0  0  0  0  0  2  0  0  0  0  0  0
  161.2290  203.4120  147.7160 O   0  0  0  0  0  1  0  0  0  0  0  0
  2 16  1  0  0  0  0
  2 12  1  0  0  0  0
  3 21  1  0  0  0  0
  4 13  2  0  0  0  0
  4 14  1  0  0  0  0
  5 13  1  0  0  0  0
  6  2  2  0  0  0  0
  8 10  1  0  0  0  0
  9  7  2  0  0  0  0
 11  7  1  0  0  0  0
 11 16  2  0  0  0  0
 12  1  1  0  0  0  0
 13  9  1  0  0  0  0
 14 11  1  0  0  0  0
 15  1  1  6  0  0  0
 15 20  1  0  0  0  0
 16  3  1  0  0  0  0
 17  8  1  0  0  0  0
 18 14  2  0  0  0  0
 18  6  1  0  0  0  0
 19 10  1  0  0  0  0
 20 19  1  0  0  0  0
 21 15  1  0  0  0  0
 21 17  1  1  0  0  0
 22 12  1  0  0  0  0
 23 24  2  0  0  0  0
 24 22  1  0  0  0  0
 25 23  1  0  0  0  0
 26 25  1  0  0  0  0
 27 26  1  0  0  0  0
M  END
>  <MODEL>
5

>  <REMARK>
 VINA RESULT:      -4.0      2.527      6.037
  Name = 
  4 active torsions:
  status: ('A' for Active; 'I' for Inactive)
    1  A    between atoms: C_7  and  C_11
    2  A    between atoms: C_7  and  C_25
    3  A    between atoms: C_9  and  N_15
    4  A    between atoms: C_9  and  C_27
                            x       y       z     vdW  Elec       q    Type
                         _______ _______ _______ _____ _____    ______ ____

>  <TORSDO>
F 4

$$$$
=
 OpenBabel11052423133D

 27 30  0  0  1  0  0  0  0  0999 V2000
  160.4710  203.3200  148.1480 C   0  0  0  0  0  2  0  0  0  0  0  0
  161.1960  205.0160  149.8890 C   0  0  0  0  0  0  0  0  0  0  0  0
  162.3890  205.8910  147.8730 N   0  0  0  0  0  2  0  0  0  0  0  0
  161.2050  208.8040  151.6090 C   0  0  0  0  0  3  0  0  0  0  0  0
  161.7430  211.2420  151.5660 C   0  0  0  0  0  1  0  0  0  0  0  0
  160.6850  205.2580  151.1270 N   0  0  0  0  0  0  0  0  0  0  0  0
  162.3300  208.4630  149.0690 C   0  0  0  0  0  3  0  0  0  0  0  0
  162.8090  205.8270  144.9070 C   0  0  0  0  0  2  0  0  0  0  0  0
  162.3170  209.7270  149.6650 C   0  0  0  0  0  3  0  0  0  0  0  0
  161.2060  205.4830  144.1230 S   0  0  0  0  0  0  0  0  0  0  0  0
  161.7800  207.3600  149.7370 C   0  0  0  0  0  0  0  0  0  0  0  0
  161.1800  203.6730  149.3800 N   0  0  0  0  0  0  0  0  0  0  0  0
  161.7550  209.8970  150.9340 C   0  0  0  0  0  0  0  0  0  0  0  0
  161.2160  207.5390  151.0160 C   0  0  0  0  0  0  0  0  0  0  0  0
  160.9620  204.0930  146.9250 C   0  0  1  0  0  3  0  0  0  0  0  0
  161.7800  206.0810  149.1620 C   0  0  0  0  0  0  0  0  0  0  0  0
  163.2120  204.7020  145.8520 C   0  0  0  0  0  2  0  0  0  0  0  0
  160.6890  206.4750  151.6710 N   0  0  0  0  0  0  0  0  0  0  0  0
  160.3330  206.1970  145.5440 C   0  0  0  0  0  2  0  0  0  0  0  0
  159.8930  205.1300  146.5430 C   0  0  0  0  0  2  0  0  0  0  0  0
  162.3850  204.6330  147.1370 C   0  0  1  0  0  3  0  0  0  0  0  0
  161.7040  202.5920  150.2030 C   0  0  0  0  0  2  0  0  0  0  0  0
  160.8310  200.5000  149.1690 C   0  0  0  0  0  3  0  0  0  0  0  0
  160.7870  201.4080  150.1510 C   0  0  0  0  0  3  0  0  0  0  0  0
  161.7900  200.5720  148.0200 C   0  0  0  0  0  2  0  0  0  0  0  0
  161.2330  199.8270  146.8210 C   0  0  0  0  0  2  0  0  0  0  0  0
  160.8340  200.7430  145.8500 O   0  0  0  0  0  1  0  0  0  0  0  0
  1 12  1  0  0  0  0
  2  6  1  0  0  0  0
  3 16  1  0  0  0  0
  6 18  2  0  0  0  0
  7  9  2  0  0  0  0
  7 11  1  0  0  0  0
  8 17  1  0  0  0  0
  9 13  1  0  0  0  0
 10  8  1  0  0  0  0
 10 19  1  0  0  0  0
 11 14  2  0  0  0  0
 12  2  1  0  0  0  0
 12 22  1  0  0  0  0
 13  5  1  0  0  0  0
 13  4  2  0  0  0  0
 14  4  1  0  0  0  0
 14 18  1  0  0  0  0
 15 20  1  1  0  0  0
 15 21  1  0  0  0  0
 15  1  1  0  0  0  0
 16 11  1  0  0  0  0
 16  2  2  0  0  0  0
 19 20  1  0  0  0  0
 21 17  1  6  0  0  0
 21  3  1  0  0  0  0
 23 24  2  0  0  0  0
 24 22  1  0  0  0  0
 25 23  1  0  0  0  0
 26 25  1  0  0  0  0
 27 26  1  0  0  0  0
M  END
>  <MODEL>
6

>  <REMARK>
 VINA RESULT:      -3.3      4.828      8.750
  Name = 
  4 active torsions:
  status: ('A' for Active; 'I' for Inactive)
    1  A    between atoms: C_7  and  C_11
    2  A    between atoms: C_7  and  C_25
    3  A    between atoms: C_9  and  N_15
    4  A    between atoms: C_9  and  C_27
                            x       y       z     vdW  Elec       q    Type
                         _______ _______ _______ _____ _____    ______ ____

>  <TORSDO>
F 4

$$$$
