=
 OpenBabel11052423193D

 27 31  0  0  0  0  0  0  0  0999 V2000
  162.5110  208.8990  148.9250 C   0  0  0  0  0  3  0  0  0  0  0  0
  161.8680  209.5570  151.2360 C   0  0  0  0  0  0  0  0  0  0  0  0
  160.8240  207.3220  150.8220 N   0  0  0  0  0  0  0  0  0  0  0  0
  161.4520  208.9430  155.3790 C   0  0  0  0  0  3  0  0  0  0  0  0
  160.7020  207.5830  157.2610 N   0  0  0  0  0  1  0  0  0  0  0  0
  162.3320  210.5050  152.1630 C   0  0  0  0  0  3  0  0  0  0  0  0
  160.3820  206.8120  154.9670 C   0  0  0  0  0  3  0  0  0  0  0  0
  160.6790  203.9090  147.6460 F   0  0  0  0  0  0  0  0  0  0  0  0
  160.5230  207.0030  153.5900 C   0  0  0  0  0  3  0  0  0  0  0  0
  161.1700  205.1100  148.0350 C   0  0  0  0  0  0  0  0  0  0  0  0
  161.1270  208.1680  153.0890 C   0  0  0  0  0  0  0  0  0  0  0  0
  161.9620  209.8530  149.8370 N   0  0  0  0  0  0  0  0  0  0  0  0
  160.8450  207.7800  155.8600 C   0  0  0  0  0  0  0  0  0  0  0  0
  161.5950  209.1420  154.0030 C   0  0  0  0  0  0  0  0  0  0  0  0
  162.1590  207.6180  148.8240 C   0  0  0  0  0  0  0  0  0  0  0  0
  161.2850  208.3620  151.6980 C   0  0  0  0  0  0  0  0  0  0  0  0
  160.6820  205.7260  149.1870 C   0  0  0  0  0  3  0  0  0  0  0  0
  162.2010  210.3010  153.5330 C   0  0  0  0  0  3  0  0  0  0  0  0
  162.1980  205.7100  147.3130 C   0  0  0  0  0  3  0  0  0  0  0  0
  162.6780  206.9590  147.7020 C   0  0  0  0  0  3  0  0  0  0  0  0
  161.1870  206.9570  149.6250 C   0  0  0  0  0  0  0  0  0  0  0  0
  161.2740  213.8140  148.4300 C   0  0  0  0  0  3  0  0  0  0  0  0
  161.7140  211.1920  149.3500 C   0  0  0  0  0  0  0  0  0  0  0  0
  162.4210  211.6920  148.2430 C   0  0  0  0  0  3  0  0  0  0  0  0
  162.2010  212.9940  147.7840 C   0  0  0  0  0  3  0  0  0  0  0  0
  160.5700  213.3350  149.5370 C   0  0  0  0  0  3  0  0  0  0  0  0
  160.7910  212.0340  149.9960 C   0  0  0  0  0  3  0  0  0  0  0  0
  1 12  1  0  0  0  0
  2 16  2  0  0  0  0
  2  6  1  0  0  0  0
  3 16  1  0  0  0  0
  4 13  1  0  0  0  0
  6 18  2  0  0  0  0
  7 13  2  0  0  0  0
  8 10  1  0  0  0  0
  9  7  1  0  0  0  0
 10 17  2  0  0  0  0
 11  9  2  0  0  0  0
 11 14  1  0  0  0  0
 12  2  1  0  0  0  0
 13  5  1  0  0  0  0
 14  4  2  0  0  0  0
 15  1  2  0  0  0  0
 15 21  1  0  0  0  0
 16 11  1  0  0  0  0
 17 21  1  0  0  0  0
 18 14  1  0  0  0  0
 19 20  2  0  0  0  0
 19 10  1  0  0  0  0
 20 15  1  0  0  0  0
 21  3  2  0  0  0  0
 22 26  1  0  0  0  0
 23 12  1  0  0  0  0
 23 27  1  0  0  0  0
 24 23  2  0  0  0  0
 25 24  1  0  0  0  0
 25 22  2  0  0  0  0
 26 27  2  0  0  0  0
M  END
>  <MODEL>
1

>  <REMARK>
 VINA RESULT:      -7.4      0.000      0.000
  Name = 
  1 active torsions:
  status: ('A' for Active; 'I' for Inactive)
    1  A    between atoms: C_9  and  N_15
                            x       y       z     vdW  Elec       q    Type
                         _______ _______ _______ _____ _____    ______ ____

>  <TORSDO>
F 1

$$$$
=
 OpenBabel11052423193D

 27 31  0  0  0  0  0  0  0  0999 V2000
  161.6450  207.4040  153.6040 C   0  0  0  0  0  3  0  0  0  0  0  0
  161.5990  208.3820  151.3180 C   0  0  0  0  0  0  0  0  0  0  0  0
  160.3330  209.9630  152.7870 N   0  0  0  0  0  0  0  0  0  0  0  0
  162.1070  211.4660  148.4990 C   0  0  0  0  0  3  0  0  0  0  0  0
  161.7160  213.7610  147.7670 N   0  0  0  0  0  1  0  0  0  0  0  0
  162.3300  208.1750  150.1360 C   0  0  0  0  0  3  0  0  0  0  0  0
  160.8240  212.9690  149.8960 C   0  0  0  0  0  3  0  0  0  0  0  0
  159.2210  210.6680  157.2610 F   0  0  0  0  0  0  0  0  0  0  0  0
  160.6560  211.9540  150.8410 C   0  0  0  0  0  3  0  0  0  0  0  0
  159.8720  209.9290  156.3310 C   0  0  0  0  0  0  0  0  0  0  0  0
  161.2090  210.6810  150.6270 C   0  0  0  0  0  0  0  0  0  0  0  0
  161.3880  207.2760  152.2040 N   0  0  0  0  0  0  0  0  0  0  0  0
  161.5470  212.7260  148.7270 C   0  0  0  0  0  0  0  0  0  0  0  0
  161.9420  210.4450  149.4400 C   0  0  0  0  0  0  0  0  0  0  0  0
  161.1900  208.3720  154.3990 C   0  0  0  0  0  0  0  0  0  0  0  0
  161.0560  209.6530  151.5850 C   0  0  0  0  0  0  0  0  0  0  0  0
  159.7070  210.2060  154.9750 C   0  0  0  0  0  3  0  0  0  0  0  0
  162.5040  209.1960  149.2060 C   0  0  0  0  0  3  0  0  0  0  0  0
  160.7450  208.9200  156.7290 C   0  0  0  0  0  3  0  0  0  0  0  0
  161.3890  208.1440  155.7670 C   0  0  0  0  0  3  0  0  0  0  0  0
  160.3850  209.4720  153.9920 C   0  0  0  0  0  0  0  0  0  0  0  0
  160.6800  203.3720  150.6570 C   0  0  0  0  0  3  0  0  0  0  0  0
  161.1300  205.9530  151.6810 C   0  0  0  0  0  0  0  0  0  0  0  0
  161.2090  204.8260  152.5170 C   0  0  0  0  0  3  0  0  0  0  0  0
  160.9820  203.5430  152.0090 C   0  0  0  0  0  3  0  0  0  0  0  0
  160.6070  204.4800  149.8110 C   0  0  0  0  0  3  0  0  0  0  0  0
  160.8340  205.7620  150.3180 C   0  0  0  0  0  3  0  0  0  0  0  0
  1 15  2  0  0  0  0
  2 16  1  0  0  0  0
  2 12  1  0  0  0  0
  3 21  2  0  0  0  0
  4 13  2  0  0  0  0
  4 14  1  0  0  0  0
  5 13  1  0  0  0  0
  6  2  2  0  0  0  0
  7  9  2  0  0  0  0
 10 19  1  0  0  0  0
 10  8  1  0  0  0  0
 11  9  1  0  0  0  0
 11 16  2  0  0  0  0
 12  1  1  0  0  0  0
 13  7  1  0  0  0  0
 14 11  1  0  0  0  0
 15 20  1  0  0  0  0
 16  3  1  0  0  0  0
 17 10  2  0  0  0  0
 18 14  2  0  0  0  0
 18  6  1  0  0  0  0
 20 19  2  0  0  0  0
 21 15  1  0  0  0  0
 21 17  1  0  0  0  0
 22 25  1  0  0  0  0
 23 12  1  0  0  0  0
 23 24  1  0  0  0  0
 25 24  2  0  0  0  0
 26 27  1  0  0  0  0
 26 22  2  0  0  0  0
 27 23  2  0  0  0  0
M  END
>  <MODEL>
2

>  <REMARK>
 VINA RESULT:      -7.2      2.933      7.275
  Name = 
  1 active torsions:
  status: ('A' for Active; 'I' for Inactive)
    1  A    between atoms: C_9  and  N_15
                            x       y       z     vdW  Elec       q    Type
                         _______ _______ _______ _____ _____    ______ ____

>  <TORSDO>
F 1

$$$$
=
 OpenBabel11052423193D

 27 31  0  0  0  0  0  0  0  0999 V2000
  162.1480  209.0000  152.1220 C   0  0  0  0  0  3  0  0  0  0  0  0
  161.3850  206.6370  152.0000 C   0  0  0  0  0  0  0  0  0  0  0  0
  161.0450  207.6060  149.7190 N   0  0  0  0  0  0  0  0  0  0  0  0
  161.2550  202.7720  150.3360 C   0  0  0  0  0  3  0  0  0  0  0  0
  160.9820  201.2950  148.4130 N   0  0  0  0  0  1  0  0  0  0  0  0
  161.5650  205.4940  152.7970 C   0  0  0  0  0  3  0  0  0  0  0  0
  160.8600  203.7180  148.1440 C   0  0  0  0  0  3  0  0  0  0  0  0
  161.8570  211.4850  147.2600 F   0  0  0  0  0  0  0  0  0  0  0  0
  160.9090  205.0050  148.6850 C   0  0  0  0  0  3  0  0  0  0  0  0
  161.9770  210.8060  148.4250 C   0  0  0  0  0  0  0  0  0  0  0  0
  161.1290  205.1930  150.0600 C   0  0  0  0  0  0  0  0  0  0  0  0
  161.3580  207.9230  152.6300 N   0  0  0  0  0  0  0  0  0  0  0  0
  161.0320  202.6030  148.9670 C   0  0  0  0  0  0  0  0  0  0  0  0
  161.3040  204.0570  150.8850 C   0  0  0  0  0  0  0  0  0  0  0  0
  162.1910  209.4110  150.8560 C   0  0  0  0  0  0  0  0  0  0  0  0
  161.1940  206.4920  150.6120 C   0  0  0  0  0  0  0  0  0  0  0  0
  161.3520  209.5700  148.5830 C   0  0  0  0  0  3  0  0  0  0  0  0
  161.5290  204.2150  152.2470 C   0  0  0  0  0  3  0  0  0  0  0  0
  162.7650  211.3170  149.4530 C   0  0  0  0  0  3  0  0  0  0  0  0
  162.8600  210.6270  150.6600 C   0  0  0  0  0  3  0  0  0  0  0  0
  161.4760  208.8340  149.7690 C   0  0  0  0  0  0  0  0  0  0  0  0
  159.5060  208.4590  156.4280 C   0  0  0  0  0  3  0  0  0  0  0  0
  160.7130  208.1010  153.9120 C   0  0  0  0  0  0  0  0  0  0  0  0
  160.3600  209.3840  154.3630 C   0  0  0  0  0  3  0  0  0  0  0  0
  159.7570  209.5630  155.6110 C   0  0  0  0  0  3  0  0  0  0  0  0
  159.8600  207.1770  155.9990 C   0  0  0  0  0  3  0  0  0  0  0  0
  160.4620  207.0000  154.7510 C   0  0  0  0  0  3  0  0  0  0  0  0
  1 12  1  0  0  0  0
  2 12  1  0  0  0  0
  2  6  1  0  0  0  0
  3 21  2  0  0  0  0
  3 16  1  0  0  0  0
  4 14  1  0  0  0  0
  5 13  1  0  0  0  0
  7  9  2  0  0  0  0
  7 13  1  0  0  0  0
  8 10  1  0  0  0  0
  9 11  1  0  0  0  0
 10 17  2  0  0  0  0
 10 19  1  0  0  0  0
 11 16  1  0  0  0  0
 11 14  2  0  0  0  0
 12 23  1  0  0  0  0
 13  4  2  0  0  0  0
 14 18  1  0  0  0  0
 15  1  2  0  0  0  0
 16  2  2  0  0  0  0
 17 21  1  0  0  0  0
 18  6  2  0  0  0  0
 19 20  2  0  0  0  0
 20 15  1  0  0  0  0
 21 15  1  0  0  0  0
 23 24  2  0  0  0  0
 23 27  1  0  0  0  0
 24 25  1  0  0  0  0
 25 22  2  0  0  0  0
 26 22  1  0  0  0  0
 27 26  2  0  0  0  0
M  END
>  <MODEL>
3

>  <REMARK>
 VINA RESULT:      -7.1      2.526      6.253
  Name = 
  1 active torsions:
  status: ('A' for Active; 'I' for Inactive)
    1  A    between atoms: C_9  and  N_15
                            x       y       z     vdW  Elec       q    Type
                         _______ _______ _______ _____ _____    ______ ____

>  <TORSDO>
F 1

$$$$
=
 OpenBabel11052423193D

 27 31  0  0  0  0  0  0  0  0999 V2000
  160.4890  209.0660  152.0930 C   0  0  0  0  0  3  0  0  0  0  0  0
  160.9850  207.2370  150.4830 C   0  0  0  0  0  0  0  0  0  0  0  0
  161.5890  206.3650  152.7480 N   0  0  0  0  0  0  0  0  0  0  0  0
  160.7900  203.2830  149.0520 C   0  0  0  0  0  3  0  0  0  0  0  0
  161.0250  200.8800  149.4090 N   0  0  0  0  0  1  0  0  0  0  0  0
  160.6220  206.9600  149.1530 C   0  0  0  0  0  3  0  0  0  0  0  0
  161.4400  202.4520  151.2300 C   0  0  0  0  0  3  0  0  0  0  0  0
  161.3940  207.5250  157.2610 F   0  0  0  0  0  0  0  0  0  0  0  0
  161.5000  203.7600  151.7160 C   0  0  0  0  0  3  0  0  0  0  0  0
  161.1180  207.8350  155.9720 C   0  0  0  0  0  0  0  0  0  0  0  0
  161.2090  204.8480  150.8760 C   0  0  0  0  0  0  0  0  0  0  0  0
  161.1150  208.6030  150.8940 N   0  0  0  0  0  0  0  0  0  0  0  0
  161.0860  202.2130  149.9010 C   0  0  0  0  0  0  0  0  0  0  0  0
  160.8490  204.5950  149.5310 C   0  0  0  0  0  0  0  0  0  0  0  0
  160.5800  208.4970  153.2940 C   0  0  0  0  0  0  0  0  0  0  0  0
  161.2540  206.1730  151.3640 C   0  0  0  0  0  0  0  0  0  0  0  0
  161.5860  207.0230  154.9400 C   0  0  0  0  0  3  0  0  0  0  0  0
  160.5510  205.6530  148.6810 C   0  0  0  0  0  3  0  0  0  0  0  0
  160.3240  208.9400  155.6750 C   0  0  0  0  0  3  0  0  0  0  0  0
  160.0690  209.2700  154.3450 C   0  0  0  0  0  3  0  0  0  0  0  0
  161.2980  207.3070  153.5980 C   0  0  0  0  0  0  0  0  0  0  0  0
  162.7480  211.5140  148.2490 C   0  0  0  0  0  3  0  0  0  0  0  0
  161.6860  209.5890  150.0030 C   0  0  0  0  0  0  0  0  0  0  0  0
  161.5860  210.9600  150.2970 C   0  0  0  0  0  3  0  0  0  0  0  0
  162.1170  211.9170  149.4270 C   0  0  0  0  0  3  0  0  0  0  0  0
  162.8470  210.1560  147.9370 C   0  0  0  0  0  3  0  0  0  0  0  0
  162.3160  209.2000  148.8070 C   0  0  0  0  0  3  0  0  0  0  0  0
  1 15  2  0  0  0  0
  2 12  1  0  0  0  0
  2 16  1  0  0  0  0
  3 21  2  0  0  0  0
  4 14  1  0  0  0  0
  4 13  2  0  0  0  0
  5 13  1  0  0  0  0
  6  2  2  0  0  0  0
  7  9  2  0  0  0  0
 10  8  1  0  0  0  0
 11 16  2  0  0  0  0
 11  9  1  0  0  0  0
 12  1  1  0  0  0  0
 13  7  1  0  0  0  0
 14 11  1  0  0  0  0
 15 21  1  0  0  0  0
 15 20  1  0  0  0  0
 16  3  1  0  0  0  0
 17 10  2  0  0  0  0
 18  6  1  0  0  0  0
 18 14  2  0  0  0  0
 19 10  1  0  0  0  0
 20 19  2  0  0  0  0
 21 17  1  0  0  0  0
 22 25  1  0  0  0  0
 23 24  1  0  0  0  0
 23 12  1  0  0  0  0
 25 24  2  0  0  0  0
 26 22  2  0  0  0  0
 26 27  1  0  0  0  0
 27 23  2  0  0  0  0
M  END
>  <MODEL>
4

>  <REMARK>
 VINA RESULT:      -6.9      2.880      5.772
  Name = 
  1 active torsions:
  status: ('A' for Active; 'I' for Inactive)
    1  A    between atoms: C_9  and  N_15
                            x       y       z     vdW  Elec       q    Type
                         _______ _______ _______ _____ _____    ______ ____

>  <TORSDO>
F 1

$$$$
=
 OpenBabel11052423193D

 27 31  0  0  0  0  0  0  0  0999 V2000
  161.4310  208.5750  153.5220 C   0  0  0  0  0  3  0  0  0  0  0  0
  161.5030  209.3680  151.1670 C   0  0  0  0  0  0  0  0  0  0  0  0
  160.0680  210.9940  152.4140 N   0  0  0  0  0  0  0  0  0  0  0  0
  162.0720  212.2440  148.1460 C   0  0  0  0  0  3  0  0  0  0  0  0
  161.6330  214.4530  147.2060 N   0  0  0  0  0  1  0  0  0  0  0  0
  162.3240  209.1060  150.0560 C   0  0  0  0  0  3  0  0  0  0  0  0
  160.6290  213.7860  149.3280 C   0  0  0  0  0  3  0  0  0  0  0  0
  158.6140  211.9900  156.7320 F   0  0  0  0  0  0  0  0  0  0  0  0
  160.4400  212.8410  150.3390 C   0  0  0  0  0  3  0  0  0  0  0  0
  159.3610  211.2130  155.9110 C   0  0  0  0  0  0  0  0  0  0  0  0
  161.0620  211.5840  150.2660 C   0  0  0  0  0  0  0  0  0  0  0  0
  161.2800  208.3250  152.1230 N   0  0  0  0  0  0  0  0  0  0  0  0
  161.4430  213.4890  148.2330 C   0  0  0  0  0  0  0  0  0  0  0  0
  161.8870  211.2930  149.1540 C   0  0  0  0  0  0  0  0  0  0  0  0
  160.8790  209.5780  154.2040 C   0  0  0  0  0  0  0  0  0  0  0  0
  160.8870  210.6280  151.2920 C   0  0  0  0  0  0  0  0  0  0  0  0
  159.2800  211.3760  154.5290 C   0  0  0  0  0  3  0  0  0  0  0  0
  162.5180  210.0590  149.0600 C   0  0  0  0  0  3  0  0  0  0  0  0
  160.2480  210.2830  156.4470 C   0  0  0  0  0  3  0  0  0  0  0  0
  160.9910  209.4670  155.5960 C   0  0  0  0  0  3  0  0  0  0  0  0
  160.0570  210.6020  153.6560 C   0  0  0  0  0  0  0  0  0  0  0  0
  160.8540  204.2840  150.8480 C   0  0  0  0  0  3  0  0  0  0  0  0
  161.1170  206.9540  151.6930 C   0  0  0  0  0  0  0  0  0  0  0  0
  161.3340  205.8940  152.5890 C   0  0  0  0  0  3  0  0  0  0  0  0
  161.2000  204.5660  152.1710 C   0  0  0  0  0  3  0  0  0  0  0  0
  160.6450  205.3260  149.9420 C   0  0  0  0  0  3  0  0  0  0  0  0
  160.7790  206.6530  150.3610 C   0  0  0  0  0  3  0  0  0  0  0  0
  1 15  2  0  0  0  0
  2 16  1  0  0  0  0
  2 12  1  0  0  0  0
  3 21  2  0  0  0  0
  4 13  2  0  0  0  0
  4 14  1  0  0  0  0
  5 13  1  0  0  0  0
  6  2  2  0  0  0  0
  7  9  2  0  0  0  0
 10 19  1  0  0  0  0
 10  8  1  0  0  0  0
 11  9  1  0  0  0  0
 11 16  2  0  0  0  0
 12  1  1  0  0  0  0
 13  7  1  0  0  0  0
 14 11  1  0  0  0  0
 15 20  1  0  0  0  0
 16  3  1  0  0  0  0
 17 10  2  0  0  0  0
 18 14  2  0  0  0  0
 18  6  1  0  0  0  0
 20 19  2  0  0  0  0
 21 15  1  0  0  0  0
 21 17  1  0  0  0  0
 22 25  1  0  0  0  0
 23 12  1  0  0  0  0
 23 24  1  0  0  0  0
 25 24  2  0  0  0  0
 26 27  1  0  0  0  0
 26 22  2  0  0  0  0
 27 23  2  0  0  0  0
M  END
>  <MODEL>
5

>  <REMARK>
 VINA RESULT:      -6.6      3.060      7.396
  Name = 
  1 active torsions:
  status: ('A' for Active; 'I' for Inactive)
    1  A    between atoms: C_9  and  N_15
                            x       y       z     vdW  Elec       q    Type
                         _______ _______ _______ _____ _____    ______ ____

>  <TORSDO>
F 1

$$$$
=
 OpenBabel11052423193D

 27 31  0  0  0  0  0  0  0  0999 V2000
  160.8810  213.4490  138.6220 C   0  0  0  0  0  3  0  0  0  0  0  0
  160.3640  212.8750  140.9860 C   0  0  0  0  0  0  0  0  0  0  0  0
  162.8580  212.9480  140.8070 N   0  0  0  0  0  0  0  0  0  0  0  0
  160.6870  213.3250  145.1580 C   0  0  0  0  0  3  0  0  0  0  0  0
  162.0460  213.5420  147.1730 N   0  0  0  0  0  1  0  0  0  0  0  0
  159.2220  212.9580  141.8000 C   0  0  0  0  0  3  0  0  0  0  0  0
  163.1000  213.3280  144.9820 C   0  0  0  0  0  3  0  0  0  0  0  0
  166.2570  214.0040  137.7930 F   0  0  0  0  0  0  0  0  0  0  0  0
  163.0030  213.1860  143.5960 C   0  0  0  0  0  3  0  0  0  0  0  0
  164.9320  213.9240  138.0640 C   0  0  0  0  0  0  0  0  0  0  0  0
  161.7470  213.1090  142.9720 C   0  0  0  0  0  0  0  0  0  0  0  0
  160.1980  212.6400  139.5820 N   0  0  0  0  0  0  0  0  0  0  0  0
  161.9440  213.3970  145.7620 C   0  0  0  0  0  0  0  0  0  0  0  0
  160.5820  213.1820  143.7720 C   0  0  0  0  0  0  0  0  0  0  0  0
  162.1840  213.7240  138.6140 C   0  0  0  0  0  0  0  0  0  0  0  0
  161.6410  212.9800  141.5690 C   0  0  0  0  0  0  0  0  0  0  0  0
  164.4960  213.3580  139.2610 C   0  0  0  0  0  3  0  0  0  0  0  0
  159.3270  213.1140  143.1790 C   0  0  0  0  0  3  0  0  0  0  0  0
  164.0040  214.4530  137.1710 C   0  0  0  0  0  3  0  0  0  0  0  0
  162.6420  214.3420  137.4430 C   0  0  0  0  0  3  0  0  0  0  0  0
  163.1330  213.2830  139.5790 C   0  0  0  0  0  0  0  0  0  0  0  0
  157.2110  209.9760  138.1250 C   0  0  0  0  0  3  0  0  0  0  0  0
  159.1740  211.7370  139.1030 C   0  0  0  0  0  0  0  0  0  0  0  0
  159.3510  210.3460  139.1920 C   0  0  0  0  0  3  0  0  0  0  0  0
  158.3740  209.4700  138.7090 C   0  0  0  0  0  3  0  0  0  0  0  0
  157.0250  211.3560  138.0200 C   0  0  0  0  0  3  0  0  0  0  0  0
  158.0020  212.2310  138.5030 C   0  0  0  0  0  3  0  0  0  0  0  0
  1 12  1  0  0  0  0
  2 16  2  0  0  0  0
  2  6  1  0  0  0  0
  3 16  1  0  0  0  0
  4 13  1  0  0  0  0
  6 18  2  0  0  0  0
  7 13  2  0  0  0  0
  8 10  1  0  0  0  0
  9  7  1  0  0  0  0
 10 17  2  0  0  0  0
 11  9  2  0  0  0  0
 11 14  1  0  0  0  0
 12  2  1  0  0  0  0
 13  5  1  0  0  0  0
 14  4  2  0  0  0  0
 15  1  2  0  0  0  0
 15 21  1  0  0  0  0
 16 11  1  0  0  0  0
 17 21  1  0  0  0  0
 18 14  1  0  0  0  0
 19 20  2  0  0  0  0
 19 10  1  0  0  0  0
 20 15  1  0  0  0  0
 21  3  2  0  0  0  0
 22 25  1  0  0  0  0
 23 24  1  0  0  0  0
 23 12  1  0  0  0  0
 25 24  2  0  0  0  0
 26 22  2  0  0  0  0
 26 27  1  0  0  0  0
 27 23  2  0  0  0  0
M  END
>  <MODEL>
6

>  <REMARK>
 VINA RESULT:      -5.5      8.574     11.822
  Name = 
  1 active torsions:
  status: ('A' for Active; 'I' for Inactive)
    1  A    between atoms: C_9  and  N_15
                            x       y       z     vdW  Elec       q    Type
                         _______ _______ _______ _____ _____    ______ ____

>  <TORSDO>
F 1

$$$$
=
 OpenBabel11052423193D

 27 31  0  0  0  0  0  0  0  0999 V2000
  160.4580  206.9040  151.7990 C   0  0  0  0  0  3  0  0  0  0  0  0
  160.9690  209.3350  151.6800 C   0  0  0  0  0  0  0  0  0  0  0  0
  162.1010  208.2780  149.7150 N   0  0  0  0  0  0  0  0  0  0  0  0
  161.2070  213.0740  149.7610 C   0  0  0  0  0  3  0  0  0  0  0  0
  161.9080  214.4530  147.8740 N   0  0  0  0  0  1  0  0  0  0  0  0
  160.4330  210.4920  152.2700 C   0  0  0  0  0  3  0  0  0  0  0  0
  162.3600  212.0540  147.8940 C   0  0  0  0  0  3  0  0  0  0  0  0
  162.5020  204.1840  147.5190 F   0  0  0  0  0  0  0  0  0  0  0  0
  162.2790  210.8070  148.5190 C   0  0  0  0  0  3  0  0  0  0  0  0
  161.9560  204.9120  148.5220 C   0  0  0  0  0  0  0  0  0  0  0  0
  161.6640  210.6770  149.7750 C   0  0  0  0  0  0  0  0  0  0  0  0
  160.9340  208.1040  152.4130 N   0  0  0  0  0  0  0  0  0  0  0  0
  161.8250  213.1850  148.5140 C   0  0  0  0  0  0  0  0  0  0  0  0
  161.1230  211.8300  150.3940 C   0  0  0  0  0  0  0  0  0  0  0  0
  160.8540  206.4140  150.6250 C   0  0  0  0  0  0  0  0  0  0  0  0
  161.5660  209.4170  150.4080 C   0  0  0  0  0  0  0  0  0  0  0  0
  162.3690  206.2260  148.7380 C   0  0  0  0  0  3  0  0  0  0  0  0
  160.5040  211.7270  151.6340 C   0  0  0  0  0  3  0  0  0  0  0  0
  160.9460  204.3670  149.3100 C   0  0  0  0  0  3  0  0  0  0  0  0
  160.4090  205.1120  150.3590 C   0  0  0  0  0  3  0  0  0  0  0  0
  161.8060  207.0110  149.7540 C   0  0  0  0  0  0  0  0  0  0  0  0
  161.5580  208.0800  156.6260 C   0  0  0  0  0  3  0  0  0  0  0  0
  161.1630  208.0900  153.8410 C   0  0  0  0  0  0  0  0  0  0  0  0
  160.7770  206.9830  154.6160 C   0  0  0  0  0  3  0  0  0  0  0  0
  160.9770  206.9760  155.9990 C   0  0  0  0  0  3  0  0  0  0  0  0
  161.9380  209.1920  155.8710 C   0  0  0  0  0  3  0  0  0  0  0  0
  161.7390  209.1990  154.4880 C   0  0  0  0  0  3  0  0  0  0  0  0
  1 12  1  0  0  0  0
  2  6  1  0  0  0  0
  2 12  1  0  0  0  0
  3 21  2  0  0  0  0
  3 16  1  0  0  0  0
  4 14  1  0  0  0  0
  5 13  1  0  0  0  0
  7 13  1  0  0  0  0
  7  9  2  0  0  0  0
  8 10  1  0  0  0  0
  9 11  1  0  0  0  0
 10 17  2  0  0  0  0
 10 19  1  0  0  0  0
 11 14  2  0  0  0  0
 11 16  1  0  0  0  0
 12 23  1  0  0  0  0
 13  4  2  0  0  0  0
 14 18  1  0  0  0  0
 15  1  2  0  0  0  0
 16  2  2  0  0  0  0
 17 21  1  0  0  0  0
 18  6  2  0  0  0  0
 19 20  2  0  0  0  0
 20 15  1  0  0  0  0
 21 15  1  0  0  0  0
 23 27  2  0  0  0  0
 23 24  1  0  0  0  0
 24 25  2  0  0  0  0
 25 22  1  0  0  0  0
 26 22  2  0  0  0  0
 27 26  1  0  0  0  0
M  END
>  <MODEL>
7

>  <REMARK>
 VINA RESULT:      -5.3      1.492      5.792
  Name = 
  1 active torsions:
  status: ('A' for Active; 'I' for Inactive)
    1  A    between atoms: C_9  and  N_15
                            x       y       z     vdW  Elec       q    Type
                         _______ _______ _______ _____ _____    ______ ____

>  <TORSDO>
F 1

$$$$
=
 OpenBabel11052423193D

 27 31  0  0  0  0  0  0  0  0999 V2000
  162.3870  209.5840  150.9560 C   0  0  0  0  0  3  0  0  0  0  0  0
  161.6960  207.2350  150.5220 C   0  0  0  0  0  0  0  0  0  0  0  0
  161.1540  208.5240  148.4470 N   0  0  0  0  0  0  0  0  0  0  0  0
  161.5690  203.6660  148.2940 C   0  0  0  0  0  3  0  0  0  0  0  0
  161.2030  202.4870  146.1890 N   0  0  0  0  0  1  0  0  0  0  0  0
  161.9720  205.9930  151.1190 C   0  0  0  0  0  3  0  0  0  0  0  0
  160.9810  204.9150  146.3070 C   0  0  0  0  0  3  0  0  0  0  0  0
  161.6520  212.7620  146.5670 F   0  0  0  0  0  0  0  0  0  0  0  0
  161.0280  206.1050  147.0360 C   0  0  0  0  0  3  0  0  0  0  0  0
  161.8810  211.9200  147.6030 C   0  0  0  0  0  0  0  0  0  0  0  0
  161.3430  206.0920  148.4040 C   0  0  0  0  0  0  0  0  0  0  0  0
  161.6730  208.4080  151.3440 N   0  0  0  0  0  0  0  0  0  0  0  0
  161.2510  203.6970  146.9340 C   0  0  0  0  0  0  0  0  0  0  0  0
  161.6170  204.8530  149.0300 C   0  0  0  0  0  0  0  0  0  0  0  0
  162.3210  210.1840  149.7680 C   0  0  0  0  0  0  0  0  0  0  0  0
  161.4060  207.2940  149.1450 C   0  0  0  0  0  0  0  0  0  0  0  0
  161.3100  210.6480  147.6100 C   0  0  0  0  0  3  0  0  0  0  0  0
  161.9370  204.8130  150.3820 C   0  0  0  0  0  3  0  0  0  0  0  0
  162.7260  212.3040  148.6410 C   0  0  0  0  0  3  0  0  0  0  0  0
  162.9330  211.4430  149.7180 C   0  0  0  0  0  3  0  0  0  0  0  0
  161.5470  209.7470  148.6570 C   0  0  0  0  0  0  0  0  0  0  0  0
  159.9970  208.2540  155.2560 C   0  0  0  0  0  3  0  0  0  0  0  0
  161.1200  208.3610  152.6790 C   0  0  0  0  0  0  0  0  0  0  0  0
  161.0110  207.1390  153.3640 C   0  0  0  0  0  3  0  0  0  0  0  0
  160.4560  207.0850  154.6460 C   0  0  0  0  0  3  0  0  0  0  0  0
  160.0880  209.4750  154.5850 C   0  0  0  0  0  3  0  0  0  0  0  0
  160.6430  209.5280  153.3040 C   0  0  0  0  0  3  0  0  0  0  0  0
  1 12  1  0  0  0  0
  2  6  1  0  0  0  0
  2 12  1  0  0  0  0
  3 21  2  0  0  0  0
  3 16  1  0  0  0  0
  4 14  1  0  0  0  0
  5 13  1  0  0  0  0
  7 13  1  0  0  0  0
  7  9  2  0  0  0  0
  8 10  1  0  0  0  0
  9 11  1  0  0  0  0
 10 17  2  0  0  0  0
 10 19  1  0  0  0  0
 11 14  2  0  0  0  0
 11 16  1  0  0  0  0
 12 23  1  0  0  0  0
 13  4  2  0  0  0  0
 14 18  1  0  0  0  0
 15  1  2  0  0  0  0
 16  2  2  0  0  0  0
 17 21  1  0  0  0  0
 18  6  2  0  0  0  0
 19 20  2  0  0  0  0
 20 15  1  0  0  0  0
 21 15  1  0  0  0  0
 23 27  2  0  0  0  0
 23 24  1  0  0  0  0
 24 25  2  0  0  0  0
 25 22  1  0  0  0  0
 26 22  2  0  0  0  0
 27 26  1  0  0  0  0
M  END
>  <MODEL>
8

>  <REMARK>
 VINA RESULT:      -5.1      2.505      6.494
  Name = 
  1 active torsions:
  status: ('A' for Active; 'I' for Inactive)
    1  A    between atoms: C_9  and  N_15
                            x       y       z     vdW  Elec       q    Type
                         _______ _______ _______ _____ _____    ______ ____

>  <TORSDO>
F 1

$$$$
=
 OpenBabel11052423193D

 27 31  0  0  0  0  0  0  0  0999 V2000
  160.5020  210.4850  151.8870 C   0  0  0  0  0  3  0  0  0  0  0  0
  161.1020  208.4630  150.5690 C   0  0  0  0  0  0  0  0  0  0  0  0
  161.5610  207.9050  152.9640 N   0  0  0  0  0  0  0  0  0  0  0  0
  161.0030  204.3520  149.6690 C   0  0  0  0  0  3  0  0  0  0  0  0
  161.2170  202.0210  150.3570 N   0  0  0  0  0  1  0  0  0  0  0  0
  160.8260  208.0080  149.2680 C   0  0  0  0  0  3  0  0  0  0  0  0
  161.5130  203.8240  151.9750 C   0  0  0  0  0  3  0  0  0  0  0  0
  161.0760  209.6530  157.2610 F   0  0  0  0  0  0  0  0  0  0  0  0
  161.5410  205.1860  152.2850 C   0  0  0  0  0  3  0  0  0  0  0  0
  160.8830  209.7860  155.9270 C   0  0  0  0  0  0  0  0  0  0  0  0
  161.3030  206.1490  151.2910 C   0  0  0  0  0  0  0  0  0  0  0  0
  161.2040  209.8730  150.8020 N   0  0  0  0  0  0  0  0  0  0  0  0
  161.2450  203.4080  150.6690 C   0  0  0  0  0  0  0  0  0  0  0  0
  161.0300  205.7170  149.9720 C   0  0  0  0  0  0  0  0  0  0  0  0
  160.5170  210.0820  153.1570 C   0  0  0  0  0  0  0  0  0  0  0  0
  161.3150  207.5280  151.6000 C   0  0  0  0  0  0  0  0  0  0  0  0
  161.4170  208.8490  155.0450 C   0  0  0  0  0  3  0  0  0  0  0  0
  160.7860  206.6490  148.9710 C   0  0  0  0  0  3  0  0  0  0  0  0
  160.1090  210.8340  155.4360 C   0  0  0  0  0  3  0  0  0  0  0  0
  159.9390  210.9830  154.0600 C   0  0  0  0  0  3  0  0  0  0  0  0
  161.2150  208.9490  153.6610 C   0  0  0  0  0  0  0  0  0  0  0  0
  163.0060  212.4100  147.8950 C   0  0  0  0  0  3  0  0  0  0  0  0
  161.8300  210.7370  149.8260 C   0  0  0  0  0  0  0  0  0  0  0  0
  161.4570  212.0880  149.7250 C   0  0  0  0  0  3  0  0  0  0  0  0
  162.0440  212.9210  148.7670 C   0  0  0  0  0  3  0  0  0  0  0  0
  163.3800  211.0670  147.9760 C   0  0  0  0  0  3  0  0  0  0  0  0
  162.7940  210.2350  148.9330 C   0  0  0  0  0  3  0  0  0  0  0  0
  1 15  2  0  0  0  0
  2 12  1  0  0  0  0
  2 16  1  0  0  0  0
  3 21  2  0  0  0  0
  4 14  1  0  0  0  0
  4 13  2  0  0  0  0
  5 13  1  0  0  0  0
  6  2  2  0  0  0  0
  7  9  2  0  0  0  0
 10  8  1  0  0  0  0
 11 16  2  0  0  0  0
 11  9  1  0  0  0  0
 12  1  1  0  0  0  0
 13  7  1  0  0  0  0
 14 11  1  0  0  0  0
 15 21  1  0  0  0  0
 15 20  1  0  0  0  0
 16  3  1  0  0  0  0
 17 10  2  0  0  0  0
 18  6  1  0  0  0  0
 18 14  2  0  0  0  0
 19 10  1  0  0  0  0
 20 19  2  0  0  0  0
 21 17  1  0  0  0  0
 22 26  2  0  0  0  0
 22 25  1  0  0  0  0
 23 12  1  0  0  0  0
 24 23  1  0  0  0  0
 25 24  2  0  0  0  0
 26 27  1  0  0  0  0
 27 23  2  0  0  0  0
M  END
>  <MODEL>
9

>  <REMARK>
 VINA RESULT:      -5.0      2.871      5.494
  Name = 
  1 active torsions:
  status: ('A' for Active; 'I' for Inactive)
    1  A    between atoms: C_9  and  N_15
                            x       y       z     vdW  Elec       q    Type
                         _______ _______ _______ _____ _____    ______ ____

>  <TORSDO>
F 1

$$$$
