=
 OpenBabel11062409333D

 34 36  0  0  1  0  0  0  0  0999 V2000
  160.9180  206.6800  150.4530 N   0  0  0  0  0  2  0  0  0  0  0  0
  162.8100  206.4130  151.7980 O   0  0  0  0  0  0  0  0  0  0  0  0
  161.7740  207.0800  151.5300 C   0  0  0  0  0  0  0  0  0  0  0  0
  160.6970  207.0130  154.1690 O   0  0  0  0  0  1  0  0  0  0  0  0
  160.2340  211.9460  154.2740 C   0  0  0  0  0  2  0  0  0  0  0  0
  161.2890  210.7500  152.3710 C   0  0  0  0  0  3  0  0  0  0  0  0
  160.9150  208.2500  153.5680 C   0  0  0  0  0  0  0  0  0  0  0  0
  161.7040  209.6020  151.6940 C   0  0  0  0  0  0  0  0  0  0  0  0
  161.4910  208.3270  152.2800 C   0  0  0  0  0  0  0  0  0  0  0  0
  160.0280  211.8070  155.7820 C   0  0  0  0  0  2  0  0  0  0  0  0
  159.2260  210.5500  156.1110 C   0  0  2  0  0  3  0  0  0  0  0  0
  160.7210  210.6750  153.6400 C   0  0  0  0  0  0  0  0  0  0  0  0
  159.9850  209.3060  155.6510 C   0  0  0  0  0  2  0  0  0  0  0  0
  160.5280  209.4170  154.2470 C   0  0  0  0  0  0  0  0  0  0  0  0
  162.3250  209.7820  150.4540 O   0  0  0  0  0  0  0  0  0  0  0  0
  162.0090  210.8600  149.5850 C   0  0  0  0  0  1  0  0  0  0  0  0
  157.9070  210.5930  155.4950 N   0  0  0  0  0  2  0  0  0  0  0  0
  157.1420  211.6190  156.1850 C   0  0  0  0  0  2  0  0  0  0  0  0
  156.6660  212.9490  154.1340 C   0  0  0  0  0  1  0  0  0  0  0  0
  156.0540  212.1560  155.2740 C   0  0  0  0  0  2  0  0  0  0  0  0
  161.7920  206.3890  147.7430 F   0  0  0  0  0  0  0  0  0  0  0  0
  160.6690  203.0170  149.8820 C   0  0  0  0  0  3  0  0  0  0  0  0
  161.4200  204.0410  147.8110 C   0  0  0  0  0  0  0  0  0  0  0  0
  160.9540  205.4190  149.7710 C   0  0  0  0  0  0  0  0  0  0  0  0
  161.0250  202.8880  148.5380 C   0  0  0  0  0  0  0  0  0  0  0  0
  160.6460  204.2680  150.4970 C   0  0  0  0  0  3  0  0  0  0  0  0
  161.3580  205.3010  148.4280 C   0  0  0  0  0  0  0  0  0  0  0  0
  160.8940  201.5430  147.9520 C   0  0  0  0  0  3  0  0  0  0  0  0
  161.5580  200.5590  148.3710 O   0  0  0  0  0  0  0  0  0  0  0  0
  161.9370  203.9710  146.4770 N   0  0  0  0  0  2  0  0  0  0  0  0
  161.0790  203.8480  145.3090 C   0  0  0  0  0  2  0  0  0  0  0  0
  161.5810  205.4960  143.6670 O   0  0  0  0  0  0  0  0  0  0  0  0
  160.9000  205.1820  144.6780 C   0  0  0  0  0  0  0  0  0  0  0  0
  160.0110  206.0960  145.2270 O   0  0  0  0  0  1  0  0  0  0  0  0
  1  3  1  0  0  0  0
  3  2  2  0  0  0  0
  3  9  1  0  0  0  0
  5 10  1  0  0  0  0
  6 12  1  0  0  0  0
  7  4  1  0  0  0  0
  7 14  1  0  0  0  0
  8  9  1  0  0  0  0
  8  6  2  0  0  0  0
  9  7  2  0  0  0  0
 10 11  1  0  0  0  0
 11 17  1  6  0  0  0
 12 14  2  0  0  0  0
 12  5  1  0  0  0  0
 13 11  1  0  0  0  0
 14 13  1  0  0  0  0
 15  8  1  0  0  0  0
 16 15  1  0  0  0  0
 17 18  1  0  0  0  0
 19 20  1  0  0  0  0
 20 18  1  0  0  0  0
 21 27  1  0  0  0  0
 22 26  1  0  0  0  0
 23 27  2  0  0  0  0
 23 25  1  0  0  0  0
 24  1  1  0  0  0  0
 24 26  2  0  0  0  0
 25 22  2  0  0  0  0
 27 24  1  0  0  0  0
 28 29  2  0  0  0  0
 28 25  1  0  0  0  0
 30 23  1  0  0  0  0
 31 30  1  0  0  0  0
 32 33  2  0  0  0  0
 33 34  1  0  0  0  0
 33 31  1  0  0  0  0
M  END
>  <MODEL>
1

>  <REMARK>
 VINA RESULT:      -8.6      0.000      0.000
  Name = 
  10 active torsions:
  status: ('A' for Active; 'I' for Inactive)
    1  A    between atoms: C_7  and  N_14
    2  A    between atoms: C_7  and  C_15
    3  A    between atoms: N_8  and  C_18
    4  A    between atoms: O_12  and  C_19
    5  A    between atoms: C_13  and  C_24
    6  A    between atoms: N_14  and  C_16
    7  A    between atoms: C_17  and  C_20
    8  A    between atoms: C_24  and  N_25
    9  A    between atoms: N_25  and  C_27
   10  A    between atoms: C_26  and  C_28
                            x       y       z     vdW  Elec       q    Type
                         _______ _______ _______ _____ _____    ______ ____

>  <TORSDO>
F 10

$$$$
=
 OpenBabel11062409333D

 34 36  0  0  1  0  0  0  0  0999 V2000
  161.3950  205.0360  150.4720 N   0  0  0  0  0  2  0  0  0  0  0  0
  159.9260  206.5950  149.5400 O   0  0  0  0  0  0  0  0  0  0  0  0
  160.8130  206.3430  150.4000 C   0  0  0  0  0  0  0  0  0  0  0  0
  160.5720  205.8750  153.2020 O   0  0  0  0  0  1  0  0  0  0  0  0
  161.8390  210.5490  154.2510 C   0  0  0  0  0  2  0  0  0  0  0  0
  161.8460  209.6580  151.9330 C   0  0  0  0  0  3  0  0  0  0  0  0
  161.0120  207.1230  152.7690 C   0  0  0  0  0  0  0  0  0  0  0  0
  161.6420  208.6600  150.9790 C   0  0  0  0  0  0  0  0  0  0  0  0
  161.1890  207.3790  151.3900 C   0  0  0  0  0  0  0  0  0  0  0  0
  162.0360  210.0810  155.6920 C   0  0  0  0  0  2  0  0  0  0  0  0
  160.9870  209.0390  156.0760 C   0  0  2  0  0  3  0  0  0  0  0  0
  161.6710  209.4060  153.2910 C   0  0  0  0  0  0  0  0  0  0  0  0
  161.1210  207.8050  155.1860 C   0  0  0  0  0  2  0  0  0  0  0  0
  161.2480  208.1310  153.7170 C   0  0  0  0  0  0  0  0  0  0  0  0
  161.9090  208.9880  149.6460 O   0  0  0  0  0  0  0  0  0  0  0  0
  162.1190  210.3230  149.2100 C   0  0  0  0  0  1  0  0  0  0  0  0
  159.6420  209.5890  155.9770 N   0  0  0  0  0  2  0  0  0  0  0  0
  159.5370  210.6520  156.9640 C   0  0  0  0  0  2  0  0  0  0  0  0
  158.3000  211.5040  154.9780 C   0  0  0  0  0  1  0  0  0  0  0  0
  158.7850  211.8320  156.3780 C   0  0  0  0  0  2  0  0  0  0  0  0
  161.9240  205.4610  147.6920 F   0  0  0  0  0  0  0  0  0  0  0  0
  160.8650  201.6680  148.9960 C   0  0  0  0  0  3  0  0  0  0  0  0
  161.4250  203.1910  147.1870 C   0  0  0  0  0  0  0  0  0  0  0  0
  161.2760  204.0040  149.4840 C   0  0  0  0  0  0  0  0  0  0  0  0
  161.0510  201.8960  147.6300 C   0  0  0  0  0  0  0  0  0  0  0  0
  160.9880  202.7080  149.9150 C   0  0  0  0  0  3  0  0  0  0  0  0
  161.5110  204.2410  148.1170 C   0  0  0  0  0  0  0  0  0  0  0  0
  160.7730  200.7610  146.7340 C   0  0  0  0  0  3  0  0  0  0  0  0
  161.4940  199.7300  146.7090 O   0  0  0  0  0  0  0  0  0  0  0  0
  161.7750  203.4680  145.8270 N   0  0  0  0  0  2  0  0  0  0  0  0
  160.7860  203.8100  144.8160 C   0  0  0  0  0  2  0  0  0  0  0  0
  161.5910  205.6800  143.5840 O   0  0  0  0  0  0  0  0  0  0  0  0
  160.8590  205.2650  144.5190 C   0  0  0  0  0  0  0  0  0  0  0  0
  160.1490  206.1680  145.2990 O   0  0  0  0  0  1  0  0  0  0  0  0
  2  3  2  0  0  0  0
  3  1  1  0  0  0  0
  3  9  1  0  0  0  0
  5 10  1  0  0  0  0
  6 12  1  0  0  0  0
  7  4  1  0  0  0  0
  7 14  1  0  0  0  0
  8  9  1  0  0  0  0
  8  6  2  0  0  0  0
  9  7  2  0  0  0  0
 10 11  1  0  0  0  0
 11 17  1  6  0  0  0
 12 14  2  0  0  0  0
 12  5  1  0  0  0  0
 13 11  1  0  0  0  0
 14 13  1  0  0  0  0
 15  8  1  0  0  0  0
 16 15  1  0  0  0  0
 17 18  1  0  0  0  0
 19 20  1  0  0  0  0
 20 18  1  0  0  0  0
 21 27  1  0  0  0  0
 22 26  1  0  0  0  0
 23 25  1  0  0  0  0
 23 27  2  0  0  0  0
 24 26  2  0  0  0  0
 24  1  1  0  0  0  0
 25 22  2  0  0  0  0
 27 24  1  0  0  0  0
 28 25  1  0  0  0  0
 29 28  2  0  0  0  0
 30 23  1  0  0  0  0
 31 30  1  0  0  0  0
 32 33  2  0  0  0  0
 33 31  1  0  0  0  0
 33 34  1  0  0  0  0
M  END
>  <MODEL>
2

>  <REMARK>
 VINA RESULT:      -7.7      1.335      1.724
  Name = 
  10 active torsions:
  status: ('A' for Active; 'I' for Inactive)
    1  A    between atoms: C_7  and  N_14
    2  A    between atoms: C_7  and  C_15
    3  A    between atoms: N_8  and  C_18
    4  A    between atoms: O_12  and  C_19
    5  A    between atoms: C_13  and  C_24
    6  A    between atoms: N_14  and  C_16
    7  A    between atoms: C_17  and  C_20
    8  A    between atoms: C_24  and  N_25
    9  A    between atoms: N_25  and  C_27
   10  A    between atoms: C_26  and  C_28
                            x       y       z     vdW  Elec       q    Type
                         _______ _______ _______ _____ _____    ______ ____

>  <TORSDO>
F 10

$$$$
=
 OpenBabel11062409333D

 34 36  0  0  1  0  0  0  0  0999 V2000
  160.7700  206.9170  152.0280 N   0  0  0  0  0  2  0  0  0  0  0  0
  162.9360  206.0390  151.9780 O   0  0  0  0  0  0  0  0  0  0  0  0
  161.8320  206.1980  151.3880 C   0  0  0  0  0  0  0  0  0  0  0  0
  160.5910  203.6420  151.1590 O   0  0  0  0  0  1  0  0  0  0  0  0
  161.3850  203.5210  146.2690 C   0  0  0  0  0  2  0  0  0  0  0  0
  161.9520  205.4980  147.6590 C   0  0  0  0  0  3  0  0  0  0  0  0
  161.0310  204.2760  150.0000 C   0  0  0  0  0  0  0  0  0  0  0  0
  162.0460  206.1880  148.8690 C   0  0  0  0  0  0  0  0  0  0  0  0
  161.6090  205.5640  150.0670 C   0  0  0  0  0  0  0  0  0  0  0  0
  160.3930  202.3600  146.2240 C   0  0  0  0  0  2  0  0  0  0  0  0
  160.5390  201.4670  147.4550 C   0  0  2  0  0  3  0  0  0  0  0  0
  161.3840  204.2290  147.5930 C   0  0  0  0  0  0  0  0  0  0  0  0
  160.2320  202.2650  148.7220 C   0  0  0  0  0  2  0  0  0  0  0  0
  160.9200  203.6080  148.7700 C   0  0  0  0  0  0  0  0  0  0  0  0
  162.5690  207.4840  148.8260 O   0  0  0  0  0  0  0  0  0  0  0  0
  161.7600  208.6340  148.6270 C   0  0  0  0  0  1  0  0  0  0  0  0
  161.8750  200.8940  147.5310 N   0  0  0  0  0  2  0  0  0  0  0  0
  161.7680  199.4970  147.1400 C   0  0  0  0  0  2  0  0  0  0  0  0
  161.3150  197.9550  145.2390 C   0  0  0  0  0  1  0  0  0  0  0  0
  161.2640  199.3950  145.7120 C   0  0  0  0  0  2  0  0  0  0  0  0
  160.6740  209.7770  151.9610 F   0  0  0  0  0  0  0  0  0  0  0  0
  161.0710  207.8480  155.6110 C   0  0  0  0  0  3  0  0  0  0  0  0
  160.9510  209.9020  154.3200 C   0  0  0  0  0  0  0  0  0  0  0  0
  160.8920  207.7340  153.2000 C   0  0  0  0  0  0  0  0  0  0  0  0
  161.0980  209.2440  155.5680 C   0  0  0  0  0  0  0  0  0  0  0  0
  160.9560  207.1000  154.4410 C   0  0  0  0  0  3  0  0  0  0  0  0
  160.8720  209.1400  153.1420 C   0  0  0  0  0  0  0  0  0  0  0  0
  161.3510  209.9330  156.8440 C   0  0  0  0  0  3  0  0  0  0  0  0
  162.4850  210.3860  157.1530 O   0  0  0  0  0  0  0  0  0  0  0  0
  160.8220  211.3240  154.2090 N   0  0  0  0  0  2  0  0  0  0  0  0
  159.5430  212.0070  154.3190 C   0  0  0  0  0  2  0  0  0  0  0  0
  160.0770  212.8090  152.1430 O   0  0  0  0  0  0  0  0  0  0  0  0
  159.1850  212.6080  153.0070 C   0  0  0  0  0  0  0  0  0  0  0  0
  157.8730  212.9830  152.7500 O   0  0  0  0  0  1  0  0  0  0  0  0
  1 24  1  0  0  0  0
  3  2  2  0  0  0  0
  3  1  1  0  0  0  0
  5 12  1  0  0  0  0
  6  8  1  0  0  0  0
  7  9  1  0  0  0  0
  7  4  1  0  0  0  0
  8  9  2  0  0  0  0
  9  3  1  0  0  0  0
 10  5  1  0  0  0  0
 10 11  1  0  0  0  0
 11 17  1  1  0  0  0
 11 13  1  0  0  0  0
 12  6  2  0  0  0  0
 12 14  1  0  0  0  0
 13 14  1  0  0  0  0
 14  7  2  0  0  0  0
 15  8  1  0  0  0  0
 16 15  1  0  0  0  0
 18 17  1  0  0  0  0
 19 20  1  0  0  0  0
 20 18  1  0  0  0  0
 21 27  1  0  0  0  0
 23 25  2  0  0  0  0
 24 26  1  0  0  0  0
 25 22  1  0  0  0  0
 25 28  1  0  0  0  0
 26 22  2  0  0  0  0
 27 24  2  0  0  0  0
 27 23  1  0  0  0  0
 28 29  2  0  0  0  0
 30 31  1  0  0  0  0
 30 23  1  0  0  0  0
 32 33  2  0  0  0  0
 33 31  1  0  0  0  0
 34 33  1  0  0  0  0
M  END
>  <MODEL>
3

>  <REMARK>
 VINA RESULT:      -6.8      2.543      9.672
  Name = 
  10 active torsions:
  status: ('A' for Active; 'I' for Inactive)
    1  A    between atoms: C_7  and  N_14
    2  A    between atoms: C_7  and  C_15
    3  A    between atoms: N_8  and  C_18
    4  A    between atoms: O_12  and  C_19
    5  A    between atoms: C_13  and  C_24
    6  A    between atoms: N_14  and  C_16
    7  A    between atoms: C_17  and  C_20
    8  A    between atoms: C_24  and  N_25
    9  A    between atoms: N_25  and  C_27
   10  A    between atoms: C_26  and  C_28
                            x       y       z     vdW  Elec       q    Type
                         _______ _______ _______ _____ _____    ______ ____

>  <TORSDO>
F 10

$$$$
=
 OpenBabel11062409333D

 34 36  0  0  1  0  0  0  0  0999 V2000
  160.4190  209.3840  153.2110 N   0  0  0  0  0  2  0  0  0  0  0  0
  162.3790  210.0420  152.1200 O   0  0  0  0  0  0  0  0  0  0  0  0
  161.4510  209.1950  152.2350 C   0  0  0  0  0  0  0  0  0  0  0  0
  162.3120  209.2410  149.5170 O   0  0  0  0  0  1  0  0  0  0  0  0
  161.1190  204.4710  148.8950 C   0  0  0  0  0  2  0  0  0  0  0  0
  160.9380  205.6110  151.0940 C   0  0  0  0  0  3  0  0  0  0  0  0
  161.8700  208.0360  150.0580 C   0  0  0  0  0  0  0  0  0  0  0  0
  161.0370  206.7190  151.9370 C   0  0  0  0  0  0  0  0  0  0  0  0
  161.4790  207.9620  151.4140 C   0  0  0  0  0  0  0  0  0  0  0  0
  161.9380  204.5250  147.6070 C   0  0  0  0  0  2  0  0  0  0  0  0
  161.7720  205.8730  146.9080 C   0  0  2  0  0  3  0  0  0  0  0  0
  161.3220  205.6840  149.7570 C   0  0  0  0  0  0  0  0  0  0  0  0
  162.2840  206.9970  147.8060 C   0  0  0  0  0  2  0  0  0  0  0  0
  161.7900  206.9040  149.2300 C   0  0  0  0  0  0  0  0  0  0  0  0
  160.6920  206.5310  153.2790 O   0  0  0  0  0  0  0  0  0  0  0  0
  161.6030  206.0230  154.2430 C   0  0  0  0  0  1  0  0  0  0  0  0
  160.3800  206.1080  146.5480 N   0  0  0  0  0  2  0  0  0  0  0  0
  160.3210  206.2190  145.0990 C   0  0  0  0  0  2  0  0  0  0  0  0
  160.2460  203.7940  144.5390 C   0  0  0  0  0  1  0  0  0  0  0  0
  161.0710  205.0650  144.4600 C   0  0  0  0  0  2  0  0  0  0  0  0
  158.5540  211.3650  152.3210 F   0  0  0  0  0  0  0  0  0  0  0  0
  160.5320  211.9180  155.9250 C   0  0  0  0  0  3  0  0  0  0  0  0
  158.9930  212.7210  154.2260 C   0  0  0  0  0  0  0  0  0  0  0  0
  160.1540  210.5930  153.9340 C   0  0  0  0  0  0  0  0  0  0  0  0
  159.6770  212.9160  155.4530 C   0  0  0  0  0  0  0  0  0  0  0  0
  160.7580  210.7620  155.1800 C   0  0  0  0  0  3  0  0  0  0  0  0
  159.2550  211.5700  153.4650 C   0  0  0  0  0  0  0  0  0  0  0  0
  159.6060  214.1500  156.2540 C   0  0  0  0  0  3  0  0  0  0  0  0
  160.4400  214.4130  157.1600 O   0  0  0  0  0  0  0  0  0  0  0  0
  157.9930  213.6280  153.7480 N   0  0  0  0  0  2  0  0  0  0  0  0
  156.5910  213.2590  153.6280 C   0  0  0  0  0  2  0  0  0  0  0  0
  155.8640  213.8770  155.8080 O   0  0  0  0  0  1  0  0  0  0  0  0
  156.0390  212.9510  154.9740 C   0  0  0  0  0  0  0  0  0  0  0  0
  155.7540  211.6390  155.3240 O   0  0  0  0  0  0  0  0  0  0  0  0
  1 24  1  0  0  0  0
  2  3  2  0  0  0  0
  3  1  1  0  0  0  0
  4  7  1  0  0  0  0
  5 12  1  0  0  0  0
  6  8  1  0  0  0  0
  7  9  1  0  0  0  0
  8 15  1  0  0  0  0
  9  8  2  0  0  0  0
  9  3  1  0  0  0  0
 10  5  1  0  0  0  0
 11 17  1  1  0  0  0
 11 10  1  0  0  0  0
 11 13  1  0  0  0  0
 12  6  2  0  0  0  0
 13 14  1  0  0  0  0
 14 12  1  0  0  0  0
 14  7  2  0  0  0  0
 15 16  1  0  0  0  0
 18 17  1  0  0  0  0
 20 19  1  0  0  0  0
 20 18  1  0  0  0  0
 21 27  1  0  0  0  0
 23 25  2  0  0  0  0
 24 26  1  0  0  0  0
 25 22  1  0  0  0  0
 25 28  1  0  0  0  0
 26 22  2  0  0  0  0
 27 24  2  0  0  0  0
 27 23  1  0  0  0  0
 28 29  2  0  0  0  0
 30 23  1  0  0  0  0
 31 30  1  0  0  0  0
 31 33  1  0  0  0  0
 33 34  2  0  0  0  0
 33 32  1  0  0  0  0
M  END
>  <MODEL>
4

>  <REMARK>
 VINA RESULT:      -6.6      3.070      9.928
  Name = 
  10 active torsions:
  status: ('A' for Active; 'I' for Inactive)
    1  A    between atoms: C_7  and  N_14
    2  A    between atoms: C_7  and  C_15
    3  A    between atoms: N_8  and  C_18
    4  A    between atoms: O_12  and  C_19
    5  A    between atoms: C_13  and  C_24
    6  A    between atoms: N_14  and  C_16
    7  A    between atoms: C_17  and  C_20
    8  A    between atoms: C_24  and  N_25
    9  A    between atoms: N_25  and  C_27
   10  A    between atoms: C_26  and  C_28
                            x       y       z     vdW  Elec       q    Type
                         _______ _______ _______ _____ _____    ______ ____

>  <TORSDO>
F 10

$$$$
=
 OpenBabel11062409333D

 34 36  0  0  1  0  0  0  0  0999 V2000
  161.2500  207.7380  149.7220 N   0  0  0  0  0  2  0  0  0  0  0  0
  162.6980  206.9200  151.3630 O   0  0  0  0  0  0  0  0  0  0  0  0
  161.8370  207.7790  151.0290 C   0  0  0  0  0  0  0  0  0  0  0  0
  160.7670  207.2510  153.6170 O   0  0  0  0  0  1  0  0  0  0  0  0
  160.0810  212.0810  154.4890 C   0  0  0  0  0  2  0  0  0  0  0  0
  161.1880  211.2460  152.4290 C   0  0  0  0  0  3  0  0  0  0  0  0
  160.9280  208.5760  153.2190 C   0  0  0  0  0  0  0  0  0  0  0  0
  161.6540  210.2380  151.5840 C   0  0  0  0  0  0  0  0  0  0  0  0
  161.4990  208.8790  151.9620 C   0  0  0  0  0  0  0  0  0  0  0  0
  159.8820  211.7000  155.9550 C   0  0  0  0  0  2  0  0  0  0  0  0
  159.1380  210.3720  156.0790 C   0  0  2  0  0  3  0  0  0  0  0  0
  160.6250  210.9480  153.6670 C   0  0  0  0  0  0  0  0  0  0  0  0
  159.9520  209.2510  155.4340 C   0  0  0  0  0  2  0  0  0  0  0  0
  160.4890  209.6040  154.0690 C   0  0  0  0  0  0  0  0  0  0  0  0
  162.2650  210.6380  150.3910 O   0  0  0  0  0  0  0  0  0  0  0  0
  161.6480  211.5240  149.4690 C   0  0  0  0  0  1  0  0  0  0  0  0
  157.8180  210.4520  155.4680 N   0  0  0  0  0  2  0  0  0  0  0  0
  157.0440  211.4120  156.2390 C   0  0  0  0  0  2  0  0  0  0  0  0
  155.2590  210.1380  155.0600 C   0  0  0  0  0  1  0  0  0  0  0  0
  155.6130  211.4490  155.7340 C   0  0  0  0  0  2  0  0  0  0  0  0
  160.2890  205.1060  150.3070 F   0  0  0  0  0  0  0  0  0  0  0  0
  161.9060  205.8880  146.5680 C   0  0  0  0  0  3  0  0  0  0  0  0
  160.9410  204.3250  148.1570 C   0  0  0  0  0  0  0  0  0  0  0  0
  161.3320  206.6490  148.7940 C   0  0  0  0  0  0  0  0  0  0  0  0
  161.5040  204.5880  146.8820 C   0  0  0  0  0  0  0  0  0  0  0  0
  161.8090  206.9120  147.5090 C   0  0  0  0  0  3  0  0  0  0  0  0
  160.8810  205.3540  149.1120 C   0  0  0  0  0  0  0  0  0  0  0  0
  161.7670  203.5580  145.8630 C   0  0  0  0  0  3  0  0  0  0  0  0
  160.8940  203.1970  145.0300 O   0  0  0  0  0  0  0  0  0  0  0  0
  160.3740  203.0560  148.5020 N   0  0  0  0  0  2  0  0  0  0  0  0
  161.1840  201.8670  148.7180 C   0  0  0  0  0  2  0  0  0  0  0  0
  160.9480  200.2060  150.4060 O   0  0  0  0  0  0  0  0  0  0  0  0
  161.0600  201.4290  150.1330 C   0  0  0  0  0  0  0  0  0  0  0  0
  161.0280  202.3730  151.1510 O   0  0  0  0  0  1  0  0  0  0  0  0
  1  3  1  0  0  0  0
  3  2  2  0  0  0  0
  3  9  1  0  0  0  0
  5 10  1  0  0  0  0
  6 12  1  0  0  0  0
  7  4  1  0  0  0  0
  7 14  1  0  0  0  0
  8  9  1  0  0  0  0
  8  6  2  0  0  0  0
  9  7  2  0  0  0  0
 10 11  1  0  0  0  0
 11 17  1  6  0  0  0
 12 14  2  0  0  0  0
 12  5  1  0  0  0  0
 13 11  1  0  0  0  0
 14 13  1  0  0  0  0
 15  8  1  0  0  0  0
 16 15  1  0  0  0  0
 17 18  1  0  0  0  0
 19 20  1  0  0  0  0
 20 18  1  0  0  0  0
 22 25  2  0  0  0  0
 22 26  1  0  0  0  0
 23 30  1  0  0  0  0
 23 27  2  0  0  0  0
 24 27  1  0  0  0  0
 24  1  1  0  0  0  0
 25 23  1  0  0  0  0
 26 24  2  0  0  0  0
 27 21  1  0  0  0  0
 28 25  1  0  0  0  0
 29 28  2  0  0  0  0
 30 31  1  0  0  0  0
 31 33  1  0  0  0  0
 33 32  2  0  0  0  0
 33 34  1  0  0  0  0
M  END
>  <MODEL>
5

>  <REMARK>
 VINA RESULT:      -6.4      1.431      2.943
  Name = 
  10 active torsions:
  status: ('A' for Active; 'I' for Inactive)
    1  A    between atoms: C_7  and  N_14
    2  A    between atoms: C_7  and  C_15
    3  A    between atoms: N_8  and  C_18
    4  A    between atoms: O_12  and  C_19
    5  A    between atoms: C_13  and  C_24
    6  A    between atoms: N_14  and  C_16
    7  A    between atoms: C_17  and  C_20
    8  A    between atoms: C_24  and  N_25
    9  A    between atoms: N_25  and  C_27
   10  A    between atoms: C_26  and  C_28
                            x       y       z     vdW  Elec       q    Type
                         _______ _______ _______ _____ _____    ______ ____

>  <TORSDO>
F 10

$$$$
=
 OpenBabel11062409333D

 34 36  0  0  1  0  0  0  0  0999 V2000
  160.8300  207.2080  152.2920 N   0  0  0  0  0  2  0  0  0  0  0  0
  161.8820  206.6410  154.3010 O   0  0  0  0  0  0  0  0  0  0  0  0
  161.2380  207.4980  153.6360 C   0  0  0  0  0  0  0  0  0  0  0  0
  159.5920  207.8170  155.9410 O   0  0  0  0  0  1  0  0  0  0  0  0
  159.8480  212.7570  155.6320 C   0  0  0  0  0  2  0  0  0  0  0  0
  161.1210  211.2620  154.1110 C   0  0  0  0  0  3  0  0  0  0  0  0
  160.1210  208.9540  155.3350 C   0  0  0  0  0  0  0  0  0  0  0  0
  161.5050  210.0110  153.6240 C   0  0  0  0  0  0  0  0  0  0  0  0
  160.9790  208.8350  154.2180 C   0  0  0  0  0  0  0  0  0  0  0  0
  159.2870  212.7880  157.0530 C   0  0  0  0  0  2  0  0  0  0  0  0
  158.2550  211.6800  157.2580 C   0  0  2  0  0  3  0  0  0  0  0  0
  160.2740  211.3800  155.2110 C   0  0  0  0  0  0  0  0  0  0  0  0
  158.9070  210.3120  157.0680 C   0  0  0  0  0  2  0  0  0  0  0  0
  159.7660  210.2200  155.8300 C   0  0  0  0  0  0  0  0  0  0  0  0
  162.4110  209.9940  152.5590 O   0  0  0  0  0  0  0  0  0  0  0  0
  162.0030  210.0410  151.2000 C   0  0  0  0  0  1  0  0  0  0  0  0
  157.1320  211.8360  156.3430 N   0  0  0  0  0  2  0  0  0  0  0  0
  155.9200  211.8520  157.1470 C   0  0  0  0  0  2  0  0  0  0  0  0
  155.2220  210.2500  155.3740 C   0  0  0  0  0  1  0  0  0  0  0  0
  155.0740  210.6320  156.8340 C   0  0  0  0  0  2  0  0  0  0  0  0
  160.7950  206.8440  149.4540 F   0  0  0  0  0  0  0  0  0  0  0  0
  160.9980  203.5160  151.9220 C   0  0  0  0  0  3  0  0  0  0  0  0
  160.8480  204.4780  149.6970 C   0  0  0  0  0  0  0  0  0  0  0  0
  160.8410  205.9180  151.6680 C   0  0  0  0  0  0  0  0  0  0  0  0
  160.9060  203.3380  150.5400 C   0  0  0  0  0  0  0  0  0  0  0  0
  160.9790  204.7930  152.4800 C   0  0  0  0  0  3  0  0  0  0  0  0
  160.7930  205.7590  150.2700 C   0  0  0  0  0  0  0  0  0  0  0  0
  160.8060  201.9480  150.0640 C   0  0  0  0  0  3  0  0  0  0  0  0
  159.8280  201.5370  149.3860 O   0  0  0  0  0  0  0  0  0  0  0  0
  160.9000  204.3830  148.2680 N   0  0  0  0  0  2  0  0  0  0  0  0
  161.9500  205.0060  147.4780 C   0  0  0  0  0  2  0  0  0  0  0  0
  161.2360  203.4160  145.8580 O   0  0  0  0  0  1  0  0  0  0  0  0
  162.0440  204.3340  146.1550 C   0  0  0  0  0  0  0  0  0  0  0  0
  163.0480  204.6910  145.2650 O   0  0  0  0  0  0  0  0  0  0  0  0
  1  3  1  0  0  0  0
  3  9  1  0  0  0  0
  3  2  2  0  0  0  0
  5 10  1  0  0  0  0
  6 12  1  0  0  0  0
  7 14  1  0  0  0  0
  7  4  1  0  0  0  0
  8  6  2  0  0  0  0
  8  9  1  0  0  0  0
  9  7  2  0  0  0  0
 10 11  1  0  0  0  0
 11 17  1  6  0  0  0
 12  5  1  0  0  0  0
 12 14  2  0  0  0  0
 13 11  1  0  0  0  0
 14 13  1  0  0  0  0
 15  8  1  0  0  0  0
 16 15  1  0  0  0  0
 17 18  1  0  0  0  0
 19 20  1  0  0  0  0
 20 18  1  0  0  0  0
 21 27  1  0  0  0  0
 22 26  1  0  0  0  0
 23 27  2  0  0  0  0
 23 25  1  0  0  0  0
 24  1  1  0  0  0  0
 24 26  2  0  0  0  0
 25 22  2  0  0  0  0
 27 24  1  0  0  0  0
 28 25  1  0  0  0  0
 29 28  2  0  0  0  0
 30 23  1  0  0  0  0
 31 30  1  0  0  0  0
 32 33  1  0  0  0  0
 33 31  1  0  0  0  0
 34 33  2  0  0  0  0
M  END
>  <MODEL>
6

>  <REMARK>
 VINA RESULT:      -6.2      1.699      2.177
  Name = 
  10 active torsions:
  status: ('A' for Active; 'I' for Inactive)
    1  A    between atoms: C_7  and  N_14
    2  A    between atoms: C_7  and  C_15
    3  A    between atoms: N_8  and  C_18
    4  A    between atoms: O_12  and  C_19
    5  A    between atoms: C_13  and  C_24
    6  A    between atoms: N_14  and  C_16
    7  A    between atoms: C_17  and  C_20
    8  A    between atoms: C_24  and  N_25
    9  A    between atoms: N_25  and  C_27
   10  A    between atoms: C_26  and  C_28
                            x       y       z     vdW  Elec       q    Type
                         _______ _______ _______ _____ _____    ______ ____

>  <TORSDO>
F 10

$$$$
