=
 OpenBabel11052422153D

 25 29  0  0  0  0  0  0  0  0999 V2000
  161.4040  205.0860  148.9120 C   0  0  0  0  0  0  0  0  0  0  0  0
  161.4510  206.3240  149.5600 C   0  0  0  0  0  0  0  0  0  0  0  0
  161.9670  206.0400  146.8070 C   0  0  0  0  0  3  0  0  0  0  0  0
  161.1270  203.8210  149.3860 C   0  0  0  0  0  0  0  0  0  0  0  0
  160.6890  201.1020  149.6250 C   0  0  0  0  0  3  0  0  0  0  0  0
  162.0300  207.3110  147.3960 C   0  0  0  0  0  3  0  0  0  0  0  0
  161.2340  203.0060  148.2820 C   0  0  0  0  0  0  0  0  0  0  0  0
  161.0190  201.6330  148.3640 C   0  0  0  0  0  3  0  0  0  0  0  0
  161.8290  208.7270  149.3930 C   0  0  0  0  0  0  0  0  0  0  0  0
  162.1620  209.9640  148.6260 C   0  0  0  0  0  1  0  0  0  0  0  0
  161.1940  206.4610  150.9270 C   0  0  0  0  0  3  0  0  0  0  0  0
  160.5800  201.9420  150.7570 C   0  0  0  0  0  3  0  0  0  0  0  0
  161.6560  204.9790  147.5900 N   0  0  0  0  0  0  0  0  0  0  0  0
  161.5580  203.7190  147.1820 N   0  0  0  0  0  0  0  0  0  0  0  0
  161.5700  208.8440  150.7630 C   0  0  0  0  0  3  0  0  0  0  0  0
  160.8010  203.3280  150.6470 C   0  0  0  0  0  3  0  0  0  0  0  0
  161.2510  207.7190  151.5400 C   0  0  0  0  0  0  0  0  0  0  0  0
  161.7720  207.4640  148.7770 C   0  0  0  0  0  0  0  0  0  0  0  0
  160.6480  209.1550  155.0090 C   0  0  0  0  0  0  0  0  0  0  0  0
  160.9750  207.8410  152.9890 C   0  0  0  0  0  0  0  0  0  0  0  0
  160.9200  209.0420  153.5740 C   0  0  0  0  0  3  0  0  0  0  0  0
  160.5990  210.2930  155.5440 O   0  0  0  0  0  0  0  0  0  0  0  0
  160.7650  206.6510  153.7720 N   0  0  0  0  0  0  0  0  0  0  0  0
  160.4250  207.9320  155.8480 C   0  0  0  0  0  2  0  0  0  0  0  0
  160.5180  206.6610  155.0480 C   0  0  0  0  0  3  0  0  0  0  0  0
  1  4  2  0  0  0  0
  1  2  1  0  0  0  0
  2 11  1  0  0  0  0
  3  6  2  0  0  0  0
  3 13  1  0  0  0  0
  4 16  1  0  0  0  0
  5 12  1  0  0  0  0
  6 18  1  0  0  0  0
  7  8  1  0  0  0  0
  7  4  1  0  0  0  0
  8  5  2  0  0  0  0
  9 15  2  0  0  0  0
 10  9  1  0  0  0  0
 11 17  2  0  0  0  0
 13  1  1  0  0  0  0
 14 13  1  0  0  0  0
 14  7  2  0  0  0  0
 15 17  1  0  0  0  0
 16 12  2  0  0  0  0
 17 20  1  0  0  0  0
 18  9  1  0  0  0  0
 18  2  2  0  0  0  0
 19 22  2  0  0  0  0
 19 24  1  0  0  0  0
 20 21  2  0  0  0  0
 20 23  1  0  0  0  0
 21 19  1  0  0  0  0
 23 25  2  0  0  0  0
 25 24  1  0  0  0  0
M  END
>  <MODEL>
1

>  <REMARK>
 VINA RESULT:     -10.8      0.000      0.000
  Name = 
  1 active torsions:
  status: ('A' for Active; 'I' for Inactive)
    1  A    between atoms: C_6  and  C_23
                            x       y       z     vdW  Elec       q    Type
                         _______ _______ _______ _____ _____    ______ ____

>  <TORSDO>
F 1

$$$$
=
 OpenBabel11052422153D

 25 29  0  0  0  0  0  0  0  0999 V2000
  161.3860  205.4550  149.2900 C   0  0  0  0  0  0  0  0  0  0  0  0
  161.4810  206.7230  149.8710 C   0  0  0  0  0  0  0  0  0  0  0  0
  161.8430  206.2960  147.1120 C   0  0  0  0  0  3  0  0  0  0  0  0
  161.1230  204.2190  149.8410 C   0  0  0  0  0  0  0  0  0  0  0  0
  160.6700  201.5210  150.2400 C   0  0  0  0  0  3  0  0  0  0  0  0
  161.9510  207.5930  147.6320 C   0  0  0  0  0  3  0  0  0  0  0  0
  161.1600  203.3480  148.7750 C   0  0  0  0  0  0  0  0  0  0  0  0
  160.9360  201.9840  148.9380 C   0  0  0  0  0  3  0  0  0  0  0  0
  161.8750  209.1100  149.5640 C   0  0  0  0  0  0  0  0  0  0  0  0
  162.1780  210.3020  148.7180 C   0  0  0  0  0  1  0  0  0  0  0  0
  161.3010  206.9310  151.2420 C   0  0  0  0  0  3  0  0  0  0  0  0
  160.6320  202.4180  151.3320 C   0  0  0  0  0  3  0  0  0  0  0  0
  161.5640  205.2790  147.9630 N   0  0  0  0  0  0  0  0  0  0  0  0
  161.4310  204.0020  147.6250 N   0  0  0  0  0  0  0  0  0  0  0  0
  161.6920  209.2980  150.9380 C   0  0  0  0  0  3  0  0  0  0  0  0
  160.8610  203.7940  151.1410 C   0  0  0  0  0  3  0  0  0  0  0  0
  161.4040  208.2170  151.7870 C   0  0  0  0  0  0  0  0  0  0  0  0
  161.7710  207.8180  149.0150 C   0  0  0  0  0  0  0  0  0  0  0  0
  160.6060  207.6080  155.4540 C   0  0  0  0  0  0  0  0  0  0  0  0
  161.2100  208.4140  153.2400 C   0  0  0  0  0  0  0  0  0  0  0  0
  160.7970  207.4060  154.0150 C   0  0  0  0  0  3  0  0  0  0  0  0
  160.2160  206.6500  156.1700 O   0  0  0  0  0  0  0  0  0  0  0  0
  161.4690  209.7060  153.8200 N   0  0  0  0  0  0  0  0  0  0  0  0
  160.8690  208.9440  156.0840 C   0  0  0  0  0  2  0  0  0  0  0  0
  161.3260  209.9720  155.0850 C   0  0  0  0  0  3  0  0  0  0  0  0
  1  4  2  0  0  0  0
  1  2  1  0  0  0  0
  2 11  1  0  0  0  0
  3  6  2  0  0  0  0
  3 13  1  0  0  0  0
  4 16  1  0  0  0  0
  5 12  1  0  0  0  0
  6 18  1  0  0  0  0
  7  8  1  0  0  0  0
  7  4  1  0  0  0  0
  8  5  2  0  0  0  0
  9 15  2  0  0  0  0
 10  9  1  0  0  0  0
 11 17  2  0  0  0  0
 13  1  1  0  0  0  0
 14 13  1  0  0  0  0
 14  7  2  0  0  0  0
 15 17  1  0  0  0  0
 16 12  2  0  0  0  0
 17 20  1  0  0  0  0
 18  9  1  0  0  0  0
 18  2  2  0  0  0  0
 19 24  1  0  0  0  0
 19 22  2  0  0  0  0
 20 23  1  0  0  0  0
 20 21  2  0  0  0  0
 21 19  1  0  0  0  0
 23 25  2  0  0  0  0
 25 24  1  0  0  0  0
M  END
>  <MODEL>
2

>  <REMARK>
 VINA RESULT:     -10.4      1.157      1.386
  Name = 
  1 active torsions:
  status: ('A' for Active; 'I' for Inactive)
    1  A    between atoms: C_6  and  C_23
                            x       y       z     vdW  Elec       q    Type
                         _______ _______ _______ _____ _____    ______ ____

>  <TORSDO>
F 1

$$$$
=
 OpenBabel11052422153D

 25 29  0  0  0  0  0  0  0  0999 V2000
  161.5480  207.5120  151.0660 C   0  0  0  0  0  0  0  0  0  0  0  0
  161.3620  206.1610  150.7530 C   0  0  0  0  0  0  0  0  0  0  0  0
  161.4100  207.1020  153.4060 C   0  0  0  0  0  3  0  0  0  0  0  0
  161.7350  208.6150  150.2610 C   0  0  0  0  0  0  0  0  0  0  0  0
  162.1390  211.1760  149.3030 C   0  0  0  0  0  3  0  0  0  0  0  0
  161.2200  205.7360  153.1590 C   0  0  0  0  0  3  0  0  0  0  0  0
  161.8590  209.6680  151.1390 C   0  0  0  0  0  0  0  0  0  0  0  0
  162.0620  210.9710  150.6940 C   0  0  0  0  0  3  0  0  0  0  0  0
  161.0050  203.8860  151.5550 C   0  0  0  0  0  0  0  0  0  0  0  0
  160.8230  202.8820  152.6440 C   0  0  0  0  0  1  0  0  0  0  0  0
  161.3390  205.6980  149.4340 C   0  0  0  0  0  3  0  0  0  0  0  0
  162.0110  210.0930  148.4040 C   0  0  0  0  0  3  0  0  0  0  0  0
  161.5660  207.9350  152.3480 N   0  0  0  0  0  0  0  0  0  0  0  0
  161.7550  209.2480  152.4180 N   0  0  0  0  0  0  0  0  0  0  0  0
  160.9860  203.4420  150.2290 C   0  0  0  0  0  3  0  0  0  0  0  0
  161.8060  208.7840  148.8810 C   0  0  0  0  0  3  0  0  0  0  0  0
  161.1520  204.3380  149.1600 C   0  0  0  0  0  0  0  0  0  0  0  0
  161.1940  205.2540  151.8310 C   0  0  0  0  0  0  0  0  0  0  0  0
  161.3270  204.2510  145.3620 C   0  0  0  0  0  0  0  0  0  0  0  0
  161.1310  203.8690  147.7570 C   0  0  0  0  0  0  0  0  0  0  0  0
  161.3490  204.7220  146.7500 C   0  0  0  0  0  3  0  0  0  0  0  0
  161.5340  205.0660  144.4260 O   0  0  0  0  0  0  0  0  0  0  0  0
  160.8710  202.4810  147.4780 N   0  0  0  0  0  0  0  0  0  0  0  0
  161.0590  202.8100  145.0440 C   0  0  0  0  0  2  0  0  0  0  0  0
  160.8340  201.9800  146.2780 C   0  0  0  0  0  3  0  0  0  0  0  0
  1 13  1  0  0  0  0
  2  1  1  0  0  0  0
  2 18  1  0  0  0  0
  4  1  2  0  0  0  0
  4  7  1  0  0  0  0
  5  8  2  0  0  0  0
  6  3  2  0  0  0  0
  7 14  2  0  0  0  0
  8  7  1  0  0  0  0
  9 18  2  0  0  0  0
  9 10  1  0  0  0  0
 11  2  2  0  0  0  0
 12 16  2  0  0  0  0
 12  5  1  0  0  0  0
 13 14  1  0  0  0  0
 13  3  1  0  0  0  0
 15  9  1  0  0  0  0
 16  4  1  0  0  0  0
 17 11  1  0  0  0  0
 17 15  2  0  0  0  0
 18  6  1  0  0  0  0
 19 21  1  0  0  0  0
 20 17  1  0  0  0  0
 21 20  2  0  0  0  0
 22 19  2  0  0  0  0
 23 20  1  0  0  0  0
 24 19  1  0  0  0  0
 24 25  1  0  0  0  0
 25 23  2  0  0  0  0
M  END
>  <MODEL>
3

>  <REMARK>
 VINA RESULT:      -9.8      2.929      7.493
  Name = 
  1 active torsions:
  status: ('A' for Active; 'I' for Inactive)
    1  A    between atoms: C_6  and  C_23
                            x       y       z     vdW  Elec       q    Type
                         _______ _______ _______ _____ _____    ______ ____

>  <TORSDO>
F 1

$$$$
=
 OpenBabel11052422153D

 25 29  0  0  0  0  0  0  0  0999 V2000
  161.0970  208.6250  153.1280 C   0  0  0  0  0  0  0  0  0  0  0  0
  161.2810  207.9540  151.9150 C   0  0  0  0  0  0  0  0  0  0  0  0
  161.5720  210.7440  152.1570 C   0  0  0  0  0  3  0  0  0  0  0  0
  160.7640  208.1600  154.3830 C   0  0  0  0  0  0  0  0  0  0  0  0
  160.1490  207.9510  157.0700 C   0  0  0  0  0  3  0  0  0  0  0  0
  161.7700  210.1320  150.9110 C   0  0  0  0  0  3  0  0  0  0  0  0
  160.7300  209.2880  155.1720 C   0  0  0  0  0  0  0  0  0  0  0  0
  160.4250  209.2210  156.5290 C   0  0  0  0  0  3  0  0  0  0  0  0
  161.8190  208.0930  149.5410 C   0  0  0  0  0  0  0  0  0  0  0  0
  162.1830  208.8560  148.3100 C   0  0  0  0  0  1  0  0  0  0  0  0
  161.1350  206.5680  151.7990 C   0  0  0  0  0  3  0  0  0  0  0  0
  160.1850  206.7950  156.2560 C   0  0  0  0  0  3  0  0  0  0  0  0
  161.2440  209.9640  153.2150 N   0  0  0  0  0  0  0  0  0  0  0  0
  161.0240  210.3920  154.4530 N   0  0  0  0  0  0  0  0  0  0  0  0
  161.6680  206.7060  149.4450 C   0  0  0  0  0  3  0  0  0  0  0  0
  160.4970  206.8900  154.8870 C   0  0  0  0  0  3  0  0  0  0  0  0
  161.3270  205.9330  150.5660 C   0  0  0  0  0  0  0  0  0  0  0  0
  161.6260  208.7330  150.7800 C   0  0  0  0  0  0  0  0  0  0  0  0
  160.7530  202.4320  149.1960 C   0  0  0  0  0  0  0  0  0  0  0  0
  161.1680  204.4650  150.4660 C   0  0  0  0  0  0  0  0  0  0  0  0
  160.9100  203.8860  149.2890 C   0  0  0  0  0  3  0  0  0  0  0  0
  160.5110  201.9020  148.0810 O   0  0  0  0  0  0  0  0  0  0  0  0
  161.2930  203.6580  151.6500 N   0  0  0  0  0  0  0  0  0  0  0  0
  160.8790  201.5670  150.4150 C   0  0  0  0  0  2  0  0  0  0  0  0
  161.1690  202.3630  151.6590 C   0  0  0  0  0  3  0  0  0  0  0  0
  1 13  1  0  0  0  0
  1  4  2  0  0  0  0
  2  1  1  0  0  0  0
  3 13  1  0  0  0  0
  4 16  1  0  0  0  0
  4  7  1  0  0  0  0
  6  3  2  0  0  0  0
  7  8  1  0  0  0  0
  8  5  2  0  0  0  0
  9 18  1  0  0  0  0
 10  9  1  0  0  0  0
 11  2  1  0  0  0  0
 12  5  1  0  0  0  0
 13 14  1  0  0  0  0
 14  7  2  0  0  0  0
 15  9  2  0  0  0  0
 15 17  1  0  0  0  0
 16 12  2  0  0  0  0
 17 11  2  0  0  0  0
 18  6  1  0  0  0  0
 18  2  2  0  0  0  0
 19 21  1  0  0  0  0
 19 24  1  0  0  0  0
 20 17  1  0  0  0  0
 20 23  1  0  0  0  0
 21 20  2  0  0  0  0
 22 19  2  0  0  0  0
 23 25  2  0  0  0  0
 24 25  1  0  0  0  0
M  END
>  <MODEL>
4

>  <REMARK>
 VINA RESULT:      -9.7      2.831      6.658
  Name = 
  1 active torsions:
  status: ('A' for Active; 'I' for Inactive)
    1  A    between atoms: C_6  and  C_23
                            x       y       z     vdW  Elec       q    Type
                         _______ _______ _______ _____ _____    ______ ____

>  <TORSDO>
F 1

$$$$
=
 OpenBabel11052422153D

 25 29  0  0  0  0  0  0  0  0999 V2000
  161.1240  203.8620  148.0240 C   0  0  0  0  0  0  0  0  0  0  0  0
  161.1070  204.3260  149.3430 C   0  0  0  0  0  0  0  0  0  0  0  0
  160.9040  201.5920  148.7030 C   0  0  0  0  0  3  0  0  0  0  0  0
  161.2310  204.5340  146.8240 C   0  0  0  0  0  0  0  0  0  0  0  0
  161.4000  205.1900  144.1450 C   0  0  0  0  0  3  0  0  0  0  0  0
  160.8800  201.9930  150.0460 C   0  0  0  0  0  3  0  0  0  0  0  0
  161.1890  203.5440  145.8680 C   0  0  0  0  0  0  0  0  0  0  0  0
  161.2720  203.8360  144.5100 C   0  0  0  0  0  3  0  0  0  0  0  0
  160.9600  203.7920  151.7180 C   0  0  0  0  0  0  0  0  0  0  0  0
  160.8310  202.8280  152.8510 C   0  0  0  0  0  1  0  0  0  0  0  0
  161.2070  205.6850  149.6570 C   0  0  0  0  0  3  0  0  0  0  0  0
  161.4440  206.2030  145.1290 C   0  0  0  0  0  3  0  0  0  0  0  0
  161.0250  202.5450  147.7460 N   0  0  0  0  0  0  0  0  0  0  0  0
  161.0620  202.3250  146.4370 N   0  0  0  0  0  0  0  0  0  0  0  0
  161.0620  205.1560  152.0120 C   0  0  0  0  0  3  0  0  0  0  0  0
  161.3580  205.8810  146.4970 C   0  0  0  0  0  3  0  0  0  0  0  0
  161.1860  206.1110  150.9910 C   0  0  0  0  0  0  0  0  0  0  0  0
  160.9820  203.3620  150.3770 C   0  0  0  0  0  0  0  0  0  0  0  0
  160.9410  209.4700  152.7570 C   0  0  0  0  0  0  0  0  0  0  0  0
  161.2940  207.5540  151.3000 C   0  0  0  0  0  0  0  0  0  0  0  0
  160.8310  208.0400  152.4570 C   0  0  0  0  0  3  0  0  0  0  0  0
  160.5010  209.9120  153.8500 O   0  0  0  0  0  0  0  0  0  0  0  0
  161.9040  208.4400  150.3430 N   0  0  0  0  0  0  0  0  0  0  0  0
  161.5720  210.4150  151.7770 C   0  0  0  0  0  2  0  0  0  0  0  0
  162.0420  209.7200  150.5280 C   0  0  0  0  0  3  0  0  0  0  0  0
  1  2  1  0  0  0  0
  2 11  2  0  0  0  0
  2 18  1  0  0  0  0
  3  6  2  0  0  0  0
  4  1  2  0  0  0  0
  5  8  2  0  0  0  0
  5 12  1  0  0  0  0
  6 18  1  0  0  0  0
  7 14  2  0  0  0  0
  7  4  1  0  0  0  0
  8  7  1  0  0  0  0
  9 15  1  0  0  0  0
  9 10  1  0  0  0  0
 11 17  1  0  0  0  0
 12 16  2  0  0  0  0
 13  1  1  0  0  0  0
 13  3  1  0  0  0  0
 14 13  1  0  0  0  0
 16  4  1  0  0  0  0
 17 20  1  0  0  0  0
 17 15  2  0  0  0  0
 18  9  2  0  0  0  0
 19 22  2  0  0  0  0
 20 21  2  0  0  0  0
 21 19  1  0  0  0  0
 23 25  2  0  0  0  0
 23 20  1  0  0  0  0
 24 19  1  0  0  0  0
 25 24  1  0  0  0  0
M  END
>  <MODEL>
5

>  <REMARK>
 VINA RESULT:      -9.5      1.721      4.286
  Name = 
  1 active torsions:
  status: ('A' for Active; 'I' for Inactive)
    1  A    between atoms: C_6  and  C_23
                            x       y       z     vdW  Elec       q    Type
                         _______ _______ _______ _____ _____    ______ ____

>  <TORSDO>
F 1

$$$$
=
 OpenBabel11052422153D

 25 29  0  0  0  0  0  0  0  0999 V2000
  161.1850  204.1040  149.3070 C   0  0  0  0  0  0  0  0  0  0  0  0
  161.2550  205.1470  150.2360 C   0  0  0  0  0  0  0  0  0  0  0  0
  161.0040  202.4520  151.0090 C   0  0  0  0  0  3  0  0  0  0  0  0
  161.2150  204.1100  147.9280 C   0  0  0  0  0  0  0  0  0  0  0  0
  161.2100  203.3870  145.2610 C   0  0  0  0  0  3  0  0  0  0  0  0
  161.0700  203.4510  151.9900 C   0  0  0  0  0  3  0  0  0  0  0  0
  161.1070  202.7840  147.5740 C   0  0  0  0  0  0  0  0  0  0  0  0
  161.1020  202.3830  146.2410 C   0  0  0  0  0  3  0  0  0  0  0  0
  161.2630  205.8290  152.5770 C   0  0  0  0  0  0  0  0  0  0  0  0
  161.2060  205.5360  154.0400 C   0  0  0  0  0  1  0  0  0  0  0  0
  161.3790  206.4850  149.8480 C   0  0  0  0  0  3  0  0  0  0  0  0
  161.3210  204.7480  145.6280 C   0  0  0  0  0  3  0  0  0  0  0  0
  161.0650  202.8210  149.7060 N   0  0  0  0  0  0  0  0  0  0  0  0
  161.0150  201.9960  148.6660 N   0  0  0  0  0  0  0  0  0  0  0  0
  161.3870  207.1610  152.1690 C   0  0  0  0  0  3  0  0  0  0  0  0
  161.3240  205.1270  146.9840 C   0  0  0  0  0  3  0  0  0  0  0  0
  161.4470  207.5020  150.8080 C   0  0  0  0  0  0  0  0  0  0  0  0
  161.1960  204.8060  151.6120 C   0  0  0  0  0  0  0  0  0  0  0  0
  161.2830  211.3000  150.7220 C   0  0  0  0  0  0  0  0  0  0  0  0
  161.5780  208.9100  150.3750 C   0  0  0  0  0  0  0  0  0  0  0  0
  161.1500  209.9070  151.1570 C   0  0  0  0  0  3  0  0  0  0  0  0
  160.8750  212.2260  151.4700 O   0  0  0  0  0  0  0  0  0  0  0  0
  162.1740  209.2060  149.0980 N   0  0  0  0  0  0  0  0  0  0  0  0
  161.9000  211.6350  149.3970 C   0  0  0  0  0  2  0  0  0  0  0  0
  162.3310  210.4110  148.6360 C   0  0  0  0  0  3  0  0  0  0  0  0
  1 13  1  0  0  0  0
  1  2  1  0  0  0  0
  2 18  1  0  0  0  0
  3  6  2  0  0  0  0
  4  1  2  0  0  0  0
  5 12  1  0  0  0  0
  5  8  2  0  0  0  0
  7  4  1  0  0  0  0
  7 14  2  0  0  0  0
  8  7  1  0  0  0  0
  9 10  1  0  0  0  0
 11  2  2  0  0  0  0
 11 17  1  0  0  0  0
 12 16  2  0  0  0  0
 13  3  1  0  0  0  0
 14 13  1  0  0  0  0
 15  9  1  0  0  0  0
 16  4  1  0  0  0  0
 17 15  2  0  0  0  0
 18  6  1  0  0  0  0
 18  9  2  0  0  0  0
 19 21  1  0  0  0  0
 19 22  2  0  0  0  0
 20 17  1  0  0  0  0
 20 21  2  0  0  0  0
 23 20  1  0  0  0  0
 24 19  1  0  0  0  0
 25 23  2  0  0  0  0
 25 24  1  0  0  0  0
M  END
>  <MODEL>
6

>  <REMARK>
 VINA RESULT:      -9.4      2.183      4.319
  Name = 
  1 active torsions:
  status: ('A' for Active; 'I' for Inactive)
    1  A    between atoms: C_6  and  C_23
                            x       y       z     vdW  Elec       q    Type
                         _______ _______ _______ _____ _____    ______ ____

>  <TORSDO>
F 1

$$$$
=
 OpenBabel11052422153D

 25 29  0  0  0  0  0  0  0  0999 V2000
  161.2320  204.4770  148.9870 C   0  0  0  0  0  0  0  0  0  0  0  0
  161.2680  205.4310  150.0090 C   0  0  0  0  0  0  0  0  0  0  0  0
  161.1040  202.6680  150.5260 C   0  0  0  0  0  3  0  0  0  0  0  0
  161.2620  204.6130  147.6150 C   0  0  0  0  0  0  0  0  0  0  0  0
  161.2820  204.1430  144.8910 C   0  0  0  0  0  3  0  0  0  0  0  0
  161.1360  203.5720  151.5970 C   0  0  0  0  0  3  0  0  0  0  0  0
  161.1980  203.3240  147.1370 C   0  0  0  0  0  0  0  0  0  0  0  0
  161.2060  203.0490  145.7730 C   0  0  0  0  0  3  0  0  0  0  0  0
  161.2530  205.8910  152.4040 C   0  0  0  0  0  0  0  0  0  0  0  0
  161.2040  205.4600  153.8330 C   0  0  0  0  0  1  0  0  0  0  0  0
  161.3490  206.8020  149.7480 C   0  0  0  0  0  3  0  0  0  0  0  0
  161.3480  205.4660  145.3850 C   0  0  0  0  0  3  0  0  0  0  0  0
  161.1530  203.1590  149.2640 N   0  0  0  0  0  0  0  0  0  0  0  0
  161.1310  202.4340  148.1510 N   0  0  0  0  0  0  0  0  0  0  0  0
  161.3340  207.2580  152.1230 C   0  0  0  0  0  3  0  0  0  0  0  0
  161.3390  205.7170  146.7700 C   0  0  0  0  0  3  0  0  0  0  0  0
  161.3830  207.7260  150.8000 C   0  0  0  0  0  0  0  0  0  0  0  0
  161.2190  204.9610  151.3480 C   0  0  0  0  0  0  0  0  0  0  0  0
  162.0390  211.0330  149.0410 C   0  0  0  0  0  0  0  0  0  0  0  0
  161.4690  209.1730  150.5010 C   0  0  0  0  0  0  0  0  0  0  0  0
  161.9560  209.5990  149.3310 C   0  0  0  0  0  3  0  0  0  0  0  0
  162.5000  211.4190  147.9350 O   0  0  0  0  0  0  0  0  0  0  0  0
  161.0230  210.1260  151.4820 N   0  0  0  0  0  0  0  0  0  0  0  0
  161.5810  212.0480  150.0460 C   0  0  0  0  0  2  0  0  0  0  0  0
  161.0610  211.4150  151.3080 C   0  0  0  0  0  3  0  0  0  0  0  0
  1 13  1  0  0  0  0
  1  2  1  0  0  0  0
  2 18  1  0  0  0  0
  3  6  2  0  0  0  0
  4  1  2  0  0  0  0
  5 12  1  0  0  0  0
  5  8  2  0  0  0  0
  7  4  1  0  0  0  0
  7 14  2  0  0  0  0
  8  7  1  0  0  0  0
  9 10  1  0  0  0  0
 11  2  2  0  0  0  0
 11 17  1  0  0  0  0
 12 16  2  0  0  0  0
 13  3  1  0  0  0  0
 14 13  1  0  0  0  0
 15  9  1  0  0  0  0
 16  4  1  0  0  0  0
 17 15  2  0  0  0  0
 18  6  1  0  0  0  0
 18  9  2  0  0  0  0
 19 21  1  0  0  0  0
 19 24  1  0  0  0  0
 20 17  1  0  0  0  0
 20 23  1  0  0  0  0
 21 20  2  0  0  0  0
 22 19  2  0  0  0  0
 24 25  1  0  0  0  0
 25 23  2  0  0  0  0
M  END
>  <MODEL>
7

>  <REMARK>
 VINA RESULT:      -9.3      2.397      4.476
  Name = 
  1 active torsions:
  status: ('A' for Active; 'I' for Inactive)
    1  A    between atoms: C_6  and  C_23
                            x       y       z     vdW  Elec       q    Type
                         _______ _______ _______ _____ _____    ______ ____

>  <TORSDO>
F 1

$$$$
=
 OpenBabel11052422153D

 25 29  0  0  0  0  0  0  0  0999 V2000
  161.2120  205.3390  150.3650 C   0  0  0  0  0  0  0  0  0  0  0  0
  161.2180  206.5050  151.1380 C   0  0  0  0  0  0  0  0  0  0  0  0
  161.1850  203.9340  152.2850 C   0  0  0  0  0  3  0  0  0  0  0  0
  161.2200  205.1520  148.9990 C   0  0  0  0  0  0  0  0  0  0  0  0
  161.2270  204.0620  146.4590 C   0  0  0  0  0  3  0  0  0  0  0  0
  161.1900  205.0630  153.1150 C   0  0  0  0  0  3  0  0  0  0  0  0
  161.2080  203.7850  148.8360 C   0  0  0  0  0  0  0  0  0  0  0  0
  161.2120  203.2010  147.5720 C   0  0  0  0  0  3  0  0  0  0  0  0
  161.2110  207.5080  153.3600 C   0  0  0  0  0  0  0  0  0  0  0  0
  161.1990  207.4210  154.8500 C   0  0  0  0  0  1  0  0  0  0  0  0
  161.2330  207.7800  150.5640 C   0  0  0  0  0  3  0  0  0  0  0  0
  161.2400  205.4650  146.6310 C   0  0  0  0  0  3  0  0  0  0  0  0
  161.1970  204.1190  150.9420 N   0  0  0  0  0  0  0  0  0  0  0  0
  161.1940  203.1540  150.0290 N   0  0  0  0  0  0  0  0  0  0  0  0
  161.2260  208.7750  152.7670 C   0  0  0  0  0  3  0  0  0  0  0  0
  161.2360  206.0310  147.9190 C   0  0  0  0  0  3  0  0  0  0  0  0
  161.2380  208.9240  151.3710 C   0  0  0  0  0  0  0  0  0  0  0  0
  161.2060  206.3580  152.5490 C   0  0  0  0  0  0  0  0  0  0  0  0
  161.9730  211.8130  149.0100 C   0  0  0  0  0  0  0  0  0  0  0  0
  161.2550  210.2630  150.7420 C   0  0  0  0  0  0  0  0  0  0  0  0
  161.9600  210.4840  149.6280 C   0  0  0  0  0  3  0  0  0  0  0  0
  162.6410  212.0050  147.9610 O   0  0  0  0  0  0  0  0  0  0  0  0
  160.5040  211.3350  151.3410 N   0  0  0  0  0  0  0  0  0  0  0  0
  161.1990  212.9480  149.6130 C   0  0  0  0  0  2  0  0  0  0  0  0
  160.4600  212.5430  150.8600 C   0  0  0  0  0  3  0  0  0  0  0  0
  1 13  1  0  0  0  0
  1  2  1  0  0  0  0
  2 18  1  0  0  0  0
  3  6  2  0  0  0  0
  4  1  2  0  0  0  0
  5 12  1  0  0  0  0
  5  8  2  0  0  0  0
  7  4  1  0  0  0  0
  7 14  2  0  0  0  0
  8  7  1  0  0  0  0
  9 10  1  0  0  0  0
 11  2  2  0  0  0  0
 11 17  1  0  0  0  0
 12 16  2  0  0  0  0
 13  3  1  0  0  0  0
 14 13  1  0  0  0  0
 15  9  1  0  0  0  0
 16  4  1  0  0  0  0
 17 15  2  0  0  0  0
 18  6  1  0  0  0  0
 18  9  2  0  0  0  0
 19 24  1  0  0  0  0
 19 21  1  0  0  0  0
 20 23  1  0  0  0  0
 20 17  1  0  0  0  0
 21 20  2  0  0  0  0
 22 19  2  0  0  0  0
 24 25  1  0  0  0  0
 25 23  2  0  0  0  0
M  END
>  <MODEL>
8

>  <REMARK>
 VINA RESULT:      -9.0      2.618      4.647
  Name = 
  1 active torsions:
  status: ('A' for Active; 'I' for Inactive)
    1  A    between atoms: C_6  and  C_23
                            x       y       z     vdW  Elec       q    Type
                         _______ _______ _______ _____ _____    ______ ____

>  <TORSDO>
F 1

$$$$
=
 OpenBabel11052422153D

 25 29  0  0  0  0  0  0  0  0999 V2000
  161.4600  206.2510  149.6030 C   0  0  0  0  0  0  0  0  0  0  0  0
  161.5100  207.5160  150.1990 C   0  0  0  0  0  0  0  0  0  0  0  0
  161.0990  205.1620  151.6880 C   0  0  0  0  0  3  0  0  0  0  0  0
  161.5830  205.8590  148.2870 C   0  0  0  0  0  0  0  0  0  0  0  0
  161.7270  204.3990  145.9450 C   0  0  0  0  0  3  0  0  0  0  0  0
  161.1390  206.3990  152.3450 C   0  0  0  0  0  3  0  0  0  0  0  0
  161.4450  204.4900  148.3190 C   0  0  0  0  0  0  0  0  0  0  0  0
  161.5140  203.7220  147.1600 C   0  0  0  0  0  3  0  0  0  0  0  0
  161.3890  208.8420  152.2410 C   0  0  0  0  0  0  0  0  0  0  0  0
  161.2220  208.9840  153.7180 C   0  0  0  0  0  1  0  0  0  0  0  0
  161.7140  208.6820  149.4550 C   0  0  0  0  0  3  0  0  0  0  0  0
  161.8680  205.8050  145.9160 C   0  0  0  0  0  3  0  0  0  0  0  0
  161.2620  205.1390  150.3430 N   0  0  0  0  0  0  0  0  0  0  0  0
  161.2490  204.0510  149.5810 N   0  0  0  0  0  0  0  0  0  0  0  0
  161.5930  209.9980  151.4800 C   0  0  0  0  0  3  0  0  0  0  0  0
  161.7950  206.5590  147.1030 C   0  0  0  0  0  3  0  0  0  0  0  0
  161.7570  209.9310  150.0870 C   0  0  0  0  0  0  0  0  0  0  0  0
  161.3450  207.5860  151.6060 C   0  0  0  0  0  0  0  0  0  0  0  0
  161.4210  213.4360  148.6510 C   0  0  0  0  0  0  0  0  0  0  0  0
  161.9750  211.1530  149.2810 C   0  0  0  0  0  0  0  0  0  0  0  0
  161.2000  212.2290  149.4530 C   0  0  0  0  0  3  0  0  0  0  0  0
  160.6830  214.4410  148.8250 O   0  0  0  0  0  0  0  0  0  0  0  0
  163.0310  211.1770  148.3040 N   0  0  0  0  0  0  0  0  0  0  0  0
  162.5140  213.4880  147.6260 C   0  0  0  0  0  2  0  0  0  0  0  0
  163.2960  212.2040  147.5510 C   0  0  0  0  0  3  0  0  0  0  0  0
  1  2  1  0  0  0  0
  1 13  1  0  0  0  0
  2 18  1  0  0  0  0
  3  6  2  0  0  0  0
  4  7  1  0  0  0  0
  4  1  2  0  0  0  0
  5  8  2  0  0  0  0
  7 14  2  0  0  0  0
  8  7  1  0  0  0  0
  9 10  1  0  0  0  0
 11 17  1  0  0  0  0
 11  2  2  0  0  0  0
 12  5  1  0  0  0  0
 12 16  2  0  0  0  0
 13  3  1  0  0  0  0
 14 13  1  0  0  0  0
 15  9  1  0  0  0  0
 16  4  1  0  0  0  0
 17 15  2  0  0  0  0
 18  9  2  0  0  0  0
 18  6  1  0  0  0  0
 19 22  2  0  0  0  0
 19 21  1  0  0  0  0
 20 21  2  0  0  0  0
 20 17  1  0  0  0  0
 23 20  1  0  0  0  0
 24 19  1  0  0  0  0
 25 24  1  0  0  0  0
 25 23  2  0  0  0  0
M  END
>  <MODEL>
9

>  <REMARK>
 VINA RESULT:      -8.9      2.668      5.141
  Name = 
  1 active torsions:
  status: ('A' for Active; 'I' for Inactive)
    1  A    between atoms: C_6  and  C_23
                            x       y       z     vdW  Elec       q    Type
                         _______ _______ _______ _____ _____    ______ ____

>  <TORSDO>
F 1

$$$$
