=
 OpenBabel11062410443D

 32 36  0  0  1  0  0  0  0  0999 V2000
  161.2890  207.0710  152.3540 C   0  0  0  0  0  0  0  0  0  0  0  0
  161.5190  211.1590  149.4140 S   0  0  0  0  0  0  0  0  0  0  0  0
  161.5460  209.8180  148.1500 C   0  0  0  0  0  2  0  0  0  0  0  0
  160.9160  204.8160  151.3210 C   0  0  0  0  0  0  0  0  0  0  0  0
  160.9470  204.0380  150.1660 C   0  0  0  0  0  0  0  0  0  0  0  0
  160.9240  207.4850  154.7390 C   0  0  0  0  0  0  0  0  0  0  0  0
  161.6650  209.2870  153.3050 C   0  0  0  0  0  3  0  0  0  0  0  0
  161.2400  203.4860  147.9980 C   0  0  0  0  0  0  0  0  0  0  0  0
  162.4790  210.3420  150.7420 C   0  0  0  0  0  2  0  0  0  0  0  0
  161.6700  208.4290  152.1950 C   0  0  0  0  0  0  0  0  0  0  0  0
  162.0470  208.9160  150.9330 C   0  0  0  0  0  0  0  0  0  0  0  0
  161.6830  206.7180  149.9530 C   0  0  0  0  0  0  0  0  0  0  0  0
  160.8440  202.3840  148.5520 N   0  0  0  0  0  0  0  0  0  0  0  0
  161.2900  208.8300  154.5700 C   0  0  0  0  0  0  0  0  0  0  0  0
  160.6100  202.5960  149.9850 C   0  0  0  0  0  3  0  0  0  0  0  0
  162.4560  208.6470  148.4980 C   0  0  0  0  0  2  0  0  0  0  0  0
  162.0560  208.0660  149.8230 C   0  0  1  0  0  3  0  0  0  0  0  0
  161.6950  205.8830  148.8170 C   0  0  0  0  0  3  0  0  0  0  0  0
  160.9210  206.6280  153.6360 C   0  0  0  0  0  3  0  0  0  0  0  0
  160.5210  204.2220  152.5150 O   0  0  0  0  0  1  0  0  0  0  0  0
  161.5600  203.5990  146.5500 C   0  0  0  0  0  1  0  0  0  0  0  0
  161.2900  206.1950  151.2320 C   0  0  0  0  0  0  0  0  0  0  0  0
  161.3230  204.5560  148.9640 C   0  0  0  0  0  0  0  0  0  0  0  0
  158.9950  206.9210  156.1730 C   0  0  0  0  0  1  0  0  0  0  0  0
  160.5080  206.9480  156.0690 C   0  0  0  0  0  2  0  0  0  0  0  0
  161.3280  209.7840  155.7200 C   0  0  0  0  0  2  0  0  0  0  0  0
  161.3230  211.1540  155.2330 N   0  0  0  0  0  2  0  0  0  0  0  0
  159.9570  211.6390  155.3360 C   0  0  0  0  0  2  0  0  0  0  0  0
  159.1640  212.2910  153.0370 C   0  0  0  0  0  0  0  0  0  0  0  0
  159.7190  212.6350  154.3060 N   0  0  0  0  0  2  0  0  0  0  0  0
  158.9540  213.2810  152.0880 O   0  0  0  0  0  0  0  0  0  0  0  0
  158.8640  211.0970  152.7710 O   0  0  0  0  0  1  0  0  0  0  0  0
  1 19  1  0  0  0  0
  2  9  1  0  0  0  0
  3 16  1  0  0  0  0
  3  2  1  0  0  0  0
  4 20  1  0  0  0  0
  5  4  2  0  0  0  0
  6 25  1  0  0  0  0
  7 14  2  0  0  0  0
  8 13  1  0  0  0  0
  8 23  2  0  0  0  0
  9 11  1  0  0  0  0
 10  1  1  0  0  0  0
 10  7  1  0  0  0  0
 11 10  2  0  0  0  0
 12 22  1  0  0  0  0
 13 15  2  0  0  0  0
 14  6  1  0  0  0  0
 14 26  1  0  0  0  0
 15  5  1  0  0  0  0
 17 16  1  6  0  0  0
 17 12  1  0  0  0  0
 17 11  1  0  0  0  0
 18 23  1  0  0  0  0
 18 12  2  0  0  0  0
 19  6  2  0  0  0  0
 21  8  1  0  0  0  0
 22  4  1  0  0  0  0
 22  1  2  0  0  0  0
 23  5  1  0  0  0  0
 25 24  1  0  0  0  0
 27 28  1  0  0  0  0
 27 26  1  0  0  0  0
 29 30  1  0  0  0  0
 30 28  1  0  0  0  0
 31 29  2  0  0  0  0
 32 29  1  0  0  0  0
M  END
>  <MODEL>
1

>  <REMARK>
 VINA RESULT:      -8.3      0.000      0.000
  Name = 
  5 active torsions:
  status: ('A' for Active; 'I' for Inactive)
    1  A    between atoms: N_2  and  C_12
    2  A    between atoms: N_2  and  C_24
    3  A    between atoms: C_8  and  C_23
    4  A    between atoms: N_10  and  C_24
    5  A    between atoms: C_12  and  C_21
                            x       y       z     vdW  Elec       q    Type
                         _______ _______ _______ _____ _____    ______ ____

>  <TORSDO>
F 5

$$$$
=
 OpenBabel11062410443D

 32 36  0  0  0  0  0  0  0  0999 V2000
  161.1260  206.1140  151.4850 C   0  0  0  0  0  0  0  0  0  0  0  0
  162.7150  209.9890  148.6790 S   0  0  0  0  0  0  0  0  0  0  0  0
  162.4230  210.8250  150.2960 C   0  0  0  0  0  2  0  0  0  0  0  0
  160.8650  206.3980  153.9630 C   0  0  0  0  0  0  0  0  0  0  0  0
  160.7430  207.2800  155.0330 C   0  0  0  0  0  0  0  0  0  0  0  0
  161.2580  203.9060  150.4360 C   0  0  0  0  0  0  0  0  0  0  0  0
  161.3830  205.8960  149.0680 C   0  0  0  0  0  3  0  0  0  0  0  0
  160.6000  209.2310  156.1570 C   0  0  0  0  0  0  0  0  0  0  0  0
  161.3530  208.7650  148.7220 C   0  0  0  0  0  2  0  0  0  0  0  0
  161.2510  206.7100  150.2030 C   0  0  0  0  0  0  0  0  0  0  0  0
  161.2480  208.1080  150.0690 C   0  0  0  0  0  0  0  0  0  0  0  0
  160.9900  208.3600  152.4760 C   0  0  0  0  0  0  0  0  0  0  0  0
  160.5170  208.3300  157.0830 N   0  0  0  0  0  0  0  0  0  0  0  0
  161.3940  204.5050  149.1730 C   0  0  0  0  0  0  0  0  0  0  0  0
  160.5970  206.9900  156.4900 C   0  0  0  0  0  2  0  0  0  0  0  0
  161.1310  210.4120  150.9910 C   0  0  0  0  0  2  0  0  0  0  0  0
  161.1160  208.9250  151.1960 C   0  0  0  0  0  0  0  0  0  0  0  0
  160.8630  209.2050  153.5970 C   0  0  0  0  0  3  0  0  0  0  0  0
  161.1330  204.7110  151.5700 C   0  0  0  0  0  3  0  0  0  0  0  0
  160.8590  205.0310  154.2220 O   0  0  0  0  0  1  0  0  0  0  0  0
  160.5510  210.6920  156.4370 C   0  0  0  0  0  1  0  0  0  0  0  0
  160.9940  206.9330  152.6410 C   0  0  0  0  0  0  0  0  0  0  0  0
  160.7420  208.6300  154.8520 C   0  0  0  0  0  0  0  0  0  0  0  0
  160.0960  201.8030  149.8710 C   0  0  0  0  0  1  0  0  0  0  0  0
  161.2710  202.4220  150.6040 C   0  0  0  0  0  2  0  0  0  0  0  0
  161.5120  203.6890  147.9260 C   0  0  0  0  0  2  0  0  0  0  0  0
  162.1280  204.4770  146.8700 N   0  0  0  0  0  2  0  0  0  0  0  0
  161.4400  204.1480  145.6340 C   0  0  0  0  0  2  0  0  0  0  0  0
  160.0820  202.1740  144.8610 C   0  0  0  0  0  0  0  0  0  0  0  0
  161.1800  202.7190  145.5910 N   0  0  0  0  0  2  0  0  0  0  0  0
  159.8790  200.8010  144.8500 O   0  0  0  0  0  1  0  0  0  0  0  0
  159.2950  202.9270  144.2280 O   0  0  0  0  0  0  0  0  0  0  0  0
  1 19  1  0  0  0  0
  1 22  1  0  0  0  0
  2  9  1  0  0  0  0
  2  3  1  0  0  0  0
  3 16  1  0  0  0  0
  4 20  1  0  0  0  0
  4  5  1  0  0  0  0
  5 15  1  0  0  0  0
  6 25  1  0  0  0  0
  6 19  2  0  0  0  0
  7 14  2  0  0  0  0
  7 10  1  0  0  0  0
  8 21  1  0  0  0  0
  8 13  2  0  0  0  0
  9 11  1  0  0  0  0
 10  1  2  0  0  0  0
 11 10  1  0  0  0  0
 11 17  2  0  0  0  0
 12 22  1  0  0  0  0
 12 18  2  0  0  0  0
 14  6  1  0  0  0  0
 15 13  1  0  0  0  0
 16 17  1  0  0  0  0
 17 12  1  0  0  0  0
 18 23  1  0  0  0  0
 22  4  2  0  0  0  0
 23  5  2  0  0  0  0
 23  8  1  0  0  0  0
 24 25  1  0  0  0  0
 26 14  1  0  0  0  0
 27 26  1  0  0  0  0
 28 27  1  0  0  0  0
 29 30  1  0  0  0  0
 30 28  1  0  0  0  0
 31 29  1  0  0  0  0
 32 29  2  0  0  0  0
M  END
>  <MODEL>
2

>  <REMARK>
 VINA RESULT:      -7.3      2.512      7.712
  Name = 
  5 active torsions:
  status: ('A' for Active; 'I' for Inactive)
    1  A    between atoms: N_2  and  C_12
    2  A    between atoms: N_2  and  C_24
    3  A    between atoms: C_8  and  C_23
    4  A    between atoms: N_10  and  C_24
    5  A    between atoms: C_12  and  C_21
                            x       y       z     vdW  Elec       q    Type
                         _______ _______ _______ _____ _____    ______ ____

>  <TORSDO>
F 5

$$$$
=
 OpenBabel11062410443D

 32 36  0  0  0  0  0  0  0  0999 V2000
  161.2250  210.7600  150.9720 C   0  0  0  0  0  0  0  0  0  0  0  0
  161.4120  206.3130  148.6050 S   0  0  0  0  0  0  0  0  0  0  0  0
  161.1330  205.7710  150.3440 C   0  0  0  0  0  2  0  0  0  0  0  0
  160.5000  210.8610  153.3710 C   0  0  0  0  0  0  0  0  0  0  0  0
  160.2940  210.1690  154.5620 C   0  0  0  0  0  0  0  0  0  0  0  0
  161.2450  212.7410  149.5340 C   0  0  0  0  0  0  0  0  0  0  0  0
  161.9380  210.6020  148.6430 C   0  0  0  0  0  3  0  0  0  0  0  0
  160.2210  208.4490  156.0200 C   0  0  0  0  0  0  0  0  0  0  0  0
  162.4720  207.7750  148.9110 C   0  0  0  0  0  2  0  0  0  0  0  0
  161.7040  209.9860  149.8830 C   0  0  0  0  0  0  0  0  0  0  0  0
  161.9410  208.6120  150.0400 C   0  0  0  0  0  0  0  0  0  0  0  0
  161.2370  208.7350  152.3660 C   0  0  0  0  0  0  0  0  0  0  0  0
  159.8070  209.4640  156.7110 N   0  0  0  0  0  0  0  0  0  0  0  0
  161.7060  211.9660  148.4590 C   0  0  0  0  0  0  0  0  0  0  0  0
  159.8010  210.6720  155.8780 C   0  0  0  0  0  2  0  0  0  0  0  0
  161.9710  206.5170  151.3760 C   0  0  0  0  0  2  0  0  0  0  0  0
  161.7120  207.9920  151.2720 C   0  0  0  0  0  0  0  0  0  0  0  0
  161.0090  208.0860  153.5970 C   0  0  0  0  0  3  0  0  0  0  0  0
  161.0040  212.1330  150.7680 C   0  0  0  0  0  3  0  0  0  0  0  0
  160.2260  212.2250  153.3360 O   0  0  0  0  0  1  0  0  0  0  0  0
  160.3400  207.0770  156.5820 C   0  0  0  0  0  1  0  0  0  0  0  0
  160.9840  210.1420  152.2320 C   0  0  0  0  0  0  0  0  0  0  0  0
  160.5400  208.8340  154.6660 C   0  0  0  0  0  0  0  0  0  0  0  0
  159.4900  214.4440  149.1950 C   0  0  0  0  0  1  0  0  0  0  0  0
  160.9750  214.2030  149.3880 C   0  0  0  0  0  2  0  0  0  0  0  0
  161.9970  212.5710  147.1230 C   0  0  0  0  0  2  0  0  0  0  0  0
  160.8030  212.5480  146.2940 N   0  0  0  0  0  2  0  0  0  0  0  0
  160.9700  213.5700  145.2750 C   0  0  0  0  0  2  0  0  0  0  0  0
  162.3580  212.7570  143.3390 C   0  0  0  0  0  0  0  0  0  0  0  0
  161.0930  212.9400  143.9720 N   0  0  0  0  0  2  0  0  0  0  0  0
  162.4220  212.1470  142.0940 O   0  0  0  0  0  0  0  0  0  0  0  0
  163.4180  213.1440  143.8990 O   0  0  0  0  0  1  0  0  0  0  0  0
  1 22  1  0  0  0  0
  2  9  1  0  0  0  0
  2  3  1  0  0  0  0
  3 16  1  0  0  0  0
  4  5  1  0  0  0  0
  5 23  2  0  0  0  0
  5 15  1  0  0  0  0
  6 19  2  0  0  0  0
  7 10  1  0  0  0  0
  8 21  1  0  0  0  0
  8 13  2  0  0  0  0
  9 11  1  0  0  0  0
 10 11  1  0  0  0  0
 10  1  2  0  0  0  0
 11 17  2  0  0  0  0
 12 18  2  0  0  0  0
 14  7  2  0  0  0  0
 14  6  1  0  0  0  0
 15 13  1  0  0  0  0
 17 16  1  0  0  0  0
 17 12  1  0  0  0  0
 18 23  1  0  0  0  0
 19  1  1  0  0  0  0
 20  4  1  0  0  0  0
 22 12  1  0  0  0  0
 22  4  2  0  0  0  0
 23  8  1  0  0  0  0
 24 25  1  0  0  0  0
 25  6  1  0  0  0  0
 26 14  1  0  0  0  0
 27 26  1  0  0  0  0
 28 27  1  0  0  0  0
 29 32  1  0  0  0  0
 29 30  1  0  0  0  0
 30 28  1  0  0  0  0
 31 29  2  0  0  0  0
M  END
>  <MODEL>
3

>  <REMARK>
 VINA RESULT:      -6.9      4.160      7.613
  Name = 
  5 active torsions:
  status: ('A' for Active; 'I' for Inactive)
    1  A    between atoms: N_2  and  C_12
    2  A    between atoms: N_2  and  C_24
    3  A    between atoms: C_8  and  C_23
    4  A    between atoms: N_10  and  C_24
    5  A    between atoms: C_12  and  C_21
                            x       y       z     vdW  Elec       q    Type
                         _______ _______ _______ _____ _____    ______ ____

>  <TORSDO>
F 5

$$$$
=
 OpenBabel11062410443D

 32 36  0  0  0  0  0  0  0  0999 V2000
  161.5020  207.4150  149.3070 C   0  0  0  0  0  0  0  0  0  0  0  0
  161.4510  205.2020  153.8360 S   0  0  0  0  0  0  0  0  0  0  0  0
  161.3050  203.7360  152.7300 C   0  0  0  0  0  2  0  0  0  0  0  0
  161.7030  206.0100  147.2390 C   0  0  0  0  0  0  0  0  0  0  0  0
  161.5920  204.7440  146.6690 C   0  0  0  0  0  0  0  0  0  0  0  0
  161.9570  209.8200  149.2950 C   0  0  0  0  0  0  0  0  0  0  0  0
  161.2930  208.7330  151.3500 C   0  0  0  0  0  3  0  0  0  0  0  0
  161.2060  202.5280  146.5050 C   0  0  0  0  0  0  0  0  0  0  0  0
  160.4770  206.4120  152.8650 C   0  0  0  0  0  2  0  0  0  0  0  0
  161.2030  207.4970  150.6920 C   0  0  0  0  0  0  0  0  0  0  0  0
  160.8230  206.3480  151.4040 C   0  0  0  0  0  0  0  0  0  0  0  0
  161.0210  205.0050  149.3840 C   0  0  0  0  0  0  0  0  0  0  0  0
  161.5460  202.8760  145.3050 N   0  0  0  0  0  0  0  0  0  0  0  0
  161.6720  209.8890  150.6670 C   0  0  0  0  0  0  0  0  0  0  0  0
  161.8320  204.3140  145.2600 C   0  0  0  0  0  3  0  0  0  0  0  0
  160.3320  203.9190  151.5710 C   0  0  0  0  0  2  0  0  0  0  0  0
  160.7310  205.1140  150.7550 C   0  0  0  0  0  0  0  0  0  0  0  0
  160.9250  203.7480  148.7530 C   0  0  0  0  0  3  0  0  0  0  0  0
  161.8760  208.5910  148.6360 C   0  0  0  0  0  2  0  0  0  0  0  0
  162.0920  207.0740  146.4320 O   0  0  0  0  0  1  0  0  0  0  0  0
  160.8540  201.1310  146.8770 C   0  0  0  0  0  1  0  0  0  0  0  0
  161.4150  206.1640  148.6330 C   0  0  0  0  0  0  0  0  0  0  0  0
  161.2170  203.6590  147.4010 C   0  0  0  0  0  0  0  0  0  0  0  0
  161.1690  211.6590  147.8490 C   0  0  0  0  0  1  0  0  0  0  0  0
  162.3740  211.0270  148.5190 C   0  0  0  0  0  2  0  0  0  0  0  0
  161.7260  211.1830  151.4160 C   0  0  0  0  0  2  0  0  0  0  0  0
  160.3900  211.5690  151.8420 N   0  0  0  0  0  2  0  0  0  0  0  0
  160.4550  211.8280  153.2690 C   0  0  0  0  0  2  0  0  0  0  0  0
  160.6790  209.8400  154.7980 C   0  0  0  0  0  0  0  0  0  0  0  0
  159.8810  210.7050  153.9910 N   0  0  0  0  0  2  0  0  0  0  0  0
  160.0810  208.7820  155.4690 O   0  0  0  0  0  1  0  0  0  0  0  0
  161.9200  210.0270  154.9060 O   0  0  0  0  0  0  0  0  0  0  0  0
  1 10  1  0  0  0  0
  3  2  1  0  0  0  0
  4 22  1  0  0  0  0
  5  4  2  0  0  0  0
  5 23  1  0  0  0  0
  6 14  2  0  0  0  0
  8 21  1  0  0  0  0
  8 23  2  0  0  0  0
  9  2  1  0  0  0  0
 10  7  2  0  0  0  0
 10 11  1  0  0  0  0
 11  9  1  0  0  0  0
 12 17  1  0  0  0  0
 13  8  1  0  0  0  0
 14  7  1  0  0  0  0
 14 26  1  0  0  0  0
 15 13  2  0  0  0  0
 15  5  1  0  0  0  0
 16  3  1  0  0  0  0
 17 11  2  0  0  0  0
 17 16  1  0  0  0  0
 18 12  2  0  0  0  0
 19  6  1  0  0  0  0
 19  1  1  0  0  0  0
 20  4  1  0  0  0  0
 22  1  2  0  0  0  0
 22 12  1  0  0  0  0
 23 18  1  0  0  0  0
 24 25  1  0  0  0  0
 25  6  1  0  0  0  0
 26 27  1  0  0  0  0
 27 28  1  0  0  0  0
 28 30  1  0  0  0  0
 29 32  2  0  0  0  0
 29 31  1  0  0  0  0
 30 29  1  0  0  0  0
M  END
>  <MODEL>
4

>  <REMARK>
 VINA RESULT:      -6.6      2.507      4.721
  Name = 
  5 active torsions:
  status: ('A' for Active; 'I' for Inactive)
    1  A    between atoms: N_2  and  C_12
    2  A    between atoms: N_2  and  C_24
    3  A    between atoms: C_8  and  C_23
    4  A    between atoms: N_10  and  C_24
    5  A    between atoms: C_12  and  C_21
                            x       y       z     vdW  Elec       q    Type
                         _______ _______ _______ _____ _____    ______ ____

>  <TORSDO>
F 5

$$$$
=
 OpenBabel11062410443D

 32 36  0  0  0  0  0  0  0  0999 V2000
  161.5090  207.6750  149.3440 C   0  0  0  0  0  0  0  0  0  0  0  0
  161.6070  205.9310  154.0730 S   0  0  0  0  0  0  0  0  0  0  0  0
  161.4680  204.3580  153.1230 C   0  0  0  0  0  2  0  0  0  0  0  0
  161.6960  206.0720  147.4240 C   0  0  0  0  0  0  0  0  0  0  0  0
  161.5990  204.7530  146.9870 C   0  0  0  0  0  0  0  0  0  0  0  0
  161.9120  210.0750  149.0780 C   0  0  0  0  0  0  0  0  0  0  0  0
  161.3170  209.1890  151.2480 C   0  0  0  0  0  3  0  0  0  0  0  0
  161.2570  202.5240  147.0560 C   0  0  0  0  0  0  0  0  0  0  0  0
  160.5860  207.0170  153.0080 C   0  0  0  0  0  2  0  0  0  0  0  0
  161.2400  207.8900  150.7200 C   0  0  0  0  0  0  0  0  0  0  0  0
  160.9010  206.8130  151.5540 C   0  0  0  0  0  0  0  0  0  0  0  0
  161.0830  205.2760  149.6750 C   0  0  0  0  0  0  0  0  0  0  0  0
  161.5630  202.7560  145.8190 N   0  0  0  0  0  0  0  0  0  0  0  0
  161.6560  210.2770  150.4430 C   0  0  0  0  0  0  0  0  0  0  0  0
  161.8170  204.1880  145.6220 C   0  0  0  0  0  3  0  0  0  0  0  0
  160.4660  204.4040  151.9760 C   0  0  0  0  0  2  0  0  0  0  0  0
  160.8210  205.5170  151.0340 C   0  0  0  0  0  0  0  0  0  0  0  0
  161.0000  203.9600  149.1760 C   0  0  0  0  0  3  0  0  0  0  0  0
  161.8430  208.7840  148.5480 C   0  0  0  0  0  2  0  0  0  0  0  0
  162.0430  207.0560  146.5040 O   0  0  0  0  0  1  0  0  0  0  0  0
  160.9440  201.1650  147.5750 C   0  0  0  0  0  1  0  0  0  0  0  0
  161.4350  206.3610  148.8020 C   0  0  0  0  0  0  0  0  0  0  0  0
  161.2640  203.7410  147.8330 C   0  0  0  0  0  0  0  0  0  0  0  0
  161.0390  211.8330  147.5820 C   0  0  0  0  0  1  0  0  0  0  0  0
  162.2850  211.2040  148.1750 C   0  0  0  0  0  2  0  0  0  0  0  0
  161.6980  211.6400  151.0570 C   0  0  0  0  0  2  0  0  0  0  0  0
  160.3470  212.1280  151.2840 N   0  0  0  0  0  2  0  0  0  0  0  0
  160.1390  212.1560  152.7210 C   0  0  0  0  0  2  0  0  0  0  0  0
  158.2120  211.4690  154.1870 C   0  0  0  0  0  0  0  0  0  0  0  0
  158.7160  212.0890  153.0050 N   0  0  0  0  0  2  0  0  0  0  0  0
  156.8420  211.4330  154.4130 O   0  0  0  0  0  0  0  0  0  0  0  0
  158.9960  210.9540  155.0260 O   0  0  0  0  0  1  0  0  0  0  0  0
  1 10  1  0  0  0  0
  3  2  1  0  0  0  0
  4 22  1  0  0  0  0
  5  4  2  0  0  0  0
  5 23  1  0  0  0  0
  6 14  2  0  0  0  0
  8 21  1  0  0  0  0
  8 23  2  0  0  0  0
  9  2  1  0  0  0  0
 10  7  2  0  0  0  0
 10 11  1  0  0  0  0
 11  9  1  0  0  0  0
 12 17  1  0  0  0  0
 13  8  1  0  0  0  0
 14 26  1  0  0  0  0
 14  7  1  0  0  0  0
 15 13  2  0  0  0  0
 15  5  1  0  0  0  0
 16  3  1  0  0  0  0
 17 11  2  0  0  0  0
 17 16  1  0  0  0  0
 18 12  2  0  0  0  0
 19  6  1  0  0  0  0
 19  1  1  0  0  0  0
 20  4  1  0  0  0  0
 22  1  2  0  0  0  0
 22 12  1  0  0  0  0
 23 18  1  0  0  0  0
 24 25  1  0  0  0  0
 25  6  1  0  0  0  0
 26 27  1  0  0  0  0
 27 28  1  0  0  0  0
 28 30  1  0  0  0  0
 29 31  2  0  0  0  0
 29 32  1  0  0  0  0
 30 29  1  0  0  0  0
M  END
>  <MODEL>
5

>  <REMARK>
 VINA RESULT:      -6.6      2.556      4.575
  Name = 
  5 active torsions:
  status: ('A' for Active; 'I' for Inactive)
    1  A    between atoms: N_2  and  C_12
    2  A    between atoms: N_2  and  C_24
    3  A    between atoms: C_8  and  C_23
    4  A    between atoms: N_10  and  C_24
    5  A    between atoms: C_12  and  C_21
                            x       y       z     vdW  Elec       q    Type
                         _______ _______ _______ _____ _____    ______ ____

>  <TORSDO>
F 5

$$$$
=
 OpenBabel11062410443D

 32 36  0  0  0  0  0  0  0  0999 V2000
  161.5170  207.6680  149.3540 C   0  0  0  0  0  0  0  0  0  0  0  0
  161.5810  205.8280  154.0470 S   0  0  0  0  0  0  0  0  0  0  0  0
  161.4310  204.2760  153.0650 C   0  0  0  0  0  2  0  0  0  0  0  0
  161.6940  206.1030  147.4020 C   0  0  0  0  0  0  0  0  0  0  0  0
  161.5860  204.7940  146.9380 C   0  0  0  0  0  0  0  0  0  0  0  0
  161.9440  210.0690  149.1380 C   0  0  0  0  0  0  0  0  0  0  0  0
  161.3320  209.1450  151.2880 C   0  0  0  0  0  3  0  0  0  0  0  0
  161.2240  202.5680  146.9610 C   0  0  0  0  0  0  0  0  0  0  0  0
  160.5740  206.9450  153.0010 C   0  0  0  0  0  2  0  0  0  0  0  0
  161.2450  207.8590  150.7330 C   0  0  0  0  0  0  0  0  0  0  0  0
  160.8930  206.7680  151.5440 C   0  0  0  0  0  0  0  0  0  0  0  0
  161.0660  205.2680  149.6350 C   0  0  0  0  0  0  0  0  0  0  0  0
  161.5360  202.8220  145.7300 N   0  0  0  0  0  0  0  0  0  0  0  0
  161.6850  210.2460  150.5070 C   0  0  0  0  0  0  0  0  0  0  0  0
  161.8040  204.2540  145.5630 C   0  0  0  0  0  3  0  0  0  0  0  0
  160.4330  204.3550  151.9160 C   0  0  0  0  0  2  0  0  0  0  0  0
  160.8020  205.4840  150.9980 C   0  0  0  0  0  0  0  0  0  0  0  0
  160.9730  203.9630  149.1090 C   0  0  0  0  0  3  0  0  0  0  0  0
  161.8640  208.7900  148.5820 C   0  0  0  0  0  2  0  0  0  0  0  0
  162.0550  207.1020  146.5040 O   0  0  0  0  0  1  0  0  0  0  0  0
  160.8960  201.2020  147.4510 C   0  0  0  0  0  1  0  0  0  0  0  0
  161.4320  206.3660  148.7850 C   0  0  0  0  0  0  0  0  0  0  0  0
  161.2390  203.7680  147.7630 C   0  0  0  0  0  0  0  0  0  0  0  0
  161.1050  211.7800  147.5680 C   0  0  0  0  0  1  0  0  0  0  0  0
  162.3310  211.2130  148.2600 C   0  0  0  0  0  2  0  0  0  0  0  0
  161.7380  211.5960  151.1470 C   0  0  0  0  0  2  0  0  0  0  0  0
  160.4610  211.9030  151.7710 N   0  0  0  0  0  2  0  0  0  0  0  0
  159.9800  213.1370  151.1750 C   0  0  0  0  0  2  0  0  0  0  0  0
  157.9520  213.4560  149.7180 C   0  0  0  0  0  0  0  0  0  0  0  0
  158.5490  213.0380  150.9450 N   0  0  0  0  0  2  0  0  0  0  0  0
  156.5790  213.3380  149.5480 O   0  0  0  0  0  1  0  0  0  0  0  0
  158.6570  213.9310  148.7900 O   0  0  0  0  0  0  0  0  0  0  0  0
  1 10  1  0  0  0  0
  3  2  1  0  0  0  0
  4 22  1  0  0  0  0
  5  4  2  0  0  0  0
  5 23  1  0  0  0  0
  6 14  2  0  0  0  0
  8 21  1  0  0  0  0
  8 23  2  0  0  0  0
  9  2  1  0  0  0  0
 10  7  2  0  0  0  0
 10 11  1  0  0  0  0
 11  9  1  0  0  0  0
 12 17  1  0  0  0  0
 13  8  1  0  0  0  0
 14 26  1  0  0  0  0
 14  7  1  0  0  0  0
 15 13  2  0  0  0  0
 15  5  1  0  0  0  0
 16  3  1  0  0  0  0
 17 11  2  0  0  0  0
 17 16  1  0  0  0  0
 18 12  2  0  0  0  0
 19  6  1  0  0  0  0
 19  1  1  0  0  0  0
 20  4  1  0  0  0  0
 22  1  2  0  0  0  0
 22 12  1  0  0  0  0
 23 18  1  0  0  0  0
 24 25  1  0  0  0  0
 25  6  1  0  0  0  0
 26 27  1  0  0  0  0
 28 27  1  0  0  0  0
 29 30  1  0  0  0  0
 30 28  1  0  0  0  0
 31 29  1  0  0  0  0
 32 29  2  0  0  0  0
M  END
>  <MODEL>
6

>  <REMARK>
 VINA RESULT:      -6.5      2.794      4.733
  Name = 
  5 active torsions:
  status: ('A' for Active; 'I' for Inactive)
    1  A    between atoms: N_2  and  C_12
    2  A    between atoms: N_2  and  C_24
    3  A    between atoms: C_8  and  C_23
    4  A    between atoms: N_10  and  C_24
    5  A    between atoms: C_12  and  C_21
                            x       y       z     vdW  Elec       q    Type
                         _______ _______ _______ _____ _____    ______ ____

>  <TORSDO>
F 5

$$$$
=
 OpenBabel11062410443D

 32 36  0  0  0  0  0  0  0  0999 V2000
  161.1520  206.1970  150.5350 C   0  0  0  0  0  0  0  0  0  0  0  0
  162.0490  201.4820  152.0770 S   0  0  0  0  0  0  0  0  0  0  0  0
  161.8210  201.2200  150.2680 C   0  0  0  0  0  2  0  0  0  0  0  0
  161.0940  206.7120  148.0810 C   0  0  0  0  0  0  0  0  0  0  0  0
  160.9770  206.2180  146.7840 C   0  0  0  0  0  0  0  0  0  0  0  0
  161.4230  207.9460  152.2250 C   0  0  0  0  0  0  0  0  0  0  0  0
  161.2060  205.6370  152.9100 C   0  0  0  0  0  3  0  0  0  0  0  0
  160.7310  204.7350  145.1030 C   0  0  0  0  0  0  0  0  0  0  0  0
  160.8370  202.8280  152.3430 C   0  0  0  0  0  2  0  0  0  0  0  0
  161.0940  205.2290  151.5720 C   0  0  0  0  0  0  0  0  0  0  0  0
  160.9280  203.8700  151.2640 C   0  0  0  0  0  0  0  0  0  0  0  0
  160.8690  204.3940  148.8880 C   0  0  0  0  0  0  0  0  0  0  0  0
  160.8310  205.8770  144.5010 N   0  0  0  0  0  0  0  0  0  0  0  0
  161.3760  206.9810  153.2440 C   0  0  0  0  0  0  0  0  0  0  0  0
  160.9990  206.9520  145.4850 C   0  0  0  0  0  3  0  0  0  0  0  0
  160.6510  201.9880  149.6650 C   0  0  0  0  0  2  0  0  0  0  0  0
  160.8140  203.4560  149.9330 C   0  0  0  0  0  0  0  0  0  0  0  0
  160.7570  203.9510  147.5540 C   0  0  0  0  0  3  0  0  0  0  0  0
  161.3180  207.5460  150.8920 C   0  0  0  0  0  2  0  0  0  0  0  0
  161.2580  208.0810  148.2620 O   0  0  0  0  0  1  0  0  0  0  0  0
  160.5510  203.4470  144.3790 C   0  0  0  0  0  1  0  0  0  0  0  0
  161.0410  205.7900  149.1760 C   0  0  0  0  0  0  0  0  0  0  0  0
  160.8150  204.8900  146.5360 C   0  0  0  0  0  0  0  0  0  0  0  0
  160.2740  210.1150  152.4930 C   0  0  0  0  0  1  0  0  0  0  0  0
  161.6100  209.3970  152.5290 C   0  0  0  0  0  2  0  0  0  0  0  0
  161.4650  207.3590  154.6880 C   0  0  0  0  0  2  0  0  0  0  0  0
  160.1330  207.5770  155.2300 N   0  0  0  0  0  2  0  0  0  0  0  0
  160.1830  208.8060  156.0030 C   0  0  0  0  0  2  0  0  0  0  0  0
  162.0130  210.5340  156.0400 C   0  0  0  0  0  0  0  0  0  0  0  0
  161.5680  209.1900  156.2130 N   0  0  0  0  0  2  0  0  0  0  0  0
  163.3480  210.8500  156.2550 O   0  0  0  0  0  1  0  0  0  0  0  0
  161.2070  211.4370  155.6930 O   0  0  0  0  0  0  0  0  0  0  0  0
  1 19  1  0  0  0  0
  1 10  1  0  0  0  0
  2  9  1  0  0  0  0
  3  2  1  0  0  0  0
  4 20  1  0  0  0  0
  4 22  1  0  0  0  0
  5  4  2  0  0  0  0
  6 25  1  0  0  0  0
  6 14  2  0  0  0  0
  7 14  1  0  0  0  0
  8 23  2  0  0  0  0
 10  7  2  0  0  0  0
 11 10  1  0  0  0  0
 11  9  1  0  0  0  0
 12 22  1  0  0  0  0
 12 17  1  0  0  0  0
 13  8  1  0  0  0  0
 13 15  2  0  0  0  0
 14 26  1  0  0  0  0
 15  5  1  0  0  0  0
 16 17  1  0  0  0  0
 16  3  1  0  0  0  0
 17 11  2  0  0  0  0
 18 12  2  0  0  0  0
 19  6  1  0  0  0  0
 21  8  1  0  0  0  0
 22  1  2  0  0  0  0
 23  5  1  0  0  0  0
 23 18  1  0  0  0  0
 24 25  1  0  0  0  0
 26 27  1  0  0  0  0
 27 28  1  0  0  0  0
 28 30  1  0  0  0  0
 29 30  1  0  0  0  0
 29 31  1  0  0  0  0
 32 29  2  0  0  0  0
M  END
>  <MODEL>
7

>  <REMARK>
 VINA RESULT:      -6.4      2.979      4.782
  Name = 
  5 active torsions:
  status: ('A' for Active; 'I' for Inactive)
    1  A    between atoms: N_2  and  C_12
    2  A    between atoms: N_2  and  C_24
    3  A    between atoms: C_8  and  C_23
    4  A    between atoms: N_10  and  C_24
    5  A    between atoms: C_12  and  C_21
                            x       y       z     vdW  Elec       q    Type
                         _______ _______ _______ _____ _____    ______ ____

>  <TORSDO>
F 5

$$$$
=
 OpenBabel11062410443D

 32 36  0  0  0  0  0  0  0  0999 V2000
  161.2020  210.7590  150.9500 C   0  0  0  0  0  0  0  0  0  0  0  0
  161.4370  206.3470  148.5210 S   0  0  0  0  0  0  0  0  0  0  0  0
  161.1380  205.7800  150.2490 C   0  0  0  0  0  2  0  0  0  0  0  0
  160.4470  210.8230  153.3410 C   0  0  0  0  0  0  0  0  0  0  0  0
  160.2280  210.1130  154.5180 C   0  0  0  0  0  0  0  0  0  0  0  0
  161.2320  212.7610  149.5410 C   0  0  0  0  0  0  0  0  0  0  0  0
  161.9450  210.6380  148.6280 C   0  0  0  0  0  3  0  0  0  0  0  0
  160.1440  208.3720  155.9500 C   0  0  0  0  0  0  0  0  0  0  0  0
  162.4870  207.8090  148.8610 C   0  0  0  0  0  2  0  0  0  0  0  0
  161.6980  210.0030  149.8560 C   0  0  0  0  0  0  0  0  0  0  0  0
  161.9380  208.6270  149.9950 C   0  0  0  0  0  0  0  0  0  0  0  0
  161.2060  208.7140  152.3150 C   0  0  0  0  0  0  0  0  0  0  0  0
  159.7180  209.3740  156.6510 N   0  0  0  0  0  0  0  0  0  0  0  0
  161.7100  212.0030  148.4600 C   0  0  0  0  0  0  0  0  0  0  0  0
  159.7180  210.5940  155.8360 C   0  0  0  0  0  2  0  0  0  0  0  0
  161.9600  206.5140  151.3010 C   0  0  0  0  0  2  0  0  0  0  0  0
  161.6960  207.9890  151.2160 C   0  0  0  0  0  0  0  0  0  0  0  0
  160.9650  208.0470  153.5330 C   0  0  0  0  0  3  0  0  0  0  0  0
  160.9790  212.1340  150.7630 C   0  0  0  0  0  3  0  0  0  0  0  0
  160.1680  212.1860  153.3220 O   0  0  0  0  0  1  0  0  0  0  0  0
  160.2620  206.9920  156.4940 C   0  0  0  0  0  1  0  0  0  0  0  0
  160.9480  210.1220  152.1970 C   0  0  0  0  0  0  0  0  0  0  0  0
  160.4790  208.7770  154.6060 C   0  0  0  0  0  0  0  0  0  0  0  0
  159.5040  214.4530  149.0500 C   0  0  0  0  0  1  0  0  0  0  0  0
  160.9590  214.2230  149.4120 C   0  0  0  0  0  2  0  0  0  0  0  0
  162.0150  212.6280  147.1370 C   0  0  0  0  0  2  0  0  0  0  0  0
  160.8420  212.5790  146.2790 N   0  0  0  0  0  2  0  0  0  0  0  0
  160.9910  213.6330  145.2900 C   0  0  0  0  0  2  0  0  0  0  0  0
  158.8910  213.8310  143.9180 C   0  0  0  0  0  0  0  0  0  0  0  0
  159.6960  214.2340  145.0240 N   0  0  0  0  0  2  0  0  0  0  0  0
  157.6590  214.4350  143.7080 O   0  0  0  0  0  1  0  0  0  0  0  0
  159.2870  212.9330  143.1280 O   0  0  0  0  0  0  0  0  0  0  0  0
  1 22  1  0  0  0  0
  2  9  1  0  0  0  0
  2  3  1  0  0  0  0
  3 16  1  0  0  0  0
  4  5  1  0  0  0  0
  5 23  2  0  0  0  0
  5 15  1  0  0  0  0
  6 19  2  0  0  0  0
  7 10  1  0  0  0  0
  8 21  1  0  0  0  0
  8 13  2  0  0  0  0
  9 11  1  0  0  0  0
 10 11  1  0  0  0  0
 10  1  2  0  0  0  0
 11 17  2  0  0  0  0
 12 18  2  0  0  0  0
 14  7  2  0  0  0  0
 14  6  1  0  0  0  0
 15 13  1  0  0  0  0
 17 16  1  0  0  0  0
 17 12  1  0  0  0  0
 18 23  1  0  0  0  0
 19  1  1  0  0  0  0
 20  4  1  0  0  0  0
 22 12  1  0  0  0  0
 22  4  2  0  0  0  0
 23  8  1  0  0  0  0
 24 25  1  0  0  0  0
 25  6  1  0  0  0  0
 26 14  1  0  0  0  0
 27 26  1  0  0  0  0
 28 27  1  0  0  0  0
 29 30  1  0  0  0  0
 30 28  1  0  0  0  0
 31 29  1  0  0  0  0
 32 29  2  0  0  0  0
M  END
>  <MODEL>
8

>  <REMARK>
 VINA RESULT:      -6.2      3.950      7.414
  Name = 
  5 active torsions:
  status: ('A' for Active; 'I' for Inactive)
    1  A    between atoms: N_2  and  C_12
    2  A    between atoms: N_2  and  C_24
    3  A    between atoms: C_8  and  C_23
    4  A    between atoms: N_10  and  C_24
    5  A    between atoms: C_12  and  C_21
                            x       y       z     vdW  Elec       q    Type
                         _______ _______ _______ _____ _____    ______ ____

>  <TORSDO>
F 5

$$$$
=
 OpenBabel11062410443D

 32 36  0  0  0  0  0  0  0  0999 V2000
  161.4120  207.2580  150.5600 C   0  0  0  0  0  0  0  0  0  0  0  0
  160.0790  202.3970  150.4640 S   0  0  0  0  0  0  0  0  0  0  0  0
  159.9730  202.7520  152.2690 C   0  0  0  0  0  2  0  0  0  0  0  0
  161.1530  208.5750  152.6780 C   0  0  0  0  0  0  0  0  0  0  0  0
  160.9860  208.5490  154.0600 C   0  0  0  0  0  0  0  0  0  0  0  0
  161.6800  208.3380  148.3800 C   0  0  0  0  0  0  0  0  0  0  0  0
  161.6570  205.9250  148.5300 C   0  0  0  0  0  3  0  0  0  0  0  0
  160.7350  207.7160  156.1420 C   0  0  0  0  0  0  0  0  0  0  0  0
  161.5060  203.4600  150.0300 C   0  0  0  0  0  2  0  0  0  0  0  0
  161.4910  205.9920  149.9220 C   0  0  0  0  0  0  0  0  0  0  0  0
  161.4000  204.8120  150.6770 C   0  0  0  0  0  0  0  0  0  0  0  0
  161.1560  206.1110  152.7200 C   0  0  0  0  0  0  0  0  0  0  0  0
  160.7110  208.9990  156.3130 N   0  0  0  0  0  0  0  0  0  0  0  0
  161.7450  207.0820  147.7560 C   0  0  0  0  0  0  0  0  0  0  0  0
  160.8660  209.6820  155.0240 C   0  0  0  0  0  2  0  0  0  0  0  0
  161.1330  203.5760  152.8150 C   0  0  0  0  0  2  0  0  0  0  0  0
  161.2370  204.8710  152.0640 C   0  0  0  0  0  0  0  0  0  0  0  0
  160.9850  206.1450  154.1190 C   0  0  0  0  0  3  0  0  0  0  0  0
  161.5090  208.4120  149.7640 C   0  0  0  0  0  3  0  0  0  0  0  0
  161.2270  209.8090  152.0390 O   0  0  0  0  0  1  0  0  0  0  0  0
  160.6020  206.7440  157.2610 C   0  0  0  0  0  1  0  0  0  0  0  0
  161.2420  207.3340  151.9710 C   0  0  0  0  0  0  0  0  0  0  0  0
  160.9060  207.3770  154.7490 C   0  0  0  0  0  0  0  0  0  0  0  0
  161.9020  210.7920  148.5340 C   0  0  0  0  0  1  0  0  0  0  0  0
  161.7630  209.6070  147.5970 C   0  0  0  0  0  2  0  0  0  0  0  0
  161.9460  206.9480  146.2810 C   0  0  0  0  0  2  0  0  0  0  0  0
  160.7770  206.3340  145.6710 N   0  0  0  0  0  2  0  0  0  0  0  0
  161.2500  205.5230  144.5630 C   0  0  0  0  0  2  0  0  0  0  0  0
  161.1430  203.1870  145.4960 C   0  0  0  0  0  0  0  0  0  0  0  0
  160.6400  204.2060  144.6330 N   0  0  0  0  0  2  0  0  0  0  0  0
  160.5230  201.9450  145.5270 O   0  0  0  0  0  0  0  0  0  0  0  0
  162.1440  203.4030  146.2290 O   0  0  0  0  0  1  0  0  0  0  0  0
  1 22  1  0  0  0  0
  2  3  1  0  0  0  0
  3 16  1  0  0  0  0
  4  5  1  0  0  0  0
  5 23  2  0  0  0  0
  5 15  1  0  0  0  0
  6 19  1  0  0  0  0
  7 10  2  0  0  0  0
  8 13  2  0  0  0  0
  8 21  1  0  0  0  0
  9  2  1  0  0  0  0
  9 11  1  0  0  0  0
 10  1  1  0  0  0  0
 10 11  1  0  0  0  0
 11 17  2  0  0  0  0
 12 18  2  0  0  0  0
 14  6  2  0  0  0  0
 14  7  1  0  0  0  0
 15 13  1  0  0  0  0
 17 12  1  0  0  0  0
 17 16  1  0  0  0  0
 18 23  1  0  0  0  0
 19  1  2  0  0  0  0
 20  4  1  0  0  0  0
 22  4  2  0  0  0  0
 22 12  1  0  0  0  0
 23  8  1  0  0  0  0
 25  6  1  0  0  0  0
 25 24  1  0  0  0  0
 26 14  1  0  0  0  0
 27 26  1  0  0  0  0
 28 30  1  0  0  0  0
 28 27  1  0  0  0  0
 29 31  2  0  0  0  0
 29 32  1  0  0  0  0
 30 29  1  0  0  0  0
M  END
>  <MODEL>
9

>  <REMARK>
 VINA RESULT:      -6.2      2.926      8.130
  Name = 
  5 active torsions:
  status: ('A' for Active; 'I' for Inactive)
    1  A    between atoms: N_2  and  C_12
    2  A    between atoms: N_2  and  C_24
    3  A    between atoms: C_8  and  C_23
    4  A    between atoms: N_10  and  C_24
    5  A    between atoms: C_12  and  C_21
                            x       y       z     vdW  Elec       q    Type
                         _______ _______ _______ _____ _____    ______ ____

>  <TORSDO>
F 5

$$$$
