=
 OpenBabel11062408443D

 55 60  0  0  1  0  0  0  0  0999 V2000
  162.0420  205.4360  147.6300 C   0  0  0  0  0  3  0  0  0  0  0  0
  161.3460  205.4010  144.9170 C   0  0  0  0  0  0  0  0  0  0  0  0
  161.0570  206.5250  145.7010 C   0  0  0  0  0  3  0  0  0  0  0  0
  162.3320  204.3170  146.8470 C   0  0  0  0  0  3  0  0  0  0  0  0
  161.4100  206.5450  147.0590 C   0  0  0  0  0  0  0  0  0  0  0  0
  161.9910  204.3020  145.4900 C   0  0  0  0  0  3  0  0  0  0  0  0
  161.1240  207.7360  147.9080 C   0  0  0  0  0  2  0  0  0  0  0  0
  160.4970  208.0390  154.1310 C   0  0  0  0  0  3  0  0  0  0  0  0
  160.4910  208.9440  155.1980 C   0  0  0  0  0  3  0  0  0  0  0  0
  161.4490  209.7440  152.6910 C   0  0  0  0  0  0  0  0  0  0  0  0
  161.4450  210.6440  153.7630 C   0  0  0  0  0  3  0  0  0  0  0  0
  160.9680  210.2460  155.0150 C   0  0  0  0  0  3  0  0  0  0  0  0
  160.9780  208.4310  152.8750 C   0  0  0  0  0  0  0  0  0  0  0  0
  160.9450  207.3340  149.3370 C   0  0  0  0  0  3  0  0  0  0  0  0
  161.8540  209.4430  150.3360 C   0  0  0  0  0  0  0  0  0  0  0  0
  161.9040  210.1810  151.4070 N   0  0  0  0  0  0  0  0  0  0  0  0
  161.0270  207.4310  151.7520 C   0  0  1  0  0  3  0  0  0  0  0  0
  161.2830  208.0630  150.4080 C   0  0  0  0  0  0  0  0  0  0  0  0
  162.3080  209.9850  149.0910 N   0  0  0  0  0  2  0  0  0  0  0  0
  163.3980  211.6800  147.6930 C   0  0  0  0  0  2  0  0  0  0  0  0
  161.7010  213.1700  147.5220 C   0  0  1  0  0  3  0  0  0  0  0  0
  162.4870  211.4140  148.8620 C   0  0  1  0  0  3  0  0  0  0  0  0
  161.2130  212.0220  148.3930 C   0  0  0  0  0  2  0  0  0  0  0  0
  163.0320  212.9120  147.1220 O   0  0  0  0  0  0  0  0  0  0  0  0
  160.8480  213.3590  146.3450 N   0  0  0  0  0  0  0  0  0  0  0  0
  159.6490  214.0820  146.7510 C   0  0  0  0  0  1  0  0  0  0  0  0
  161.5380  214.2180  145.4730 N   0  0  0  0  0  1  0  0  0  0  0  0
  162.0020  206.4590  152.0130 O   0  0  0  0  0  0  0  0  0  0  0  0
  161.2450  204.7970  153.5620 C   0  0  0  0  0  1  0  0  0  0  0  0
  161.3000  205.2500  152.1130 C   0  0  2  0  0  3  0  0  0  0  0  0
  161.9200  204.1740  151.2190 C   0  0  0  0  0  2  0  0  0  0  0  0
  160.8820  203.4900  150.3370 C   0  0  0  0  0  1  0  0  0  0  0  0
  161.0380  205.3930  143.4590 C   0  0  0  0  0  2  0  0  0  0  0  0
  162.1600  205.7770  142.7170 O   0  0  0  0  0  0  0  0  0  0  0  0
  161.6320  206.4170  141.5990 C   0  0  0  0  0  2  0  0  0  0  0  0
  162.7160  206.5840  140.5480 C   0  0  0  0  0  2  0  0  0  0  0  0
  162.0860  206.8610  139.1950 C   0  0  0  0  0  2  0  0  0  0  0  0
  161.2450  207.9800  139.2920 O   0  0  0  0  0  0  0  0  0  0  0  0
  162.3770  208.2470  137.3070 F   0  0  0  0  0  0  0  0  0  0  0  0
  161.3090  208.6980  138.0790 C   0  0  0  0  0  0  0  0  0  0  0  0
  160.1350  208.5170  137.3590 F   0  0  0  0  0  0  0  0  0  0  0  0
  159.2250  211.0790  139.1360 C   0  0  0  0  0  0  0  0  0  0  0  0
  163.3380  210.0420  139.9610 F   0  0  0  0  0  0  0  0  0  0  0  0
  161.5270  210.2010  138.3880 C   0  0  1  0  0  0  0  0  0  0  0  0
  161.8850  212.2730  142.5730 C   0  0  0  0  0  2  0  0  0  0  0  0
  161.2770  209.6640  140.7410 F   0  0  0  0  0  0  0  0  0  0  0  0
  162.0160  210.4430  139.8510 C   0  0  0  0  0  0  0  0  0  0  0  0
  158.3810  210.2060  139.2580 O   0  0  0  0  0  0  0  0  0  0  0  0
  161.4770  213.3930  141.8130 O   0  0  0  0  0  0  0  0  0  0  0  0
  161.1900  212.1260  141.2820 C   0  0  1  0  0  0  0  0  0  0  0  0
  159.2610  212.2350  140.0840 C   0  0  0  0  0  2  0  0  0  0  0  0
  161.9660  211.8380  140.1340 O   0  0  0  0  0  0  0  0  0  0  0  0
  162.5240  210.6690  137.5260 O   0  0  0  0  0  1  0  0  0  0  0  0
  159.8110  211.8280  141.3080 O   0  0  0  0  0  0  0  0  0  0  0  0
  160.2480  211.0020  138.0440 C   0  0  0  0  0  2  0  0  0  0  0  0
  2  6  2  0  0  0  0
  2  3  1  0  0  0  0
  3  5  2  0  0  0  0
  4  1  2  0  0  0  0
  5  1  1  0  0  0  0
  5  7  1  0  0  0  0
  6  4  1  0  0  0  0
  7 14  1  0  0  0  0
  8  9  1  0  0  0  0
 10 13  1  0  0  0  0
 10 11  2  0  0  0  0
 11 12  1  0  0  0  0
 12  9  2  0  0  0  0
 13  8  2  0  0  0  0
 14 18  2  0  0  0  0
 15 18  1  0  0  0  0
 15 16  2  0  0  0  0
 16 10  1  0  0  0  0
 17 28  1  1  0  0  0
 17 13  1  0  0  0  0
 18 17  1  0  0  0  0
 19 15  1  0  0  0  0
 20 22  1  0  0  0  0
 21 25  1  6  0  0  0
 21 23  1  0  0  0  0
 22 19  1  6  0  0  0
 23 22  1  0  0  0  0
 24 21  1  0  0  0  0
 24 20  1  0  0  0  0
 25 26  1  0  0  0  0
 27 25  1  0  0  0  0
 28 30  1  0  0  0  0
 30 29  1  1  0  0  0
 31 30  1  0  0  0  0
 32 31  1  0  0  0  0
 33  2  1  0  0  0  0
 34 33  1  0  0  0  0
 35 34  1  0  0  0  0
 36 35  1  0  0  0  0
 37 38  1  0  0  0  0
 37 36  1  0  0  0  0
 39 40  1  0  0  0  0
 40 44  1  0  0  0  0
 40 38  1  0  0  0  0
 41 40  1  0  0  0  0
 42 48  2  0  0  0  0
 42 51  1  0  0  0  0
 44 53  1  6  0  0  0
 44 47  1  0  0  0  0
 47 43  1  0  0  0  0
 47 52  1  0  0  0  0
 47 46  1  0  0  0  0
 49 45  1  0  0  0  0
 50 54  1  0  0  0  0
 50 49  1  0  0  0  0
 50 45  1  1  0  0  0
 51 54  1  0  0  0  0
 52 50  1  0  0  0  0
 55 44  1  0  0  0  0
 55 42  1  0  0  0  0
M  END
>  <MODEL>
1

>  <REMARK>
 VINA RESULT:      -7.7      0.000      0.000
  Name = 
  15 active torsions:
  status: ('A' for Active; 'I' for Inactive)
    1  A    between atoms: C_2  and  C_28
    2  A    between atoms: C_2  and  C_44
    3  A    between atoms: C_4  and  C_40
    4  A    between atoms: C_6  and  C_20
    5  A    between atoms: C_8  and  O_22
    6  A    between atoms: C_8  and  C_35
    7  A    between atoms: N_10  and  C_32
    8  A    between atoms: O_19  and  C_40
    9  A    between atoms: O_19  and  C_45
   10  A    between atoms: C_20  and  O_22
   11  A    between atoms: C_27  and  C_54
   12  A    between atoms: C_34  and  N_52
   13  A    between atoms: C_35  and  C_43
   14  A    between atoms: C_43  and  O_51
   15  A    between atoms: O_51  and  C_54
                            x       y       z     vdW  Elec       q    Type
                         _______ _______ _______ _____ _____    ______ ____

>  <TORSDO>
F 15

$$$$
=
 OpenBabel11062408443D

 55 60  0  0  1  0  0  0  0  0999 V2000
  160.7160  212.9150  149.6110 C   0  0  0  0  0  3  0  0  0  0  0  0
  161.1150  212.9320  146.8390 C   0  0  0  0  0  0  0  0  0  0  0  0
  161.6150  211.8780  147.6130 C   0  0  0  0  0  3  0  0  0  0  0  0
  160.2140  213.9640  148.8380 C   0  0  0  0  0  3  0  0  0  0  0  0
  161.4120  211.8670  149.0020 C   0  0  0  0  0  0  0  0  0  0  0  0
  160.4070  213.9690  147.4520 C   0  0  0  0  0  3  0  0  0  0  0  0
  161.9250  210.7480  149.8420 C   0  0  0  0  0  2  0  0  0  0  0  0
  160.3070  209.2920  155.7130 C   0  0  0  0  0  3  0  0  0  0  0  0
  160.2570  208.2200  156.6120 C   0  0  0  0  0  3  0  0  0  0  0  0
  160.6440  207.7380  153.8810 C   0  0  0  0  0  0  0  0  0  0  0  0
  160.5870  206.6690  154.7830 C   0  0  0  0  0  3  0  0  0  0  0  0
  160.3930  206.9090  156.1470 C   0  0  0  0  0  3  0  0  0  0  0  0
  160.4970  209.0580  154.3450 C   0  0  0  0  0  0  0  0  0  0  0  0
  161.4100  210.8610  151.2410 C   0  0  0  0  0  3  0  0  0  0  0  0
  161.0440  208.4100  151.6040 C   0  0  0  0  0  0  0  0  0  0  0  0
  160.8820  207.4760  152.4950 N   0  0  0  0  0  0  0  0  0  0  0  0
  160.4970  210.2160  153.3850 C   0  0  1  0  0  3  0  0  0  0  0  0
  160.9990  209.8470  152.0130 C   0  0  0  0  0  0  0  0  0  0  0  0
  161.3070  208.0430  150.2440 N   0  0  0  0  0  2  0  0  0  0  0  0
  160.6300  205.7220  149.8350 C   0  0  0  0  0  2  0  0  0  0  0  0
  161.8800  205.2870  147.9960 C   0  0  1  0  0  3  0  0  0  0  0  0
  161.7630  206.7140  149.8530 C   0  0  1  0  0  3  0  0  0  0  0  0
  162.1830  206.7140  148.4260 C   0  0  0  0  0  2  0  0  0  0  0  0
  160.9300  204.7310  148.8830 O   0  0  0  0  0  0  0  0  0  0  0  0
  161.3800  205.2290  146.6190 N   0  0  0  0  0  0  0  0  0  0  0  0
  162.3860  205.8030  145.7350 C   0  0  0  0  0  1  0  0  0  0  0  0
  161.2930  203.8710  146.2730 N   0  0  0  0  0  1  0  0  0  0  0  0
  159.2100  210.7630  153.2880 O   0  0  0  0  0  0  0  0  0  0  0  0
  157.6390  211.5350  154.9230 C   0  0  0  0  0  1  0  0  0  0  0  0
  159.0710  211.5800  154.4180 C   0  0  2  0  0  3  0  0  0  0  0  0
  159.5080  213.0170  154.1190 C   0  0  0  0  0  2  0  0  0  0  0  0
  158.8530  213.5660  152.8570 C   0  0  0  0  0  1  0  0  0  0  0  0
  161.2640  212.9220  145.3560 C   0  0  0  0  0  2  0  0  0  0  0  0
  160.0270  212.7130  144.7380 O   0  0  0  0  0  0  0  0  0  0  0  0
  160.3510  212.2630  143.4600 C   0  0  0  0  0  2  0  0  0  0  0  0
  161.4750  213.1110  142.8910 C   0  0  0  0  0  2  0  0  0  0  0  0
  162.4390  212.2360  142.1110 C   0  0  0  0  0  2  0  0  0  0  0  0
  162.3850  212.5790  140.7510 O   0  0  0  0  0  0  0  0  0  0  0  0
  163.6120  211.0690  139.5240 F   0  0  0  0  0  0  0  0  0  0  0  0
  162.3390  211.3920  139.9880 C   0  0  0  0  0  0  0  0  0  0  0  0
  161.8740  210.3440  140.7710 F   0  0  0  0  0  0  0  0  0  0  0  0
  161.0600  209.2630  137.7610 C   0  0  0  0  0  0  0  0  0  0  0  0
  159.5870  212.7590  139.8290 F   0  0  0  0  0  0  0  0  0  0  0  0
  161.4100  211.6080  138.7670 C   0  0  1  0  0  0  0  0  0  0  0  0
  156.8320  210.6830  138.4110 C   0  0  0  0  0  2  0  0  0  0  0  0
  159.6400  210.5340  140.0320 F   0  0  0  0  0  0  0  0  0  0  0  0
  159.8980  211.5880  139.1560 C   0  0  0  0  0  0  0  0  0  0  0  0
  161.5400  208.3640  138.4320 O   0  0  0  0  0  0  0  0  0  0  0  0
  157.1670  210.6440  137.0380 O   0  0  0  0  0  0  0  0  0  0  0  0
  158.2150  210.4580  137.9520 C   0  0  1  0  0  0  0  0  0  0  0  0
  159.7640  209.0650  137.0430 C   0  0  0  0  0  2  0  0  0  0  0  0
  159.1110  211.5530  137.9700 O   0  0  0  0  0  0  0  0  0  0  0  0
  161.6950  212.8710  138.2380 O   0  0  0  0  0  1  0  0  0  0  0  0
  158.7010  209.1330  137.9560 O   0  0  0  0  0  0  0  0  0  0  0  0
  161.7550  210.5870  137.6550 C   0  0  0  0  0  2  0  0  0  0  0  0
  2  6  2  0  0  0  0
  2  3  1  0  0  0  0
  3  5  2  0  0  0  0
  4  1  2  0  0  0  0
  5  1  1  0  0  0  0
  5  7  1  0  0  0  0
  6  4  1  0  0  0  0
  7 14  1  0  0  0  0
  8  9  1  0  0  0  0
 10 13  1  0  0  0  0
 10 11  2  0  0  0  0
 11 12  1  0  0  0  0
 12  9  2  0  0  0  0
 13  8  2  0  0  0  0
 14 18  2  0  0  0  0
 15 18  1  0  0  0  0
 15 16  2  0  0  0  0
 16 10  1  0  0  0  0
 17 28  1  6  0  0  0
 17 13  1  0  0  0  0
 18 17  1  0  0  0  0
 19 15  1  0  0  0  0
 20 22  1  0  0  0  0
 21 25  1  6  0  0  0
 21 23  1  0  0  0  0
 21 24  1  0  0  0  0
 22 19  1  6  0  0  0
 23 22  1  0  0  0  0
 24 20  1  0  0  0  0
 26 25  1  0  0  0  0
 27 25  1  0  0  0  0
 28 30  1  0  0  0  0
 30 29  1  6  0  0  0
 31 30  1  0  0  0  0
 32 31  1  0  0  0  0
 33  2  1  0  0  0  0
 34 33  1  0  0  0  0
 35 34  1  0  0  0  0
 36 35  1  0  0  0  0
 37 36  1  0  0  0  0
 38 37  1  0  0  0  0
 39 40  1  0  0  0  0
 40 38  1  0  0  0  0
 40 41  1  0  0  0  0
 42 48  2  0  0  0  0
 44 53  1  6  0  0  0
 44 47  1  0  0  0  0
 44 40  1  0  0  0  0
 47 43  1  0  0  0  0
 47 46  1  0  0  0  0
 49 50  1  0  0  0  0
 49 45  1  0  0  0  0
 50 54  1  0  0  0  0
 50 52  1  0  0  0  0
 50 45  1  1  0  0  0
 51 42  1  0  0  0  0
 51 54  1  0  0  0  0
 52 47  1  0  0  0  0
 55 42  1  0  0  0  0
 55 44  1  0  0  0  0
M  END
>  <MODEL>
2

>  <REMARK>
 VINA RESULT:      -7.2      2.475      5.843
  Name = 
  15 active torsions:
  status: ('A' for Active; 'I' for Inactive)
    1  A    between atoms: C_2  and  C_28
    2  A    between atoms: C_2  and  C_44
    3  A    between atoms: C_4  and  C_40
    4  A    between atoms: C_6  and  C_20
    5  A    between atoms: C_8  and  O_22
    6  A    between atoms: C_8  and  C_35
    7  A    between atoms: N_10  and  C_32
    8  A    between atoms: O_19  and  C_40
    9  A    between atoms: O_19  and  C_45
   10  A    between atoms: C_20  and  O_22
   11  A    between atoms: C_27  and  C_54
   12  A    between atoms: C_34  and  N_52
   13  A    between atoms: C_35  and  C_43
   14  A    between atoms: C_43  and  O_51
   15  A    between atoms: O_51  and  C_54
                            x       y       z     vdW  Elec       q    Type
                         _______ _______ _______ _____ _____    ______ ____

>  <TORSDO>
F 15

$$$$
=
 OpenBabel11062408443D

 55 60  0  0  1  0  0  0  0  0999 V2000
  160.5370  213.0350  149.6820 C   0  0  0  0  0  3  0  0  0  0  0  0
  160.9790  212.7760  146.9290 C   0  0  0  0  0  0  0  0  0  0  0  0
  161.4710  211.8070  147.8120 C   0  0  0  0  0  3  0  0  0  0  0  0
  160.0440  213.9990  148.8010 C   0  0  0  0  0  3  0  0  0  0  0  0
  161.2460  211.9340  149.1920 C   0  0  0  0  0  0  0  0  0  0  0  0
  160.2590  213.8650  147.4240 C   0  0  0  0  0  3  0  0  0  0  0  0
  161.7500  210.9080  150.1480 C   0  0  0  0  0  2  0  0  0  0  0  0
  160.8620  204.7400  149.5280 C   0  0  0  0  0  3  0  0  0  0  0  0
  160.5420  203.5910  150.2600 C   0  0  0  0  0  3  0  0  0  0  0  0
  161.2860  205.9370  151.5950 C   0  0  0  0  0  0  0  0  0  0  0  0
  160.9710  204.7830  152.3220 C   0  0  0  0  0  3  0  0  0  0  0  0
  160.6000  203.6120  151.6570 C   0  0  0  0  0  3  0  0  0  0  0  0
  161.2380  205.9170  150.1900 C   0  0  0  0  0  0  0  0  0  0  0  0
  161.6590  209.5410  149.5490 C   0  0  0  0  0  3  0  0  0  0  0  0
  161.8390  208.2780  151.7040 C   0  0  0  0  0  0  0  0  0  0  0  0
  161.6260  207.1390  152.2940 N   0  0  0  0  0  0  0  0  0  0  0  0
  161.6290  207.1280  149.3880 C   0  0  1  0  0  3  0  0  0  0  0  0
  161.7210  208.3830  150.2180 C   0  0  0  0  0  0  0  0  0  0  0  0
  162.1450  209.4310  152.4980 N   0  0  0  0  0  2  0  0  0  0  0  0
  162.5740  210.6820  154.5640 C   0  0  0  0  0  2  0  0  0  0  0  0
  160.5080  210.5920  155.4910 C   0  0  1  0  0  3  0  0  0  0  0  0
  161.8800  209.5040  153.9310 C   0  0  1  0  0  3  0  0  0  0  0  0
  160.4510  209.8330  154.1740 C   0  0  0  0  0  2  0  0  0  0  0  0
  161.8190  211.0880  155.6790 O   0  0  0  0  0  0  0  0  0  0  0  0
  159.5420  211.6930  155.5270 N   0  0  0  0  0  0  0  0  0  0  0  0
  159.0390  211.9130  154.1770 C   0  0  0  0  0  1  0  0  0  0  0  0
  158.4420  211.2470  156.2790 N   0  0  0  0  0  1  0  0  0  0  0  0
  162.8480  206.9020  148.7340 O   0  0  0  0  0  0  0  0  0  0  0  0
  161.0320  206.9760  147.1740 C   0  0  0  0  0  1  0  0  0  0  0  0
  162.5130  206.7150  147.3860 C   0  0  2  0  0  3  0  0  0  0  0  0
  162.9040  205.3140  146.9070 C   0  0  0  0  0  2  0  0  0  0  0  0
  162.3320  204.9960  145.5310 C   0  0  0  0  0  1  0  0  0  0  0  0
  161.1520  212.6180  145.4570 C   0  0  0  0  0  2  0  0  0  0  0  0
  159.9100  212.6200  144.8120 O   0  0  0  0  0  0  0  0  0  0  0  0
  160.1890  212.1740  143.5230 C   0  0  0  0  0  2  0  0  0  0  0  0
  161.2790  213.0360  142.9100 C   0  0  0  0  0  2  0  0  0  0  0  0
  162.2370  212.1690  142.1130 C   0  0  0  0  0  2  0  0  0  0  0  0
  162.1760  212.5300  140.7580 O   0  0  0  0  0  0  0  0  0  0  0  0
  163.2590  211.0280  139.3920 F   0  0  0  0  0  0  0  0  0  0  0  0
  162.0420  211.3550  139.9860 C   0  0  0  0  0  0  0  0  0  0  0  0
  161.6460  210.2990  140.7950 F   0  0  0  0  0  0  0  0  0  0  0  0
  160.1250  209.2610  138.2340 C   0  0  0  0  0  0  0  0  0  0  0  0
  159.5630  213.1770  139.9710 F   0  0  0  0  0  0  0  0  0  0  0  0
  161.0000  211.5990  138.8650 C   0  0  1  0  0  0  0  0  0  0  0  0
  156.3280  211.4960  139.1850 C   0  0  0  0  0  2  0  0  0  0  0  0
  159.2710  211.0170  140.4660 F   0  0  0  0  0  0  0  0  0  0  0  0
  159.5760  211.9010  139.4310 C   0  0  0  0  0  0  0  0  0  0  0  0
  160.5380  208.3700  138.9590 O   0  0  0  0  0  0  0  0  0  0  0  0
  156.4540  211.2430  137.8000 O   0  0  0  0  0  0  0  0  0  0  0  0
  157.5750  210.9710  138.5990 C   0  0  1  0  0  0  0  0  0  0  0  0
  158.7260  209.2240  137.7090 C   0  0  0  0  0  2  0  0  0  0  0  0
  158.6350  211.8780  138.3630 O   0  0  0  0  0  0  0  0  0  0  0  0
  161.4140  212.7220  138.1410 O   0  0  0  0  0  1  0  0  0  0  0  0
  157.8290  209.5890  138.7240 O   0  0  0  0  0  0  0  0  0  0  0  0
  161.0090  210.4150  137.8690 C   0  0  0  0  0  2  0  0  0  0  0  0
  2  6  2  0  0  0  0
  2  3  1  0  0  0  0
  3  5  2  0  0  0  0
  4  1  2  0  0  0  0
  5  1  1  0  0  0  0
  5  7  1  0  0  0  0
  6  4  1  0  0  0  0
  8 13  2  0  0  0  0
  8  9  1  0  0  0  0
  9 12  2  0  0  0  0
 10 16  1  0  0  0  0
 10 11  2  0  0  0  0
 12 11  1  0  0  0  0
 13 10  1  0  0  0  0
 14  7  1  0  0  0  0
 14 18  2  0  0  0  0
 15 16  2  0  0  0  0
 15 19  1  0  0  0  0
 17 28  1  1  0  0  0
 17 13  1  0  0  0  0
 17 18  1  0  0  0  0
 18 15  1  0  0  0  0
 20 24  1  0  0  0  0
 21 25  1  6  0  0  0
 21 24  1  0  0  0  0
 22 19  1  6  0  0  0
 22 23  1  0  0  0  0
 22 20  1  0  0  0  0
 23 21  1  0  0  0  0
 25 27  1  0  0  0  0
 26 25  1  0  0  0  0
 30 29  1  1  0  0  0
 30 28  1  0  0  0  0
 31 30  1  0  0  0  0
 32 31  1  0  0  0  0
 33  2  1  0  0  0  0
 34 33  1  0  0  0  0
 35 34  1  0  0  0  0
 36 35  1  0  0  0  0
 37 36  1  0  0  0  0
 38 37  1  0  0  0  0
 39 40  1  0  0  0  0
 40 38  1  0  0  0  0
 40 41  1  0  0  0  0
 42 48  2  0  0  0  0
 44 53  1  6  0  0  0
 44 47  1  0  0  0  0
 44 40  1  0  0  0  0
 47 43  1  0  0  0  0
 47 46  1  0  0  0  0
 49 50  1  0  0  0  0
 49 45  1  0  0  0  0
 50 54  1  0  0  0  0
 50 45  1  1  0  0  0
 51 42  1  0  0  0  0
 51 54  1  0  0  0  0
 52 50  1  0  0  0  0
 52 47  1  0  0  0  0
 55 42  1  0  0  0  0
 55 44  1  0  0  0  0
M  END
>  <MODEL>
3

>  <REMARK>
 VINA RESULT:      -7.2      2.474      5.800
  Name = 
  15 active torsions:
  status: ('A' for Active; 'I' for Inactive)
    1  A    between atoms: C_2  and  C_28
    2  A    between atoms: C_2  and  C_44
    3  A    between atoms: C_4  and  C_40
    4  A    between atoms: C_6  and  C_20
    5  A    between atoms: C_8  and  O_22
    6  A    between atoms: C_8  and  C_35
    7  A    between atoms: N_10  and  C_32
    8  A    between atoms: O_19  and  C_40
    9  A    between atoms: O_19  and  C_45
   10  A    between atoms: C_20  and  O_22
   11  A    between atoms: C_27  and  C_54
   12  A    between atoms: C_34  and  N_52
   13  A    between atoms: C_35  and  C_43
   14  A    between atoms: C_43  and  O_51
   15  A    between atoms: O_51  and  C_54
                            x       y       z     vdW  Elec       q    Type
                         _______ _______ _______ _____ _____    ______ ____

>  <TORSDO>
F 15

$$$$
=
 OpenBabel11062408443D

 55 60  0  0  1  0  0  0  0  0999 V2000
  160.1160  211.7140  147.6390 C   0  0  0  0  0  3  0  0  0  0  0  0
  162.0790  213.2460  146.3580 C   0  0  0  0  0  0  0  0  0  0  0  0
  162.4420  212.3320  147.3540 C   0  0  0  0  0  3  0  0  0  0  0  0
  159.7540  212.6230  146.6430 C   0  0  0  0  0  3  0  0  0  0  0  0
  161.4590  211.5610  147.9940 C   0  0  0  0  0  0  0  0  0  0  0  0
  160.7370  213.3830  145.9980 C   0  0  0  0  0  3  0  0  0  0  0  0
  161.8260  210.5730  149.0490 C   0  0  0  0  0  2  0  0  0  0  0  0
  160.8760  204.3930  148.7260 C   0  0  0  0  0  3  0  0  0  0  0  0
  160.5250  203.2860  149.5070 C   0  0  0  0  0  3  0  0  0  0  0  0
  161.2670  205.6900  150.7380 C   0  0  0  0  0  0  0  0  0  0  0  0
  160.9210  204.5790  151.5150 C   0  0  0  0  0  3  0  0  0  0  0  0
  160.5510  203.3780  150.9030 C   0  0  0  0  0  3  0  0  0  0  0  0
  161.2510  205.5980  149.3340 C   0  0  0  0  0  0  0  0  0  0  0  0
  161.7310  209.1790  148.5190 C   0  0  0  0  0  3  0  0  0  0  0  0
  161.8470  208.0270  150.7400 C   0  0  0  0  0  0  0  0  0  0  0  0
  161.6050  206.9220  151.3820 N   0  0  0  0  0  0  0  0  0  0  0  0
  161.6750  206.7610  148.4810 C   0  0  1  0  0  3  0  0  0  0  0  0
  161.7640  208.0560  149.2480 C   0  0  0  0  0  0  0  0  0  0  0  0
  162.1480  209.2160  151.4800 N   0  0  0  0  0  2  0  0  0  0  0  0
  162.4800  210.6100  153.4710 C   0  0  0  0  0  2  0  0  0  0  0  0
  160.4020  210.4860  154.3650 C   0  0  1  0  0  3  0  0  0  0  0  0
  161.8510  209.3650  152.9000 C   0  0  1  0  0  3  0  0  0  0  0  0
  160.4040  209.6460  153.0970 C   0  0  0  0  0  2  0  0  0  0  0  0
  161.6860  211.0510  154.5440 O   0  0  0  0  0  0  0  0  0  0  0  0
  159.3890  211.5440  154.3140 N   0  0  0  0  0  0  0  0  0  0  0  0
  158.9470  211.6990  152.9340 C   0  0  0  0  0  1  0  0  0  0  0  0
  158.2720  211.0740  155.0250 N   0  0  0  0  0  1  0  0  0  0  0  0
  162.9060  206.4880  147.8690 O   0  0  0  0  0  0  0  0  0  0  0  0
  161.1150  206.4210  146.2810 C   0  0  0  0  0  1  0  0  0  0  0  0
  162.5980  206.2100  146.5300 C   0  0  2  0  0  3  0  0  0  0  0  0
  163.0290  204.7920  146.1450 C   0  0  0  0  0  2  0  0  0  0  0  0
  161.9990  204.0980  145.2610 C   0  0  0  0  0  1  0  0  0  0  0  0
  163.1190  214.0210  145.6240 C   0  0  0  0  0  2  0  0  0  0  0  0
  163.5820  213.3000  144.5190 O   0  0  0  0  0  0  0  0  0  0  0  0
  163.8140  214.2690  143.5460 C   0  0  0  0  0  2  0  0  0  0  0  0
  162.5660  214.4500  142.6990 C   0  0  0  0  0  2  0  0  0  0  0  0
  162.9100  214.2880  141.2300 C   0  0  0  0  0  2  0  0  0  0  0  0
  161.7760  213.8490  140.5300 O   0  0  0  0  0  0  0  0  0  0  0  0
  162.4920  212.3360  138.9520 F   0  0  0  0  0  0  0  0  0  0  0  0
  161.9370  212.4810  140.2210 C   0  0  0  0  0  0  0  0  0  0  0  0
  162.7840  211.8840  141.1450 F   0  0  0  0  0  0  0  0  0  0  0  0
  159.1930  212.9620  138.3870 C   0  0  0  0  0  0  0  0  0  0  0  0
  161.2280  209.4980  139.9740 F   0  0  0  0  0  0  0  0  0  0  0  0
  160.5510  211.7890  140.2330 C   0  0  1  0  0  0  0  0  0  0  0  0
  158.8700  208.6210  137.2210 C   0  0  0  0  0  2  0  0  0  0  0  0
  161.1470  210.7490  138.1240 F   0  0  0  0  0  0  0  0  0  0  0  0
  160.5170  210.5060  139.3440 C   0  0  0  0  0  0  0  0  0  0  0  0
  159.8450  213.7530  137.7240 O   0  0  0  0  0  0  0  0  0  0  0  0
  157.6430  209.1250  137.7100 O   0  0  0  0  0  0  0  0  0  0  0  0
  158.7710  209.9450  137.8610 C   0  0  1  0  0  0  0  0  0  0  0  0
  158.1360  212.1250  137.7430 C   0  0  0  0  0  2  0  0  0  0  0  0
  159.1700  210.0640  139.2140 O   0  0  0  0  0  0  0  0  0  0  0  0
  160.2860  211.3980  141.5500 O   0  0  0  0  0  1  0  0  0  0  0  0
  158.7330  211.0790  137.0230 O   0  0  0  0  0  0  0  0  0  0  0  0
  159.4490  212.8080  139.8550 C   0  0  0  0  0  2  0  0  0  0  0  0
  1  5  1  0  0  0  0
  2  3  1  0  0  0  0
  3  5  2  0  0  0  0
  4  1  2  0  0  0  0
  5  7  1  0  0  0  0
  6  2  2  0  0  0  0
  6  4  1  0  0  0  0
  8 13  2  0  0  0  0
  8  9  1  0  0  0  0
  9 12  2  0  0  0  0
 10 16  1  0  0  0  0
 10 11  2  0  0  0  0
 12 11  1  0  0  0  0
 13 10  1  0  0  0  0
 14  7  1  0  0  0  0
 14 18  2  0  0  0  0
 15 16  2  0  0  0  0
 15 19  1  0  0  0  0
 17 28  1  1  0  0  0
 17 18  1  0  0  0  0
 17 13  1  0  0  0  0
 18 15  1  0  0  0  0
 20 24  1  0  0  0  0
 21 25  1  6  0  0  0
 21 24  1  0  0  0  0
 22 19  1  6  0  0  0
 22 23  1  0  0  0  0
 22 20  1  0  0  0  0
 23 21  1  0  0  0  0
 25 27  1  0  0  0  0
 26 25  1  0  0  0  0
 30 29  1  1  0  0  0
 30 28  1  0  0  0  0
 31 30  1  0  0  0  0
 32 31  1  0  0  0  0
 33  2  1  0  0  0  0
 34 33  1  0  0  0  0
 35 34  1  0  0  0  0
 36 35  1  0  0  0  0
 37 36  1  0  0  0  0
 38 37  1  0  0  0  0
 39 40  1  0  0  0  0
 40 44  1  0  0  0  0
 40 38  1  0  0  0  0
 40 41  1  0  0  0  0
 42 55  1  0  0  0  0
 44 53  1  1  0  0  0
 45 49  1  0  0  0  0
 46 47  1  0  0  0  0
 47 43  1  0  0  0  0
 47 44  1  0  0  0  0
 48 42  2  0  0  0  0
 49 50  1  0  0  0  0
 50 45  1  6  0  0  0
 50 52  1  0  0  0  0
 51 42  1  0  0  0  0
 52 47  1  0  0  0  0
 54 51  1  0  0  0  0
 54 50  1  0  0  0  0
 55 44  1  0  0  0  0
M  END
>  <MODEL>
4

>  <REMARK>
 VINA RESULT:      -6.9      2.485      5.885
  Name = 
  15 active torsions:
  status: ('A' for Active; 'I' for Inactive)
    1  A    between atoms: C_2  and  C_28
    2  A    between atoms: C_2  and  C_44
    3  A    between atoms: C_4  and  C_40
    4  A    between atoms: C_6  and  C_20
    5  A    between atoms: C_8  and  O_22
    6  A    between atoms: C_8  and  C_35
    7  A    between atoms: N_10  and  C_32
    8  A    between atoms: O_19  and  C_40
    9  A    between atoms: O_19  and  C_45
   10  A    between atoms: C_20  and  O_22
   11  A    between atoms: C_27  and  C_54
   12  A    between atoms: C_34  and  N_52
   13  A    between atoms: C_35  and  C_43
   14  A    between atoms: C_43  and  O_51
   15  A    between atoms: O_51  and  C_54
                            x       y       z     vdW  Elec       q    Type
                         _______ _______ _______ _____ _____    ______ ____

>  <TORSDO>
F 15

$$$$
=
 OpenBabel11062408443D

 55 60  0  0  1  0  0  0  0  0999 V2000
  162.4500  205.5640  147.2940 C   0  0  0  0  0  3  0  0  0  0  0  0
  161.5220  205.4710  144.6530 C   0  0  0  0  0  0  0  0  0  0  0  0
  160.9940  206.4080  145.5490 C   0  0  0  0  0  3  0  0  0  0  0  0
  162.9790  204.6310  146.3990 C   0  0  0  0  0  3  0  0  0  0  0  0
  161.4620  206.4570  146.8720 C   0  0  0  0  0  0  0  0  0  0  0  0
  162.5200  204.5900  145.0770 C   0  0  0  0  0  3  0  0  0  0  0  0
  160.9220  207.4550  147.8390 C   0  0  0  0  0  2  0  0  0  0  0  0
  160.6640  206.9200  154.0720 C   0  0  0  0  0  3  0  0  0  0  0  0
  160.7160  207.6760  155.2490 C   0  0  0  0  0  3  0  0  0  0  0  0
  161.5210  208.8130  152.8200 C   0  0  0  0  0  0  0  0  0  0  0  0
  161.5780  209.5620  154.0010 C   0  0  0  0  0  3  0  0  0  0  0  0
  161.1770  208.9960  155.2140 C   0  0  0  0  0  3  0  0  0  0  0  0
  161.0680  207.4820  152.8540 C   0  0  0  0  0  0  0  0  0  0  0  0
  160.8300  206.8650  149.2090 C   0  0  0  0  0  3  0  0  0  0  0  0
  161.7870  208.8330  150.4270 C   0  0  0  0  0  0  0  0  0  0  0  0
  161.8980  209.4220  151.5810 N   0  0  0  0  0  0  0  0  0  0  0  0
  161.0540  206.6410  151.6060 C   0  0  1  0  0  3  0  0  0  0  0  0
  161.2280  207.4490  150.3460 C   0  0  0  0  0  0  0  0  0  0  0  0
  162.1660  209.5410  149.2400 N   0  0  0  0  0  2  0  0  0  0  0  0
  163.3690  211.4020  148.1910 C   0  0  0  0  0  2  0  0  0  0  0  0
  161.6590  212.8710  147.9620 C   0  0  1  0  0  3  0  0  0  0  0  0
  162.3240  210.9900  149.1950 C   0  0  1  0  0  3  0  0  0  0  0  0
  161.1020  211.6230  148.6310 C   0  0  0  0  0  2  0  0  0  0  0  0
  163.0390  212.6840  147.7150 O   0  0  0  0  0  0  0  0  0  0  0  0
  160.9590  213.1750  146.7110 N   0  0  0  0  0  0  0  0  0  0  0  0
  161.9510  213.4460  145.6780 C   0  0  0  0  0  1  0  0  0  0  0  0
  160.3010  211.9990  146.3140 N   0  0  0  0  0  1  0  0  0  0  0  0
  162.0470  205.6540  151.6780 O   0  0  0  0  0  0  0  0  0  0  0  0
  162.3410  203.3000  152.0050 C   0  0  0  0  0  1  0  0  0  0  0  0
  161.3610  204.4580  151.9290 C   0  0  2  0  0  3  0  0  0  0  0  0
  160.2840  204.2050  150.8700 C   0  0  0  0  0  2  0  0  0  0  0  0
  160.7920  203.3270  149.7320 C   0  0  0  0  0  1  0  0  0  0  0  0
  161.0830  205.4520  143.2290 C   0  0  0  0  0  2  0  0  0  0  0  0
  162.1310  205.8370  142.3860 O   0  0  0  0  0  0  0  0  0  0  0  0
  161.5800  206.8320  141.5820 C   0  0  0  0  0  2  0  0  0  0  0  0
  162.3730  206.9410  140.2910 C   0  0  0  0  0  2  0  0  0  0  0  0
  162.7030  208.3960  140.0100 C   0  0  0  0  0  2  0  0  0  0  0  0
  161.5120  209.1320  139.9040 O   0  0  0  0  0  0  0  0  0  0  0  0
  161.7560  211.0950  141.0810 F   0  0  0  0  0  0  0  0  0  0  0  0
  161.8370  210.5040  139.8220 C   0  0  0  0  0  0  0  0  0  0  0  0
  163.1320  210.6560  139.3440 F   0  0  0  0  0  0  0  0  0  0  0  0
  159.7660  209.3230  137.4880 C   0  0  0  0  0  0  0  0  0  0  0  0
  159.5180  212.4080  140.5040 F   0  0  0  0  0  0  0  0  0  0  0  0
  160.8270  211.2100  138.8820 C   0  0  1  0  0  0  0  0  0  0  0  0
  156.1610  211.3780  139.2470 C   0  0  0  0  0  2  0  0  0  0  0  0
  159.0440  210.2430  140.2130 F   0  0  0  0  0  0  0  0  0  0  0  0
  159.4290  211.4070  139.5490 C   0  0  0  0  0  0  0  0  0  0  0  0
  160.0970  208.2030  137.8440 O   0  0  0  0  0  0  0  0  0  0  0  0
  156.2760  211.6200  137.8590 O   0  0  0  0  0  0  0  0  0  0  0  0
  157.3640  210.9940  138.4870 C   0  0  1  0  0  0  0  0  0  0  0  0
  158.3730  209.5860  137.0150 C   0  0  0  0  0  2  0  0  0  0  0  0
  158.4980  211.8380  138.5620 O   0  0  0  0  0  0  0  0  0  0  0  0
  161.3390  212.4790  138.5900 O   0  0  0  0  0  1  0  0  0  0  0  0
  157.5010  209.6410  138.1130 O   0  0  0  0  0  0  0  0  0  0  0  0
  160.7450  210.4560  137.5330 C   0  0  0  0  0  2  0  0  0  0  0  0
  2  6  2  0  0  0  0
  2  3  1  0  0  0  0
  3  5  2  0  0  0  0
  4  1  2  0  0  0  0
  5  1  1  0  0  0  0
  5  7  1  0  0  0  0
  6  4  1  0  0  0  0
  7 14  1  0  0  0  0
  8  9  1  0  0  0  0
 10 13  1  0  0  0  0
 10 11  2  0  0  0  0
 11 12  1  0  0  0  0
 12  9  2  0  0  0  0
 13  8  2  0  0  0  0
 14 18  2  0  0  0  0
 15 16  2  0  0  0  0
 16 10  1  0  0  0  0
 17 28  1  1  0  0  0
 17 13  1  0  0  0  0
 18 15  1  0  0  0  0
 18 17  1  0  0  0  0
 19 15  1  0  0  0  0
 20 22  1  0  0  0  0
 21 25  1  6  0  0  0
 21 23  1  0  0  0  0
 22 19  1  6  0  0  0
 23 22  1  0  0  0  0
 24 21  1  0  0  0  0
 24 20  1  0  0  0  0
 26 25  1  0  0  0  0
 27 25  1  0  0  0  0
 28 30  1  0  0  0  0
 30 29  1  6  0  0  0
 31 30  1  0  0  0  0
 32 31  1  0  0  0  0
 33  2  1  0  0  0  0
 34 33  1  0  0  0  0
 35 34  1  0  0  0  0
 36 35  1  0  0  0  0
 37 36  1  0  0  0  0
 38 37  1  0  0  0  0
 40 38  1  0  0  0  0
 40 39  1  0  0  0  0
 41 40  1  0  0  0  0
 42 55  1  0  0  0  0
 42 48  2  0  0  0  0
 44 53  1  6  0  0  0
 44 47  1  0  0  0  0
 44 40  1  0  0  0  0
 47 46  1  0  0  0  0
 47 43  1  0  0  0  0
 49 50  1  0  0  0  0
 49 45  1  0  0  0  0
 50 52  1  0  0  0  0
 50 45  1  1  0  0  0
 51 42  1  0  0  0  0
 51 54  1  0  0  0  0
 52 47  1  0  0  0  0
 54 50  1  0  0  0  0
 55 44  1  0  0  0  0
M  END
>  <MODEL>
5

>  <REMARK>
 VINA RESULT:      -6.2      1.425      2.391
  Name = 
  15 active torsions:
  status: ('A' for Active; 'I' for Inactive)
    1  A    between atoms: C_2  and  C_28
    2  A    between atoms: C_2  and  C_44
    3  A    between atoms: C_4  and  C_40
    4  A    between atoms: C_6  and  C_20
    5  A    between atoms: C_8  and  O_22
    6  A    between atoms: C_8  and  C_35
    7  A    between atoms: N_10  and  C_32
    8  A    between atoms: O_19  and  C_40
    9  A    between atoms: O_19  and  C_45
   10  A    between atoms: C_20  and  O_22
   11  A    between atoms: C_27  and  C_54
   12  A    between atoms: C_34  and  N_52
   13  A    between atoms: C_35  and  C_43
   14  A    between atoms: C_43  and  O_51
   15  A    between atoms: O_51  and  C_54
                            x       y       z     vdW  Elec       q    Type
                         _______ _______ _______ _____ _____    ______ ____

>  <TORSDO>
F 15

$$$$
=
 OpenBabel11062408443D

 55 60  0  0  1  0  0  0  0  0999 V2000
  160.7100  209.3390  155.2400 C   0  0  0  0  0  3  0  0  0  0  0  0
  161.0750  207.5250  153.1380 C   0  0  0  0  0  0  0  0  0  0  0  0
  161.1520  208.9020  152.8970 C   0  0  0  0  0  3  0  0  0  0  0  0
  160.6370  207.9650  155.4810 C   0  0  0  0  0  3  0  0  0  0  0  0
  160.9730  209.8120  153.9510 C   0  0  0  0  0  0  0  0  0  0  0  0
  160.8260  207.0590  154.4310 C   0  0  0  0  0  3  0  0  0  0  0  0
  161.0640  211.2810  153.7190 C   0  0  0  0  0  2  0  0  0  0  0  0
  155.4400  214.0220  153.9900 C   0  0  0  0  0  3  0  0  0  0  0  0
  154.3600  214.4090  153.1890 C   0  0  0  0  0  3  0  0  0  0  0  0
  156.7990  213.7080  152.0050 C   0  0  0  0  0  0  0  0  0  0  0  0
  155.7180  214.1020  151.2090 C   0  0  0  0  0  3  0  0  0  0  0  0
  154.5000  214.4530  151.7980 C   0  0  0  0  0  3  0  0  0  0  0  0
  156.6650  213.6730  153.4050 C   0  0  0  0  0  0  0  0  0  0  0  0
  159.8470  211.9730  154.2440 C   0  0  0  0  0  3  0  0  0  0  0  0
  159.0470  212.8460  152.0370 C   0  0  0  0  0  0  0  0  0  0  0  0
  158.0260  213.3150  151.3820 N   0  0  0  0  0  0  0  0  0  0  0  0
  157.8310  213.3080  154.2820 C   0  0  1  0  0  3  0  0  0  0  0  0
  158.9710  212.6810  153.5210 C   0  0  0  0  0  0  0  0  0  0  0  0
  160.2210  212.4520  151.3160 N   0  0  0  0  0  2  0  0  0  0  0  0
  159.9060  213.4470  149.0960 C   0  0  0  0  0  2  0  0  0  0  0  0
  161.5860  212.4130  147.9820 C   0  0  1  0  0  3  0  0  0  0  0  0
  160.2240  212.2000  149.8790 C   0  0  1  0  0  3  0  0  0  0  0  0
  161.6040  211.8990  149.4130 C   0  0  0  0  0  2  0  0  0  0  0  0
  160.5370  213.3520  147.8430 O   0  0  0  0  0  0  0  0  0  0  0  0
  162.8640  213.0260  147.6080 N   0  0  0  0  0  0  0  0  0  0  0  0
  162.8880  213.2060  146.1620 C   0  0  0  0  0  1  0  0  0  0  0  0
  162.8730  214.3190  148.1560 N   0  0  0  0  0  1  0  0  0  0  0  0
  158.2880  214.4390  154.9730 O   0  0  0  0  0  0  0  0  0  0  0  0
  159.8250  213.8350  156.7070 C   0  0  0  0  0  1  0  0  0  0  0  0
  158.3720  214.0420  156.3140 C   0  0  2  0  0  3  0  0  0  0  0  0
  157.5430  212.7810  156.5720 C   0  0  0  0  0  2  0  0  0  0  0  0
  156.1820  213.1030  157.1780 C   0  0  0  0  0  1  0  0  0  0  0  0
  161.3290  206.5480  152.0420 C   0  0  0  0  0  2  0  0  0  0  0  0
  162.6840  206.5390  151.6950 O   0  0  0  0  0  0  0  0  0  0  0  0
  162.6850  206.6340  150.3050 C   0  0  0  0  0  2  0  0  0  0  0  0
  161.8670  207.8390  149.8760 C   0  0  0  0  0  2  0  0  0  0  0  0
  161.5990  207.7770  148.3830 C   0  0  0  0  0  2  0  0  0  0  0  0
  161.1830  206.4820  148.0380 O   0  0  0  0  0  0  0  0  0  0  0  0
  160.2950  206.3600  145.9190 F   0  0  0  0  0  0  0  0  0  0  0  0
  161.4640  206.2680  146.6710 C   0  0  0  0  0  0  0  0  0  0  0  0
  162.3600  207.2260  146.2160 F   0  0  0  0  0  0  0  0  0  0  0  0
  161.1970  203.4950  148.5050 C   0  0  0  0  0  0  0  0  0  0  0  0
  161.2690  204.3520  144.2710 F   0  0  0  0  0  0  0  0  0  0  0  0
  162.0540  204.8470  146.4890 C   0  0  1  0  0  0  0  0  0  0  0  0
  159.8730  200.9740  145.0120 C   0  0  0  0  0  2  0  0  0  0  0  0
  159.8160  204.0800  145.9480 F   0  0  0  0  0  0  0  0  0  0  0  0
  161.1560  203.9390  145.5900 C   0  0  0  0  0  0  0  0  0  0  0  0
  160.3930  204.0990  149.1960 O   0  0  0  0  0  0  0  0  0  0  0  0
  160.9310  200.3660  145.7260 O   0  0  0  0  0  0  0  0  0  0  0  0
  160.6190  201.6920  146.0610 C   0  0  1  0  0  0  0  0  0  0  0  0
  161.0420  202.0270  148.2690 C   0  0  0  0  0  2  0  0  0  0  0  0
  161.6300  202.5980  145.6600 O   0  0  0  0  0  0  0  0  0  0  0  0
  163.2920  204.9820  145.8510 O   0  0  0  0  0  1  0  0  0  0  0  0
  160.0210  201.8020  147.3340 O   0  0  0  0  0  0  0  0  0  0  0  0
  162.3480  204.2160  147.8710 C   0  0  0  0  0  2  0  0  0  0  0  0
  1  4  1  0  0  0  0
  2  6  1  0  0  0  0
  3  2  2  0  0  0  0
  3  5  1  0  0  0  0
  5  1  2  0  0  0  0
  6  4  2  0  0  0  0
  7  5  1  0  0  0  0
  7 14  1  0  0  0  0
  9  8  2  0  0  0  0
 10 13  2  0  0  0  0
 11 12  2  0  0  0  0
 11 10  1  0  0  0  0
 12  9  1  0  0  0  0
 13  8  1  0  0  0  0
 13 17  1  0  0  0  0
 15 18  1  0  0  0  0
 16 10  1  0  0  0  0
 16 15  2  0  0  0  0
 17 28  1  6  0  0  0
 18 14  2  0  0  0  0
 18 17  1  0  0  0  0
 19 15  1  0  0  0  0
 20 22  1  0  0  0  0
 21 25  1  1  0  0  0
 21 23  1  0  0  0  0
 22 19  1  1  0  0  0
 23 22  1  0  0  0  0
 24 21  1  0  0  0  0
 24 20  1  0  0  0  0
 25 27  1  0  0  0  0
 26 25  1  0  0  0  0
 28 30  1  0  0  0  0
 30 31  1  0  0  0  0
 30 29  1  6  0  0  0
 31 32  1  0  0  0  0
 33  2  1  0  0  0  0
 34 33  1  0  0  0  0
 35 34  1  0  0  0  0
 36 35  1  0  0  0  0
 37 36  1  0  0  0  0
 38 37  1  0  0  0  0
 39 40  1  0  0  0  0
 40 38  1  0  0  0  0
 41 40  1  0  0  0  0
 42 48  2  0  0  0  0
 43 47  1  0  0  0  0
 44 53  1  6  0  0  0
 44 40  1  0  0  0  0
 44 55  1  0  0  0  0
 45 49  1  0  0  0  0
 47 52  1  0  0  0  0
 47 46  1  0  0  0  0
 47 44  1  0  0  0  0
 49 50  1  0  0  0  0
 50 45  1  6  0  0  0
 50 54  1  0  0  0  0
 51 42  1  0  0  0  0
 52 50  1  0  0  0  0
 54 51  1  0  0  0  0
 55 42  1  0  0  0  0
M  END
>  <MODEL>
6

>  <REMARK>
 VINA RESULT:      -5.4      4.787      8.624
  Name = 
  15 active torsions:
  status: ('A' for Active; 'I' for Inactive)
    1  A    between atoms: C_2  and  C_28
    2  A    between atoms: C_2  and  C_44
    3  A    between atoms: C_4  and  C_40
    4  A    between atoms: C_6  and  C_20
    5  A    between atoms: C_8  and  O_22
    6  A    between atoms: C_8  and  C_35
    7  A    between atoms: N_10  and  C_32
    8  A    between atoms: O_19  and  C_40
    9  A    between atoms: O_19  and  C_45
   10  A    between atoms: C_20  and  O_22
   11  A    between atoms: C_27  and  C_54
   12  A    between atoms: C_34  and  N_52
   13  A    between atoms: C_35  and  C_43
   14  A    between atoms: C_43  and  O_51
   15  A    between atoms: O_51  and  C_54
                            x       y       z     vdW  Elec       q    Type
                         _______ _______ _______ _____ _____    ______ ____

>  <TORSDO>
F 15

$$$$
=
 OpenBabel11062408443D

 55 60  0  0  1  0  0  0  0  0999 V2000
  160.0470  209.0240  155.4710 C   0  0  0  0  0  3  0  0  0  0  0  0
  160.9810  206.6780  154.2600 C   0  0  0  0  0  0  0  0  0  0  0  0
  161.3710  207.9270  153.7630 C   0  0  0  0  0  3  0  0  0  0  0  0
  159.6600  207.7780  155.9680 C   0  0  0  0  0  3  0  0  0  0  0  0
  160.9070  209.1030  154.3720 C   0  0  0  0  0  0  0  0  0  0  0  0
  160.1330  206.6060  155.3670 C   0  0  0  0  0  3  0  0  0  0  0  0
  161.3210  210.4430  153.8670 C   0  0  0  0  0  2  0  0  0  0  0  0
  162.2680  211.9470  147.8620 C   0  0  0  0  0  3  0  0  0  0  0  0
  162.0450  212.9660  146.9300 C   0  0  0  0  0  3  0  0  0  0  0  0
  160.6870  212.9880  149.3800 C   0  0  0  0  0  0  0  0  0  0  0  0
  160.4630  214.0030  148.4410 C   0  0  0  0  0  3  0  0  0  0  0  0
  161.1390  213.9920  147.2180 C   0  0  0  0  0  3  0  0  0  0  0  0
  161.5900  211.9500  149.0890 C   0  0  0  0  0  0  0  0  0  0  0  0
  161.7320  210.3610  152.4320 C   0  0  0  0  0  3  0  0  0  0  0  0
  160.2350  212.1910  151.6070 C   0  0  0  0  0  0  0  0  0  0  0  0
  160.0160  213.0370  150.6420 N   0  0  0  0  0  0  0  0  0  0  0  0
  161.8020  210.8190  150.0580 C   0  0  1  0  0  3  0  0  0  0  0  0
  161.2460  211.1040  151.4300 C   0  0  0  0  0  0  0  0  0  0  0  0
  159.5310  212.3440  152.8450 N   0  0  0  0  0  2  0  0  0  0  0  0
  157.4330  213.6100  152.7480 C   0  0  0  0  0  2  0  0  0  0  0  0
  157.4050  214.4470  154.8530 C   0  0  1  0  0  3  0  0  0  0  0  0
  158.8600  213.5790  153.2320 C   0  0  1  0  0  3  0  0  0  0  0  0
  158.6760  213.6250  154.7060 C   0  0  0  0  0  2  0  0  0  0  0  0
  156.6860  214.4040  153.6360 O   0  0  0  0  0  0  0  0  0  0  0  0
  156.5660  213.9610  155.9520 N   0  0  0  0  0  0  0  0  0  0  0  0
  155.2530  213.6210  155.4190 C   0  0  0  0  0  1  0  0  0  0  0  0
  157.1280  212.7500  156.3900 N   0  0  0  0  0  1  0  0  0  0  0  0
  161.2390  209.6390  149.5540 O   0  0  0  0  0  0  0  0  0  0  0  0
  162.7150  208.5470  148.0150 C   0  0  0  0  0  1  0  0  0  0  0  0
  162.3040  208.7310  149.4660 C   0  0  2  0  0  3  0  0  0  0  0  0
  161.9450  207.3920  150.1150 C   0  0  0  0  0  2  0  0  0  0  0  0
  160.6920  206.7750  149.5040 C   0  0  0  0  0  1  0  0  0  0  0  0
  161.5200  205.4220  153.6660 C   0  0  0  0  0  2  0  0  0  0  0  0
  161.4480  205.4680  152.2690 O   0  0  0  0  0  0  0  0  0  0  0  0
  160.6720  204.3630  151.9270 C   0  0  0  0  0  2  0  0  0  0  0  0
  161.5090  203.1000  152.0320 C   0  0  0  0  0  2  0  0  0  0  0  0
  160.8450  201.9750  151.2580 C   0  0  0  0  0  2  0  0  0  0  0  0
  160.2540  202.4940  150.0950 O   0  0  0  0  0  0  0  0  0  0  0  0
  160.5350  200.2470  149.6910 F   0  0  0  0  0  0  0  0  0  0  0  0
  160.2080  201.4740  149.1200 C   0  0  0  0  0  0  0  0  0  0  0  0
  158.9290  201.3870  148.5870 F   0  0  0  0  0  0  0  0  0  0  0  0
  159.8810  201.8090  145.8170 C   0  0  0  0  0  0  0  0  0  0  0  0
  162.1790  203.8230  148.8720 F   0  0  0  0  0  0  0  0  0  0  0  0
  161.2380  201.7880  148.0060 C   0  0  1  0  0  0  0  0  0  0  0  0
  161.9100  205.8320  145.7410 C   0  0  0  0  0  2  0  0  0  0  0  0
  160.2210  203.9820  147.8040 F   0  0  0  0  0  0  0  0  0  0  0  0
  161.4500  203.3220  147.8050 C   0  0  0  0  0  0  0  0  0  0  0  0
  158.6760  201.7060  145.9840 O   0  0  0  0  0  0  0  0  0  0  0  0
  162.4540  204.9530  144.7770 O   0  0  0  0  0  0  0  0  0  0  0  0
  161.5650  204.4000  145.7110 C   0  0  1  0  0  0  0  0  0  0  0  0
  160.4240  202.6900  144.7390 C   0  0  0  0  0  2  0  0  0  0  0  0
  162.2160  203.5360  146.6240 O   0  0  0  0  0  0  0  0  0  0  0  0
  162.4630  201.2390  148.3970 O   0  0  0  0  0  1  0  0  0  0  0  0
  160.3310  204.0330  145.1330 O   0  0  0  0  0  0  0  0  0  0  0  0
  160.8380  201.0630  146.6980 C   0  0  0  0  0  2  0  0  0  0  0  0
  1  4  1  0  0  0  0
  2  6  1  0  0  0  0
  3  2  2  0  0  0  0
  3  5  1  0  0  0  0
  5  1  2  0  0  0  0
  6  4  2  0  0  0  0
  7  5  1  0  0  0  0
  8 13  1  0  0  0  0
  9 12  1  0  0  0  0
  9  8  2  0  0  0  0
 10 16  1  0  0  0  0
 11 10  1  0  0  0  0
 12 11  2  0  0  0  0
 13 10  2  0  0  0  0
 13 17  1  0  0  0  0
 14  7  1  0  0  0  0
 15 19  1  0  0  0  0
 16 15  2  0  0  0  0
 17 28  1  6  0  0  0
 17 18  1  0  0  0  0
 18 15  1  0  0  0  0
 18 14  2  0  0  0  0
 20 22  1  0  0  0  0
 20 24  1  0  0  0  0
 21 25  1  1  0  0  0
 22 19  1  1  0  0  0
 22 23  1  0  0  0  0
 23 21  1  0  0  0  0
 24 21  1  0  0  0  0
 25 27  1  0  0  0  0
 26 25  1  0  0  0  0
 30 29  1  6  0  0  0
 30 28  1  0  0  0  0
 30 31  1  0  0  0  0
 32 31  1  0  0  0  0
 33  2  1  0  0  0  0
 34 33  1  0  0  0  0
 35 36  1  0  0  0  0
 35 34  1  0  0  0  0
 37 36  1  0  0  0  0
 38 37  1  0  0  0  0
 40 39  1  0  0  0  0
 40 38  1  0  0  0  0
 41 40  1  0  0  0  0
 42 48  2  0  0  0  0
 42 55  1  0  0  0  0
 44 53  1  1  0  0  0
 44 40  1  0  0  0  0
 46 47  1  0  0  0  0
 47 44  1  0  0  0  0
 47 43  1  0  0  0  0
 49 50  1  0  0  0  0
 49 45  1  0  0  0  0
 50 45  1  1  0  0  0
 50 52  1  0  0  0  0
 51 54  1  0  0  0  0
 51 42  1  0  0  0  0
 52 47  1  0  0  0  0
 54 50  1  0  0  0  0
 55 44  1  0  0  0  0
M  END
>  <MODEL>
7

>  <REMARK>
 VINA RESULT:      -5.0      5.335      9.228
  Name = 
  15 active torsions:
  status: ('A' for Active; 'I' for Inactive)
    1  A    between atoms: C_2  and  C_28
    2  A    between atoms: C_2  and  C_44
    3  A    between atoms: C_4  and  C_40
    4  A    between atoms: C_6  and  C_20
    5  A    between atoms: C_8  and  O_22
    6  A    between atoms: C_8  and  C_35
    7  A    between atoms: N_10  and  C_32
    8  A    between atoms: O_19  and  C_40
    9  A    between atoms: O_19  and  C_45
   10  A    between atoms: C_20  and  O_22
   11  A    between atoms: C_27  and  C_54
   12  A    between atoms: C_34  and  N_52
   13  A    between atoms: C_35  and  C_43
   14  A    between atoms: C_43  and  O_51
   15  A    between atoms: O_51  and  C_54
                            x       y       z     vdW  Elec       q    Type
                         _______ _______ _______ _____ _____    ______ ____

>  <TORSDO>
F 15

$$$$
