=
 OpenBabel11052422313D

 31 34  0  0  1  0  0  0  0  0999 V2000
  160.6150  207.4510  154.6780 C   0  0  0  0  0  0  0  0  0  0  0  0
  161.8250  206.6490  151.1140 C   0  0  2  0  0  3  0  0  0  0  0  0
  161.4070  205.1870  150.9740 C   0  0  0  0  0  0  0  0  0  0  0  0
  161.2770  202.9480  151.9270 C   0  0  0  0  0  3  0  0  0  0  0  0
  161.3680  207.3950  152.3620 C   0  0  0  0  0  0  0  0  0  0  0  0
  160.6840  208.8460  154.6760 C   0  0  0  0  0  3  0  0  0  0  0  0
  161.5570  204.3080  152.0580 C   0  0  0  0  0  3  0  0  0  0  0  0
  162.2120  208.8420  149.9620 C   0  0  1  0  0  3  0  0  0  0  0  0
  160.2050  206.7790  155.8200 O   0  0  0  0  0  1  0  0  0  0  0  0
  160.9660  205.5220  148.4870 C   0  0  0  0  0  2  0  0  0  0  0  0
  160.8680  202.4360  150.6960 C   0  0  0  0  0  3  0  0  0  0  0  0
  161.8380  209.5210  151.2010 N   0  0  0  0  0  2  0  0  0  0  0  0
  161.5000  207.4880  149.8630 C   0  0  1  0  0  3  0  0  0  0  0  0
  160.9610  206.7320  153.5310 C   0  0  0  0  0  3  0  0  0  0  0  0
  160.3660  202.7430  148.3670 O   0  0  0  0  0  1  0  0  0  0  0  0
  161.4510  208.8060  152.3780 C   0  0  0  0  0  0  0  0  0  0  0  0
  161.1010  209.5200  153.5270 C   0  0  0  0  0  3  0  0  0  0  0  0
  161.8830  206.7290  148.6040 C   0  0  0  0  0  2  0  0  0  0  0  0
  161.0560  204.6470  149.7090 C   0  0  0  0  0  0  0  0  0  0  0  0
  160.7590  203.2790  149.5890 C   0  0  0  0  0  0  0  0  0  0  0  0
  161.9290  209.7540  148.7690 C   0  0  0  0  0  2  0  0  0  0  0  0
  162.0160  211.2280  149.1450 C   0  0  0  0  0  2  0  0  0  0  0  0
  161.5790  212.1000  147.9800 C   0  0  0  0  0  2  0  0  0  0  0  0
  162.7890  212.7000  147.2820 C   0  0  0  0  0  2  0  0  0  0  0  0
  162.4800  214.1000  146.7800 C   0  0  0  0  0  2  0  0  0  0  0  0
  162.9910  213.3780  144.2380 S   0  0  0  0  0  0  0  0  0  0  0  0
  162.0080  214.0430  145.3700 C   0  0  0  0  0  0  0  0  0  0  0  0
  159.5080  213.5500  145.0080 C   0  0  0  0  0  0  0  0  0  0  0  0
  159.6250  212.2980  145.0830 O   0  0  0  0  0  0  0  0  0  0  0  0
  157.8900  214.2650  144.7670 S   0  0  0  0  0  1  0  0  0  0  0  0
  160.6490  214.4130  145.0880 N   0  0  0  0  0  2  0  0  0  0  0  0
  1  9  1  0  0  0  0
  2  3  1  6  0  0  0
  2  5  1  0  0  0  0
  3  7  1  0  0  0  0
  4  7  2  0  0  0  0
  5 16  2  0  0  0  0
  5 14  1  0  0  0  0
  6  1  1  0  0  0  0
  8 21  1  6  0  0  0
  8 12  1  0  0  0  0
 10 18  1  0  0  0  0
 10 19  1  0  0  0  0
 11  4  1  0  0  0  0
 12 16  1  0  0  0  0
 13 18  1  6  0  0  0
 13  8  1  0  0  0  0
 13  2  1  0  0  0  0
 14  1  2  0  0  0  0
 15 20  1  0  0  0  0
 16 17  1  0  0  0  0
 17  6  2  0  0  0  0
 19  3  2  0  0  0  0
 20 19  1  0  0  0  0
 20 11  2  0  0  0  0
 21 22  1  0  0  0  0
 23 22  1  0  0  0  0
 24 23  1  0  0  0  0
 25 24  1  0  0  0  0
 26 27  2  0  0  0  0
 27 25  1  0  0  0  0
 28 29  2  0  0  0  0
 28 31  1  0  0  0  0
 30 28  1  0  0  0  0
 31 27  1  0  0  0  0
M  END
>  <MODEL>
1

>  <REMARK>
 VINA RESULT:      -9.2      0.000      0.000
  Name = 
  7 active torsions:
  status: ('A' for Active; 'I' for Inactive)
    1  A    between atoms: C_3  and  C_19
    2  A    between atoms: C_3  and  C_22
    3  A    between atoms: C_7  and  C_9
    4  A    between atoms: C_7  and  C_22
    5  A    between atoms: C_9  and  C_23
    6  A    between atoms: C_15  and  C_23
    7  A    between atoms: C_19  and  N_24
                            x       y       z     vdW  Elec       q    Type
                         _______ _______ _______ _____ _____    ______ ____

>  <TORSDO>
F 7

$$$$
=
 OpenBabel11052422313D

 31 34  0  0  1  0  0  0  0  0999 V2000
  160.6620  207.5690  154.6010 C   0  0  0  0  0  0  0  0  0  0  0  0
  161.8290  206.6740  151.0460 C   0  0  2  0  0  3  0  0  0  0  0  0
  161.4130  205.2070  150.9510 C   0  0  0  0  0  0  0  0  0  0  0  0
  161.3020  202.9940  151.9660 C   0  0  0  0  0  3  0  0  0  0  0  0
  161.3860  207.4520  152.2790 C   0  0  0  0  0  0  0  0  0  0  0  0
  160.7270  208.9630  154.5610 C   0  0  0  0  0  3  0  0  0  0  0  0
  161.5800  204.3580  152.0550 C   0  0  0  0  0  3  0  0  0  0  0  0
  162.1960  208.8350  149.8290 C   0  0  1  0  0  3  0  0  0  0  0  0
  160.2680  206.9260  155.7660 O   0  0  0  0  0  1  0  0  0  0  0  0
  160.9400  205.4730  148.4610 C   0  0  0  0  0  2  0  0  0  0  0  0
  160.8790  202.4480  150.7540 C   0  0  0  0  0  3  0  0  0  0  0  0
  161.8350  209.5470  151.0540 N   0  0  0  0  0  2  0  0  0  0  0  0
  161.4860  207.4770  149.7770 C   0  0  1  0  0  3  0  0  0  0  0  0
  160.9960  206.8200  153.4700 C   0  0  0  0  0  3  0  0  0  0  0  0
  160.3460  202.6910  148.4240 O   0  0  0  0  0  1  0  0  0  0  0  0
  161.4650  208.8620  152.2560 C   0  0  0  0  0  0  0  0  0  0  0  0
  161.1270  209.6070  153.3890 C   0  0  0  0  0  3  0  0  0  0  0  0
  161.8550  206.6850  148.5340 C   0  0  0  0  0  2  0  0  0  0  0  0
  161.0480  204.6320  149.7050 C   0  0  0  0  0  0  0  0  0  0  0  0
  160.7530  203.2600  149.6260 C   0  0  0  0  0  0  0  0  0  0  0  0
  161.8950  209.7140  148.6160 C   0  0  0  0  0  2  0  0  0  0  0  0
  161.9900  211.1970  148.9500 C   0  0  0  0  0  2  0  0  0  0  0  0
  161.4730  212.0350  147.7920 C   0  0  0  0  0  2  0  0  0  0  0  0
  160.7100  213.2440  148.3090 C   0  0  0  0  0  2  0  0  0  0  0  0
  160.6290  213.2180  149.8260 C   0  0  0  0  0  2  0  0  0  0  0  0
  158.0680  213.7320  149.1740 S   0  0  0  0  0  0  0  0  0  0  0  0
  159.2850  213.6770  150.2730 C   0  0  0  0  0  0  0  0  0  0  0  0
  158.7820  212.8950  152.6720 C   0  0  0  0  0  0  0  0  0  0  0  0
  158.5890  211.6900  152.3640 O   0  0  0  0  0  0  0  0  0  0  0  0
  158.6710  213.3890  154.3840 S   0  0  0  0  0  1  0  0  0  0  0  0
  159.0640  213.8860  151.6760 N   0  0  0  0  0  2  0  0  0  0  0  0
  1  9  1  0  0  0  0
  2  3  1  6  0  0  0
  2  5  1  0  0  0  0
  3  7  1  0  0  0  0
  4  7  2  0  0  0  0
  5 14  1  0  0  0  0
  6  1  1  0  0  0  0
  8 21  1  6  0  0  0
  8 12  1  0  0  0  0
 10 18  1  0  0  0  0
 10 19  1  0  0  0  0
 11  4  1  0  0  0  0
 12 16  1  0  0  0  0
 13 18  1  6  0  0  0
 13  8  1  0  0  0  0
 13  2  1  0  0  0  0
 14  1  2  0  0  0  0
 15 20  1  0  0  0  0
 16  5  2  0  0  0  0
 16 17  1  0  0  0  0
 17  6  2  0  0  0  0
 19  3  2  0  0  0  0
 20 19  1  0  0  0  0
 20 11  2  0  0  0  0
 21 22  1  0  0  0  0
 23 24  1  0  0  0  0
 23 22  1  0  0  0  0
 24 25  1  0  0  0  0
 25 27  1  0  0  0  0
 26 27  2  0  0  0  0
 27 31  1  0  0  0  0
 28 30  1  0  0  0  0
 29 28  2  0  0  0  0
 31 28  1  0  0  0  0
M  END
>  <MODEL>
2

>  <REMARK>
 VINA RESULT:      -9.2      2.651      3.379
  Name = 
  7 active torsions:
  status: ('A' for Active; 'I' for Inactive)
    1  A    between atoms: C_3  and  C_19
    2  A    between atoms: C_3  and  C_22
    3  A    between atoms: C_7  and  C_9
    4  A    between atoms: C_7  and  C_22
    5  A    between atoms: C_9  and  C_23
    6  A    between atoms: C_15  and  C_23
    7  A    between atoms: C_19  and  N_24
                            x       y       z     vdW  Elec       q    Type
                         _______ _______ _______ _____ _____    ______ ____

>  <TORSDO>
F 7

$$$$
=
 OpenBabel11052422313D

 31 34  0  0  1  0  0  0  0  0999 V2000
  160.5900  207.4160  154.6270 C   0  0  0  0  0  0  0  0  0  0  0  0
  161.8110  206.6200  151.0660 C   0  0  2  0  0  3  0  0  0  0  0  0
  161.3950  205.1570  150.9230 C   0  0  0  0  0  0  0  0  0  0  0  0
  161.2650  202.9170  151.8720 C   0  0  0  0  0  3  0  0  0  0  0  0
  161.3500  207.3630  152.3130 C   0  0  0  0  0  0  0  0  0  0  0  0
  160.6580  208.8100  154.6270 C   0  0  0  0  0  3  0  0  0  0  0  0
  161.5430  204.2770  152.0050 C   0  0  0  0  0  3  0  0  0  0  0  0
  162.2000  208.8140  149.9170 C   0  0  1  0  0  3  0  0  0  0  0  0
  160.1780  206.7410  155.7670 O   0  0  0  0  0  1  0  0  0  0  0  0
  160.9610  205.4950  148.4350 C   0  0  0  0  0  2  0  0  0  0  0  0
  160.8600  202.4060  150.6400 C   0  0  0  0  0  3  0  0  0  0  0  0
  161.8220  209.4920  151.1560 N   0  0  0  0  0  2  0  0  0  0  0  0
  161.4890  207.4590  149.8150 C   0  0  1  0  0  3  0  0  0  0  0  0
  160.9410  206.6990  153.4800 C   0  0  0  0  0  3  0  0  0  0  0  0
  160.3640  202.7160  148.3090 O   0  0  0  0  0  1  0  0  0  0  0  0
  161.4320  208.7740  152.3320 C   0  0  0  0  0  0  0  0  0  0  0  0
  161.0770  209.4870  153.4800 C   0  0  0  0  0  3  0  0  0  0  0  0
  161.8760  206.7030  148.5560 C   0  0  0  0  0  2  0  0  0  0  0  0
  161.0480  204.6190  149.6550 C   0  0  0  0  0  0  0  0  0  0  0  0
  160.7530  203.2500  149.5330 C   0  0  0  0  0  0  0  0  0  0  0  0
  161.9200  209.7270  148.7250 C   0  0  0  0  0  2  0  0  0  0  0  0
  161.9250  211.1990  149.1210 C   0  0  0  0  0  2  0  0  0  0  0  0
  162.6820  212.0220  148.0920 C   0  0  0  0  0  2  0  0  0  0  0  0
  161.9270  213.3030  147.7760 C   0  0  0  0  0  2  0  0  0  0  0  0
  161.5730  213.3670  146.3000 C   0  0  0  0  0  2  0  0  0  0  0  0
  159.6050  212.4270  144.7210 S   0  0  0  0  0  0  0  0  0  0  0  0
  160.1160  213.1270  146.1140 C   0  0  0  0  0  0  0  0  0  0  0  0
  157.8920  212.8910  147.3870 C   0  0  0  0  0  0  0  0  0  0  0  0
  157.2910  212.2860  146.4610 O   0  0  0  0  0  0  0  0  0  0  0  0
  157.0400  213.2020  148.9240 S   0  0  0  0  0  1  0  0  0  0  0  0
  159.2370  213.3570  147.2260 N   0  0  0  0  0  2  0  0  0  0  0  0
  1  9  1  0  0  0  0
  2  3  1  6  0  0  0
  2  5  1  0  0  0  0
  3  7  1  0  0  0  0
  4  7  2  0  0  0  0
  5 16  2  0  0  0  0
  5 14  1  0  0  0  0
  6  1  1  0  0  0  0
  8 21  1  6  0  0  0
  8 12  1  0  0  0  0
 10 18  1  0  0  0  0
 10 19  1  0  0  0  0
 11  4  1  0  0  0  0
 12 16  1  0  0  0  0
 13 18  1  6  0  0  0
 13  8  1  0  0  0  0
 13  2  1  0  0  0  0
 14  1  2  0  0  0  0
 15 20  1  0  0  0  0
 16 17  1  0  0  0  0
 17  6  2  0  0  0  0
 19  3  2  0  0  0  0
 20 19  1  0  0  0  0
 20 11  2  0  0  0  0
 21 22  1  0  0  0  0
 23 22  1  0  0  0  0
 24 23  1  0  0  0  0
 25 24  1  0  0  0  0
 26 27  2  0  0  0  0
 27 25  1  0  0  0  0
 27 31  1  0  0  0  0
 28 30  1  0  0  0  0
 29 28  2  0  0  0  0
 31 28  1  0  0  0  0
M  END
>  <MODEL>
3

>  <REMARK>
 VINA RESULT:      -9.0      1.332      1.445
  Name = 
  7 active torsions:
  status: ('A' for Active; 'I' for Inactive)
    1  A    between atoms: C_3  and  C_19
    2  A    between atoms: C_3  and  C_22
    3  A    between atoms: C_7  and  C_9
    4  A    between atoms: C_7  and  C_22
    5  A    between atoms: C_9  and  C_23
    6  A    between atoms: C_15  and  C_23
    7  A    between atoms: C_19  and  N_24
                            x       y       z     vdW  Elec       q    Type
                         _______ _______ _______ _____ _____    ______ ____

>  <TORSDO>
F 7

$$$$
=
 OpenBabel11052422313D

 31 34  0  0  1  0  0  0  0  0999 V2000
  161.9310  209.3130  148.8380 C   0  0  0  0  0  0  0  0  0  0  0  0
  161.9080  207.3870  152.1690 C   0  0  2  0  0  3  0  0  0  0  0  0
  161.5160  208.4880  153.1530 C   0  0  0  0  0  0  0  0  0  0  0  0
  161.7880  210.7750  153.9490 C   0  0  0  0  0  3  0  0  0  0  0  0
  161.8690  207.7250  150.6840 C   0  0  0  0  0  0  0  0  0  0  0  0
  161.9490  208.2600  147.9210 C   0  0  0  0  0  3  0  0  0  0  0  0
  162.0500  209.7780  153.0100 C   0  0  0  0  0  3  0  0  0  0  0  0
  161.8140  204.9470  151.6040 C   0  0  1  0  0  3  0  0  0  0  0  0
  161.9490  210.6250  148.3880 O   0  0  0  0  0  1  0  0  0  0  0  0
  160.2600  206.7990  154.5880 C   0  0  0  0  0  2  0  0  0  0  0  0
  161.0090  210.4890  155.0700 C   0  0  0  0  0  3  0  0  0  0  0  0
  161.8530  205.3070  150.1880 N   0  0  0  0  0  2  0  0  0  0  0  0
  161.1560  206.0660  152.4190 C   0  0  1  0  0  3  0  0  0  0  0  0
  161.8990  209.0460  150.2090 C   0  0  0  0  0  3  0  0  0  0  0  0
  159.7470  208.9340  156.3980 O   0  0  0  0  0  1  0  0  0  0  0  0
  161.9050  206.6680  149.7470 C   0  0  0  0  0  0  0  0  0  0  0  0
  161.9350  206.9400  148.3760 C   0  0  0  0  0  3  0  0  0  0  0  0
  161.1210  205.7490  153.9040 C   0  0  0  0  0  2  0  0  0  0  0  0
  160.7810  208.1870  154.3300 C   0  0  0  0  0  0  0  0  0  0  0  0
  160.5080  209.2010  155.2640 C   0  0  0  0  0  0  0  0  0  0  0  0
  161.1190  203.5970  151.7730 C   0  0  0  0  0  2  0  0  0  0  0  0
  160.5110  203.1020  150.4660 C   0  0  0  0  0  2  0  0  0  0  0  0
  160.6250  201.5900  150.3660 C   0  0  0  0  0  2  0  0  0  0  0  0
  160.9530  201.1750  148.9410 C   0  0  0  0  0  2  0  0  0  0  0  0
  161.2540  202.3920  148.0830 C   0  0  0  0  0  2  0  0  0  0  0  0
  160.9320  200.4790  146.2160 S   0  0  0  0  0  0  0  0  0  0  0  0
  161.0780  202.0560  146.6440 C   0  0  0  0  0  0  0  0  0  0  0  0
  161.7400  204.2370  145.4490 C   0  0  0  0  0  0  0  0  0  0  0  0
  162.7800  204.4320  146.1310 O   0  0  0  0  0  0  0  0  0  0  0  0
  161.3220  205.3820  144.1440 S   0  0  0  0  0  1  0  0  0  0  0  0
  160.8710  203.1280  145.7110 N   0  0  0  0  0  2  0  0  0  0  0  0
  1 14  1  0  0  0  0
  2  5  1  6  0  0  0
  2 13  1  0  0  0  0
  2  3  1  0  0  0  0
  3 19  1  0  0  0  0
  4 11  2  0  0  0  0
  6 17  1  0  0  0  0
  6  1  2  0  0  0  0
  7  3  2  0  0  0  0
  7  4  1  0  0  0  0
  8 21  1  6  0  0  0
  8 13  1  0  0  0  0
  9  1  1  0  0  0  0
 11 20  1  0  0  0  0
 12  8  1  0  0  0  0
 13 18  1  1  0  0  0
 14  5  2  0  0  0  0
 16 12  1  0  0  0  0
 16  5  1  0  0  0  0
 17 16  2  0  0  0  0
 18 10  1  0  0  0  0
 19 10  1  0  0  0  0
 19 20  2  0  0  0  0
 20 15  1  0  0  0  0
 22 21  1  0  0  0  0
 23 22  1  0  0  0  0
 24 23  1  0  0  0  0
 25 24  1  0  0  0  0
 26 27  2  0  0  0  0
 27 25  1  0  0  0  0
 28 31  1  0  0  0  0
 28 29  2  0  0  0  0
 30 28  1  0  0  0  0
 31 27  1  0  0  0  0
M  END
>  <MODEL>
4

>  <REMARK>
 VINA RESULT:      -8.6      3.889      7.954
  Name = 
  7 active torsions:
  status: ('A' for Active; 'I' for Inactive)
    1  A    between atoms: C_3  and  C_19
    2  A    between atoms: C_3  and  C_22
    3  A    between atoms: C_7  and  C_9
    4  A    between atoms: C_7  and  C_22
    5  A    between atoms: C_9  and  C_23
    6  A    between atoms: C_15  and  C_23
    7  A    between atoms: C_19  and  N_24
                            x       y       z     vdW  Elec       q    Type
                         _______ _______ _______ _____ _____    ______ ____

>  <TORSDO>
F 7

$$$$
=
 OpenBabel11052422313D

 31 34  0  0  1  0  0  0  0  0999 V2000
  162.2210  210.2190  148.9880 C   0  0  0  0  0  0  0  0  0  0  0  0
  160.8920  206.7070  149.8260 C   0  0  2  0  0  3  0  0  0  0  0  0
  161.1020  205.9790  148.4990 C   0  0  0  0  0  0  0  0  0  0  0  0
  160.9230  205.9680  146.0690 C   0  0  0  0  0  3  0  0  0  0  0  0
  161.4550  208.1170  149.9510 C   0  0  0  0  0  0  0  0  0  0  0  0
  162.3470  210.7690  150.2650 C   0  0  0  0  0  3  0  0  0  0  0  0
  160.8360  206.6380  147.2890 C   0  0  0  0  0  3  0  0  0  0  0  0
  160.8080  206.5320  152.3250 C   0  0  1  0  0  3  0  0  0  0  0  0
  162.5390  210.9790  147.8720 O   0  0  0  0  0  1  0  0  0  0  0  0
  161.5720  203.8010  149.7350 C   0  0  0  0  0  2  0  0  0  0  0  0
  161.2500  204.6120  146.0400 C   0  0  0  0  0  3  0  0  0  0  0  0
  161.2790  207.9140  152.4040 N   0  0  0  0  0  2  0  0  0  0  0  0
  161.3240  205.8680  151.0430 C   0  0  1  0  0  3  0  0  0  0  0  0
  161.7720  208.9060  148.8330 C   0  0  0  0  0  3  0  0  0  0  0  0
  161.7780  202.5650  147.1810 O   0  0  0  0  0  1  0  0  0  0  0  0
  161.5690  208.6900  151.2370 C   0  0  0  0  0  0  0  0  0  0  0  0
  162.0220  210.0040  151.3870 C   0  0  0  0  0  3  0  0  0  0  0  0
  160.8330  204.4370  150.9020 C   0  0  0  0  0  2  0  0  0  0  0  0
  161.3670  204.5850  148.4660 C   0  0  0  0  0  0  0  0  0  0  0  0
  161.4700  203.9200  147.2320 C   0  0  0  0  0  0  0  0  0  0  0  0
  161.2080  205.7780  153.5920 C   0  0  0  0  0  2  0  0  0  0  0  0
  161.5450  206.7260  154.7370 C   0  0  0  0  0  2  0  0  0  0  0  0
  160.3260  206.9500  155.6160 C   0  0  0  0  0  2  0  0  0  0  0  0
  160.7020  207.7510  156.8520 C   0  0  0  0  0  2  0  0  0  0  0  0
  160.0620  209.1280  156.8150 C   0  0  0  0  0  2  0  0  0  0  0  0
  162.3630  210.3260  156.0980 S   0  0  0  0  0  0  0  0  0  0  0  0
  160.7770  209.9970  155.8410 C   0  0  0  0  0  0  0  0  0  0  0  0
  159.6910  211.6800  154.2270 C   0  0  0  0  0  0  0  0  0  0  0  0
  159.8050  212.6700  154.9960 O   0  0  0  0  0  0  0  0  0  0  0  0
  158.9740  211.9100  152.6080 S   0  0  0  0  0  1  0  0  0  0  0  0
  160.1010  210.3680  154.6310 N   0  0  0  0  0  2  0  0  0  0  0  0
  1  6  1  0  0  0  0
  2  3  1  6  0  0  0
  2  5  1  0  0  0  0
  2 13  1  0  0  0  0
  4  7  1  0  0  0  0
  5 16  2  0  0  0  0
  6 17  2  0  0  0  0
  7  3  2  0  0  0  0
  8 12  1  0  0  0  0
  8 21  1  1  0  0  0
  9  1  1  0  0  0  0
 10 18  1  0  0  0  0
 11  4  2  0  0  0  0
 11 20  1  0  0  0  0
 13 18  1  6  0  0  0
 13  8  1  0  0  0  0
 14  1  2  0  0  0  0
 14  5  1  0  0  0  0
 15 20  1  0  0  0  0
 16 17  1  0  0  0  0
 16 12  1  0  0  0  0
 19  3  1  0  0  0  0
 19 10  1  0  0  0  0
 20 19  2  0  0  0  0
 21 22  1  0  0  0  0
 22 23  1  0  0  0  0
 23 24  1  0  0  0  0
 25 24  1  0  0  0  0
 27 26  2  0  0  0  0
 27 25  1  0  0  0  0
 28 31  1  0  0  0  0
 28 29  2  0  0  0  0
 30 28  1  0  0  0  0
 31 27  1  0  0  0  0
M  END
>  <MODEL>
5

>  <REMARK>
 VINA RESULT:      -8.2      3.766      6.776
  Name = 
  7 active torsions:
  status: ('A' for Active; 'I' for Inactive)
    1  A    between atoms: C_3  and  C_19
    2  A    between atoms: C_3  and  C_22
    3  A    between atoms: C_7  and  C_9
    4  A    between atoms: C_7  and  C_22
    5  A    between atoms: C_9  and  C_23
    6  A    between atoms: C_15  and  C_23
    7  A    between atoms: C_19  and  N_24
                            x       y       z     vdW  Elec       q    Type
                         _______ _______ _______ _____ _____    ______ ____

>  <TORSDO>
F 7

$$$$
=
 OpenBabel11052422313D

 31 34  0  0  1  0  0  0  0  0999 V2000
  160.8470  202.3150  151.0420 C   0  0  0  0  0  0  0  0  0  0  0  0
  161.8850  205.4540  149.0730 C   0  0  2  0  0  3  0  0  0  0  0  0
  161.5340  205.0450  147.6440 C   0  0  0  0  0  0  0  0  0  0  0  0
  161.5750  203.3660  145.8790 C   0  0  0  0  0  3  0  0  0  0  0  0
  161.4650  204.5150  150.1970 C   0  0  0  0  0  0  0  0  0  0  0  0
  160.8450  202.8080  152.3480 C   0  0  0  0  0  3  0  0  0  0  0  0
  161.7930  203.7380  147.2060 C   0  0  0  0  0  3  0  0  0  0  0  0
  162.0930  207.3230  150.7310 C   0  0  1  0  0  3  0  0  0  0  0  0
  160.5390  200.9840  150.8020 O   0  0  0  0  0  1  0  0  0  0  0  0
  160.9330  207.4540  147.0730 C   0  0  0  0  0  2  0  0  0  0  0  0
  161.1210  204.3080  144.9570 C   0  0  0  0  0  3  0  0  0  0  0  0
  161.7580  206.3750  151.7920 N   0  0  0  0  0  2  0  0  0  0  0  0
  161.4460  206.8920  149.4100 C   0  0  1  0  0  3  0  0  0  0  0  0
  161.1620  203.1620  149.9760 C   0  0  0  0  0  3  0  0  0  0  0  0
  160.4680  206.5550  144.4130 O   0  0  0  0  0  1  0  0  0  0  0  0
  161.4770  204.9970  151.5250 C   0  0  0  0  0  0  0  0  0  0  0  0
  161.1580  204.1470  152.5880 C   0  0  0  0  0  3  0  0  0  0  0  0
  161.7920  207.8320  148.2690 C   0  0  0  0  0  2  0  0  0  0  0  0
  161.1380  206.0150  146.6850 C   0  0  0  0  0  0  0  0  0  0  0  0
  160.9040  205.6280  145.3540 C   0  0  0  0  0  0  0  0  0  0  0  0
  161.6950  208.7350  151.1590 C   0  0  0  0  0  2  0  0  0  0  0  0
  160.8150  208.7270  152.4030 C   0  0  0  0  0  2  0  0  0  0  0  0
  160.2520  210.1140  152.6630 C   0  0  0  0  0  2  0  0  0  0  0  0
  161.0910  210.8420  153.7020 C   0  0  0  0  0  2  0  0  0  0  0  0
  160.2080  211.6690  154.6220 C   0  0  0  0  0  2  0  0  0  0  0  0
  160.5060  212.1440  157.2540 S   0  0  0  0  0  0  0  0  0  0  0  0
  160.2520  211.1150  156.0020 C   0  0  0  0  0  0  0  0  0  0  0  0
  160.7790  208.6440  156.4880 C   0  0  0  0  0  0  0  0  0  0  0  0
  162.0300  208.7910  156.4940 O   0  0  0  0  0  0  0  0  0  0  0  0
  160.0870  207.0320  156.8170 S   0  0  0  0  0  1  0  0  0  0  0  0
  159.9000  209.7370  156.1990 N   0  0  0  0  0  2  0  0  0  0  0  0
  1  6  1  0  0  0  0
  2  3  1  6  0  0  0
  2 13  1  0  0  0  0
  2  5  1  0  0  0  0
  4  7  2  0  0  0  0
  5 16  2  0  0  0  0
  6 17  2  0  0  0  0
  7  3  1  0  0  0  0
  8 21  1  1  0  0  0
  8 12  1  0  0  0  0
  9  1  1  0  0  0  0
 10 18  1  0  0  0  0
 11 20  2  0  0  0  0
 11  4  1  0  0  0  0
 13 18  1  6  0  0  0
 13  8  1  0  0  0  0
 14  5  1  0  0  0  0
 14  1  2  0  0  0  0
 15 20  1  0  0  0  0
 16 12  1  0  0  0  0
 16 17  1  0  0  0  0
 19 10  1  0  0  0  0
 19  3  2  0  0  0  0
 20 19  1  0  0  0  0
 21 22  1  0  0  0  0
 22 23  1  0  0  0  0
 23 24  1  0  0  0  0
 24 25  1  0  0  0  0
 25 27  1  0  0  0  0
 27 31  1  0  0  0  0
 27 26  2  0  0  0  0
 28 29  2  0  0  0  0
 28 30  1  0  0  0  0
 31 28  1  0  0  0  0
M  END
>  <MODEL>
6

>  <REMARK>
 VINA RESULT:      -8.0      4.859      7.076
  Name = 
  7 active torsions:
  status: ('A' for Active; 'I' for Inactive)
    1  A    between atoms: C_3  and  C_19
    2  A    between atoms: C_3  and  C_22
    3  A    between atoms: C_7  and  C_9
    4  A    between atoms: C_7  and  C_22
    5  A    between atoms: C_9  and  C_23
    6  A    between atoms: C_15  and  C_23
    7  A    between atoms: C_19  and  N_24
                            x       y       z     vdW  Elec       q    Type
                         _______ _______ _______ _____ _____    ______ ____

>  <TORSDO>
F 7

$$$$
=
 OpenBabel11052422313D

 31 34  0  0  1  0  0  0  0  0999 V2000
  160.8420  203.7380  151.9730 C   0  0  0  0  0  0  0  0  0  0  0  0
  161.8560  205.3170  148.6140 C   0  0  2  0  0  3  0  0  0  0  0  0
  161.3810  204.2550  147.6240 C   0  0  0  0  0  0  0  0  0  0  0  0
  161.2190  201.9060  146.9950 C   0  0  0  0  0  3  0  0  0  0  0  0
  161.4840  205.1290  150.0790 C   0  0  0  0  0  0  0  0  0  0  0  0
  160.9590  204.8340  152.8300 C   0  0  0  0  0  3  0  0  0  0  0  0
  161.5520  202.8940  147.9210 C   0  0  0  0  0  3  0  0  0  0  0  0
  162.2650  207.7520  149.0430 C   0  0  1  0  0  3  0  0  0  0  0  0
  160.4630  202.5020  152.4760 O   0  0  0  0  0  1  0  0  0  0  0  0
  160.8370  206.0560  145.9070 C   0  0  0  0  0  2  0  0  0  0  0  0
  160.7350  202.2650  145.7370 C   0  0  0  0  0  3  0  0  0  0  0  0
  161.9730  207.5190  150.4560 N   0  0  0  0  0  2  0  0  0  0  0  0
  161.5020  206.7490  148.1700 C   0  0  1  0  0  3  0  0  0  0  0  0
  161.1100  203.8840  150.6100 C   0  0  0  0  0  3  0  0  0  0  0  0
  160.1360  203.9480  144.1300 O   0  0  0  0  0  1  0  0  0  0  0  0
  161.6160  206.2270  150.9590 C   0  0  0  0  0  0  0  0  0  0  0  0
  161.3450  206.0760  152.3220 C   0  0  0  0  0  3  0  0  0  0  0  0
  161.7990  206.9340  146.6920 C   0  0  0  0  0  2  0  0  0  0  0  0
  160.9530  204.6130  146.3190 C   0  0  0  0  0  0  0  0  0  0  0  0
  160.6040  203.6120  145.3960 C   0  0  0  0  0  0  0  0  0  0  0  0
  161.9590  209.2070  148.6880 C   0  0  0  0  0  2  0  0  0  0  0  0
  161.9970  210.1120  149.9130 C   0  0  0  0  0  2  0  0  0  0  0  0
  161.8560  211.5680  149.5010 C   0  0  0  0  0  2  0  0  0  0  0  0
  162.2480  211.7490  148.0430 C   0  0  0  0  0  2  0  0  0  0  0  0
  162.5030  213.2140  147.7330 C   0  0  0  0  0  2  0  0  0  0  0  0
  162.3270  214.0690  145.1870 S   0  0  0  0  0  0  0  0  0  0  0  0
  161.6290  213.6580  146.6130 C   0  0  0  0  0  0  0  0  0  0  0  0
  159.3290  212.6190  146.1130 C   0  0  0  0  0  0  0  0  0  0  0  0
  159.7430  211.8470  145.2090 O   0  0  0  0  0  0  0  0  0  0  0  0
  157.6030  212.5850  146.5690 S   0  0  0  0  0  1  0  0  0  0  0  0
  160.2070  213.5420  146.7690 N   0  0  0  0  0  2  0  0  0  0  0  0
  1  9  1  0  0  0  0
  1  6  1  0  0  0  0
  2  3  1  6  0  0  0
  2  5  1  0  0  0  0
  3  7  1  0  0  0  0
  4  7  2  0  0  0  0
  5 14  1  0  0  0  0
  5 16  2  0  0  0  0
  8 21  1  6  0  0  0
  8 12  1  0  0  0  0
 10 19  1  0  0  0  0
 10 18  1  0  0  0  0
 11  4  1  0  0  0  0
 12 16  1  0  0  0  0
 13 18  1  6  0  0  0
 13  2  1  0  0  0  0
 13  8  1  0  0  0  0
 14  1  2  0  0  0  0
 15 20  1  0  0  0  0
 16 17  1  0  0  0  0
 17  6  2  0  0  0  0
 19  3  2  0  0  0  0
 20 11  2  0  0  0  0
 20 19  1  0  0  0  0
 21 22  1  0  0  0  0
 23 22  1  0  0  0  0
 24 23  1  0  0  0  0
 25 24  1  0  0  0  0
 26 27  2  0  0  0  0
 27 31  1  0  0  0  0
 27 25  1  0  0  0  0
 28 30  1  0  0  0  0
 28 31  1  0  0  0  0
 29 28  2  0  0  0  0
M  END
>  <MODEL>
7

>  <REMARK>
 VINA RESULT:      -7.9      2.032      3.122
  Name = 
  7 active torsions:
  status: ('A' for Active; 'I' for Inactive)
    1  A    between atoms: C_3  and  C_19
    2  A    between atoms: C_3  and  C_22
    3  A    between atoms: C_7  and  C_9
    4  A    between atoms: C_7  and  C_22
    5  A    between atoms: C_9  and  C_23
    6  A    between atoms: C_15  and  C_23
    7  A    between atoms: C_19  and  N_24
                            x       y       z     vdW  Elec       q    Type
                         _______ _______ _______ _____ _____    ______ ____

>  <TORSDO>
F 7

$$$$
=
 OpenBabel11052422313D

 31 34  0  0  1  0  0  0  0  0999 V2000
  160.6310  202.0260  150.7420 C   0  0  0  0  0  0  0  0  0  0  0  0
  161.7210  205.2620  148.9680 C   0  0  2  0  0  3  0  0  0  0  0  0
  161.4240  204.9220  147.5090 C   0  0  0  0  0  0  0  0  0  0  0  0
  161.5380  203.3310  145.6670 C   0  0  0  0  0  3  0  0  0  0  0  0
  161.2660  204.2670  150.0280 C   0  0  0  0  0  0  0  0  0  0  0  0
  160.5790  202.4540  152.0700 C   0  0  0  0  0  3  0  0  0  0  0  0
  161.7060  203.6390  147.0170 C   0  0  0  0  0  3  0  0  0  0  0  0
  161.8570  207.0490  150.7220 C   0  0  1  0  0  3  0  0  0  0  0  0
  160.3400  200.7070  150.4270 O   0  0  0  0  0  1  0  0  0  0  0  0
  160.8290  207.3540  147.0340 C   0  0  0  0  0  2  0  0  0  0  0  0
  161.1120  204.3150  144.7760 C   0  0  0  0  0  3  0  0  0  0  0  0
  161.4900  206.0480  151.7220 N   0  0  0  0  0  2  0  0  0  0  0  0
  161.2610  206.6800  149.3580 C   0  0  1  0  0  3  0  0  0  0  0  0
  160.9790  202.9250  149.7310 C   0  0  0  0  0  3  0  0  0  0  0  0
  160.4660  206.5840  144.3190 O   0  0  0  0  0  1  0  0  0  0  0  0
  161.2270  204.6840  151.3780 C   0  0  0  0  0  0  0  0  0  0  0  0
  160.8760  203.7810  152.3860 C   0  0  0  0  0  3  0  0  0  0  0  0
  161.6420  207.6760  148.2770 C   0  0  0  0  0  2  0  0  0  0  0  0
  161.0570  205.9360  146.5850 C   0  0  0  0  0  0  0  0  0  0  0  0
  160.8740  205.6140  145.2290 C   0  0  0  0  0  0  0  0  0  0  0  0
  161.4360  208.4360  151.2030 C   0  0  0  0  0  2  0  0  0  0  0  0
  160.9430  208.4140  152.6450 C   0  0  0  0  0  2  0  0  0  0  0  0
  160.1450  209.6700  152.9520 C   0  0  0  0  0  2  0  0  0  0  0  0
  161.0430  210.7350  153.5610 C   0  0  0  0  0  2  0  0  0  0  0  0
  161.6520  210.2430  154.8630 C   0  0  0  0  0  2  0  0  0  0  0  0
  160.4430  208.5440  156.5650 S   0  0  0  0  0  0  0  0  0  0  0  0
  160.5830  210.0260  155.8750 C   0  0  0  0  0  0  0  0  0  0  0  0
  158.4430  211.4340  156.1130 C   0  0  0  0  0  0  0  0  0  0  0  0
  157.7390  210.7050  155.3660 O   0  0  0  0  0  0  0  0  0  0  0  0
  157.7010  212.8580  156.8940 S   0  0  0  0  0  1  0  0  0  0  0  0
  159.8320  211.1610  156.3320 N   0  0  0  0  0  2  0  0  0  0  0  0
  1  6  1  0  0  0  0
  2  3  1  6  0  0  0
  2 13  1  0  0  0  0
  2  5  1  0  0  0  0
  4  7  2  0  0  0  0
  5 16  2  0  0  0  0
  6 17  2  0  0  0  0
  7  3  1  0  0  0  0
  8 21  1  1  0  0  0
  8 12  1  0  0  0  0
  9  1  1  0  0  0  0
 10 18  1  0  0  0  0
 11 20  2  0  0  0  0
 11  4  1  0  0  0  0
 13 18  1  6  0  0  0
 13  8  1  0  0  0  0
 14  5  1  0  0  0  0
 14  1  2  0  0  0  0
 15 20  1  0  0  0  0
 16 12  1  0  0  0  0
 16 17  1  0  0  0  0
 19 10  1  0  0  0  0
 19  3  2  0  0  0  0
 20 19  1  0  0  0  0
 21 22  1  0  0  0  0
 22 23  1  0  0  0  0
 23 24  1  0  0  0  0
 24 25  1  0  0  0  0
 25 27  1  0  0  0  0
 27 31  1  0  0  0  0
 27 26  2  0  0  0  0
 28 31  1  0  0  0  0
 28 30  1  0  0  0  0
 29 28  2  0  0  0  0
M  END
>  <MODEL>
8

>  <REMARK>
 VINA RESULT:      -7.8      4.907      6.946
  Name = 
  7 active torsions:
  status: ('A' for Active; 'I' for Inactive)
    1  A    between atoms: C_3  and  C_19
    2  A    between atoms: C_3  and  C_22
    3  A    between atoms: C_7  and  C_9
    4  A    between atoms: C_7  and  C_22
    5  A    between atoms: C_9  and  C_23
    6  A    between atoms: C_15  and  C_23
    7  A    between atoms: C_19  and  N_24
                            x       y       z     vdW  Elec       q    Type
                         _______ _______ _______ _____ _____    ______ ____

>  <TORSDO>
F 7

$$$$
=
 OpenBabel11052422313D

 31 34  0  0  1  0  0  0  0  0999 V2000
  160.6280  202.0010  150.7830 C   0  0  0  0  0  0  0  0  0  0  0  0
  161.9010  205.1240  148.9300 C   0  0  2  0  0  3  0  0  0  0  0  0
  161.4700  204.8220  147.4960 C   0  0  0  0  0  0  0  0  0  0  0  0
  161.2970  203.2360  145.6540 C   0  0  0  0  0  3  0  0  0  0  0  0
  161.4270  204.1720  150.0220 C   0  0  0  0  0  0  0  0  0  0  0  0
  160.7130  202.4250  152.1110 C   0  0  0  0  0  3  0  0  0  0  0  0
  161.5890  203.5190  146.9880 C   0  0  0  0  0  3  0  0  0  0  0  0
  162.3350  206.8800  150.6660 C   0  0  1  0  0  3  0  0  0  0  0  0
  160.1890  200.7180  150.4920 O   0  0  0  0  0  1  0  0  0  0  0  0
  161.0830  207.3020  147.0600 C   0  0  0  0  0  2  0  0  0  0  0  0
  160.9070  204.2620  144.7930 C   0  0  0  0  0  3  0  0  0  0  0  0
  161.9430  205.9150  151.6920 N   0  0  0  0  0  2  0  0  0  0  0  0
  161.6100  206.5770  149.3490 C   0  0  1  0  0  3  0  0  0  0  0  0
  160.9900  202.8670  149.7480 C   0  0  0  0  0  3  0  0  0  0  0  0
  160.4550  206.5850  144.3790 O   0  0  0  0  0  1  0  0  0  0  0  0
  161.5250  204.5840  151.3700 C   0  0  0  0  0  0  0  0  0  0  0  0
  161.1590  203.7160  152.4020 C   0  0  0  0  0  3  0  0  0  0  0  0
  162.0100  207.5380  148.2420 C   0  0  0  0  0  2  0  0  0  0  0  0
  161.1380  205.8710  146.5980 C   0  0  0  0  0  0  0  0  0  0  0  0
  160.8290  205.5750  145.2590 C   0  0  0  0  0  0  0  0  0  0  0  0
  162.0860  208.2990  151.1730 C   0  0  0  0  0  2  0  0  0  0  0  0
  160.7430  208.4240  151.8820 C   0  0  0  0  0  2  0  0  0  0  0  0
  160.9380  208.9230  153.3040 C   0  0  0  0  0  2  0  0  0  0  0  0
  161.4150  210.3670  153.2990 C   0  0  0  0  0  2  0  0  0  0  0  0
  160.7950  211.1410  154.4500 C   0  0  0  0  0  2  0  0  0  0  0  0
  158.3260  211.0610  155.5200 S   0  0  0  0  0  0  0  0  0  0  0  0
  159.3280  211.2790  154.2400 C   0  0  0  0  0  0  0  0  0  0  0  0
  158.6220  213.1260  152.5930 C   0  0  0  0  0  0  0  0  0  0  0  0
  158.7090  214.0650  153.4270 O   0  0  0  0  0  0  0  0  0  0  0  0
  158.1620  213.4930  150.9080 S   0  0  0  0  0  1  0  0  0  0  0  0
  158.8610  211.7650  152.9720 N   0  0  0  0  0  2  0  0  0  0  0  0
  1  6  1  0  0  0  0
  2  3  1  6  0  0  0
  2 13  1  0  0  0  0
  2  5  1  0  0  0  0
  4  7  2  0  0  0  0
  5 16  2  0  0  0  0
  6 17  2  0  0  0  0
  7  3  1  0  0  0  0
  8 21  1  1  0  0  0
  8 12  1  0  0  0  0
  9  1  1  0  0  0  0
 10 18  1  0  0  0  0
 11 20  2  0  0  0  0
 11  4  1  0  0  0  0
 13 18  1  6  0  0  0
 13  8  1  0  0  0  0
 14  5  1  0  0  0  0
 14  1  2  0  0  0  0
 15 20  1  0  0  0  0
 16 12  1  0  0  0  0
 16 17  1  0  0  0  0
 19 10  1  0  0  0  0
 19  3  2  0  0  0  0
 20 19  1  0  0  0  0
 21 22  1  0  0  0  0
 22 23  1  0  0  0  0
 24 23  1  0  0  0  0
 24 25  1  0  0  0  0
 27 25  1  0  0  0  0
 27 26  2  0  0  0  0
 28 31  1  0  0  0  0
 28 29  2  0  0  0  0
 30 28  1  0  0  0  0
 31 27  1  0  0  0  0
M  END
>  <MODEL>
9

>  <REMARK>
 VINA RESULT:      -7.7      4.114      6.062
  Name = 
  7 active torsions:
  status: ('A' for Active; 'I' for Inactive)
    1  A    between atoms: C_3  and  C_19
    2  A    between atoms: C_3  and  C_22
    3  A    between atoms: C_7  and  C_9
    4  A    between atoms: C_7  and  C_22
    5  A    between atoms: C_9  and  C_23
    6  A    between atoms: C_15  and  C_23
    7  A    between atoms: C_19  and  N_24
                            x       y       z     vdW  Elec       q    Type
                         _______ _______ _______ _____ _____    ______ ____

>  <TORSDO>
F 7

$$$$
