=
 OpenBabel11052423173D

 27 30  0  0  1  0  0  0  0  0999 V2000
  161.3010  205.8590  149.7050 C   0  0  2  0  0  3  0  0  0  0  0  0
  160.8660  207.8140  151.1780 N   0  0  0  0  0  0  0  0  0  0  0  0
  160.9280  208.2860  154.8190 C   0  0  0  0  0  3  0  0  0  0  0  0
  160.4760  210.2470  156.1480 O   0  0  0  0  0  1  0  0  0  0  0  0
  161.4710  205.7360  152.1980 C   0  0  0  0  0  3  0  0  0  0  0  0
  160.4170  209.7630  152.4880 C   0  0  0  0  0  3  0  0  0  0  0  0
  160.3190  210.3720  153.7430 C   0  0  0  0  0  3  0  0  0  0  0  0
  160.7700  208.4140  152.3940 C   0  0  0  0  0  0  0  0  0  0  0  0
  160.5740  209.6360  154.9060 C   0  0  0  0  0  0  0  0  0  0  0  0
  161.0280  207.6720  153.5670 C   0  0  0  0  0  0  0  0  0  0  0  0
  161.2100  206.5000  151.0570 C   0  0  0  0  0  0  0  0  0  0  0  0
  161.3800  206.3270  153.4590 C   0  0  0  0  0  3  0  0  0  0  0  0
  160.8820  201.5390  149.8240 C   0  0  0  0  0  3  0  0  0  0  0  0
  161.4570  204.3360  149.8100 C   0  0  1  0  0  3  0  0  0  0  0  0
  160.6130  203.7730  150.9550 C   0  0  0  0  0  2  0  0  0  0  0  0
  160.9250  202.2880  151.1310 C   0  0  0  0  0  2  0  0  0  0  0  0
  160.9710  202.1570  148.6360 C   0  0  0  0  0  3  0  0  0  0  0  0
  161.0100  203.6590  148.5110 C   0  0  0  0  0  2  0  0  0  0  0  0
  162.6900  206.5960  148.7720 S   0  0  0  0  0  0  0  0  0  0  0  0
  164.0100  204.7550  146.7560 F   0  0  0  0  0  0  0  0  0  0  0  0
  161.0110  205.2350  144.7220 C   0  0  0  0  0  0  0  0  0  0  0  0
  160.4960  204.8260  143.5000 O   0  0  0  0  0  1  0  0  0  0  0  0
  162.0450  206.0570  147.1890 C   0  0  0  0  0  0  0  0  0  0  0  0
  162.2690  204.7880  145.1360 C   0  0  0  0  0  3  0  0  0  0  0  0
  160.2700  206.0950  145.5380 C   0  0  0  0  0  3  0  0  0  0  0  0
  160.7880  206.5080  146.7690 C   0  0  0  0  0  3  0  0  0  0  0  0
  162.7890  205.1980  146.3670 C   0  0  0  0  0  0  0  0  0  0  0  0
  1 19  1  1  0  0  0
  1 11  1  0  0  0  0
  2  8  1  0  0  0  0
  3  9  1  0  0  0  0
  5 12  2  0  0  0  0
  6  7  1  0  0  0  0
  7  9  2  0  0  0  0
  8  6  2  0  0  0  0
  8 10  1  0  0  0  0
  9  4  1  0  0  0  0
 10  3  2  0  0  0  0
 11  2  2  0  0  0  0
 11  5  1  0  0  0  0
 12 10  1  0  0  0  0
 13 16  1  0  0  0  0
 14  1  1  6  0  0  0
 14 15  1  0  0  0  0
 15 16  1  0  0  0  0
 17 13  2  0  0  0  0
 18 17  1  0  0  0  0
 18 14  1  0  0  0  0
 21 24  2  0  0  0  0
 21 25  1  0  0  0  0
 22 21  1  0  0  0  0
 23 19  1  0  0  0  0
 24 27  1  0  0  0  0
 25 26  2  0  0  0  0
 26 23  1  0  0  0  0
 27 20  1  0  0  0  0
 27 23  2  0  0  0  0
M  END
>  <MODEL>
1

>  <REMARK>
 VINA RESULT:      -9.7      0.000      0.000
  Name = 
  4 active torsions:
  status: ('A' for Active; 'I' for Inactive)
    1  A    between atoms: S_1  and  C_15
    2  A    between atoms: S_1  and  C_18
    3  A    between atoms: C_9  and  C_15
    4  A    between atoms: C_15  and  C_19
                            x       y       z     vdW  Elec       q    Type
                         _______ _______ _______ _____ _____    ______ ____

>  <TORSDO>
F 4

$$$$
=
 OpenBabel11052423173D

 27 30  0  0  1  0  0  0  0  0999 V2000
  161.3360  206.3680  149.6540 C   0  0  2  0  0  3  0  0  0  0  0  0
  161.0020  206.6750  152.0990 N   0  0  0  0  0  0  0  0  0  0  0  0
  161.1590  209.6000  154.3130 C   0  0  0  0  0  3  0  0  0  0  0  0
  160.8210  209.7760  156.6950 O   0  0  0  0  0  1  0  0  0  0  0  0
  161.5340  208.5960  150.7750 C   0  0  0  0  0  3  0  0  0  0  0  0
  160.6640  206.8410  154.4600 C   0  0  0  0  0  3  0  0  0  0  0  0
  160.6210  207.6270  155.6160 C   0  0  0  0  0  3  0  0  0  0  0  0
  160.9560  207.4320  153.2270 C   0  0  0  0  0  0  0  0  0  0  0  0
  160.8670  209.0030  155.5430 C   0  0  0  0  0  0  0  0  0  0  0  0
  161.2040  208.8200  153.1540 C   0  0  0  0  0  0  0  0  0  0  0  0
  161.2830  207.2240  150.8830 C   0  0  0  0  0  0  0  0  0  0  0  0
  161.4940  209.3960  151.9180 C   0  0  0  0  0  3  0  0  0  0  0  0
  160.9670  202.1500  150.6150 C   0  0  0  0  0  3  0  0  0  0  0  0
  161.5150  204.8850  150.0050 C   0  0  1  0  0  3  0  0  0  0  0  0
  160.8760  204.5560  151.3540 C   0  0  0  0  0  2  0  0  0  0  0  0
  161.2210  203.1190  151.7420 C   0  0  0  0  0  2  0  0  0  0  0  0
  160.8540  202.5440  149.3370 C   0  0  0  0  0  3  0  0  0  0  0  0
  160.8630  203.9980  148.9390 C   0  0  0  0  0  2  0  0  0  0  0  0
  162.6820  206.9490  148.5620 S   0  0  0  0  0  0  0  0  0  0  0  0
  163.9030  204.8010  146.8060 F   0  0  0  0  0  0  0  0  0  0  0  0
  160.8300  205.0080  144.8370 C   0  0  0  0  0  0  0  0  0  0  0  0
  160.2630  204.4240  143.7130 O   0  0  0  0  0  1  0  0  0  0  0  0
  161.9690  206.1840  147.1070 C   0  0  0  0  0  0  0  0  0  0  0  0
  162.1000  204.6110  145.2670 C   0  0  0  0  0  3  0  0  0  0  0  0
  160.1310  205.9950  145.5380 C   0  0  0  0  0  3  0  0  0  0  0  0
  160.7010  206.5840  146.6710 C   0  0  0  0  0  3  0  0  0  0  0  0
  162.6730  205.1980  146.3990 C   0  0  0  0  0  0  0  0  0  0  0  0
  1 19  1  6  0  0  0
  1 11  1  0  0  0  0
  2  8  1  0  0  0  0
  3  9  1  0  0  0  0
  5 11  1  0  0  0  0
  5 12  2  0  0  0  0
  6  7  1  0  0  0  0
  8  6  2  0  0  0  0
  9  7  2  0  0  0  0
  9  4  1  0  0  0  0
 10  8  1  0  0  0  0
 10  3  2  0  0  0  0
 11  2  2  0  0  0  0
 12 10  1  0  0  0  0
 13 16  1  0  0  0  0
 14  1  1  6  0  0  0
 14 15  1  0  0  0  0
 15 16  1  0  0  0  0
 17 13  2  0  0  0  0
 18 17  1  0  0  0  0
 18 14  1  0  0  0  0
 21 24  2  0  0  0  0
 21 25  1  0  0  0  0
 22 21  1  0  0  0  0
 23 19  1  0  0  0  0
 24 27  1  0  0  0  0
 25 26  2  0  0  0  0
 26 23  1  0  0  0  0
 27 20  1  0  0  0  0
 27 23  2  0  0  0  0
M  END
>  <MODEL>
2

>  <REMARK>
 VINA RESULT:      -9.7      0.823      1.496
  Name = 
  4 active torsions:
  status: ('A' for Active; 'I' for Inactive)
    1  A    between atoms: S_1  and  C_15
    2  A    between atoms: S_1  and  C_18
    3  A    between atoms: C_9  and  C_15
    4  A    between atoms: C_15  and  C_19
                            x       y       z     vdW  Elec       q    Type
                         _______ _______ _______ _____ _____    ______ ____

>  <TORSDO>
F 4

$$$$
=
 OpenBabel11052423173D

 27 30  0  0  1  0  0  0  0  0999 V2000
  161.6750  204.7740  148.9730 C   0  0  2  0  0  3  0  0  0  0  0  0
  161.2680  206.2260  150.9500 N   0  0  0  0  0  0  0  0  0  0  0  0
  161.6730  209.8240  151.5570 C   0  0  0  0  0  3  0  0  0  0  0  0
  161.2500  211.1320  153.5380 O   0  0  0  0  0  1  0  0  0  0  0  0
  162.0880  207.2420  148.9440 C   0  0  0  0  0  3  0  0  0  0  0  0
  160.8440  207.5150  152.9190 C   0  0  0  0  0  3  0  0  0  0  0  0
  160.8420  208.7540  153.5680 C   0  0  0  0  0  3  0  0  0  0  0  0
  161.2610  207.4260  151.5870 C   0  0  0  0  0  0  0  0  0  0  0  0
  161.2550  209.9060  152.8880 C   0  0  0  0  0  0  0  0  0  0  0  0
  161.6780  208.5890  150.9030 C   0  0  0  0  0  0  0  0  0  0  0  0
  161.6680  206.1110  149.6520 C   0  0  0  0  0  0  0  0  0  0  0  0
  162.0910  208.4860  149.5750 C   0  0  0  0  0  3  0  0  0  0  0  0
  161.4370  205.8810  144.7810 C   0  0  0  0  0  3  0  0  0  0  0  0
  161.4260  204.9040  147.4650 C   0  0  1  0  0  3  0  0  0  0  0  0
  160.6150  206.1610  147.1460 C   0  0  0  0  0  2  0  0  0  0  0  0
  160.2470  206.1640  145.6630 C   0  0  0  0  0  2  0  0  0  0  0  0
  162.5550  205.3020  145.2450 C   0  0  0  0  0  3  0  0  0  0  0  0
  162.7540  204.9880  146.7060 C   0  0  0  0  0  2  0  0  0  0  0  0
  160.4260  203.6880  149.7510 S   0  0  0  0  0  0  0  0  0  0  0  0
  161.6200  200.9790  150.4070 F   0  0  0  0  0  0  0  0  0  0  0  0
  161.2640  200.2340  146.8460 C   0  0  0  0  0  0  0  0  0  0  0  0
  161.5120  199.1920  145.9620 O   0  0  0  0  0  1  0  0  0  0  0  0
  160.7570  202.3320  148.6270 C   0  0  0  0  0  0  0  0  0  0  0  0
  161.5700  200.0880  148.2020 C   0  0  0  0  0  3  0  0  0  0  0  0
  160.7090  201.4280  146.3780 C   0  0  0  0  0  3  0  0  0  0  0  0
  160.4570  202.4770  147.2670 C   0  0  0  0  0  3  0  0  0  0  0  0
  161.3200  201.1350  149.0940 C   0  0  0  0  0  0  0  0  0  0  0  0
  1 11  1  0  0  0  0
  1 19  1  1  0  0  0
  2  8  1  0  0  0  0
  3  9  1  0  0  0  0
  5 12  2  0  0  0  0
  5 11  1  0  0  0  0
  6  7  1  0  0  0  0
  8  6  2  0  0  0  0
  9  4  1  0  0  0  0
  9  7  2  0  0  0  0
 10  3  2  0  0  0  0
 10  8  1  0  0  0  0
 11  2  2  0  0  0  0
 12 10  1  0  0  0  0
 13 17  2  0  0  0  0
 13 16  1  0  0  0  0
 14  1  1  1  0  0  0
 15 14  1  0  0  0  0
 16 15  1  0  0  0  0
 17 18  1  0  0  0  0
 18 14  1  0  0  0  0
 21 24  1  0  0  0  0
 22 21  1  0  0  0  0
 23 27  1  0  0  0  0
 23 19  1  0  0  0  0
 24 27  2  0  0  0  0
 25 21  2  0  0  0  0
 25 26  1  0  0  0  0
 26 23  2  0  0  0  0
 27 20  1  0  0  0  0
M  END
>  <MODEL>
3

>  <REMARK>
 VINA RESULT:      -8.8      2.293      4.148
  Name = 
  4 active torsions:
  status: ('A' for Active; 'I' for Inactive)
    1  A    between atoms: S_1  and  C_15
    2  A    between atoms: S_1  and  C_18
    3  A    between atoms: C_9  and  C_15
    4  A    between atoms: C_15  and  C_19
                            x       y       z     vdW  Elec       q    Type
                         _______ _______ _______ _____ _____    ______ ____

>  <TORSDO>
F 4

$$$$
=
 OpenBabel11052423173D

 27 30  0  0  1  0  0  0  0  0999 V2000
  161.0180  209.4920  153.0590 C   0  0  2  0  0  3  0  0  0  0  0  0
  158.9370  210.4860  153.9880 N   0  0  0  0  0  0  0  0  0  0  0  0
  157.0880  213.5770  153.2770 C   0  0  0  0  0  3  0  0  0  0  0  0
  155.0650  214.4490  154.2590 O   0  0  0  0  0  1  0  0  0  0  0  0
  160.0850  211.6690  152.2540 C   0  0  0  0  0  3  0  0  0  0  0  0
  156.9300  211.3430  154.9670 C   0  0  0  0  0  3  0  0  0  0  0  0
  155.9570  212.3440  155.0320 C   0  0  0  0  0  3  0  0  0  0  0  0
  157.9860  211.4540  154.0570 C   0  0  0  0  0  0  0  0  0  0  0  0
  156.0350  213.4590  154.1890 C   0  0  0  0  0  0  0  0  0  0  0  0
  158.0640  212.5790  153.2070 C   0  0  0  0  0  0  0  0  0  0  0  0
  159.9760  210.5690  153.1100 C   0  0  0  0  0  0  0  0  0  0  0  0
  159.1220  212.6780  152.3040 C   0  0  0  0  0  3  0  0  0  0  0  0
  162.3320  209.3360  157.1940 C   0  0  0  0  0  3  0  0  0  0  0  0
  161.7540  209.3520  154.3970 C   0  0  1  0  0  3  0  0  0  0  0  0
  161.8220  210.6910  155.1320 C   0  0  0  0  0  2  0  0  0  0  0  0
  162.7030  210.5440  156.3720 C   0  0  0  0  0  2  0  0  0  0  0  0
  161.6170  208.3160  156.6940 C   0  0  0  0  0  3  0  0  0  0  0  0
  161.0360  208.3460  155.3030 C   0  0  0  0  0  2  0  0  0  0  0  0
  162.1910  209.8410  151.7000 S   0  0  0  0  0  0  0  0  0  0  0  0
  162.1620  209.3780  148.7040 F   0  0  0  0  0  0  0  0  0  0  0  0
  161.1480  205.9550  149.4910 C   0  0  0  0  0  0  0  0  0  0  0  0
  160.8330  204.7760  148.8290 O   0  0  0  0  0  1  0  0  0  0  0  0
  161.7860  208.3300  150.8270 C   0  0  0  0  0  0  0  0  0  0  0  0
  161.5010  207.0940  148.7610 C   0  0  0  0  0  3  0  0  0  0  0  0
  161.1100  206.0030  150.8870 C   0  0  0  0  0  3  0  0  0  0  0  0
  161.4260  207.1900  151.5540 C   0  0  0  0  0  3  0  0  0  0  0  0
  161.8190  208.2820  149.4250 C   0  0  0  0  0  0  0  0  0  0  0  0
  1 19  1  6  0  0  0
  1 11  1  0  0  0  0
  2  8  1  0  0  0  0
  3  9  1  0  0  0  0
  5 12  2  0  0  0  0
  5 11  1  0  0  0  0
  6  7  1  0  0  0  0
  8  6  2  0  0  0  0
  9  4  1  0  0  0  0
  9  7  2  0  0  0  0
 10  3  2  0  0  0  0
 10  8  1  0  0  0  0
 11  2  2  0  0  0  0
 12 10  1  0  0  0  0
 14  1  1  6  0  0  0
 14 15  1  0  0  0  0
 14 18  1  0  0  0  0
 15 16  1  0  0  0  0
 16 13  1  0  0  0  0
 17 13  2  0  0  0  0
 18 17  1  0  0  0  0
 20 27  1  0  0  0  0
 21 25  1  0  0  0  0
 22 21  1  0  0  0  0
 23 26  1  0  0  0  0
 23 19  1  0  0  0  0
 24 27  1  0  0  0  0
 24 21  2  0  0  0  0
 25 26  2  0  0  0  0
 27 23  2  0  0  0  0
M  END
>  <MODEL>
4

>  <REMARK>
 VINA RESULT:      -8.4      3.345      6.352
  Name = 
  4 active torsions:
  status: ('A' for Active; 'I' for Inactive)
    1  A    between atoms: S_1  and  C_15
    2  A    between atoms: S_1  and  C_18
    3  A    between atoms: C_9  and  C_15
    4  A    between atoms: C_15  and  C_19
                            x       y       z     vdW  Elec       q    Type
                         _______ _______ _______ _____ _____    ______ ____

>  <TORSDO>
F 4

$$$$
=
 OpenBabel11052423173D

 27 30  0  0  1  0  0  0  0  0999 V2000
  161.3240  204.3860  149.9060 C   0  0  2  0  0  3  0  0  0  0  0  0
  161.3050  206.6330  150.9700 N   0  0  0  0  0  0  0  0  0  0  0  0
  161.1810  207.7640  154.4610 C   0  0  0  0  0  3  0  0  0  0  0  0
  161.1590  209.9940  155.3810 O   0  0  0  0  0  1  0  0  0  0  0  0
  161.2430  204.7050  152.3870 C   0  0  0  0  0  3  0  0  0  0  0  0
  161.2830  208.8470  151.8740 C   0  0  0  0  0  3  0  0  0  0  0  0
  161.2460  209.6900  152.9880 C   0  0  0  0  0  3  0  0  0  0  0  0
  161.2700  207.4600  152.0480 C   0  0  0  0  0  0  0  0  0  0  0  0
  161.1950  209.1510  154.2790 C   0  0  0  0  0  0  0  0  0  0  0  0
  161.2190  206.9170  153.3510 C   0  0  0  0  0  0  0  0  0  0  0  0
  161.2930  205.2770  151.1110 C   0  0  0  0  0  0  0  0  0  0  0  0
  161.2060  205.5310  153.5110 C   0  0  0  0  0  3  0  0  0  0  0  0
  161.7830  206.0500  145.9230 C   0  0  0  0  0  3  0  0  0  0  0  0
  161.6900  205.1630  148.6360 C   0  0  1  0  0  3  0  0  0  0  0  0
  162.3300  204.2460  147.5930 C   0  0  0  0  0  2  0  0  0  0  0  0
  162.8300  205.0850  146.4180 C   0  0  0  0  0  2  0  0  0  0  0  0
  160.7260  206.4100  146.6660 C   0  0  0  0  0  3  0  0  0  0  0  0
  160.4410  205.7950  148.0130 C   0  0  0  0  0  2  0  0  0  0  0  0
  159.7060  203.5540  149.7210 S   0  0  0  0  0  0  0  0  0  0  0  0
  161.4430  201.2450  150.6400 F   0  0  0  0  0  0  0  0  0  0  0  0
  161.4390  200.1720  147.1450 C   0  0  0  0  0  0  0  0  0  0  0  0
  161.9580  199.1510  146.3610 O   0  0  0  0  0  1  0  0  0  0  0  0
  160.3880  202.2290  148.7260 C   0  0  0  0  0  0  0  0  0  0  0  0
  161.7030  200.2030  148.5180 C   0  0  0  0  0  3  0  0  0  0  0  0
  160.6540  201.1700  146.5610 C   0  0  0  0  0  3  0  0  0  0  0  0
  160.1300  202.1980  147.3500 C   0  0  0  0  0  3  0  0  0  0  0  0
  161.1810  201.2300  149.3100 C   0  0  0  0  0  0  0  0  0  0  0  0
  1 19  1  6  0  0  0
  1 11  1  0  0  0  0
  2 11  2  0  0  0  0
  2  8  1  0  0  0  0
  5 12  2  0  0  0  0
  6  8  2  0  0  0  0
  6  7  1  0  0  0  0
  7  9  2  0  0  0  0
  8 10  1  0  0  0  0
  9  3  1  0  0  0  0
  9  4  1  0  0  0  0
 10 12  1  0  0  0  0
 10  3  2  0  0  0  0
 11  5  1  0  0  0  0
 13 16  1  0  0  0  0
 13 17  2  0  0  0  0
 14  1  1  1  0  0  0
 15 14  1  0  0  0  0
 16 15  1  0  0  0  0
 17 18  1  0  0  0  0
 18 14  1  0  0  0  0
 21 24  1  0  0  0  0
 22 21  1  0  0  0  0
 23 27  1  0  0  0  0
 23 19  1  0  0  0  0
 24 27  2  0  0  0  0
 25 21  2  0  0  0  0
 25 26  1  0  0  0  0
 26 23  2  0  0  0  0
 27 20  1  0  0  0  0
M  END
>  <MODEL>
5

>  <REMARK>
 VINA RESULT:      -8.1      2.226      3.756
  Name = 
  4 active torsions:
  status: ('A' for Active; 'I' for Inactive)
    1  A    between atoms: S_1  and  C_15
    2  A    between atoms: S_1  and  C_18
    3  A    between atoms: C_9  and  C_15
    4  A    between atoms: C_15  and  C_19
                            x       y       z     vdW  Elec       q    Type
                         _______ _______ _______ _____ _____    ______ ____

>  <TORSDO>
F 4

$$$$
=
 OpenBabel11052423173D

 27 30  0  0  1  0  0  0  0  0999 V2000
  161.0060  207.0260  151.7370 C   0  0  2  0  0  3  0  0  0  0  0  0
  161.0960  205.3760  149.8790 N   0  0  0  0  0  0  0  0  0  0  0  0
  161.1060  201.7060  149.7700 C   0  0  0  0  0  3  0  0  0  0  0  0
  161.2060  200.1990  147.8890 O   0  0  0  0  0  1  0  0  0  0  0  0
  160.9800  204.5540  152.1230 C   0  0  0  0  0  3  0  0  0  0  0  0
  161.1940  203.8890  148.0090 C   0  0  0  0  0  3  0  0  0  0  0  0
  161.2220  202.5830  147.5120 C   0  0  0  0  0  3  0  0  0  0  0  0
  161.1220  204.1090  149.3880 C   0  0  0  0  0  0  0  0  0  0  0  0
  161.1780  201.4930  148.3900 C   0  0  0  0  0  0  0  0  0  0  0  0
  161.0780  203.0100  150.2720 C   0  0  0  0  0  0  0  0  0  0  0  0
  161.0260  205.6190  151.2190 C   0  0  0  0  0  0  0  0  0  0  0  0
  161.0060  203.2430  151.6460 C   0  0  0  0  0  3  0  0  0  0  0  0
  162.3310  209.7610  148.6360 C   0  0  0  0  0  3  0  0  0  0  0  0
  161.1710  208.0480  150.6060 C   0  0  1  0  0  3  0  0  0  0  0  0
  161.9590  209.2710  151.0790 C   0  0  0  0  0  2  0  0  0  0  0  0
  161.9550  210.3320  149.9800 C   0  0  0  0  0  2  0  0  0  0  0  0
  162.2680  208.4470  148.3690 C   0  0  0  0  0  3  0  0  0  0  0  0
  161.9210  207.4270  149.4240 C   0  0  0  0  0  2  0  0  0  0  0  0
  162.3140  207.2290  152.9990 S   0  0  0  0  0  0  0  0  0  0  0  0
  160.4720  206.2030  155.1780 F   0  0  0  0  0  0  0  0  0  0  0  0
  159.6170  209.7080  155.7660 C   0  0  0  0  0  0  0  0  0  0  0  0
  158.8060  210.4630  156.6010 O   0  0  0  0  0  1  0  0  0  0  0  0
  161.2570  208.1860  154.0850 C   0  0  0  0  0  0  0  0  0  0  0  0
  159.6410  208.3150  155.8870 C   0  0  0  0  0  3  0  0  0  0  0  0
  160.4090  210.3400  154.8040 C   0  0  0  0  0  3  0  0  0  0  0  0
  161.2270  209.5800  153.9630 C   0  0  0  0  0  3  0  0  0  0  0  0
  160.4580  207.5520  155.0480 C   0  0  0  0  0  0  0  0  0  0  0  0
  1 19  1  1  0  0  0
  2 11  1  0  0  0  0
  3 10  1  0  0  0  0
  4  9  1  0  0  0  0
  6  8  1  0  0  0  0
  7  6  2  0  0  0  0
  7  9  1  0  0  0  0
  8  2  2  0  0  0  0
  8 10  1  0  0  0  0
  9  3  2  0  0  0  0
 10 12  2  0  0  0  0
 11  1  1  0  0  0  0
 11  5  2  0  0  0  0
 12  5  1  0  0  0  0
 13 16  1  0  0  0  0
 14 15  1  0  0  0  0
 14  1  1  1  0  0  0
 16 15  1  0  0  0  0
 17 13  2  0  0  0  0
 17 18  1  0  0  0  0
 18 14  1  0  0  0  0
 19 23  1  0  0  0  0
 21 24  1  0  0  0  0
 21 22  1  0  0  0  0
 23 27  1  0  0  0  0
 25 21  2  0  0  0  0
 26 23  2  0  0  0  0
 26 25  1  0  0  0  0
 27 20  1  0  0  0  0
 27 24  2  0  0  0  0
M  END
>  <MODEL>
6

>  <REMARK>
 VINA RESULT:      -8.1      2.929      7.999
  Name = 
  4 active torsions:
  status: ('A' for Active; 'I' for Inactive)
    1  A    between atoms: S_1  and  C_15
    2  A    between atoms: S_1  and  C_18
    3  A    between atoms: C_9  and  C_15
    4  A    between atoms: C_15  and  C_19
                            x       y       z     vdW  Elec       q    Type
                         _______ _______ _______ _____ _____    ______ ____

>  <TORSDO>
F 4

$$$$
=
 OpenBabel11052423173D

 27 30  0  0  1  0  0  0  0  0999 V2000
  161.1740  206.1380  149.1170 C   0  0  2  0  0  3  0  0  0  0  0  0
  160.9230  207.0610  151.4120 N   0  0  0  0  0  0  0  0  0  0  0  0
  161.7130  210.3160  152.9170 C   0  0  0  0  0  3  0  0  0  0  0  0
  161.4300  211.1010  155.1800 O   0  0  0  0  0  1  0  0  0  0  0  0
  161.8500  208.4720  149.7160 C   0  0  0  0  0  3  0  0  0  0  0  0
  160.6390  207.8310  153.6580 C   0  0  0  0  0  3  0  0  0  0  0  0
  160.7690  208.8520  154.6050 C   0  0  0  0  0  3  0  0  0  0  0  0
  161.0450  208.0490  152.3380 C   0  0  0  0  0  0  0  0  0  0  0  0
  161.3040  210.0920  154.2350 C   0  0  0  0  0  0  0  0  0  0  0  0
  161.5850  209.2990  151.9670 C   0  0  0  0  0  0  0  0  0  0  0  0
  161.3110  207.2450  150.1180 C   0  0  0  0  0  0  0  0  0  0  0  0
  161.9870  209.5020  150.6460 C   0  0  0  0  0  3  0  0  0  0  0  0
  161.1940  202.4370  151.3880 C   0  0  0  0  0  3  0  0  0  0  0  0
  161.4340  204.7660  149.7520 C   0  0  1  0  0  3  0  0  0  0  0  0
  161.7230  204.8960  151.2480 C   0  0  0  0  0  2  0  0  0  0  0  0
  162.1400  203.5350  151.8040 C   0  0  0  0  0  2  0  0  0  0  0  0
  160.3560  202.5640  150.3470 C   0  0  0  0  0  3  0  0  0  0  0  0
  160.2150  203.8540  149.5800 C   0  0  0  0  0  2  0  0  0  0  0  0
  162.3120  206.4370  147.7170 S   0  0  0  0  0  0  0  0  0  0  0  0
  160.4320  206.6180  145.3450 F   0  0  0  0  0  0  0  0  0  0  0  0
  160.5910  202.9670  145.2530 C   0  0  0  0  0  0  0  0  0  0  0  0
  160.0760  201.9140  144.5110 O   0  0  0  0  0  1  0  0  0  0  0  0
  161.6340  205.0910  146.7480 C   0  0  0  0  0  0  0  0  0  0  0  0
  160.2510  204.2840  144.9280 C   0  0  0  0  0  3  0  0  0  0  0  0
  161.4490  202.7110  146.3260 C   0  0  0  0  0  3  0  0  0  0  0  0
  161.9680  203.7720  147.0740 C   0  0  0  0  0  3  0  0  0  0  0  0
  160.7680  205.3470  145.6740 C   0  0  0  0  0  0  0  0  0  0  0  0
  1 19  1  6  0  0  0
  1 11  1  0  0  0  0
  2  8  1  0  0  0  0
  3  9  1  0  0  0  0
  5 11  1  0  0  0  0
  5 12  2  0  0  0  0
  6  7  1  0  0  0  0
  8  6  2  0  0  0  0
  9  7  2  0  0  0  0
  9  4  1  0  0  0  0
 10  8  1  0  0  0  0
 10  3  2  0  0  0  0
 11  2  2  0  0  0  0
 12 10  1  0  0  0  0
 13 16  1  0  0  0  0
 14  1  1  1  0  0  0
 14 15  1  0  0  0  0
 15 16  1  0  0  0  0
 17 13  2  0  0  0  0
 18 14  1  0  0  0  0
 18 17  1  0  0  0  0
 20 27  1  0  0  0  0
 21 25  1  0  0  0  0
 22 21  1  0  0  0  0
 23 26  1  0  0  0  0
 23 19  1  0  0  0  0
 24 21  2  0  0  0  0
 24 27  1  0  0  0  0
 25 26  2  0  0  0  0
 27 23  2  0  0  0  0
M  END
>  <MODEL>
7

>  <REMARK>
 VINA RESULT:      -8.1      1.699      2.304
  Name = 
  4 active torsions:
  status: ('A' for Active; 'I' for Inactive)
    1  A    between atoms: S_1  and  C_15
    2  A    between atoms: S_1  and  C_18
    3  A    between atoms: C_9  and  C_15
    4  A    between atoms: C_15  and  C_19
                            x       y       z     vdW  Elec       q    Type
                         _______ _______ _______ _____ _____    ______ ____

>  <TORSDO>
F 4

$$$$
=
 OpenBabel11052423173D

 27 30  0  0  1  0  0  0  0  0999 V2000
  161.1620  208.7170  152.2690 C   0  0  2  0  0  3  0  0  0  0  0  0
  161.0070  206.6480  150.8980 N   0  0  0  0  0  0  0  0  0  0  0  0
  161.0570  203.0710  151.7250 C   0  0  0  0  0  3  0  0  0  0  0  0
  160.9050  201.1350  150.2950 O   0  0  0  0  0  1  0  0  0  0  0  0
  161.2290  206.4250  153.2700 C   0  0  0  0  0  3  0  0  0  0  0  0
  160.8550  204.7340  149.4730 C   0  0  0  0  0  3  0  0  0  0  0  0
  160.8310  203.3440  149.3260 C   0  0  0  0  0  3  0  0  0  0  0  0
  160.9810  205.2980  150.7470 C   0  0  0  0  0  0  0  0  0  0  0  0
  160.9310  202.5140  150.4480 C   0  0  0  0  0  0  0  0  0  0  0  0
  161.0810  204.4600  151.8780 C   0  0  0  0  0  0  0  0  0  0  0  0
  161.1270  207.2250  152.1280 C   0  0  0  0  0  0  0  0  0  0  0  0
  161.2060  205.0350  153.1430 C   0  0  0  0  0  3  0  0  0  0  0  0
  162.3260  210.7670  148.6230 C   0  0  0  0  0  3  0  0  0  0  0  0
  161.8620  209.3820  151.0780 C   0  0  1  0  0  3  0  0  0  0  0  0
  161.5120  208.6750  149.7670 C   0  0  0  0  0  2  0  0  0  0  0  0
  162.3560  209.2590  148.6360 C   0  0  0  0  0  2  0  0  0  0  0  0
  161.9560  211.4890  149.6930 C   0  0  0  0  0  3  0  0  0  0  0  0
  161.4370  210.8490  150.9550 C   0  0  0  0  0  2  0  0  0  0  0  0
  161.9810  209.1620  153.8420 S   0  0  0  0  0  0  0  0  0  0  0  0
  159.8140  208.3000  155.7790 F   0  0  0  0  0  0  0  0  0  0  0  0
  158.4000  211.6370  155.2990 C   0  0  0  0  0  0  0  0  0  0  0  0
  157.3210  212.3920  155.7380 O   0  0  0  0  0  1  0  0  0  0  0  0
  160.5800  210.1180  154.4180 C   0  0  0  0  0  0  0  0  0  0  0  0
  158.5720  210.3280  155.7610 C   0  0  0  0  0  3  0  0  0  0  0  0
  159.3140  212.1860  154.3960 C   0  0  0  0  0  3  0  0  0  0  0  0
  160.4020  211.4270  153.9540 C   0  0  0  0  0  3  0  0  0  0  0  0
  159.6590  209.5660  155.3210 C   0  0  0  0  0  0  0  0  0  0  0  0
  1 19  1  1  0  0  0
  2 11  1  0  0  0  0
  3 10  1  0  0  0  0
  4  9  1  0  0  0  0
  6  8  1  0  0  0  0
  7  6  2  0  0  0  0
  7  9  1  0  0  0  0
  8  2  2  0  0  0  0
  8 10  1  0  0  0  0
  9  3  2  0  0  0  0
 10 12  2  0  0  0  0
 11  1  1  0  0  0  0
 11  5  2  0  0  0  0
 12  5  1  0  0  0  0
 13 16  1  0  0  0  0
 13 17  2  0  0  0  0
 14  1  1  1  0  0  0
 15 14  1  0  0  0  0
 16 15  1  0  0  0  0
 17 18  1  0  0  0  0
 18 14  1  0  0  0  0
 19 23  1  0  0  0  0
 21 22  1  0  0  0  0
 21 24  1  0  0  0  0
 23 27  1  0  0  0  0
 25 21  2  0  0  0  0
 26 25  1  0  0  0  0
 26 23  2  0  0  0  0
 27 24  2  0  0  0  0
 27 20  1  0  0  0  0
M  END
>  <MODEL>
8

>  <REMARK>
 VINA RESULT:      -8.0      3.515      8.103
  Name = 
  4 active torsions:
  status: ('A' for Active; 'I' for Inactive)
    1  A    between atoms: S_1  and  C_15
    2  A    between atoms: S_1  and  C_18
    3  A    between atoms: C_9  and  C_15
    4  A    between atoms: C_15  and  C_19
                            x       y       z     vdW  Elec       q    Type
                         _______ _______ _______ _____ _____    ______ ____

>  <TORSDO>
F 4

$$$$
=
 OpenBabel11052423173D

 27 30  0  0  1  0  0  0  0  0999 V2000
  161.5500  209.6750  149.6300 C   0  0  2  0  0  3  0  0  0  0  0  0
  161.2050  207.2510  150.0590 N   0  0  0  0  0  0  0  0  0  0  0  0
  161.5810  204.2480  147.9800 C   0  0  0  0  0  3  0  0  0  0  0  0
  161.2050  201.9250  148.5080 O   0  0  0  0  0  1  0  0  0  0  0  0
  161.9450  207.9260  147.8860 C   0  0  0  0  0  3  0  0  0  0  0  0
  160.8300  204.9500  150.5910 C   0  0  0  0  0  3  0  0  0  0  0  0
  160.8310  203.6090  150.1960 C   0  0  0  0  0  3  0  0  0  0  0  0
  161.2040  205.9450  149.6830 C   0  0  0  0  0  0  0  0  0  0  0  0
  161.2060  203.2580  148.8930 C   0  0  0  0  0  0  0  0  0  0  0  0
  161.5820  205.5900  148.3700 C   0  0  0  0  0  0  0  0  0  0  0  0
  161.5650  208.2410  149.1940 C   0  0  0  0  0  0  0  0  0  0  0  0
  161.9530  206.5930  147.4730 C   0  0  0  0  0  3  0  0  0  0  0  0
  162.5560  212.9770  146.9950 C   0  0  0  0  0  3  0  0  0  0  0  0
  161.9600  210.6180  148.4920 C   0  0  1  0  0  3  0  0  0  0  0  0
  160.8040  211.5370  148.0920 C   0  0  0  0  0  2  0  0  0  0  0  0
  161.1980  212.3370  146.8520 C   0  0  0  0  0  2  0  0  0  0  0  0
  163.4560  212.5620  147.9000 C   0  0  0  0  0  3  0  0  0  0  0  0
  163.1410  211.4960  148.9190 C   0  0  0  0  0  2  0  0  0  0  0  0
  162.6450  209.8850  151.0790 S   0  0  0  0  0  0  0  0  0  0  0  0
  161.5800  208.3500  153.4680 F   0  0  0  0  0  0  0  0  0  0  0  0
  159.1740  211.0780  153.8370 C   0  0  0  0  0  0  0  0  0  0  0  0
  158.1250  211.4450  154.6680 O   0  0  0  0  0  1  0  0  0  0  0  0
  161.2920  210.3400  152.1630 C   0  0  0  0  0  0  0  0  0  0  0  0
  159.8630  209.8830  154.0670 C   0  0  0  0  0  3  0  0  0  0  0  0
  159.5410  211.9020  152.7700 C   0  0  0  0  0  3  0  0  0  0  0  0
  160.5970  211.5330  151.9320 C   0  0  0  0  0  3  0  0  0  0  0  0
  160.9200  209.5100  153.2310 C   0  0  0  0  0  0  0  0  0  0  0  0
  1 19  1  1  0  0  0
  3 10  2  0  0  0  0
  3  9  1  0  0  0  0
  4  9  1  0  0  0  0
  5 11  1  0  0  0  0
  7  6  1  0  0  0  0
  8  2  1  0  0  0  0
  8  6  2  0  0  0  0
  9  7  2  0  0  0  0
 10  8  1  0  0  0  0
 11  1  1  0  0  0  0
 11  2  2  0  0  0  0
 12  5  2  0  0  0  0
 12 10  1  0  0  0  0
 13 17  2  0  0  0  0
 14 18  1  0  0  0  0
 14  1  1  1  0  0  0
 15 14  1  0  0  0  0
 16 13  1  0  0  0  0
 16 15  1  0  0  0  0
 17 18  1  0  0  0  0
 19 23  1  0  0  0  0
 21 24  1  0  0  0  0
 21 22  1  0  0  0  0
 23 27  1  0  0  0  0
 25 21  2  0  0  0  0
 26 23  2  0  0  0  0
 26 25  1  0  0  0  0
 27 20  1  0  0  0  0
 27 24  2  0  0  0  0
M  END
>  <MODEL>
9

>  <REMARK>
 VINA RESULT:      -8.0      3.569      8.102
  Name = 
  4 active torsions:
  status: ('A' for Active; 'I' for Inactive)
    1  A    between atoms: S_1  and  C_15
    2  A    between atoms: S_1  and  C_18
    3  A    between atoms: C_9  and  C_15
    4  A    between atoms: C_15  and  C_19
                            x       y       z     vdW  Elec       q    Type
                         _______ _______ _______ _____ _____    ______ ____

>  <TORSDO>
F 4

$$$$
