=
 OpenBabel11062410363D

 32 38  0  0  1  0  0  0  0  0999 V2000
  160.6310  208.9460  155.0460 C   0  0  0  0  0  2  0  0  0  0  0  0
  160.9400  206.4320  150.5290 C   0  0  0  0  0  0  0  0  0  0  0  0
  161.1490  201.8160  152.0790 C   0  0  0  0  0  3  0  0  0  0  0  0
  161.0990  201.3710  150.7570 C   0  0  0  0  0  3  0  0  0  0  0  0
  160.9930  207.0060  148.0300 C   0  0  0  0  0  0  0  0  0  0  0  0
  160.8900  206.3670  146.6770 C   0  0  0  0  0  0  0  0  0  0  0  0
  161.0970  208.2430  152.1420 C   0  0  0  0  0  0  0  0  0  0  0  0
  161.1830  205.9640  152.8700 N   0  0  0  0  0  0  0  0  0  0  0  0
  160.8320  204.8530  145.1320 C   0  0  0  0  0  0  0  0  0  0  0  0
  161.4030  207.6790  154.6350 C   0  0  0  0  0  2  0  0  0  0  0  0
  161.1390  203.1860  152.3510 C   0  0  0  0  0  3  0  0  0  0  0  0
  161.0740  205.5040  151.5800 C   0  0  0  0  0  0  0  0  0  0  0  0
  161.0470  204.1260  151.3140 C   0  0  0  0  0  0  0  0  0  0  0  0
  160.9130  204.5820  148.9120 C   0  0  0  0  0  0  0  0  0  0  0  0
  160.7550  206.0510  144.5820 O   0  0  0  0  0  0  0  0  0  0  0  0
  162.1060  210.1140  153.5000 C   0  0  0  0  0  2  0  0  0  0  0  0
  161.1780  207.2920  153.1870 C   0  0  0  0  0  0  0  0  0  0  0  0
  160.7990  206.9920  145.4850 N   0  0  0  0  0  0  0  0  0  0  0  0
  161.1920  209.7280  152.3310 C   0  0  0  0  0  2  0  0  0  0  0  0
  161.3630  210.2020  154.7750 N   0  0  1  0  0  0  0  0  0  0  0  0
  161.0140  202.2890  149.7140 C   0  0  0  0  0  3  0  0  0  0  0  0
  160.9720  203.6660  149.9720 C   0  0  0  0  0  0  0  0  0  0  0  0
  160.9790  204.0930  147.5520 N   0  0  0  0  0  0  0  0  0  0  0  0
  160.9550  207.7950  150.8320 C   0  0  0  0  0  3  0  0  0  0  0  0
  162.3290  207.7590  148.1190 C   0  0  0  0  0  1  0  0  0  0  0  0
  160.8160  203.5680  144.3880 C   0  0  0  0  0  1  0  0  0  0  0  0
  160.8830  205.9860  149.1790 C   0  0  0  0  0  0  0  0  0  0  0  0
  160.9300  205.0290  146.4850 C   0  0  0  0  0  0  0  0  0  0  0  0
  160.2790  212.1100  155.9840 C   0  0  2  0  0  3  0  0  0  0  0  0
  160.3220  211.2420  154.7290 C   0  0  2  0  0  3  0  0  0  0  0  0
  159.2430  211.0080  155.7690 C   0  0  0  0  0  2  0  0  0  0  0  0
  159.6790  213.3330  155.6880 O   0  0  0  0  0  1  0  0  0  0  0  0
  2 24  2  0  0  0  0
  2 12  1  0  0  0  0
  3 11  1  0  0  0  0
  4  3  2  0  0  0  0
  5 25  1  0  0  0  0
  5 27  2  0  0  0  0
  6  5  1  0  0  0  0
  7 19  1  0  0  0  0
  7 17  2  0  0  0  0
  8 17  1  0  0  0  0
  9 28  2  0  0  0  0
 10  1  1  0  0  0  0
 12  8  2  0  0  0  0
 13 12  1  0  0  0  0
 13 11  2  0  0  0  0
 14 27  1  0  0  0  0
 14 22  1  0  0  0  0
 15  9  1  0  0  0  0
 15 18  1  0  0  0  0
 17 10  1  0  0  0  0
 18  6  2  0  0  0  0
 19 16  1  0  0  0  0
 20 16  1  6  0  0  0
 20  1  1  0  0  0  0
 21 22  2  0  0  0  0
 21  4  1  0  0  0  0
 22 13  1  0  0  0  0
 23 14  2  0  0  0  0
 24  7  1  0  0  0  0
 26  9  1  0  0  0  0
 27  2  1  0  0  0  0
 28  6  1  0  0  0  0
 28 23  1  0  0  0  0
 29 32  1  6  0  0  0
 30 20  1  0  0  0  0
 30 31  1  1  0  0  0
 30 29  1  0  0  0  0
 31 29  1  0  0  0  0
M  END
>  <MODEL>
1

>  <REMARK>
 VINA RESULT:      -9.5      0.000      0.000
  Name = 
  1 active torsions:
  status: ('A' for Active; 'I' for Inactive)
    1  A    between atoms: C_10  and  N_24
                            x       y       z     vdW  Elec       q    Type
                         _______ _______ _______ _____ _____    ______ ____

>  <TORSDO>
F 1

$$$$
=
 OpenBabel11062410363D

 32 38  0  0  1  0  0  0  0  0999 V2000
  161.2870  211.5500  150.3790 C   0  0  0  0  0  2  0  0  0  0  0  0
  161.2620  206.5820  148.9150 C   0  0  0  0  0  0  0  0  0  0  0  0
  161.1640  204.3650  153.2540 C   0  0  0  0  0  3  0  0  0  0  0  0
  161.0390  203.1280  152.6190 C   0  0  0  0  0  3  0  0  0  0  0  0
  161.2800  205.2400  146.7300 C   0  0  0  0  0  0  0  0  0  0  0  0
  161.0860  203.8480  146.2060 C   0  0  0  0  0  0  0  0  0  0  0  0
  161.6070  208.9850  148.8090 C   0  0  0  0  0  0  0  0  0  0  0  0
  161.5410  207.8660  150.9240 N   0  0  0  0  0  0  0  0  0  0  0  0
  160.8650  201.6960  146.1570 C   0  0  0  0  0  0  0  0  0  0  0  0
  161.9470  210.3020  150.9940 C   0  0  0  0  0  2  0  0  0  0  0  0
  161.2680  205.5290  152.4920 C   0  0  0  0  0  3  0  0  0  0  0  0
  161.3570  206.6450  150.3190 C   0  0  0  0  0  0  0  0  0  0  0  0
  161.2160  205.4820  151.0910 C   0  0  0  0  0  0  0  0  0  0  0  0
  161.0420  204.1380  149.0510 C   0  0  0  0  0  0  0  0  0  0  0  0
  160.8630  202.1700  144.9240 O   0  0  0  0  0  0  0  0  0  0  0  0
  162.7990  211.1880  148.5040 C   0  0  0  0  0  2  0  0  0  0  0  0
  161.6480  209.0320  150.2230 C   0  0  0  0  0  0  0  0  0  0  0  0
  161.0070  203.4680  144.9140 N   0  0  0  0  0  0  0  0  0  0  0  0
  161.8220  210.1660  147.9090 C   0  0  0  0  0  2  0  0  0  0  0  0
  162.1050  212.1970  149.3310 N   0  0  1  0  0  0  0  0  0  0  0  0
  160.9920  203.0590  151.2290 C   0  0  0  0  0  3  0  0  0  0  0  0
  161.0640  204.2220  150.4500 C   0  0  0  0  0  0  0  0  0  0  0  0
  161.0280  202.8350  148.4230 N   0  0  0  0  0  0  0  0  0  0  0  0
  161.3910  207.7620  148.1810 C   0  0  0  0  0  3  0  0  0  0  0  0
  162.6720  205.7350  146.3090 C   0  0  0  0  0  1  0  0  0  0  0  0
  160.7270  200.2640  146.5220 C   0  0  0  0  0  1  0  0  0  0  0  0
  161.1280  205.3260  148.2600 C   0  0  0  0  0  0  0  0  0  0  0  0
  161.0180  202.7600  147.0040 C   0  0  0  0  0  0  0  0  0  0  0  0
  161.8150  213.9960  147.6110 C   0  0  2  0  0  3  0  0  0  0  0  0
  161.1460  212.9850  148.5390 C   0  0  2  0  0  3  0  0  0  0  0  0
  161.1710  214.4530  148.9190 C   0  0  0  0  0  2  0  0  0  0  0  0
  160.9500  214.3170  146.5660 O   0  0  0  0  0  1  0  0  0  0  0  0
  1 10  1  0  0  0  0
  2 12  1  0  0  0  0
  4  3  1  0  0  0  0
  5 27  2  0  0  0  0
  6  5  1  0  0  0  0
  6 28  1  0  0  0  0
  7 17  2  0  0  0  0
  9 26  1  0  0  0  0
  9 28  2  0  0  0  0
 11  3  2  0  0  0  0
 12  8  2  0  0  0  0
 12 13  1  0  0  0  0
 13 11  1  0  0  0  0
 14 22  1  0  0  0  0
 15  9  1  0  0  0  0
 17  8  1  0  0  0  0
 17 10  1  0  0  0  0
 18 15  1  0  0  0  0
 18  6  2  0  0  0  0
 19 16  1  0  0  0  0
 19  7  1  0  0  0  0
 20 16  1  6  0  0  0
 20  1  1  0  0  0  0
 21  4  2  0  0  0  0
 22 13  2  0  0  0  0
 22 21  1  0  0  0  0
 23 14  2  0  0  0  0
 24  7  1  0  0  0  0
 24  2  2  0  0  0  0
 25  5  1  0  0  0  0
 27  2  1  0  0  0  0
 27 14  1  0  0  0  0
 28 23  1  0  0  0  0
 29 32  1  6  0  0  0
 29 30  1  0  0  0  0
 29 31  1  0  0  0  0
 30 31  1  1  0  0  0
 30 20  1  0  0  0  0
M  END
>  <MODEL>
2

>  <REMARK>
 VINA RESULT:      -8.6      3.112      4.143
  Name = 
  1 active torsions:
  status: ('A' for Active; 'I' for Inactive)
    1  A    between atoms: C_10  and  N_24
                            x       y       z     vdW  Elec       q    Type
                         _______ _______ _______ _____ _____    ______ ____

>  <TORSDO>
F 1

$$$$
=
 OpenBabel11062410363D

 32 38  0  0  1  0  0  0  0  0999 V2000
  161.0160  204.3090  145.6870 C   0  0  0  0  0  2  0  0  0  0  0  0
  161.2160  206.9420  150.1420 C   0  0  0  0  0  0  0  0  0  0  0  0
  162.1020  211.4410  148.4910 C   0  0  0  0  0  3  0  0  0  0  0  0
  161.9880  211.9390  149.7900 C   0  0  0  0  0  3  0  0  0  0  0  0
  160.9780  206.4620  152.6500 C   0  0  0  0  0  0  0  0  0  0  0  0
  160.8310  207.1600  153.9700 C   0  0  0  0  0  0  0  0  0  0  0  0
  161.3020  205.0650  148.6010 C   0  0  0  0  0  0  0  0  0  0  0  0
  161.7190  207.2900  147.8210 N   0  0  0  0  0  0  0  0  0  0  0  0
  160.8150  208.7280  155.4600 C   0  0  0  0  0  0  0  0  0  0  0  0
  161.8930  205.4940  146.1330 C   0  0  0  0  0  2  0  0  0  0  0  0
  161.9560  210.0730  148.2580 C   0  0  0  0  0  3  0  0  0  0  0  0
  161.5510  207.8080  149.0830 C   0  0  0  0  0  0  0  0  0  0  0  0
  161.6620  209.1890  149.3070 C   0  0  0  0  0  0  0  0  0  0  0  0
  161.2620  208.8440  151.6970 C   0  0  0  0  0  0  0  0  0  0  0  0
  160.5490  207.5690  156.0340 O   0  0  0  0  0  0  0  0  0  0  0  0
  162.2010  203.0400  147.3940 C   0  0  0  0  0  2  0  0  0  0  0  0
  161.5870  205.9600  147.5420 C   0  0  0  0  0  0  0  0  0  0  0  0
  160.5620  206.5950  155.1640 N   0  0  0  0  0  0  0  0  0  0  0  0
  161.2380  203.5730  148.4630 C   0  0  0  0  0  2  0  0  0  0  0  0
  161.5690  202.9900  146.0590 N   0  0  1  0  0  0  0  0  0  0  0  0
  161.7030  211.0780  150.8460 C   0  0  0  0  0  3  0  0  0  0  0  0
  161.5230  209.7060  150.6230 C   0  0  0  0  0  0  0  0  0  0  0  0
  161.2640  209.3740  153.0440 N   0  0  0  0  0  0  0  0  0  0  0  0
  161.0980  205.5760  149.8790 C   0  0  0  0  0  3  0  0  0  0  0  0
  162.2190  205.5590  152.7060 C   0  0  0  0  0  1  0  0  0  0  0  0
  160.8830  210.0340  156.1630 C   0  0  0  0  0  1  0  0  0  0  0  0
  161.0910  207.4430  151.4680 C   0  0  0  0  0  0  0  0  0  0  0  0
  161.0110  208.4900  154.1270 C   0  0  0  0  0  0  0  0  0  0  0  0
  160.4560  201.0760  144.8860 C   0  0  2  0  0  3  0  0  0  0  0  0
  160.4130  202.0780  146.0370 C   0  0  2  0  0  3  0  0  0  0  0  0
  159.5430  202.2990  144.8150 C   0  0  0  0  0  2  0  0  0  0  0  0
  159.6720  199.9670  145.2000 O   0  0  0  0  0  1  0  0  0  0  0  0
  1 10  1  0  0  0  0
  2 27  1  0  0  0  0
  3  4  1  0  0  0  0
  4 21  2  0  0  0  0
  5 25  1  0  0  0  0
  5  6  1  0  0  0  0
  6 28  1  0  0  0  0
  6 18  2  0  0  0  0
  7 24  2  0  0  0  0
  8 12  1  0  0  0  0
  9 15  1  0  0  0  0
  9 26  1  0  0  0  0
 10 17  1  0  0  0  0
 11  3  2  0  0  0  0
 11 13  1  0  0  0  0
 12 13  1  0  0  0  0
 12  2  2  0  0  0  0
 13 22  2  0  0  0  0
 14 23  2  0  0  0  0
 16 19  1  0  0  0  0
 17  8  2  0  0  0  0
 17  7  1  0  0  0  0
 18 15  1  0  0  0  0
 19  7  1  0  0  0  0
 20  1  1  1  0  0  0
 20 16  1  0  0  0  0
 22 21  1  0  0  0  0
 22 14  1  0  0  0  0
 23 28  1  0  0  0  0
 24  2  1  0  0  0  0
 27 14  1  0  0  0  0
 27  5  2  0  0  0  0
 28  9  2  0  0  0  0
 29 32  1  1  0  0  0
 29 30  1  0  0  0  0
 30 31  1  6  0  0  0
 30 20  1  0  0  0  0
 31 29  1  0  0  0  0
M  END
>  <MODEL>
3

>  <REMARK>
 VINA RESULT:      -7.9      2.329      9.134
  Name = 
  1 active torsions:
  status: ('A' for Active; 'I' for Inactive)
    1  A    between atoms: C_10  and  N_24
                            x       y       z     vdW  Elec       q    Type
                         _______ _______ _______ _____ _____    ______ ____

>  <TORSDO>
F 1

$$$$
