=
 OpenBabel11052423103D

 27 30  0  0  1  0  0  0  0  0999 V2000
  162.1480  210.6870  153.4410 C   0  0  0  0  0  2  0  0  0  0  0  0
  161.3660  209.1500  151.5080 C   0  0  0  0  0  0  0  0  0  0  0  0
  160.5280  207.9980  153.5010 N   0  0  0  0  0  2  0  0  0  0  0  0
  161.5960  205.6030  149.3030 C   0  0  0  0  0  3  0  0  0  0  0  0
  161.2880  203.2210  149.1020 O   0  0  0  0  0  1  0  0  0  0  0  0
  161.8220  209.1200  150.1880 C   0  0  0  0  0  3  0  0  0  0  0  0
  160.6470  205.4990  151.9270 C   0  0  0  0  0  3  0  0  0  0  0  0
  161.9670  207.6310  156.0750 C   0  0  0  0  0  2  0  0  0  0  0  0
  160.7290  204.3310  151.1670 C   0  0  0  0  0  3  0  0  0  0  0  0
  162.1710  208.5670  157.2610 C   0  0  0  0  0  2  0  0  0  0  0  0
  160.9690  207.9450  152.1330 C   0  0  0  0  0  0  0  0  0  0  0  0
  161.3010  210.5010  152.1710 C   0  0  1  0  0  3  0  0  0  0  0  0
  161.2050  204.3820  149.8560 C   0  0  0  0  0  0  0  0  0  0  0  0
  161.5150  206.7760  150.0600 C   0  0  0  0  0  0  0  0  0  0  0  0
  161.3730  210.4240  154.6420 N   0  0  0  0  0  2  0  0  0  0  0  0
  161.0410  206.7370  151.3940 C   0  0  0  0  0  0  0  0  0  0  0  0
  160.4930  207.3450  155.8360 C   0  0  0  0  0  2  0  0  0  0  0  0
  161.8900  207.9540  149.5020 N   0  0  0  0  0  0  0  0  0  0  0  0
  161.6220  209.9710  157.0090 C   0  0  0  0  0  2  0  0  0  0  0  0
  162.2510  210.6160  155.7830 C   0  0  0  0  0  2  0  0  0  0  0  0
  160.3010  206.8800  154.4050 C   0  0  0  0  0  2  0  0  0  0  0  0
  157.9860  213.2900  152.7410 C   0  0  0  0  0  2  0  0  0  0  0  0
  159.9370  211.1990  152.0940 C   0  0  0  0  0  3  0  0  0  0  0  0
  160.0740  212.6170  151.5360 C   0  0  0  0  0  2  0  0  0  0  0  0
  158.7000  213.2660  151.3930 C   0  0  0  0  0  2  0  0  0  0  0  0
  157.8290  211.8690  153.2770 C   0  0  0  0  0  2  0  0  0  0  0  0
  159.1970  211.2130  153.4340 C   0  0  0  0  0  2  0  0  0  0  0  0
  1 15  1  0  0  0  0
  2 11  1  0  0  0  0
  2 12  1  0  0  0  0
  3 21  1  0  0  0  0
  4 13  2  0  0  0  0
  4 14  1  0  0  0  0
  5 13  1  0  0  0  0
  6  2  2  0  0  0  0
  8 10  1  0  0  0  0
  9  7  2  0  0  0  0
 11  3  1  0  0  0  0
 12 23  1  1  0  0  0
 12  1  1  0  0  0  0
 13  9  1  0  0  0  0
 14 16  1  0  0  0  0
 15 20  1  0  0  0  0
 16  7  1  0  0  0  0
 16 11  2  0  0  0  0
 17  8  1  0  0  0  0
 18 14  2  0  0  0  0
 18  6  1  0  0  0  0
 19 10  1  0  0  0  0
 20 19  1  0  0  0  0
 21 17  1  0  0  0  0
 22 26  1  0  0  0  0
 23 27  1  0  0  0  0
 24 23  1  0  0  0  0
 25 24  1  0  0  0  0
 25 22  1  0  0  0  0
 26 27  1  0  0  0  0
M  END
>  <MODEL>
1

>  <REMARK>
 VINA RESULT:      -7.0      0.000      0.000
  Name = 
  1 active torsions:
  status: ('A' for Active; 'I' for Inactive)
    1  A    between atoms: C_9  and  C_15
                            x       y       z     vdW  Elec       q    Type
                         _______ _______ _______ _____ _____    ______ ____

>  <TORSDO>
F 1

$$$$
=
 OpenBabel11052423103D

 27 30  0  0  1  0  0  0  0  0999 V2000
  162.8190  210.7030  150.6060 C   0  0  0  0  0  2  0  0  0  0  0  0
  161.4520  210.6110  152.8040 C   0  0  0  0  0  0  0  0  0  0  0  0
  159.9840  211.8640  151.2960 N   0  0  0  0  0  2  0  0  0  0  0  0
  159.8370  212.4200  156.2120 C   0  0  0  0  0  3  0  0  0  0  0  0
  158.2810  213.9330  157.2610 O   0  0  0  0  0  1  0  0  0  0  0  0
  161.9050  210.3140  154.0920 C   0  0  0  0  0  3  0  0  0  0  0  0
  158.8120  213.1070  153.7080 C   0  0  0  0  0  3  0  0  0  0  0  0
  160.8030  213.9800  149.3750 C   0  0  0  0  0  2  0  0  0  0  0  0
  158.2880  213.6920  154.8620 C   0  0  0  0  0  3  0  0  0  0  0  0
  161.4080  213.8960  147.9790 C   0  0  0  0  0  2  0  0  0  0  0  0
  160.4150  211.5570  152.6330 C   0  0  0  0  0  0  0  0  0  0  0  0
  162.0990  209.8590  151.6700 C   0  0  1  0  0  3  0  0  0  0  0  0
  158.8010  213.3500  156.1140 C   0  0  0  0  0  0  0  0  0  0  0  0
  160.3660  211.8300  155.0590 C   0  0  0  0  0  0  0  0  0  0  0  0
  161.9480  210.9990  149.4800 N   0  0  0  0  0  2  0  0  0  0  0  0
  159.8590  212.1750  153.7830 C   0  0  0  0  0  0  0  0  0  0  0  0
  159.4360  213.3160  149.4330 C   0  0  0  0  0  2  0  0  0  0  0  0
  161.3650  210.9210  155.1760 N   0  0  0  0  0  0  0  0  0  0  0  0
  161.7430  212.4640  147.5620 C   0  0  0  0  0  2  0  0  0  0  0  0
  162.7050  211.8000  148.5350 C   0  0  0  0  0  2  0  0  0  0  0  0
  159.1180  212.9530  150.8710 C   0  0  0  0  0  2  0  0  0  0  0  0
  161.1570  205.8170  150.3010 C   0  0  0  0  0  2  0  0  0  0  0  0
  161.3550  208.5950  151.2190 C   0  0  0  0  0  3  0  0  0  0  0  0
  161.6400  207.4230  152.1610 C   0  0  0  0  0  2  0  0  0  0  0  0
  160.8310  206.1980  151.7420 C   0  0  0  0  0  2  0  0  0  0  0  0
  160.8440  206.9830  149.3670 C   0  0  0  0  0  2  0  0  0  0  0  0
  161.6540  208.2110  149.7690 C   0  0  0  0  0  2  0  0  0  0  0  0
  1 12  1  0  0  0  0
  2  6  1  0  0  0  0
  3 11  1  0  0  0  0
  6 18  2  0  0  0  0
  7 16  2  0  0  0  0
  7  9  1  0  0  0  0
  8 17  1  0  0  0  0
  9 13  2  0  0  0  0
 10  8  1  0  0  0  0
 11  2  2  0  0  0  0
 11 16  1  0  0  0  0
 12 23  1  6  0  0  0
 12  2  1  0  0  0  0
 13  4  1  0  0  0  0
 13  5  1  0  0  0  0
 14 18  1  0  0  0  0
 14  4  2  0  0  0  0
 15  1  1  0  0  0  0
 16 14  1  0  0  0  0
 17 21  1  0  0  0  0
 19 10  1  0  0  0  0
 19 20  1  0  0  0  0
 20 15  1  0  0  0  0
 21  3  1  0  0  0  0
 22 25  1  0  0  0  0
 23 24  1  0  0  0  0
 25 24  1  0  0  0  0
 26 27  1  0  0  0  0
 26 22  1  0  0  0  0
 27 23  1  0  0  0  0
M  END
>  <MODEL>
2

>  <REMARK>
 VINA RESULT:      -6.2      3.421      7.523
  Name = 
  1 active torsions:
  status: ('A' for Active; 'I' for Inactive)
    1  A    between atoms: C_9  and  C_15
                            x       y       z     vdW  Elec       q    Type
                         _______ _______ _______ _____ _____    ______ ____

>  <TORSDO>
F 1

$$$$
=
 OpenBabel11052423103D

 27 30  0  0  1  0  0  0  0  0999 V2000
  158.3720  210.3220  155.3230 C   0  0  0  0  0  2  0  0  0  0  0  0
  160.2530  208.9980  154.1310 C   0  0  0  0  0  0  0  0  0  0  0  0
  160.3340  211.1850  153.0290 N   0  0  0  0  0  2  0  0  0  0  0  0
  161.8170  207.0260  150.7910 C   0  0  0  0  0  3  0  0  0  0  0  0
  162.6930  207.0500  148.5460 O   0  0  0  0  0  1  0  0  0  0  0  0
  160.4570  207.6170  154.1090 C   0  0  0  0  0  3  0  0  0  0  0  0
  161.4820  209.7960  150.6860 C   0  0  0  0  0  3  0  0  0  0  0  0
  158.0100  212.8300  152.1780 C   0  0  0  0  0  2  0  0  0  0  0  0
  162.0080  209.1130  149.5870 C   0  0  0  0  0  3  0  0  0  0  0  0
  157.0970  213.7680  152.9600 C   0  0  0  0  0  2  0  0  0  0  0  0
  160.5780  209.7680  152.9900 C   0  0  0  0  0  0  0  0  0  0  0  0
  159.7160  209.5820  155.4130 C   0  0  1  0  0  3  0  0  0  0  0  0
  162.1730  207.7280  149.6390 C   0  0  0  0  0  0  0  0  0  0  0  0
  161.2910  207.7050  151.8950 C   0  0  0  0  0  0  0  0  0  0  0  0
  158.5600  211.7500  155.1340 N   0  0  0  0  0  2  0  0  0  0  0  0
  161.1110  209.1090  151.8530 C   0  0  0  0  0  0  0  0  0  0  0  0
  159.4570  213.2960  152.2210 C   0  0  0  0  0  2  0  0  0  0  0  0
  160.9610  207.0060  153.0090 N   0  0  0  0  0  0  0  0  0  0  0  0
  157.3800  213.7560  154.4610 C   0  0  0  0  0  2  0  0  0  0  0  0
  157.2460  212.3620  155.0540 C   0  0  0  0  0  2  0  0  0  0  0  0
  160.3680  212.1220  151.9160 C   0  0  0  0  0  2  0  0  0  0  0  0
  163.2940  211.4510  157.0880 C   0  0  0  0  0  2  0  0  0  0  0  0
  160.7810  210.1160  156.3800 C   0  0  0  0  0  3  0  0  0  0  0  0
  160.9460  211.6300  156.2370 C   0  0  0  0  0  2  0  0  0  0  0  0
  161.9500  212.1530  157.2610 C   0  0  0  0  0  2  0  0  0  0  0  0
  163.1230  209.9440  157.2610 C   0  0  0  0  0  2  0  0  0  0  0  0
  162.1290  209.4060  156.2360 C   0  0  0  0  0  2  0  0  0  0  0  0
  1 12  1  0  0  0  0
  2 12  1  0  0  0  0
  4 14  1  0  0  0  0
  5 13  1  0  0  0  0
  6  2  1  0  0  0  0
  7 16  1  0  0  0  0
  8 17  1  0  0  0  0
  8 10  1  0  0  0  0
  9 13  1  0  0  0  0
  9  7  2  0  0  0  0
 10 19  1  0  0  0  0
 11  3  1  0  0  0  0
 11  2  2  0  0  0  0
 12 23  1  6  0  0  0
 13  4  2  0  0  0  0
 14 18  1  0  0  0  0
 15  1  1  0  0  0  0
 16 14  2  0  0  0  0
 16 11  1  0  0  0  0
 18  6  2  0  0  0  0
 19 20  1  0  0  0  0
 20 15  1  0  0  0  0
 21 17  1  0  0  0  0
 21  3  1  0  0  0  0
 22 25  1  0  0  0  0
 22 26  1  0  0  0  0
 24 23  1  0  0  0  0
 24 25  1  0  0  0  0
 27 23  1  0  0  0  0
 27 26  1  0  0  0  0
M  END
>  <MODEL>
3

>  <REMARK>
 VINA RESULT:      -5.4      1.843      5.008
  Name = 
  1 active torsions:
  status: ('A' for Active; 'I' for Inactive)
    1  A    between atoms: C_9  and  C_15
                            x       y       z     vdW  Elec       q    Type
                         _______ _______ _______ _____ _____    ______ ____

>  <TORSDO>
F 1

$$$$
=
 OpenBabel11052423103D

 27 30  0  0  1  0  0  0  0  0999 V2000
  161.2180  213.8200  140.0820 C   0  0  0  0  0  2  0  0  0  0  0  0
  158.7240  213.4810  140.6950 C   0  0  0  0  0  0  0  0  0  0  0  0
  159.3340  211.3430  139.6670 N   0  0  0  0  0  2  0  0  0  0  0  0
  154.6970  213.0760  139.6410 C   0  0  0  0  0  3  0  0  0  0  0  0
  152.8960  211.8330  138.6300 O   0  0  0  0  0  1  0  0  0  0  0  0
  157.7710  214.4530  141.0060 C   0  0  0  0  0  3  0  0  0  0  0  0
  156.4790  211.0360  138.9630 C   0  0  0  0  0  3  0  0  0  0  0  0
  161.0110  210.9530  137.2440 C   0  0  0  0  0  2  0  0  0  0  0  0
  155.1280  210.9240  138.6280 C   0  0  0  0  0  3  0  0  0  0  0  0
  162.5230  210.9550  137.0520 C   0  0  0  0  0  2  0  0  0  0  0  0
  158.3280  212.3170  139.9970 C   0  0  0  0  0  0  0  0  0  0  0  0
  160.1320  213.7400  141.1660 C   0  0  1  0  0  3  0  0  0  0  0  0
  154.2370  211.9440  138.9650 C   0  0  0  0  0  0  0  0  0  0  0  0
  156.0490  213.1930  139.9800 C   0  0  0  0  0  0  0  0  0  0  0  0
  161.8690  212.5360  139.8830 N   0  0  0  0  0  2  0  0  0  0  0  0
  156.9640  212.1680  139.6370 C   0  0  0  0  0  0  0  0  0  0  0  0
  160.5710  209.8580  138.2030 C   0  0  0  0  0  2  0  0  0  0  0  0
  156.4740  214.2950  140.6460 N   0  0  0  0  0  0  0  0  0  0  0  0
  163.2810  211.3360  138.3230 C   0  0  0  0  0  2  0  0  0  0  0  0
  162.8680  212.7040  138.8430 C   0  0  0  0  0  2  0  0  0  0  0  0
  159.2060  210.2060  138.7670 C   0  0  0  0  0  2  0  0  0  0  0  0
  160.7080  213.0300  145.4400 C   0  0  0  0  0  2  0  0  0  0  0  0
  160.4930  213.1060  142.5160 C   0  0  0  0  0  3  0  0  0  0  0  0
  159.2550  212.9530  143.4020 C   0  0  0  0  0  2  0  0  0  0  0  0
  159.6200  212.2500  144.7070 C   0  0  0  0  0  2  0  0  0  0  0  0
  161.9480  213.1530  144.5590 C   0  0  0  0  0  2  0  0  0  0  0  0
  161.5990  213.8630  143.2550 C   0  0  0  0  0  2  0  0  0  0  0  0
  1 12  1  0  0  0  0
  2  6  1  0  0  0  0
  2 12  1  0  0  0  0
  3 11  1  0  0  0  0
  4 14  1  0  0  0  0
  5 13  1  0  0  0  0
  7 16  1  0  0  0  0
  8 17  1  0  0  0  0
  9  7  2  0  0  0  0
  9 13  1  0  0  0  0
 10  8  1  0  0  0  0
 10 19  1  0  0  0  0
 11  2  2  0  0  0  0
 12 23  1  1  0  0  0
 13  4  2  0  0  0  0
 14 18  1  0  0  0  0
 15  1  1  0  0  0  0
 16 14  2  0  0  0  0
 16 11  1  0  0  0  0
 17 21  1  0  0  0  0
 18  6  2  0  0  0  0
 19 20  1  0  0  0  0
 20 15  1  0  0  0  0
 21  3  1  0  0  0  0
 23 27  1  0  0  0  0
 23 24  1  0  0  0  0
 24 25  1  0  0  0  0
 25 22  1  0  0  0  0
 26 22  1  0  0  0  0
 27 26  1  0  0  0  0
M  END
>  <MODEL>
4

>  <REMARK>
 VINA RESULT:      -5.2     11.257     14.016
  Name = 
  1 active torsions:
  status: ('A' for Active; 'I' for Inactive)
    1  A    between atoms: C_9  and  C_15
                            x       y       z     vdW  Elec       q    Type
                         _______ _______ _______ _____ _____    ______ ____

>  <TORSDO>
F 1

$$$$
=
 OpenBabel11052423103D

 27 30  0  0  1  0  0  0  0  0999 V2000
  159.3110  209.9840  154.0860 C   0  0  0  0  0  2  0  0  0  0  0  0
  160.8110  208.3420  152.7570 C   0  0  0  0  0  0  0  0  0  0  0  0
  161.2360  210.4900  151.6580 N   0  0  0  0  0  2  0  0  0  0  0  0
  161.7220  206.1610  149.3070 C   0  0  0  0  0  3  0  0  0  0  0  0
  162.4250  206.0530  147.0040 O   0  0  0  0  0  1  0  0  0  0  0  0
  160.7420  206.9480  152.7160 C   0  0  0  0  0  3  0  0  0  0  0  0
  161.9240  208.9440  149.2340 C   0  0  0  0  0  3  0  0  0  0  0  0
  159.2200  212.5670  150.9830 C   0  0  0  0  0  2  0  0  0  0  0  0
  162.2280  208.1920  148.0980 C   0  0  0  0  0  3  0  0  0  0  0  0
  158.5640  213.6500  151.8310 C   0  0  0  0  0  2  0  0  0  0  0  0
  161.1970  209.0530  151.5970 C   0  0  0  0  0  0  0  0  0  0  0  0
  160.4900  208.9970  154.0750 C   0  0  1  0  0  3  0  0  0  0  0  0
  162.1250  206.8000  148.1330 C   0  0  0  0  0  0  0  0  0  0  0  0
  161.4180  206.9100  150.4480 C   0  0  0  0  0  0  0  0  0  0  0  0
  159.7590  211.3520  153.8880 N   0  0  0  0  0  2  0  0  0  0  0  0
  161.5110  208.3230  150.4220 C   0  0  0  0  0  0  0  0  0  0  0  0
  160.7290  212.7440  150.9210 C   0  0  0  0  0  2  0  0  0  0  0  0
  161.0380  206.2700  151.5810 N   0  0  0  0  0  0  0  0  0  0  0  0
  158.9450  213.5590  153.3080 C   0  0  0  0  0  2  0  0  0  0  0  0
  158.5850  212.2070  153.9050 C   0  0  0  0  0  2  0  0  0  0  0  0
  161.3710  211.4210  150.5470 C   0  0  0  0  0  2  0  0  0  0  0  0
  163.0950  210.5600  157.2170 C   0  0  0  0  0  2  0  0  0  0  0  0
  161.7030  209.2990  154.9650 C   0  0  0  0  0  3  0  0  0  0  0  0
  161.4550  208.8500  156.4060 C   0  0  0  0  0  2  0  0  0  0  0  0
  162.7010  209.0870  157.2570 C   0  0  0  0  0  2  0  0  0  0  0  0
  163.3660  210.9910  155.7780 C   0  0  0  0  0  2  0  0  0  0  0  0
  162.1260  210.7690  154.9190 C   0  0  0  0  0  2  0  0  0  0  0  0
  2 12  1  0  0  0  0
  4 14  1  0  0  0  0
  5 13  1  0  0  0  0
  6  2  1  0  0  0  0
  7 16  1  0  0  0  0
  8 10  1  0  0  0  0
  9 13  1  0  0  0  0
  9  7  2  0  0  0  0
 10 19  1  0  0  0  0
 11  3  1  0  0  0  0
 11  2  2  0  0  0  0
 12  1  1  0  0  0  0
 12 23  1  6  0  0  0
 13  4  2  0  0  0  0
 14 18  1  0  0  0  0
 15 20  1  0  0  0  0
 15  1  1  0  0  0  0
 16 14  2  0  0  0  0
 16 11  1  0  0  0  0
 17  8  1  0  0  0  0
 18  6  2  0  0  0  0
 19 20  1  0  0  0  0
 21 17  1  0  0  0  0
 21  3  1  0  0  0  0
 22 25  1  0  0  0  0
 23 24  1  0  0  0  0
 24 25  1  0  0  0  0
 26 22  1  0  0  0  0
 27 23  1  0  0  0  0
 27 26  1  0  0  0  0
M  END
>  <MODEL>
5

>  <REMARK>
 VINA RESULT:      -5.1      1.661      4.804
  Name = 
  1 active torsions:
  status: ('A' for Active; 'I' for Inactive)
    1  A    between atoms: C_9  and  C_15
                            x       y       z     vdW  Elec       q    Type
                         _______ _______ _______ _____ _____    ______ ____

>  <TORSDO>
F 1

$$$$
=
 OpenBabel11052423103D

 27 30  0  0  1  0  0  0  0  0999 V2000
  160.7180  214.4320  139.8560 C   0  0  0  0  0  2  0  0  0  0  0  0
  158.3310  213.5150  140.2730 C   0  0  0  0  0  0  0  0  0  0  0  0
  159.6350  211.4850  139.8520 N   0  0  0  0  0  2  0  0  0  0  0  0
  154.7780  211.7590  138.9370 C   0  0  0  0  0  3  0  0  0  0  0  0
  153.5530  209.8710  138.0710 O   0  0  0  0  0  1  0  0  0  0  0  0
  157.1200  214.2110  140.2440 C   0  0  0  0  0  3  0  0  0  0  0  0
  157.1150  210.2300  138.9510 C   0  0  0  0  0  3  0  0  0  0  0  0
  161.7320  211.1220  137.7770 C   0  0  0  0  0  2  0  0  0  0  0  0
  155.9140  209.6670  138.5160 C   0  0  0  0  0  3  0  0  0  0  0  0
  163.2020  211.5230  137.7460 C   0  0  0  0  0  2  0  0  0  0  0  0
  158.3710  212.1710  139.8350 C   0  0  0  0  0  0  0  0  0  0  0  0
  159.5250  214.2590  140.8110 C   0  0  1  0  0  3  0  0  0  0  0  0
  154.7460  210.4310  138.5060 C   0  0  0  0  0  0  0  0  0  0  0  0
  155.9780  212.3280  139.3750 C   0  0  0  0  0  0  0  0  0  0  0  0
  161.7030  213.3790  140.0370 N   0  0  0  0  0  2  0  0  0  0  0  0
  157.1710  211.5650  139.3820 C   0  0  0  0  0  0  0  0  0  0  0  0
  161.4390  210.1610  138.9190 C   0  0  0  0  0  2  0  0  0  0  0  0
  155.9870  213.6150  139.8000 N   0  0  0  0  0  0  0  0  0  0  0  0
  163.6150  212.3530  138.9610 C   0  0  0  0  0  2  0  0  0  0  0  0
  162.7820  213.6190  139.0950 C   0  0  0  0  0  2  0  0  0  0  0  0
  159.9570  210.2040  139.2400 C   0  0  0  0  0  2  0  0  0  0  0  0
  159.6530  212.5990  144.8520 C   0  0  0  0  0  2  0  0  0  0  0  0
  159.8100  214.0410  142.3030 C   0  0  0  0  0  3  0  0  0  0  0  0
  160.5840  212.7410  142.5320 C   0  0  0  0  0  2  0  0  0  0  0  0
  160.9260  212.5810  144.0110 C   0  0  0  0  0  2  0  0  0  0  0  0
  158.9030  213.9110  144.6380 C   0  0  0  0  0  2  0  0  0  0  0  0
  158.5460  214.0790  143.1650 C   0  0  0  0  0  2  0  0  0  0  0  0
  1 15  1  0  0  0  0
  1 12  1  0  0  0  0
  2 12  1  0  0  0  0
  4 14  1  0  0  0  0
  5 13  1  0  0  0  0
  6  2  1  0  0  0  0
  7 16  1  0  0  0  0
  8 17  1  0  0  0  0
  9  7  2  0  0  0  0
 10  8  1  0  0  0  0
 10 19  1  0  0  0  0
 11  3  1  0  0  0  0
 11  2  2  0  0  0  0
 12 23  1  1  0  0  0
 13  9  1  0  0  0  0
 13  4  2  0  0  0  0
 14 16  2  0  0  0  0
 14 18  1  0  0  0  0
 16 11  1  0  0  0  0
 17 21  1  0  0  0  0
 18  6  2  0  0  0  0
 19 20  1  0  0  0  0
 20 15  1  0  0  0  0
 21  3  1  0  0  0  0
 23 24  1  0  0  0  0
 23 27  1  0  0  0  0
 24 25  1  0  0  0  0
 25 22  1  0  0  0  0
 26 22  1  0  0  0  0
 27 26  1  0  0  0  0
M  END
>  <MODEL>
6

>  <REMARK>
 VINA RESULT:      -4.3     11.290     13.886
  Name = 
  1 active torsions:
  status: ('A' for Active; 'I' for Inactive)
    1  A    between atoms: C_9  and  C_15
                            x       y       z     vdW  Elec       q    Type
                         _______ _______ _______ _____ _____    ______ ____

>  <TORSDO>
F 1

$$$$
