=
 OpenBabel11062409473D

 34 38  0  0  1  0  0  0  0  0999 V2000
  158.1890  211.4420  155.1430 C   0  0  1  0  0  3  0  0  0  0  0  0
  158.8080  214.3830  152.6920 C   0  0  0  0  0  2  0  0  0  0  0  0
  160.6050  213.1200  150.0420 C   0  0  0  0  0  0  0  0  0  0  0  0
  158.1500  214.2790  154.9910 O   0  0  0  0  0  0  0  0  0  0  0  0
  160.1140  209.9890  155.6870 N   0  0  0  0  0  0  0  0  0  0  0  0
  158.7000  210.0040  155.3050 C   0  0  0  0  0  2  0  0  0  0  0  0
  159.9020  212.0890  156.9360 C   0  0  2  0  0  3  0  0  0  0  0  0
  160.8040  212.7730  156.1140 O   0  0  0  0  0  1  0  0  0  0  0  0
  160.6710  214.4530  149.3760 C   0  0  0  0  0  1  0  0  0  0  0  0
  160.2840  210.6130  156.9990 C   0  0  0  0  0  2  0  0  0  0  0  0
  158.0920  213.6800  156.2520 C   0  0  0  0  0  0  0  0  0  0  0  0
  158.4560  212.2400  156.4300 C   0  0  1  0  0  3  0  0  0  0  0  0
  157.8160  214.3820  157.2610 O   0  0  0  0  0  0  0  0  0  0  0  0
  158.5560  213.8210  151.3030 C   0  0  0  0  0  2  0  0  0  0  0  0
  161.4890  212.2650  149.7690 O   0  0  0  0  0  0  0  0  0  0  0  0
  159.5600  212.8080  150.9790 N   0  0  0  0  0  0  0  0  0  0  0  0
  159.5540  211.4840  151.6130 C   0  0  0  0  0  2  0  0  0  0  0  0
  158.1310  213.5410  153.7670 C   0  0  2  0  0  3  0  0  0  0  0  0
  158.4600  211.3150  152.6610 C   0  0  0  0  0  2  0  0  0  0  0  0
  158.7680  212.1440  153.9070 C   0  0  2  0  0  3  0  0  0  0  0  0
  160.6780  208.6280  155.7100 C   0  0  0  0  0  2  0  0  0  0  0  0
  161.5630  208.4360  151.9440 C   0  0  0  0  0  2  0  0  0  0  0  0
  160.8190  206.6100  154.1150 C   0  0  0  0  0  2  0  0  0  0  0  0
  161.2060  204.1410  150.2690 N   0  0  0  0  0  0  0  0  0  0  0  0
  161.2680  205.4490  149.6850 C   0  0  0  0  0  0  0  0  0  0  0  0
  161.9450  206.5720  150.4000 C   0  0  0  0  0  2  0  0  0  0  0  0
  160.6300  203.0290  149.5330 C   0  0  0  0  0  1  0  0  0  0  0  0
  161.1590  206.9940  151.6340 C   0  0  1  0  0  3  0  0  0  0  0  0
  160.7460  205.6690  148.5600 O   0  0  0  0  0  0  0  0  0  0  0  0
  160.9360  204.6560  152.6390 C   0  0  0  0  0  2  0  0  0  0  0  0
  161.4670  206.0730  152.8390 C   0  0  2  0  0  3  0  0  0  0  0  0
  161.7360  203.8850  151.6010 C   0  0  0  0  0  2  0  0  0  0  0  0
  161.2150  208.0610  154.3780 C   0  0  1  0  0  3  0  0  0  0  0  0
  160.8610  208.9480  153.1920 C   0  0  0  0  0  2  0  0  0  0  0  0
  1  6  1  1  0  0  0
  1 12  1  0  0  0  0
  3 16  1  0  0  0  0
  4 11  1  0  0  0  0
  5 21  1  0  0  0  0
  5 10  1  0  0  0  0
  6  5  1  0  0  0  0
  7  8  1  6  0  0  0
  7 10  1  0  0  0  0
  9  3  1  0  0  0  0
 11 13  2  0  0  0  0
 12 11  1  6  0  0  0
 12  7  1  0  0  0  0
 14  2  1  0  0  0  0
 15  3  2  0  0  0  0
 16 14  1  0  0  0  0
 16 17  1  0  0  0  0
 17 19  1  0  0  0  0
 18  2  1  6  0  0  0
 18 20  1  0  0  0  0
 18  4  1  0  0  0  0
 20 19  1  6  0  0  0
 20  1  1  0  0  0  0
 22 34  1  0  0  0  0
 23 33  1  0  0  0  0
 24 32  1  0  0  0  0
 25 24  1  0  0  0  0
 25 26  1  0  0  0  0
 27 24  1  0  0  0  0
 28 26  1  6  0  0  0
 28 22  1  0  0  0  0
 28 31  1  0  0  0  0
 29 25  2  0  0  0  0
 31 30  1  6  0  0  0
 31 23  1  0  0  0  0
 32 30  1  0  0  0  0
 33 21  1  1  0  0  0
 34 33  1  0  0  0  0
M  END
>  <MODEL>
1

>  <REMARK>
 VINA RESULT:      -7.5      0.000      0.000
  Name = 
  2 active torsions:
  status: ('A' for Active; 'I' for Inactive)
    1  A    between atoms: N_8  and  C_18
    2  A    between atoms: C_18  and  C_30
                            x       y       z     vdW  Elec       q    Type
                         _______ _______ _______ _____ _____    ______ ____

>  <TORSDO>
F 2

$$$$
=
 OpenBabel11062409473D

 34 38  0  0  1  0  0  0  0  0999 V2000
  159.0240  213.0340  154.3240 C   0  0  1  0  0  3  0  0  0  0  0  0
  159.7400  209.3760  155.3930 C   0  0  0  0  0  2  0  0  0  0  0  0
  160.9560  207.7390  152.6200 C   0  0  0  0  0  0  0  0  0  0  0  0
  158.4420  211.1400  156.3590 O   0  0  0  0  0  0  0  0  0  0  0  0
  157.8120  213.3820  152.1980 N   0  0  0  0  0  0  0  0  0  0  0  0
  158.9580  213.8130  153.0030 C   0  0  0  0  0  2  0  0  0  0  0  0
  156.4700  212.8860  154.1890 C   0  0  2  0  0  3  0  0  0  0  0  0
  156.3630  211.5240  153.8880 O   0  0  0  0  0  1  0  0  0  0  0  0
  161.0770  206.4500  153.3620 C   0  0  0  0  0  1  0  0  0  0  0  0
  156.5640  213.6910  152.8970 C   0  0  0  0  0  2  0  0  0  0  0  0
  157.6820  212.3110  156.3050 C   0  0  0  0  0  0  0  0  0  0  0  0
  157.6930  213.1700  155.0800 C   0  0  1  0  0  3  0  0  0  0  0  0
  156.9150  212.5990  157.2610 O   0  0  0  0  0  0  0  0  0  0  0  0
  161.0800  209.0200  154.7700 C   0  0  0  0  0  2  0  0  0  0  0  0
  160.8400  207.7040  151.3660 O   0  0  0  0  0  0  0  0  0  0  0  0
  160.9690  208.9990  153.3120 N   0  0  0  0  0  0  0  0  0  0  0  0
  160.8330  210.2340  152.5300 C   0  0  0  0  0  2  0  0  0  0  0  0
  159.5600  210.8850  155.5060 C   0  0  2  0  0  3  0  0  0  0  0  0
  160.7560  211.4930  153.3880 C   0  0  0  0  0  2  0  0  0  0  0  0
  159.4220  211.5640  154.1280 C   0  0  2  0  0  3  0  0  0  0  0  0
  157.7970  214.0030  150.8610 C   0  0  0  0  0  2  0  0  0  0  0  0
  161.2050  213.6310  149.0580 C   0  0  0  0  0  2  0  0  0  0  0  0
  158.3510  213.4990  148.3970 C   0  0  0  0  0  2  0  0  0  0  0  0
  160.7240  212.9420  144.5110 N   0  0  0  0  0  0  0  0  0  0  0  0
  161.8060  213.3480  145.3610 C   0  0  0  0  0  0  0  0  0  0  0  0
  161.8430  212.9370  146.7960 C   0  0  0  0  0  2  0  0  0  0  0  0
  160.7360  213.2640  143.0940 C   0  0  0  0  0  1  0  0  0  0  0  0
  160.7510  213.6330  147.5980 C   0  0  1  0  0  3  0  0  0  0  0  0
  162.7390  214.0610  144.9070 O   0  0  0  0  0  0  0  0  0  0  0  0
  158.8220  213.0200  146.0390 C   0  0  0  0  0  2  0  0  0  0  0  0
  159.3930  212.9050  147.4500 C   0  0  2  0  0  3  0  0  0  0  0  0
  159.5980  212.1810  145.0360 C   0  0  0  0  0  2  0  0  0  0  0  0
  158.8470  213.5130  149.8400 C   0  0  1  0  0  3  0  0  0  0  0  0
  160.1610  214.2720  149.9600 C   0  0  0  0  0  2  0  0  0  0  0  0
  1  6  1  6  0  0  0
  1 12  1  0  0  0  0
  3 16  1  0  0  0  0
  3  9  1  0  0  0  0
  5 10  1  0  0  0  0
  5  6  1  0  0  0  0
  7  8  1  6  0  0  0
  7 12  1  0  0  0  0
 10  7  1  0  0  0  0
 11  4  1  0  0  0  0
 11 13  2  0  0  0  0
 12 11  1  1  0  0  0
 14  2  1  0  0  0  0
 15  3  2  0  0  0  0
 16 14  1  0  0  0  0
 17 16  1  0  0  0  0
 17 19  1  0  0  0  0
 18  2  1  6  0  0  0
 18  4  1  0  0  0  0
 20 19  1  1  0  0  0
 20  1  1  0  0  0  0
 20 18  1  0  0  0  0
 21  5  1  0  0  0  0
 22 34  1  0  0  0  0
 23 33  1  0  0  0  0
 24 32  1  0  0  0  0
 24 25  1  0  0  0  0
 25 26  1  0  0  0  0
 27 24  1  0  0  0  0
 28 26  1  6  0  0  0
 28 22  1  0  0  0  0
 29 25  2  0  0  0  0
 31 30  1  6  0  0  0
 31 28  1  0  0  0  0
 31 23  1  0  0  0  0
 32 30  1  0  0  0  0
 33 34  1  0  0  0  0
 33 21  1  1  0  0  0
M  END
>  <MODEL>
2

>  <REMARK>
 VINA RESULT:      -7.0      2.867      6.755
  Name = 
  2 active torsions:
  status: ('A' for Active; 'I' for Inactive)
    1  A    between atoms: N_8  and  C_18
    2  A    between atoms: C_18  and  C_30
                            x       y       z     vdW  Elec       q    Type
                         _______ _______ _______ _____ _____    ______ ____

>  <TORSDO>
F 2

$$$$
=
 OpenBabel11062409473D

 34 38  0  0  1  0  0  0  0  0999 V2000
  159.1870  210.6910  154.7520 C   0  0  1  0  0  3  0  0  0  0  0  0
  159.6870  213.9100  152.6490 C   0  0  0  0  0  2  0  0  0  0  0  0
  161.1250  212.9510  149.6720 C   0  0  0  0  0  0  0  0  0  0  0  0
  159.2730  213.5210  154.9740 O   0  0  0  0  0  0  0  0  0  0  0  0
  161.0840  209.1110  154.8820 N   0  0  0  0  0  0  0  0  0  0  0  0
  159.6390  209.2260  154.6670 C   0  0  0  0  0  2  0  0  0  0  0  0
  161.1120  211.0300  156.4090 C   0  0  2  0  0  3  0  0  0  0  0  0
  161.9540  211.7860  155.5860 O   0  0  0  0  0  1  0  0  0  0  0  0
  161.1850  214.3590  149.1810 C   0  0  0  0  0  1  0  0  0  0  0  0
  161.4240  209.5460  156.2370 C   0  0  0  0  0  2  0  0  0  0  0  0
  159.3200  212.7610  156.1450 C   0  0  0  0  0  0  0  0  0  0  0  0
  159.6290  211.2990  156.0930 C   0  0  1  0  0  3  0  0  0  0  0  0
  159.1890  213.3310  157.2610 O   0  0  0  0  0  0  0  0  0  0  0  0
  159.2600  213.5490  151.2350 C   0  0  0  0  0  2  0  0  0  0  0  0
  161.9310  212.1100  149.1920 O   0  0  0  0  0  0  0  0  0  0  0  0
  160.1720  212.5540  150.6720 N   0  0  0  0  0  0  0  0  0  0  0  0
  160.1680  211.1580  151.1260 C   0  0  0  0  0  2  0  0  0  0  0  0
  159.0870  212.9560  153.6740 C   0  0  2  0  0  3  0  0  0  0  0  0
  159.1840  210.8880  152.2590 C   0  0  0  0  0  2  0  0  0  0  0  0
  159.6650  211.5310  153.5590 C   0  0  2  0  0  3  0  0  0  0  0  0
  161.5780  207.7400  154.6650 C   0  0  0  0  0  2  0  0  0  0  0  0
  160.7160  204.8290  152.2590 C   0  0  0  0  0  2  0  0  0  0  0  0
  161.6730  207.5970  152.0950 C   0  0  0  0  0  2  0  0  0  0  0  0
  161.5730  205.8860  147.8400 N   0  0  0  0  0  0  0  0  0  0  0  0
  161.3560  204.6650  148.5620 C   0  0  0  0  0  0  0  0  0  0  0  0
  160.5530  204.6560  149.8210 C   0  0  0  0  0  2  0  0  0  0  0  0
  162.2740  205.8780  146.5680 C   0  0  0  0  0  1  0  0  0  0  0  0
  161.2860  205.3710  150.9480 C   0  0  1  0  0  3  0  0  0  0  0  0
  161.8470  203.5830  148.1440 O   0  0  0  0  0  0  0  0  0  0  0  0
  161.7840  207.5120  149.6470 C   0  0  0  0  0  2  0  0  0  0  0  0
  161.0900  206.9040  150.8630 C   0  0  2  0  0  3  0  0  0  0  0  0
  161.0780  207.1580  148.3480 C   0  0  0  0  0  2  0  0  0  0  0  0
  161.1090  207.0110  153.3870 C   0  0  1  0  0  3  0  0  0  0  0  0
  161.3550  205.5100  153.4610 C   0  0  0  0  0  2  0  0  0  0  0  0
  1  6  1  6  0  0  0
  1 12  1  0  0  0  0
  3 16  1  0  0  0  0
  4 11  1  0  0  0  0
  5 10  1  0  0  0  0
  6  5  1  0  0  0  0
  7  8  1  6  0  0  0
  9  3  1  0  0  0  0
 10  7  1  0  0  0  0
 11 13  2  0  0  0  0
 12 11  1  6  0  0  0
 12  7  1  0  0  0  0
 14  2  1  0  0  0  0
 15  3  2  0  0  0  0
 16 17  1  0  0  0  0
 16 14  1  0  0  0  0
 17 19  1  0  0  0  0
 18  2  1  6  0  0  0
 18  4  1  0  0  0  0
 20 19  1  6  0  0  0
 20 18  1  0  0  0  0
 20  1  1  0  0  0  0
 21  5  1  0  0  0  0
 22 34  1  0  0  0  0
 23 33  1  0  0  0  0
 24 32  1  0  0  0  0
 24 25  1  0  0  0  0
 25 26  1  0  0  0  0
 27 24  1  0  0  0  0
 28 26  1  6  0  0  0
 28 22  1  0  0  0  0
 29 25  2  0  0  0  0
 31 30  1  6  0  0  0
 31 28  1  0  0  0  0
 31 23  1  0  0  0  0
 32 30  1  0  0  0  0
 33 34  1  0  0  0  0
 33 21  1  1  0  0  0
M  END
>  <MODEL>
3

>  <REMARK>
 VINA RESULT:      -6.7      1.384      2.154
  Name = 
  2 active torsions:
  status: ('A' for Active; 'I' for Inactive)
    1  A    between atoms: N_8  and  C_18
    2  A    between atoms: C_18  and  C_30
                            x       y       z     vdW  Elec       q    Type
                         _______ _______ _______ _____ _____    ______ ____

>  <TORSDO>
F 2

$$$$
=
 OpenBabel11062409473D

 34 38  0  0  1  0  0  0  0  0999 V2000
  162.7180  206.9780  150.2380 C   0  0  1  0  0  3  0  0  0  0  0  0
  161.5950  209.9860  148.0640 C   0  0  0  0  0  2  0  0  0  0  0  0
  160.5210  212.4410  150.2240 C   0  0  0  0  0  0  0  0  0  0  0  0
  161.9960  207.6760  147.5810 O   0  0  0  0  0  0  0  0  0  0  0  0
  161.2170  206.2760  152.0730 N   0  0  0  0  0  0  0  0  0  0  0  0
  162.6060  206.5700  151.7140 C   0  0  0  0  0  2  0  0  0  0  0  0
  160.7040  205.4490  149.8220 C   0  0  2  0  0  3  0  0  0  0  0  0
  159.7470  206.4400  149.5780 O   0  0  0  0  0  1  0  0  0  0  0  0
  160.1670  213.3570  149.1000 C   0  0  0  0  0  1  0  0  0  0  0  0
  160.7370  205.1220  151.3110 C   0  0  0  0  0  2  0  0  0  0  0  0
  162.0740  206.3210  147.9140 C   0  0  0  0  0  0  0  0  0  0  0  0
  162.1010  205.8890  149.3460 C   0  0  1  0  0  3  0  0  0  0  0  0
  162.0330  205.4540  147.0020 O   0  0  0  0  0  0  0  0  0  0  0  0
  162.1450  211.2230  148.7560 C   0  0  0  0  0  2  0  0  0  0  0  0
  159.9410  212.5940  151.3320 O   0  0  0  0  0  0  0  0  0  0  0  0
  161.5000  211.4020  150.0560 N   0  0  0  0  0  0  0  0  0  0  0  0
  161.7970  210.5230  151.1940 C   0  0  0  0  0  2  0  0  0  0  0  0
  162.3520  208.7300  148.4780 C   0  0  2  0  0  3  0  0  0  0  0  0
  162.7720  209.4000  150.8580 C   0  0  0  0  0  2  0  0  0  0  0  0
  162.1110  208.3590  149.9550 C   0  0  2  0  0  3  0  0  0  0  0  0
  161.0480  206.0220  153.5140 C   0  0  0  0  0  2  0  0  0  0  0  0
  159.9380  208.1310  156.5680 C   0  0  0  0  0  2  0  0  0  0  0  0
  160.4230  208.5140  153.7010 C   0  0  0  0  0  2  0  0  0  0  0  0
  158.8960  212.4860  155.4140 N   0  0  0  0  0  0  0  0  0  0  0  0
  158.6260  211.6510  156.5490 C   0  0  0  0  0  0  0  0  0  0  0  0
  159.5430  210.5260  156.9020 C   0  0  0  0  0  2  0  0  0  0  0  0
  158.0560  213.6360  155.1260 C   0  0  0  0  0  1  0  0  0  0  0  0
  159.4690  209.4090  155.8700 C   0  0  1  0  0  3  0  0  0  0  0  0
  157.6080  211.8540  157.2610 O   0  0  0  0  0  0  0  0  0  0  0  0
  159.8340  210.8910  153.8220 C   0  0  0  0  0  2  0  0  0  0  0  0
  160.3590  209.7160  154.6430 C   0  0  2  0  0  3  0  0  0  0  0  0
  160.0270  212.2200  154.5350 C   0  0  0  0  0  2  0  0  0  0  0  0
  160.8620  207.2490  154.4330 C   0  0  1  0  0  3  0  0  0  0  0  0
  159.9420  206.9500  155.6090 C   0  0  0  0  0  2  0  0  0  0  0  0
  1  6  1  1  0  0  0
  2 14  1  0  0  0  0
  3 15  2  0  0  0  0
  4 11  1  0  0  0  0
  4 18  1  0  0  0  0
  5 21  1  0  0  0  0
  6  5  1  0  0  0  0
  7  8  1  1  0  0  0
  7 10  1  0  0  0  0
  9  3  1  0  0  0  0
 10  5  1  0  0  0  0
 12 11  1  6  0  0  0
 12  7  1  0  0  0  0
 12  1  1  0  0  0  0
 13 11  2  0  0  0  0
 14 16  1  0  0  0  0
 16  3  1  0  0  0  0
 16 17  1  0  0  0  0
 18  2  1  6  0  0  0
 18 20  1  0  0  0  0
 19 17  1  0  0  0  0
 20  1  1  0  0  0  0
 20 19  1  1  0  0  0
 23 33  1  0  0  0  0
 24 25  1  0  0  0  0
 25 26  1  0  0  0  0
 25 29  2  0  0  0  0
 27 24  1  0  0  0  0
 28 22  1  1  0  0  0
 28 26  1  0  0  0  0
 30 32  1  0  0  0  0
 30 31  1  0  0  0  0
 31 23  1  6  0  0  0
 31 28  1  0  0  0  0
 32 24  1  0  0  0  0
 33 21  1  6  0  0  0
 33 34  1  0  0  0  0
 34 22  1  0  0  0  0
M  END
>  <MODEL>
4

>  <REMARK>
 VINA RESULT:      -6.2      1.873      7.503
  Name = 
  2 active torsions:
  status: ('A' for Active; 'I' for Inactive)
    1  A    between atoms: N_8  and  C_18
    2  A    between atoms: C_18  and  C_30
                            x       y       z     vdW  Elec       q    Type
                         _______ _______ _______ _____ _____    ______ ____

>  <TORSDO>
F 2

$$$$
=
 OpenBabel11062409473D

 34 38  0  0  1  0  0  0  0  0999 V2000
  159.0290  214.3380  148.2430 C   0  0  1  0  0  3  0  0  0  0  0  0
  156.1260  213.8430  150.7670 C   0  0  0  0  0  2  0  0  0  0  0  0
  157.4620  212.3090  153.5440 C   0  0  0  0  0  0  0  0  0  0  0  0
  156.1940  214.3100  148.4200 O   0  0  0  0  0  0  0  0  0  0  0  0
  160.5330  212.4170  147.8470 N   0  0  0  0  0  0  0  0  0  0  0  0
  160.4800  213.8570  148.1100 C   0  0  0  0  0  2  0  0  0  0  0  0
  158.4180  212.4650  146.6060 C   0  0  2  0  0  3  0  0  0  0  0  0
  157.7670  211.6150  147.5070 O   0  0  0  0  0  1  0  0  0  0  0  0
  156.1360  212.2610  154.2270 C   0  0  0  0  0  1  0  0  0  0  0  0
  159.9040  212.1210  146.5590 C   0  0  0  0  0  2  0  0  0  0  0  0
  156.7810  214.2800  147.1530 C   0  0  0  0  0  0  0  0  0  0  0  0
  158.2290  213.9430  146.9920 C   0  0  1  0  0  3  0  0  0  0  0  0
  156.0640  214.4510  146.1320 O   0  0  0  0  0  0  0  0  0  0  0  0
  156.6920  214.2250  152.1250 C   0  0  0  0  0  2  0  0  0  0  0  0
  158.3440  211.4750  153.8810 O   0  0  0  0  0  0  0  0  0  0  0  0
  157.7360  213.2810  152.5210 N   0  0  0  0  0  0  0  0  0  0  0  0
  159.0540  213.2710  151.8750 C   0  0  0  0  0  2  0  0  0  0  0  0
  156.9400  214.4510  149.6310 C   0  0  2  0  0  3  0  0  0  0  0  0
  159.1830  214.2790  150.7380 C   0  0  0  0  0  2  0  0  0  0  0  0
  158.3540  213.8440  149.5310 C   0  0  2  0  0  3  0  0  0  0  0  0
  161.9090  211.8910  147.8570 C   0  0  0  0  0  2  0  0  0  0  0  0
  162.3590  208.2830  149.1920 C   0  0  0  0  0  2  0  0  0  0  0  0
  161.6090  210.9240  150.2250 C   0  0  0  0  0  2  0  0  0  0  0  0
  161.2530  207.9120  153.6660 N   0  0  0  0  0  0  0  0  0  0  0  0
  161.4280  206.9800  152.5900 C   0  0  0  0  0  0  0  0  0  0  0  0
  162.3220  207.3050  151.4380 C   0  0  0  0  0  2  0  0  0  0  0  0
  160.4580  207.5560  154.8300 C   0  0  0  0  0  1  0  0  0  0  0  0
  161.7350  208.4190  150.5810 C   0  0  1  0  0  3  0  0  0  0  0  0
  160.8260  205.8740  152.6000 O   0  0  0  0  0  0  0  0  0  0  0  0
  161.3060  210.0530  152.4970 C   0  0  0  0  0  2  0  0  0  0  0  0
  162.0410  209.8120  151.1810 C   0  0  2  0  0  3  0  0  0  0  0  0
  161.8810  209.2250  153.6350 C   0  0  0  0  0  2  0  0  0  0  0  0
  162.2220  210.7420  148.8390 C   0  0  1  0  0  3  0  0  0  0  0  0
  161.8680  209.3790  148.2580 C   0  0  0  0  0  2  0  0  0  0  0  0
  1  6  1  6  0  0  0
  1 20  1  0  0  0  0
  2 14  1  0  0  0  0
  3 15  2  0  0  0  0
  3  9  1  0  0  0  0
  4 18  1  0  0  0  0
  5 21  1  0  0  0  0
  5  6  1  0  0  0  0
  7 12  1  0  0  0  0
  7  8  1  1  0  0  0
 10  7  1  0  0  0  0
 10  5  1  0  0  0  0
 11  4  1  0  0  0  0
 12 11  1  1  0  0  0
 12  1  1  0  0  0  0
 13 11  2  0  0  0  0
 14 16  1  0  0  0  0
 16  3  1  0  0  0  0
 17 16  1  0  0  0  0
 18  2  1  1  0  0  0
 19 17  1  0  0  0  0
 20 18  1  0  0  0  0
 20 19  1  1  0  0  0
 24 27  1  0  0  0  0
 25 29  2  0  0  0  0
 25 24  1  0  0  0  0
 26 25  1  0  0  0  0
 28 22  1  6  0  0  0
 28 31  1  0  0  0  0
 28 26  1  0  0  0  0
 30 32  1  0  0  0  0
 31 23  1  6  0  0  0
 31 30  1  0  0  0  0
 32 24  1  0  0  0  0
 33 21  1  6  0  0  0
 33 23  1  0  0  0  0
 34 33  1  0  0  0  0
 34 22  1  0  0  0  0
M  END
>  <MODEL>
5

>  <REMARK>
 VINA RESULT:      -5.7      2.980      6.406
  Name = 
  2 active torsions:
  status: ('A' for Active; 'I' for Inactive)
    1  A    between atoms: N_8  and  C_18
    2  A    between atoms: C_18  and  C_30
                            x       y       z     vdW  Elec       q    Type
                         _______ _______ _______ _____ _____    ______ ____

>  <TORSDO>
F 2

$$$$
=
 OpenBabel11062409473D

 34 38  0  0  1  0  0  0  0  0999 V2000
  161.1470  210.2170  154.8590 C   0  0  1  0  0  3  0  0  0  0  0  0
  161.2620  207.0460  152.6290 C   0  0  0  0  0  2  0  0  0  0  0  0
  161.5660  208.1200  149.3730 C   0  0  0  0  0  0  0  0  0  0  0  0
  160.5690  207.4350  154.8870 O   0  0  0  0  0  0  0  0  0  0  0  0
  159.6600  212.0570  154.1440 N   0  0  0  0  0  0  0  0  0  0  0  0
  161.0000  211.7280  154.6360 C   0  0  0  0  0  2  0  0  0  0  0  0
  158.6400  210.2060  155.3870 C   0  0  2  0  0  3  0  0  0  0  0  0
  158.1940  209.5570  154.2300 O   0  0  0  0  0  1  0  0  0  0  0  0
  161.5490  206.7230  148.8490 C   0  0  0  0  0  1  0  0  0  0  0  0
  158.6590  211.7130  155.1540 C   0  0  0  0  0  2  0  0  0  0  0  0
  160.0770  208.2260  155.9280 C   0  0  0  0  0  0  0  0  0  0  0  0
  160.0400  209.7160  155.8010 C   0  0  1  0  0  3  0  0  0  0  0  0
  159.5800  207.6760  156.9450 O   0  0  0  0  0  0  0  0  0  0  0  0
  162.3560  207.3030  151.6050 C   0  0  0  0  0  2  0  0  0  0  0  0
  161.2130  209.0550  148.6060 O   0  0  0  0  0  0  0  0  0  0  0  0
  161.9730  208.4030  150.7220 N   0  0  0  0  0  0  0  0  0  0  0  0
  161.9570  209.7960  151.1850 C   0  0  0  0  0  2  0  0  0  0  0  0
  161.4290  207.9310  153.8580 C   0  0  2  0  0  3  0  0  0  0  0  0
  162.3080  209.9510  152.6610 C   0  0  0  0  0  2  0  0  0  0  0  0
  161.1820  209.4210  153.5460 C   0  0  2  0  0  3  0  0  0  0  0  0
  159.5270  213.4790  153.7800 C   0  0  0  0  0  2  0  0  0  0  0  0
  157.2030  213.8920  150.7090 C   0  0  0  0  0  2  0  0  0  0  0  0
  160.0110  213.2500  151.2600 C   0  0  0  0  0  2  0  0  0  0  0  0
  159.3630  212.9580  146.7290 N   0  0  0  0  0  0  0  0  0  0  0  0
  157.9900  213.0670  147.1300 C   0  0  0  0  0  0  0  0  0  0  0  0
  157.6010  213.9210  148.2910 C   0  0  0  0  0  2  0  0  0  0  0  0
  159.7290  212.2020  145.5430 C   0  0  0  0  0  1  0  0  0  0  0  0
  158.0960  213.3280  149.6040 C   0  0  1  0  0  3  0  0  0  0  0  0
  157.0930  212.4380  146.5080 O   0  0  0  0  0  0  0  0  0  0  0  0
  160.5240  213.0170  148.8750 C   0  0  0  0  0  2  0  0  0  0  0  0
  159.5770  213.6920  149.8630 C   0  0  2  0  0  3  0  0  0  0  0  0
  160.4220  213.6170  147.4810 C   0  0  0  0  0  2  0  0  0  0  0  0
  159.0810  213.8020  152.3380 C   0  0  1  0  0  3  0  0  0  0  0  0
  157.6380  213.3910  152.0780 C   0  0  0  0  0  2  0  0  0  0  0  0
  1  6  1  6  0  0  0
  1 12  1  0  0  0  0
  3 16  1  0  0  0  0
  4 11  1  0  0  0  0
  5  6  1  0  0  0  0
  5 10  1  0  0  0  0
  7  8  1  6  0  0  0
  7 12  1  0  0  0  0
  9  3  1  0  0  0  0
 10  7  1  0  0  0  0
 11 13  2  0  0  0  0
 12 11  1  6  0  0  0
 14  2  1  0  0  0  0
 15  3  2  0  0  0  0
 16 17  1  0  0  0  0
 16 14  1  0  0  0  0
 17 19  1  0  0  0  0
 18  2  1  6  0  0  0
 18  4  1  0  0  0  0
 20 19  1  6  0  0  0
 20 18  1  0  0  0  0
 20  1  1  0  0  0  0
 21  5  1  0  0  0  0
 22 34  1  0  0  0  0
 23 33  1  0  0  0  0
 24 25  1  0  0  0  0
 24 32  1  0  0  0  0
 25 26  1  0  0  0  0
 27 24  1  0  0  0  0
 28 26  1  6  0  0  0
 28 31  1  0  0  0  0
 28 22  1  0  0  0  0
 29 25  2  0  0  0  0
 31 30  1  6  0  0  0
 31 23  1  0  0  0  0
 32 30  1  0  0  0  0
 33 21  1  1  0  0  0
 34 33  1  0  0  0  0
M  END
>  <MODEL>
6

>  <REMARK>
 VINA RESULT:      -5.6      2.738      6.564
  Name = 
  2 active torsions:
  status: ('A' for Active; 'I' for Inactive)
    1  A    between atoms: N_8  and  C_18
    2  A    between atoms: C_18  and  C_30
                            x       y       z     vdW  Elec       q    Type
                         _______ _______ _______ _____ _____    ______ ____

>  <TORSDO>
F 2

$$$$
=
 OpenBabel11062409473D

 34 38  0  0  1  0  0  0  0  0999 V2000
  160.4870  212.0340  154.2200 C   0  0  1  0  0  3  0  0  0  0  0  0
  157.0570  213.7100  154.9060 C   0  0  0  0  0  2  0  0  0  0  0  0
  155.3140  211.6080  157.0010 C   0  0  0  0  0  0  0  0  0  0  0  0
  158.7420  214.0510  153.2410 O   0  0  0  0  0  0  0  0  0  0  0  0
  160.4830  209.6300  153.6440 N   0  0  0  0  0  0  0  0  0  0  0  0
  161.1210  210.6590  154.4690 C   0  0  0  0  0  2  0  0  0  0  0  0
  160.0280  211.2200  151.8340 C   0  0  2  0  0  3  0  0  0  0  0  0
  158.6400  211.0750  151.9340 O   0  0  0  0  0  1  0  0  0  0  0  0
  154.1260  212.5110  157.0140 C   0  0  0  0  0  1  0  0  0  0  0  0
  160.7100  209.9130  152.2270 C   0  0  0  0  0  2  0  0  0  0  0  0
  159.8060  213.6430  152.4320 C   0  0  0  0  0  0  0  0  0  0  0  0
  160.5380  212.3710  152.7210 C   0  0  1  0  0  3  0  0  0  0  0  0
  160.0930  214.3060  151.4010 O   0  0  0  0  0  0  0  0  0  0  0  0
  156.8020  213.5300  156.3940 C   0  0  0  0  0  2  0  0  0  0  0  0
  155.1450  210.3850  157.2530 O   0  0  0  0  0  0  0  0  0  0  0  0
  156.6270  212.1130  156.7080 N   0  0  0  0  0  0  0  0  0  0  0  0
  157.7570  211.1750  156.6980 C   0  0  0  0  0  2  0  0  0  0  0  0
  158.5390  213.5780  154.5740 C   0  0  2  0  0  3  0  0  0  0  0  0
  159.0750  211.8120  156.2720 C   0  0  0  0  0  2  0  0  0  0  0  0
  159.0610  212.1420  154.7800 C   0  0  2  0  0  3  0  0  0  0  0  0
  160.9660  208.2740  153.9610 C   0  0  0  0  0  2  0  0  0  0  0  0
  160.6960  204.7140  152.4590 C   0  0  0  0  0  2  0  0  0  0  0  0
  161.0330  207.4700  151.5150 C   0  0  0  0  0  2  0  0  0  0  0  0
  161.2100  204.7000  147.8640 N   0  0  0  0  0  0  0  0  0  0  0  0
  161.2770  203.6990  148.8900 C   0  0  0  0  0  0  0  0  0  0  0  0
  160.5210  203.8660  150.1670 C   0  0  0  0  0  2  0  0  0  0  0  0
  161.8700  204.4920  146.5860 C   0  0  0  0  0  1  0  0  0  0  0  0
  161.1070  204.9890  151.0120 C   0  0  1  0  0  3  0  0  0  0  0  0
  161.9780  202.6660  148.7270 O   0  0  0  0  0  0  0  0  0  0  0  0
  161.1070  206.7580  149.1700 C   0  0  0  0  0  2  0  0  0  0  0  0
  160.5860  206.3710  150.5520 C   0  0  2  0  0  3  0  0  0  0  0  0
  160.4660  205.9350  148.0640 C   0  0  0  0  0  2  0  0  0  0  0  0
  160.6360  207.1510  152.9540 C   0  0  1  0  0  3  0  0  0  0  0  0
  161.1990  205.8060  153.3910 C   0  0  0  0  0  2  0  0  0  0  0  0
  1  6  1  6  0  0  0
  1 20  1  0  0  0  0
  2 14  1  0  0  0  0
  3  9  1  0  0  0  0
  3 15  2  0  0  0  0
  4 18  1  0  0  0  0
  5 21  1  0  0  0  0
  5  6  1  0  0  0  0
  7  8  1  1  0  0  0
  7 10  1  0  0  0  0
  7 12  1  0  0  0  0
 10  5  1  0  0  0  0
 11  4  1  0  0  0  0
 12 11  1  1  0  0  0
 12  1  1  0  0  0  0
 13 11  2  0  0  0  0
 14 16  1  0  0  0  0
 16  3  1  0  0  0  0
 17 16  1  0  0  0  0
 18 20  1  0  0  0  0
 18  2  1  6  0  0  0
 19 17  1  0  0  0  0
 20 19  1  1  0  0  0
 22 34  1  0  0  0  0
 23 33  1  0  0  0  0
 24 32  1  0  0  0  0
 24 25  1  0  0  0  0
 25 26  1  0  0  0  0
 27 24  1  0  0  0  0
 28 26  1  6  0  0  0
 28 22  1  0  0  0  0
 29 25  2  0  0  0  0
 31 30  1  6  0  0  0
 31 28  1  0  0  0  0
 31 23  1  0  0  0  0
 32 30  1  0  0  0  0
 33 34  1  0  0  0  0
 33 21  1  1  0  0  0
M  END
>  <MODEL>
7

>  <REMARK>
 VINA RESULT:      -4.7      2.201      4.555
  Name = 
  2 active torsions:
  status: ('A' for Active; 'I' for Inactive)
    1  A    between atoms: N_8  and  C_18
    2  A    between atoms: C_18  and  C_30
                            x       y       z     vdW  Elec       q    Type
                         _______ _______ _______ _____ _____    ______ ____

>  <TORSDO>
F 2

$$$$
=
 OpenBabel11062409473D

 34 38  0  0  1  0  0  0  0  0999 V2000
  160.6120  206.6780  150.1590 C   0  0  1  0  0  3  0  0  0  0  0  0
  161.7140  204.0520  147.5270 C   0  0  0  0  0  2  0  0  0  0  0  0
  161.3470  200.9550  148.9850 C   0  0  0  0  0  0  0  0  0  0  0  0
  162.0560  206.4120  147.7260 O   0  0  0  0  0  0  0  0  0  0  0  0
  161.4770  206.4150  152.4600 N   0  0  0  0  0  0  0  0  0  0  0  0
  160.2800  206.6780  151.6570 C   0  0  0  0  0  2  0  0  0  0  0  0
  162.9360  207.5230  150.8310 C   0  0  2  0  0  3  0  0  0  0  0  0
  163.6610  206.3590  150.5540 O   0  0  0  0  0  1  0  0  0  0  0  0
  161.8580  200.2570  147.7680 C   0  0  0  0  0  1  0  0  0  0  0  0
  162.4490  207.4930  152.2760 C   0  0  0  0  0  2  0  0  0  0  0  0
  162.1780  207.6040  148.4440 C   0  0  0  0  0  0  0  0  0  0  0  0
  161.7410  207.6820  149.8730 C   0  0  1  0  0  3  0  0  0  0  0  0
  162.7420  208.5960  147.9110 O   0  0  0  0  0  0  0  0  0  0  0  0
  160.6830  202.9360  147.6020 C   0  0  0  0  0  2  0  0  0  0  0  0
  161.4400  200.3720  150.0980 O   0  0  0  0  0  0  0  0  0  0  0  0
  160.7610  202.2650  148.8990 N   0  0  0  0  0  0  0  0  0  0  0  0
  160.2870  202.9070  150.1310 C   0  0  0  0  0  2  0  0  0  0  0  0
  161.1690  205.3550  148.0990 C   0  0  2  0  0  3  0  0  0  0  0  0
  159.7840  204.3310  149.9220 C   0  0  0  0  0  2  0  0  0  0  0  0
  160.9450  205.2780  149.6230 C   0  0  2  0  0  3  0  0  0  0  0  0
  161.1720  206.2630  153.8930 C   0  0  0  0  0  2  0  0  0  0  0  0
  160.0150  208.5580  156.7910 C   0  0  0  0  0  2  0  0  0  0  0  0
  160.3690  208.7100  153.8840 C   0  0  0  0  0  2  0  0  0  0  0  0
  158.6100  212.7030  155.2990 N   0  0  0  0  0  0  0  0  0  0  0  0
  158.4430  211.9580  156.5140 C   0  0  0  0  0  0  0  0  0  0  0  0
  159.4530  210.9390  156.9280 C   0  0  0  0  0  2  0  0  0  0  0  0
  157.6770  213.7590  154.9450 C   0  0  0  0  0  1  0  0  0  0  0  0
  159.4270  209.7290  156.0030 C   0  0  1  0  0  3  0  0  0  0  0  0
  157.4380  212.1530  157.2470 O   0  0  0  0  0  0  0  0  0  0  0  0
  159.6090  211.0400  153.8180 C   0  0  0  0  0  2  0  0  0  0  0  0
  160.2490  209.9850  154.7170 C   0  0  2  0  0  3  0  0  0  0  0  0
  159.7260  212.4390  154.4010 C   0  0  0  0  0  2  0  0  0  0  0  0
  160.9270  207.5520  154.7070 C   0  0  1  0  0  3  0  0  0  0  0  0
  160.0730  207.2970  155.9420 C   0  0  0  0  0  2  0  0  0  0  0  0
  1  6  1  1  0  0  0
  2 14  1  0  0  0  0
  3 15  2  0  0  0  0
  4 18  1  0  0  0  0
  4 11  1  0  0  0  0
  5 21  1  0  0  0  0
  6  5  1  0  0  0  0
  7  8  1  6  0  0  0
  7 10  1  0  0  0  0
  9  3  1  0  0  0  0
 10  5  1  0  0  0  0
 12 11  1  6  0  0  0
 12  1  1  0  0  0  0
 12  7  1  0  0  0  0
 13 11  2  0  0  0  0
 14 16  1  0  0  0  0
 16  3  1  0  0  0  0
 16 17  1  0  0  0  0
 18  2  1  1  0  0  0
 18 20  1  0  0  0  0
 19 17  1  0  0  0  0
 20 19  1  6  0  0  0
 20  1  1  0  0  0  0
 23 33  1  0  0  0  0
 23 31  1  0  0  0  0
 24 25  1  0  0  0  0
 25 26  1  0  0  0  0
 25 29  2  0  0  0  0
 27 24  1  0  0  0  0
 28 22  1  1  0  0  0
 28 26  1  0  0  0  0
 30 32  1  0  0  0  0
 31 30  1  6  0  0  0
 31 28  1  0  0  0  0
 32 24  1  0  0  0  0
 33 21  1  6  0  0  0
 33 34  1  0  0  0  0
 34 22  1  0  0  0  0
M  END
>  <MODEL>
8

>  <REMARK>
 VINA RESULT:      -4.5      2.370      8.978
  Name = 
  2 active torsions:
  status: ('A' for Active; 'I' for Inactive)
    1  A    between atoms: N_8  and  C_18
    2  A    between atoms: C_18  and  C_30
                            x       y       z     vdW  Elec       q    Type
                         _______ _______ _______ _____ _____    ______ ____

>  <TORSDO>
F 2

$$$$
