=
 OpenBabel11052421453D

 30 36  0  0  1  0  0  0  0  0999 V2000
  160.6610  208.1350  155.3930 C   0  0  0  0  0  0  0  0  0  0  0  0
  160.7710  208.4960  156.6690 C   0  0  0  0  0  3  0  0  0  0  0  0
  159.8770  207.0410  155.0450 O   0  0  0  0  0  1  0  0  0  0  0  0
  161.1360  210.4570  154.6070 C   0  0  2  0  0  3  0  0  0  0  0  0
  161.6540  209.6510  157.0430 C   0  0  0  0  0  2  0  0  0  0  0  0
  161.3830  208.9460  154.3490 C   0  0  2  0  0  3  0  0  0  0  0  0
  161.5360  210.8320  156.0580 C   0  0  0  0  0  2  0  0  0  0  0  0
  161.0200  208.5320  152.9980 N   0  0  2  0  0  0  0  0  0  0  0  0
  162.2020  207.8780  152.4090 C   0  0  2  0  0  3  0  0  0  0  0  0
  161.8790  209.2820  152.0630 C   0  0  1  0  0  3  0  0  0  0  0  0
  162.4610  209.3310  148.6510 N   0  0  0  0  0  0  0  0  0  0  0  0
  161.7050  208.6130  149.6480 C   0  0  1  0  0  0  0  0  0  0  0  0
  161.3820  211.2050  150.1770 S   0  0  0  0  0  0  0  0  0  0  0  0
  161.1240  209.4890  150.7450 C   0  0  2  0  0  3  0  0  0  0  0  0
  160.8990  207.4520  149.1320 C   0  0  0  0  0  2  0  0  0  0  0  0
  163.0770  211.4970  147.9500 N   0  0  0  0  0  1  0  0  0  0  0  0
  162.3790  210.6060  148.8100 C   0  0  0  0  0  0  0  0  0  0  0  0
  161.7420  206.8310  151.3870 C   0  0  0  0  0  2  0  0  0  0  0  0
  162.1590  207.2050  149.9670 C   0  0  2  0  0  3  0  0  0  0  0  0
  158.5650  213.1230  155.4790 S   0  0  0  0  0  0  0  0  0  0  0  0
  159.0830  213.2970  153.7400 C   0  0  1  0  0  3  0  0  0  0  0  0
  158.9340  211.3830  155.4740 C   0  0  0  0  0  0  0  0  0  0  0  0
  159.6910  212.0030  153.2220 C   0  0  2  0  0  3  0  0  0  0  0  0
  158.1080  210.5510  156.1000 C   0  0  0  0  0  2  0  0  0  0  0  0
  158.2760  212.3890  152.8270 C   0  0  2  0  0  3  0  0  0  0  0  0
  159.6860  210.8940  154.2780 C   0  0  1  0  0  3  0  0  0  0  0  0
  158.2960  212.9500  151.4160 C   0  0  0  0  0  2  0  0  0  0  0  0
  157.5190  214.2570  151.3490 C   0  0  0  0  0  2  0  0  0  0  0  0
  156.1980  214.0810  150.6150 C   0  0  0  0  0  2  0  0  0  0  0  0
  156.4420  213.7880  149.1460 C   0  0  0  0  0  1  0  0  0  0  0  0
  1  2  2  0  0  0  0
  2  5  1  0  0  0  0
  3  1  1  0  0  0  0
  4  7  1  1  0  0  0
  6  4  1  0  0  0  0
  6  1  1  1  0  0  0
  7  5  1  0  0  0  0
  8  6  1  1  0  0  0
  9 18  1  6  0  0  0
  9  8  1  0  0  0  0
 10  9  1  0  0  0  0
 10  8  1  0  0  0  0
 11 17  2  0  0  0  0
 11 12  1  0  0  0  0
 12 19  1  0  0  0  0
 12 14  1  0  0  0  0
 13 14  1  0  0  0  0
 14 10  1  0  0  0  0
 15 12  1  0  0  0  0
 15 19  1  0  0  0  0
 16 17  1  0  0  0  0
 17 13  1  0  0  0  0
 19 18  1  0  0  0  0
 21 20  1  0  0  0  0
 22 20  1  0  0  0  0
 22 24  2  0  0  0  0
 23 21  1  0  0  0  0
 23 26  1  0  0  0  0
 25 23  1  0  0  0  0
 25 21  1  0  0  0  0
 26  4  1  0  0  0  0
 26 22  1  0  0  0  0
 27 25  1  0  0  0  0
 28 27  1  0  0  0  0
 29 28  1  0  0  0  0
 30 29  1  0  0  0  0
M  END
>  <MODEL>
1

>  <REMARK>
 VINA RESULT:      -4.4      0.000      0.000
  Name = 
  5 active torsions:
  status: ('A' for Active; 'I' for Inactive)
    1  A    between atoms: N_1  and  C_22
    2  A    between atoms: C_7  and  C_15
    3  A    between atoms: C_15  and  C_16
    4  A    between atoms: C_16  and  C_25
    5  A    between atoms: C_19  and  C_29
                            x       y       z     vdW  Elec       q    Type
                         _______ _______ _______ _____ _____    ______ ____

>  <TORSDO>
F 5

$$$$
=
 OpenBabel11052421453D

 30 36  0  0  1  0  0  0  0  0999 V2000
  160.7370  206.1320  146.3200 C   0  0  0  0  0  0  0  0  0  0  0  0
  160.4440  206.1240  145.0220 C   0  0  0  0  0  3  0  0  0  0  0  0
  159.8790  206.7510  147.2220 O   0  0  0  0  0  1  0  0  0  0  0  0
  162.0930  204.0470  146.1150 C   0  0  2  0  0  3  0  0  0  0  0  0
  161.3970  205.4920  144.0480 C   0  0  0  0  0  2  0  0  0  0  0  0
  161.9960  205.4470  146.7800 C   0  0  2  0  0  3  0  0  0  0  0  0
  161.9940  204.1710  144.5720 C   0  0  0  0  0  2  0  0  0  0  0  0
  162.0800  205.3920  148.2360 N   0  0  2  0  0  0  0  0  0  0  0  0
  160.7010  205.4100  148.7540 C   0  0  2  0  0  3  0  0  0  0  0  0
  161.5130  206.6500  148.7560 C   0  0  1  0  0  3  0  0  0  0  0  0
  160.7630  207.9910  151.8590 N   0  0  0  0  0  0  0  0  0  0  0  0
  161.2530  206.7770  151.2520 C   0  0  1  0  0  0  0  0  0  0  0  0
  162.5790  208.7830  150.1030 S   0  0  0  0  0  0  0  0  0  0  0  0
  162.1980  206.9970  150.0830 C   0  0  2  0  0  3  0  0  0  0  0  0
  161.5150  205.6420  152.2040 C   0  0  0  0  0  2  0  0  0  0  0  0
  160.9790  210.3400  151.8150 N   0  0  0  0  0  1  0  0  0  0  0  0
  161.3380  209.0370  151.3750 C   0  0  0  0  0  0  0  0  0  0  0  0
  160.6540  204.6580  150.0890 C   0  0  0  0  0  2  0  0  0  0  0  0
  160.3170  205.5880  151.2520 C   0  0  2  0  0  3  0  0  0  0  0  0
  160.9700  200.4290  145.7600 S   0  0  0  0  0  0  0  0  0  0  0  0
  161.7070  200.6970  147.4060 C   0  0  1  0  0  3  0  0  0  0  0  0
  160.4880  202.1370  145.6350 C   0  0  0  0  0  0  0  0  0  0  0  0
  161.7010  202.1740  147.7690 C   0  0  2  0  0  3  0  0  0  0  0  0
  159.3040  202.4320  145.1080 C   0  0  0  0  0  2  0  0  0  0  0  0
  160.6840  201.2340  148.3920 C   0  0  2  0  0  3  0  0  0  0  0  0
  161.0600  203.0390  146.6810 C   0  0  1  0  0  3  0  0  0  0  0  0
  161.1250  200.8980  149.8050 C   0  0  0  0  0  2  0  0  0  0  0  0
  160.1780  201.5170  150.8230 C   0  0  0  0  0  2  0  0  0  0  0  0
  160.9390  202.1390  151.9850 C   0  0  0  0  0  2  0  0  0  0  0  0
  162.4350  202.0480  151.7490 C   0  0  0  0  0  1  0  0  0  0  0  0
  1  3  1  0  0  0  0
  2  1  2  0  0  0  0
  4  7  1  6  0  0  0
  4 26  1  0  0  0  0
  4  6  1  0  0  0  0
  5  7  1  0  0  0  0
  5  2  1  0  0  0  0
  6  1  1  1  0  0  0
  8  6  1  6  0  0  0
  8  9  1  0  0  0  0
  8 10  1  0  0  0  0
  9 10  1  0  0  0  0
  9 18  1  1  0  0  0
 10 14  1  0  0  0  0
 12 11  1  0  0  0  0
 12 15  1  0  0  0  0
 13 17  1  0  0  0  0
 14 13  1  0  0  0  0
 14 12  1  0  0  0  0
 17 16  1  0  0  0  0
 17 11  2  0  0  0  0
 18 19  1  0  0  0  0
 19 12  1  0  0  0  0
 19 15  1  0  0  0  0
 20 21  1  0  0  0  0
 21 23  1  0  0  0  0
 21 25  1  0  0  0  0
 22 20  1  0  0  0  0
 22 26  1  0  0  0  0
 23 25  1  0  0  0  0
 24 22  2  0  0  0  0
 25 27  1  0  0  0  0
 26 23  1  0  0  0  0
 27 28  1  0  0  0  0
 28 29  1  0  0  0  0
 30 29  1  0  0  0  0
M  END
>  <MODEL>
2

>  <REMARK>
 VINA RESULT:      -2.5      4.881      9.864
  Name = 
  5 active torsions:
  status: ('A' for Active; 'I' for Inactive)
    1  A    between atoms: N_1  and  C_22
    2  A    between atoms: C_7  and  C_15
    3  A    between atoms: C_15  and  C_16
    4  A    between atoms: C_16  and  C_25
    5  A    between atoms: C_19  and  C_29
                            x       y       z     vdW  Elec       q    Type
                         _______ _______ _______ _____ _____    ______ ____

>  <TORSDO>
F 5

$$$$
=
 OpenBabel11052421453D

 30 36  0  0  1  0  0  0  0  0999 V2000
  162.0160  205.6610  152.3150 C   0  0  0  0  0  0  0  0  0  0  0  0
  161.7540  204.6560  151.4830 C   0  0  0  0  0  3  0  0  0  0  0  0
  163.1730  205.6410  153.0870 O   0  0  0  0  0  1  0  0  0  0  0  0
  160.6770  207.2600  150.9440 C   0  0  2  0  0  3  0  0  0  0  0  0
  160.4820  204.6630  150.6850 C   0  0  0  0  0  2  0  0  0  0  0  0
  161.0490  206.8130  152.3840 C   0  0  2  0  0  3  0  0  0  0  0  0
  160.1400  206.0580  150.1240 C   0  0  0  0  0  2  0  0  0  0  0  0
  161.5650  207.9040  153.2030 N   0  0  2  0  0  0  0  0  0  0  0  0
  160.7800  207.9250  154.4490 C   0  0  2  0  0  3  0  0  0  0  0  0
  160.4780  208.8860  153.3630 C   0  0  1  0  0  3  0  0  0  0  0  0
  159.9610  211.8200  155.1280 N   0  0  0  0  0  0  0  0  0  0  0  0
  160.9420  210.7760  154.9520 C   0  0  1  0  0  0  0  0  0  0  0  0
  160.1270  211.4650  152.5110 S   0  0  0  0  0  0  0  0  0  0  0  0
  161.0850  210.2850  153.5220 C   0  0  2  0  0  3  0  0  0  0  0  0
  162.1700  210.8950  155.8140 C   0  0  0  0  0  2  0  0  0  0  0  0
  158.4890  213.2400  153.9540 N   0  0  0  0  0  1  0  0  0  0  0  0
  159.4920  212.2340  154.0030 C   0  0  0  0  0  0  0  0  0  0  0  0
  161.6500  208.4740  155.5860 C   0  0  0  0  0  2  0  0  0  0  0  0
  161.1260  209.8110  156.1040 C   0  0  2  0  0  3  0  0  0  0  0  0
  161.9900  208.0110  147.4530 S   0  0  0  0  0  0  0  0  0  0  0  0
  161.4600  209.5530  148.2680 C   0  0  1  0  0  3  0  0  0  0  0  0
  162.3330  207.2360  149.0170 C   0  0  0  0  0  0  0  0  0  0  0  0
  161.4120  209.3810  149.7770 C   0  0  2  0  0  3  0  0  0  0  0  0
  163.4140  206.4700  149.1290 C   0  0  0  0  0  2  0  0  0  0  0  0
  162.5640  210.1320  149.1350 C   0  0  2  0  0  3  0  0  0  0  0  0
  161.8430  207.9790  150.2180 C   0  0  1  0  0  3  0  0  0  0  0  0
  162.3380  211.6220  149.3080 C   0  0  0  0  0  2  0  0  0  0  0  0
  162.5140  212.3490  147.9820 C   0  0  0  0  0  2  0  0  0  0  0  0
  161.3550  213.2950  147.7080 C   0  0  0  0  0  2  0  0  0  0  0  0
  160.5180  213.4860  148.9580 C   0  0  0  0  0  1  0  0  0  0  0  0
  1  3  1  0  0  0  0
  2  1  2  0  0  0  0
  4  7  1  6  0  0  0
  4  6  1  0  0  0  0
  5  2  1  0  0  0  0
  6  1  1  6  0  0  0
  7  5  1  0  0  0  0
  8  6  1  6  0  0  0
  8 10  1  0  0  0  0
  8  9  1  0  0  0  0
  9 18  1  1  0  0  0
 10 14  1  0  0  0  0
 10  9  1  0  0  0  0
 12 11  1  0  0  0  0
 12 15  1  0  0  0  0
 12 19  1  0  0  0  0
 13 14  1  0  0  0  0
 13 17  1  0  0  0  0
 14 12  1  0  0  0  0
 15 19  1  0  0  0  0
 16 17  1  0  0  0  0
 17 11  2  0  0  0  0
 18 19  1  0  0  0  0
 20 21  1  0  0  0  0
 20 22  1  0  0  0  0
 21 25  1  0  0  0  0
 21 23  1  0  0  0  0
 22 24  2  0  0  0  0
 22 26  1  0  0  0  0
 23 26  1  0  0  0  0
 25 27  1  0  0  0  0
 25 23  1  0  0  0  0
 26  4  1  0  0  0  0
 28 27  1  0  0  0  0
 29 28  1  0  0  0  0
 29 30  1  0  0  0  0
M  END
>  <MODEL>
3

>  <REMARK>
 VINA RESULT:      -2.5      2.615      6.030
  Name = 
  5 active torsions:
  status: ('A' for Active; 'I' for Inactive)
    1  A    between atoms: N_1  and  C_22
    2  A    between atoms: C_7  and  C_15
    3  A    between atoms: C_15  and  C_16
    4  A    between atoms: C_16  and  C_25
    5  A    between atoms: C_19  and  C_29
                            x       y       z     vdW  Elec       q    Type
                         _______ _______ _______ _____ _____    ______ ____

>  <TORSDO>
F 5

$$$$
=
 OpenBabel11052421453D

 30 36  0  0  1  0  0  0  0  0999 V2000
  161.1180  208.9700  156.8400 C   0  0  0  0  0  0  0  0  0  0  0  0
  161.4100  207.7410  157.2610 C   0  0  0  0  0  3  0  0  0  0  0  0
  161.9330  210.0380  157.1950 O   0  0  0  0  0  1  0  0  0  0  0  0
  159.9040  208.0900  154.8440 C   0  0  2  0  0  3  0  0  0  0  0  0
  160.5010  206.5990  156.9100 C   0  0  0  0  0  2  0  0  0  0  0  0
  159.9080  209.1640  155.9650 C   0  0  2  0  0  3  0  0  0  0  0  0
  159.9930  206.6670  155.4560 C   0  0  0  0  0  2  0  0  0  0  0  0
  159.8280  210.5260  155.4490 N   0  0  2  0  0  0  0  0  0  0  0  0
  159.8100  211.4330  156.6090 C   0  0  2  0  0  3  0  0  0  0  0  0
  158.5490  211.0960  155.9080 C   0  0  1  0  0  3  0  0  0  0  0  0
  156.9600  214.1700  155.7780 N   0  0  0  0  0  0  0  0  0  0  0  0
  158.2060  213.5370  155.4200 C   0  0  1  0  0  0  0  0  0  0  0  0
  156.2680  211.8940  154.6180 S   0  0  0  0  0  0  0  0  0  0  0  0
  158.0600  212.1250  154.8810 C   0  0  2  0  0  3  0  0  0  0  0  0
  159.2410  214.4490  154.8200 C   0  0  0  0  0  2  0  0  0  0  0  0
  154.6180  213.8860  155.7250 N   0  0  0  0  0  1  0  0  0  0  0  0
  155.9430  213.4580  155.4360 C   0  0  0  0  0  0  0  0  0  0  0  0
  160.4400  212.7730  156.2120 C   0  0  0  0  0  2  0  0  0  0  0  0
  159.4210  213.9100  156.2420 C   0  0  2  0  0  3  0  0  0  0  0  0
  160.9090  207.0420  151.3280 S   0  0  0  0  0  0  0  0  0  0  0  0
  160.4510  208.8060  151.3490 C   0  0  1  0  0  3  0  0  0  0  0  0
  161.3860  207.0870  153.0410 C   0  0  0  0  0  0  0  0  0  0  0  0
  160.5340  209.3720  152.7570 C   0  0  2  0  0  3  0  0  0  0  0  0
  162.4730  206.4220  153.4210 C   0  0  0  0  0  2  0  0  0  0  0  0
  161.6270  209.6800  151.7490 C   0  0  2  0  0  3  0  0  0  0  0  0
  161.0020  208.3300  153.7770 C   0  0  1  0  0  3  0  0  0  0  0  0
  161.4160  211.0830  151.2090 C   0  0  0  0  0  2  0  0  0  0  0  0
  160.3540  211.8150  152.0190 C   0  0  0  0  0  2  0  0  0  0  0  0
  160.0870  213.2040  151.4590 C   0  0  0  0  0  2  0  0  0  0  0  0
  158.6600  213.3090  150.9580 C   0  0  0  0  0  1  0  0  0  0  0  0
  1  3  1  0  0  0  0
  1  2  2  0  0  0  0
  4  7  1  1  0  0  0
  4  6  1  0  0  0  0
  5  2  1  0  0  0  0
  6  1  1  6  0  0  0
  7  5  1  0  0  0  0
  8 10  1  0  0  0  0
  8  6  1  1  0  0  0
  8  9  1  0  0  0  0
  9 18  1  6  0  0  0
 10  9  1  0  0  0  0
 12 11  1  0  0  0  0
 12 19  1  0  0  0  0
 13 14  1  0  0  0  0
 13 17  1  0  0  0  0
 14 12  1  0  0  0  0
 14 10  1  0  0  0  0
 15 12  1  0  0  0  0
 15 19  1  0  0  0  0
 17 16  1  0  0  0  0
 17 11  2  0  0  0  0
 18 19  1  0  0  0  0
 20 21  1  0  0  0  0
 20 22  1  0  0  0  0
 21 25  1  0  0  0  0
 21 23  1  0  0  0  0
 22 24  2  0  0  0  0
 22 26  1  0  0  0  0
 23 26  1  0  0  0  0
 25 23  1  0  0  0  0
 26  4  1  0  0  0  0
 27 25  1  0  0  0  0
 27 28  1  0  0  0  0
 29 28  1  0  0  0  0
 30 29  1  0  0  0  0
M  END
>  <MODEL>
4

>  <REMARK>
 VINA RESULT:      -2.3      2.905      6.091
  Name = 
  5 active torsions:
  status: ('A' for Active; 'I' for Inactive)
    1  A    between atoms: N_1  and  C_22
    2  A    between atoms: C_7  and  C_15
    3  A    between atoms: C_15  and  C_16
    4  A    between atoms: C_16  and  C_25
    5  A    between atoms: C_19  and  C_29
                            x       y       z     vdW  Elec       q    Type
                         _______ _______ _______ _____ _____    ______ ____

>  <TORSDO>
F 5

$$$$
=
 OpenBabel11052421453D

 30 36  0  0  1  0  0  0  0  0999 V2000
  157.9180  213.3090  155.1190 C   0  0  0  0  0  0  0  0  0  0  0  0
  157.1730  212.7920  156.0940 C   0  0  0  0  0  3  0  0  0  0  0  0
  158.6740  214.4520  155.3540 O   0  0  0  0  0  1  0  0  0  0  0  0
  158.1270  211.0940  153.9880 C   0  0  2  0  0  3  0  0  0  0  0  0
  156.3250  211.5840  155.8210 C   0  0  0  0  0  2  0  0  0  0  0  0
  157.9330  212.6200  153.7800 C   0  0  2  0  0  3  0  0  0  0  0  0
  157.0460  210.5350  154.9500 C   0  0  0  0  0  2  0  0  0  0  0  0
  158.9260  213.2030  152.8840 N   0  0  2  0  0  0  0  0  0  0  0  0
  158.3170  213.2740  151.5440 C   0  0  2  0  0  3  0  0  0  0  0  0
  159.2620  212.1820  151.8760 C   0  0  1  0  0  3  0  0  0  0  0  0
  161.1860  212.0030  149.0030 N   0  0  0  0  0  0  0  0  0  0  0  0
  160.7530  212.9470  150.0050 C   0  0  1  0  0  0  0  0  0  0  0  0
  161.5370  210.7640  151.3150 S   0  0  0  0  0  0  0  0  0  0  0  0
  160.7100  212.3880  151.4160 C   0  0  2  0  0  3  0  0  0  0  0  0
  161.2070  214.3660  149.7900 C   0  0  0  0  0  2  0  0  0  0  0  0
  162.0300  209.8200  148.7110 N   0  0  0  0  0  1  0  0  0  0  0  0
  161.5890  210.8980  149.5260 C   0  0  0  0  0  0  0  0  0  0  0  0
  158.9250  214.4530  150.7760 C   0  0  0  0  0  2  0  0  0  0  0  0
  159.7390  213.9840  149.5720 C   0  0  2  0  0  3  0  0  0  0  0  0
  160.0230  209.7890  157.0170 S   0  0  0  0  0  0  0  0  0  0  0  0
  160.0770  208.5630  155.6680 C   0  0  1  0  0  3  0  0  0  0  0  0
  159.8380  211.1310  155.8650 C   0  0  0  0  0  0  0  0  0  0  0  0
  159.7900  209.2190  154.3270 C   0  0  2  0  0  3  0  0  0  0  0  0
  160.4930  212.2660  156.0930 C   0  0  0  0  0  2  0  0  0  0  0  0
  161.2140  208.8490  154.7030 C   0  0  2  0  0  3  0  0  0  0  0  0
  159.5590  210.7270  154.4540 C   0  0  1  0  0  3  0  0  0  0  0  0
  161.5960  207.5680  153.9830 C   0  0  0  0  0  2  0  0  0  0  0  0
  160.8270  207.4390  152.6760 C   0  0  0  0  0  2  0  0  0  0  0  0
  161.5340  206.5050  151.7050 C   0  0  0  0  0  2  0  0  0  0  0  0
  161.0370  206.7350  150.2900 C   0  0  0  0  0  1  0  0  0  0  0  0
  1  3  1  0  0  0  0
  1  2  2  0  0  0  0
  4 26  1  0  0  0  0
  4  7  1  1  0  0  0
  5  2  1  0  0  0  0
  6  4  1  0  0  0  0
  6  1  1  1  0  0  0
  7  5  1  0  0  0  0
  8  6  1  1  0  0  0
  9 18  1  6  0  0  0
  9 10  1  0  0  0  0
  9  8  1  0  0  0  0
 10  8  1  0  0  0  0
 11 17  2  0  0  0  0
 11 12  1  0  0  0  0
 12 14  1  0  0  0  0
 13 14  1  0  0  0  0
 14 10  1  0  0  0  0
 15 12  1  0  0  0  0
 16 17  1  0  0  0  0
 17 13  1  0  0  0  0
 19 15  1  0  0  0  0
 19 12  1  0  0  0  0
 19 18  1  0  0  0  0
 21 20  1  0  0  0  0
 22 24  2  0  0  0  0
 22 20  1  0  0  0  0
 23 26  1  0  0  0  0
 23 25  1  0  0  0  0
 23 21  1  0  0  0  0
 25 21  1  0  0  0  0
 26 22  1  0  0  0  0
 27 25  1  0  0  0  0
 28 27  1  0  0  0  0
 29 28  1  0  0  0  0
 30 29  1  0  0  0  0
M  END
>  <MODEL>
5

>  <REMARK>
 VINA RESULT:      -2.1      2.419      5.361
  Name = 
  5 active torsions:
  status: ('A' for Active; 'I' for Inactive)
    1  A    between atoms: N_1  and  C_22
    2  A    between atoms: C_7  and  C_15
    3  A    between atoms: C_15  and  C_16
    4  A    between atoms: C_16  and  C_25
    5  A    between atoms: C_19  and  C_29
                            x       y       z     vdW  Elec       q    Type
                         _______ _______ _______ _____ _____    ______ ____

>  <TORSDO>
F 5

$$$$
=
 OpenBabel11052421453D

 30 36  0  0  1  0  0  0  0  0999 V2000
  160.5790  204.7900  151.0890 C   0  0  0  0  0  0  0  0  0  0  0  0
  160.2480  204.6500  152.3700 C   0  0  0  0  0  3  0  0  0  0  0  0
  159.6440  204.5200  150.0960 O   0  0  0  0  0  1  0  0  0  0  0  0
  162.3310  206.4810  151.6360 C   0  0  2  0  0  3  0  0  0  0  0  0
  161.2760  204.9010  153.4360 C   0  0  0  0  0  2  0  0  0  0  0  0
  161.9690  205.2590  150.7490 C   0  0  2  0  0  3  0  0  0  0  0  0
  162.1540  206.1330  153.1370 C   0  0  0  0  0  2  0  0  0  0  0  0
  162.1140  205.5290  149.3220 N   0  0  2  0  0  0  0  0  0  0  0  0
  160.7810  205.8890  148.8080 C   0  0  2  0  0  3  0  0  0  0  0  0
  161.3150  204.5220  148.6010 C   0  0  1  0  0  3  0  0  0  0  0  0
  160.4110  203.8910  145.3190 N   0  0  0  0  0  0  0  0  0  0  0  0
  161.1230  204.8580  146.1190 C   0  0  1  0  0  0  0  0  0  0  0  0
  161.9560  202.4570  146.9200 S   0  0  0  0  0  0  0  0  0  0  0  0
  161.9580  204.2560  147.2350 C   0  0  2  0  0  3  0  0  0  0  0  0
  161.6510  206.0500  145.3670 C   0  0  0  0  0  2  0  0  0  0  0  0
  160.1260  201.5750  144.9730 N   0  0  0  0  0  1  0  0  0  0  0  0
  160.7350  202.6830  145.6230 C   0  0  0  0  0  0  0  0  0  0  0  0
  160.9410  206.8400  147.6160 C   0  0  0  0  0  2  0  0  0  0  0  0
  160.4570  206.2030  146.3150 C   0  0  2  0  0  3  0  0  0  0  0  0
  162.0300  210.1660  152.5310 S   0  0  0  0  0  0  0  0  0  0  0  0
  162.7060  209.9840  150.8470 C   0  0  1  0  0  3  0  0  0  0  0  0
  161.1830  208.6070  152.4210 C   0  0  0  0  0  0  0  0  0  0  0  0
  162.3780  208.6130  150.2760 C   0  0  2  0  0  3  0  0  0  0  0  0
  159.9580  208.5060  152.9280 C   0  0  0  0  0  2  0  0  0  0  0  0
  161.5990  209.8330  149.8180 C   0  0  2  0  0  3  0  0  0  0  0  0
  161.5520  207.7620  151.2440 C   0  0  1  0  0  3  0  0  0  0  0  0
  162.1170  210.2640  148.4570 C   0  0  0  0  0  2  0  0  0  0  0  0
  161.7780  211.7240  148.1940 C   0  0  0  0  0  2  0  0  0  0  0  0
  163.0260  212.5380  147.8860 C   0  0  0  0  0  2  0  0  0  0  0  0
  162.7060  214.0210  147.8850 C   0  0  0  0  0  1  0  0  0  0  0  0
  1  2  2  0  0  0  0
  2  5  1  0  0  0  0
  3  1  1  0  0  0  0
  4  7  1  1  0  0  0
  6  1  1  6  0  0  0
  6  4  1  0  0  0  0
  7  5  1  0  0  0  0
  8  6  1  1  0  0  0
  9 18  1  6  0  0  0
  9  8  1  0  0  0  0
 10  9  1  0  0  0  0
 10  8  1  0  0  0  0
 11 17  2  0  0  0  0
 11 12  1  0  0  0  0
 12 19  1  0  0  0  0
 12 14  1  0  0  0  0
 13 14  1  0  0  0  0
 14 10  1  0  0  0  0
 15 12  1  0  0  0  0
 15 19  1  0  0  0  0
 16 17  1  0  0  0  0
 17 13  1  0  0  0  0
 19 18  1  0  0  0  0
 21 20  1  0  0  0  0
 22 20  1  0  0  0  0
 22 24  2  0  0  0  0
 23 21  1  0  0  0  0
 23 26  1  0  0  0  0
 25 23  1  0  0  0  0
 25 21  1  0  0  0  0
 26  4  1  0  0  0  0
 26 22  1  0  0  0  0
 27 25  1  0  0  0  0
 28 27  1  0  0  0  0
 29 28  1  0  0  0  0
 30 29  1  0  0  0  0
M  END
>  <MODEL>
6

>  <REMARK>
 VINA RESULT:      -1.8      3.901      5.978
  Name = 
  5 active torsions:
  status: ('A' for Active; 'I' for Inactive)
    1  A    between atoms: N_1  and  C_22
    2  A    between atoms: C_7  and  C_15
    3  A    between atoms: C_15  and  C_16
    4  A    between atoms: C_16  and  C_25
    5  A    between atoms: C_19  and  C_29
                            x       y       z     vdW  Elec       q    Type
                         _______ _______ _______ _____ _____    ______ ____

>  <TORSDO>
F 5

$$$$
=
 OpenBabel11052421453D

 30 36  0  0  1  0  0  0  0  0999 V2000
  162.6820  210.3910  151.5420 C   0  0  0  0  0  0  0  0  0  0  0  0
  162.4840  209.8960  152.7620 C   0  0  0  0  0  3  0  0  0  0  0  0
  163.9270  210.9010  151.1930 O   0  0  0  0  0  1  0  0  0  0  0  0
  160.8770  208.9630  150.5760 C   0  0  2  0  0  3  0  0  0  0  0  0
  161.1250  209.3860  153.1470 C   0  0  0  0  0  2  0  0  0  0  0  0
  161.5410  210.3660  150.5600 C   0  0  2  0  0  3  0  0  0  0  0  0
  160.4490  208.5820  152.0180 C   0  0  0  0  0  2  0  0  0  0  0  0
  161.9680  210.7780  149.2270 N   0  0  2  0  0  0  0  0  0  0  0  0
  162.3750  212.1910  149.3150 C   0  0  2  0  0  3  0  0  0  0  0  0
  161.0430  211.8330  148.7750 C   0  0  1  0  0  3  0  0  0  0  0  0
  160.7730  213.9680  146.0630 N   0  0  0  0  0  0  0  0  0  0  0  0
  161.6500  212.9640  146.6160 C   0  0  1  0  0  0  0  0  0  0  0  0
  159.1800  211.9770  146.7720 S   0  0  0  0  0  0  0  0  0  0  0  0
  160.9330  211.7840  147.2470 C   0  0  2  0  0  3  0  0  0  0  0  0
  162.9210  212.7260  145.8460 C   0  0  0  0  0  2  0  0  0  0  0  0
  158.5080  214.4530  145.6170 N   0  0  0  0  0  1  0  0  0  0  0  0
  159.5410  213.5970  146.0880 C   0  0  0  0  0  0  0  0  0  0  0  0
  163.4530  212.4730  148.2620 C   0  0  0  0  0  2  0  0  0  0  0  0
  162.9610  213.4490  147.1960 C   0  0  2  0  0  3  0  0  0  0  0  0
  161.0800  205.1930  150.1120 S   0  0  0  0  0  0  0  0  0  0  0  0
  160.7990  206.0070  148.5050 C   0  0  1  0  0  3  0  0  0  0  0  0
  161.8830  206.6380  150.7680 C   0  0  0  0  0  0  0  0  0  0  0  0
  161.2050  207.4710  148.5600 C   0  0  2  0  0  3  0  0  0  0  0  0
  162.9570  206.4820  151.5350 C   0  0  0  0  0  2  0  0  0  0  0  0
  162.1050  206.4580  147.8750 C   0  0  2  0  0  3  0  0  0  0  0  0
  161.7640  207.8690  149.9290 C   0  0  1  0  0  3  0  0  0  0  0  0
  161.9230  206.5770  146.3720 C   0  0  0  0  0  2  0  0  0  0  0  0
  160.5020  206.2030  145.9740 C   0  0  0  0  0  2  0  0  0  0  0  0
  160.4910  205.1720  144.8550 C   0  0  0  0  0  2  0  0  0  0  0  0
  161.2740  203.9380  145.2620 C   0  0  0  0  0  1  0  0  0  0  0  0
  1  2  2  0  0  0  0
  2  5  1  0  0  0  0
  3  1  1  0  0  0  0
  4  7  1  1  0  0  0
  6  4  1  0  0  0  0
  6  1  1  1  0  0  0
  7  5  1  0  0  0  0
  8  9  1  0  0  0  0
  8  6  1  1  0  0  0
  9 18  1  6  0  0  0
 10  8  1  0  0  0  0
 10  9  1  0  0  0  0
 11 17  2  0  0  0  0
 11 12  1  0  0  0  0
 12 19  1  0  0  0  0
 12 14  1  0  0  0  0
 13 14  1  0  0  0  0
 14 10  1  0  0  0  0
 15 12  1  0  0  0  0
 15 19  1  0  0  0  0
 16 17  1  0  0  0  0
 17 13  1  0  0  0  0
 19 18  1  0  0  0  0
 20 22  1  0  0  0  0
 21 23  1  0  0  0  0
 21 20  1  0  0  0  0
 22 24  2  0  0  0  0
 23 26  1  0  0  0  0
 25 21  1  0  0  0  0
 25 23  1  0  0  0  0
 26  4  1  0  0  0  0
 26 22  1  0  0  0  0
 27 25  1  0  0  0  0
 28 27  1  0  0  0  0
 29 30  1  0  0  0  0
 29 28  1  0  0  0  0
M  END
>  <MODEL>
7

>  <REMARK>
 VINA RESULT:      -1.8      3.672      6.863
  Name = 
  5 active torsions:
  status: ('A' for Active; 'I' for Inactive)
    1  A    between atoms: N_1  and  C_22
    2  A    between atoms: C_7  and  C_15
    3  A    between atoms: C_15  and  C_16
    4  A    between atoms: C_16  and  C_25
    5  A    between atoms: C_19  and  C_29
                            x       y       z     vdW  Elec       q    Type
                         _______ _______ _______ _____ _____    ______ ____

>  <TORSDO>
F 5

$$$$
=
 OpenBabel11052421453D

 30 36  0  0  1  0  0  0  0  0999 V2000
  158.9280  210.3470  137.8420 C   0  0  0  0  0  0  0  0  0  0  0  0
  158.0700  209.5150  137.2560 C   0  0  0  0  0  3  0  0  0  0  0  0
  159.9040  210.9850  137.0850 O   0  0  0  0  0  1  0  0  0  0  0  0
  157.3140  210.8570  139.6770 C   0  0  2  0  0  3  0  0  0  0  0  0
  157.0470  208.7960  138.0860 C   0  0  0  0  0  2  0  0  0  0  0  0
  158.8020  210.5890  139.3230 C   0  0  2  0  0  3  0  0  0  0  0  0
  156.4180  209.6970  139.1680 C   0  0  0  0  0  2  0  0  0  0  0  0
  159.6950  211.6510  139.7750 N   0  0  2  0  0  0  0  0  0  0  0  0
  160.9520  211.0130  140.2010 C   0  0  2  0  0  3  0  0  0  0  0  0
  159.9500  211.4300  141.2100 C   0  0  1  0  0  3  0  0  0  0  0  0
  161.9480  212.8300  143.6670 N   0  0  0  0  0  0  0  0  0  0  0  0
  161.6730  212.9310  142.2540 C   0  0  1  0  0  0  0  0  0  0  0  0
  159.3080  212.8270  143.4760 S   0  0  0  0  0  0  0  0  0  0  0  0
  160.2070  212.7810  141.8880 C   0  0  2  0  0  3  0  0  0  0  0  0
  162.5200  213.9230  141.5030 C   0  0  0  0  0  2  0  0  0  0  0  0
  160.9140  212.6380  145.7780 N   0  0  0  0  0  1  0  0  0  0  0  0
  160.8670  212.7710  144.3640 C   0  0  0  0  0  0  0  0  0  0  0  0
  162.1120  211.9930  139.9890 C   0  0  0  0  0  2  0  0  0  0  0  0
  162.7430  212.4190  141.3130 C   0  0  2  0  0  3  0  0  0  0  0  0
  155.0780  212.4190  137.0250 S   0  0  0  0  0  0  0  0  0  0  0  0
  154.3710  212.6950  138.6830 C   0  0  1  0  0  3  0  0  0  0  0  0
  156.7270  212.3190  137.6840 C   0  0  0  0  0  0  0  0  0  0  0  0
  155.4350  212.5470  139.7590 C   0  0  2  0  0  3  0  0  0  0  0  0
  157.7220  212.8890  137.0110 C   0  0  0  0  0  2  0  0  0  0  0  0
  154.9630  213.9290  139.3420 C   0  0  2  0  0  3  0  0  0  0  0  0
  156.8150  212.2350  139.1740 C   0  0  1  0  0  3  0  0  0  0  0  0
  153.9940  214.4530  140.3860 C   0  0  0  0  0  2  0  0  0  0  0  0
  153.1070  213.3310  140.9060 C   0  0  0  0  0  2  0  0  0  0  0  0
  152.8160  213.4930  142.3900 C   0  0  0  0  0  2  0  0  0  0  0  0
  152.4630  212.1550  143.0110 C   0  0  0  0  0  1  0  0  0  0  0  0
  2  1  2  0  0  0  0
  2  5  1  0  0  0  0
  3  1  1  0  0  0  0
  4  7  1  6  0  0  0
  5  7  1  0  0  0  0
  6  1  1  6  0  0  0
  6  4  1  0  0  0  0
  8  6  1  6  0  0  0
  8  9  1  0  0  0  0
  8 10  1  0  0  0  0
  9 18  1  1  0  0  0
  9 10  1  0  0  0  0
 10 14  1  0  0  0  0
 11 17  2  0  0  0  0
 12 11  1  0  0  0  0
 13 17  1  0  0  0  0
 14 12  1  0  0  0  0
 14 13  1  0  0  0  0
 15 12  1  0  0  0  0
 17 16  1  0  0  0  0
 18 19  1  0  0  0  0
 19 15  1  0  0  0  0
 19 12  1  0  0  0  0
 20 22  1  0  0  0  0
 20 21  1  0  0  0  0
 21 25  1  0  0  0  0
 21 23  1  0  0  0  0
 22 26  1  0  0  0  0
 24 22  2  0  0  0  0
 25 23  1  0  0  0  0
 25 27  1  0  0  0  0
 26  4  1  0  0  0  0
 26 23  1  0  0  0  0
 27 28  1  0  0  0  0
 28 29  1  0  0  0  0
 29 30  1  0  0  0  0
M  END
>  <MODEL>
8

>  <REMARK>
 VINA RESULT:      -1.7      9.834     13.743
  Name = 
  5 active torsions:
  status: ('A' for Active; 'I' for Inactive)
    1  A    between atoms: N_1  and  C_22
    2  A    between atoms: C_7  and  C_15
    3  A    between atoms: C_15  and  C_16
    4  A    between atoms: C_16  and  C_25
    5  A    between atoms: C_19  and  C_29
                            x       y       z     vdW  Elec       q    Type
                         _______ _______ _______ _____ _____    ______ ____

>  <TORSDO>
F 5

$$$$
=
 OpenBabel11052421453D

 30 36  0  0  1  0  0  0  0  0999 V2000
  161.9420  204.5300  151.8830 C   0  0  0  0  0  0  0  0  0  0  0  0
  162.2200  203.2620  151.5900 C   0  0  0  0  0  3  0  0  0  0  0  0
  162.8660  205.3020  152.5780 O   0  0  0  0  0  1  0  0  0  0  0  0
  160.3800  204.7260  149.9460 C   0  0  2  0  0  3  0  0  0  0  0  0
  161.1990  202.4220  150.8780 C   0  0  0  0  0  2  0  0  0  0  0  0
  160.6240  205.1030  151.4320 C   0  0  2  0  0  3  0  0  0  0  0  0
  160.4760  203.1900  149.7530 C   0  0  0  0  0  2  0  0  0  0  0  0
  160.5490  206.5400  151.6740 N   0  0  2  0  0  0  0  0  0  0  0  0
  161.9300  207.0330  151.8140 C   0  0  2  0  0  3  0  0  0  0  0  0
  161.1020  206.7890  153.0180 C   0  0  1  0  0  3  0  0  0  0  0  0
  161.8520  209.5470  154.9720 N   0  0  0  0  0  0  0  0  0  0  0  0
  161.3740  209.2040  153.6540 C   0  0  1  0  0  0  0  0  0  0  0  0
  160.0160  207.6820  155.3680 S   0  0  0  0  0  0  0  0  0  0  0  0
  160.4200  208.0220  153.6210 C   0  0  2  0  0  3  0  0  0  0  0  0
  161.1320  210.3700  152.7340 C   0  0  0  0  0  2  0  0  0  0  0  0
  161.6060  209.0280  157.2600 N   0  0  0  0  0  1  0  0  0  0  0  0
  161.2610  208.8650  155.8900 C   0  0  0  0  0  0  0  0  0  0  0  0
  161.9950  208.4930  151.3500 C   0  0  0  0  0  2  0  0  0  0  0  0
  162.3260  209.4390  152.5010 C   0  0  2  0  0  3  0  0  0  0  0  0
  160.8630  205.4330  146.2390 S   0  0  0  0  0  0  0  0  0  0  0  0
  160.4140  206.9670  147.1150 C   0  0  1  0  0  3  0  0  0  0  0  0
  161.5830  204.7370  147.7080 C   0  0  0  0  0  0  0  0  0  0  0  0
  160.7010  206.8460  148.6040 C   0  0  2  0  0  3  0  0  0  0  0  0
  162.7140  204.0450  147.6020 C   0  0  0  0  0  2  0  0  0  0  0  0
  161.6360  207.6440  147.7120 C   0  0  2  0  0  3  0  0  0  0  0  0
  161.3110  205.4900  148.9700 C   0  0  1  0  0  3  0  0  0  0  0  0
  161.3500  209.1230  147.8980 C   0  0  0  0  0  2  0  0  0  0  0  0
  162.4790  209.7940  148.6680 C   0  0  0  0  0  2  0  0  0  0  0  0
  162.1600  211.2520  148.9650 C   0  0  0  0  0  2  0  0  0  0  0  0
  162.8610  212.1600  147.9730 C   0  0  0  0  0  1  0  0  0  0  0  0
  1  3  1  0  0  0  0
  2  1  2  0  0  0  0
  4  7  1  1  0  0  0
  4  6  1  0  0  0  0
  5  2  1  0  0  0  0
  6  1  1  6  0  0  0
  7  5  1  0  0  0  0
  8  6  1  1  0  0  0
  8  9  1  0  0  0  0
  8 10  1  0  0  0  0
  9 18  1  6  0  0  0
  9 10  1  0  0  0  0
 10 14  1  0  0  0  0
 11 17  2  0  0  0  0
 12 11  1  0  0  0  0
 13 17  1  0  0  0  0
 14 12  1  0  0  0  0
 14 13  1  0  0  0  0
 15 12  1  0  0  0  0
 17 16  1  0  0  0  0
 18 19  1  0  0  0  0
 19 15  1  0  0  0  0
 19 12  1  0  0  0  0
 20 21  1  0  0  0  0
 20 22  1  0  0  0  0
 21 25  1  0  0  0  0
 21 23  1  0  0  0  0
 22 26  1  0  0  0  0
 23 26  1  0  0  0  0
 24 22  2  0  0  0  0
 25 27  1  0  0  0  0
 25 23  1  0  0  0  0
 26  4  1  0  0  0  0
 27 28  1  0  0  0  0
 28 29  1  0  0  0  0
 30 29  1  0  0  0  0
M  END
>  <MODEL>
9

>  <REMARK>
 VINA RESULT:      -1.5      3.529      7.093
  Name = 
  5 active torsions:
  status: ('A' for Active; 'I' for Inactive)
    1  A    between atoms: N_1  and  C_22
    2  A    between atoms: C_7  and  C_15
    3  A    between atoms: C_15  and  C_16
    4  A    between atoms: C_16  and  C_25
    5  A    between atoms: C_19  and  C_29
                            x       y       z     vdW  Elec       q    Type
                         _______ _______ _______ _____ _____    ______ ____

>  <TORSDO>
F 5

$$$$
