=
 OpenBabel11062410303D

 43 47  0  0  1  0  0  0  0  0999 V2000
  161.3150  208.0400  153.1570 N   0  0  0  0  0  2  0  0  0  0  0  0
  161.6580  204.4130  146.4560 C   0  0  2  0  0  3  0  0  0  0  0  0
  161.7730  207.1630  150.8080 C   0  0  2  0  0  3  0  0  0  0  0  0
  161.8240  208.8940  149.0180 C   0  0  0  0  0  3  0  0  0  0  0  0
  161.0450  205.1010  148.8510 C   0  0  1  0  0  3  0  0  0  0  0  0
  160.7810  205.6110  146.1100 C   0  0  0  0  0  2  0  0  0  0  0  0
  161.3800  203.3580  145.5890 O   0  0  0  0  0  1  0  0  0  0  0  0
  161.6360  206.4490  148.3920 C   0  0  1  0  0  3  0  0  0  0  0  0
  161.4400  203.9590  147.9050 C   0  0  0  0  0  2  0  0  0  0  0  0
  161.1230  206.8210  146.9880 C   0  0  0  0  0  2  0  0  0  0  0  0
  161.9370  209.8460  149.9550 C   0  0  0  0  0  0  0  0  0  0  0  0
  161.2890  207.5460  149.4030 C   0  0  1  0  0  3  0  0  0  0  0  0
  161.0910  205.8710  151.2440 C   0  0  0  0  0  2  0  0  0  0  0  0
  161.5320  208.3090  151.7630 C   0  0  0  0  0  0  0  0  0  0  0  0
  161.6680  209.5330  151.3330 N   0  0  0  0  0  0  0  0  0  0  0  0
  161.4690  204.7510  150.2770 C   0  0  0  0  0  2  0  0  0  0  0  0
  159.8340  209.6740  156.1990 C   0  0  0  0  0  3  0  0  0  0  0  0
  160.5160  210.8940  156.2000 C   0  0  0  0  0  0  0  0  0  0  0  0
  161.7060  210.2100  154.1950 C   0  0  0  0  0  3  0  0  0  0  0  0
  160.0850  208.7270  155.2020 C   0  0  0  0  0  3  0  0  0  0  0  0
  161.0210  208.9910  154.1900 C   0  0  0  0  0  0  0  0  0  0  0  0
  161.4570  211.1580  155.1910 C   0  0  0  0  0  3  0  0  0  0  0  0
  160.4210  213.2220  157.0330 C   0  0  0  0  0  1  0  0  0  0  0  0
  160.2440  211.8220  157.2090 O   0  0  0  0  0  0  0  0  0  0  0  0
  162.3300  211.2450  149.5860 C   0  0  1  0  0  3  0  0  0  0  0  0
  163.1600  211.2480  148.3140 C   0  0  0  0  0  1  0  0  0  0  0  0
  161.1460  212.0730  149.4040 N   0  0  0  0  0  2  0  0  0  0  0  0
  161.1980  213.3450  148.7550 C   0  0  0  0  0  0  0  0  0  0  0  0
  162.2090  213.6810  148.0830 O   0  0  0  0  0  0  0  0  0  0  0  0
  160.0690  214.3040  148.9180 C   0  0  0  0  0  2  0  0  0  0  0  0
  158.8060  213.6620  148.5520 N   0  0  0  0  0  0  0  0  0  0  0  0
  157.4210  212.5240  146.7100 C   0  0  0  0  0  1  0  0  0  0  0  0
  158.7010  213.0840  147.2320 C   0  0  0  0  0  0  0  0  0  0  0  0
  157.7500  213.5790  149.5380 C   0  0  0  0  0  0  0  0  0  0  0  0
  156.7400  212.8520  149.3460 O   0  0  0  0  0  0  0  0  0  0  0  0
  159.7060  213.0610  146.4730 O   0  0  0  0  0  0  0  0  0  0  0  0
  157.8240  214.3600  150.8140 C   0  0  0  0  0  2  0  0  0  0  0  0
  157.7170  213.4550  151.9930 C   0  0  0  0  0  0  0  0  0  0  0  0
  156.6890  212.8700  154.1090 C   0  0  0  0  0  3  0  0  0  0  0  0
  158.4750  211.5000  153.2120 C   0  0  0  0  0  3  0  0  0  0  0  0
  157.5350  211.7610  154.2130 C   0  0  0  0  0  3  0  0  0  0  0  0
  158.5670  212.3480  152.1020 C   0  0  0  0  0  3  0  0  0  0  0  0
  156.7800  213.7170  152.9990 C   0  0  0  0  0  3  0  0  0  0  0  0
  1 21  1  0  0  0  0
  2  7  1  6  0  0  0
  2  9  1  0  0  0  0
  3 13  1  1  0  0  0
  3 14  1  0  0  0  0
  4 11  2  0  0  0  0
  5  9  1  6  0  0  0
  5 16  1  0  0  0  0
  6  2  1  0  0  0  0
  6 10  1  0  0  0  0
  8 10  1  6  0  0  0
  8  5  1  0  0  0  0
  8 12  1  0  0  0  0
 11 15  1  0  0  0  0
 12  4  1  6  0  0  0
 12  3  1  0  0  0  0
 14  1  1  0  0  0  0
 15 14  2  0  0  0  0
 16 13  1  0  0  0  0
 17 18  1  0  0  0  0
 18 24  1  0  0  0  0
 19 22  1  0  0  0  0
 20 17  2  0  0  0  0
 21 19  2  0  0  0  0
 21 20  1  0  0  0  0
 22 18  2  0  0  0  0
 23 24  1  0  0  0  0
 25 26  1  6  0  0  0
 25 11  1  0  0  0  0
 27 25  1  0  0  0  0
 28 30  1  0  0  0  0
 28 27  1  0  0  0  0
 29 28  2  0  0  0  0
 31 30  1  0  0  0  0
 31 34  1  0  0  0  0
 32 33  1  0  0  0  0
 33 31  1  0  0  0  0
 34 37  1  0  0  0  0
 35 34  2  0  0  0  0
 36 33  2  0  0  0  0
 37 38  1  0  0  0  0
 38 42  2  0  0  0  0
 38 43  1  0  0  0  0
 39 41  1  0  0  0  0
 40 41  2  0  0  0  0
 42 40  1  0  0  0  0
 43 39  2  0  0  0  0
M  END
>  <MODEL>
1

>  <REMARK>
 VINA RESULT:      -8.9      0.000      0.000
  Name = 
  8 active torsions:
  status: ('A' for Active; 'I' for Inactive)
    1  A    between atoms: N_1  and  C_35
    2  A    between atoms: C_2  and  N_6
    3  A    between atoms: C_2  and  C_27
    4  A    between atoms: C_3  and  N_4
    5  A    between atoms: C_3  and  C_12
    6  A    between atoms: C_11  and  C_14
    7  A    between atoms: C_14  and  C_22
    8  A    between atoms: C_19  and  O_37
                            x       y       z     vdW  Elec       q    Type
                         _______ _______ _______ _____ _____    ______ ____

>  <TORSDO>
F 8

$$$$
=
 OpenBabel11062410303D

 43 47  0  0  1  0  0  0  0  0999 V2000
  160.6270  204.9870  151.0330 N   0  0  0  0  0  2  0  0  0  0  0  0
  161.5150  210.7150  155.9910 C   0  0  2  0  0  3  0  0  0  0  0  0
  160.7670  207.1830  152.3190 C   0  0  2  0  0  3  0  0  0  0  0  0
  161.9030  209.0470  151.1180 C   0  0  0  0  0  3  0  0  0  0  0  0
  161.4350  208.3900  154.9090 C   0  0  1  0  0  3  0  0  0  0  0  0
  162.7920  210.8260  155.1650 C   0  0  0  0  0  2  0  0  0  0  0  0
  161.7270  211.2490  157.2600 O   0  0  0  0  0  1  0  0  0  0  0  0
  161.5060  209.2200  153.6120 C   0  0  1  0  0  3  0  0  0  0  0  0
  161.0540  209.2580  156.1160 C   0  0  0  0  0  2  0  0  0  0  0  0
  162.5700  210.3290  153.7310 C   0  0  0  0  0  2  0  0  0  0  0  0
  161.7790  208.3700  149.9680 C   0  0  0  0  0  0  0  0  0  0  0  0
  161.8080  208.3060  152.4200 C   0  0  1  0  0  3  0  0  0  0  0  0
  160.8020  206.3440  153.5910 C   0  0  0  0  0  2  0  0  0  0  0  0
  161.0100  206.3710  151.0680 C   0  0  0  0  0  0  0  0  0  0  0  0
  161.4320  206.9730  149.9910 N   0  0  0  0  0  0  0  0  0  0  0  0
  160.4500  207.2280  154.7860 C   0  0  0  0  0  2  0  0  0  0  0  0
  160.7780  201.8090  149.0360 C   0  0  0  0  0  3  0  0  0  0  0  0
  161.2160  202.2950  147.8000 C   0  0  0  0  0  0  0  0  0  0  0  0
  161.2620  204.5430  148.7220 C   0  0  0  0  0  3  0  0  0  0  0  0
  160.5820  202.6830  150.1080 C   0  0  0  0  0  3  0  0  0  0  0  0
  160.8270  204.0570  149.9590 C   0  0  0  0  0  0  0  0  0  0  0  0
  161.4580  203.6700  147.6480 C   0  0  0  0  0  3  0  0  0  0  0  0
  160.5610  201.3720  145.6010 C   0  0  0  0  0  1  0  0  0  0  0  0
  161.4030  201.3970  146.7460 O   0  0  0  0  0  0  0  0  0  0  0  0
  162.0090  209.0450  148.6500 C   0  0  1  0  0  3  0  0  0  0  0  0
  161.3590  208.2570  147.5260 C   0  0  0  0  0  1  0  0  0  0  0  0
  161.4770  210.4000  148.6740 N   0  0  0  0  0  2  0  0  0  0  0  0
  162.2590  211.5340  148.2920 C   0  0  0  0  0  0  0  0  0  0  0  0
  163.3440  211.3830  147.6710 O   0  0  0  0  0  0  0  0  0  0  0  0
  161.8140  212.9020  148.6780 C   0  0  0  0  0  2  0  0  0  0  0  0
  160.3890  213.0690  148.3870 N   0  0  0  0  0  0  0  0  0  0  0  0
  158.5470  213.1200  146.5940 C   0  0  0  0  0  1  0  0  0  0  0  0
  159.9480  212.8500  147.0280 C   0  0  0  0  0  0  0  0  0  0  0  0
  159.4830  213.3820  149.4710 C   0  0  0  0  0  0  0  0  0  0  0  0
  158.2360  213.3200  149.3120 O   0  0  0  0  0  0  0  0  0  0  0  0
  160.7640  212.4370  146.1610 O   0  0  0  0  0  0  0  0  0  0  0  0
  160.0020  213.7960  150.8140 C   0  0  0  0  0  2  0  0  0  0  0  0
  159.2410  213.1230  151.9030 C   0  0  0  0  0  0  0  0  0  0  0  0
  158.7530  211.1450  153.2160 C   0  0  0  0  0  3  0  0  0  0  0  0
  157.5530  213.2050  153.6430 C   0  0  0  0  0  3  0  0  0  0  0  0
  157.7930  211.8610  153.9390 C   0  0  0  0  0  3  0  0  0  0  0  0
  158.2750  213.8360  152.6240 C   0  0  0  0  0  3  0  0  0  0  0  0
  159.4770  211.7750  152.1990 C   0  0  0  0  0  3  0  0  0  0  0  0
  1 14  1  0  0  0  0
  2  9  1  0  0  0  0
  2  7  1  1  0  0  0
  3 12  1  0  0  0  0
  3 13  1  1  0  0  0
  5 16  1  6  0  0  0
  5  9  1  0  0  0  0
  6  2  1  0  0  0  0
  8 10  1  1  0  0  0
  8  5  1  0  0  0  0
 10  6  1  0  0  0  0
 11 15  1  0  0  0  0
 11  4  2  0  0  0  0
 12  4  1  6  0  0  0
 12  8  1  0  0  0  0
 13 16  1  0  0  0  0
 14  3  1  0  0  0  0
 15 14  2  0  0  0  0
 17 20  1  0  0  0  0
 18 17  2  0  0  0  0
 19 21  1  0  0  0  0
 21 20  2  0  0  0  0
 21  1  1  0  0  0  0
 22 18  1  0  0  0  0
 22 19  2  0  0  0  0
 23 24  1  0  0  0  0
 24 18  1  0  0  0  0
 25 26  1  6  0  0  0
 25 27  1  0  0  0  0
 25 11  1  0  0  0  0
 28 27  1  0  0  0  0
 28 30  1  0  0  0  0
 29 28  2  0  0  0  0
 31 30  1  0  0  0  0
 31 34  1  0  0  0  0
 32 33  1  0  0  0  0
 33 31  1  0  0  0  0
 34 37  1  0  0  0  0
 35 34  2  0  0  0  0
 36 33  2  0  0  0  0
 37 38  1  0  0  0  0
 38 43  2  0  0  0  0
 38 42  1  0  0  0  0
 39 41  2  0  0  0  0
 40 41  1  0  0  0  0
 42 40  2  0  0  0  0
 43 39  1  0  0  0  0
M  END
>  <MODEL>
2

>  <REMARK>
 VINA RESULT:      -8.6      1.606      6.606
  Name = 
  8 active torsions:
  status: ('A' for Active; 'I' for Inactive)
    1  A    between atoms: N_1  and  C_35
    2  A    between atoms: C_2  and  N_6
    3  A    between atoms: C_2  and  C_27
    4  A    between atoms: C_3  and  N_4
    5  A    between atoms: C_3  and  C_12
    6  A    between atoms: C_11  and  C_14
    7  A    between atoms: C_14  and  C_22
    8  A    between atoms: C_19  and  O_37
                            x       y       z     vdW  Elec       q    Type
                         _______ _______ _______ _____ _____    ______ ____

>  <TORSDO>
F 8

$$$$
=
 OpenBabel11062410303D

 43 47  0  0  1  0  0  0  0  0999 V2000
  159.4370  213.7110  150.1130 N   0  0  0  0  0  2  0  0  0  0  0  0
  155.3730  212.8500  156.5100 C   0  0  2  0  0  3  0  0  0  0  0  0
  158.5190  213.3860  152.4680 C   0  0  2  0  0  3  0  0  0  0  0  0
  159.5300  211.5070  153.7540 C   0  0  0  0  0  3  0  0  0  0  0  0
  156.0640  213.2120  154.0650 C   0  0  1  0  0  3  0  0  0  0  0  0
  155.7300  211.4050  156.1780 C   0  0  0  0  0  2  0  0  0  0  0  0
  154.2000  212.8870  157.2610 O   0  0  0  0  0  1  0  0  0  0  0  0
  157.3680  212.5530  154.5540 C   0  0  1  0  0  3  0  0  0  0  0  0
  155.1970  213.6900  155.2380 C   0  0  0  0  0  2  0  0  0  0  0  0
  157.0650  211.3210  155.4270 C   0  0  0  0  0  2  0  0  0  0  0  0
  160.5410  211.4620  152.8750 C   0  0  0  0  0  0  0  0  0  0  0  0
  158.2410  212.1660  153.3560 C   0  0  1  0  0  3  0  0  0  0  0  0
  157.2000  213.9430  151.9440 C   0  0  0  0  0  2  0  0  0  0  0  0
  159.4810  213.0090  151.3650 C   0  0  0  0  0  0  0  0  0  0  0  0
  160.4300  212.1500  151.6160 N   0  0  0  0  0  0  0  0  0  0  0  0
  156.3370  214.3850  153.1240 C   0  0  0  0  0  2  0  0  0  0  0  0
  160.4690  212.7850  146.6200 C   0  0  0  0  0  3  0  0  0  0  0  0
  161.8490  213.0000  146.6880 C   0  0  0  0  0  0  0  0  0  0  0  0
  161.6110  213.6730  149.0110 C   0  0  0  0  0  3  0  0  0  0  0  0
  159.6640  213.0130  147.7400 C   0  0  0  0  0  3  0  0  0  0  0  0
  160.2320  213.4550  148.9450 C   0  0  0  0  0  0  0  0  0  0  0  0
  162.4180  213.4470  147.8920 C   0  0  0  0  0  3  0  0  0  0  0  0
  162.1780  213.0610  144.2370 C   0  0  0  0  0  1  0  0  0  0  0  0
  162.6280  212.7640  145.5520 O   0  0  0  0  0  0  0  0  0  0  0  0
  161.7890  210.6910  153.1790 C   0  0  1  0  0  3  0  0  0  0  0  0
  161.5550  209.7290  154.3300 C   0  0  0  0  0  1  0  0  0  0  0  0
  162.2300  209.9540  152.0030 N   0  0  0  0  0  2  0  0  0  0  0  0
  161.6440  208.7080  151.6190 C   0  0  0  0  0  0  0  0  0  0  0  0
  160.5550  208.3300  152.1240 O   0  0  0  0  0  0  0  0  0  0  0  0
  162.3550  207.8240  150.6520 C   0  0  0  0  0  2  0  0  0  0  0  0
  161.7130  206.5100  150.6070 N   0  0  0  0  0  0  0  0  0  0  0  0
  161.2950  204.2730  151.8030 C   0  0  0  0  0  1  0  0  0  0  0  0
  161.7960  205.6780  151.7850 C   0  0  0  0  0  0  0  0  0  0  0  0
  160.9790  206.1280  149.4190 C   0  0  0  0  0  0  0  0  0  0  0  0
  160.2360  205.1120  149.4160 O   0  0  0  0  0  0  0  0  0  0  0  0
  162.3250  206.1270  152.8370 O   0  0  0  0  0  0  0  0  0  0  0  0
  161.0860  206.9270  148.1570 C   0  0  0  0  0  2  0  0  0  0  0  0
  161.1960  206.0280  146.9730 C   0  0  0  0  0  0  0  0  0  0  0  0
  162.1770  204.1000  145.8800 C   0  0  0  0  0  3  0  0  0  0  0  0
  160.5400  205.4500  144.7110 C   0  0  0  0  0  3  0  0  0  0  0  0
  161.4110  204.3570  144.7390 C   0  0  0  0  0  3  0  0  0  0  0  0
  160.4340  206.2870  145.8270 C   0  0  0  0  0  3  0  0  0  0  0  0
  162.0700  204.9350  146.9970 C   0  0  0  0  0  3  0  0  0  0  0  0
  1 14  1  0  0  0  0
  2  7  1  6  0  0  0
  3 13  1  6  0  0  0
  3 12  1  0  0  0  0
  5 16  1  6  0  0  0
  5  8  1  0  0  0  0
  5  9  1  0  0  0  0
  6  2  1  0  0  0  0
  8 10  1  6  0  0  0
  9  2  1  0  0  0  0
 10  6  1  0  0  0  0
 11 25  1  0  0  0  0
 11  4  2  0  0  0  0
 12  4  1  1  0  0  0
 12  8  1  0  0  0  0
 13 16  1  0  0  0  0
 14 15  2  0  0  0  0
 14  3  1  0  0  0  0
 15 11  1  0  0  0  0
 17 18  2  0  0  0  0
 17 20  1  0  0  0  0
 18 22  1  0  0  0  0
 20 21  2  0  0  0  0
 21 19  1  0  0  0  0
 21  1  1  0  0  0  0
 22 19  2  0  0  0  0
 23 24  1  0  0  0  0
 24 18  1  0  0  0  0
 25 26  1  1  0  0  0
 27 25  1  0  0  0  0
 28 27  1  0  0  0  0
 28 29  2  0  0  0  0
 30 28  1  0  0  0  0
 31 30  1  0  0  0  0
 31 33  1  0  0  0  0
 33 32  1  0  0  0  0
 33 36  2  0  0  0  0
 34 31  1  0  0  0  0
 35 34  2  0  0  0  0
 37 34  1  0  0  0  0
 38 43  1  0  0  0  0
 38 37  1  0  0  0  0
 39 43  2  0  0  0  0
 40 41  2  0  0  0  0
 40 42  1  0  0  0  0
 41 39  1  0  0  0  0
 42 38  2  0  0  0  0
M  END
>  <MODEL>
3

>  <REMARK>
 VINA RESULT:      -8.5      2.450      9.450
  Name = 
  8 active torsions:
  status: ('A' for Active; 'I' for Inactive)
    1  A    between atoms: N_1  and  C_35
    2  A    between atoms: C_2  and  N_6
    3  A    between atoms: C_2  and  C_27
    4  A    between atoms: C_3  and  N_4
    5  A    between atoms: C_3  and  C_12
    6  A    between atoms: C_11  and  C_14
    7  A    between atoms: C_14  and  C_22
    8  A    between atoms: C_19  and  O_37
                            x       y       z     vdW  Elec       q    Type
                         _______ _______ _______ _____ _____    ______ ____

>  <TORSDO>
F 8

$$$$
=
 OpenBabel11062410303D

 43 47  0  0  1  0  0  0  0  0999 V2000
  161.1240  205.9930  153.8030 N   0  0  0  0  0  2  0  0  0  0  0  0
  161.4230  201.1120  147.9500 C   0  0  2  0  0  3  0  0  0  0  0  0
  161.5650  204.6690  151.6710 C   0  0  2  0  0  3  0  0  0  0  0  0
  161.5950  206.0120  149.5730 C   0  0  0  0  0  3  0  0  0  0  0  0
  160.8280  202.2600  150.1670 C   0  0  1  0  0  3  0  0  0  0  0  0
  160.5380  202.2160  147.3820 C   0  0  0  0  0  2  0  0  0  0  0  0
  161.1410  199.9060  147.3120 O   0  0  0  0  0  1  0  0  0  0  0  0
  161.4100  203.4910  149.4450 C   0  0  1  0  0  3  0  0  0  0  0  0
  161.2190  200.9540  149.4620 C   0  0  0  0  0  2  0  0  0  0  0  0
  160.8840  203.5770  147.9990 C   0  0  0  0  0  2  0  0  0  0  0  0
  161.7130  207.1310  150.3020 C   0  0  0  0  0  0  0  0  0  0  0  0
  161.0680  204.7660  150.2220 C   0  0  1  0  0  3  0  0  0  0  0  0
  160.8910  203.4880  152.3600 C   0  0  0  0  0  2  0  0  0  0  0  0
  161.3280  205.9820  152.3820 C   0  0  0  0  0  0  0  0  0  0  0  0
  161.4570  207.0970  151.7170 N   0  0  0  0  0  0  0  0  0  0  0  0
  161.2650  202.2000  151.6300 C   0  0  0  0  0  2  0  0  0  0  0  0
  161.0180  209.4960  155.1590 C   0  0  0  0  0  3  0  0  0  0  0  0
  160.2060  209.3190  156.2830 C   0  0  0  0  0  0  0  0  0  0  0  0
  160.0200  206.9540  155.7530 C   0  0  0  0  0  3  0  0  0  0  0  0
  161.3300  208.4100  154.3360 C   0  0  0  0  0  3  0  0  0  0  0  0
  160.8350  207.1300  154.6300 C   0  0  0  0  0  0  0  0  0  0  0  0
  159.7060  208.0390  156.5760 C   0  0  0  0  0  3  0  0  0  0  0  0
  160.7360  211.5790  157.1350 C   0  0  0  0  0  1  0  0  0  0  0  0
  159.9110  210.4220  157.0870 O   0  0  0  0  0  0  0  0  0  0  0  0
  162.0980  208.4290  149.6590 C   0  0  1  0  0  3  0  0  0  0  0  0
  161.5820  208.4930  148.2330 C   0  0  0  0  0  1  0  0  0  0  0  0
  161.5700  209.5500  150.4250 N   0  0  0  0  0  2  0  0  0  0  0  0
  161.8120  210.9090  150.0530 C   0  0  0  0  0  0  0  0  0  0  0  0
  162.2630  211.1900  148.9120 O   0  0  0  0  0  0  0  0  0  0  0  0
  161.5800  211.9990  151.0430 C   0  0  0  0  0  2  0  0  0  0  0  0
  160.2910  212.6430  150.7900 N   0  0  0  0  0  0  0  0  0  0  0  0
  159.0040  214.4530  149.4950 C   0  0  0  0  0  1  0  0  0  0  0  0
  160.2300  213.6410  149.7470 C   0  0  0  0  0  0  0  0  0  0  0  0
  159.1320  212.2140  151.5430 C   0  0  0  0  0  0  0  0  0  0  0  0
  157.9730  212.5780  151.2120 O   0  0  0  0  0  0  0  0  0  0  0  0
  161.2410  213.8650  149.0300 O   0  0  0  0  0  0  0  0  0  0  0  0
  159.2760  211.3280  152.7420 C   0  0  0  0  0  2  0  0  0  0  0  0
  158.5400  211.8950  153.9070 C   0  0  0  0  0  0  0  0  0  0  0  0
  158.1740  213.6920  155.4920 C   0  0  0  0  0  3  0  0  0  0  0  0
  156.8440  211.6710  155.6260 C   0  0  0  0  0  3  0  0  0  0  0  0
  157.1650  212.9440  156.1070 C   0  0  0  0  0  3  0  0  0  0  0  0
  157.5330  211.1450  154.5270 C   0  0  0  0  0  3  0  0  0  0  0  0
  158.8620  213.1670  154.3920 C   0  0  0  0  0  3  0  0  0  0  0  0
  1 21  1  0  0  0  0
  2  7  1  6  0  0  0
  2  9  1  0  0  0  0
  3 13  1  1  0  0  0
  3 14  1  0  0  0  0
  4 11  2  0  0  0  0
  5  9  1  6  0  0  0
  5 16  1  0  0  0  0
  6  2  1  0  0  0  0
  6 10  1  0  0  0  0
  8 10  1  6  0  0  0
  8  5  1  0  0  0  0
  8 12  1  0  0  0  0
 11 15  1  0  0  0  0
 12  4  1  6  0  0  0
 12  3  1  0  0  0  0
 14  1  1  0  0  0  0
 15 14  2  0  0  0  0
 16 13  1  0  0  0  0
 17 18  1  0  0  0  0
 18 22  2  0  0  0  0
 18 24  1  0  0  0  0
 19 22  1  0  0  0  0
 20 21  1  0  0  0  0
 20 17  2  0  0  0  0
 21 19  2  0  0  0  0
 24 23  1  0  0  0  0
 25 26  1  6  0  0  0
 25 11  1  0  0  0  0
 25 27  1  0  0  0  0
 28 27  1  0  0  0  0
 28 30  1  0  0  0  0
 29 28  2  0  0  0  0
 31 30  1  0  0  0  0
 31 34  1  0  0  0  0
 32 33  1  0  0  0  0
 33 31  1  0  0  0  0
 34 37  1  0  0  0  0
 35 34  2  0  0  0  0
 36 33  2  0  0  0  0
 37 38  1  0  0  0  0
 38 43  2  0  0  0  0
 38 42  1  0  0  0  0
 39 41  2  0  0  0  0
 40 41  1  0  0  0  0
 42 40  2  0  0  0  0
 43 39  1  0  0  0  0
M  END
>  <MODEL>
4

>  <REMARK>
 VINA RESULT:      -8.5      1.798      2.877
  Name = 
  8 active torsions:
  status: ('A' for Active; 'I' for Inactive)
    1  A    between atoms: N_1  and  C_35
    2  A    between atoms: C_2  and  N_6
    3  A    between atoms: C_2  and  C_27
    4  A    between atoms: C_3  and  N_4
    5  A    between atoms: C_3  and  C_12
    6  A    between atoms: C_11  and  C_14
    7  A    between atoms: C_14  and  C_22
    8  A    between atoms: C_19  and  O_37
                            x       y       z     vdW  Elec       q    Type
                         _______ _______ _______ _____ _____    ______ ____

>  <TORSDO>
F 8

$$$$
=
 OpenBabel11062410303D

 43 47  0  0  1  0  0  0  0  0999 V2000
  161.1730  208.6520  152.7740 N   0  0  0  0  0  2  0  0  0  0  0  0
  161.8360  204.3900  146.4840 C   0  0  2  0  0  3  0  0  0  0  0  0
  161.7490  207.5470  150.5520 C   0  0  2  0  0  3  0  0  0  0  0  0
  161.9350  209.0960  148.6100 C   0  0  0  0  0  3  0  0  0  0  0  0
  161.0990  205.3150  148.7610 C   0  0  1  0  0  3  0  0  0  0  0  0
  161.0010  205.5590  145.9730 C   0  0  0  0  0  2  0  0  0  0  0  0
  161.5890  203.2600  145.7070 O   0  0  0  0  0  1  0  0  0  0  0  0
  161.7390  206.6040  148.2110 C   0  0  1  0  0  3  0  0  0  0  0  0
  161.5270  204.0810  147.9540 C   0  0  0  0  0  2  0  0  0  0  0  0
  161.3140  206.8450  146.7500 C   0  0  0  0  0  2  0  0  0  0  0  0
  162.0110  210.1330  149.4560 C   0  0  0  0  0  0  0  0  0  0  0  0
  161.3540  207.7980  149.0910 C   0  0  1  0  0  3  0  0  0  0  0  0
  161.0200  206.3110  151.0680 C   0  0  0  0  0  2  0  0  0  0  0  0
  161.4750  208.7830  151.3760 C   0  0  0  0  0  0  0  0  0  0  0  0
  161.6570  209.9580  150.8400 N   0  0  0  0  0  0  0  0  0  0  0  0
  161.4330  205.0990  150.2370 C   0  0  0  0  0  2  0  0  0  0  0  0
  159.2740  211.3130  154.6260 C   0  0  0  0  0  3  0  0  0  0  0  0
  160.2420  211.7400  155.5400 C   0  0  0  0  0  0  0  0  0  0  0  0
  161.8040  210.1270  154.6100 C   0  0  0  0  0  3  0  0  0  0  0  0
  159.5670  210.3000  153.7090 C   0  0  0  0  0  3  0  0  0  0  0  0
  160.8370  209.7030  153.6920 C   0  0  0  0  0  0  0  0  0  0  0  0
  161.5120  211.1400  155.5280 C   0  0  0  0  0  3  0  0  0  0  0  0
  159.6810  214.0960  156.0400 C   0  0  0  0  0  1  0  0  0  0  0  0
  159.9200  212.7540  156.4450 O   0  0  0  0  0  0  0  0  0  0  0  0
  162.4490  211.4840  148.9790 C   0  0  1  0  0  3  0  0  0  0  0  0
  163.5560  211.3520  147.9480 C   0  0  0  0  0  1  0  0  0  0  0  0
  161.3240  212.2090  148.4040 N   0  0  0  0  0  2  0  0  0  0  0  0
  161.3830  213.6090  148.1210 C   0  0  0  0  0  0  0  0  0  0  0  0
  162.4870  214.2130  148.1080 O   0  0  0  0  0  0  0  0  0  0  0  0
  160.1230  214.3700  147.8910 C   0  0  0  0  0  2  0  0  0  0  0  0
  159.2800  213.6670  146.9240 N   0  0  0  0  0  0  0  0  0  0  0  0
  157.1750  212.2430  146.5320 C   0  0  0  0  0  1  0  0  0  0  0  0
  158.0420  213.0920  147.4000 C   0  0  0  0  0  0  0  0  0  0  0  0
  159.6860  213.6290  145.5350 C   0  0  0  0  0  0  0  0  0  0  0  0
  158.8960  213.2310  144.6390 O   0  0  0  0  0  0  0  0  0  0  0  0
  157.6750  213.2850  148.5900 O   0  0  0  0  0  0  0  0  0  0  0  0
  161.0610  214.0570  145.1230 C   0  0  0  0  0  2  0  0  0  0  0  0
  161.3140  213.7120  143.6960 C   0  0  0  0  0  0  0  0  0  0  0  0
  162.4180  212.3430  142.0270 C   0  0  0  0  0  3  0  0  0  0  0  0
  160.9430  214.1360  141.3370 C   0  0  0  0  0  3  0  0  0  0  0  0
  161.8000  213.0810  141.0130 C   0  0  0  0  0  3  0  0  0  0  0  0
  160.7010  214.4530  142.6790 C   0  0  0  0  0  3  0  0  0  0  0  0
  162.1760  212.6580  143.3680 C   0  0  0  0  0  3  0  0  0  0  0  0
  1 21  1  0  0  0  0
  2  7  1  6  0  0  0
  2  9  1  0  0  0  0
  3 13  1  1  0  0  0
  3 14  1  0  0  0  0
  4 11  2  0  0  0  0
  5  9  1  6  0  0  0
  5 16  1  0  0  0  0
  6  2  1  0  0  0  0
  6 10  1  0  0  0  0
  8 10  1  6  0  0  0
  8  5  1  0  0  0  0
  8 12  1  0  0  0  0
 11 15  1  0  0  0  0
 12  4  1  6  0  0  0
 12  3  1  0  0  0  0
 14  1  1  0  0  0  0
 15 14  2  0  0  0  0
 16 13  1  0  0  0  0
 17 18  1  0  0  0  0
 18 24  1  0  0  0  0
 19 22  1  0  0  0  0
 20 17  2  0  0  0  0
 21 20  1  0  0  0  0
 21 19  2  0  0  0  0
 22 18  2  0  0  0  0
 23 24  1  0  0  0  0
 25 26  1  6  0  0  0
 25 11  1  0  0  0  0
 27 25  1  0  0  0  0
 28 27  1  0  0  0  0
 29 28  2  0  0  0  0
 30 28  1  0  0  0  0
 31 33  1  0  0  0  0
 31 30  1  0  0  0  0
 32 33  1  0  0  0  0
 33 36  2  0  0  0  0
 34 31  1  0  0  0  0
 35 34  2  0  0  0  0
 37 34  1  0  0  0  0
 38 37  1  0  0  0  0
 39 43  2  0  0  0  0
 40 42  1  0  0  0  0
 41 40  2  0  0  0  0
 41 39  1  0  0  0  0
 42 38  2  0  0  0  0
 43 38  1  0  0  0  0
M  END
>  <MODEL>
5

>  <REMARK>
 VINA RESULT:      -8.3      2.396      4.713
  Name = 
  8 active torsions:
  status: ('A' for Active; 'I' for Inactive)
    1  A    between atoms: N_1  and  C_35
    2  A    between atoms: C_2  and  N_6
    3  A    between atoms: C_2  and  C_27
    4  A    between atoms: C_3  and  N_4
    5  A    between atoms: C_3  and  C_12
    6  A    between atoms: C_11  and  C_14
    7  A    between atoms: C_14  and  C_22
    8  A    between atoms: C_19  and  O_37
                            x       y       z     vdW  Elec       q    Type
                         _______ _______ _______ _____ _____    ______ ____

>  <TORSDO>
F 8

$$$$
=
 OpenBabel11062410303D

 43 47  0  0  1  0  0  0  0  0999 V2000
  161.0320  206.2670  153.6960 N   0  0  0  0  0  2  0  0  0  0  0  0
  161.4770  201.0720  148.1280 C   0  0  2  0  0  3  0  0  0  0  0  0
  161.5270  204.8280  151.6520 C   0  0  2  0  0  3  0  0  0  0  0  0
  161.6190  206.0540  149.4850 C   0  0  0  0  0  3  0  0  0  0  0  0
  160.8250  202.3410  150.2620 C   0  0  1  0  0  3  0  0  0  0  0  0
  160.6110  202.1450  147.4760 C   0  0  0  0  0  2  0  0  0  0  0  0
  161.2090  199.8330  147.5490 O   0  0  0  0  0  1  0  0  0  0  0  0
  161.4300  203.5300  149.4900 C   0  0  1  0  0  3  0  0  0  0  0  0
  161.2310  200.9970  149.6410 C   0  0  0  0  0  2  0  0  0  0  0  0
  160.9440  203.5370  148.0280 C   0  0  0  0  0  2  0  0  0  0  0  0
  161.7200  207.2110  150.1550 C   0  0  0  0  0  0  0  0  0  0  0  0
  161.0700  204.8450  150.1870 C   0  0  1  0  0  3  0  0  0  0  0  0
  160.8310  203.6860  152.3850 C   0  0  0  0  0  2  0  0  0  0  0  0
  161.2750  206.1770  152.2830 C   0  0  0  0  0  0  0  0  0  0  0  0
  161.4250  207.2540  151.5620 N   0  0  0  0  0  0  0  0  0  0  0  0
  161.2210  202.3600  151.7380 C   0  0  0  0  0  2  0  0  0  0  0  0
  160.5930  209.8630  154.6920 C   0  0  0  0  0  3  0  0  0  0  0  0
  160.0720  209.7170  155.9810 C   0  0  0  0  0  0  0  0  0  0  0  0
  160.2000  207.3020  155.7390 C   0  0  0  0  0  3  0  0  0  0  0  0
  160.9150  208.7360  153.9300 C   0  0  0  0  0  3  0  0  0  0  0  0
  160.7240  207.4470  154.4510 C   0  0  0  0  0  0  0  0  0  0  0  0
  159.8760  208.4280  156.5030 C   0  0  0  0  0  3  0  0  0  0  0  0
  158.5560  211.5930  156.5280 C   0  0  0  0  0  1  0  0  0  0  0  0
  159.7600  210.8620  156.7190 O   0  0  0  0  0  0  0  0  0  0  0  0
  162.1260  208.4710  149.4530 C   0  0  1  0  0  3  0  0  0  0  0  0
  161.6620  208.4510  148.0080 C   0  0  0  0  0  1  0  0  0  0  0  0
  161.5690  209.6320  150.1340 N   0  0  0  0  0  2  0  0  0  0  0  0
  161.8880  210.9700  149.7450 C   0  0  0  0  0  0  0  0  0  0  0  0
  162.4490  211.2000  148.6400 O   0  0  0  0  0  0  0  0  0  0  0  0
  161.6050  212.0980  150.6760 C   0  0  0  0  0  2  0  0  0  0  0  0
  160.3530  212.7580  150.3010 N   0  0  0  0  0  0  0  0  0  0  0  0
  157.8250  212.9790  150.7160 C   0  0  0  0  0  1  0  0  0  0  0  0
  159.1770  212.4680  151.0890 C   0  0  0  0  0  0  0  0  0  0  0  0
  160.3590  213.7070  149.2090 C   0  0  0  0  0  0  0  0  0  0  0  0
  159.3690  214.4530  148.9940 O   0  0  0  0  0  0  0  0  0  0  0  0
  159.2690  211.7450  152.1170 O   0  0  0  0  0  0  0  0  0  0  0  0
  161.5420  213.8260  148.2980 C   0  0  0  0  0  2  0  0  0  0  0  0
  161.1880  213.3960  146.9160 C   0  0  0  0  0  0  0  0  0  0  0  0
  161.6360  213.3960  144.5340 C   0  0  0  0  0  3  0  0  0  0  0  0
  159.7120  212.2080  145.4020 C   0  0  0  0  0  3  0  0  0  0  0  0
  160.5050  212.6020  144.3210 C   0  0  0  0  0  3  0  0  0  0  0  0
  160.0520  212.6060  146.7000 C   0  0  0  0  0  3  0  0  0  0  0  0
  161.9770  213.7940  145.8310 C   0  0  0  0  0  3  0  0  0  0  0  0
  1 21  1  0  0  0  0
  2  7  1  6  0  0  0
  2  9  1  0  0  0  0
  3 14  1  0  0  0  0
  3 13  1  1  0  0  0
  4 11  2  0  0  0  0
  5  9  1  6  0  0  0
  5 16  1  0  0  0  0
  6 10  1  0  0  0  0
  6  2  1  0  0  0  0
  8 10  1  6  0  0  0
  8 12  1  0  0  0  0
  8  5  1  0  0  0  0
 11 15  1  0  0  0  0
 12  4  1  6  0  0  0
 12  3  1  0  0  0  0
 14  1  1  0  0  0  0
 15 14  2  0  0  0  0
 16 13  1  0  0  0  0
 17 18  1  0  0  0  0
 18 22  2  0  0  0  0
 18 24  1  0  0  0  0
 19 22  1  0  0  0  0
 20 21  1  0  0  0  0
 20 17  2  0  0  0  0
 21 19  2  0  0  0  0
 23 24  1  0  0  0  0
 25 26  1  6  0  0  0
 25 27  1  0  0  0  0
 25 11  1  0  0  0  0
 28 27  1  0  0  0  0
 28 30  1  0  0  0  0
 29 28  2  0  0  0  0
 31 30  1  0  0  0  0
 31 33  1  0  0  0  0
 32 33  1  0  0  0  0
 33 36  2  0  0  0  0
 34 31  1  0  0  0  0
 35 34  2  0  0  0  0
 37 34  1  0  0  0  0
 38 37  1  0  0  0  0
 39 43  1  0  0  0  0
 40 42  2  0  0  0  0
 41 39  2  0  0  0  0
 41 40  1  0  0  0  0
 42 38  1  0  0  0  0
 43 38  2  0  0  0  0
M  END
>  <MODEL>
6

>  <REMARK>
 VINA RESULT:      -7.8      2.040      4.255
  Name = 
  8 active torsions:
  status: ('A' for Active; 'I' for Inactive)
    1  A    between atoms: N_1  and  C_35
    2  A    between atoms: C_2  and  N_6
    3  A    between atoms: C_2  and  C_27
    4  A    between atoms: C_3  and  N_4
    5  A    between atoms: C_3  and  C_12
    6  A    between atoms: C_11  and  C_14
    7  A    between atoms: C_14  and  C_22
    8  A    between atoms: C_19  and  O_37
                            x       y       z     vdW  Elec       q    Type
                         _______ _______ _______ _____ _____    ______ ____

>  <TORSDO>
F 8

$$$$
=
 OpenBabel11062410303D

 43 47  0  0  1  0  0  0  0  0999 V2000
  161.0440  207.2950  152.9760 N   0  0  0  0  0  2  0  0  0  0  0  0
  161.7920  204.1950  146.0470 C   0  0  2  0  0  3  0  0  0  0  0  0
  161.6200  206.6200  150.5870 C   0  0  2  0  0  3  0  0  0  0  0  0
  161.6220  208.4790  148.9270 C   0  0  0  0  0  3  0  0  0  0  0  0
  161.0720  204.6710  148.4630 C   0  0  1  0  0  3  0  0  0  0  0  0
  160.8570  205.3640  145.7590 C   0  0  0  0  0  2  0  0  0  0  0  0
  161.6020  203.1930  145.0980 O   0  0  0  0  0  1  0  0  0  0  0  0
  161.5960  206.0800  148.1220 C   0  0  1  0  0  3  0  0  0  0  0  0
  161.5600  203.6250  147.4520 C   0  0  0  0  0  2  0  0  0  0  0  0
  161.1020  206.5240  146.7320 C   0  0  0  0  0  2  0  0  0  0  0  0
  161.6520  209.3640  149.9340 C   0  0  0  0  0  0  0  0  0  0  0  0
  161.1560  207.0780  149.1970 C   0  0  1  0  0  3  0  0  0  0  0  0
  161.0030  205.2630  150.9060 C   0  0  0  0  0  2  0  0  0  0  0  0
  161.2850  207.6780  151.6130 C   0  0  0  0  0  0  0  0  0  0  0  0
  161.3620  208.9370  151.2760 N   0  0  0  0  0  0  0  0  0  0  0  0
  161.4740  204.2410  149.8740 C   0  0  0  0  0  2  0  0  0  0  0  0
  160.2580  208.5590  156.4260 C   0  0  0  0  0  3  0  0  0  0  0  0
  159.9400  209.8920  156.1510 C   0  0  0  0  0  0  0  0  0  0  0  0
  160.3500  209.4850  153.7910 C   0  0  0  0  0  3  0  0  0  0  0  0
  160.6210  207.6930  155.3900 C   0  0  0  0  0  3  0  0  0  0  0  0
  160.6660  208.1500  154.0640 C   0  0  0  0  0  0  0  0  0  0  0  0
  159.9880  210.3530  154.8250 C   0  0  0  0  0  3  0  0  0  0  0  0
  158.7140  211.8490  157.0390 C   0  0  0  0  0  1  0  0  0  0  0  0
  159.5810  210.7350  157.2070 O   0  0  0  0  0  0  0  0  0  0  0  0
  161.9730  210.8060  149.6790 C   0  0  1  0  0  3  0  0  0  0  0  0
  163.4430  211.0800  149.9410 C   0  0  0  0  0  1  0  0  0  0  0  0
  161.6420  211.1640  148.3070 N   0  0  0  0  0  2  0  0  0  0  0  0
  162.0710  212.3930  147.7140 C   0  0  0  0  0  0  0  0  0  0  0  0
  162.9670  213.0880  148.2600 O   0  0  0  0  0  0  0  0  0  0  0  0
  161.4150  212.8810  146.4690 C   0  0  0  0  0  2  0  0  0  0  0  0
  159.9620  212.9070  146.6420 N   0  0  0  0  0  0  0  0  0  0  0  0
  157.9840  213.5110  148.1710 C   0  0  0  0  0  1  0  0  0  0  0  0
  159.4360  213.5440  147.8280 C   0  0  0  0  0  0  0  0  0  0  0  0
  159.1200  212.3550  145.6020 C   0  0  0  0  0  0  0  0  0  0  0  0
  157.8760  212.5490  145.6040 O   0  0  0  0  0  0  0  0  0  0  0  0
  160.2150  214.1340  148.6240 O   0  0  0  0  0  0  0  0  0  0  0  0
  159.7030  211.5320  144.4950 C   0  0  0  0  0  2  0  0  0  0  0  0
  160.1740  212.4040  143.3820 C   0  0  0  0  0  0  0  0  0  0  0  0
  159.7600  214.1750  141.7790 C   0  0  0  0  0  3  0  0  0  0  0  0
  161.9120  213.0620  141.8250 C   0  0  0  0  0  3  0  0  0  0  0  0
  161.0580  214.0240  141.2780 C   0  0  0  0  0  3  0  0  0  0  0  0
  161.4700  212.2500  142.8750 C   0  0  0  0  0  3  0  0  0  0  0  0
  159.3180  213.3640  142.8300 C   0  0  0  0  0  3  0  0  0  0  0  0
  1 21  1  0  0  0  0
  2  7  1  6  0  0  0
  2  9  1  0  0  0  0
  3 13  1  1  0  0  0
  3 14  1  0  0  0  0
  4 11  2  0  0  0  0
  5  9  1  6  0  0  0
  5 16  1  0  0  0  0
  6  2  1  0  0  0  0
  6 10  1  0  0  0  0
  8 10  1  6  0  0  0
  8  5  1  0  0  0  0
  8 12  1  0  0  0  0
 11 15  1  0  0  0  0
 12  4  1  6  0  0  0
 12  3  1  0  0  0  0
 14  1  1  0  0  0  0
 15 14  2  0  0  0  0
 16 13  1  0  0  0  0
 18 17  1  0  0  0  0
 18 24  1  0  0  0  0
 19 21  2  0  0  0  0
 19 22  1  0  0  0  0
 20 17  2  0  0  0  0
 21 20  1  0  0  0  0
 22 18  2  0  0  0  0
 23 24  1  0  0  0  0
 25 11  1  0  0  0  0
 25 26  1  6  0  0  0
 27 25  1  0  0  0  0
 28 29  2  0  0  0  0
 28 27  1  0  0  0  0
 30 31  1  0  0  0  0
 30 28  1  0  0  0  0
 31 33  1  0  0  0  0
 33 32  1  0  0  0  0
 33 36  2  0  0  0  0
 34 35  2  0  0  0  0
 34 31  1  0  0  0  0
 37 34  1  0  0  0  0
 38 37  1  0  0  0  0
 39 43  1  0  0  0  0
 40 42  2  0  0  0  0
 41 39  2  0  0  0  0
 41 40  1  0  0  0  0
 42 38  1  0  0  0  0
 43 38  2  0  0  0  0
M  END
>  <MODEL>
7

>  <REMARK>
 VINA RESULT:      -6.4      2.368      4.625
  Name = 
  8 active torsions:
  status: ('A' for Active; 'I' for Inactive)
    1  A    between atoms: N_1  and  C_35
    2  A    between atoms: C_2  and  N_6
    3  A    between atoms: C_2  and  C_27
    4  A    between atoms: C_3  and  N_4
    5  A    between atoms: C_3  and  C_12
    6  A    between atoms: C_11  and  C_14
    7  A    between atoms: C_14  and  C_22
    8  A    between atoms: C_19  and  O_37
                            x       y       z     vdW  Elec       q    Type
                         _______ _______ _______ _____ _____    ______ ____

>  <TORSDO>
F 8

$$$$
