=
 OpenBabel11052421443D

 30 33  0  0  1  0  0  0  0  0999 V2000
  158.4790  212.3270  152.4070 C   0  0  2  0  0  3  0  0  0  0  0  0
  157.5900  212.5540  155.9720 C   0  0  2  0  0  3  0  0  0  0  0  0
  159.6630  210.0760  154.9980 C   0  0  0  0  0  2  0  0  0  0  0  0
  157.6290  213.0500  153.4550 C   0  0  0  0  0  2  0  0  0  0  0  0
  159.7200  211.1070  156.1060 C   0  0  0  0  0  2  0  0  0  0  0  0
  158.3210  212.7130  157.1680 O   0  0  0  0  0  0  0  0  0  0  0  0
  158.8010  210.8750  152.7710 C   0  0  0  0  0  2  0  0  0  0  0  0
  160.0230  210.7460  153.6750 C   0  0  2  0  0  3  0  0  0  0  0  0
  158.3180  211.4170  156.6200 C   0  0  1  0  0  3  0  0  0  0  0  0
  159.1660  214.1860  154.9740 C   0  0  0  0  0  2  0  0  0  0  0  0
  158.2850  213.1980  154.7950 C   0  0  0  0  0  0  0  0  0  0  0  0
  159.6910  213.1440  151.9420 C   0  0  1  0  0  3  0  0  0  0  0  0
  160.2840  212.5160  150.8280 O   0  0  0  0  0  0  0  0  0  0  0  0
  159.5980  213.7170  150.5610 C   0  0  1  0  0  3  0  0  0  0  0  0
  157.3910  214.4530  150.0430 O   0  0  0  0  0  1  0  0  0  0  0  0
  158.2980  213.4190  149.8110 C   0  0  1  0  0  3  0  0  0  0  0  0
  158.5530  213.3050  148.3180 C   0  0  0  0  0  2  0  0  0  0  0  0
  157.2810  212.6020  146.3140 C   0  0  0  0  0  1  0  0  0  0  0  0
  157.2600  213.4800  147.5470 C   0  0  0  0  0  2  0  0  0  0  0  0
  161.1330  210.0880  152.9740 N   0  0  0  0  0  0  0  0  0  0  0  0
  162.2440  210.2130  153.7390 O   0  0  0  0  0  1  0  0  0  0  0  0
  160.8180  208.3490  152.7790 S   0  0  0  0  0  0  0  0  0  0  0  0
  160.8060  205.4480  150.9900 C   0  0  2  0  0  3  0  0  0  0  0  0
  162.4190  205.5360  151.8530 S   0  0  0  0  0  0  0  0  0  0  0  0
  160.4980  204.0070  150.6490 C   0  0  0  0  0  1  0  0  0  0  0  0
  161.7210  208.2030  151.1900 C   0  0  2  0  0  0  0  0  0  0  0  0
  162.8990  207.2400  151.3510 C   0  0  0  0  0  2  0  0  0  0  0  0
  160.8160  206.2770  149.7210 C   0  0  0  0  0  2  0  0  0  0  0  0
  162.2890  209.5630  150.8330 C   0  0  0  0  0  1  0  0  0  0  0  0
  160.7820  207.7680  150.0530 C   0  0  0  0  0  2  0  0  0  0  0  0
  1  7  1  1  0  0  0
  1  4  1  0  0  0  0
  2 11  1  6  0  0  0
  2  9  1  0  0  0  0
  2  6  1  0  0  0  0
  3  5  1  0  0  0  0
  4 11  1  0  0  0  0
  7  8  1  0  0  0  0
  8 20  1  6  0  0  0
  8  3  1  0  0  0  0
  9  5  1  6  0  0  0
  9  6  1  0  0  0  0
 11 10  2  0  0  0  0
 12 13  1  6  0  0  0
 12  1  1  0  0  0  0
 14 16  1  6  0  0  0
 14 13  1  0  0  0  0
 14 12  1  0  0  0  0
 16 15  1  6  0  0  0
 17 16  1  0  0  0  0
 18 19  1  0  0  0  0
 19 17  1  0  0  0  0
 20 21  1  0  0  0  0
 22 20  1  0  0  0  0
 23 25  1  6  0  0  0
 23 24  1  0  0  0  0
 26 29  1  6  0  0  0
 26 27  1  0  0  0  0
 26 22  1  0  0  0  0
 27 24  1  0  0  0  0
 28 30  1  0  0  0  0
 28 23  1  0  0  0  0
 30 26  1  0  0  0  0
M  END
>  <MODEL>
1

>  <REMARK>
 VINA RESULT:      -4.8      0.000      0.000
  Name = 
  7 active torsions:
  status: ('A' for Active; 'I' for Inactive)
    1  A    between atoms: C_1  and  C_4
    2  A    between atoms: S_3  and  N_11
    3  A    between atoms: S_3  and  C_19
    4  A    between atoms: C_8  and  C_9
    5  A    between atoms: C_8  and  C_12
    6  A    between atoms: C_9  and  C_21
    7  A    between atoms: N_11  and  C_25
                            x       y       z     vdW  Elec       q    Type
                         _______ _______ _______ _____ _____    ______ ____

>  <TORSDO>
F 7

$$$$
=
 OpenBabel11052421443D

 30 33  0  0  1  0  0  0  0  0999 V2000
  160.5750  206.0660  150.5000 C   0  0  2  0  0  3  0  0  0  0  0  0
  161.6270  209.0620  148.6370 C   0  0  2  0  0  3  0  0  0  0  0  0
  161.1210  209.3440  151.9610 C   0  0  0  0  0  2  0  0  0  0  0  0
  160.8820  206.6550  149.1200 C   0  0  0  0  0  2  0  0  0  0  0  0
  162.2510  209.7560  151.0410 C   0  0  0  0  0  2  0  0  0  0  0  0
  162.7250  209.9450  148.7160 O   0  0  0  0  0  0  0  0  0  0  0  0
  160.0730  207.1000  151.5120 C   0  0  0  0  0  2  0  0  0  0  0  0
  161.2060  207.8420  152.2150 C   0  0  2  0  0  3  0  0  0  0  0  0
  161.7090  210.1440  149.6700 C   0  0  1  0  0  3  0  0  0  0  0  0
  163.2500  207.2470  149.0970 C   0  0  0  0  0  2  0  0  0  0  0  0
  161.9840  207.6710  149.1080 C   0  0  0  0  0  0  0  0  0  0  0  0
  161.6890  205.1540  151.0300 C   0  0  1  0  0  3  0  0  0  0  0  0
  161.1180  204.0440  151.6850 O   0  0  0  0  0  0  0  0  0  0  0  0
  161.7320  203.7750  150.4480 C   0  0  1  0  0  3  0  0  0  0  0  0
  161.2350  203.5880  148.1240 O   0  0  0  0  0  1  0  0  0  0  0  0
  160.6670  203.4720  149.3920 C   0  0  1  0  0  3  0  0  0  0  0  0
  160.1200  202.0650  149.5670 C   0  0  0  0  0  2  0  0  0  0  0  0
  161.3420  200.5250  148.0630 C   0  0  0  0  0  1  0  0  0  0  0  0
  161.2420  201.0500  149.4800 C   0  0  0  0  0  2  0  0  0  0  0  0
  161.2620  207.4960  153.6410 N   0  0  0  0  0  0  0  0  0  0  0  0
  162.2510  206.5860  153.8120 O   0  0  0  0  0  1  0  0  0  0  0  0
  161.6760  208.9190  154.6230 S   0  0  0  0  0  0  0  0  0  0  0  0
  160.1910  211.7020  155.9140 C   0  0  2  0  0  3  0  0  0  0  0  0
  161.1820  210.9540  157.2600 S   0  0  0  0  0  0  0  0  0  0  0  0
  159.9690  213.1680  156.2120 C   0  0  0  0  0  1  0  0  0  0  0  0
  160.1970  208.8000  155.7010 C   0  0  2  0  0  0  0  0  0  0  0  0
  160.5590  209.2280  157.1260 C   0  0  0  0  0  2  0  0  0  0  0  0
  158.8510  211.0070  155.7680 C   0  0  0  0  0  2  0  0  0  0  0  0
  159.7590  207.3490  155.7580 C   0  0  0  0  0  1  0  0  0  0  0  0
  159.0280  209.6260  155.1380 C   0  0  0  0  0  2  0  0  0  0  0  0
  1  4  1  6  0  0  0
  1 12  1  0  0  0  0
  1  7  1  0  0  0  0
  2  6  1  6  0  0  0
  2 11  1  0  0  0  0
  2  9  1  0  0  0  0
  3  8  1  0  0  0  0
  5  3  1  0  0  0  0
  6  9  1  0  0  0  0
  7  8  1  0  0  0  0
  8 20  1  1  0  0  0
  9  5  1  1  0  0  0
 10 11  2  0  0  0  0
 11  4  1  0  0  0  0
 12 13  1  1  0  0  0
 14 16  1  6  0  0  0
 14 12  1  0  0  0  0
 14 13  1  0  0  0  0
 16 15  1  6  0  0  0
 16 17  1  0  0  0  0
 18 19  1  0  0  0  0
 19 17  1  0  0  0  0
 20 21  1  0  0  0  0
 20 22  1  0  0  0  0
 22 26  1  0  0  0  0
 23 25  1  1  0  0  0
 23 24  1  0  0  0  0
 26 29  1  1  0  0  0
 26 27  1  0  0  0  0
 27 24  1  0  0  0  0
 28 23  1  0  0  0  0
 30 26  1  0  0  0  0
 30 28  1  0  0  0  0
M  END
>  <MODEL>
2

>  <REMARK>
 VINA RESULT:      -4.1      3.596      8.221
  Name = 
  7 active torsions:
  status: ('A' for Active; 'I' for Inactive)
    1  A    between atoms: C_1  and  C_4
    2  A    between atoms: S_3  and  N_11
    3  A    between atoms: S_3  and  C_19
    4  A    between atoms: C_8  and  C_9
    5  A    between atoms: C_8  and  C_12
    6  A    between atoms: C_9  and  C_21
    7  A    between atoms: N_11  and  C_25
                            x       y       z     vdW  Elec       q    Type
                         _______ _______ _______ _____ _____    ______ ____

>  <TORSDO>
F 7

$$$$
=
 OpenBabel11052421443D

 30 33  0  0  1  0  0  0  0  0999 V2000
  161.8670  208.4490  152.6550 C   0  0  2  0  0  3  0  0  0  0  0  0
  161.6390  207.8990  156.2880 C   0  0  2  0  0  3  0  0  0  0  0  0
  161.1690  211.0270  155.1130 C   0  0  0  0  0  2  0  0  0  0  0  0
  162.0230  207.4370  153.7930 C   0  0  0  0  0  2  0  0  0  0  0  0
  160.3930  210.1460  156.0690 C   0  0  0  0  0  2  0  0  0  0  0  0
  160.6360  208.1000  157.2600 O   0  0  0  0  0  0  0  0  0  0  0  0
  162.1280  209.8970  153.0780 C   0  0  0  0  0  2  0  0  0  0  0  0
  160.8990  210.5700  153.6830 C   0  0  2  0  0  3  0  0  0  0  0  0
  161.3410  209.2510  156.8600 C   0  0  1  0  0  3  0  0  0  0  0  0
  159.8190  207.1280  154.7940 C   0  0  0  0  0  2  0  0  0  0  0  0
  161.0540  207.6160  154.9230 C   0  0  0  0  0  0  0  0  0  0  0  0
  160.5810  208.2520  151.8420 C   0  0  1  0  0  3  0  0  0  0  0  0
  160.8630  208.3980  150.4690 O   0  0  0  0  0  0  0  0  0  0  0  0
  160.5790  207.0880  150.8990 C   0  0  1  0  0  3  0  0  0  0  0  0
  161.6470  205.0880  151.6360 O   0  0  0  0  0  1  0  0  0  0  0  0
  161.8580  206.2470  150.8890 C   0  0  1  0  0  3  0  0  0  0  0  0
  162.2370  205.8640  149.4690 C   0  0  0  0  0  2  0  0  0  0  0  0
  161.3390  203.9050  148.2510 C   0  0  0  0  0  1  0  0  0  0  0  0
  161.0350  205.3070  148.7340 C   0  0  0  0  0  2  0  0  0  0  0  0
  160.4020  211.6440  152.8130 N   0  0  0  0  0  0  0  0  0  0  0  0
  160.8960  211.4370  151.5690 O   0  0  0  0  0  1  0  0  0  0  0  0
  158.6290  211.5940  152.6940 S   0  0  0  0  0  0  0  0  0  0  0  0
  157.3980  212.3980  155.7680 C   0  0  2  0  0  3  0  0  0  0  0  0
  156.0230  212.5980  154.5750 S   0  0  0  0  0  0  0  0  0  0  0  0
  156.8300  212.1900  157.1550 C   0  0  0  0  0  1  0  0  0  0  0  0
  158.3890  213.3400  153.2000 C   0  0  2  0  0  0  0  0  0  0  0  0
  156.8940  213.6400  153.3340 C   0  0  0  0  0  2  0  0  0  0  0  0
  158.3040  213.6130  155.7700 C   0  0  0  0  0  2  0  0  0  0  0  0
  158.9390  214.2370  152.1080 C   0  0  0  0  0  1  0  0  0  0  0  0
  159.1510  213.6540  154.4990 C   0  0  0  0  0  2  0  0  0  0  0  0
  1  7  1  1  0  0  0
  1  4  1  0  0  0  0
  2 11  1  6  0  0  0
  2  9  1  0  0  0  0
  2  6  1  0  0  0  0
  3  5  1  0  0  0  0
  4 11  1  0  0  0  0
  7  8  1  0  0  0  0
  8 20  1  6  0  0  0
  8  3  1  0  0  0  0
  9  5  1  6  0  0  0
  9  6  1  0  0  0  0
 10 11  2  0  0  0  0
 12 13  1  6  0  0  0
 12  1  1  0  0  0  0
 13 14  1  0  0  0  0
 14 16  1  1  0  0  0
 14 12  1  0  0  0  0
 16 15  1  1  0  0  0
 17 16  1  0  0  0  0
 18 19  1  0  0  0  0
 19 17  1  0  0  0  0
 21 20  1  0  0  0  0
 22 20  1  0  0  0  0
 22 26  1  0  0  0  0
 23 28  1  0  0  0  0
 23 25  1  1  0  0  0
 24 23  1  0  0  0  0
 26 29  1  6  0  0  0
 26 27  1  0  0  0  0
 26 30  1  0  0  0  0
 27 24  1  0  0  0  0
 30 28  1  0  0  0  0
M  END
>  <MODEL>
3

>  <REMARK>
 VINA RESULT:      -4.0      2.918      6.863
  Name = 
  7 active torsions:
  status: ('A' for Active; 'I' for Inactive)
    1  A    between atoms: C_1  and  C_4
    2  A    between atoms: S_3  and  N_11
    3  A    between atoms: S_3  and  C_19
    4  A    between atoms: C_8  and  C_9
    5  A    between atoms: C_8  and  C_12
    6  A    between atoms: C_9  and  C_21
    7  A    between atoms: N_11  and  C_25
                            x       y       z     vdW  Elec       q    Type
                         _______ _______ _______ _____ _____    ______ ____

>  <TORSDO>
F 7

$$$$
=
 OpenBabel11052421443D

 30 33  0  0  1  0  0  0  0  0999 V2000
  161.8660  208.2280  152.6190 C   0  0  2  0  0  3  0  0  0  0  0  0
  161.6880  207.8600  156.2770 C   0  0  2  0  0  3  0  0  0  0  0  0
  161.3560  210.9510  154.9640 C   0  0  0  0  0  2  0  0  0  0  0  0
  161.9950  207.2630  153.8010 C   0  0  0  0  0  2  0  0  0  0  0  0
  160.5560  210.1570  155.9760 C   0  0  0  0  0  2  0  0  0  0  0  0
  160.7190  208.1590  157.2580 O   0  0  0  0  0  0  0  0  0  0  0  0
  162.2100  209.6780  152.9670 C   0  0  0  0  0  2  0  0  0  0  0  0
  161.0310  210.4420  153.5620 C   0  0  2  0  0  3  0  0  0  0  0  0
  161.4730  209.2510  156.7900 C   0  0  1  0  0  3  0  0  0  0  0  0
  159.7990  207.1170  154.8570 C   0  0  0  0  0  2  0  0  0  0  0  0
  161.0610  207.5450  154.9390 C   0  0  0  0  0  0  0  0  0  0  0  0
  160.5540  208.0610  151.8410 C   0  0  1  0  0  3  0  0  0  0  0  0
  160.7750  208.3370  150.4770 O   0  0  0  0  0  0  0  0  0  0  0  0
  160.5480  206.9850  150.7990 C   0  0  1  0  0  3  0  0  0  0  0  0
  161.6710  204.9260  151.2230 O   0  0  0  0  0  1  0  0  0  0  0  0
  161.8490  206.1910  150.6640 C   0  0  1  0  0  3  0  0  0  0  0  0
  162.2400  206.0420  149.2040 C   0  0  0  0  0  2  0  0  0  0  0  0
  161.6960  204.2810  147.5520 C   0  0  0  0  0  1  0  0  0  0  0  0
  161.1230  205.3760  148.4250 C   0  0  0  0  0  2  0  0  0  0  0  0
  160.5720  211.4990  152.6520 N   0  0  0  0  0  0  0  0  0  0  0  0
  161.1070  211.2620  151.4310 O   0  0  0  0  0  1  0  0  0  0  0  0
  158.8030  211.4560  152.4730 S   0  0  0  0  0  0  0  0  0  0  0  0
  157.2710  213.5020  150.2190 C   0  0  2  0  0  3  0  0  0  0  0  0
  159.0710  213.8070  150.0780 S   0  0  0  0  0  0  0  0  0  0  0  0
  156.5900  213.9210  148.9340 C   0  0  0  0  0  1  0  0  0  0  0  0
  158.5680  213.2430  152.8110 C   0  0  2  0  0  0  0  0  0  0  0  0
  159.4400  214.0680  151.8610 C   0  0  0  0  0  2  0  0  0  0  0  0
  156.6740  214.2710  151.3810 C   0  0  0  0  0  2  0  0  0  0  0  0
  159.0350  213.5300  154.2250 C   0  0  0  0  0  1  0  0  0  0  0  0
  157.0850  213.6400  152.7100 C   0  0  0  0  0  2  0  0  0  0  0  0
  1  7  1  1  0  0  0
  1  4  1  0  0  0  0
  2 11  1  6  0  0  0
  2  9  1  0  0  0  0
  2  6  1  0  0  0  0
  3  5  1  0  0  0  0
  4 11  1  0  0  0  0
  7  8  1  0  0  0  0
  8 20  1  6  0  0  0
  8  3  1  0  0  0  0
  9  5  1  6  0  0  0
  9  6  1  0  0  0  0
 10 11  2  0  0  0  0
 12 13  1  6  0  0  0
 12  1  1  0  0  0  0
 13 14  1  0  0  0  0
 14 16  1  1  0  0  0
 14 12  1  0  0  0  0
 16 15  1  6  0  0  0
 17 16  1  0  0  0  0
 18 19  1  0  0  0  0
 19 17  1  0  0  0  0
 21 20  1  0  0  0  0
 22 20  1  0  0  0  0
 22 26  1  0  0  0  0
 23 25  1  6  0  0  0
 23 28  1  0  0  0  0
 24 23  1  0  0  0  0
 24 27  1  0  0  0  0
 26 29  1  1  0  0  0
 27 26  1  0  0  0  0
 28 30  1  0  0  0  0
 30 26  1  0  0  0  0
M  END
>  <MODEL>
4

>  <REMARK>
 VINA RESULT:      -4.0      2.685      6.711
  Name = 
  7 active torsions:
  status: ('A' for Active; 'I' for Inactive)
    1  A    between atoms: C_1  and  C_4
    2  A    between atoms: S_3  and  N_11
    3  A    between atoms: S_3  and  C_19
    4  A    between atoms: C_8  and  C_9
    5  A    between atoms: C_8  and  C_12
    6  A    between atoms: C_9  and  C_21
    7  A    between atoms: N_11  and  C_25
                            x       y       z     vdW  Elec       q    Type
                         _______ _______ _______ _____ _____    ______ ____

>  <TORSDO>
F 7

$$$$
=
 OpenBabel11052421443D

 30 33  0  0  1  0  0  0  0  0999 V2000
  160.6600  208.6500  153.1980 C   0  0  2  0  0  3  0  0  0  0  0  0
  160.9180  205.5010  151.3100 C   0  0  2  0  0  3  0  0  0  0  0  0
  161.2780  208.4040  149.6290 C   0  0  0  0  0  2  0  0  0  0  0  0
  160.5410  207.1250  153.2600 C   0  0  0  0  0  2  0  0  0  0  0  0
  162.0870  207.1250  149.6840 C   0  0  0  0  0  2  0  0  0  0  0  0
  161.9160  204.9010  150.5130 O   0  0  0  0  0  0  0  0  0  0  0  0
  160.3520  209.2360  151.8170 C   0  0  0  0  0  2  0  0  0  0  0  0
  161.5590  209.2260  150.8850 C   0  0  2  0  0  3  0  0  0  0  0  0
  161.1720  205.9240  149.8960 C   0  0  1  0  0  3  0  0  0  0  0  0
  162.7580  206.2090  152.8110 C   0  0  0  0  0  2  0  0  0  0  0  0
  161.5070  206.3890  152.3810 C   0  0  0  0  0  0  0  0  0  0  0  0
  161.9490  209.1840  153.8360 C   0  0  1  0  0  3  0  0  0  0  0  0
  161.8320  210.5720  154.0470 O   0  0  0  0  0  0  0  0  0  0  0  0
  161.8020  209.7720  155.2050 C   0  0  1  0  0  3  0  0  0  0  0  0
  160.4330  209.2240  157.0770 O   0  0  0  0  0  1  0  0  0  0  0  0
  160.3860  209.7460  155.7850 C   0  0  1  0  0  3  0  0  0  0  0  0
  159.7990  211.1460  155.8320 C   0  0  0  0  0  2  0  0  0  0  0  0
  158.4290  211.6500  153.8340 C   0  0  0  0  0  1  0  0  0  0  0  0
  158.3950  211.1480  155.2610 C   0  0  0  0  0  2  0  0  0  0  0  0
  162.0170  210.5910  150.5950 N   0  0  0  0  0  0  0  0  0  0  0  0
  163.2950  210.7040  151.0290 O   0  0  0  0  0  1  0  0  0  0  0  0
  162.0230  210.9000  148.8440 S   0  0  0  0  0  0  0  0  0  0  0  0
  161.3050  212.7460  146.0710 C   0  0  2  0  0  3  0  0  0  0  0  0
  162.7330  213.5480  146.8900 S   0  0  0  0  0  0  0  0  0  0  0  0
  161.2800  213.1400  144.6100 C   0  0  0  0  0  1  0  0  0  0  0  0
  161.1140  212.4880  148.9630 C   0  0  2  0  0  0  0  0  0  0  0  0
  162.0440  213.6460  148.5940 C   0  0  0  0  0  2  0  0  0  0  0  0
  159.9990  213.1490  146.7260 C   0  0  0  0  0  2  0  0  0  0  0  0
  160.6840  212.6890  150.4030 C   0  0  0  0  0  1  0  0  0  0  0  0
  159.8490  212.4740  148.0880 C   0  0  0  0  0  2  0  0  0  0  0  0
  1  7  1  6  0  0  0
  1  4  1  0  0  0  0
  1 12  1  0  0  0  0
  2  6  1  6  0  0  0
  2 11  1  0  0  0  0
  3  5  1  0  0  0  0
  3  8  1  0  0  0  0
  8 20  1  6  0  0  0
  8  7  1  0  0  0  0
  9  5  1  1  0  0  0
  9  6  1  0  0  0  0
  9  2  1  0  0  0  0
 11 10  2  0  0  0  0
 11  4  1  0  0  0  0
 12 13  1  6  0  0  0
 12 14  1  0  0  0  0
 13 14  1  0  0  0  0
 14 16  1  6  0  0  0
 16 17  1  0  0  0  0
 16 15  1  1  0  0  0
 18 19  1  0  0  0  0
 19 17  1  0  0  0  0
 20 21  1  0  0  0  0
 22 26  1  0  0  0  0
 22 20  1  0  0  0  0
 23 25  1  6  0  0  0
 23 28  1  0  0  0  0
 23 24  1  0  0  0  0
 24 27  1  0  0  0  0
 26 29  1  1  0  0  0
 27 26  1  0  0  0  0
 28 30  1  0  0  0  0
 30 26  1  0  0  0  0
M  END
>  <MODEL>
5

>  <REMARK>
 VINA RESULT:      -3.7      2.934      7.098
  Name = 
  7 active torsions:
  status: ('A' for Active; 'I' for Inactive)
    1  A    between atoms: C_1  and  C_4
    2  A    between atoms: S_3  and  N_11
    3  A    between atoms: S_3  and  C_19
    4  A    between atoms: C_8  and  C_9
    5  A    between atoms: C_8  and  C_12
    6  A    between atoms: C_9  and  C_21
    7  A    between atoms: N_11  and  C_25
                            x       y       z     vdW  Elec       q    Type
                         _______ _______ _______ _____ _____    ______ ____

>  <TORSDO>
F 7

$$$$
=
 OpenBabel11052421443D

 30 33  0  0  1  0  0  0  0  0999 V2000
  159.9460  210.2790  152.8330 C   0  0  2  0  0  3  0  0  0  0  0  0
  160.5370  208.8610  156.1780 C   0  0  2  0  0  3  0  0  0  0  0  0
  161.0860  206.8960  153.4900 C   0  0  0  0  0  2  0  0  0  0  0  0
  159.8480  210.5160  154.3430 C   0  0  0  0  0  2  0  0  0  0  0  0
  161.9020  207.2270  154.7230 C   0  0  0  0  0  2  0  0  0  0  0  0
  161.6520  208.2970  156.8340 O   0  0  0  0  0  0  0  0  0  0  0  0
  159.8330  208.8060  152.4320 C   0  0  0  0  0  2  0  0  0  0  0  0
  161.1640  208.0650  152.5120 C   0  0  2  0  0  3  0  0  0  0  0  0
  160.9880  207.4550  155.9220 C   0  0  1  0  0  3  0  0  0  0  0  0
  162.1230  210.5080  155.2260 C   0  0  0  0  0  2  0  0  0  0  0  0
  160.9460  209.8840  155.1450 C   0  0  0  0  0  0  0  0  0  0  0  0
  161.1180  211.0230  152.1790 C   0  0  1  0  0  3  0  0  0  0  0  0
  160.8870  211.1410  150.7940 O   0  0  0  0  0  0  0  0  0  0  0  0
  160.7790  212.3330  151.5360 C   0  0  1  0  0  3  0  0  0  0  0  0
  159.1600  213.6300  152.7090 O   0  0  0  0  0  1  0  0  0  0  0  0
  159.3110  212.7540  151.6340 C   0  0  1  0  0  3  0  0  0  0  0  0
  158.8650  213.4480  150.3590 C   0  0  0  0  0  2  0  0  0  0  0  0
  156.9730  213.1270  148.7950 C   0  0  0  0  0  1  0  0  0  0  0  0
  157.3550  213.4020  150.2340 C   0  0  0  0  0  2  0  0  0  0  0  0
  161.6350  207.6750  151.1770 N   0  0  0  0  0  0  0  0  0  0  0  0
  162.6040  208.5440  150.8040 O   0  0  0  0  0  1  0  0  0  0  0  0
  162.3620  206.0520  151.2100 S   0  0  0  0  0  0  0  0  0  0  0  0
  162.2410  205.4470  147.8590 C   0  0  2  0  0  3  0  0  0  0  0  0
  161.1780  206.9050  148.1760 S   0  0  0  0  0  0  0  0  0  0  0  0
  162.6800  205.4540  146.4110 C   0  0  0  0  0  1  0  0  0  0  0  0
  160.9200  205.2190  150.4420 C   0  0  2  0  0  0  0  0  0  0  0  0
  160.1680  206.2070  149.5460 C   0  0  0  0  0  2  0  0  0  0  0  0
  161.5050  204.1560  148.1580 C   0  0  0  0  0  2  0  0  0  0  0  0
  159.9710  204.7870  151.5430 C   0  0  0  0  0  1  0  0  0  0  0  0
  161.3510  203.9630  149.6650 C   0  0  0  0  0  2  0  0  0  0  0  0
  1  7  1  1  0  0  0
  1  4  1  0  0  0  0
  2 11  1  6  0  0  0
  2  6  1  0  0  0  0
  3  5  1  0  0  0  0
  4 11  1  0  0  0  0
  7  8  1  0  0  0  0
  8 20  1  6  0  0  0
  8  3  1  0  0  0  0
  9  5  1  6  0  0  0
  9  2  1  0  0  0  0
  9  6  1  0  0  0  0
 11 10  2  0  0  0  0
 12 13  1  6  0  0  0
 12  1  1  0  0  0  0
 13 14  1  0  0  0  0
 14 16  1  1  0  0  0
 14 12  1  0  0  0  0
 16 15  1  1  0  0  0
 17 16  1  0  0  0  0
 18 19  1  0  0  0  0
 19 17  1  0  0  0  0
 20 22  1  0  0  0  0
 21 20  1  0  0  0  0
 23 25  1  6  0  0  0
 23 28  1  0  0  0  0
 23 24  1  0  0  0  0
 24 27  1  0  0  0  0
 26 22  1  0  0  0  0
 26 29  1  1  0  0  0
 27 26  1  0  0  0  0
 28 30  1  0  0  0  0
 30 26  1  0  0  0  0
M  END
>  <MODEL>
6

>  <REMARK>
 VINA RESULT:      -3.5      2.267      3.612
  Name = 
  7 active torsions:
  status: ('A' for Active; 'I' for Inactive)
    1  A    between atoms: C_1  and  C_4
    2  A    between atoms: S_3  and  N_11
    3  A    between atoms: S_3  and  C_19
    4  A    between atoms: C_8  and  C_9
    5  A    between atoms: C_8  and  C_12
    6  A    between atoms: C_9  and  C_21
    7  A    between atoms: N_11  and  C_25
                            x       y       z     vdW  Elec       q    Type
                         _______ _______ _______ _____ _____    ______ ____

>  <TORSDO>
F 7

$$$$
=
 OpenBabel11052421443D

 30 33  0  0  1  0  0  0  0  0999 V2000
  159.2080  211.0710  152.9480 C   0  0  2  0  0  3  0  0  0  0  0  0
  159.4670  209.2290  156.1240 C   0  0  2  0  0  3  0  0  0  0  0  0
  161.2260  208.0990  153.4750 C   0  0  0  0  0  2  0  0  0  0  0  0
  158.7010  210.9550  154.3880 C   0  0  0  0  0  2  0  0  0  0  0  0
  161.5860  208.3910  154.9170 C   0  0  0  0  0  2  0  0  0  0  0  0
  160.5290  208.8880  156.9900 O   0  0  0  0  0  0  0  0  0  0  0  0
  159.6830  209.7420  152.3530 C   0  0  0  0  0  2  0  0  0  0  0  0
  161.1300  209.4160  152.7090 C   0  0  2  0  0  3  0  0  0  0  0  0
  160.4030  208.0960  155.8330 C   0  0  1  0  0  3  0  0  0  0  0  0
  160.5900  211.4220  155.8610 C   0  0  0  0  0  2  0  0  0  0  0  0
  159.7360  210.5160  155.3790 C   0  0  0  0  0  0  0  0  0  0  0  0
  160.1830  212.2380  152.7420 C   0  0  1  0  0  3  0  0  0  0  0  0
  160.4110  212.4250  151.3640 O   0  0  0  0  0  0  0  0  0  0  0  0
  159.6380  213.4170  151.9960 C   0  0  1  0  0  3  0  0  0  0  0  0
  157.3740  214.0130  152.4440 O   0  0  0  0  0  1  0  0  0  0  0  0
  158.1770  213.2990  151.5560 C   0  0  1  0  0  3  0  0  0  0  0  0
  157.9920  213.8590  150.1550 C   0  0  0  0  0  2  0  0  0  0  0  0
  157.3160  213.0090  147.9310 C   0  0  0  0  0  1  0  0  0  0  0  0
  156.9520  213.0560  149.4000 C   0  0  0  0  0  2  0  0  0  0  0  0
  161.9910  209.4590  151.5190 N   0  0  0  0  0  0  0  0  0  0  0  0
  163.1490  210.0710  151.8630 O   0  0  0  0  0  1  0  0  0  0  0  0
  162.4010  207.8170  150.9730 S   0  0  0  0  0  0  0  0  0  0  0  0
  161.3260  205.1860  149.0940 C   0  0  2  0  0  3  0  0  0  0  0  0
  162.9980  205.6250  148.4890 S   0  0  0  0  0  0  0  0  0  0  0  0
  161.0230  203.7490  148.7270 C   0  0  0  0  0  1  0  0  0  0  0  0
  161.7660  208.0560  149.2700 C   0  0  2  0  0  0  0  0  0  0  0  0
  162.7360  207.4320  148.2630 C   0  0  0  0  0  2  0  0  0  0  0  0
  160.2700  206.0940  148.4960 C   0  0  0  0  0  2  0  0  0  0  0  0
  161.7070  209.5440  148.9830 C   0  0  0  0  0  1  0  0  0  0  0  0
  160.3450  207.4870  149.1190 C   0  0  0  0  0  2  0  0  0  0  0  0
  1  7  1  1  0  0  0
  1  4  1  0  0  0  0
  2 11  1  6  0  0  0
  2  6  1  0  0  0  0
  3  5  1  0  0  0  0
  4 11  1  0  0  0  0
  7  8  1  0  0  0  0
  8 20  1  6  0  0  0
  8  3  1  0  0  0  0
  9  5  1  6  0  0  0
  9  2  1  0  0  0  0
  9  6  1  0  0  0  0
 11 10  2  0  0  0  0
 12 13  1  6  0  0  0
 12  1  1  0  0  0  0
 13 14  1  0  0  0  0
 14 16  1  6  0  0  0
 14 12  1  0  0  0  0
 16 15  1  1  0  0  0
 17 16  1  0  0  0  0
 18 19  1  0  0  0  0
 19 17  1  0  0  0  0
 20 21  1  0  0  0  0
 22 20  1  0  0  0  0
 23 25  1  6  0  0  0
 24 23  1  0  0  0  0
 26 29  1  6  0  0  0
 26 22  1  0  0  0  0
 27 24  1  0  0  0  0
 27 26  1  0  0  0  0
 28 23  1  0  0  0  0
 28 30  1  0  0  0  0
 30 26  1  0  0  0  0
M  END
>  <MODEL>
7

>  <REMARK>
 VINA RESULT:      -3.5      1.931      2.471
  Name = 
  7 active torsions:
  status: ('A' for Active; 'I' for Inactive)
    1  A    between atoms: C_1  and  C_4
    2  A    between atoms: S_3  and  N_11
    3  A    between atoms: S_3  and  C_19
    4  A    between atoms: C_8  and  C_9
    5  A    between atoms: C_8  and  C_12
    6  A    between atoms: C_9  and  C_21
    7  A    between atoms: N_11  and  C_25
                            x       y       z     vdW  Elec       q    Type
                         _______ _______ _______ _____ _____    ______ ____

>  <TORSDO>
F 7

$$$$
=
 OpenBabel11052421443D

 30 33  0  0  1  0  0  0  0  0999 V2000
  162.3650  206.6680  149.8200 C   0  0  2  0  0  3  0  0  0  0  0  0
  161.3090  204.0560  152.1880 C   0  0  2  0  0  3  0  0  0  0  0  0
  161.7710  207.1850  153.3630 C   0  0  0  0  0  2  0  0  0  0  0  0
  162.0700  205.1780  150.0100 C   0  0  0  0  0  2  0  0  0  0  0  0
  160.6480  206.1770  153.4970 C   0  0  0  0  0  2  0  0  0  0  0  0
  160.2020  203.8830  153.0460 O   0  0  0  0  0  0  0  0  0  0  0  0
  162.8450  207.3690  151.0940 C   0  0  0  0  0  2  0  0  0  0  0  0
  161.6960  207.8340  151.9840 C   0  0  2  0  0  3  0  0  0  0  0  0
  161.2040  204.7570  153.5080 C   0  0  1  0  0  3  0  0  0  0  0  0
  159.6980  204.9730  150.5450 C   0  0  0  0  0  2  0  0  0  0  0  0
  160.9590  204.8810  150.9720 C   0  0  0  0  0  0  0  0  0  0  0  0
  161.2540  207.4140  149.0700 C   0  0  1  0  0  3  0  0  0  0  0  0
  161.7750  207.9720  147.8860 O   0  0  0  0  0  0  0  0  0  0  0  0
  160.9080  206.8760  147.7160 C   0  0  1  0  0  3  0  0  0  0  0  0
  160.8450  204.5490  147.2040 O   0  0  0  0  0  1  0  0  0  0  0  0
  161.7030  205.6460  147.2730 C   0  0  1  0  0  3  0  0  0  0  0  0
  162.3320  205.8740  145.9090 C   0  0  0  0  0  2  0  0  0  0  0  0
  161.2000  205.4590  143.7480 C   0  0  0  0  0  1  0  0  0  0  0  0
  161.8770  204.8070  144.9340 C   0  0  0  0  0  2  0  0  0  0  0  0
  161.6260  209.3000  152.0340 N   0  0  0  0  0  0  0  0  0  0  0  0
  161.9290  209.7760  150.8030 O   0  0  0  0  0  1  0  0  0  0  0  0
  159.9760  209.8430  152.4200 S   0  0  0  0  0  0  0  0  0  0  0  0
  157.6360  211.0820  154.5640 C   0  0  2  0  0  3  0  0  0  0  0  0
  158.2710  212.4980  153.5930 S   0  0  0  0  0  0  0  0  0  0  0  0
  156.2650  211.4220  155.1070 C   0  0  0  0  0  1  0  0  0  0  0  0
  160.4580  210.7290  153.9510 C   0  0  2  0  0  0  0  0  0  0  0  0
  160.0710  212.2050  153.8390 C   0  0  0  0  0  2  0  0  0  0  0  0
  158.5650  210.7420  155.7130 C   0  0  0  0  0  2  0  0  0  0  0  0
  161.9670  210.6610  154.0920 C   0  0  0  0  0  1  0  0  0  0  0  0
  159.8360  210.0710  155.1950 C   0  0  0  0  0  2  0  0  0  0  0  0
  1  4  1  1  0  0  0
  1  7  1  0  0  0  0
  2 11  1  6  0  0  0
  2  6  1  0  0  0  0
  2  9  1  0  0  0  0
  3  5  1  0  0  0  0
  4 11  1  0  0  0  0
  6  9  1  0  0  0  0
  7  8  1  0  0  0  0
  8 20  1  1  0  0  0
  8  3  1  0  0  0  0
  9  5  1  6  0  0  0
 10 11  2  0  0  0  0
 12 13  1  6  0  0  0
 12  1  1  0  0  0  0
 14 16  1  1  0  0  0
 14 13  1  0  0  0  0
 14 12  1  0  0  0  0
 16 15  1  6  0  0  0
 17 16  1  0  0  0  0
 18 19  1  0  0  0  0
 19 17  1  0  0  0  0
 20 22  1  0  0  0  0
 21 20  1  0  0  0  0
 22 26  1  0  0  0  0
 23 25  1  1  0  0  0
 23 28  1  0  0  0  0
 24 27  1  0  0  0  0
 24 23  1  0  0  0  0
 26 29  1  1  0  0  0
 26 30  1  0  0  0  0
 27 26  1  0  0  0  0
 30 28  1  0  0  0  0
M  END
>  <MODEL>
8

>  <REMARK>
 VINA RESULT:      -3.4      3.492      7.454
  Name = 
  7 active torsions:
  status: ('A' for Active; 'I' for Inactive)
    1  A    between atoms: C_1  and  C_4
    2  A    between atoms: S_3  and  N_11
    3  A    between atoms: S_3  and  C_19
    4  A    between atoms: C_8  and  C_9
    5  A    between atoms: C_8  and  C_12
    6  A    between atoms: C_9  and  C_21
    7  A    between atoms: N_11  and  C_25
                            x       y       z     vdW  Elec       q    Type
                         _______ _______ _______ _____ _____    ______ ____

>  <TORSDO>
F 7

$$$$
=
 OpenBabel11052421443D

 30 33  0  0  1  0  0  0  0  0999 V2000
  162.1880  209.9390  151.6790 C   0  0  2  0  0  3  0  0  0  0  0  0
  162.2530  206.2830  152.1010 C   0  0  2  0  0  3  0  0  0  0  0  0
  161.3240  208.1780  154.7330 C   0  0  0  0  0  2  0  0  0  0  0  0
  162.5390  208.5970  151.0310 C   0  0  0  0  0  2  0  0  0  0  0  0
  160.7240  206.9590  154.0640 C   0  0  0  0  0  2  0  0  0  0  0  0
  161.2940  205.3070  152.4490 O   0  0  0  0  0  0  0  0  0  0  0  0
  162.2900  209.9310  153.2060 C   0  0  0  0  0  2  0  0  0  0  0  0
  161.0260  209.4110  153.8840 C   0  0  2  0  0  3  0  0  0  0  0  0
  161.8230  206.0550  153.5180 C   0  0  1  0  0  3  0  0  0  0  0  0
  160.4560  207.3520  150.7710 C   0  0  0  0  0  2  0  0  0  0  0  0
  161.6260  207.4680  151.4030 C   0  0  0  0  0  0  0  0  0  0  0  0
  160.8890  210.5510  151.1370 C   0  0  1  0  0  3  0  0  0  0  0  0
  161.0390  211.9470  151.0180 O   0  0  0  0  0  0  0  0  0  0  0  0
  160.9960  211.2310  149.8070 C   0  0  1  0  0  3  0  0  0  0  0  0
  162.4510  210.1490  148.2600 O   0  0  0  0  0  1  0  0  0  0  0  0
  162.3850  211.2080  149.1650 C   0  0  1  0  0  3  0  0  0  0  0  0
  162.6600  212.5090  148.4310 C   0  0  0  0  0  2  0  0  0  0  0  0
  162.2680  213.3270  146.1280 C   0  0  0  0  0  1  0  0  0  0  0  0
  161.6120  212.7430  147.3610 C   0  0  0  0  0  2  0  0  0  0  0  0
  160.3460  210.4790  154.6280 N   0  0  0  0  0  0  0  0  0  0  0  0
  161.2090  211.5150  154.7550 O   0  0  0  0  0  1  0  0  0  0  0  0
  158.9320  211.0760  153.7290 S   0  0  0  0  0  0  0  0  0  0  0  0
  156.4780  213.4310  153.5260 C   0  0  2  0  0  3  0  0  0  0  0  0
  157.9750  214.2750  154.1600 S   0  0  0  0  0  0  0  0  0  0  0  0
  155.5570  214.4530  152.8960 C   0  0  0  0  0  1  0  0  0  0  0  0
  158.0290  211.6450  155.2200 C   0  0  2  0  0  0  0  0  0  0  0  0
  158.3880  213.1030  155.5170 C   0  0  0  0  0  2  0  0  0  0  0  0
  155.7440  212.7060  154.6370 C   0  0  0  0  0  2  0  0  0  0  0  0
  158.4830  210.8130  156.4040 C   0  0  0  0  0  1  0  0  0  0  0  0
  156.5110  211.4550  155.0600 C   0  0  0  0  0  2  0  0  0  0  0  0
  1  4  1  1  0  0  0
  1  7  1  0  0  0  0
  2 11  1  6  0  0  0
  2  6  1  0  0  0  0
  2  9  1  0  0  0  0
  4 11  1  0  0  0  0
  5  3  1  0  0  0  0
  6  9  1  0  0  0  0
  7  8  1  0  0  0  0
  8 20  1  1  0  0  0
  8  3  1  0  0  0  0
  9  5  1  6  0  0  0
 10 11  2  0  0  0  0
 12 13  1  1  0  0  0
 12  1  1  0  0  0  0
 14 16  1  1  0  0  0
 14 13  1  0  0  0  0
 14 12  1  0  0  0  0
 16 15  1  6  0  0  0
 17 16  1  0  0  0  0
 18 19  1  0  0  0  0
 19 17  1  0  0  0  0
 20 21  1  0  0  0  0
 22 20  1  0  0  0  0
 22 26  1  0  0  0  0
 23 25  1  1  0  0  0
 23 24  1  0  0  0  0
 23 28  1  0  0  0  0
 24 27  1  0  0  0  0
 26 27  1  0  0  0  0
 26 29  1  1  0  0  0
 28 30  1  0  0  0  0
 30 26  1  0  0  0  0
M  END
>  <MODEL>
9

>  <REMARK>
 VINA RESULT:      -3.3      2.769      6.471
  Name = 
  7 active torsions:
  status: ('A' for Active; 'I' for Inactive)
    1  A    between atoms: C_1  and  C_4
    2  A    between atoms: S_3  and  N_11
    3  A    between atoms: S_3  and  C_19
    4  A    between atoms: C_8  and  C_9
    5  A    between atoms: C_8  and  C_12
    6  A    between atoms: C_9  and  C_21
    7  A    between atoms: N_11  and  C_25
                            x       y       z     vdW  Elec       q    Type
                         _______ _______ _______ _____ _____    ______ ____

>  <TORSDO>
F 7

$$$$
