=
 OpenBabel11052422403D

 31 35  0  0  1  0  0  0  0  0999 V2000
  161.0090  200.5010  148.1910 C   0  0  2  0  0  3  0  0  0  0  0  0
  161.4290  204.3100  148.0810 C   0  0  0  0  0  0  0  0  0  0  0  0
  161.9510  204.6030  146.6700 C   0  0  1  0  0  3  0  0  0  0  0  0
  160.2090  204.0340  144.7850 C   0  0  0  0  0  2  0  0  0  0  0  0
  161.2380  202.9890  148.5700 C   0  0  0  0  0  0  0  0  0  0  0  0
  161.1540  200.3180  149.6910 C   0  0  0  0  0  2  0  0  0  0  0  0
  161.4700  203.6200  145.5820 C   0  0  0  0  0  2  0  0  0  0  0  0
  160.7370  205.1910  150.2650 C   0  0  0  0  0  0  0  0  0  0  0  0
  161.6490  199.3320  147.4720 C   0  0  0  0  0  1  0  0  0  0  0  0
  162.3000  206.9960  147.3320 C   0  0  0  0  0  2  0  0  0  0  0  0
  160.2140  205.3420  144.2350 O   0  0  0  0  0  0  0  0  0  0  0  0
  160.4790  203.8900  150.6980 C   0  0  0  0  0  3  0  0  0  0  0  0
  161.2450  205.3990  148.9750 C   0  0  0  0  0  0  0  0  0  0  0  0
  161.7060  201.7910  147.7780 C   0  0  0  0  0  2  0  0  0  0  0  0
  161.5090  205.6660  143.7850 C   0  0  0  0  0  2  0  0  0  0  0  0
  160.7470  202.7950  149.8830 C   0  0  0  0  0  0  0  0  0  0  0  0
  160.4000  201.4300  150.4100 C   0  0  0  0  0  2  0  0  0  0  0  0
  161.5880  206.7330  148.5730 N   0  0  0  0  0  2  0  0  0  0  0  0
  161.7450  206.0780  146.2670 C   0  0  1  0  0  3  0  0  0  0  0  0
  162.2750  206.4270  144.8760 C   0  0  0  0  0  2  0  0  0  0  0  0
  162.4280  206.1910  152.4660 O   0  0  0  0  0  0  0  0  0  0  0  0
  161.3560  206.7870  152.1780 C   0  0  0  0  0  0  0  0  0  0  0  0
  160.5070  206.3200  151.1220 N   0  0  0  0  0  2  0  0  0  0  0  0
  161.5670  210.8850  154.5640 C   0  0  0  0  0  2  0  0  0  0  0  0
  160.9050  207.6390  154.4360 C   0  0  0  0  0  2  0  0  0  0  0  0
  162.0930  209.3920  151.1620 C   0  0  0  0  0  1  0  0  0  0  0  0
  161.5080  209.7490  155.5890 C   0  0  0  0  0  2  0  0  0  0  0  0
  160.3830  208.7610  155.3230 C   0  0  0  0  0  2  0  0  0  0  0  0
  161.8490  209.2250  152.6540 C   0  0  2  0  0  3  0  0  0  0  0  0
  160.9460  208.0070  152.9500 C   0  0  1  0  0  3  0  0  0  0  0  0
  161.1640  210.4950  153.1410 C   0  0  0  0  0  2  0  0  0  0  0  0
  1  9  1  6  0  0  0
  1  6  1  0  0  0  0
  2  5  2  0  0  0  0
  2 13  1  0  0  0  0
  3  7  1  6  0  0  0
  3  2  1  0  0  0  0
  4  7  1  0  0  0  0
  5 16  1  0  0  0  0
  6 17  1  0  0  0  0
  8 12  1  0  0  0  0
  8 23  1  0  0  0  0
 10 18  1  0  0  0  0
 11  4  1  0  0  0  0
 13  8  2  0  0  0  0
 14  1  1  0  0  0  0
 14  5  1  0  0  0  0
 15 11  1  0  0  0  0
 15 20  1  0  0  0  0
 16 17  1  0  0  0  0
 16 12  2  0  0  0  0
 18 13  1  0  0  0  0
 19 20  1  6  0  0  0
 19  3  1  0  0  0  0
 19 10  1  0  0  0  0
 22 21  2  0  0  0  0
 23 22  1  0  0  0  0
 24 27  1  0  0  0  0
 25 28  1  0  0  0  0
 28 27  1  0  0  0  0
 29 26  1  6  0  0  0
 29 30  1  0  0  0  0
 29 31  1  0  0  0  0
 30 22  1  6  0  0  0
 30 25  1  0  0  0  0
 31 24  1  0  0  0  0
M  END
>  <MODEL>
1

>  <REMARK>
 VINA RESULT:      -8.1      0.000      0.000
  Name = 
  2 active torsions:
  status: ('A' for Active; 'I' for Inactive)
    1  A    between atoms: C_9  and  C_22
    2  A    between atoms: C_15  and  N_23
                            x       y       z     vdW  Elec       q    Type
                         _______ _______ _______ _____ _____    ______ ____

>  <TORSDO>
F 2

$$$$
=
 OpenBabel11052422403D

 31 35  0  0  1  0  0  0  0  0999 V2000
  160.8570  200.6960  148.4780 C   0  0  2  0  0  3  0  0  0  0  0  0
  161.4950  204.4620  148.1460 C   0  0  0  0  0  0  0  0  0  0  0  0
  161.9800  204.6480  146.7030 C   0  0  1  0  0  3  0  0  0  0  0  0
  160.1380  204.0870  144.9130 C   0  0  0  0  0  2  0  0  0  0  0  0
  161.2460  203.1820  148.7130 C   0  0  0  0  0  0  0  0  0  0  0  0
  161.0480  200.5850  149.9800 C   0  0  0  0  0  2  0  0  0  0  0  0
  161.4010  203.6400  145.6880 C   0  0  0  0  0  2  0  0  0  0  0  0
  160.9390  205.4970  150.3000 C   0  0  0  0  0  0  0  0  0  0  0  0
  161.4000  199.4550  147.8030 C   0  0  0  0  0  1  0  0  0  0  0  0
  162.4930  207.0470  147.2200 C   0  0  0  0  0  2  0  0  0  0  0  0
  160.1990  205.3610  144.2920 O   0  0  0  0  0  0  0  0  0  0  0  0
  160.6210  204.2380  150.8120 C   0  0  0  0  0  3  0  0  0  0  0  0
  161.4090  205.6060  148.9840 C   0  0  0  0  0  0  0  0  0  0  0  0
  161.6130  201.9180  147.9710 C   0  0  0  0  0  2  0  0  0  0  0  0
  161.4920  205.5820  143.7810 C   0  0  0  0  0  2  0  0  0  0  0  0
  160.7940  203.0880  150.0500 C   0  0  0  0  0  0  0  0  0  0  0  0
  160.3880  201.7760  150.6630 C   0  0  0  0  0  2  0  0  0  0  0  0
  161.8150  206.8940  148.4980 N   0  0  0  0  0  2  0  0  0  0  0  0
  161.8450  206.1090  146.2270 C   0  0  1  0  0  3  0  0  0  0  0  0
  162.3420  206.3520  144.8010 C   0  0  0  0  0  2  0  0  0  0  0  0
  162.7070  206.4470  152.4630 O   0  0  0  0  0  0  0  0  0  0  0  0
  161.6920  207.1220  152.1400 C   0  0  0  0  0  0  0  0  0  0  0  0
  160.8080  206.6820  151.1010 N   0  0  0  0  0  2  0  0  0  0  0  0
  159.3710  210.5220  154.5010 C   0  0  0  0  0  2  0  0  0  0  0  0
  160.9680  209.4430  151.8040 C   0  0  0  0  0  2  0  0  0  0  0  0
  160.6570  207.0130  154.8380 C   0  0  0  0  0  1  0  0  0  0  0  0
  159.3690  210.8980  153.0170 C   0  0  0  0  0  2  0  0  0  0  0  0
  160.7500  210.8340  152.3830 C   0  0  0  0  0  2  0  0  0  0  0  0
  160.3510  208.2300  153.9780 C   0  0  2  0  0  3  0  0  0  0  0  0
  161.3910  208.4080  152.8500 C   0  0  1  0  0  3  0  0  0  0  0  0
  160.3830  209.4460  154.8950 C   0  0  0  0  0  2  0  0  0  0  0  0
  1  9  1  6  0  0  0
  1  6  1  0  0  0  0
  2  5  2  0  0  0  0
  2 13  1  0  0  0  0
  3  7  1  6  0  0  0
  3  2  1  0  0  0  0
  4  7  1  0  0  0  0
  5 16  1  0  0  0  0
  6 17  1  0  0  0  0
  8 12  1  0  0  0  0
  8 23  1  0  0  0  0
 10 18  1  0  0  0  0
 11  4  1  0  0  0  0
 13  8  2  0  0  0  0
 14  1  1  0  0  0  0
 14  5  1  0  0  0  0
 15 11  1  0  0  0  0
 15 20  1  0  0  0  0
 16 17  1  0  0  0  0
 16 12  2  0  0  0  0
 18 13  1  0  0  0  0
 19 20  1  6  0  0  0
 19  3  1  0  0  0  0
 19 10  1  0  0  0  0
 22 21  2  0  0  0  0
 23 22  1  0  0  0  0
 24 31  1  0  0  0  0
 25 28  1  0  0  0  0
 25 30  1  0  0  0  0
 27 24  1  0  0  0  0
 28 27  1  0  0  0  0
 29 26  1  1  0  0  0
 29 31  1  0  0  0  0
 30 22  1  6  0  0  0
 30 29  1  0  0  0  0
M  END
>  <MODEL>
2

>  <REMARK>
 VINA RESULT:      -7.7      0.701      1.547
  Name = 
  2 active torsions:
  status: ('A' for Active; 'I' for Inactive)
    1  A    between atoms: C_9  and  C_22
    2  A    between atoms: C_15  and  N_23
                            x       y       z     vdW  Elec       q    Type
                         _______ _______ _______ _____ _____    ______ ____

>  <TORSDO>
F 2

$$$$
=
 OpenBabel11052422403D

 31 35  0  0  1  0  0  0  0  0999 V2000
  161.4440  212.9720  148.9000 C   0  0  2  0  0  3  0  0  0  0  0  0
  161.2890  210.0490  151.3750 C   0  0  0  0  0  0  0  0  0  0  0  0
  160.9480  210.6980  152.7220 C   0  0  1  0  0  3  0  0  0  0  0  0
  158.5540  211.7840  152.7670 C   0  0  0  0  0  2  0  0  0  0  0  0
  161.5440  210.8080  150.2000 C   0  0  0  0  0  0  0  0  0  0  0  0
  162.3800  212.3380  147.8860 C   0  0  0  0  0  2  0  0  0  0  0  0
  160.0840  211.9730  152.6280 C   0  0  0  0  0  2  0  0  0  0  0  0
  161.7580  207.9940  150.1180 C   0  0  0  0  0  0  0  0  0  0  0  0
  161.7400  214.4530  149.0080 C   0  0  0  0  0  1  0  0  0  0  0  0
  161.3080  208.4850  153.8420 C   0  0  0  0  0  2  0  0  0  0  0  0
  158.1130  211.0270  153.8830 O   0  0  0  0  0  0  0  0  0  0  0  0
  161.9230  208.7520  148.9590 C   0  0  0  0  0  3  0  0  0  0  0  0
  161.4790  208.6420  151.3300 C   0  0  0  0  0  0  0  0  0  0  0  0
  161.6590  212.3130  150.2560 C   0  0  0  0  0  2  0  0  0  0  0  0
  158.9250  211.3050  155.0000 C   0  0  0  0  0  2  0  0  0  0  0  0
  161.8470  210.1400  148.9900 C   0  0  0  0  0  0  0  0  0  0  0  0
  161.9960  210.8780  147.6880 C   0  0  0  0  0  2  0  0  0  0  0  0
  161.3970  207.8600  152.5300 N   0  0  0  0  0  2  0  0  0  0  0  0
  160.3870  209.6780  153.7340 C   0  0  1  0  0  3  0  0  0  0  0  0
  160.0560  210.2720  155.1030 C   0  0  0  0  0  2  0  0  0  0  0  0
  160.0940  206.0300  148.6760 O   0  0  0  0  0  0  0  0  0  0  0  0
  161.0640  205.6360  149.3770 C   0  0  0  0  0  0  0  0  0  0  0  0
  161.8850  206.5630  150.0980 N   0  0  0  0  0  2  0  0  0  0  0  0
  160.9280  200.9500  148.6330 C   0  0  0  0  0  2  0  0  0  0  0  0
  160.5440  203.5800  150.6140 C   0  0  0  0  0  2  0  0  0  0  0  0
  161.7720  204.2040  146.9660 C   0  0  0  0  0  1  0  0  0  0  0  0
  160.1130  201.2470  149.8940 C   0  0  0  0  0  2  0  0  0  0  0  0
  160.8570  202.1170  150.8960 C   0  0  0  0  0  2  0  0  0  0  0  0
  161.1630  203.4350  148.1290 C   0  0  2  0  0  3  0  0  0  0  0  0
  161.3740  204.1710  149.4710 C   0  0  1  0  0  3  0  0  0  0  0  0
  161.8550  202.0790  148.1800 C   0  0  0  0  0  2  0  0  0  0  0  0
  1  9  1  1  0  0  0
  1 14  1  0  0  0  0
  2  3  1  0  0  0  0
  3  7  1  6  0  0  0
  3 19  1  0  0  0  0
  4 11  1  0  0  0  0
  5 14  1  0  0  0  0
  5  2  2  0  0  0  0
  6  1  1  0  0  0  0
  7  4  1  0  0  0  0
  8 13  2  0  0  0  0
 11 15  1  0  0  0  0
 12 16  2  0  0  0  0
 12  8  1  0  0  0  0
 13  2  1  0  0  0  0
 13 18  1  0  0  0  0
 15 20  1  0  0  0  0
 16  5  1  0  0  0  0
 17  6  1  0  0  0  0
 17 16  1  0  0  0  0
 18 10  1  0  0  0  0
 19 10  1  1  0  0  0
 19 20  1  0  0  0  0
 21 22  2  0  0  0  0
 22 23  1  0  0  0  0
 23  8  1  0  0  0  0
 24 27  1  0  0  0  0
 25 28  1  0  0  0  0
 27 28  1  0  0  0  0
 29 26  1  6  0  0  0
 29 31  1  0  0  0  0
 29 30  1  0  0  0  0
 30 22  1  6  0  0  0
 30 25  1  0  0  0  0
 31 24  1  0  0  0  0
M  END
>  <MODEL>
3

>  <REMARK>
 VINA RESULT:      -7.6      2.618      8.862
  Name = 
  2 active torsions:
  status: ('A' for Active; 'I' for Inactive)
    1  A    between atoms: C_9  and  C_22
    2  A    between atoms: C_15  and  N_23
                            x       y       z     vdW  Elec       q    Type
                         _______ _______ _______ _____ _____    ______ ____

>  <TORSDO>
F 2

$$$$
