=
 OpenBabel11052422063D

 25 29  0  0  1  0  0  0  0  0999 V2000
  161.0780  204.4280  149.2110 C   0  0  0  0  0  0  0  0  0  0  0  0
  161.1410  205.2380  150.3490 C   0  0  0  0  0  0  0  0  0  0  0  0
  160.9930  202.4140  150.5550 C   0  0  0  0  0  3  0  0  0  0  0  0
  161.0040  204.7970  147.7620 C   0  0  2  0  0  3  0  0  0  0  0  0
  162.3150  204.1630  145.2840 C   0  0  0  0  0  3  0  0  0  0  0  0
  161.0750  203.2040  151.7140 C   0  0  0  0  0  3  0  0  0  0  0  0
  160.9520  203.4800  147.1120 N   0  0  0  0  0  0  0  0  0  0  0  0
  161.4540  203.2770  145.7890 C   0  0  0  0  0  3  0  0  0  0  0  0
  161.2200  205.3990  152.7800 C   0  0  0  0  0  0  0  0  0  0  0  0
  161.2320  204.8260  154.0110 F   0  0  0  0  0  0  0  0  0  0  0  0
  161.1970  206.6320  150.2560 C   0  0  0  0  0  3  0  0  0  0  0  0
  162.7740  205.3010  146.1100 C   0  0  0  0  0  3  0  0  0  0  0  0
  160.9900  203.0580  149.3200 C   0  0  0  0  0  0  0  0  0  0  0  0
  160.9150  202.4390  148.0500 N   0  0  0  0  0  2  0  0  0  0  0  0
  161.2800  206.7910  152.6740 C   0  0  0  0  0  3  0  0  0  0  0  0
  162.2060  205.5740  147.2910 C   0  0  0  0  0  3  0  0  0  0  0  0
  161.2620  207.4080  151.4170 C   0  0  0  0  0  0  0  0  0  0  0  0
  161.1470  204.6100  151.6230 C   0  0  0  0  0  0  0  0  0  0  0  0
  161.3480  208.8920  151.3150 C   0  0  0  0  0  2  0  0  0  0  0  0
  160.6150  209.5410  152.4740 C   0  0  2  0  0  3  0  0  0  0  0  0
  160.6790  211.0480  152.3140 C   0  0  2  0  0  3  0  0  0  0  0  0
  161.5930  210.3460  153.3010 C   0  0  0  0  0  2  0  0  0  0  0  0
  159.5350  211.6800  153.0360 C   0  0  0  0  0  0  0  0  0  0  0  0
  159.7620  212.7080  153.9430 O   0  0  0  0  0  1  0  0  0  0  0  0
  158.3620  211.2550  152.8570 O   0  0  0  0  0  0  0  0  0  0  0  0
  1 13  2  0  0  0  0
  1  2  1  0  0  0  0
  2 18  1  0  0  0  0
  3  6  2  0  0  0  0
  4 16  1  6  0  0  0
  4  1  1  0  0  0  0
  5  8  2  0  0  0  0
  5 12  1  0  0  0  0
  7  4  1  0  0  0  0
  7 14  1  0  0  0  0
  8  7  1  0  0  0  0
  9 10  1  0  0  0  0
 11  2  2  0  0  0  0
 11 17  1  0  0  0  0
 12 16  2  0  0  0  0
 13  3  1  0  0  0  0
 14 13  1  0  0  0  0
 15  9  1  0  0  0  0
 17 15  2  0  0  0  0
 18  6  1  0  0  0  0
 18  9  2  0  0  0  0
 19 17  1  0  0  0  0
 20 19  1  6  0  0  0
 20 22  1  0  0  0  0
 21 20  1  0  0  0  0
 21 23  1  1  0  0  0
 21 22  1  0  0  0  0
 23 24  1  0  0  0  0
 25 23  2  0  0  0  0
M  END
>  <MODEL>
1

>  <REMARK>
 VINA RESULT:     -10.1      0.000      0.000
  Name = 
  3 active torsions:
  status: ('A' for Active; 'I' for Inactive)
    1  A    between atoms: C_2  and  C_21
    2  A    between atoms: C_6  and  C_15
    3  A    between atoms: C_6  and  C_23
                            x       y       z     vdW  Elec       q    Type
                         _______ _______ _______ _____ _____    ______ ____

>  <TORSDO>
F 3

$$$$
=
 OpenBabel11052422063D

 25 29  0  0  1  0  0  0  0  0999 V2000
  161.0710  204.3530  149.1380 C   0  0  0  0  0  0  0  0  0  0  0  0
  161.1250  205.1620  150.2770 C   0  0  0  0  0  0  0  0  0  0  0  0
  161.0510  202.3350  150.4780 C   0  0  0  0  0  3  0  0  0  0  0  0
  160.9720  204.7230  147.6910 C   0  0  2  0  0  3  0  0  0  0  0  0
  162.2730  204.1270  145.1980 C   0  0  0  0  0  3  0  0  0  0  0  0
  161.1250  203.1240  151.6380 C   0  0  0  0  0  3  0  0  0  0  0  0
  160.9470  203.4060  147.0390 N   0  0  0  0  0  0  0  0  0  0  0  0
  161.4390  203.2180  145.7090 C   0  0  0  0  0  3  0  0  0  0  0  0
  161.2250  205.3200  152.7080 C   0  0  0  0  0  0  0  0  0  0  0  0
  161.2660  204.7460  153.9370 F   0  0  0  0  0  0  0  0  0  0  0  0
  161.1450  206.5570  150.1860 C   0  0  0  0  0  3  0  0  0  0  0  0
  162.7120  205.2750  146.0210 C   0  0  0  0  0  3  0  0  0  0  0  0
  161.0180  202.9810  149.2450 C   0  0  0  0  0  0  0  0  0  0  0  0
  160.9460  202.3620  147.9740 N   0  0  0  0  0  2  0  0  0  0  0  0
  161.2500  206.7140  152.6030 C   0  0  0  0  0  3  0  0  0  0  0  0
  162.1490  205.5300  147.2090 C   0  0  0  0  0  3  0  0  0  0  0  0
  161.2020  207.3330  151.3490 C   0  0  0  0  0  0  0  0  0  0  0  0
  161.1610  204.5320  151.5500 C   0  0  0  0  0  0  0  0  0  0  0  0
  161.2500  208.8180  151.2480 C   0  0  0  0  0  2  0  0  0  0  0  0
  161.4330  209.4300  152.6250 C   0  0  2  0  0  3  0  0  0  0  0  0
  160.0990  209.9730  153.1020 C   0  0  2  0  0  3  0  0  0  0  0  0
  161.1550  210.9160  152.5560 C   0  0  0  0  0  2  0  0  0  0  0  0
  160.0840  210.0300  154.5940 C   0  0  0  0  0  0  0  0  0  0  0  0
  160.9850  209.2730  155.3330 O   0  0  0  0  0  1  0  0  0  0  0  0
  159.2250  210.7330  155.1910 O   0  0  0  0  0  0  0  0  0  0  0  0
  1 13  2  0  0  0  0
  1  2  1  0  0  0  0
  2 18  1  0  0  0  0
  3  6  2  0  0  0  0
  4 16  1  6  0  0  0
  4  1  1  0  0  0  0
  5  8  2  0  0  0  0
  5 12  1  0  0  0  0
  7  4  1  0  0  0  0
  7 14  1  0  0  0  0
  8  7  1  0  0  0  0
  9 10  1  0  0  0  0
 11  2  2  0  0  0  0
 11 17  1  0  0  0  0
 12 16  2  0  0  0  0
 13  3  1  0  0  0  0
 14 13  1  0  0  0  0
 15  9  1  0  0  0  0
 17 15  2  0  0  0  0
 18  6  1  0  0  0  0
 18  9  2  0  0  0  0
 19 17  1  0  0  0  0
 20 19  1  6  0  0  0
 20 21  1  0  0  0  0
 21 23  1  1  0  0  0
 22 20  1  0  0  0  0
 22 21  1  0  0  0  0
 23 25  2  0  0  0  0
 23 24  1  0  0  0  0
M  END
>  <MODEL>
2

>  <REMARK>
 VINA RESULT:      -9.9      1.041      1.118
  Name = 
  3 active torsions:
  status: ('A' for Active; 'I' for Inactive)
    1  A    between atoms: C_2  and  C_21
    2  A    between atoms: C_6  and  C_15
    3  A    between atoms: C_6  and  C_23
                            x       y       z     vdW  Elec       q    Type
                         _______ _______ _______ _____ _____    ______ ____

>  <TORSDO>
F 3

$$$$
=
 OpenBabel11052422063D

 25 29  0  0  1  0  0  0  0  0999 V2000
  161.0610  203.7480  148.1420 C   0  0  0  0  0  0  0  0  0  0  0  0
  161.1130  203.9160  149.5300 C   0  0  0  0  0  0  0  0  0  0  0  0
  160.9770  201.3360  148.3620 C   0  0  0  0  0  3  0  0  0  0  0  0
  160.9940  204.7630  147.0450 C   0  0  2  0  0  3  0  0  0  0  0  0
  162.3220  205.3900  144.5750 C   0  0  0  0  0  3  0  0  0  0  0  0
  161.0490  201.4770  149.7580 C   0  0  0  0  0  3  0  0  0  0  0  0
  160.9510  203.9160  145.8450 N   0  0  0  0  0  0  0  0  0  0  0  0
  161.4620  204.3690  144.5890 C   0  0  0  0  0  3  0  0  0  0  0  0
  161.1770  202.8970  151.7440 C   0  0  0  0  0  0  0  0  0  0  0  0
  161.1850  201.8070  152.5520 F   0  0  0  0  0  0  0  0  0  0  0  0
  161.1630  205.1860  150.1140 C   0  0  0  0  0  3  0  0  0  0  0  0
  162.7710  205.9970  145.8470 C   0  0  0  0  0  3  0  0  0  0  0  0
  160.9780  202.4910  147.5840 C   0  0  0  0  0  0  0  0  0  0  0  0
  160.9140  202.5530  146.1720 N   0  0  0  0  0  2  0  0  0  0  0  0
  161.2310  204.1720  152.3150 C   0  0  0  0  0  3  0  0  0  0  0  0
  162.1940  205.6720  147.0110 C   0  0  0  0  0  3  0  0  0  0  0  0
  161.2170  205.3140  151.5050 C   0  0  0  0  0  0  0  0  0  0  0  0
  161.1150  202.7560  150.3500 C   0  0  0  0  0  0  0  0  0  0  0  0
  161.2970  206.6670  152.1240 C   0  0  0  0  0  2  0  0  0  0  0  0
  160.9190  207.7290  151.1090 C   0  0  2  0  0  3  0  0  0  0  0  0
  162.0670  208.7120  150.9770 C   0  0  2  0  0  3  0  0  0  0  0  0
  160.8420  209.0760  151.7950 C   0  0  0  0  0  2  0  0  0  0  0  0
  162.0070  209.3800  149.6420 C   0  0  0  0  0  0  0  0  0  0  0  0
  162.1520  210.7580  149.5420 O   0  0  0  0  0  1  0  0  0  0  0  0
  161.7840  208.7000  148.6050 O   0  0  0  0  0  0  0  0  0  0  0  0
  1  2  1  0  0  0  0
  2 11  2  0  0  0  0
  2 18  1  0  0  0  0
  3  6  2  0  0  0  0
  4 16  1  6  0  0  0
  4  1  1  0  0  0  0
  5  8  2  0  0  0  0
  5 12  1  0  0  0  0
  6 18  1  0  0  0  0
  7 14  1  0  0  0  0
  7  4  1  0  0  0  0
  8  7  1  0  0  0  0
  9 15  1  0  0  0  0
  9 10  1  0  0  0  0
 11 17  1  0  0  0  0
 12 16  2  0  0  0  0
 13  1  2  0  0  0  0
 13  3  1  0  0  0  0
 14 13  1  0  0  0  0
 17 19  1  0  0  0  0
 17 15  2  0  0  0  0
 18  9  2  0  0  0  0
 20 22  1  0  0  0  0
 20 19  1  1  0  0  0
 21 23  1  6  0  0  0
 21 20  1  0  0  0  0
 21 22  1  0  0  0  0
 24 23  1  0  0  0  0
 25 23  2  0  0  0  0
M  END
>  <MODEL>
3

>  <REMARK>
 VINA RESULT:      -9.6      2.023      2.691
  Name = 
  3 active torsions:
  status: ('A' for Active; 'I' for Inactive)
    1  A    between atoms: C_2  and  C_21
    2  A    between atoms: C_6  and  C_15
    3  A    between atoms: C_6  and  C_23
                            x       y       z     vdW  Elec       q    Type
                         _______ _______ _______ _____ _____    ______ ____

>  <TORSDO>
F 3

$$$$
=
 OpenBabel11052422063D

 25 29  0  0  1  0  0  0  0  0999 V2000
  161.0250  205.3570  150.0300 C   0  0  0  0  0  0  0  0  0  0  0  0
  161.0370  206.2830  151.0780 C   0  0  0  0  0  0  0  0  0  0  0  0
  161.0930  203.4920  151.5760 C   0  0  0  0  0  3  0  0  0  0  0  0
  160.9150  205.5680  148.5530 C   0  0  2  0  0  3  0  0  0  0  0  0
  162.2500  204.7730  146.1350 C   0  0  0  0  0  3  0  0  0  0  0  0
  161.1260  204.4020  152.6460 C   0  0  0  0  0  3  0  0  0  0  0  0
  160.9520  204.1900  148.0430 N   0  0  0  0  0  0  0  0  0  0  0  0
  161.4580  203.8860  146.7400 C   0  0  0  0  0  3  0  0  0  0  0  0
  161.1210  206.7010  153.4790 C   0  0  0  0  0  0  0  0  0  0  0  0
  161.1840  206.2610  154.7610 F   0  0  0  0  0  0  0  0  0  0  0  0
  160.9940  207.6610  150.8410 C   0  0  0  0  0  3  0  0  0  0  0  0
  162.6330  206.0200  146.8320 C   0  0  0  0  0  3  0  0  0  0  0  0
  161.0350  204.0030  150.2820 C   0  0  0  0  0  0  0  0  0  0  0  0
  160.9960  203.2520  149.0830 N   0  0  0  0  0  2  0  0  0  0  0  0
  161.0820  208.0750  153.2280 C   0  0  0  0  0  3  0  0  0  0  0  0
  162.0550  206.3740  147.9870 C   0  0  0  0  0  3  0  0  0  0  0  0
  161.0110  208.5560  151.9150 C   0  0  0  0  0  0  0  0  0  0  0  0
  161.0970  205.7930  152.4100 C   0  0  0  0  0  0  0  0  0  0  0  0
  160.9910  210.0230  151.6590 C   0  0  0  0  0  2  0  0  0  0  0  0
  160.5230  210.7640  152.8980 C   0  0  2  0  0  3  0  0  0  0  0  0
  159.0570  211.1180  152.7340 C   0  0  2  0  0  3  0  0  0  0  0  0
  160.1240  212.1740  152.5210 C   0  0  0  0  0  2  0  0  0  0  0  0
  158.4280  211.2900  154.0780 C   0  0  0  0  0  0  0  0  0  0  0  0
  158.9180  210.5920  155.1750 O   0  0  0  0  0  1  0  0  0  0  0  0
  157.4230  212.0380  154.2140 O   0  0  0  0  0  0  0  0  0  0  0  0
  1 13  2  0  0  0  0
  1  2  1  0  0  0  0
  2 18  1  0  0  0  0
  3  6  2  0  0  0  0
  4 16  1  6  0  0  0
  4  1  1  0  0  0  0
  5  8  2  0  0  0  0
  5 12  1  0  0  0  0
  7  4  1  0  0  0  0
  7 14  1  0  0  0  0
  8  7  1  0  0  0  0
  9 10  1  0  0  0  0
 11  2  2  0  0  0  0
 11 17  1  0  0  0  0
 12 16  2  0  0  0  0
 13  3  1  0  0  0  0
 14 13  1  0  0  0  0
 15  9  1  0  0  0  0
 17 15  2  0  0  0  0
 18  6  1  0  0  0  0
 18  9  2  0  0  0  0
 19 17  1  0  0  0  0
 20 19  1  6  0  0  0
 21 20  1  0  0  0  0
 21 23  1  1  0  0  0
 22 21  1  0  0  0  0
 22 20  1  0  0  0  0
 23 25  2  0  0  0  0
 23 24  1  0  0  0  0
M  END
>  <MODEL>
4

>  <REMARK>
 VINA RESULT:      -9.6      1.148      1.483
  Name = 
  3 active torsions:
  status: ('A' for Active; 'I' for Inactive)
    1  A    between atoms: C_2  and  C_21
    2  A    between atoms: C_6  and  C_15
    3  A    between atoms: C_6  and  C_23
                            x       y       z     vdW  Elec       q    Type
                         _______ _______ _______ _____ _____    ______ ____

>  <TORSDO>
F 3

$$$$
=
 OpenBabel11052422063D

 25 29  0  0  1  0  0  0  0  0999 V2000
  160.8950  208.9690  153.4870 C   0  0  0  0  0  0  0  0  0  0  0  0
  161.0240  207.9200  152.5720 C   0  0  0  0  0  0  0  0  0  0  0  0
  160.9550  207.4390  155.3660 C   0  0  0  0  0  3  0  0  0  0  0  0
  160.8430  210.4470  153.2640 C   0  0  2  0  0  3  0  0  0  0  0  0
  159.2230  212.7050  154.0020 C   0  0  0  0  0  3  0  0  0  0  0  0
  161.0650  206.3650  154.4660 C   0  0  0  0  0  3  0  0  0  0  0  0
  160.7140  210.9600  154.6360 N   0  0  0  0  0  0  0  0  0  0  0  0
  160.0570  212.2000  154.9140 C   0  0  0  0  0  3  0  0  0  0  0  0
  161.2220  205.5220  152.1770 C   0  0  0  0  0  0  0  0  0  0  0  0
  161.2940  204.2440  152.6280 F   0  0  0  0  0  0  0  0  0  0  0  0
  161.0750  208.1500  151.1940 C   0  0  0  0  0  3  0  0  0  0  0  0
  158.9530  211.9600  152.7530 C   0  0  0  0  0  3  0  0  0  0  0  0
  160.8800  208.7280  154.8430 C   0  0  0  0  0  0  0  0  0  0  0  0
  160.7640  209.9290  155.5830 N   0  0  0  0  0  2  0  0  0  0  0  0
  161.2670  205.7650  150.8010 C   0  0  0  0  0  3  0  0  0  0  0  0
  159.6660  210.8750  152.4260 C   0  0  0  0  0  3  0  0  0  0  0  0
  161.2010  207.0740  150.3090 C   0  0  0  0  0  0  0  0  0  0  0  0
  161.1020  206.5930  153.0740 C   0  0  0  0  0  0  0  0  0  0  0  0
  161.2290  207.3200  148.8400 C   0  0  0  0  0  2  0  0  0  0  0  0
  160.8030  206.0710  148.0920 C   0  0  2  0  0  3  0  0  0  0  0  0
  161.9360  205.6320  147.1830 C   0  0  2  0  0  3  0  0  0  0  0  0
  160.7400  206.3680  146.6100 C   0  0  0  0  0  2  0  0  0  0  0  0
  161.8200  204.1690  146.9040 C   0  0  0  0  0  0  0  0  0  0  0  0
  161.8940  203.6980  145.5980 O   0  0  0  0  0  0  0  0  0  0  0  0
  161.6110  203.3600  147.8460 O   0  0  0  0  0  1  0  0  0  0  0  0
  1 13  1  0  0  0  0
  2 18  1  0  0  0  0
  2  1  2  0  0  0  0
  4 16  1  6  0  0  0
  4  1  1  0  0  0  0
  4  7  1  0  0  0  0
  5  8  2  0  0  0  0
  6  3  1  0  0  0  0
  7  8  1  0  0  0  0
  7 14  1  0  0  0  0
  9 10  1  0  0  0  0
  9 18  1  0  0  0  0
 11  2  1  0  0  0  0
 12  5  1  0  0  0  0
 13  3  2  0  0  0  0
 13 14  1  0  0  0  0
 15  9  2  0  0  0  0
 16 12  2  0  0  0  0
 17 15  1  0  0  0  0
 17 11  2  0  0  0  0
 18  6  2  0  0  0  0
 19 17  1  0  0  0  0
 20 19  1  1  0  0  0
 21 23  1  6  0  0  0
 21 20  1  0  0  0  0
 22 21  1  0  0  0  0
 22 20  1  0  0  0  0
 23 25  1  0  0  0  0
 24 23  2  0  0  0  0
M  END
>  <MODEL>
5

>  <REMARK>
 VINA RESULT:      -9.4      4.466      7.703
  Name = 
  3 active torsions:
  status: ('A' for Active; 'I' for Inactive)
    1  A    between atoms: C_2  and  C_21
    2  A    between atoms: C_6  and  C_15
    3  A    between atoms: C_6  and  C_23
                            x       y       z     vdW  Elec       q    Type
                         _______ _______ _______ _____ _____    ______ ____

>  <TORSDO>
F 3

$$$$
=
 OpenBabel11052422063D

 25 29  0  0  1  0  0  0  0  0999 V2000
  161.1210  207.9500  151.4360 C   0  0  0  0  0  0  0  0  0  0  0  0
  161.2350  207.0150  150.4020 C   0  0  0  0  0  0  0  0  0  0  0  0
  162.0300  209.7130  150.0440 C   0  0  0  0  0  3  0  0  0  0  0  0
  160.5480  207.8090  152.8100 C   0  0  2  0  0  3  0  0  0  0  0  0
  161.2700  208.3610  155.5370 C   0  0  0  0  0  3  0  0  0  0  0  0
  162.1740  208.7890  148.9960 C   0  0  0  0  0  3  0  0  0  0  0  0
  160.7320  209.1590  153.3600 N   0  0  0  0  0  0  0  0  0  0  0  0
  160.8950  209.3820  154.7640 C   0  0  0  0  0  3  0  0  0  0  0  0
  161.9140  206.5240  148.1130 C   0  0  0  0  0  0  0  0  0  0  0  0
  162.4360  206.9040  146.9190 F   0  0  0  0  0  0  0  0  0  0  0  0
  160.8300  205.6870  150.5660 C   0  0  0  0  0  3  0  0  0  0  0  0
  161.5590  207.0420  154.9340 C   0  0  0  0  0  3  0  0  0  0  0  0
  161.4940  209.2630  151.2480 C   0  0  0  0  0  0  0  0  0  0  0  0
  161.2740  210.0370  152.4120 N   0  0  0  0  0  2  0  0  0  0  0  0
  161.5100  205.1980  148.2910 C   0  0  0  0  0  3  0  0  0  0  0  0
  161.2760  206.7910  153.6490 C   0  0  0  0  0  3  0  0  0  0  0  0
  160.9620  204.7800  149.5090 C   0  0  0  0  0  0  0  0  0  0  0  0
  161.7800  207.4440  149.1620 C   0  0  0  0  0  0  0  0  0  0  0  0
  160.5540  203.3590  149.6940 C   0  0  0  0  0  2  0  0  0  0  0  0
  161.3050  202.4680  148.7230 C   0  0  2  0  0  3  0  0  0  0  0  0
  160.3100  201.5760  148.0060 C   0  0  2  0  0  3  0  0  0  0  0  0
  161.1480  201.0220  149.1420 C   0  0  0  0  0  2  0  0  0  0  0  0
  160.8760  201.1430  146.6930 C   0  0  0  0  0  0  0  0  0  0  0  0
  161.2980  199.8310  146.5120 O   0  0  0  0  0  1  0  0  0  0  0  0
  161.0130  201.9760  145.7580 O   0  0  0  0  0  0  0  0  0  0  0  0
  1  4  1  0  0  0  0
  2 11  1  0  0  0  0
  2  1  2  0  0  0  0
  3 13  2  0  0  0  0
  4  7  1  0  0  0  0
  4 16  1  1  0  0  0
  6 18  2  0  0  0  0
  6  3  1  0  0  0  0
  7  8  1  0  0  0  0
  8  5  2  0  0  0  0
  9 15  2  0  0  0  0
  9 18  1  0  0  0  0
 10  9  1  0  0  0  0
 12  5  1  0  0  0  0
 13  1  1  0  0  0  0
 13 14  1  0  0  0  0
 14  7  1  0  0  0  0
 15 17  1  0  0  0  0
 16 12  2  0  0  0  0
 17 19  1  0  0  0  0
 17 11  2  0  0  0  0
 18  2  1  0  0  0  0
 20 22  1  0  0  0  0
 20 19  1  1  0  0  0
 21 23  1  6  0  0  0
 21 20  1  0  0  0  0
 21 22  1  0  0  0  0
 24 23  1  0  0  0  0
 25 23  2  0  0  0  0
M  END
>  <MODEL>
6

>  <REMARK>
 VINA RESULT:      -9.4      4.849      8.164
  Name = 
  3 active torsions:
  status: ('A' for Active; 'I' for Inactive)
    1  A    between atoms: C_2  and  C_21
    2  A    between atoms: C_6  and  C_15
    3  A    between atoms: C_6  and  C_23
                            x       y       z     vdW  Elec       q    Type
                         _______ _______ _______ _____ _____    ______ ____

>  <TORSDO>
F 3

$$$$
=
 OpenBabel11052422063D

 25 29  0  0  1  0  0  0  0  0999 V2000
  161.4920  204.9770  149.1350 C   0  0  0  0  0  0  0  0  0  0  0  0
  161.4450  205.9650  150.1240 C   0  0  0  0  0  0  0  0  0  0  0  0
  161.6410  206.6380  147.3750 C   0  0  0  0  0  3  0  0  0  0  0  0
  161.5240  203.4870  149.2560 C   0  0  2  0  0  3  0  0  0  0  0  0
  160.1620  201.1860  148.2000 C   0  0  0  0  0  3  0  0  0  0  0  0
  161.5760  207.6500  148.3480 C   0  0  0  0  0  3  0  0  0  0  0  0
  161.5810  203.0650  147.8490 N   0  0  0  0  0  0  0  0  0  0  0  0
  161.0490  201.8080  147.4210 C   0  0  0  0  0  3  0  0  0  0  0  0
  161.4240  208.3360  150.6890 C   0  0  0  0  0  0  0  0  0  0  0  0
  161.4510  209.6460  150.3320 F   0  0  0  0  0  0  0  0  0  0  0  0
  161.3650  205.6410  151.4810 C   0  0  0  0  0  3  0  0  0  0  0  0
  159.7060  201.8210  149.4550 C   0  0  0  0  0  3  0  0  0  0  0  0
  161.6040  205.3130  147.8030 C   0  0  0  0  0  0  0  0  0  0  0  0
  161.6570  204.1630  146.9800 N   0  0  0  0  0  2  0  0  0  0  0  0
  161.3390  207.9990  152.0430 C   0  0  0  0  0  3  0  0  0  0  0  0
  160.2990  202.9240  149.9290 C   0  0  0  0  0  3  0  0  0  0  0  0
  161.3170  206.6570  152.4410 C   0  0  0  0  0  0  0  0  0  0  0  0
  161.4800  207.3260  149.7180 C   0  0  0  0  0  0  0  0  0  0  0  0
  161.2060  206.3100  153.8850 C   0  0  0  0  0  2  0  0  0  0  0  0
  160.4900  207.4170  154.6360 C   0  0  2  0  0  3  0  0  0  0  0  0
  161.3640  207.8720  155.7900 C   0  0  2  0  0  3  0  0  0  0  0  0
  160.1830  206.9540  156.0440 C   0  0  0  0  0  2  0  0  0  0  0  0
  161.0130  209.2750  156.1650 C   0  0  0  0  0  0  0  0  0  0  0  0
  160.2370  210.0530  155.3150 O   0  0  0  0  0  0  0  0  0  0  0  0
  161.4540  209.7720  157.2350 O   0  0  0  0  0  1  0  0  0  0  0  0
  1  4  1  0  0  0  0
  1  2  1  0  0  0  0
  2 11  1  0  0  0  0
  3 13  1  0  0  0  0
  3  6  2  0  0  0  0
  4 16  1  6  0  0  0
  5 12  1  0  0  0  0
  6 18  1  0  0  0  0
  7  4  1  0  0  0  0
  8  7  1  0  0  0  0
  8  5  2  0  0  0  0
  9 15  2  0  0  0  0
 10  9  1  0  0  0  0
 11 17  2  0  0  0  0
 12 16  2  0  0  0  0
 13  1  2  0  0  0  0
 14 13  1  0  0  0  0
 14  7  1  0  0  0  0
 15 17  1  0  0  0  0
 17 19  1  0  0  0  0
 18  2  2  0  0  0  0
 18  9  1  0  0  0  0
 20 19  1  6  0  0  0
 20 21  1  0  0  0  0
 20 22  1  0  0  0  0
 21 22  1  0  0  0  0
 21 23  1  1  0  0  0
 23 25  1  0  0  0  0
 24 23  2  0  0  0  0
M  END
>  <MODEL>
7

>  <REMARK>
 VINA RESULT:      -9.2      2.335      3.725
  Name = 
  3 active torsions:
  status: ('A' for Active; 'I' for Inactive)
    1  A    between atoms: C_2  and  C_21
    2  A    between atoms: C_6  and  C_15
    3  A    between atoms: C_6  and  C_23
                            x       y       z     vdW  Elec       q    Type
                         _______ _______ _______ _____ _____    ______ ____

>  <TORSDO>
F 3

$$$$
=
 OpenBabel11052422063D

 25 29  0  0  1  0  0  0  0  0999 V2000
  160.9750  206.3930  150.9490 C   0  0  0  0  0  0  0  0  0  0  0  0
  160.9520  207.2570  152.0490 C   0  0  0  0  0  0  0  0  0  0  0  0
  161.1430  204.4480  152.3850 C   0  0  0  0  0  3  0  0  0  0  0  0
  160.8430  206.6820  149.4870 C   0  0  2  0  0  3  0  0  0  0  0  0
  162.1960  206.0920  147.0210 C   0  0  0  0  0  3  0  0  0  0  0  0
  161.1420  205.2950  153.5060 C   0  0  0  0  0  3  0  0  0  0  0  0
  160.9420  205.3390  148.8980 N   0  0  0  0  0  0  0  0  0  0  0  0
  161.4510  205.1350  147.5780 C   0  0  0  0  0  3  0  0  0  0  0  0
  161.0350  207.5400  154.4690 C   0  0  0  0  0  0  0  0  0  0  0  0
  161.1280  207.0320  155.7240 F   0  0  0  0  0  0  0  0  0  0  0  0
  160.8410  208.6420  151.8920 C   0  0  0  0  0  3  0  0  0  0  0  0
  162.5250  207.3140  147.7870 C   0  0  0  0  0  3  0  0  0  0  0  0
  161.0510  205.0290  151.1230 C   0  0  0  0  0  0  0  0  0  0  0  0
  161.0380  204.3460  149.8830 N   0  0  0  0  0  2  0  0  0  0  0  0
  160.9280  208.9240  154.2980 C   0  0  0  0  0  3  0  0  0  0  0  0
  161.9390  207.5730  148.9630 C   0  0  0  0  0  3  0  0  0  0  0  0
  160.8240  209.4740  153.0150 C   0  0  0  0  0  0  0  0  0  0  0  0
  161.0450  206.6950  153.3500 C   0  0  0  0  0  0  0  0  0  0  0  0
  160.7320  210.9510  152.8440 C   0  0  0  0  0  2  0  0  0  0  0  0
  159.3290  211.3430  152.4220 C   0  0  2  0  0  3  0  0  0  0  0  0
  159.0250  212.7310  152.9540 C   0  0  2  0  0  3  0  0  0  0  0  0
  158.4590  211.5060  153.6490 C   0  0  0  0  0  2  0  0  0  0  0  0
  157.9720  213.3740  152.1130 C   0  0  0  0  0  0  0  0  0  0  0  0
  157.9090  213.1130  150.7500 O   0  0  0  0  0  0  0  0  0  0  0  0
  157.1610  214.1890  152.6290 O   0  0  0  0  0  1  0  0  0  0  0  0
  1 13  2  0  0  0  0
  1  2  1  0  0  0  0
  2 18  1  0  0  0  0
  3  6  2  0  0  0  0
  4 16  1  6  0  0  0
  4  1  1  0  0  0  0
  5  8  2  0  0  0  0
  5 12  1  0  0  0  0
  7  4  1  0  0  0  0
  7 14  1  0  0  0  0
  8  7  1  0  0  0  0
  9 10  1  0  0  0  0
 11  2  2  0  0  0  0
 11 17  1  0  0  0  0
 12 16  2  0  0  0  0
 13  3  1  0  0  0  0
 14 13  1  0  0  0  0
 15  9  1  0  0  0  0
 17 15  2  0  0  0  0
 18  6  1  0  0  0  0
 18  9  2  0  0  0  0
 19 17  1  0  0  0  0
 20 19  1  1  0  0  0
 20 21  1  0  0  0  0
 20 22  1  0  0  0  0
 21 23  1  6  0  0  0
 21 22  1  0  0  0  0
 23 25  1  0  0  0  0
 24 23  2  0  0  0  0
M  END
>  <MODEL>
8

>  <REMARK>
 VINA RESULT:      -9.0      1.813      2.731
  Name = 
  3 active torsions:
  status: ('A' for Active; 'I' for Inactive)
    1  A    between atoms: C_2  and  C_21
    2  A    between atoms: C_6  and  C_15
    3  A    between atoms: C_6  and  C_23
                            x       y       z     vdW  Elec       q    Type
                         _______ _______ _______ _____ _____    ______ ____

>  <TORSDO>
F 3

$$$$
=
 OpenBabel11052422063D

 25 29  0  0  1  0  0  0  0  0999 V2000
  161.8650  207.1340  151.0790 C   0  0  0  0  0  0  0  0  0  0  0  0
  161.5500  205.8110  150.7510 C   0  0  0  0  0  0  0  0  0  0  0  0
  161.2070  206.7990  153.3870 C   0  0  0  0  0  3  0  0  0  0  0  0
  162.4650  208.2220  150.2450 C   0  0  2  0  0  3  0  0  0  0  0  0
  161.9670  210.9690  149.5630 C   0  0  0  0  0  3  0  0  0  0  0  0
  160.8640  205.4720  153.0790 C   0  0  0  0  0  3  0  0  0  0  0  0
  162.5360  209.3370  151.2000 N   0  0  0  0  0  0  0  0  0  0  0  0
  162.4750  210.6990  150.7680 C   0  0  0  0  0  3  0  0  0  0  0  0
  160.6990  203.6420  151.4660 C   0  0  0  0  0  0  0  0  0  0  0  0
  160.1970  202.8160  152.4200 F   0  0  0  0  0  0  0  0  0  0  0  0
  161.7320  205.3120  149.4570 C   0  0  0  0  0  3  0  0  0  0  0  0
  161.4330  209.8750  148.7230 C   0  0  0  0  0  3  0  0  0  0  0  0
  161.7120  207.6000  152.3660 C   0  0  0  0  0  0  0  0  0  0  0  0
  162.1090  208.9540  152.4790 N   0  0  0  0  0  2  0  0  0  0  0  0
  160.8810  203.1560  150.1680 C   0  0  0  0  0  3  0  0  0  0  0  0
  161.6130  208.5920  149.0590 C   0  0  0  0  0  3  0  0  0  0  0  0
  161.4020  203.9850  149.1680 C   0  0  0  0  0  0  0  0  0  0  0  0
  161.0320  204.9690  151.7710 C   0  0  0  0  0  0  0  0  0  0  0  0
  161.5720  203.4630  147.7820 C   0  0  0  0  0  2  0  0  0  0  0  0
  161.7810  204.6110  146.8120 C   0  0  2  0  0  3  0  0  0  0  0  0
  161.3940  204.1520  145.4190 C   0  0  2  0  0  3  0  0  0  0  0  0
  162.8560  204.2380  145.8150 C   0  0  0  0  0  2  0  0  0  0  0  0
  161.0180  205.3340  144.5860 C   0  0  0  0  0  0  0  0  0  0  0  0
  160.1660  206.3060  145.0950 O   0  0  0  0  0  1  0  0  0  0  0  0
  161.4400  205.4330  143.4030 O   0  0  0  0  0  0  0  0  0  0  0  0
  1 13  1  0  0  0  0
  2  1  2  0  0  0  0
  2 18  1  0  0  0  0
  4 16  1  6  0  0  0
  4  1  1  0  0  0  0
  4  7  1  0  0  0  0
  5  8  2  0  0  0  0
  6  3  1  0  0  0  0
  7 14  1  0  0  0  0
  8  7  1  0  0  0  0
  9 18  1  0  0  0  0
  9 10  1  0  0  0  0
 11  2  1  0  0  0  0
 12 16  2  0  0  0  0
 12  5  1  0  0  0  0
 13 14  1  0  0  0  0
 13  3  2  0  0  0  0
 15  9  2  0  0  0  0
 17 11  2  0  0  0  0
 17 15  1  0  0  0  0
 18  6  2  0  0  0  0
 19 17  1  0  0  0  0
 20 19  1  1  0  0  0
 21 23  1  6  0  0  0
 21 22  1  0  0  0  0
 21 20  1  0  0  0  0
 22 20  1  0  0  0  0
 23 24  1  0  0  0  0
 25 23  2  0  0  0  0
M  END
>  <MODEL>
9

>  <REMARK>
 VINA RESULT:      -8.9      3.921      6.664
  Name = 
  3 active torsions:
  status: ('A' for Active; 'I' for Inactive)
    1  A    between atoms: C_2  and  C_21
    2  A    between atoms: C_6  and  C_15
    3  A    between atoms: C_6  and  C_23
                            x       y       z     vdW  Elec       q    Type
                         _______ _______ _______ _____ _____    ______ ____

>  <TORSDO>
F 3

$$$$
