=
 OpenBabel11062409593D

 43 50  0  0  1  0  0  0  0  0999 V2000
  160.7440  202.0860  149.3230 C   0  0  0  0  0  0  0  0  0  0  0  0
  161.3740  206.2500  152.1430 C   0  0  0  0  0  0  0  0  0  0  0  0
  161.7050  208.4020  150.3490 C   0  0  0  0  0  0  0  0  0  0  0  0
  160.9720  203.6410  151.1670 C   0  0  0  0  0  0  0  0  0  0  0  0
  160.9290  203.1290  148.4140 C   0  0  0  0  0  3  0  0  0  0  0  0
  160.5400  200.8240  148.8730 F   0  0  0  0  0  0  0  0  0  0  0  0
  161.1520  204.7080  150.2530 C   0  0  0  0  0  0  0  0  0  0  0  0
  160.7670  202.3410  150.6970 C   0  0  0  0  0  3  0  0  0  0  0  0
  161.1300  204.4330  148.8740 C   0  0  0  0  0  3  0  0  0  0  0  0
  161.5170  207.1000  149.8670 C   0  0  0  0  0  3  0  0  0  0  0  0
  161.3500  206.0170  150.7420 C   0  0  0  0  0  0  0  0  0  0  0  0
  161.1940  205.1730  153.0230 C   0  0  0  0  0  3  0  0  0  0  0  0
  161.5860  207.5530  152.6370 C   0  0  0  0  0  0  0  0  0  0  0  0
  161.7360  208.6140  151.7330 C   0  0  0  0  0  3  0  0  0  0  0  0
  160.9940  203.8810  152.5400 C   0  0  0  0  0  3  0  0  0  0  0  0
  161.6290  207.8170  154.1370 C   0  0  2  0  0  3  0  0  0  0  0  0
  160.5070  209.8770  153.5690 C   0  0  2  0  0  3  0  0  0  0  0  0
  160.4630  211.3080  154.0620 C   0  0  2  0  0  3  0  0  0  0  0  0
  159.3830  209.5110  154.4470 C   0  0  1  0  0  3  0  0  0  0  0  0
  160.4010  207.5580  154.7030 O   0  0  0  0  0  0  0  0  0  0  0  0
  160.7730  208.9310  154.7650 C   0  0  2  0  0  0  0  0  0  0  0  0
  159.3000  210.9370  154.9540 C   0  0  0  0  0  2  0  0  0  0  0  0
  159.0520  213.1070  153.1630 C   0  0  0  0  0  2  0  0  0  0  0  0
  160.0120  212.2090  152.9570 C   0  0  0  0  0  3  0  0  0  0  0  0
  161.8760  209.5050  149.4380 N   0  0  0  0  0  0  0  0  0  0  0  0
  161.9050  209.2840  147.9990 C   0  0  0  0  0  1  0  0  0  0  0  0
  161.9270  210.8830  149.9110 C   0  0  0  0  0  2  0  0  0  0  0  0
  161.9790  211.8440  148.7310 C   0  0  2  0  0  3  0  0  0  0  0  0
  163.3070  212.0730  148.3800 O   0  0  0  0  0  1  0  0  0  0  0  0
  161.3140  213.1710  149.0660 C   0  0  0  0  0  2  0  0  0  0  0  0
  159.9580  213.2370  148.5360 N   0  0  0  0  0  0  0  0  0  0  0  0
  158.2110  213.1670  147.1490 N   0  0  0  0  0  0  0  0  0  0  0  0
  158.8690  213.5820  149.2410 C   0  0  0  0  0  3  0  0  0  0  0  0
  159.5400  212.9930  147.2820 C   0  0  0  0  0  0  0  0  0  0  0  0
  157.7880  213.5340  148.3800 C   0  0  0  0  0  3  0  0  0  0  0  0
  160.4470  212.6080  146.1360 C   0  0  1  0  0  3  0  0  0  0  0  0
  159.7740  211.7780  145.2400 O   0  0  0  0  0  1  0  0  0  0  0  0
  161.0440  213.7470  145.4170 N   0  0  0  0  0  0  0  0  0  0  0  0
  162.2260  212.4400  142.3270 C   0  0  0  0  0  1  0  0  0  0  0  0
  163.1480  213.3740  144.3690 N   0  0  0  0  0  2  0  0  0  0  0  0
  162.1630  213.5760  143.3240 C   0  0  2  0  0  3  0  0  0  0  0  0
  162.4950  213.8130  145.5950 C   0  0  0  0  0  2  0  0  0  0  0  0
  160.8130  213.5860  143.9920 C   0  0  0  0  0  2  0  0  0  0  0  0
  1  8  1  0  0  0  0
  2 13  1  0  0  0  0
  2 12  1  0  0  0  0
  3 14  1  0  0  0  0
  4 15  1  0  0  0  0
  5  9  1  0  0  0  0
  5  1  2  0  0  0  0
  6  1  1  0  0  0  0
  7 11  1  0  0  0  0
  7  4  1  0  0  0  0
  8  4  2  0  0  0  0
  9  7  2  0  0  0  0
 10  3  2  0  0  0  0
 10 11  1  0  0  0  0
 11  2  2  0  0  0  0
 14 13  2  0  0  0  0
 15 12  2  0  0  0  0
 16 13  1  6  0  0  0
 16 20  1  0  0  0  0
 16 21  1  0  0  0  0
 17 18  1  0  0  0  0
 17 19  1  0  0  0  0
 17 21  1  0  0  0  0
 18 22  1  0  0  0  0
 19 21  1  0  0  0  0
 19 22  1  0  0  0  0
 20 21  1  0  0  0  0
 24 23  2  0  0  0  0
 24 18  1  0  0  0  0
 25 27  1  0  0  0  0
 25  3  1  0  0  0  0
 26 25  1  0  0  0  0
 28 30  1  0  0  0  0
 28 27  1  0  0  0  0
 29 28  1  0  0  0  0
 31 30  1  0  0  0  0
 31 33  1  0  0  0  0
 32 34  2  0  0  0  0
 32 35  1  0  0  0  0
 34 31  1  0  0  0  0
 35 33  2  0  0  0  0
 36 34  1  0  0  0  0
 37 36  1  0  0  0  0
 38 42  1  0  0  0  0
 38 36  1  0  0  0  0
 39 41  1  0  0  0  0
 40 42  1  0  0  0  0
 41 43  1  0  0  0  0
 41 40  1  0  0  0  0
 43 38  1  0  0  0  0
M  END
>  <MODEL>
1

>  <REMARK>
 VINA RESULT:      -9.4      0.000      0.000
  Name = 
  9 active torsions:
  status: ('A' for Active; 'I' for Inactive)
    1  A    between atoms: C_1  and  C_34
    2  A    between atoms: N_2  and  C_6
    3  A    between atoms: N_2  and  C_13
    4  A    between atoms: C_3  and  N_4
    5  A    between atoms: C_3  and  C_12
    6  A    between atoms: C_6  and  C_12
    7  A    between atoms: N_11  and  C_14
    8  A    between atoms: C_14  and  C_22
    9  A    between atoms: C_19  and  C_37
                            x       y       z     vdW  Elec       q    Type
                         _______ _______ _______ _____ _____    ______ ____

>  <TORSDO>
F 9

$$$$
=
 OpenBabel11062409593D

 43 50  0  0  1  0  0  0  0  0999 V2000
  161.1720  204.0720  148.6400 C   0  0  0  0  0  0  0  0  0  0  0  0
  161.6910  208.4580  151.1260 C   0  0  0  0  0  0  0  0  0  0  0  0
  161.9230  210.4770  149.1690 C   0  0  0  0  0  0  0  0  0  0  0  0
  161.3680  205.7700  150.3570 C   0  0  0  0  0  0  0  0  0  0  0  0
  161.3080  205.0490  147.6510 C   0  0  0  0  0  3  0  0  0  0  0  0
  161.0070  202.7740  148.2900 F   0  0  0  0  0  0  0  0  0  0  0  0
  161.4990  206.7700  149.3620 C   0  0  0  0  0  0  0  0  0  0  0  0
  161.2030  204.4320  149.9900 C   0  0  0  0  0  3  0  0  0  0  0  0
  161.4690  206.3910  148.0080 C   0  0  0  0  0  3  0  0  0  0  0  0
  161.7740  209.1370  148.7900 C   0  0  0  0  0  3  0  0  0  0  0  0
  161.6560  208.1190  149.7480 C   0  0  0  0  0  0  0  0  0  0  0  0
  161.5600  207.4460  152.0870 C   0  0  0  0  0  3  0  0  0  0  0  0
  161.8630  209.8020  151.5170 C   0  0  0  0  0  0  0  0  0  0  0  0
  161.9640  210.7950  150.5320 C   0  0  0  0  0  3  0  0  0  0  0  0
  161.4000  206.1150  151.7070 C   0  0  0  0  0  3  0  0  0  0  0  0
  161.9160  210.1810  152.9910 C   0  0  2  0  0  3  0  0  0  0  0  0
  160.0260  211.5840  152.4570 C   0  0  2  0  0  3  0  0  0  0  0  0
  159.4550  212.9180  152.8910 C   0  0  2  0  0  3  0  0  0  0  0  0
  159.2140  210.8780  153.4620 C   0  0  1  0  0  3  0  0  0  0  0  0
  160.9420  209.5080  153.6930 O   0  0  0  0  0  0  0  0  0  0  0  0
  160.7410  210.9170  153.6570 C   0  0  2  0  0  0  0  0  0  0  0  0
  158.6110  212.1930  153.9150 C   0  0  0  0  0  2  0  0  0  0  0  0
  159.1270  213.8220  150.6310 C   0  0  0  0  0  2  0  0  0  0  0  0
  158.5970  213.4780  151.8020 C   0  0  0  0  0  3  0  0  0  0  0  0
  162.0430  211.5130  148.1740 N   0  0  0  0  0  0  0  0  0  0  0  0
  163.3140  212.1870  147.9520 C   0  0  0  0  0  1  0  0  0  0  0  0
  160.9330  211.8550  147.2920 C   0  0  0  0  0  2  0  0  0  0  0  0
  161.2910  213.0630  146.4380 C   0  0  2  0  0  3  0  0  0  0  0  0
  160.5830  214.1740  146.8910 O   0  0  0  0  0  1  0  0  0  0  0  0
  160.9620  212.8240  144.9720 C   0  0  0  0  0  2  0  0  0  0  0  0
  161.9760  213.4010  144.0980 N   0  0  0  0  0  0  0  0  0  0  0  0
  163.1310  213.9900  142.2820 N   0  0  0  0  0  0  0  0  0  0  0  0
  163.0580  214.0790  144.5100 C   0  0  0  0  0  3  0  0  0  0  0  0
  162.0400  213.3580  142.7550 C   0  0  0  0  0  0  0  0  0  0  0  0
  163.7700  214.4460  143.3830 C   0  0  0  0  0  3  0  0  0  0  0  0
  161.0370  212.6540  141.8710 C   0  0  1  0  0  3  0  0  0  0  0  0
  159.8960  213.4390  141.7080 O   0  0  0  0  0  1  0  0  0  0  0  0
  161.5590  212.2450  140.5560 N   0  0  0  0  0  0  0  0  0  0  0  0
  159.0000  210.2850  139.0540 C   0  0  0  0  0  1  0  0  0  0  0  0
  161.2400  209.9710  139.9320 N   0  0  0  0  0  2  0  0  0  0  0  0
  160.4260  210.7890  139.0540 C   0  0  2  0  0  3  0  0  0  0  0  0
  162.1460  210.9050  140.5880 C   0  0  0  0  0  2  0  0  0  0  0  0
  160.4650  212.1910  139.6030 C   0  0  0  0  0  2  0  0  0  0  0  0
  1  8  1  0  0  0  0
  2 13  1  0  0  0  0
  2 12  1  0  0  0  0
  3 14  1  0  0  0  0
  4 15  1  0  0  0  0
  5  9  1  0  0  0  0
  5  1  2  0  0  0  0
  6  1  1  0  0  0  0
  7 11  1  0  0  0  0
  7  4  1  0  0  0  0
  8  4  2  0  0  0  0
  9  7  2  0  0  0  0
 10  3  2  0  0  0  0
 10 11  1  0  0  0  0
 11  2  2  0  0  0  0
 14 13  2  0  0  0  0
 15 12  2  0  0  0  0
 16 13  1  6  0  0  0
 16 21  1  0  0  0  0
 16 20  1  0  0  0  0
 17 18  1  0  0  0  0
 17 19  1  0  0  0  0
 17 21  1  0  0  0  0
 18 22  1  0  0  0  0
 19 21  1  0  0  0  0
 19 22  1  0  0  0  0
 21 20  1  0  0  0  0
 23 24  2  0  0  0  0
 24 18  1  0  0  0  0
 25  3  1  0  0  0  0
 26 25  1  0  0  0  0
 27 25  1  0  0  0  0
 28 29  1  0  0  0  0
 28 27  1  0  0  0  0
 30 28  1  0  0  0  0
 31 33  1  0  0  0  0
 31 30  1  0  0  0  0
 32 34  2  0  0  0  0
 32 35  1  0  0  0  0
 34 31  1  0  0  0  0
 35 33  2  0  0  0  0
 36 34  1  0  0  0  0
 37 36  1  0  0  0  0
 38 42  1  0  0  0  0
 38 36  1  0  0  0  0
 39 41  1  0  0  0  0
 40 42  1  0  0  0  0
 41 43  1  0  0  0  0
 41 40  1  0  0  0  0
 43 38  1  0  0  0  0
M  END
>  <MODEL>
2

>  <REMARK>
 VINA RESULT:      -9.3      2.127      3.717
  Name = 
  9 active torsions:
  status: ('A' for Active; 'I' for Inactive)
    1  A    between atoms: C_1  and  C_34
    2  A    between atoms: N_2  and  C_6
    3  A    between atoms: N_2  and  C_13
    4  A    between atoms: C_3  and  N_4
    5  A    between atoms: C_3  and  C_12
    6  A    between atoms: C_6  and  C_12
    7  A    between atoms: N_11  and  C_14
    8  A    between atoms: C_14  and  C_22
    9  A    between atoms: C_19  and  C_37
                            x       y       z     vdW  Elec       q    Type
                         _______ _______ _______ _____ _____    ______ ____

>  <TORSDO>
F 9

$$$$
=
 OpenBabel11062409593D

 43 50  0  0  1  0  0  0  0  0999 V2000
  161.1090  204.0420  148.8310 C   0  0  0  0  0  0  0  0  0  0  0  0
  161.5450  208.4050  151.3720 C   0  0  0  0  0  0  0  0  0  0  0  0
  162.0270  210.4160  149.4530 C   0  0  0  0  0  0  0  0  0  0  0  0
  161.2030  205.7300  150.5650 C   0  0  0  0  0  0  0  0  0  0  0  0
  161.3690  205.0140  147.8630 C   0  0  0  0  0  3  0  0  0  0  0  0
  160.9320  202.7500  148.4620 F   0  0  0  0  0  0  0  0  0  0  0  0
  161.4590  206.7260  149.5910 C   0  0  0  0  0  0  0  0  0  0  0  0
  161.0270  204.3990  150.1790 C   0  0  0  0  0  3  0  0  0  0  0  0
  161.5420  206.3490  148.2380 C   0  0  0  0  0  3  0  0  0  0  0  0
  161.8680  209.0820  149.0560 C   0  0  0  0  0  3  0  0  0  0  0  0
  161.6270  208.0680  149.9950 C   0  0  0  0  0  0  0  0  0  0  0  0
  161.2910  207.3970  152.3130 C   0  0  0  0  0  3  0  0  0  0  0  0
  161.7270  209.7410  151.7830 C   0  0  0  0  0  0  0  0  0  0  0  0
  161.9520  210.7310  150.8160 C   0  0  0  0  0  3  0  0  0  0  0  0
  161.1210  206.0720  151.9140 C   0  0  0  0  0  3  0  0  0  0  0  0
  161.6550  210.1170  153.2570 C   0  0  2  0  0  3  0  0  0  0  0  0
  159.9890  211.7060  152.5300 C   0  0  2  0  0  3  0  0  0  0  0  0
  159.5140  213.0920  152.9110 C   0  0  2  0  0  3  0  0  0  0  0  0
  159.0040  211.0900  153.4340 C   0  0  1  0  0  3  0  0  0  0  0  0
  160.5450  209.5500  153.8410 O   0  0  0  0  0  0  0  0  0  0  0  0
  160.4950  210.9720  153.7960 C   0  0  2  0  0  0  0  0  0  0  0  0
  158.4920  212.4610  153.8290 C   0  0  0  0  0  2  0  0  0  0  0  0
  157.5170  213.7480  151.6400 C   0  0  0  0  0  2  0  0  0  0  0  0
  158.8440  213.7350  151.7390 C   0  0  0  0  0  3  0  0  0  0  0  0
  162.2740  211.4480  148.4780 N   0  0  0  0  0  0  0  0  0  0  0  0
  163.6130  211.6660  147.9490 C   0  0  0  0  0  1  0  0  0  0  0  0
  161.1870  212.2410  147.9150 C   0  0  0  0  0  2  0  0  0  0  0  0
  161.6240  213.6890  147.7470 C   0  0  2  0  0  3  0  0  0  0  0  0
  161.1750  214.4360  148.8330 O   0  0  0  0  0  1  0  0  0  0  0  0
  161.0710  214.2910  146.4630 C   0  0  0  0  0  2  0  0  0  0  0  0
  159.8010  213.6800  146.0930 N   0  0  0  0  0  0  0  0  0  0  0  0
  158.2100  212.6060  144.9530 N   0  0  0  0  0  0  0  0  0  0  0  0
  158.6890  213.6880  146.8460 C   0  0  0  0  0  3  0  0  0  0  0  0
  159.4900  213.0250  144.9600 C   0  0  0  0  0  0  0  0  0  0  0  0
  157.7060  213.0190  146.1390 C   0  0  0  0  0  3  0  0  0  0  0  0
  160.4400  212.8120  143.8040 C   0  0  1  0  0  3  0  0  0  0  0  0
  160.1670  211.6040  143.1650 O   0  0  0  0  0  1  0  0  0  0  0  0
  160.4650  213.9080  142.8200 N   0  0  0  0  0  0  0  0  0  0  0  0
  158.4240  212.8350  140.1130 C   0  0  0  0  0  1  0  0  0  0  0  0
  160.7670  213.2990  140.5400 N   0  0  0  0  0  2  0  0  0  0  0  0
  159.4210  213.8190  140.6840 C   0  0  2  0  0  3  0  0  0  0  0  0
  161.4540  213.6810  141.7660 C   0  0  0  0  0  2  0  0  0  0  0  0
  159.1740  213.9860  142.1600 C   0  0  0  0  0  2  0  0  0  0  0  0
  1  8  1  0  0  0  0
  2 13  1  0  0  0  0
  2 12  1  0  0  0  0
  3 14  1  0  0  0  0
  4 15  1  0  0  0  0
  5  9  1  0  0  0  0
  5  1  2  0  0  0  0
  6  1  1  0  0  0  0
  7 11  1  0  0  0  0
  7  4  1  0  0  0  0
  8  4  2  0  0  0  0
  9  7  2  0  0  0  0
 10  3  2  0  0  0  0
 10 11  1  0  0  0  0
 11  2  2  0  0  0  0
 14 13  2  0  0  0  0
 15 12  2  0  0  0  0
 16 13  1  6  0  0  0
 16 21  1  0  0  0  0
 16 20  1  0  0  0  0
 17 18  1  0  0  0  0
 17 19  1  0  0  0  0
 17 21  1  0  0  0  0
 18 22  1  0  0  0  0
 19 21  1  0  0  0  0
 19 22  1  0  0  0  0
 21 20  1  0  0  0  0
 23 24  2  0  0  0  0
 24 18  1  0  0  0  0
 25  3  1  0  0  0  0
 26 25  1  0  0  0  0
 27 25  1  0  0  0  0
 28 27  1  0  0  0  0
 28 29  1  0  0  0  0
 30 28  1  0  0  0  0
 31 30  1  0  0  0  0
 31 33  1  0  0  0  0
 32 34  2  0  0  0  0
 32 35  1  0  0  0  0
 34 31  1  0  0  0  0
 35 33  2  0  0  0  0
 36 34  1  0  0  0  0
 37 36  1  0  0  0  0
 38 36  1  0  0  0  0
 39 41  1  0  0  0  0
 40 41  1  0  0  0  0
 40 42  1  0  0  0  0
 41 43  1  0  0  0  0
 42 38  1  0  0  0  0
 43 38  1  0  0  0  0
M  END
>  <MODEL>
3

>  <REMARK>
 VINA RESULT:      -8.2      1.844      2.552
  Name = 
  9 active torsions:
  status: ('A' for Active; 'I' for Inactive)
    1  A    between atoms: C_1  and  C_34
    2  A    between atoms: N_2  and  C_6
    3  A    between atoms: N_2  and  C_13
    4  A    between atoms: C_3  and  N_4
    5  A    between atoms: C_3  and  C_12
    6  A    between atoms: C_6  and  C_12
    7  A    between atoms: N_11  and  C_14
    8  A    between atoms: C_14  and  C_22
    9  A    between atoms: C_19  and  C_37
                            x       y       z     vdW  Elec       q    Type
                         _______ _______ _______ _____ _____    ______ ____

>  <TORSDO>
F 9

$$$$
=
 OpenBabel11062409593D

 43 50  0  0  1  0  0  0  0  0999 V2000
  161.2280  203.8850  147.2730 C   0  0  0  0  0  0  0  0  0  0  0  0
  161.2920  206.1610  151.8010 C   0  0  0  0  0  0  0  0  0  0  0  0
  161.3780  208.9370  151.3120 C   0  0  0  0  0  0  0  0  0  0  0  0
  161.2320  204.3450  149.6510 C   0  0  0  0  0  0  0  0  0  0  0  0
  161.2940  205.2530  147.0030 C   0  0  0  0  0  3  0  0  0  0  0  0
  161.1890  202.9940  146.2520 F   0  0  0  0  0  0  0  0  0  0  0  0
  161.2910  205.7350  149.3890 C   0  0  0  0  0  0  0  0  0  0  0  0
  161.1980  203.4310  148.5950 C   0  0  0  0  0  3  0  0  0  0  0  0
  161.3240  206.1740  148.0530 C   0  0  0  0  0  3  0  0  0  0  0  0
  161.3610  208.0300  150.2440 C   0  0  0  0  0  3  0  0  0  0  0  0
  161.3170  206.6460  150.4670 C   0  0  0  0  0  0  0  0  0  0  0  0
  161.2340  204.7780  152.0290 C   0  0  0  0  0  3  0  0  0  0  0  0
  161.3320  207.0650  152.8810 C   0  0  0  0  0  0  0  0  0  0  0  0
  161.3620  208.4430  152.6210 C   0  0  0  0  0  3  0  0  0  0  0  0
  161.2040  203.8790  150.9650 C   0  0  0  0  0  3  0  0  0  0  0  0
  161.3190  206.5600  154.3180 C   0  0  2  0  0  3  0  0  0  0  0  0
  160.9940  208.8840  154.8850 C   0  0  2  0  0  3  0  0  0  0  0  0
  161.3770  209.8350  156.0000 C   0  0  2  0  0  3  0  0  0  0  0  0
  159.7360  208.5440  155.5700 C   0  0  1  0  0  3  0  0  0  0  0  0
  160.0270  206.4900  154.7880 O   0  0  0  0  0  0  0  0  0  0  0  0
  160.8220  207.4580  155.4640 C   0  0  2  0  0  0  0  0  0  0  0  0
  160.0790  209.4970  156.6970 C   0  0  0  0  0  2  0  0  0  0  0  0
  160.4630  212.1140  155.9590 C   0  0  0  0  0  2  0  0  0  0  0  0
  161.3520  211.2410  155.4930 C   0  0  0  0  0  3  0  0  0  0  0  0
  161.4240  210.3570  151.0680 N   0  0  0  0  0  0  0  0  0  0  0  0
  161.9340  210.8800  149.8080 C   0  0  0  0  0  1  0  0  0  0  0  0
  160.8750  211.3120  152.0240 C   0  0  0  0  0  2  0  0  0  0  0  0
  159.9500  212.2930  151.3170 C   0  0  2  0  0  3  0  0  0  0  0  0
  160.6890  213.3860  150.8720 O   0  0  0  0  0  1  0  0  0  0  0  0
  158.8450  212.7800  152.2420 C   0  0  0  0  0  2  0  0  0  0  0  0
  157.7310  213.3440  151.4910 N   0  0  0  0  0  0  0  0  0  0  0  0
  155.7990  214.3370  150.9770 N   0  0  0  0  0  0  0  0  0  0  0  0
  157.6140  213.3330  150.1540 C   0  0  0  0  0  3  0  0  0  0  0  0
  156.6280  213.9510  151.9660 C   0  0  0  0  0  0  0  0  0  0  0  0
  156.4190  213.9520  149.8380 C   0  0  0  0  0  3  0  0  0  0  0  0
  156.3220  214.1480  153.4330 C   0  0  1  0  0  3  0  0  0  0  0  0
  155.0280  213.7170  153.7220 O   0  0  0  0  0  1  0  0  0  0  0  0
  157.2830  213.5120  154.3500 N   0  0  0  0  0  0  0  0  0  0  0  0
  155.3500  212.2060  157.0350 C   0  0  0  0  0  1  0  0  0  0  0  0
  157.0010  213.9470  156.6730 N   0  0  0  0  0  2  0  0  0  0  0  0
  156.7010  212.5470  156.4460 C   0  0  2  0  0  3  0  0  0  0  0  0
  157.6610  214.3960  155.4540 C   0  0  0  0  0  2  0  0  0  0  0  0
  156.6650  212.3440  154.9540 C   0  0  0  0  0  2  0  0  0  0  0  0
  1  8  1  0  0  0  0
  2 12  1  0  0  0  0
  2 13  1  0  0  0  0
  3 14  1  0  0  0  0
  4 15  1  0  0  0  0
  5  1  2  0  0  0  0
  5  9  1  0  0  0  0
  6  1  1  0  0  0  0
  7  4  1  0  0  0  0
  7 11  1  0  0  0  0
  8  4  2  0  0  0  0
  9  7  2  0  0  0  0
 10 11  1  0  0  0  0
 10  3  2  0  0  0  0
 11  2  2  0  0  0  0
 14 13  2  0  0  0  0
 15 12  2  0  0  0  0
 16 13  1  6  0  0  0
 16 20  1  0  0  0  0
 16 21  1  0  0  0  0
 17 21  1  0  0  0  0
 17 19  1  0  0  0  0
 17 18  1  0  0  0  0
 18 22  1  0  0  0  0
 19 22  1  0  0  0  0
 20 21  1  0  0  0  0
 21 19  1  0  0  0  0
 24 23  2  0  0  0  0
 24 18  1  0  0  0  0
 25  3  1  0  0  0  0
 25 27  1  0  0  0  0
 26 25  1  0  0  0  0
 28 27  1  0  0  0  0
 28 30  1  0  0  0  0
 29 28  1  0  0  0  0
 31 34  1  0  0  0  0
 31 30  1  0  0  0  0
 32 34  2  0  0  0  0
 33 31  1  0  0  0  0
 34 36  1  0  0  0  0
 35 33  2  0  0  0  0
 35 32  1  0  0  0  0
 36 37  1  0  0  0  0
 36 38  1  0  0  0  0
 38 43  1  0  0  0  0
 38 42  1  0  0  0  0
 41 40  1  0  0  0  0
 41 39  1  0  0  0  0
 42 40  1  0  0  0  0
 43 41  1  0  0  0  0
M  END
>  <MODEL>
4

>  <REMARK>
 VINA RESULT:      -7.8      3.255      5.713
  Name = 
  9 active torsions:
  status: ('A' for Active; 'I' for Inactive)
    1  A    between atoms: C_1  and  C_34
    2  A    between atoms: N_2  and  C_6
    3  A    between atoms: N_2  and  C_13
    4  A    between atoms: C_3  and  N_4
    5  A    between atoms: C_3  and  C_12
    6  A    between atoms: C_6  and  C_12
    7  A    between atoms: N_11  and  C_14
    8  A    between atoms: C_14  and  C_22
    9  A    between atoms: C_19  and  C_37
                            x       y       z     vdW  Elec       q    Type
                         _______ _______ _______ _____ _____    ______ ____

>  <TORSDO>
F 9

$$$$
=
 OpenBabel11062409593D

 43 50  0  0  1  0  0  0  0  0999 V2000
  161.0530  203.0800  147.0260 C   0  0  0  0  0  0  0  0  0  0  0  0
  161.4350  205.6570  151.3730 C   0  0  0  0  0  0  0  0  0  0  0  0
  161.8700  208.3570  150.6800 C   0  0  0  0  0  0  0  0  0  0  0  0
  161.1320  203.7100  149.3640 C   0  0  0  0  0  0  0  0  0  0  0  0
  161.2910  204.4050  146.6560 C   0  0  0  0  0  3  0  0  0  0  0  0
  160.8960  202.1290  146.0740 F   0  0  0  0  0  0  0  0  0  0  0  0
  161.3650  205.0580  148.9990 C   0  0  0  0  0  0  0  0  0  0  0  0
  160.9750  202.7330  148.3780 C   0  0  0  0  0  3  0  0  0  0  0  0
  161.4440  205.3900  147.6350 C   0  0  0  0  0  3  0  0  0  0  0  0
  161.7310  207.3830  149.6820 C   0  0  0  0  0  3  0  0  0  0  0  0
  161.5130  206.0360  150.0070 C   0  0  0  0  0  0  0  0  0  0  0  0
  161.2050  204.3140  151.7030 C   0  0  0  0  0  3  0  0  0  0  0  0
  161.5970  206.6270  152.3840 C   0  0  0  0  0  0  0  0  0  0  0  0
  161.8000  207.9670  152.0220 C   0  0  0  0  0  3  0  0  0  0  0  0
  161.0530  203.3500  150.7080 C   0  0  0  0  0  3  0  0  0  0  0  0
  161.5300  206.2350  153.8540 C   0  0  2  0  0  3  0  0  0  0  0  0
  161.0700  208.5770  154.2160 C   0  0  2  0  0  3  0  0  0  0  0  0
  161.3480  209.6290  155.2680 C   0  0  2  0  0  3  0  0  0  0  0  0
  159.7930  208.2290  154.8610 C   0  0  1  0  0  3  0  0  0  0  0  0
  160.2190  206.1380  154.2630 O   0  0  0  0  0  0  0  0  0  0  0  0
  160.9320  207.1940  154.8970 C   0  0  2  0  0  0  0  0  0  0  0  0
  160.0310  209.2830  155.9250 C   0  0  0  0  0  2  0  0  0  0  0  0
  160.2870  211.8190  154.9340 C   0  0  0  0  0  2  0  0  0  0  0  0
  161.2870  210.9890  154.6500 C   0  0  0  0  0  3  0  0  0  0  0  0
  162.0930  209.7380  150.3320 N   0  0  0  0  0  0  0  0  0  0  0  0
  162.6440  210.6700  151.3050 C   0  0  0  0  0  1  0  0  0  0  0  0
  161.8710  210.2280  148.9760 C   0  0  0  0  0  2  0  0  0  0  0  0
  161.9490  211.7480  148.9460 C   0  0  2  0  0  3  0  0  0  0  0  0
  160.8730  212.2790  149.6540 O   0  0  0  0  0  1  0  0  0  0  0  0
  161.9190  212.2770  147.5200 C   0  0  0  0  0  2  0  0  0  0  0  0
  160.7010  213.0330  147.2570 N   0  0  0  0  0  0  0  0  0  0  0  0
  158.9580  213.9630  146.2190 N   0  0  0  0  0  0  0  0  0  0  0  0
  160.0230  213.7490  148.1680 C   0  0  0  0  0  3  0  0  0  0  0  0
  160.0430  213.1760  146.0930 C   0  0  0  0  0  0  0  0  0  0  0  0
  158.9410  214.3210  147.5230 C   0  0  0  0  0  3  0  0  0  0  0  0
  160.4820  212.5670  144.7810 C   0  0  1  0  0  3  0  0  0  0  0  0
  159.3730  212.1580  144.0390 O   0  0  0  0  0  1  0  0  0  0  0  0
  161.3440  213.4350  143.9600 N   0  0  0  0  0  0  0  0  0  0  0  0
  160.2200  213.0410  140.6090 C   0  0  0  0  0  1  0  0  0  0  0  0
  162.1820  212.5100  141.9330 N   0  0  0  0  0  2  0  0  0  0  0  0
  161.2490  213.5640  141.5860 C   0  0  2  0  0  3  0  0  0  0  0  0
  162.4520  212.6960  143.3530 C   0  0  0  0  0  2  0  0  0  0  0  0
  160.5670  213.9810  142.8620 C   0  0  0  0  0  2  0  0  0  0  0  0
  1  8  1  0  0  0  0
  2 12  1  0  0  0  0
  2 13  1  0  0  0  0
  3 14  1  0  0  0  0
  4 15  1  0  0  0  0
  5  1  2  0  0  0  0
  5  9  1  0  0  0  0
  6  1  1  0  0  0  0
  7  4  1  0  0  0  0
  7 11  1  0  0  0  0
  8  4  2  0  0  0  0
  9  7  2  0  0  0  0
 10 11  1  0  0  0  0
 10  3  2  0  0  0  0
 11  2  2  0  0  0  0
 14 13  2  0  0  0  0
 15 12  2  0  0  0  0
 16 13  1  6  0  0  0
 16 20  1  0  0  0  0
 16 21  1  0  0  0  0
 17 19  1  0  0  0  0
 17 21  1  0  0  0  0
 17 18  1  0  0  0  0
 18 22  1  0  0  0  0
 19 21  1  0  0  0  0
 19 22  1  0  0  0  0
 20 21  1  0  0  0  0
 24 23  2  0  0  0  0
 24 18  1  0  0  0  0
 25  3  1  0  0  0  0
 25 26  1  0  0  0  0
 27 25  1  0  0  0  0
 28 27  1  0  0  0  0
 28 29  1  0  0  0  0
 30 28  1  0  0  0  0
 31 30  1  0  0  0  0
 31 33  1  0  0  0  0
 32 35  1  0  0  0  0
 34 32  2  0  0  0  0
 34 31  1  0  0  0  0
 35 33  2  0  0  0  0
 36 34  1  0  0  0  0
 37 36  1  0  0  0  0
 38 36  1  0  0  0  0
 39 41  1  0  0  0  0
 40 42  1  0  0  0  0
 41 40  1  0  0  0  0
 41 43  1  0  0  0  0
 42 38  1  0  0  0  0
 43 38  1  0  0  0  0
M  END
>  <MODEL>
5

>  <REMARK>
 VINA RESULT:      -7.7      1.406      1.854
  Name = 
  9 active torsions:
  status: ('A' for Active; 'I' for Inactive)
    1  A    between atoms: C_1  and  C_34
    2  A    between atoms: N_2  and  C_6
    3  A    between atoms: N_2  and  C_13
    4  A    between atoms: C_3  and  N_4
    5  A    between atoms: C_3  and  C_12
    6  A    between atoms: C_6  and  C_12
    7  A    between atoms: N_11  and  C_14
    8  A    between atoms: C_14  and  C_22
    9  A    between atoms: C_19  and  C_37
                            x       y       z     vdW  Elec       q    Type
                         _______ _______ _______ _____ _____    ______ ____

>  <TORSDO>
F 9

$$$$
=
 OpenBabel11062409593D

 43 50  0  0  1  0  0  0  0  0999 V2000
  160.3510  207.9800  156.1660 C   0  0  0  0  0  0  0  0  0  0  0  0
  159.8490  211.8440  152.9250 C   0  0  0  0  0  0  0  0  0  0  0  0
  161.2270  211.1150  150.5740 C   0  0  0  0  0  0  0  0  0  0  0  0
  159.7600  210.0830  155.1190 C   0  0  0  0  0  0  0  0  0  0  0  0
  161.0600  207.6040  155.0230 C   0  0  0  0  0  3  0  0  0  0  0  0
  160.2890  207.1430  157.2290 F   0  0  0  0  0  0  0  0  0  0  0  0
  160.4690  209.7090  153.9510 C   0  0  0  0  0  0  0  0  0  0  0  0
  159.7040  209.2180  156.2140 C   0  0  0  0  0  3  0  0  0  0  0  0
  161.1180  208.4610  153.9200 C   0  0  0  0  0  3  0  0  0  0  0  0
  161.1910  210.2460  151.6720 C   0  0  0  0  0  3  0  0  0  0  0  0
  160.5100  210.5900  152.8490 C   0  0  0  0  0  0  0  0  0  0  0  0
  159.1560  212.1870  154.0950 C   0  0  0  0  0  3  0  0  0  0  0  0
  159.8990  212.7350  151.8330 C   0  0  0  0  0  0  0  0  0  0  0  0
  160.5770  212.3520  150.6670 C   0  0  0  0  0  3  0  0  0  0  0  0
  159.1110  211.3150  155.1810 C   0  0  0  0  0  3  0  0  0  0  0  0
  159.2060  214.0900  151.9030 C   0  0  2  0  0  3  0  0  0  0  0  0
  158.1270  213.3810  149.8650 C   0  0  2  0  0  3  0  0  0  0  0  0
  157.6130  214.0080  148.5860 C   0  0  2  0  0  3  0  0  0  0  0  0
  156.8100  213.5390  150.5040 C   0  0  1  0  0  3  0  0  0  0  0  0
  157.9220  213.9450  152.3770 O   0  0  0  0  0  0  0  0  0  0  0  0
  157.9790  214.3920  151.0270 C   0  0  2  0  0  0  0  0  0  0  0  0
  156.2570  214.1590  149.2360 C   0  0  0  0  0  2  0  0  0  0  0  0
  158.6790  212.6000  146.8790 C   0  0  0  0  0  2  0  0  0  0  0  0
  157.5670  212.9790  147.5020 C   0  0  0  0  0  3  0  0  0  0  0  0
  161.9300  210.7490  149.3700 N   0  0  0  0  0  0  0  0  0  0  0  0
  162.6190  211.7560  148.5760 C   0  0  0  0  0  1  0  0  0  0  0  0
  162.0610  209.3560  148.9580 C   0  0  0  0  0  2  0  0  0  0  0  0
  161.8850  208.4330  150.1560 C   0  0  2  0  0  3  0  0  0  0  0  0
  163.0700  207.7370  150.3800 O   0  0  0  0  0  1  0  0  0  0  0  0
  160.7560  207.4400  149.9310 C   0  0  0  0  0  2  0  0  0  0  0  0
  161.0810  206.1290  150.4800 N   0  0  0  0  0  0  0  0  0  0  0  0
  161.4550  203.9370  150.6720 N   0  0  0  0  0  0  0  0  0  0  0  0
  161.3730  205.8810  151.7660 C   0  0  0  0  0  3  0  0  0  0  0  0
  161.1350  204.9480  149.8410 C   0  0  0  0  0  0  0  0  0  0  0  0
  161.6080  204.5230  151.8820 C   0  0  0  0  0  3  0  0  0  0  0  0
  160.8340  204.7530  148.3720 C   0  0  1  0  0  3  0  0  0  0  0  0
  160.4890  205.9680  147.7810 O   0  0  0  0  0  1  0  0  0  0  0  0
  161.9140  204.1090  147.6050 N   0  0  0  0  0  0  0  0  0  0  0  0
  161.5980  205.3110  144.2730 C   0  0  0  0  0  1  0  0  0  0  0  0
  161.3370  203.2190  145.4750 N   0  0  0  0  0  2  0  0  0  0  0  0
  162.2210  204.3470  145.2580 C   0  0  2  0  0  3  0  0  0  0  0  0
  161.4500  202.9160  146.8950 C   0  0  0  0  0  2  0  0  0  0  0  0
  162.3940  205.0290  146.5900 C   0  0  0  0  0  2  0  0  0  0  0  0
  1  8  1  0  0  0  0
  1  6  1  0  0  0  0
  2 12  1  0  0  0  0
  3 14  2  0  0  0  0
  3 10  1  0  0  0  0
  4 15  1  0  0  0  0
  4  8  2  0  0  0  0
  5  1  2  0  0  0  0
  7  4  1  0  0  0  0
  9  7  2  0  0  0  0
  9  5  1  0  0  0  0
 10 11  2  0  0  0  0
 11  2  1  0  0  0  0
 11  7  1  0  0  0  0
 12 15  2  0  0  0  0
 13  2  2  0  0  0  0
 14 13  1  0  0  0  0
 16 13  1  6  0  0  0
 16 20  1  0  0  0  0
 17 19  1  0  0  0  0
 17 21  1  0  0  0  0
 18 22  1  0  0  0  0
 18 17  1  0  0  0  0
 19 21  1  0  0  0  0
 21 16  1  0  0  0  0
 21 20  1  0  0  0  0
 22 19  1  0  0  0  0
 23 24  2  0  0  0  0
 24 18  1  0  0  0  0
 25  3  1  0  0  0  0
 26 25  1  0  0  0  0
 27 25  1  0  0  0  0
 27 28  1  0  0  0  0
 28 29  1  0  0  0  0
 30 28  1  0  0  0  0
 30 31  1  0  0  0  0
 31 33  1  0  0  0  0
 32 35  1  0  0  0  0
 33 35  2  0  0  0  0
 34 31  1  0  0  0  0
 34 32  2  0  0  0  0
 36 34  1  0  0  0  0
 37 36  1  0  0  0  0
 38 36  1  0  0  0  0
 39 41  1  0  0  0  0
 40 42  1  0  0  0  0
 41 40  1  0  0  0  0
 41 43  1  0  0  0  0
 42 38  1  0  0  0  0
 43 38  1  0  0  0  0
M  END
>  <MODEL>
6

>  <REMARK>
 VINA RESULT:      -6.8      3.228      7.284
  Name = 
  9 active torsions:
  status: ('A' for Active; 'I' for Inactive)
    1  A    between atoms: C_1  and  C_34
    2  A    between atoms: N_2  and  C_6
    3  A    between atoms: N_2  and  C_13
    4  A    between atoms: C_3  and  N_4
    5  A    between atoms: C_3  and  C_12
    6  A    between atoms: C_6  and  C_12
    7  A    between atoms: N_11  and  C_14
    8  A    between atoms: C_14  and  C_22
    9  A    between atoms: C_19  and  C_37
                            x       y       z     vdW  Elec       q    Type
                         _______ _______ _______ _____ _____    ______ ____

>  <TORSDO>
F 9

$$$$
=
 OpenBabel11062409593D

 43 50  0  0  1  0  0  0  0  0999 V2000
  162.5150  213.5080  147.5630 C   0  0  0  0  0  0  0  0  0  0  0  0
  160.0790  211.7710  151.6540 C   0  0  0  0  0  0  0  0  0  0  0  0
  161.0820  209.1840  152.1580 C   0  0  0  0  0  0  0  0  0  0  0  0
  161.0600  213.2740  149.4860 C   0  0  0  0  0  0  0  0  0  0  0  0
  163.0120  212.2210  147.7760 C   0  0  0  0  0  3  0  0  0  0  0  0
  162.9810  214.2500  146.5300 F   0  0  0  0  0  0  0  0  0  0  0  0
  161.5630  211.9700  149.7160 C   0  0  0  0  0  0  0  0  0  0  0  0
  161.5400  214.0330  148.4160 C   0  0  0  0  0  3  0  0  0  0  0  0
  162.5410  211.4550  148.8470 C   0  0  0  0  0  3  0  0  0  0  0  0
  161.5590  209.9290  151.0720 C   0  0  0  0  0  3  0  0  0  0  0  0
  161.0740  211.2180  150.8060 C   0  0  0  0  0  0  0  0  0  0  0  0
  159.6000  213.0640  151.4000 C   0  0  0  0  0  3  0  0  0  0  0  0
  159.5760  211.0190  152.7350 C   0  0  0  0  0  0  0  0  0  0  0  0
  160.0950  209.7400  152.9800 C   0  0  0  0  0  3  0  0  0  0  0  0
  160.0860  213.8090  150.3270 C   0  0  0  0  0  3  0  0  0  0  0  0
  158.4990  211.5930  153.6470 C   0  0  2  0  0  3  0  0  0  0  0  0
  160.1370  211.2790  155.3910 C   0  0  2  0  0  3  0  0  0  0  0  0
  160.1610  210.9280  156.8640 C   0  0  2  0  0  3  0  0  0  0  0  0
  160.0820  212.7160  155.7060 C   0  0  1  0  0  3  0  0  0  0  0  0
  158.7680  212.9130  153.9320 O   0  0  0  0  0  0  0  0  0  0  0  0
  158.8410  212.0620  155.0710 C   0  0  2  0  0  0  0  0  0  0  0  0
  160.1180  212.4030  157.1890 C   0  0  0  0  0  2  0  0  0  0  0  0
  162.2590  209.7850  156.2940 C   0  0  0  0  0  2  0  0  0  0  0  0
  161.4910  210.3470  157.2240 C   0  0  0  0  0  3  0  0  0  0  0  0
  161.5900  207.8600  152.4200 N   0  0  0  0  0  0  0  0  0  0  0  0
  161.4040  207.2360  153.7230 C   0  0  0  0  0  1  0  0  0  0  0  0
  162.2180  207.0640  151.3720 C   0  0  0  0  0  2  0  0  0  0  0  0
  161.4510  205.7640  151.1680 C   0  0  2  0  0  3  0  0  0  0  0  0
  162.3280  204.6880  151.2840 O   0  0  0  0  0  1  0  0  0  0  0  0
  160.7850  205.7210  149.8010 C   0  0  0  0  0  2  0  0  0  0  0  0
  160.9170  204.4070  149.1840 N   0  0  0  0  0  0  0  0  0  0  0  0
  161.5150  202.7540  147.8100 N   0  0  0  0  0  0  0  0  0  0  0  0
  160.2960  203.2920  149.6010 C   0  0  0  0  0  3  0  0  0  0  0  0
  161.6430  204.0610  148.1070 C   0  0  0  0  0  0  0  0  0  0  0  0
  160.6720  202.2680  148.7500 C   0  0  0  0  0  3  0  0  0  0  0  0
  162.4770  205.0210  147.2900 C   0  0  1  0  0  3  0  0  0  0  0  0
  163.5070  204.3410  146.6410 O   0  0  0  0  0  1  0  0  0  0  0  0
  161.7130  205.8240  146.3200 N   0  0  0  0  0  0  0  0  0  0  0  0
  159.7060  203.5160  144.5060 C   0  0  0  0  0  1  0  0  0  0  0  0
  161.5890  204.9900  144.0950 N   0  0  0  0  0  2  0  0  0  0  0  0
  160.2610  204.9130  144.6700 C   0  0  2  0  0  3  0  0  0  0  0  0
  162.3460  205.8440  145.0010 C   0  0  0  0  0  2  0  0  0  0  0  0
  160.4010  205.2310  146.1360 C   0  0  0  0  0  2  0  0  0  0  0  0
  1  5  2  0  0  0  0
  1  8  1  0  0  0  0
  2 13  1  0  0  0  0
  3 25  1  0  0  0  0
  3 14  1  0  0  0  0
  4  7  1  0  0  0  0
  4 15  1  0  0  0  0
  5  9  1  0  0  0  0
  6  1  1  0  0  0  0
  7 11  1  0  0  0  0
  8  4  2  0  0  0  0
  9  7  2  0  0  0  0
 10  3  2  0  0  0  0
 11 10  1  0  0  0  0
 11  2  2  0  0  0  0
 12  2  1  0  0  0  0
 13 14  2  0  0  0  0
 15 12  2  0  0  0  0
 16 13  1  6  0  0  0
 16 20  1  0  0  0  0
 16 21  1  0  0  0  0
 17 19  1  0  0  0  0
 17 18  1  0  0  0  0
 18 22  1  0  0  0  0
 18 24  1  0  0  0  0
 19 22  1  0  0  0  0
 20 21  1  0  0  0  0
 21 17  1  0  0  0  0
 21 19  1  0  0  0  0
 23 24  2  0  0  0  0
 25 26  1  0  0  0  0
 27 25  1  0  0  0  0
 28 29  1  0  0  0  0
 28 27  1  0  0  0  0
 30 28  1  0  0  0  0
 31 33  1  0  0  0  0
 31 30  1  0  0  0  0
 32 34  2  0  0  0  0
 32 35  1  0  0  0  0
 34 31  1  0  0  0  0
 35 33  2  0  0  0  0
 36 34  1  0  0  0  0
 37 36  1  0  0  0  0
 38 36  1  0  0  0  0
 39 41  1  0  0  0  0
 40 41  1  0  0  0  0
 40 42  1  0  0  0  0
 41 43  1  0  0  0  0
 42 38  1  0  0  0  0
 43 38  1  0  0  0  0
M  END
>  <MODEL>
7

>  <REMARK>
 VINA RESULT:      -6.7      4.130      7.656
  Name = 
  9 active torsions:
  status: ('A' for Active; 'I' for Inactive)
    1  A    between atoms: C_1  and  C_34
    2  A    between atoms: N_2  and  C_6
    3  A    between atoms: N_2  and  C_13
    4  A    between atoms: C_3  and  N_4
    5  A    between atoms: C_3  and  C_12
    6  A    between atoms: C_6  and  C_12
    7  A    between atoms: N_11  and  C_14
    8  A    between atoms: C_14  and  C_22
    9  A    between atoms: C_19  and  C_37
                            x       y       z     vdW  Elec       q    Type
                         _______ _______ _______ _____ _____    ______ ____

>  <TORSDO>
F 9

$$$$
=
 OpenBabel11062409593D

 43 50  0  0  1  0  0  0  0  0999 V2000
  161.2200  213.2670  147.0450 C   0  0  0  0  0  0  0  0  0  0  0  0
  160.0780  212.6850  151.9490 C   0  0  0  0  0  0  0  0  0  0  0  0
  160.8570  210.0680  152.6580 C   0  0  0  0  0  0  0  0  0  0  0  0
  160.4660  213.6150  149.3210 C   0  0  0  0  0  0  0  0  0  0  0  0
  161.5930  211.9600  147.3630 C   0  0  0  0  0  3  0  0  0  0  0  0
  161.4070  213.7370  145.7880 F   0  0  0  0  0  0  0  0  0  0  0  0
  160.8490  212.2940  149.6570 C   0  0  0  0  0  0  0  0  0  0  0  0
  160.6570  214.0930  148.0220 C   0  0  0  0  0  3  0  0  0  0  0  0
  161.4110  211.4740  148.6620 C   0  0  0  0  0  3  0  0  0  0  0  0
  161.0370  210.5300  151.3470 C   0  0  0  0  0  3  0  0  0  0  0  0
  160.6580  211.8280  150.9760 C   0  0  0  0  0  0  0  0  0  0  0  0
  159.7080  213.9870  151.5860 C   0  0  0  0  0  3  0  0  0  0  0  0
  159.8710  212.2200  153.2630 C   0  0  0  0  0  0  0  0  0  0  0  0
  160.2750  210.9210  153.6030 C   0  0  0  0  0  3  0  0  0  0  0  0
  159.9010  214.4490  150.2850 C   0  0  0  0  0  3  0  0  0  0  0  0
  159.2380  213.1220  154.3160 C   0  0  2  0  0  3  0  0  0  0  0  0
  157.3440  213.1430  152.8200 C   0  0  2  0  0  3  0  0  0  0  0  0
  156.2510  214.1040  152.4000 C   0  0  2  0  0  3  0  0  0  0  0  0
  156.4910  212.5970  153.8890 C   0  0  1  0  0  3  0  0  0  0  0  0
  158.3480  212.4070  155.0840 O   0  0  0  0  0  0  0  0  0  0  0  0
  157.7290  213.4170  154.2940 C   0  0  2  0  0  0  0  0  0  0  0  0
  155.3690  213.5360  153.4880 C   0  0  0  0  0  2  0  0  0  0  0  0
  156.4100  214.0450  149.9500 C   0  0  0  0  0  2  0  0  0  0  0  0
  155.7350  213.7230  151.0500 C   0  0  0  0  0  3  0  0  0  0  0  0
  161.2520  208.7310  153.0260 N   0  0  0  0  0  0  0  0  0  0  0  0
  160.8530  208.1640  154.3060 C   0  0  0  0  0  1  0  0  0  0  0  0
  161.9750  207.8680  152.0990 C   0  0  0  0  0  2  0  0  0  0  0  0
  161.5540  206.4180  152.2930 C   0  0  2  0  0  3  0  0  0  0  0  0
  162.6890  205.6120  152.3540 O   0  0  0  0  0  1  0  0  0  0  0  0
  160.6630  205.9410  151.1560 C   0  0  0  0  0  2  0  0  0  0  0  0
  160.8330  204.5160  150.9060 N   0  0  0  0  0  0  0  0  0  0  0  0
  161.1330  202.5580  149.8760 N   0  0  0  0  0  0  0  0  0  0  0  0
  160.8010  203.5560  151.8450 C   0  0  0  0  0  3  0  0  0  0  0  0
  161.0330  203.8930  149.7310 C   0  0  0  0  0  0  0  0  0  0  0  0
  160.9900  202.3450  151.2050 C   0  0  0  0  0  3  0  0  0  0  0  0
  161.0990  204.5920  148.3920 C   0  0  1  0  0  3  0  0  0  0  0  0
  161.4060  205.9410  148.5620 O   0  0  0  0  0  1  0  0  0  0  0  0
  162.0300  203.9810  147.4270 N   0  0  0  0  0  0  0  0  0  0  0  0
  161.3280  205.5080  144.2930 C   0  0  0  0  0  1  0  0  0  0  0  0
  161.1230  203.3230  145.3280 N   0  0  0  0  0  2  0  0  0  0  0  0
  162.0280  204.4300  145.0910 C   0  0  2  0  0  3  0  0  0  0  0  0
  161.4120  202.8810  146.6860 C   0  0  0  0  0  2  0  0  0  0  0  0
  162.4150  204.9740  146.4410 C   0  0  0  0  0  2  0  0  0  0  0  0
  1  5  2  0  0  0  0
  1  8  1  0  0  0  0
  2 13  1  0  0  0  0
  3 25  1  0  0  0  0
  3 14  1  0  0  0  0
  4  7  1  0  0  0  0
  4 15  1  0  0  0  0
  5  9  1  0  0  0  0
  6  1  1  0  0  0  0
  7 11  1  0  0  0  0
  8  4  2  0  0  0  0
  9  7  2  0  0  0  0
 10  3  2  0  0  0  0
 11 10  1  0  0  0  0
 11  2  2  0  0  0  0
 12  2  1  0  0  0  0
 13 14  2  0  0  0  0
 15 12  2  0  0  0  0
 16 13  1  6  0  0  0
 16 20  1  0  0  0  0
 17 19  1  0  0  0  0
 17 21  1  0  0  0  0
 18 17  1  0  0  0  0
 18 22  1  0  0  0  0
 19 21  1  0  0  0  0
 21 16  1  0  0  0  0
 21 20  1  0  0  0  0
 22 19  1  0  0  0  0
 23 24  2  0  0  0  0
 24 18  1  0  0  0  0
 25 26  1  0  0  0  0
 27 28  1  0  0  0  0
 27 25  1  0  0  0  0
 28 29  1  0  0  0  0
 30 28  1  0  0  0  0
 31 30  1  0  0  0  0
 31 33  1  0  0  0  0
 32 35  1  0  0  0  0
 34 32  2  0  0  0  0
 34 31  1  0  0  0  0
 35 33  2  0  0  0  0
 36 37  1  0  0  0  0
 36 34  1  0  0  0  0
 38 36  1  0  0  0  0
 39 41  1  0  0  0  0
 40 42  1  0  0  0  0
 41 40  1  0  0  0  0
 41 43  1  0  0  0  0
 42 38  1  0  0  0  0
 43 38  1  0  0  0  0
M  END
>  <MODEL>
8

>  <REMARK>
 VINA RESULT:      -6.6      3.994      8.007
  Name = 
  9 active torsions:
  status: ('A' for Active; 'I' for Inactive)
    1  A    between atoms: C_1  and  C_34
    2  A    between atoms: N_2  and  C_6
    3  A    between atoms: N_2  and  C_13
    4  A    between atoms: C_3  and  N_4
    5  A    between atoms: C_3  and  C_12
    6  A    between atoms: C_6  and  C_12
    7  A    between atoms: N_11  and  C_14
    8  A    between atoms: C_14  and  C_22
    9  A    between atoms: C_19  and  C_37
                            x       y       z     vdW  Elec       q    Type
                         _______ _______ _______ _____ _____    ______ ____

>  <TORSDO>
F 9

$$$$
=
 OpenBabel11062409593D

 43 50  0  0  1  0  0  0  0  0999 V2000
  161.7120  212.5330  148.2210 C   0  0  0  0  0  0  0  0  0  0  0  0
  159.5010  213.1430  152.7410 C   0  0  0  0  0  0  0  0  0  0  0  0
  160.0030  210.7900  154.2130 C   0  0  0  0  0  0  0  0  0  0  0  0
  160.4920  213.4120  150.1200 C   0  0  0  0  0  0  0  0  0  0  0  0
  161.9550  211.3490  148.9190 C   0  0  0  0  0  3  0  0  0  0  0  0
  162.1880  212.6860  146.9620 F   0  0  0  0  0  0  0  0  0  0  0  0
  160.7390  212.2190  150.8410 C   0  0  0  0  0  0  0  0  0  0  0  0
  160.9810  213.5620  148.8200 C   0  0  0  0  0  3  0  0  0  0  0  0
  161.4740  211.1910  150.2220 C   0  0  0  0  0  3  0  0  0  0  0  0
  160.4840  210.9230  152.9040 C   0  0  0  0  0  3  0  0  0  0  0  0
  160.2460  212.0850  152.1570 C   0  0  0  0  0  0  0  0  0  0  0  0
  159.2710  214.3120  152.0020 C   0  0  0  0  0  3  0  0  0  0  0  0
  158.9920  213.0090  154.0490 C   0  0  0  0  0  0  0  0  0  0  0  0
  159.2620  211.8380  154.7720 C   0  0  0  0  0  3  0  0  0  0  0  0
  159.7620  214.4470  150.7040 C   0  0  0  0  0  3  0  0  0  0  0  0
  158.1800  214.1290  154.6850 C   0  0  2  0  0  3  0  0  0  0  0  0
  156.6070  213.6790  152.9110 C   0  0  2  0  0  3  0  0  0  0  0  0
  155.6250  214.4510  152.0540 C   0  0  2  0  0  3  0  0  0  0  0  0
  155.5590  213.4000  153.9070 C   0  0  1  0  0  3  0  0  0  0  0  0
  157.1510  213.6060  155.4350 O   0  0  0  0  0  0  0  0  0  0  0  0
  156.7060  214.3470  154.3040 C   0  0  2  0  0  0  0  0  0  0  0  0
  154.5450  214.1530  153.0690 C   0  0  0  0  0  2  0  0  0  0  0  0
  156.1190  213.9320  149.7040 C   0  0  0  0  0  2  0  0  0  0  0  0
  155.3730  213.7060  150.7820 C   0  0  0  0  0  3  0  0  0  0  0  0
  160.2550  209.5900  154.9700 N   0  0  0  0  0  0  0  0  0  0  0  0
  159.4470  209.2620  156.1370 C   0  0  0  0  0  1  0  0  0  0  0  0
  161.2540  208.6170  154.5460 C   0  0  0  0  0  2  0  0  0  0  0  0
  160.5760  207.3650  154.0070 C   0  0  2  0  0  3  0  0  0  0  0  0
  159.9500  206.6930  155.0540 O   0  0  0  0  0  1  0  0  0  0  0  0
  161.5770  206.4330  153.3420 C   0  0  0  0  0  2  0  0  0  0  0  0
  161.8220  206.8140  151.9570 N   0  0  0  0  0  0  0  0  0  0  0  0
  162.0900  206.7260  149.7430 N   0  0  0  0  0  0  0  0  0  0  0  0
  162.1400  208.0500  151.5390 C   0  0  0  0  0  3  0  0  0  0  0  0
  161.7990  206.0350  150.8610 C   0  0  0  0  0  0  0  0  0  0  0  0
  162.3010  207.9930  150.1670 C   0  0  0  0  0  3  0  0  0  0  0  0
  161.5210  204.5490  150.8720 C   0  0  1  0  0  3  0  0  0  0  0  0
  161.1330  204.1360  152.1460 O   0  0  0  0  0  1  0  0  0  0  0  0
  160.5330  204.1030  149.8740 N   0  0  0  0  0  0  0  0  0  0  0  0
  161.4640  200.7850  148.9950 C   0  0  0  0  0  1  0  0  0  0  0  0
  161.3760  202.9760  147.9550 N   0  0  0  0  0  2  0  0  0  0  0  0
  160.6220  202.0150  148.7370 C   0  0  2  0  0  3  0  0  0  0  0  0
  161.0160  204.2770  148.5040 C   0  0  0  0  0  2  0  0  0  0  0  0
  160.2900  202.6820  150.0460 C   0  0  0  0  0  2  0  0  0  0  0  0
  1  8  2  0  0  0  0
  1  5  1  0  0  0  0
  2 13  1  0  0  0  0
  3 14  1  0  0  0  0
  3 25  1  0  0  0  0
  4 15  2  0  0  0  0
  4  7  1  0  0  0  0
  5  9  2  0  0  0  0
  6  1  1  0  0  0  0
  7 11  2  0  0  0  0
  8  4  1  0  0  0  0
  9  7  1  0  0  0  0
 10  3  2  0  0  0  0
 11  2  1  0  0  0  0
 11 10  1  0  0  0  0
 12  2  2  0  0  0  0
 13 14  2  0  0  0  0
 15 12  1  0  0  0  0
 16 13  1  6  0  0  0
 16 20  1  0  0  0  0
 17 19  1  0  0  0  0
 17 21  1  0  0  0  0
 18 17  1  0  0  0  0
 18 22  1  0  0  0  0
 19 21  1  0  0  0  0
 21 16  1  0  0  0  0
 21 20  1  0  0  0  0
 22 19  1  0  0  0  0
 23 24  2  0  0  0  0
 24 18  1  0  0  0  0
 25 26  1  0  0  0  0
 27 25  1  0  0  0  0
 28 27  1  0  0  0  0
 28 29  1  0  0  0  0
 30 28  1  0  0  0  0
 31 30  1  0  0  0  0
 32 35  1  0  0  0  0
 32 34  2  0  0  0  0
 33 31  1  0  0  0  0
 34 36  1  0  0  0  0
 34 31  1  0  0  0  0
 35 33  2  0  0  0  0
 36 37  1  0  0  0  0
 38 43  1  0  0  0  0
 38 36  1  0  0  0  0
 40 42  1  0  0  0  0
 40 41  1  0  0  0  0
 41 39  1  0  0  0  0
 41 43  1  0  0  0  0
 42 38  1  0  0  0  0
M  END
>  <MODEL>
9

>  <REMARK>
 VINA RESULT:      -6.5      4.143      8.424
  Name = 
  9 active torsions:
  status: ('A' for Active; 'I' for Inactive)
    1  A    between atoms: C_1  and  C_34
    2  A    between atoms: N_2  and  C_6
    3  A    between atoms: N_2  and  C_13
    4  A    between atoms: C_3  and  N_4
    5  A    between atoms: C_3  and  C_12
    6  A    between atoms: C_6  and  C_12
    7  A    between atoms: N_11  and  C_14
    8  A    between atoms: C_14  and  C_22
    9  A    between atoms: C_19  and  C_37
                            x       y       z     vdW  Elec       q    Type
                         _______ _______ _______ _____ _____    ______ ____

>  <TORSDO>
F 9

$$$$
