=
 OpenBabel11052422223D

 31 34  0  0  1  0  0  0  0  0999 V2000
  162.0210  209.9690  149.3770 C   0  0  0  0  0  0  0  0  0  0  0  0
  161.3310  207.6260  152.3220 C   0  0  2  0  0  3  0  0  0  0  0  0
  160.5290  208.4530  153.3500 C   0  0  2  0  0  3  0  0  0  0  0  0
  161.4800  210.7920  153.5490 C   0  0  0  0  0  2  0  0  0  0  0  0
  161.4210  208.1610  150.8980 C   0  0  0  0  0  0  0  0  0  0  0  0
  161.8550  209.1190  148.2840 C   0  0  0  0  0  3  0  0  0  0  0  0
  160.2850  209.9520  153.1210 C   0  0  0  0  0  2  0  0  0  0  0  0
  161.3290  205.2950  151.3100 C   0  0  1  0  0  3  0  0  0  0  0  0
  162.4150  211.3850  149.1660 C   0  0  0  0  0  1  0  0  0  0  0  0
  161.3110  206.5480  154.8720 C   0  0  0  0  0  2  0  0  0  0  0  0
  161.3520  211.2640  154.9980 C   0  0  0  0  0  2  0  0  0  0  0  0
  160.9670  205.8410  149.9330 C   0  0  0  0  0  2  0  0  0  0  0  0
  160.7330  206.2080  152.3850 C   0  0  1  0  0  3  0  0  0  0  0  0
  161.8220  209.4860  150.6710 C   0  0  0  0  0  3  0  0  0  0  0  0
  160.8870  210.1770  155.9650 C   0  0  0  0  0  2  0  0  0  0  0  0
  161.3200  207.2900  149.7830 C   0  0  0  0  0  0  0  0  0  0  0  0
  161.5100  207.7840  148.4880 C   0  0  0  0  0  3  0  0  0  0  0  0
  160.7650  205.6000  153.8010 C   0  0  0  0  0  2  0  0  0  0  0  0
  160.6980  207.9530  154.8140 C   0  0  1  0  0  3  0  0  0  0  0  0
  161.5720  208.8500  155.6880 C   0  0  0  0  0  2  0  0  0  0  0  0
  160.8870  203.8320  151.4380 C   0  0  0  0  0  2  0  0  0  0  0  0
  161.8270  201.6840  150.9030 O   0  0  0  0  0  1  0  0  0  0  0  0
  161.4750  202.9200  150.3570 C   0  0  1  0  0  3  0  0  0  0  0  0
  159.7760  201.4010  149.2970 C   0  0  0  0  0  1  0  0  0  0  0  0
  160.5210  202.7230  149.1740 C   0  0  2  0  0  3  0  0  0  0  0  0
  160.9930  202.0930  146.9450 O   0  0  0  0  0  0  0  0  0  0  0  0
  161.1790  202.9180  147.8260 C   0  0  0  0  0  0  0  0  0  0  0  0
  162.0610  204.0970  147.5340 C   0  0  0  0  0  2  0  0  0  0  0  0
  161.8870  204.5520  146.1260 C   0  0  0  0  0  0  0  0  0  0  0  0
  162.6960  204.1800  145.2360 O   0  0  0  0  0  0  0  0  0  0  0  0
  160.7900  205.3900  145.7810 N   0  0  0  0  0  1  0  0  0  0  0  0
  1 14  1  0  0  0  0
  2  5  1  6  0  0  0
  2 13  1  0  0  0  0
  2  3  1  0  0  0  0
  3  7  1  1  0  0  0
  3 19  1  0  0  0  0
  4 11  1  0  0  0  0
  6 17  1  0  0  0  0
  6  1  2  0  0  0  0
  7  4  1  0  0  0  0
  8 21  1  1  0  0  0
  8 13  1  0  0  0  0
  9  1  1  0  0  0  0
 11 15  1  0  0  0  0
 12  8  1  0  0  0  0
 13 18  1  1  0  0  0
 14  5  2  0  0  0  0
 16 12  1  0  0  0  0
 16  5  1  0  0  0  0
 17 16  2  0  0  0  0
 18 10  1  0  0  0  0
 19 10  1  6  0  0  0
 19 20  1  0  0  0  0
 20 15  1  0  0  0  0
 23 22  1  1  0  0  0
 23 21  1  0  0  0  0
 25 24  1  6  0  0  0
 25 23  1  0  0  0  0
 26 27  2  0  0  0  0
 27 25  1  0  0  0  0
 28 27  1  0  0  0  0
 29 28  1  0  0  0  0
 30 29  2  0  0  0  0
 31 29  1  0  0  0  0
M  END
>  <MODEL>
1

>  <REMARK>
 VINA RESULT:      -8.6      0.000      0.000
  Name = 
  6 active torsions:
  status: ('A' for Active; 'I' for Inactive)
    1  A    between atoms: C_1  and  C_24
    2  A    between atoms: C_9  and  C_22
    3  A    between atoms: C_9  and  C_23
    4  A    between atoms: C_15  and  C_23
    5  A    between atoms: C_19  and  C_22
    6  A    between atoms: C_19  and  C_24
                            x       y       z     vdW  Elec       q    Type
                         _______ _______ _______ _____ _____    ______ ____

>  <TORSDO>
F 6

$$$$
=
 OpenBabel11052422223D

 31 34  0  0  1  0  0  0  0  0999 V2000
  160.9060  204.6610  149.7700 C   0  0  0  0  0  0  0  0  0  0  0  0
  161.3120  208.2210  151.1100 C   0  0  2  0  0  3  0  0  0  0  0  0
  161.7990  208.0790  152.5680 C   0  0  2  0  0  3  0  0  0  0  0  0
  160.5490  206.2180  153.7470 C   0  0  0  0  0  2  0  0  0  0  0  0
  161.4260  207.0030  150.2020 C   0  0  0  0  0  0  0  0  0  0  0  0
  161.3770  204.7860  148.4630 C   0  0  0  0  0  3  0  0  0  0  0  0
  161.8970  206.6930  153.2230 C   0  0  0  0  0  2  0  0  0  0  0  0
  161.7890  209.6380  149.0550 C   0  0  1  0  0  3  0  0  0  0  0  0
  160.3880  203.3550  150.2530 C   0  0  0  0  0  1  0  0  0  0  0  0
  160.9840  210.5050  152.6400 C   0  0  0  0  0  2  0  0  0  0  0  0
  160.3430  206.6020  155.2130 C   0  0  0  0  0  2  0  0  0  0  0  0
  162.3330  208.4350  148.2930 C   0  0  0  0  0  2  0  0  0  0  0  0
  162.0560  209.4480  150.5510 C   0  0  1  0  0  3  0  0  0  0  0  0
  160.9160  205.7660  150.6220 C   0  0  0  0  0  3  0  0  0  0  0  0
  160.7480  208.0390  155.5400 C   0  0  0  0  0  2  0  0  0  0  0  0
  161.8410  207.1340  148.8520 C   0  0  0  0  0  0  0  0  0  0  0  0
  161.8390  206.0200  148.0060 C   0  0  0  0  0  3  0  0  0  0  0  0
  161.8330  210.7250  151.3860 C   0  0  0  0  0  2  0  0  0  0  0  0
  161.4200  209.2890  153.4690 C   0  0  1  0  0  3  0  0  0  0  0  0
  160.2950  209.0080  154.4620 C   0  0  0  0  0  2  0  0  0  0  0  0
  162.3750  210.9380  148.4900 C   0  0  0  0  0  2  0  0  0  0  0  0
  160.7220  212.6420  148.8710 O   0  0  0  0  0  1  0  0  0  0  0  0
  161.3210  211.8670  147.8780 C   0  0  1  0  0  3  0  0  0  0  0  0
  162.3510  214.1000  147.3620 C   0  0  0  0  0  1  0  0  0  0  0  0
  161.9010  212.7670  146.7820 C   0  0  2  0  0  3  0  0  0  0  0  0
  159.9540  212.2780  145.5320 O   0  0  0  0  0  0  0  0  0  0  0  0
  160.9980  212.9110  145.5760 C   0  0  0  0  0  0  0  0  0  0  0  0
  161.3460  213.8070  144.4230 C   0  0  0  0  0  2  0  0  0  0  0  0
  162.4860  213.2460  143.6430 C   0  0  0  0  0  0  0  0  0  0  0  0
  163.6610  213.6340  143.8730 O   0  0  0  0  0  0  0  0  0  0  0  0
  162.2470  212.2540  142.6530 N   0  0  0  0  0  1  0  0  0  0  0  0
  1  9  1  0  0  0  0
  1 14  1  0  0  0  0
  2  5  1  6  0  0  0
  2  3  1  0  0  0  0
  3  7  1  1  0  0  0
  3 19  1  0  0  0  0
  4 11  1  0  0  0  0
  5 14  2  0  0  0  0
  6  1  2  0  0  0  0
  7  4  1  0  0  0  0
  8 21  1  6  0  0  0
  8 13  1  0  0  0  0
 11 15  1  0  0  0  0
 12 16  1  0  0  0  0
 12  8  1  0  0  0  0
 13  2  1  0  0  0  0
 13 18  1  1  0  0  0
 16  5  1  0  0  0  0
 17  6  1  0  0  0  0
 17 16  2  0  0  0  0
 18 10  1  0  0  0  0
 19 10  1  6  0  0  0
 19 20  1  0  0  0  0
 20 15  1  0  0  0  0
 23 21  1  0  0  0  0
 23 22  1  1  0  0  0
 25 24  1  1  0  0  0
 25 23  1  0  0  0  0
 26 27  2  0  0  0  0
 27 25  1  0  0  0  0
 28 27  1  0  0  0  0
 29 30  2  0  0  0  0
 29 28  1  0  0  0  0
 31 29  1  0  0  0  0
M  END
>  <MODEL>
2

>  <REMARK>
 VINA RESULT:      -8.3      3.755      6.771
  Name = 
  6 active torsions:
  status: ('A' for Active; 'I' for Inactive)
    1  A    between atoms: C_1  and  C_24
    2  A    between atoms: C_9  and  C_22
    3  A    between atoms: C_9  and  C_23
    4  A    between atoms: C_15  and  C_23
    5  A    between atoms: C_19  and  C_22
    6  A    between atoms: C_19  and  C_24
                            x       y       z     vdW  Elec       q    Type
                         _______ _______ _______ _____ _____    ______ ____

>  <TORSDO>
F 6

$$$$
=
 OpenBabel11052422223D

 31 34  0  0  1  0  0  0  0  0999 V2000
  160.9740  206.8220  147.0830 C   0  0  0  0  0  0  0  0  0  0  0  0
  161.0000  204.9240  150.4050 C   0  0  2  0  0  3  0  0  0  0  0  0
  161.6100  203.5380  150.1030 C   0  0  2  0  0  3  0  0  0  0  0  0
  160.7140  202.6250  147.9170 C   0  0  0  0  0  2  0  0  0  0  0  0
  161.2070  206.0290  149.3760 C   0  0  0  0  0  0  0  0  0  0  0  0
  161.3220  208.1110  147.4820 C   0  0  0  0  0  3  0  0  0  0  0  0
  161.9420  203.1320  148.6590 C   0  0  0  0  0  2  0  0  0  0  0  0
  161.1250  206.7320  152.1850 C   0  0  1  0  0  3  0  0  0  0  0  0
  160.6730  206.5390  145.6560 C   0  0  0  0  0  1  0  0  0  0  0  0
  160.4860  203.0150  152.3430 C   0  0  0  0  0  2  0  0  0  0  0  0
  160.5710  201.1070  148.0290 C   0  0  0  0  0  2  0  0  0  0  0  0
  161.7660  207.7140  151.2100 C   0  0  0  0  0  2  0  0  0  0  0  0
  161.5280  205.3060  151.7990 C   0  0  1  0  0  3  0  0  0  0  0  0
  160.9000  205.7970  148.0270 C   0  0  0  0  0  3  0  0  0  0  0  0
  160.8030  200.5640  149.4380 C   0  0  0  0  0  2  0  0  0  0  0  0
  161.4960  207.3580  149.7800 C   0  0  0  0  0  0  0  0  0  0  0  0
  161.5790  208.3780  148.8260 C   0  0  0  0  0  3  0  0  0  0  0  0
  161.2000  204.2570  152.8810 C   0  0  0  0  0  2  0  0  0  0  0  0
  161.1430  202.4280  151.0870 C   0  0  1  0  0  3  0  0  0  0  0  0
  160.1430  201.4380  150.4910 C   0  0  0  0  0  2  0  0  0  0  0  0
  161.4870  207.1000  153.6290 C   0  0  0  0  0  2  0  0  0  0  0  0
  159.9480  206.9490  155.4710 O   0  0  0  0  0  1  0  0  0  0  0  0
  160.3360  207.7560  154.4000 C   0  0  1  0  0  3  0  0  0  0  0  0
  159.6380  209.6660  155.8750 C   0  0  0  0  0  1  0  0  0  0  0  0
  160.6890  209.1610  154.8960 C   0  0  2  0  0  3  0  0  0  0  0  0
  162.1210  210.5910  153.6740 O   0  0  0  0  0  0  0  0  0  0  0  0
  160.9920  210.1390  153.7820 C   0  0  0  0  0  0  0  0  0  0  0  0
  159.9430  210.5780  152.8010 C   0  0  0  0  0  2  0  0  0  0  0  0
  159.7870  212.0600  152.8230 C   0  0  0  0  0  0  0  0  0  0  0  0
  159.5580  212.6560  153.9070 O   0  0  0  0  0  0  0  0  0  0  0  0
  159.9200  212.8050  151.6180 N   0  0  0  0  0  1  0  0  0  0  0  0
  1  6  2  0  0  0  0
  1 14  1  0  0  0  0
  2  5  1  6  0  0  0
  2 13  1  0  0  0  0
  3  7  1  6  0  0  0
  3  2  1  0  0  0  0
  3 19  1  0  0  0  0
  4 11  1  0  0  0  0
  4  7  1  0  0  0  0
  5 16  1  0  0  0  0
  6 17  1  0  0  0  0
  8 21  1  1  0  0  0
  9  1  1  0  0  0  0
 10 18  1  0  0  0  0
 11 15  1  0  0  0  0
 12  8  1  0  0  0  0
 13  8  1  0  0  0  0
 13 18  1  1  0  0  0
 14  5  2  0  0  0  0
 15 20  1  0  0  0  0
 16 12  1  0  0  0  0
 17 16  2  0  0  0  0
 19 20  1  6  0  0  0
 19 10  1  0  0  0  0
 21 23  1  0  0  0  0
 23 25  1  0  0  0  0
 23 22  1  1  0  0  0
 25 24  1  6  0  0  0
 26 27  2  0  0  0  0
 27 25  1  0  0  0  0
 28 29  1  0  0  0  0
 28 27  1  0  0  0  0
 29 30  2  0  0  0  0
 31 29  1  0  0  0  0
M  END
>  <MODEL>
3

>  <REMARK>
 VINA RESULT:      -8.1      3.613      7.356
  Name = 
  6 active torsions:
  status: ('A' for Active; 'I' for Inactive)
    1  A    between atoms: C_1  and  C_24
    2  A    between atoms: C_9  and  C_22
    3  A    between atoms: C_9  and  C_23
    4  A    between atoms: C_15  and  C_23
    5  A    between atoms: C_19  and  C_22
    6  A    between atoms: C_19  and  C_24
                            x       y       z     vdW  Elec       q    Type
                         _______ _______ _______ _____ _____    ______ ____

>  <TORSDO>
F 6

$$$$
=
 OpenBabel11052422223D

 31 34  0  0  1  0  0  0  0  0999 V2000
  160.9310  204.7370  149.7180 C   0  0  0  0  0  0  0  0  0  0  0  0
  161.3140  208.2970  151.0680 C   0  0  2  0  0  3  0  0  0  0  0  0
  161.8100  208.1540  152.5230 C   0  0  2  0  0  3  0  0  0  0  0  0
  160.5820  206.2790  153.7030 C   0  0  0  0  0  2  0  0  0  0  0  0
  161.4330  207.0830  150.1550 C   0  0  0  0  0  0  0  0  0  0  0  0
  161.3930  204.8710  148.4100 C   0  0  0  0  0  3  0  0  0  0  0  0
  161.9230  206.7670  153.1730 C   0  0  0  0  0  2  0  0  0  0  0  0
  161.7670  209.7240  149.0150 C   0  0  1  0  0  3  0  0  0  0  0  0
  160.4270  203.4260  150.2000 C   0  0  0  0  0  1  0  0  0  0  0  0
  160.9740  210.5730  152.6080 C   0  0  0  0  0  2  0  0  0  0  0  0
  160.3810  206.6560  155.1710 C   0  0  0  0  0  2  0  0  0  0  0  0
  162.3180  208.5280  148.2460 C   0  0  0  0  0  2  0  0  0  0  0  0
  162.0450  209.5320  150.5090 C   0  0  1  0  0  3  0  0  0  0  0  0
  160.9360  205.8400  150.5750 C   0  0  0  0  0  3  0  0  0  0  0  0
  160.7750  208.0950  155.5010 C   0  0  0  0  0  2  0  0  0  0  0  0
  161.8390  207.2220  148.8040 C   0  0  0  0  0  0  0  0  0  0  0  0
  161.8420  206.1100  147.9540 C   0  0  0  0  0  3  0  0  0  0  0  0
  161.8150  210.8040  151.3490 C   0  0  0  0  0  2  0  0  0  0  0  0
  161.4260  209.3580  153.4300 C   0  0  1  0  0  3  0  0  0  0  0  0
  160.3080  209.0640  154.4280 C   0  0  0  0  0  2  0  0  0  0  0  0
  162.3390  211.0310  148.4520 C   0  0  0  0  0  2  0  0  0  0  0  0
  160.6480  212.7070  148.7900 O   0  0  0  0  0  1  0  0  0  0  0  0
  161.2800  211.9360  147.8130 C   0  0  1  0  0  3  0  0  0  0  0  0
  162.2940  214.1770  147.3030 C   0  0  0  0  0  1  0  0  0  0  0  0
  161.8620  212.8390  146.7220 C   0  0  2  0  0  3  0  0  0  0  0  0
  161.3100  213.7090  144.5930 O   0  0  0  0  0  0  0  0  0  0  0  0
  160.9690  212.9730  145.5060 C   0  0  0  0  0  0  0  0  0  0  0  0
  159.6710  212.2300  145.3870 C   0  0  0  0  0  2  0  0  0  0  0  0
  158.5460  213.0410  145.9340 C   0  0  0  0  0  0  0  0  0  0  0  0
  158.7100  214.2650  146.1790 O   0  0  0  0  0  0  0  0  0  0  0  0
  157.2790  212.4360  146.1590 N   0  0  0  0  0  1  0  0  0  0  0  0
  1  9  1  0  0  0  0
  1 14  1  0  0  0  0
  2  5  1  6  0  0  0
  2  3  1  0  0  0  0
  3  7  1  1  0  0  0
  3 19  1  0  0  0  0
  4 11  1  0  0  0  0
  5 14  2  0  0  0  0
  6  1  2  0  0  0  0
  7  4  1  0  0  0  0
  8 21  1  6  0  0  0
  8 13  1  0  0  0  0
 11 15  1  0  0  0  0
 12 16  1  0  0  0  0
 12  8  1  0  0  0  0
 13  2  1  0  0  0  0
 13 18  1  1  0  0  0
 16  5  1  0  0  0  0
 17  6  1  0  0  0  0
 17 16  2  0  0  0  0
 18 10  1  0  0  0  0
 19 10  1  6  0  0  0
 19 20  1  0  0  0  0
 20 15  1  0  0  0  0
 23 21  1  0  0  0  0
 23 22  1  1  0  0  0
 25 24  1  1  0  0  0
 25 23  1  0  0  0  0
 26 27  2  0  0  0  0
 27 25  1  0  0  0  0
 28 27  1  0  0  0  0
 28 29  1  0  0  0  0
 29 31  1  0  0  0  0
 29 30  2  0  0  0  0
M  END
>  <MODEL>
4

>  <REMARK>
 VINA RESULT:      -8.0      3.919      6.878
  Name = 
  6 active torsions:
  status: ('A' for Active; 'I' for Inactive)
    1  A    between atoms: C_1  and  C_24
    2  A    between atoms: C_9  and  C_22
    3  A    between atoms: C_9  and  C_23
    4  A    between atoms: C_15  and  C_23
    5  A    between atoms: C_19  and  C_22
    6  A    between atoms: C_19  and  C_24
                            x       y       z     vdW  Elec       q    Type
                         _______ _______ _______ _____ _____    ______ ____

>  <TORSDO>
F 6

$$$$
=
 OpenBabel11052422223D

 31 34  0  0  1  0  0  0  0  0999 V2000
  162.0480  210.3640  149.4210 C   0  0  0  0  0  0  0  0  0  0  0  0
  161.4760  207.6750  152.0810 C   0  0  2  0  0  3  0  0  0  0  0  0
  160.5990  208.3280  153.1720 C   0  0  2  0  0  3  0  0  0  0  0  0
  161.3760  210.6930  153.6420 C   0  0  0  0  0  2  0  0  0  0  0  0
  161.5530  208.3650  150.7250 C   0  0  0  0  0  0  0  0  0  0  0  0
  161.9630  209.6280  148.2400 C   0  0  0  0  0  3  0  0  0  0  0  0
  160.2520  209.8230  153.0980 C   0  0  0  0  0  2  0  0  0  0  0  0
  161.6590  205.4720  150.8280 C   0  0  1  0  0  3  0  0  0  0  0  0
  162.3440  211.8190  149.3720 C   0  0  0  0  0  1  0  0  0  0  0  0
  161.4900  206.3290  154.5010 C   0  0  0  0  0  2  0  0  0  0  0  0
  161.1900  210.9960  155.1290 C   0  0  0  0  0  2  0  0  0  0  0  0
  161.2830  206.1370  149.5080 C   0  0  0  0  0  2  0  0  0  0  0  0
  160.9800  206.2210  151.9790 C   0  0  1  0  0  3  0  0  0  0  0  0
  161.8620  209.7310  150.6510 C   0  0  0  0  0  3  0  0  0  0  0  0
  160.7870  209.7810  155.9630 C   0  0  0  0  0  2  0  0  0  0  0  0
  161.5340  207.6150  149.5220 C   0  0  0  0  0  0  0  0  0  0  0  0
  161.7100  208.2570  148.2920 C   0  0  0  0  0  3  0  0  0  0  0  0
  161.0310  205.4660  153.3220 C   0  0  0  0  0  2  0  0  0  0  0  0
  160.7780  207.6870  154.5780 C   0  0  1  0  0  3  0  0  0  0  0  0
  161.5710  208.5420  155.5640 C   0  0  0  0  0  2  0  0  0  0  0  0
  161.3210  203.9770  150.7890 C   0  0  0  0  0  2  0  0  0  0  0  0
  161.9650  203.6370  148.4960 O   0  0  0  0  0  1  0  0  0  0  0  0
  160.9110  203.4800  149.3980 C   0  0  1  0  0  3  0  0  0  0  0  0
  161.1150  201.2490  150.5350 C   0  0  0  0  0  1  0  0  0  0  0  0
  160.4400  202.0230  149.4120 C   0  0  2  0  0  3  0  0  0  0  0  0
  161.4250  200.5160  147.8800 O   0  0  0  0  0  0  0  0  0  0  0  0
  160.5430  201.3400  148.0660 C   0  0  0  0  0  0  0  0  0  0  0  0
  159.5930  201.6450  146.9440 C   0  0  0  0  0  2  0  0  0  0  0  0
  160.3190  201.7210  145.6440 C   0  0  0  0  0  0  0  0  0  0  0  0
  160.1440  200.8330  144.7690 O   0  0  0  0  0  0  0  0  0  0  0  0
  161.1940  202.8110  145.3830 N   0  0  0  0  0  1  0  0  0  0  0  0
  1 14  1  0  0  0  0
  2  5  1  6  0  0  0
  2  3  1  0  0  0  0
  3  7  1  1  0  0  0
  3 19  1  0  0  0  0
  4 11  1  0  0  0  0
  6 17  1  0  0  0  0
  6  1  2  0  0  0  0
  7  4  1  0  0  0  0
  8 21  1  6  0  0  0
  8 13  1  0  0  0  0
  9  1  1  0  0  0  0
 11 15  1  0  0  0  0
 12 16  1  0  0  0  0
 12  8  1  0  0  0  0
 13  2  1  0  0  0  0
 13 18  1  1  0  0  0
 14  5  2  0  0  0  0
 16  5  1  0  0  0  0
 17 16  2  0  0  0  0
 18 10  1  0  0  0  0
 19 10  1  6  0  0  0
 19 20  1  0  0  0  0
 20 15  1  0  0  0  0
 23 22  1  6  0  0  0
 23 25  1  0  0  0  0
 23 21  1  0  0  0  0
 25 24  1  1  0  0  0
 26 27  2  0  0  0  0
 27 25  1  0  0  0  0
 28 27  1  0  0  0  0
 29 28  1  0  0  0  0
 30 29  2  0  0  0  0
 31 29  1  0  0  0  0
M  END
>  <MODEL>
5

>  <REMARK>
 VINA RESULT:      -7.9      1.359      1.543
  Name = 
  6 active torsions:
  status: ('A' for Active; 'I' for Inactive)
    1  A    between atoms: C_1  and  C_24
    2  A    between atoms: C_9  and  C_22
    3  A    between atoms: C_9  and  C_23
    4  A    between atoms: C_15  and  C_23
    5  A    between atoms: C_19  and  C_22
    6  A    between atoms: C_19  and  C_24
                            x       y       z     vdW  Elec       q    Type
                         _______ _______ _______ _____ _____    ______ ____

>  <TORSDO>
F 6

$$$$
=
 OpenBabel11052422223D

 31 34  0  0  1  0  0  0  0  0999 V2000
  160.0550  209.8070  154.5360 C   0  0  0  0  0  0  0  0  0  0  0  0
  161.3280  208.1800  151.3150 C   0  0  2  0  0  3  0  0  0  0  0  0
  162.2380  209.2260  150.6360 C   0  0  2  0  0  3  0  0  0  0  0  0
  161.2090  211.5360  150.7870 C   0  0  0  0  0  2  0  0  0  0  0  0
  160.9840  208.3870  152.7850 C   0  0  0  0  0  0  0  0  0  0  0  0
  160.0880  208.7400  155.4330 C   0  0  0  0  0  3  0  0  0  0  0  0
  162.3640  210.6420  151.2180 C   0  0  0  0  0  2  0  0  0  0  0  0
  161.2910  205.6850  151.7890 C   0  0  1  0  0  3  0  0  0  0  0  0
  159.5570  211.1350  154.9760 C   0  0  0  0  0  1  0  0  0  0  0  0
  161.8100  207.6900  148.6330 C   0  0  0  0  0  2  0  0  0  0  0  0
  161.5410  212.3170  149.5150 C   0  0  0  0  0  2  0  0  0  0  0  0
  161.4000  205.9200  153.2920 C   0  0  0  0  0  2  0  0  0  0  0  0
  162.0020  206.8220  151.0500 C   0  0  1  0  0  3  0  0  0  0  0  0
  160.4820  209.6230  153.2200 C   0  0  0  0  0  3  0  0  0  0  0  0
  162.2110  211.4770  148.4280 C   0  0  0  0  0  2  0  0  0  0  0  0
  160.9510  207.2940  153.6880 C   0  0  0  0  0  0  0  0  0  0  0  0
  160.5320  207.4880  155.0090 C   0  0  0  0  0  3  0  0  0  0  0  0
  162.2280  206.5380  149.5510 C   0  0  0  0  0  2  0  0  0  0  0  0
  162.3310  209.0580  149.0920 C   0  0  1  0  0  3  0  0  0  0  0  0
  161.5610  210.1100  148.2960 C   0  0  0  0  0  2  0  0  0  0  0  0
  161.8240  204.2930  151.4270 C   0  0  0  0  0  2  0  0  0  0  0  0
  159.6130  204.1240  150.4960 O   0  0  0  0  0  1  0  0  0  0  0  0
  160.8060  203.4230  150.6820 C   0  0  1  0  0  3  0  0  0  0  0  0
  161.2070  203.9950  148.2680 C   0  0  0  0  0  1  0  0  0  0  0  0
  161.3390  202.9190  149.3370 C   0  0  2  0  0  3  0  0  0  0  0  0
  159.5970  201.3280  149.1810 O   0  0  0  0  0  0  0  0  0  0  0  0
  160.7620  201.5840  148.9200 C   0  0  0  0  0  0  0  0  0  0  0  0
  161.5810  200.5550  148.1950 C   0  0  0  0  0  2  0  0  0  0  0  0
  161.2010  200.4960  146.7550 C   0  0  0  0  0  0  0  0  0  0  0  0
  160.8300  201.5390  146.1560 O   0  0  0  0  0  0  0  0  0  0  0  0
  161.2780  199.2630  146.0510 N   0  0  0  0  0  1  0  0  0  0  0  0
  1  9  1  0  0  0  0
  1  6  1  0  0  0  0
  2  5  1  1  0  0  0
  3  7  1  6  0  0  0
  3  2  1  0  0  0  0
  4  7  1  0  0  0  0
  5 14  1  0  0  0  0
  5 16  2  0  0  0  0
  8 21  1  1  0  0  0
  8 12  1  0  0  0  0
 10 19  1  0  0  0  0
 10 18  1  0  0  0  0
 11  4  1  0  0  0  0
 12 16  1  0  0  0  0
 13 18  1  6  0  0  0
 13  2  1  0  0  0  0
 13  8  1  0  0  0  0
 14  1  2  0  0  0  0
 15 11  1  0  0  0  0
 16 17  1  0  0  0  0
 17  6  2  0  0  0  0
 19 20  1  6  0  0  0
 19  3  1  0  0  0  0
 20 15  1  0  0  0  0
 23 22  1  6  0  0  0
 23 21  1  0  0  0  0
 25 24  1  6  0  0  0
 25 23  1  0  0  0  0
 27 26  2  0  0  0  0
 27 25  1  0  0  0  0
 28 27  1  0  0  0  0
 29 28  1  0  0  0  0
 30 29  2  0  0  0  0
 31 29  1  0  0  0  0
M  END
>  <MODEL>
6

>  <REMARK>
 VINA RESULT:      -7.8      1.791      4.407
  Name = 
  6 active torsions:
  status: ('A' for Active; 'I' for Inactive)
    1  A    between atoms: C_1  and  C_24
    2  A    between atoms: C_9  and  C_22
    3  A    between atoms: C_9  and  C_23
    4  A    between atoms: C_15  and  C_23
    5  A    between atoms: C_19  and  C_22
    6  A    between atoms: C_19  and  C_24
                            x       y       z     vdW  Elec       q    Type
                         _______ _______ _______ _____ _____    ______ ____

>  <TORSDO>
F 6

$$$$
=
 OpenBabel11052422223D

 31 34  0  0  1  0  0  0  0  0999 V2000
  160.9250  206.6210  146.8630 C   0  0  0  0  0  0  0  0  0  0  0  0
  160.9710  204.9800  150.3190 C   0  0  2  0  0  3  0  0  0  0  0  0
  161.6050  203.5850  150.1250 C   0  0  2  0  0  3  0  0  0  0  0  0
  160.7310  202.4950  148.0130 C   0  0  0  0  0  2  0  0  0  0  0  0
  161.1640  206.0070  149.2100 C   0  0  0  0  0  0  0  0  0  0  0  0
  161.2510  207.9420  147.1640 C   0  0  0  0  0  3  0  0  0  0  0  0
  161.9480  203.0770  148.7160 C   0  0  0  0  0  2  0  0  0  0  0  0
  161.0620  206.9200  151.9570 C   0  0  1  0  0  3  0  0  0  0  0  0
  160.6330  206.2260  145.4610 C   0  0  0  0  0  1  0  0  0  0  0  0
  160.4820  203.2150  152.3960 C   0  0  0  0  0  2  0  0  0  0  0  0
  160.6120  200.9880  148.2390 C   0  0  0  0  0  2  0  0  0  0  0  0
  161.6900  207.8350  150.9130 C   0  0  0  0  0  2  0  0  0  0  0  0
  161.4900  205.4750  151.6820 C   0  0  1  0  0  3  0  0  0  0  0  0
  160.8650  205.6690  147.8820 C   0  0  0  0  0  3  0  0  0  0  0  0
  160.8480  200.5570  149.6850 C   0  0  0  0  0  2  0  0  0  0  0  0
  161.4300  207.3670  149.5130 C   0  0  0  0  0  0  0  0  0  0  0  0
  161.5000  208.3130  148.4850 C   0  0  0  0  0  3  0  0  0  0  0  0
  161.1750  204.5060  152.8390 C   0  0  0  0  0  2  0  0  0  0  0  0
  161.1530  202.5450  151.1890 C   0  0  1  0  0  3  0  0  0  0  0  0
  160.1710  201.4980  150.6680 C   0  0  0  0  0  2  0  0  0  0  0  0
  161.4130  207.4020  153.3700 C   0  0  0  0  0  2  0  0  0  0  0  0
  160.0310  209.2890  152.8120 O   0  0  0  0  0  1  0  0  0  0  0  0
  161.1080  208.8850  153.6040 C   0  0  1  0  0  3  0  0  0  0  0  0
  160.0680  208.0610  155.7370 C   0  0  0  0  0  1  0  0  0  0  0  0
  160.8290  209.2010  155.0770 C   0  0  2  0  0  3  0  0  0  0  0  0
  160.8410  211.5650  155.0710 O   0  0  0  0  0  0  0  0  0  0  0  0
  160.1910  210.5560  155.2950 C   0  0  0  0  0  0  0  0  0  0  0  0
  158.7800  210.7020  155.7850 C   0  0  0  0  0  2  0  0  0  0  0  0
  158.0390  211.7070  154.9720 C   0  0  0  0  0  0  0  0  0  0  0  0
  157.8840  211.5300  153.7350 O   0  0  0  0  0  0  0  0  0  0  0  0
  157.4870  212.8580  155.5980 N   0  0  0  0  0  1  0  0  0  0  0  0
  1  6  2  0  0  0  0
  1 14  1  0  0  0  0
  2  5  1  6  0  0  0
  2 13  1  0  0  0  0
  3  7  1  6  0  0  0
  3  2  1  0  0  0  0
  3 19  1  0  0  0  0
  4 11  1  0  0  0  0
  4  7  1  0  0  0  0
  5 16  1  0  0  0  0
  6 17  1  0  0  0  0
  8 21  1  1  0  0  0
  9  1  1  0  0  0  0
 10 18  1  0  0  0  0
 11 15  1  0  0  0  0
 12  8  1  0  0  0  0
 13  8  1  0  0  0  0
 13 18  1  1  0  0  0
 14  5  2  0  0  0  0
 15 20  1  0  0  0  0
 16 12  1  0  0  0  0
 17 16  2  0  0  0  0
 19 20  1  6  0  0  0
 19 10  1  0  0  0  0
 21 23  1  0  0  0  0
 23 22  1  6  0  0  0
 23 25  1  0  0  0  0
 25 27  1  0  0  0  0
 25 24  1  6  0  0  0
 26 27  2  0  0  0  0
 27 28  1  0  0  0  0
 29 31  1  0  0  0  0
 29 28  1  0  0  0  0
 30 29  2  0  0  0  0
M  END
>  <MODEL>
7

>  <REMARK>
 VINA RESULT:      -7.5      4.081      7.810
  Name = 
  6 active torsions:
  status: ('A' for Active; 'I' for Inactive)
    1  A    between atoms: C_1  and  C_24
    2  A    between atoms: C_9  and  C_22
    3  A    between atoms: C_9  and  C_23
    4  A    between atoms: C_15  and  C_23
    5  A    between atoms: C_19  and  C_22
    6  A    between atoms: C_19  and  C_24
                            x       y       z     vdW  Elec       q    Type
                         _______ _______ _______ _____ _____    ______ ____

>  <TORSDO>
F 6

$$$$
=
 OpenBabel11052422223D

 31 34  0  0  1  0  0  0  0  0999 V2000
  161.9280  210.6740  149.5790 C   0  0  0  0  0  0  0  0  0  0  0  0
  161.1700  208.6090  152.7090 C   0  0  2  0  0  3  0  0  0  0  0  0
  160.0510  209.3630  153.4610 C   0  0  2  0  0  3  0  0  0  0  0  0
  160.4870  211.8580  153.4390 C   0  0  0  0  0  2  0  0  0  0  0  0
  161.4160  208.9760  151.2510 C   0  0  0  0  0  0  0  0  0  0  0  0
  162.1300  209.6840  148.6190 C   0  0  0  0  0  3  0  0  0  0  0  0
  159.5720  210.7370  152.9680 C   0  0  0  0  0  2  0  0  0  0  0  0
  161.7960  206.2280  152.0840 C   0  0  1  0  0  3  0  0  0  0  0  0
  162.0780  212.1070  149.2150 C   0  0  0  0  0  1  0  0  0  0  0  0
  160.8900  207.8660  155.3620 C   0  0  0  0  0  2  0  0  0  0  0  0
  160.0090  212.4620  154.7600 C   0  0  0  0  0  2  0  0  0  0  0  0
  161.5950  206.5140  150.6000 C   0  0  0  0  0  2  0  0  0  0  0  0
  160.8510  207.1150  152.8990 C   0  0  1  0  0  3  0  0  0  0  0  0
  161.5920  210.3190  150.8870 C   0  0  0  0  0  3  0  0  0  0  0  0
  159.5900  211.4250  155.8010 C   0  0  0  0  0  2  0  0  0  0  0  0
  161.6870  207.9760  150.2830 C   0  0  0  0  0  0  0  0  0  0  0  0
  162.0130  208.3400  148.9720 C   0  0  0  0  0  3  0  0  0  0  0  0
  160.7390  206.7020  154.3800 C   0  0  0  0  0  2  0  0  0  0  0  0
  160.0420  209.0910  154.9930 C   0  0  1  0  0  3  0  0  0  0  0  0
  160.5540  210.2520  155.8420 C   0  0  0  0  0  2  0  0  0  0  0  0
  161.6240  204.7300  152.3670 C   0  0  0  0  0  2  0  0  0  0  0  0
  162.3630  202.5830  151.5740 O   0  0  0  0  0  1  0  0  0  0  0  0
  161.9250  203.8410  151.1560 C   0  0  1  0  0  3  0  0  0  0  0  0
  160.1370  202.2940  150.3040 C   0  0  0  0  0  1  0  0  0  0  0  0
  160.7200  203.6980  150.2210 C   0  0  2  0  0  3  0  0  0  0  0  0
  160.4840  205.1810  148.3950 O   0  0  0  0  0  0  0  0  0  0  0  0
  160.9960  204.1500  148.8030 C   0  0  0  0  0  0  0  0  0  0  0  0
  161.8800  203.3680  147.8760 C   0  0  0  0  0  2  0  0  0  0  0  0
  162.0060  204.0560  146.5600 C   0  0  0  0  0  0  0  0  0  0  0  0
  162.9230  204.8970  146.3710 O   0  0  0  0  0  0  0  0  0  0  0  0
  161.1010  203.7450  145.5080 N   0  0  0  0  0  1  0  0  0  0  0  0
  1 14  1  0  0  0  0
  2  5  1  6  0  0  0
  2 13  1  0  0  0  0
  2  3  1  0  0  0  0
  3  7  1  1  0  0  0
  3 19  1  0  0  0  0
  4 11  1  0  0  0  0
  6 17  1  0  0  0  0
  6  1  2  0  0  0  0
  7  4  1  0  0  0  0
  8 21  1  6  0  0  0
  8 13  1  0  0  0  0
  9  1  1  0  0  0  0
 11 15  1  0  0  0  0
 12  8  1  0  0  0  0
 13 18  1  1  0  0  0
 14  5  2  0  0  0  0
 15 20  1  0  0  0  0
 16 12  1  0  0  0  0
 16  5  1  0  0  0  0
 17 16  2  0  0  0  0
 18 10  1  0  0  0  0
 19 10  1  6  0  0  0
 19 20  1  0  0  0  0
 23 22  1  1  0  0  0
 23 21  1  0  0  0  0
 25 24  1  6  0  0  0
 25 23  1  0  0  0  0
 26 27  2  0  0  0  0
 27 25  1  0  0  0  0
 28 27  1  0  0  0  0
 29 28  1  0  0  0  0
 30 29  2  0  0  0  0
 31 29  1  0  0  0  0
M  END
>  <MODEL>
8

>  <REMARK>
 VINA RESULT:      -7.3      1.258      1.383
  Name = 
  6 active torsions:
  status: ('A' for Active; 'I' for Inactive)
    1  A    between atoms: C_1  and  C_24
    2  A    between atoms: C_9  and  C_22
    3  A    between atoms: C_9  and  C_23
    4  A    between atoms: C_15  and  C_23
    5  A    between atoms: C_19  and  C_22
    6  A    between atoms: C_19  and  C_24
                            x       y       z     vdW  Elec       q    Type
                         _______ _______ _______ _____ _____    ______ ____

>  <TORSDO>
F 6

$$$$
=
 OpenBabel11052422223D

 31 34  0  0  1  0  0  0  0  0999 V2000
  160.0740  209.5090  154.5750 C   0  0  0  0  0  0  0  0  0  0  0  0
  161.3670  208.2140  151.2150 C   0  0  2  0  0  3  0  0  0  0  0  0
  162.2120  209.3570  150.6100 C   0  0  2  0  0  3  0  0  0  0  0  0
  161.0740  211.5910  150.9630 C   0  0  0  0  0  2  0  0  0  0  0  0
  161.0400  208.2850  152.7010 C   0  0  0  0  0  0  0  0  0  0  0  0
  160.1770  208.3770  155.3820 C   0  0  0  0  0  3  0  0  0  0  0  0
  162.2780  210.7260  151.3040 C   0  0  0  0  0  2  0  0  0  0  0  0
  161.4620  205.6900  151.4850 C   0  0  1  0  0  3  0  0  0  0  0  0
  159.5200  210.7710  155.1280 C   0  0  0  0  0  1  0  0  0  0  0  0
  161.8240  207.9670  148.4950 C   0  0  0  0  0  2  0  0  0  0  0  0
  161.3430  212.4880  149.7540 C   0  0  0  0  0  2  0  0  0  0  0  0
  161.5870  205.8090  153.0000 C   0  0  0  0  0  2  0  0  0  0  0  0
  162.1030  206.9170  150.8300 C   0  0  1  0  0  3  0  0  0  0  0  0
  160.4860  209.4550  153.2420 C   0  0  0  0  0  3  0  0  0  0  0  0
  162.0340  211.7740  148.5940 C   0  0  0  0  0  2  0  0  0  0  0  0
  161.0790  207.1220  153.5130 C   0  0  0  0  0  0  0  0  0  0  0  0
  160.6740  207.1880  154.8510 C   0  0  0  0  0  3  0  0  0  0  0  0
  162.3150  206.7680  149.3110 C   0  0  0  0  0  2  0  0  0  0  0  0
  162.2850  209.3180  149.0570 C   0  0  1  0  0  3  0  0  0  0  0  0
  161.4500  210.3900  148.3600 C   0  0  0  0  0  2  0  0  0  0  0  0
  162.0570  204.3610  151.0030 C   0  0  0  0  0  2  0  0  0  0  0  0
  160.1560  203.3900  152.1100 O   0  0  0  0  0  1  0  0  0  0  0  0
  161.0730  203.1880  151.0780 C   0  0  1  0  0  3  0  0  0  0  0  0
  159.6430  201.6010  149.7560 C   0  0  0  0  0  1  0  0  0  0  0  0
  160.3380  202.9550  149.7550 C   0  0  2  0  0  3  0  0  0  0  0  0
  161.9680  202.3080  148.1690 O   0  0  0  0  0  0  0  0  0  0  0  0
  161.2010  203.1860  148.5330 C   0  0  0  0  0  0  0  0  0  0  0  0
  161.1490  204.4670  147.7520 C   0  0  0  0  0  2  0  0  0  0  0  0
  161.8880  204.3320  146.4650 C   0  0  0  0  0  0  0  0  0  0  0  0
  163.0970  204.6750  146.3920 O   0  0  0  0  0  0  0  0  0  0  0  0
  161.2340  203.7930  145.3240 N   0  0  0  0  0  1  0  0  0  0  0  0
  1  9  1  0  0  0  0
  1  6  1  0  0  0  0
  2  5  1  1  0  0  0
  3  2  1  0  0  0  0
  3  7  1  6  0  0  0
  4  7  1  0  0  0  0
  5 14  1  0  0  0  0
  5 16  2  0  0  0  0
  8 21  1  6  0  0  0
  8 12  1  0  0  0  0
 10 19  1  0  0  0  0
 10 18  1  0  0  0  0
 11  4  1  0  0  0  0
 12 16  1  0  0  0  0
 13 18  1  6  0  0  0
 13  2  1  0  0  0  0
 13  8  1  0  0  0  0
 14  1  2  0  0  0  0
 15 11  1  0  0  0  0
 16 17  1  0  0  0  0
 17  6  2  0  0  0  0
 19 20  1  6  0  0  0
 19  3  1  0  0  0  0
 20 15  1  0  0  0  0
 21 23  1  0  0  0  0
 23 22  1  1  0  0  0
 25 24  1  1  0  0  0
 25 23  1  0  0  0  0
 26 27  2  0  0  0  0
 27 25  1  0  0  0  0
 28 27  1  0  0  0  0
 29 28  1  0  0  0  0
 30 29  2  0  0  0  0
 31 29  1  0  0  0  0
M  END
>  <MODEL>
9

>  <REMARK>
 VINA RESULT:      -7.2      1.220      4.042
  Name = 
  6 active torsions:
  status: ('A' for Active; 'I' for Inactive)
    1  A    between atoms: C_1  and  C_24
    2  A    between atoms: C_9  and  C_22
    3  A    between atoms: C_9  and  C_23
    4  A    between atoms: C_15  and  C_23
    5  A    between atoms: C_19  and  C_22
    6  A    between atoms: C_19  and  C_24
                            x       y       z     vdW  Elec       q    Type
                         _______ _______ _______ _____ _____    ______ ____

>  <TORSDO>
F 6

$$$$
