=
 OpenBabel11052421583D

 30 32  0  0  1  0  0  0  0  0999 V2000
  162.4990  207.8950  149.6310 O   0  0  0  0  0  0  0  0  0  0  0  0
  162.1100  208.6910  150.7070 C   0  0  0  0  0  2  0  0  0  0  0  0
  161.1430  207.9240  151.5820 C   0  0  0  0  0  2  0  0  0  0  0  0
  161.8490  206.7600  152.2610 C   0  0  0  0  0  2  0  0  0  0  0  0
  161.3600  206.6080  153.6900 C   0  0  0  0  0  2  0  0  0  0  0  0
  161.7750  207.9950  156.1530 O   0  0  0  0  0  0  0  0  0  0  0  0
  160.9100  208.4570  155.3600 C   0  0  0  0  0  0  0  0  0  0  0  0
  160.6620  207.8150  154.1050 N   0  0  0  0  0  2  0  0  0  0  0  0
  158.4580  211.2950  154.6340 C   0  0  0  0  0  2  0  0  0  0  0  0
  156.8670  212.5890  156.0590 C   0  0  0  0  0  1  0  0  0  0  0  0
  160.8710  210.9370  155.4530 C   0  0  1  0  0  3  0  0  0  0  0  0
  157.9850  211.5650  156.0690 C   0  0  2  0  0  3  0  0  0  0  0  0
  159.7590  210.4750  154.5110 C   0  0  1  0  0  3  0  0  0  0  0  0
  159.0980  212.0230  157.0160 C   0  0  0  0  0  2  0  0  0  0  0  0
  160.4730  212.1300  156.3480 C   0  0  0  0  0  2  0  0  0  0  0  0
  160.1000  209.6500  155.7510 C   0  0  1  0  0  3  0  0  0  0  0  0
  161.5580  208.1590  148.6380 C   0  0  0  0  0  2  0  0  0  0  0  0
  161.3260  206.9140  147.8020 C   0  0  0  0  0  2  0  0  0  0  0  0
  162.5060  206.1690  147.7200 O   0  0  0  0  0  0  0  0  0  0  0  0
  163.3140  204.6600  145.9070 C   0  0  0  0  0  2  0  0  0  0  0  0
  162.1580  205.5250  145.4390 C   0  0  0  0  0  2  0  0  0  0  0  0
  162.2280  205.0790  146.8850 C   0  0  0  0  0  0  0  0  0  0  0  0
  161.0430  204.1770  147.2500 C   0  0  0  0  0  2  0  0  0  0  0  0
  161.4760  202.8290  147.8240 C   0  0  1  0  0  3  0  0  0  0  0  0
  161.2770  202.7410  149.3450 C   0  0  2  0  0  3  0  0  0  0  0  0
  160.5170  201.4970  149.7960 C   0  0  0  0  0  1  0  0  0  0  0  0
  160.6800  204.0160  149.9320 C   0  0  0  0  0  2  0  0  0  0  0  0
  160.3520  203.8450  151.2790 O   0  0  0  0  0  1  0  0  0  0  0  0
  160.7390  201.7040  147.1160 C   0  0  0  0  0  2  0  0  0  0  0  0
  160.4440  202.1400  145.3810 S   0  0  0  0  0  1  0  0  0  0  0  0
  1  2  1  0  0  0  0
  2  3  1  0  0  0  0
  3  4  1  0  0  0  0
  4  5  1  0  0  0  0
  5  8  1  0  0  0  0
  7  6  2  0  0  0  0
  8  7  1  0  0  0  0
  9 12  1  0  0  0  0
 11 16  1  0  0  0  0
 11 15  1  1  0  0  0
 12 10  1  6  0  0  0
 12 14  1  0  0  0  0
 13  9  1  1  0  0  0
 13 11  1  0  0  0  0
 13 16  1  0  0  0  0
 15 14  1  0  0  0  0
 16  7  1  6  0  0  0
 17  1  1  0  0  0  0
 18 17  1  0  0  0  0
 19 18  1  0  0  0  0
 20 22  1  0  0  0  0
 21 20  1  0  0  0  0
 21 22  1  0  0  0  0
 22 23  1  0  0  0  0
 22 19  1  0  0  0  0
 23 24  1  0  0  0  0
 24 29  1  6  0  0  0
 24 25  1  0  0  0  0
 25 26  1  6  0  0  0
 25 27  1  0  0  0  0
 27 28  1  0  0  0  0
 30 29  1  0  0  0  0
M  END
>  <MODEL>
1

>  <REMARK>
 VINA RESULT:      -6.4      0.000      0.000
  Name = 
  15 active torsions:
  status: ('A' for Active; 'I' for Inactive)
    1  A    between atoms: C_2  and  C_18
    2  A    between atoms: C_2  and  C_22
    3  A    between atoms: C_4  and  C_23
    4  A    between atoms: C_7  and  C_16
    5  A    between atoms: C_7  and  C_30
    6  A    between atoms: O_10  and  C_19
    7  A    between atoms: O_10  and  C_25
    8  A    between atoms: N_13  and  C_27
    9  A    between atoms: O_15  and  C_16
   10  A    between atoms: O_15  and  C_26
   11  A    between atoms: C_18  and  C_20
   12  A    between atoms: C_18  and  C_28
   13  A    between atoms: C_19  and  C_28
   14  A    between atoms: C_25  and  C_26
   15  A    between atoms: C_27  and  C_30
                            x       y       z     vdW  Elec       q    Type
                         _______ _______ _______ _____ _____    ______ ____

>  <TORSDO>
F 15

$$$$
=
 OpenBabel11052421583D

 30 32  0  0  1  0  0  0  0  0999 V2000
  161.2020  204.5050  151.5340 O   0  0  0  0  0  0  0  0  0  0  0  0
  161.2270  204.9100  152.8680 C   0  0  0  0  0  2  0  0  0  0  0  0
  161.6900  206.3480  152.9530 C   0  0  0  0  0  2  0  0  0  0  0  0
  162.2620  206.8010  151.6190 C   0  0  0  0  0  2  0  0  0  0  0  0
  162.2570  208.3170  151.5310 C   0  0  0  0  0  2  0  0  0  0  0  0
  161.1920  210.9620  151.3520 O   0  0  0  0  0  0  0  0  0  0  0  0
  160.7150  210.1980  152.2340 C   0  0  0  0  0  0  0  0  0  0  0  0
  161.1980  208.8570  152.3690 N   0  0  0  0  0  2  0  0  0  0  0  0
  158.2480  212.8310  153.4890 C   0  0  0  0  0  2  0  0  0  0  0  0
  156.1490  212.7060  154.8360 C   0  0  0  0  0  1  0  0  0  0  0  0
  160.3290  211.5430  154.2840 C   0  0  1  0  0  3  0  0  0  0  0  0
  157.3360  211.9170  154.3180 C   0  0  2  0  0  3  0  0  0  0  0  0
  159.6210  212.2320  153.1180 C   0  0  1  0  0  3  0  0  0  0  0  0
  158.0440  211.2210  155.4840 C   0  0  0  0  0  2  0  0  0  0  0  0
  159.5300  211.5750  155.6040 C   0  0  0  0  0  2  0  0  0  0  0  0
  159.6780  210.7070  153.1810 C   0  0  1  0  0  3  0  0  0  0  0  0
  160.5240  203.2880  151.5460 C   0  0  0  0  0  2  0  0  0  0  0  0
  160.9920  202.4240  150.3900 C   0  0  0  0  0  2  0  0  0  0  0  0
  160.1700  202.6320  149.2780 O   0  0  0  0  0  0  0  0  0  0  0  0
  160.4680  201.3600  147.1540 C   0  0  0  0  0  2  0  0  0  0  0  0
  161.5240  200.9880  148.1800 C   0  0  0  0  0  2  0  0  0  0  0  0
  160.9660  202.3960  148.1490 C   0  0  0  0  0  0  0  0  0  0  0  0
  162.0550  203.4210  147.8090 C   0  0  0  0  0  2  0  0  0  0  0  0
  161.4890  204.7320  147.2650 C   0  0  1  0  0  3  0  0  0  0  0  0
  161.5220  205.8670  148.3000 C   0  0  2  0  0  3  0  0  0  0  0  0
  160.1450  206.2710  148.8150 C   0  0  0  0  0  1  0  0  0  0  0  0
  162.3260  207.0720  147.8220 C   0  0  0  0  0  2  0  0  0  0  0  0
  161.7470  208.2670  148.2530 O   0  0  0  0  0  1  0  0  0  0  0  0
  162.2320  205.1310  146.0010 C   0  0  0  0  0  2  0  0  0  0  0  0
  161.1230  205.0540  144.5690 S   0  0  0  0  0  1  0  0  0  0  0  0
  1 17  1  0  0  0  0
  1  2  1  0  0  0  0
  2  3  1  0  0  0  0
  4  3  1  0  0  0  0
  5  4  1  0  0  0  0
  5  8  1  0  0  0  0
  6  7  2  0  0  0  0
  7  8  1  0  0  0  0
  9 12  1  0  0  0  0
 11 15  1  1  0  0  0
 12 10  1  1  0  0  0
 12 14  1  0  0  0  0
 13 16  1  0  0  0  0
 13  9  1  1  0  0  0
 13 11  1  0  0  0  0
 14 15  1  0  0  0  0
 16  7  1  6  0  0  0
 16 11  1  0  0  0  0
 18 17  1  0  0  0  0
 19 18  1  0  0  0  0
 20 22  1  0  0  0  0
 20 21  1  0  0  0  0
 22 21  1  0  0  0  0
 22 19  1  0  0  0  0
 23 22  1  0  0  0  0
 24 29  1  6  0  0  0
 24 23  1  0  0  0  0
 24 25  1  0  0  0  0
 25 26  1  6  0  0  0
 27 28  1  0  0  0  0
 27 25  1  0  0  0  0
 30 29  1  0  0  0  0
M  END
>  <MODEL>
2

>  <REMARK>
 VINA RESULT:      -6.2      1.805      3.571
  Name = 
  15 active torsions:
  status: ('A' for Active; 'I' for Inactive)
    1  A    between atoms: C_2  and  C_18
    2  A    between atoms: C_2  and  C_22
    3  A    between atoms: C_4  and  C_23
    4  A    between atoms: C_7  and  C_16
    5  A    between atoms: C_7  and  C_30
    6  A    between atoms: O_10  and  C_19
    7  A    between atoms: O_10  and  C_25
    8  A    between atoms: N_13  and  C_27
    9  A    between atoms: O_15  and  C_16
   10  A    between atoms: O_15  and  C_26
   11  A    between atoms: C_18  and  C_20
   12  A    between atoms: C_18  and  C_28
   13  A    between atoms: C_19  and  C_28
   14  A    between atoms: C_25  and  C_26
   15  A    between atoms: C_27  and  C_30
                            x       y       z     vdW  Elec       q    Type
                         _______ _______ _______ _____ _____    ______ ____

>  <TORSDO>
F 15

$$$$
=
 OpenBabel11052421583D

 30 32  0  0  1  0  0  0  0  0999 V2000
  161.9040  209.9840  150.0330 O   0  0  0  0  0  0  0  0  0  0  0  0
  162.2310  210.4010  148.7420 C   0  0  0  0  0  2  0  0  0  0  0  0
  161.9330  211.8770  148.5960 C   0  0  0  0  0  2  0  0  0  0  0  0
  162.9550  212.5370  147.6840 C   0  0  0  0  0  2  0  0  0  0  0  0
  162.3100  213.6690  146.9020 C   0  0  0  0  0  2  0  0  0  0  0  0
  159.8040  212.9490  145.7340 O   0  0  0  0  0  0  0  0  0  0  0  0
  160.8260  212.9050  144.9980 C   0  0  0  0  0  0  0  0  0  0  0  0
  162.1100  213.2640  145.5200 N   0  0  0  0  0  2  0  0  0  0  0  0
  162.2860  211.8740  141.6210 C   0  0  0  0  0  2  0  0  0  0  0  0
  161.4770  210.3790  139.7920 C   0  0  0  0  0  1  0  0  0  0  0  0
  160.6760  213.6140  142.6240 C   0  0  1  0  0  3  0  0  0  0  0  0
  161.1040  211.0450  141.1020 C   0  0  2  0  0  3  0  0  0  0  0  0
  161.9650  212.8110  142.8040 C   0  0  1  0  0  3  0  0  0  0  0  0
  159.8100  211.8450  140.9250 C   0  0  0  0  0  2  0  0  0  0  0  0
  159.9440  213.3250  141.2960 C   0  0  0  0  0  2  0  0  0  0  0  0
  160.7110  212.4260  143.5870 C   0  0  1  0  0  3  0  0  0  0  0  0
  162.1330  208.6110  150.0290 C   0  0  0  0  0  2  0  0  0  0  0  0
  161.5090  207.9860  148.7960 C   0  0  0  0  0  2  0  0  0  0  0  0
  162.3700  207.0220  148.2620 O   0  0  0  0  0  0  0  0  0  0  0  0
  161.9150  205.1210  146.7150 C   0  0  0  0  0  2  0  0  0  0  0  0
  160.7790  206.1270  146.7100 C   0  0  0  0  0  2  0  0  0  0  0  0
  161.5800  205.9010  147.9760 C   0  0  0  0  0  0  0  0  0  0  0  0
  160.7030  205.3330  149.0980 C   0  0  0  0  0  2  0  0  0  0  0  0
  161.2690  204.0480  149.7030 C   0  0  1  0  0  3  0  0  0  0  0  0
  161.5750  204.1830  151.2020 C   0  0  2  0  0  3  0  0  0  0  0  0
  161.0540  203.0230  152.0440 C   0  0  0  0  0  1  0  0  0  0  0  0
  161.1470  205.5330  151.7680 C   0  0  0  0  0  2  0  0  0  0  0  0
  161.6060  205.7000  153.0760 O   0  0  0  0  0  1  0  0  0  0  0  0
  160.3150  202.8930  149.4470 C   0  0  0  0  0  2  0  0  0  0  0  0
  161.0510  201.7170  148.2800 S   0  0  0  0  0  1  0  0  0  0  0  0
  2  1  1  0  0  0  0
  3  2  1  0  0  0  0
  4  3  1  0  0  0  0
  5  4  1  0  0  0  0
  7  8  1  0  0  0  0
  7  6  2  0  0  0  0
  8  5  1  0  0  0  0
 11 15  1  6  0  0  0
 11 13  1  0  0  0  0
 11 16  1  0  0  0  0
 12 10  1  6  0  0  0
 12  9  1  0  0  0  0
 13  9  1  6  0  0  0
 13 16  1  0  0  0  0
 14 12  1  0  0  0  0
 14 15  1  0  0  0  0
 16  7  1  1  0  0  0
 17  1  1  0  0  0  0
 18 17  1  0  0  0  0
 19 18  1  0  0  0  0
 20 22  1  0  0  0  0
 21 20  1  0  0  0  0
 21 22  1  0  0  0  0
 22 19  1  0  0  0  0
 22 23  1  0  0  0  0
 24 23  1  1  0  0  0
 24 25  1  0  0  0  0
 25 27  1  0  0  0  0
 25 26  1  1  0  0  0
 27 28  1  0  0  0  0
 29 24  1  0  0  0  0
 30 29  1  0  0  0  0
M  END
>  <MODEL>
3

>  <REMARK>
 VINA RESULT:      -6.2      5.110      8.754
  Name = 
  15 active torsions:
  status: ('A' for Active; 'I' for Inactive)
    1  A    between atoms: C_2  and  C_18
    2  A    between atoms: C_2  and  C_22
    3  A    between atoms: C_4  and  C_23
    4  A    between atoms: C_7  and  C_16
    5  A    between atoms: C_7  and  C_30
    6  A    between atoms: O_10  and  C_19
    7  A    between atoms: O_10  and  C_25
    8  A    between atoms: N_13  and  C_27
    9  A    between atoms: O_15  and  C_16
   10  A    between atoms: O_15  and  C_26
   11  A    between atoms: C_18  and  C_20
   12  A    between atoms: C_18  and  C_28
   13  A    between atoms: C_19  and  C_28
   14  A    between atoms: C_25  and  C_26
   15  A    between atoms: C_27  and  C_30
                            x       y       z     vdW  Elec       q    Type
                         _______ _______ _______ _____ _____    ______ ____

>  <TORSDO>
F 15

$$$$
=
 OpenBabel11052421583D

 30 32  0  0  1  0  0  0  0  0999 V2000
  161.5350  204.8560  152.8990 O   0  0  0  0  0  0  0  0  0  0  0  0
  161.3510  205.9280  152.0260 C   0  0  0  0  0  2  0  0  0  0  0  0
  161.0420  207.1790  152.8190 C   0  0  0  0  0  2  0  0  0  0  0  0
  160.9460  206.8580  154.3020 C   0  0  0  0  0  2  0  0  0  0  0  0
  161.0530  208.1310  155.1240 C   0  0  0  0  0  2  0  0  0  0  0  0
  159.0510  209.9800  155.9800 O   0  0  0  0  0  0  0  0  0  0  0  0
  159.5510  210.1480  154.8350 C   0  0  0  0  0  0  0  0  0  0  0  0
  160.5670  209.2620  154.3510 N   0  0  0  0  0  2  0  0  0  0  0  0
  159.8680  212.5780  151.9040 C   0  0  0  0  0  2  0  0  0  0  0  0
  158.1980  213.7360  150.4520 C   0  0  0  0  0  1  0  0  0  0  0  0
  159.5410  212.6010  154.4570 C   0  0  1  0  0  3  0  0  0  0  0  0
  158.3780  212.8740  151.6870 C   0  0  2  0  0  3  0  0  0  0  0  0
  160.2220  211.9340  153.2610 C   0  0  1  0  0  3  0  0  0  0  0  0
  157.6930  213.5370  152.8850 C   0  0  0  0  0  2  0  0  0  0  0  0
  158.6280  213.7840  154.0730 C   0  0  0  0  0  2  0  0  0  0  0  0
  159.0480  211.2440  153.9530 C   0  0  1  0  0  3  0  0  0  0  0  0
  160.8000  203.8140  152.3390 C   0  0  0  0  0  2  0  0  0  0  0  0
  161.2820  203.5430  150.9250 C   0  0  0  0  0  2  0  0  0  0  0  0
  160.2020  203.1780  150.1160 O   0  0  0  0  0  0  0  0  0  0  0  0
  159.9700  201.3890  148.3950 C   0  0  0  0  0  2  0  0  0  0  0  0
  161.1510  201.1300  149.3120 C   0  0  0  0  0  2  0  0  0  0  0  0
  160.7470  202.5540  148.9870 C   0  0  0  0  0  0  0  0  0  0  0  0
  161.8550  203.2880  148.2230 C   0  0  0  0  0  2  0  0  0  0  0  0
  161.3450  204.5120  147.4640 C   0  0  1  0  0  3  0  0  0  0  0  0
  161.5080  205.8150  148.2600 C   0  0  2  0  0  3  0  0  0  0  0  0
  160.1860  206.4720  148.6450 C   0  0  0  0  0  1  0  0  0  0  0  0
  162.4560  206.8000  147.5830 C   0  0  0  0  0  2  0  0  0  0  0  0
  162.4680  208.0270  148.2490 O   0  0  0  0  0  1  0  0  0  0  0  0
  162.0390  204.6100  146.1150 C   0  0  0  0  0  2  0  0  0  0  0  0
  160.8850  205.2190  144.8570 S   0  0  0  0  0  1  0  0  0  0  0  0
  2  3  1  0  0  0  0
  2  1  1  0  0  0  0
  3  4  1  0  0  0  0
  4  5  1  0  0  0  0
  7  6  2  0  0  0  0
  8  7  1  0  0  0  0
  8  5  1  0  0  0  0
 11 15  1  6  0  0  0
 12 10  1  6  0  0  0
 12  9  1  0  0  0  0
 12 14  1  0  0  0  0
 13  9  1  6  0  0  0
 13 16  1  0  0  0  0
 13 11  1  0  0  0  0
 14 15  1  0  0  0  0
 16 11  1  0  0  0  0
 16  7  1  1  0  0  0
 17  1  1  0  0  0  0
 18 17  1  0  0  0  0
 19 18  1  0  0  0  0
 20 22  1  0  0  0  0
 20 21  1  0  0  0  0
 22 21  1  0  0  0  0
 22 19  1  0  0  0  0
 23 22  1  0  0  0  0
 24 29  1  6  0  0  0
 24 23  1  0  0  0  0
 24 25  1  0  0  0  0
 25 26  1  6  0  0  0
 27 28  1  0  0  0  0
 27 25  1  0  0  0  0
 30 29  1  0  0  0  0
M  END
>  <MODEL>
4

>  <REMARK>
 VINA RESULT:      -6.1      2.014      3.821
  Name = 
  15 active torsions:
  status: ('A' for Active; 'I' for Inactive)
    1  A    between atoms: C_2  and  C_18
    2  A    between atoms: C_2  and  C_22
    3  A    between atoms: C_4  and  C_23
    4  A    between atoms: C_7  and  C_16
    5  A    between atoms: C_7  and  C_30
    6  A    between atoms: O_10  and  C_19
    7  A    between atoms: O_10  and  C_25
    8  A    between atoms: N_13  and  C_27
    9  A    between atoms: O_15  and  C_16
   10  A    between atoms: O_15  and  C_26
   11  A    between atoms: C_18  and  C_20
   12  A    between atoms: C_18  and  C_28
   13  A    between atoms: C_19  and  C_28
   14  A    between atoms: C_25  and  C_26
   15  A    between atoms: C_27  and  C_30
                            x       y       z     vdW  Elec       q    Type
                         _______ _______ _______ _____ _____    ______ ____

>  <TORSDO>
F 15

$$$$
=
 OpenBabel11052421583D

 30 32  0  0  1  0  0  0  0  0999 V2000
  162.4530  207.5740  150.8740 O   0  0  0  0  0  0  0  0  0  0  0  0
  161.5480  206.8760  151.6730 C   0  0  0  0  0  2  0  0  0  0  0  0
  162.2400  205.6880  152.3050 C   0  0  0  0  0  2  0  0  0  0  0  0
  161.2290  204.6040  152.6450 C   0  0  0  0  0  2  0  0  0  0  0  0
  161.1660  203.5740  151.5310 C   0  0  0  0  0  2  0  0  0  0  0  0
  160.9700  202.2660  148.9990 O   0  0  0  0  0  0  0  0  0  0  0  0
  160.9650  203.5270  149.0080 C   0  0  0  0  0  0  0  0  0  0  0  0
  161.0490  204.2430  150.2450 N   0  0  0  0  0  2  0  0  0  0  0  0
  162.5070  204.7910  145.7500 C   0  0  0  0  0  2  0  0  0  0  0  0
  161.5420  205.4750  143.5510 C   0  0  0  0  0  1  0  0  0  0  0  0
  161.4620  205.7010  147.9180 C   0  0  1  0  0  3  0  0  0  0  0  0
  161.2140  205.0780  144.9770 C   0  0  2  0  0  3  0  0  0  0  0  0
  162.3430  204.6290  147.2750 C   0  0  1  0  0  3  0  0  0  0  0  0
  160.3270  206.1470  145.6210 C   0  0  0  0  0  2  0  0  0  0  0  0
  160.9040  206.7320  146.9140 C   0  0  0  0  0  2  0  0  0  0  0  0
  160.9230  204.2830  147.7200 C   0  0  1  0  0  3  0  0  0  0  0  0
  161.8990  208.8440  150.7380 C   0  0  0  0  0  2  0  0  0  0  0  0
  161.6140  209.4330  152.1070 C   0  0  0  0  0  2  0  0  0  0  0  0
  160.2340  209.5020  152.3170 O   0  0  0  0  0  0  0  0  0  0  0  0
  158.7780  211.4940  152.6790 C   0  0  0  0  0  2  0  0  0  0  0  0
  160.1470  211.8910  152.1600 C   0  0  0  0  0  2  0  0  0  0  0  0
  160.0030  210.6740  153.0500 C   0  0  0  0  0  0  0  0  0  0  0  0
  160.7570  210.8560  154.3730 C   0  0  0  0  0  2  0  0  0  0  0  0
  160.1370  210.0670  155.5240 C   0  0  1  0  0  3  0  0  0  0  0  0
  161.1550  209.1680  156.2430 C   0  0  2  0  0  3  0  0  0  0  0  0
  162.4550  209.8780  156.6070 C   0  0  0  0  0  1  0  0  0  0  0  0
  161.4100  207.8620  155.4990 C   0  0  0  0  0  2  0  0  0  0  0  0
  160.2190  207.3160  155.0150 O   0  0  0  0  0  1  0  0  0  0  0  0
  159.4700  211.0190  156.5030 C   0  0  0  0  0  2  0  0  0  0  0  0
  160.0350  212.7160  156.2130 S   0  0  0  0  0  1  0  0  0  0  0  0
  1  2  1  0  0  0  0
  2  3  1  0  0  0  0
  3  4  1  0  0  0  0
  5  4  1  0  0  0  0
  6  7  2  0  0  0  0
  7  8  1  0  0  0  0
  8  5  1  0  0  0  0
 11 15  1  6  0  0  0
 12 10  1  6  0  0  0
 12 14  1  0  0  0  0
 12  9  1  0  0  0  0
 13  9  1  6  0  0  0
 13 16  1  0  0  0  0
 13 11  1  0  0  0  0
 14 15  1  0  0  0  0
 16 11  1  0  0  0  0
 16  7  1  1  0  0  0
 17  1  1  0  0  0  0
 17 18  1  0  0  0  0
 18 19  1  0  0  0  0
 19 22  1  0  0  0  0
 20 22  1  0  0  0  0
 21 20  1  0  0  0  0
 21 22  1  0  0  0  0
 22 23  1  0  0  0  0
 24 23  1  6  0  0  0
 24 25  1  0  0  0  0
 24 29  1  0  0  0  0
 25 26  1  6  0  0  0
 27 25  1  0  0  0  0
 28 27  1  0  0  0  0
 30 29  1  0  0  0  0
M  END
>  <MODEL>
5

>  <REMARK>
 VINA RESULT:      -6.1      3.346      9.216
  Name = 
  15 active torsions:
  status: ('A' for Active; 'I' for Inactive)
    1  A    between atoms: C_2  and  C_18
    2  A    between atoms: C_2  and  C_22
    3  A    between atoms: C_4  and  C_23
    4  A    between atoms: C_7  and  C_16
    5  A    between atoms: C_7  and  C_30
    6  A    between atoms: O_10  and  C_19
    7  A    between atoms: O_10  and  C_25
    8  A    between atoms: N_13  and  C_27
    9  A    between atoms: O_15  and  C_16
   10  A    between atoms: O_15  and  C_26
   11  A    between atoms: C_18  and  C_20
   12  A    between atoms: C_18  and  C_28
   13  A    between atoms: C_19  and  C_28
   14  A    between atoms: C_25  and  C_26
   15  A    between atoms: C_27  and  C_30
                            x       y       z     vdW  Elec       q    Type
                         _______ _______ _______ _____ _____    ______ ____

>  <TORSDO>
F 15

$$$$
=
 OpenBabel11052421583D

 30 32  0  0  1  0  0  0  0  0999 V2000
  161.6420  208.8360  149.9640 O   0  0  0  0  0  0  0  0  0  0  0  0
  162.0250  208.0960  151.0820 C   0  0  0  0  0  2  0  0  0  0  0  0
  160.9220  208.1350  152.1180 C   0  0  0  0  0  2  0  0  0  0  0  0
  161.1440  207.0630  153.1720 C   0  0  0  0  0  2  0  0  0  0  0  0
  161.1270  207.6780  154.5610 C   0  0  0  0  0  2  0  0  0  0  0  0
  160.1150  209.0610  156.8460 O   0  0  0  0  0  0  0  0  0  0  0  0
  159.9260  209.5840  155.7150 C   0  0  0  0  0  0  0  0  0  0  0  0
  160.4180  208.9470  154.5310 N   0  0  0  0  0  2  0  0  0  0  0  0
  158.0290  212.2460  153.7380 C   0  0  0  0  0  2  0  0  0  0  0  0
  156.2100  213.8500  154.3340 C   0  0  0  0  0  1  0  0  0  0  0  0
  160.0680  212.0260  155.2930 C   0  0  1  0  0  3  0  0  0  0  0  0
  157.1900  212.8300  154.8820 C   0  0  2  0  0  3  0  0  0  0  0  0
  159.2390  211.3930  154.1750 C   0  0  1  0  0  3  0  0  0  0  0  0
  158.0190  213.4600  156.0050 C   0  0  0  0  0  2  0  0  0  0  0  0
  159.5310  213.3920  155.7700 C   0  0  0  0  0  2  0  0  0  0  0  0
  159.1400  210.8500  155.5990 C   0  0  1  0  0  3  0  0  0  0  0  0
  161.6070  207.9110  148.9230 C   0  0  0  0  0  2  0  0  0  0  0  0
  161.6330  206.5010  149.4840 C   0  0  0  0  0  2  0  0  0  0  0  0
  160.6890  205.7090  148.8240 O   0  0  0  0  0  0  0  0  0  0  0  0
  160.1070  203.8230  150.3470 C   0  0  0  0  0  2  0  0  0  0  0  0
  161.5070  204.3440  150.6150 C   0  0  0  0  0  2  0  0  0  0  0  0
  160.9440  204.3860  149.2090 C   0  0  0  0  0  0  0  0  0  0  0  0
  161.7550  203.5020  148.2550 C   0  0  0  0  0  2  0  0  0  0  0  0
  161.0650  203.2890  146.9090 C   0  0  1  0  0  3  0  0  0  0  0  0
  161.7860  204.0000  145.7540 C   0  0  2  0  0  3  0  0  0  0  0  0
  162.9950  204.8180  146.1930 C   0  0  0  0  0  1  0  0  0  0  0  0
  160.8350  204.8140  144.8830 C   0  0  0  0  0  2  0  0  0  0  0  0
  161.5260  205.4790  143.8670 O   0  0  0  0  0  1  0  0  0  0  0  0
  160.9270  201.8020  146.6280 C   0  0  0  0  0  2  0  0  0  0  0  0
  161.3020  200.8430  148.1200 S   0  0  0  0  0  1  0  0  0  0  0  0
  1  2  1  0  0  0  0
  2  3  1  0  0  0  0
  3  4  1  0  0  0  0
  4  5  1  0  0  0  0
  7  6  2  0  0  0  0
  8  5  1  0  0  0  0
  8  7  1  0  0  0  0
  9 12  1  0  0  0  0
 11 16  1  0  0  0  0
 11 15  1  1  0  0  0
 12 10  1  6  0  0  0
 12 14  1  0  0  0  0
 13  9  1  1  0  0  0
 13 11  1  0  0  0  0
 13 16  1  0  0  0  0
 15 14  1  0  0  0  0
 16  7  1  6  0  0  0
 17 18  1  0  0  0  0
 17  1  1  0  0  0  0
 19 22  1  0  0  0  0
 19 18  1  0  0  0  0
 20 21  1  0  0  0  0
 22 20  1  0  0  0  0
 22 21  1  0  0  0  0
 23 22  1  0  0  0  0
 24 29  1  6  0  0  0
 24 23  1  0  0  0  0
 25 26  1  1  0  0  0
 25 24  1  0  0  0  0
 27 25  1  0  0  0  0
 28 27  1  0  0  0  0
 29 30  1  0  0  0  0
M  END
>  <MODEL>
6

>  <REMARK>
 VINA RESULT:      -6.0      1.542      2.919
  Name = 
  15 active torsions:
  status: ('A' for Active; 'I' for Inactive)
    1  A    between atoms: C_2  and  C_18
    2  A    between atoms: C_2  and  C_22
    3  A    between atoms: C_4  and  C_23
    4  A    between atoms: C_7  and  C_16
    5  A    between atoms: C_7  and  C_30
    6  A    between atoms: O_10  and  C_19
    7  A    between atoms: O_10  and  C_25
    8  A    between atoms: N_13  and  C_27
    9  A    between atoms: O_15  and  C_16
   10  A    between atoms: O_15  and  C_26
   11  A    between atoms: C_18  and  C_20
   12  A    between atoms: C_18  and  C_28
   13  A    between atoms: C_19  and  C_28
   14  A    between atoms: C_25  and  C_26
   15  A    between atoms: C_27  and  C_30
                            x       y       z     vdW  Elec       q    Type
                         _______ _______ _______ _____ _____    ______ ____

>  <TORSDO>
F 15

$$$$
=
 OpenBabel11052421583D

 30 32  0  0  1  0  0  0  0  0999 V2000
  160.8310  205.9930  151.3560 O   0  0  0  0  0  0  0  0  0  0  0  0
  161.3020  207.0960  152.0690 C   0  0  0  0  0  2  0  0  0  0  0  0
  162.0090  208.0450  151.1260 C   0  0  0  0  0  2  0  0  0  0  0  0
  161.6650  209.4860  151.4660 C   0  0  0  0  0  2  0  0  0  0  0  0
  162.3980  210.4370  150.5350 C   0  0  0  0  0  2  0  0  0  0  0  0
  163.1060  212.1970  148.4000 O   0  0  0  0  0  0  0  0  0  0  0  0
  161.9680  211.6560  148.3580 C   0  0  0  0  0  0  0  0  0  0  0  0
  161.5570  210.7550  149.3920 N   0  0  0  0  0  2  0  0  0  0  0  0
  161.0720  213.2710  145.0140 C   0  0  0  0  0  2  0  0  0  0  0  0
  159.3320  212.7860  143.2900 C   0  0  0  0  0  1  0  0  0  0  0  0
  160.3900  213.3650  147.4940 C   0  0  1  0  0  3  0  0  0  0  0  0
  159.8290  212.4360  144.6790 C   0  0  2  0  0  3  0  0  0  0  0  0
  161.5300  213.2120  146.4870 C   0  0  1  0  0  3  0  0  0  0  0  0
  158.6880  212.5840  145.6900 C   0  0  0  0  0  2  0  0  0  0  0  0
  159.0030  213.5430  146.8420 C   0  0  0  0  0  2  0  0  0  0  0  0
  161.0210  211.9930  147.2530 C   0  0  1  0  0  3  0  0  0  0  0  0
  161.2930  204.8890  152.0680 C   0  0  0  0  0  2  0  0  0  0  0  0
  161.4490  203.7020  151.1360 C   0  0  0  0  0  2  0  0  0  0  0  0
  160.3730  203.6540  150.2440 O   0  0  0  0  0  0  0  0  0  0  0  0
  159.7600  201.5260  149.0980 C   0  0  0  0  0  2  0  0  0  0  0  0
  161.0240  201.3710  149.9220 C   0  0  0  0  0  2  0  0  0  0  0  0
  160.7080  202.7020  149.2720 C   0  0  0  0  0  0  0  0  0  0  0  0
  161.7670  203.0790  148.2290 C   0  0  0  0  0  2  0  0  0  0  0  0
  161.1770  203.7960  147.0150 C   0  0  1  0  0  3  0  0  0  0  0  0
  161.6520  205.2520  146.8980 C   0  0  2  0  0  3  0  0  0  0  0  0
  161.1010  206.1700  147.9850 C   0  0  0  0  0  1  0  0  0  0  0  0
  161.4340  205.8290  145.5030 C   0  0  0  0  0  2  0  0  0  0  0  0
  160.0780  206.0600  145.2600 O   0  0  0  0  0  1  0  0  0  0  0  0
  161.4980  203.0190  145.7490 C   0  0  0  0  0  2  0  0  0  0  0  0
  160.0830  201.9950  145.2650 S   0  0  0  0  0  1  0  0  0  0  0  0
  1 17  1  0  0  0  0
  1  2  1  0  0  0  0
  3  4  1  0  0  0  0
  3  2  1  0  0  0  0
  5  4  1  0  0  0  0
  7  6  2  0  0  0  0
  7  8  1  0  0  0  0
  8  5  1  0  0  0  0
 11 15  1  6  0  0  0
 12 10  1  6  0  0  0
 12  9  1  0  0  0  0
 12 14  1  0  0  0  0
 13  9  1  6  0  0  0
 13 16  1  0  0  0  0
 13 11  1  0  0  0  0
 14 15  1  0  0  0  0
 16 11  1  0  0  0  0
 16  7  1  1  0  0  0
 18 17  1  0  0  0  0
 19 18  1  0  0  0  0
 20 22  1  0  0  0  0
 20 21  1  0  0  0  0
 22 21  1  0  0  0  0
 22 19  1  0  0  0  0
 23 22  1  0  0  0  0
 24 29  1  6  0  0  0
 24 23  1  0  0  0  0
 25 24  1  0  0  0  0
 25 26  1  1  0  0  0
 27 25  1  0  0  0  0
 28 27  1  0  0  0  0
 30 29  1  0  0  0  0
M  END
>  <MODEL>
7

>  <REMARK>
 VINA RESULT:      -6.0      3.584      6.661
  Name = 
  15 active torsions:
  status: ('A' for Active; 'I' for Inactive)
    1  A    between atoms: C_2  and  C_18
    2  A    between atoms: C_2  and  C_22
    3  A    between atoms: C_4  and  C_23
    4  A    between atoms: C_7  and  C_16
    5  A    between atoms: C_7  and  C_30
    6  A    between atoms: O_10  and  C_19
    7  A    between atoms: O_10  and  C_25
    8  A    between atoms: N_13  and  C_27
    9  A    between atoms: O_15  and  C_16
   10  A    between atoms: O_15  and  C_26
   11  A    between atoms: C_18  and  C_20
   12  A    between atoms: C_18  and  C_28
   13  A    between atoms: C_19  and  C_28
   14  A    between atoms: C_25  and  C_26
   15  A    between atoms: C_27  and  C_30
                            x       y       z     vdW  Elec       q    Type
                         _______ _______ _______ _____ _____    ______ ____

>  <TORSDO>
F 15

$$$$
=
 OpenBabel11052421583D

 30 32  0  0  1  0  0  0  0  0999 V2000
  161.1880  205.2370  152.6460 O   0  0  0  0  0  0  0  0  0  0  0  0
  161.9320  206.3770  152.9480 C   0  0  0  0  0  2  0  0  0  0  0  0
  161.0310  207.5910  152.9230 C   0  0  0  0  0  2  0  0  0  0  0  0
  161.2080  208.3580  151.6220 C   0  0  0  0  0  2  0  0  0  0  0  0
  161.8570  209.7050  151.8880 C   0  0  0  0  0  2  0  0  0  0  0  0
  161.8440  210.6510  154.5840 O   0  0  0  0  0  0  0  0  0  0  0  0
  160.9240  211.0500  153.8200 C   0  0  0  0  0  0  0  0  0  0  0  0
  160.8790  210.6210  152.4550 N   0  0  0  0  0  2  0  0  0  0  0  0
  158.2260  211.9790  156.3600 C   0  0  0  0  0  2  0  0  0  0  0  0
  157.2080  214.1500  157.0600 C   0  0  0  0  0  1  0  0  0  0  0  0
  158.4760  211.4600  153.8520 C   0  0  1  0  0  3  0  0  0  0  0  0
  158.1380  213.4820  156.0650 C   0  0  2  0  0  3  0  0  0  0  0  0
  158.9270  211.1340  155.2760 C   0  0  1  0  0  3  0  0  0  0  0  0
  157.6920  213.8120  154.6380 C   0  0  0  0  0  2  0  0  0  0  0  0
  157.4130  212.5760  153.7760 C   0  0  0  0  0  2  0  0  0  0  0  0
  159.8420  211.9330  154.3510 C   0  0  1  0  0  3  0  0  0  0  0  0
  161.9440  204.5650  151.6880 C   0  0  0  0  0  2  0  0  0  0  0  0
  161.3150  203.2180  151.3850 C   0  0  0  0  0  2  0  0  0  0  0  0
  160.3140  203.3670  150.4200 O   0  0  0  0  0  0  0  0  0  0  0  0
  159.7070  201.3660  149.0630 C   0  0  0  0  0  2  0  0  0  0  0  0
  160.9630  201.1250  149.8780 C   0  0  0  0  0  2  0  0  0  0  0  0
  160.6550  202.5150  149.3610 C   0  0  0  0  0  0  0  0  0  0  0  0
  161.7230  202.9920  148.3690 C   0  0  0  0  0  2  0  0  0  0  0  0
  161.1620  203.9130  147.2870 C   0  0  1  0  0  3  0  0  0  0  0  0
  161.5570  205.3830  147.4950 C   0  0  2  0  0  3  0  0  0  0  0  0
  160.6640  206.1260  148.4840 C   0  0  0  0  0  1  0  0  0  0  0  0
  161.7030  206.1420  146.1800 C   0  0  0  0  0  2  0  0  0  0  0  0
  160.4620  206.5780  145.7100 O   0  0  0  0  0  1  0  0  0  0  0  0
  161.5990  203.4250  145.9150 C   0  0  0  0  0  2  0  0  0  0  0  0
  160.4080  202.2210  145.2690 S   0  0  0  0  0  1  0  0  0  0  0  0
  1  2  1  0  0  0  0
  3  2  1  0  0  0  0
  4  5  1  0  0  0  0
  4  3  1  0  0  0  0
  5  8  1  0  0  0  0
  7  6  2  0  0  0  0
  8  7  1  0  0  0  0
 11 15  1  1  0  0  0
 11 16  1  0  0  0  0
 11 13  1  0  0  0  0
 12  9  1  0  0  0  0
 12 10  1  1  0  0  0
 13  9  1  1  0  0  0
 14 12  1  0  0  0  0
 15 14  1  0  0  0  0
 16  7  1  6  0  0  0
 16 13  1  0  0  0  0
 17  1  1  0  0  0  0
 18 17  1  0  0  0  0
 19 18  1  0  0  0  0
 20 22  1  0  0  0  0
 20 21  1  0  0  0  0
 22 21  1  0  0  0  0
 22 19  1  0  0  0  0
 23 22  1  0  0  0  0
 24 29  1  6  0  0  0
 24 25  1  0  0  0  0
 24 23  1  0  0  0  0
 25 26  1  1  0  0  0
 27 25  1  0  0  0  0
 28 27  1  0  0  0  0
 30 29  1  0  0  0  0
M  END
>  <MODEL>
8

>  <REMARK>
 VINA RESULT:      -5.9      1.787      3.611
  Name = 
  15 active torsions:
  status: ('A' for Active; 'I' for Inactive)
    1  A    between atoms: C_2  and  C_18
    2  A    between atoms: C_2  and  C_22
    3  A    between atoms: C_4  and  C_23
    4  A    between atoms: C_7  and  C_16
    5  A    between atoms: C_7  and  C_30
    6  A    between atoms: O_10  and  C_19
    7  A    between atoms: O_10  and  C_25
    8  A    between atoms: N_13  and  C_27
    9  A    between atoms: O_15  and  C_16
   10  A    between atoms: O_15  and  C_26
   11  A    between atoms: C_18  and  C_20
   12  A    between atoms: C_18  and  C_28
   13  A    between atoms: C_19  and  C_28
   14  A    between atoms: C_25  and  C_26
   15  A    between atoms: C_27  and  C_30
                            x       y       z     vdW  Elec       q    Type
                         _______ _______ _______ _____ _____    ______ ____

>  <TORSDO>
F 15

$$$$
=
 OpenBabel11052421583D

 30 32  0  0  1  0  0  0  0  0999 V2000
  161.7040  210.0020  148.2620 O   0  0  0  0  0  0  0  0  0  0  0  0
  162.1870  210.9630  149.1500 C   0  0  0  0  0  2  0  0  0  0  0  0
  161.8220  212.3440  148.6490 C   0  0  0  0  0  2  0  0  0  0  0  0
  162.8420  212.8260  147.6290 C   0  0  0  0  0  2  0  0  0  0  0  0
  162.2560  213.9460  146.7880 C   0  0  0  0  0  2  0  0  0  0  0  0
  159.8230  212.9280  145.6910 O   0  0  0  0  0  0  0  0  0  0  0  0
  160.8280  212.9830  144.9320 C   0  0  0  0  0  0  0  0  0  0  0  0
  162.0750  213.4940  145.4180 N   0  0  0  0  0  2  0  0  0  0  0  0
  162.3470  211.8600  141.6120 C   0  0  0  0  0  2  0  0  0  0  0  0
  161.5720  210.3150  139.8100 C   0  0  0  0  0  1  0  0  0  0  0  0
  160.7210  213.6270  142.5380 C   0  0  1  0  0  3  0  0  0  0  0  0
  161.1750  211.0170  141.0950 C   0  0  2  0  0  3  0  0  0  0  0  0
  162.0060  212.8300  142.7630 C   0  0  1  0  0  3  0  0  0  0  0  0
  159.8850  211.8120  140.8730 C   0  0  0  0  0  2  0  0  0  0  0  0
  160.0120  213.3020  141.2060 C   0  0  0  0  0  2  0  0  0  0  0  0
  160.7380  212.4660  143.5340 C   0  0  1  0  0  3  0  0  0  0  0  0
  162.3420  208.8220  148.6380 C   0  0  0  0  0  2  0  0  0  0  0  0
  161.4910  208.0740  149.6470 C   0  0  0  0  0  2  0  0  0  0  0  0
  162.3000  207.2410  150.4260 O   0  0  0  0  0  0  0  0  0  0  0  0
  161.2010  205.9920  152.2840 C   0  0  0  0  0  2  0  0  0  0  0  0
  162.3010  205.1720  151.6350 C   0  0  0  0  0  2  0  0  0  0  0  0
  161.5010  206.1530  150.8020 C   0  0  0  0  0  0  0  0  0  0  0  0
  160.7020  205.4340  149.7080 C   0  0  0  0  0  2  0  0  0  0  0  0
  161.3740  204.1490  149.2270 C   0  0  1  0  0  3  0  0  0  0  0  0
  160.5540  202.8920  149.5560 C   0  0  2  0  0  3  0  0  0  0  0  0
  160.9230  202.2470  150.8880 C   0  0  0  0  0  1  0  0  0  0  0  0
  160.5520  201.8800  148.4150 C   0  0  0  0  0  2  0  0  0  0  0  0
  161.5220  200.8950  148.6130 O   0  0  0  0  0  1  0  0  0  0  0  0
  161.6540  204.2380  147.7360 C   0  0  0  0  0  2  0  0  0  0  0  0
  160.8590  205.7080  147.0350 S   0  0  0  0  0  1  0  0  0  0  0  0
  1 17  1  0  0  0  0
  1  2  1  0  0  0  0
  3  2  1  0  0  0  0
  4  3  1  0  0  0  0
  5  4  1  0  0  0  0
  7  8  1  0  0  0  0
  7  6  2  0  0  0  0
  8  5  1  0  0  0  0
 11 15  1  6  0  0  0
 11 13  1  0  0  0  0
 11 16  1  0  0  0  0
 12 10  1  6  0  0  0
 12  9  1  0  0  0  0
 13  9  1  6  0  0  0
 13 16  1  0  0  0  0
 14 12  1  0  0  0  0
 14 15  1  0  0  0  0
 16  7  1  1  0  0  0
 17 18  1  0  0  0  0
 18 19  1  0  0  0  0
 19 22  1  0  0  0  0
 21 20  1  0  0  0  0
 22 21  1  0  0  0  0
 22 20  1  0  0  0  0
 23 22  1  0  0  0  0
 24 29  1  6  0  0  0
 24 25  1  0  0  0  0
 24 23  1  0  0  0  0
 25 26  1  1  0  0  0
 27 28  1  0  0  0  0
 27 25  1  0  0  0  0
 30 29  1  0  0  0  0
M  END
>  <MODEL>
9

>  <REMARK>
 VINA RESULT:      -5.9      5.221      9.024
  Name = 
  15 active torsions:
  status: ('A' for Active; 'I' for Inactive)
    1  A    between atoms: C_2  and  C_18
    2  A    between atoms: C_2  and  C_22
    3  A    between atoms: C_4  and  C_23
    4  A    between atoms: C_7  and  C_16
    5  A    between atoms: C_7  and  C_30
    6  A    between atoms: O_10  and  C_19
    7  A    between atoms: O_10  and  C_25
    8  A    between atoms: N_13  and  C_27
    9  A    between atoms: O_15  and  C_16
   10  A    between atoms: O_15  and  C_26
   11  A    between atoms: C_18  and  C_20
   12  A    between atoms: C_18  and  C_28
   13  A    between atoms: C_19  and  C_28
   14  A    between atoms: C_25  and  C_26
   15  A    between atoms: C_27  and  C_30
                            x       y       z     vdW  Elec       q    Type
                         _______ _______ _______ _____ _____    ______ ____

>  <TORSDO>
F 15

$$$$
