=
 OpenBabel11062410423D

 32 37  0  0  1  0  0  0  0  0999 V2000
  162.1250  208.6210  151.7420 C   0  0  1  0  0  3  0  0  0  0  0  0
  161.9450  206.1330  151.2670 C   0  0  2  0  0  3  0  0  0  0  0  0
  160.9130  205.9980  152.3840 C   0  0  1  0  0  3  0  0  0  0  0  0
  161.1860  203.7060  150.5860 C   0  0  1  0  0  3  0  0  0  0  0  0
  162.1390  210.0680  151.1990 C   0  0  0  0  0  2  0  0  0  0  0  0
  161.5900  210.2280  149.7800 C   0  0  2  0  0  3  0  0  0  0  0  0
  162.8900  207.6640  149.6570 O   0  0  0  0  0  0  0  0  0  0  0  0
  160.5590  203.5930  151.9880 C   0  0  0  0  0  2  0  0  0  0  0  0
  161.0620  204.6210  152.9860 C   0  0  0  0  0  2  0  0  0  0  0  0
  162.5430  209.7830  148.8530 O   0  0  0  0  0  0  0  0  0  0  0  0
  162.2770  208.4220  148.6510 C   0  0  0  0  0  2  0  0  0  0  0  0
  160.6630  205.1460  149.2780 C   0  0  0  0  0  2  0  0  0  0  0  0
  161.0930  208.4570  152.8730 C   0  0  1  0  0  3  0  0  0  0  0  0
  161.1630  207.0440  153.4600 C   0  0  0  0  0  2  0  0  0  0  0  0
  160.1450  203.8960  149.6610 O   0  0  0  0  0  0  0  0  0  0  0  0
  161.9170  207.5420  150.6570 C   0  0  2  0  0  3  0  0  0  0  0  0
  161.8530  205.0220  150.1940 C   0  0  1  0  0  3  0  0  0  0  0  0
  160.6500  210.7730  156.5690 C   0  0  0  0  0  2  0  0  0  0  0  0
  161.2540  209.5270  153.9690 C   0  0  1  0  0  3  0  0  0  0  0  0
  159.5360  211.0240  152.9050 C   0  0  0  0  0  1  0  0  0  0  0  0
  160.1800  211.4010  155.2570 C   0  0  0  0  0  2  0  0  0  0  0  0
  159.9640  210.3340  154.1880 C   0  0  2  0  0  3  0  0  0  0  0  0
  161.7490  208.9120  155.2870 C   0  0  0  0  0  2  0  0  0  0  0  0
  161.9380  209.9730  156.3730 C   0  0  1  0  0  3  0  0  0  0  0  0
  163.1160  210.8970  156.0690 C   0  0  0  0  0  2  0  0  0  0  0  0
  164.0730  210.9880  157.2490 C   0  0  0  0  0  2  0  0  0  0  0  0
  164.8820  212.2690  157.1800 C   0  0  1  0  0  3  0  0  0  0  0  0
  166.3250  211.9540  157.2610 C   0  0  0  0  0  2  0  0  0  0  0  0
  165.6980  212.2290  156.0330 O   0  0  0  0  0  0  0  0  0  0  0  0
  161.3080  211.5730  149.5420 O   0  0  0  0  0  0  0  0  0  0  0  0
  162.0670  211.9030  148.4180 C   0  0  0  0  0  2  0  0  0  0  0  0
  161.8620  213.2450  148.0980 O   0  0  0  0  0  1  0  0  0  0  0  0
  1  5  1  6  0  0  0
  1 13  1  0  0  0  0
  2  3  1  0  0  0  0
  3  9  1  0  0  0  0
  3 14  1  0  0  0  0
  4  8  1  0  0  0  0
  6  5  1  0  0  0  0
  7 16  1  0  0  0  0
  8  9  1  0  0  0  0
 10  6  1  0  0  0  0
 11 10  1  0  0  0  0
 11  7  1  0  0  0  0
 12 15  1  0  0  0  0
 12 17  1  0  0  0  0
 13 14  1  0  0  0  0
 13 19  1  0  0  0  0
 15  4  1  0  0  0  0
 16  2  1  0  0  0  0
 16  1  1  0  0  0  0
 17  4  1  0  0  0  0
 17  2  1  0  0  0  0
 19 22  1  0  0  0  0
 19 23  1  0  0  0  0
 20 22  1  0  0  0  0
 21 18  1  0  0  0  0
 22 21  1  0  0  0  0
 23 24  1  0  0  0  0
 24 18  1  0  0  0  0
 25 24  1  0  0  0  0
 25 26  1  0  0  0  0
 27 26  1  0  0  0  0
 27 28  1  0  0  0  0
 29 27  1  0  0  0  0
 29 28  1  0  0  0  0
 30  6  1  0  0  0  0
 31 30  1  0  0  0  0
 32 31  1  0  0  0  0
M  END
>  <MODEL>
1

>  <REMARK>
 VINA RESULT:      -6.6      0.000      0.000
  Name = 
  6 active torsions:
  status: ('A' for Active; 'I' for Inactive)
    1  A    between atoms: C_1  and  C_10
    2  A    between atoms: C_4  and  O_13
    3  A    between atoms: C_8  and  C_28
    4  A    between atoms: C_10  and  C_19
    5  A    between atoms: O_13  and  C_15
    6  A    between atoms: C_19  and  C_24
                            x       y       z     vdW  Elec       q    Type
                         _______ _______ _______ _____ _____    ______ ____

>  <TORSDO>
F 6

$$$$
=
 OpenBabel11062410423D

 32 37  0  0  1  0  0  0  0  0999 V2000
  160.7550  208.4990  151.6950 C   0  0  1  0  0  3  0  0  0  0  0  0
  160.1880  208.7270  154.1590 C   0  0  2  0  0  3  0  0  0  0  0  0
  160.9940  207.4660  154.4580 C   0  0  1  0  0  3  0  0  0  0  0  0
  160.2080  209.0800  156.7680 C   0  0  1  0  0  3  0  0  0  0  0  0
  161.2600  209.1610  150.3930 C   0  0  0  0  0  2  0  0  0  0  0  0
  161.9840  210.4940  150.5880 C   0  0  2  0  0  3  0  0  0  0  0  0
  159.9600  210.5820  152.6310 O   0  0  0  0  0  0  0  0  0  0  0  0
  160.6090  207.5970  156.8870 C   0  0  0  0  0  2  0  0  0  0  0  0
  160.3510  206.7750  155.6360 C   0  0  0  0  0  2  0  0  0  0  0  0
  161.0480  211.5080  150.8370 O   0  0  0  0  0  0  0  0  0  0  0  0
  160.8890  211.5510  152.2290 C   0  0  0  0  0  2  0  0  0  0  0  0
  161.3020  210.4180  155.7320 C   0  0  0  0  0  2  0  0  0  0  0  0
  161.5500  207.2220  152.0180 C   0  0  1  0  0  3  0  0  0  0  0  0
  160.9710  206.5300  153.2570 C   0  0  0  0  0  2  0  0  0  0  0  0
  161.3510  209.8580  157.0220 O   0  0  0  0  0  0  0  0  0  0  0  0
  160.7280  209.4450  152.9140 C   0  0  2  0  0  3  0  0  0  0  0  0
  160.0410  209.6750  155.3730 C   0  0  1  0  0  3  0  0  0  0  0  0
  160.5060  204.2780  148.9410 C   0  0  0  0  0  2  0  0  0  0  0  0
  161.6170  206.2560  150.8200 C   0  0  1  0  0  3  0  0  0  0  0  0
  162.4300  204.3610  152.2610 C   0  0  0  0  0  1  0  0  0  0  0  0
  161.5010  203.8720  150.0270 C   0  0  0  0  0  2  0  0  0  0  0  0
  161.3930  204.7940  151.2390 C   0  0  2  0  0  3  0  0  0  0  0  0
  160.6370  206.6670  149.7110 C   0  0  0  0  0  2  0  0  0  0  0  0
  160.7180  205.7280  148.5050 C   0  0  1  0  0  3  0  0  0  0  0  0
  162.0360  205.8850  147.7480 C   0  0  0  0  0  2  0  0  0  0  0  0
  162.1330  204.9050  146.5880 C   0  0  0  0  0  2  0  0  0  0  0  0
  161.9760  205.6300  145.2640 C   0  0  1  0  0  3  0  0  0  0  0  0
  161.0540  204.8770  144.3880 C   0  0  0  0  0  2  0  0  0  0  0  0
  160.6280  206.0050  145.1100 O   0  0  0  0  0  0  0  0  0  0  0  0
  162.7020  210.8050  149.4340 O   0  0  0  0  0  0  0  0  0  0  0  0
  161.9550  211.8000  148.8050 C   0  0  0  0  0  2  0  0  0  0  0  0
  162.8150  212.6900  148.1620 O   0  0  0  0  0  1  0  0  0  0  0  0
  1  5  1  6  0  0  0
  1 13  1  0  0  0  0
  1 16  1  0  0  0  0
  2  3  1  0  0  0  0
  2 17  1  0  0  0  0
  3  9  1  0  0  0  0
  4  8  1  0  0  0  0
  4 15  1  0  0  0  0
  5  6  1  0  0  0  0
  6 10  1  0  0  0  0
  7 16  1  0  0  0  0
  9  8  1  0  0  0  0
 10 11  1  0  0  0  0
 11  7  1  0  0  0  0
 12 15  1  0  0  0  0
 13 14  1  0  0  0  0
 14  3  1  0  0  0  0
 16  2  1  0  0  0  0
 17 12  1  0  0  0  0
 17  4  1  0  0  0  0
 18 21  1  0  0  0  0
 19 22  1  0  0  0  0
 19 13  1  0  0  0  0
 21 22  1  0  0  0  0
 22 20  1  0  0  0  0
 23 19  1  0  0  0  0
 24 18  1  0  0  0  0
 24 23  1  0  0  0  0
 25 24  1  0  0  0  0
 26 25  1  0  0  0  0
 27 26  1  0  0  0  0
 28 29  1  0  0  0  0
 28 27  1  0  0  0  0
 29 27  1  0  0  0  0
 30  6  1  0  0  0  0
 31 30  1  0  0  0  0
 32 31  1  0  0  0  0
M  END
>  <MODEL>
2

>  <REMARK>
 VINA RESULT:      -6.5      2.255      7.356
  Name = 
  6 active torsions:
  status: ('A' for Active; 'I' for Inactive)
    1  A    between atoms: C_1  and  C_10
    2  A    between atoms: C_4  and  O_13
    3  A    between atoms: C_8  and  C_28
    4  A    between atoms: C_10  and  C_19
    5  A    between atoms: O_13  and  C_15
    6  A    between atoms: C_19  and  C_24
                            x       y       z     vdW  Elec       q    Type
                         _______ _______ _______ _____ _____    ______ ____

>  <TORSDO>
F 6

$$$$
=
 OpenBabel11062410423D

 32 37  0  0  1  0  0  0  0  0999 V2000
  161.0080  210.1170  154.1380 C   0  0  1  0  0  3  0  0  0  0  0  0
  159.7590  212.3280  154.1510 C   0  0  2  0  0  3  0  0  0  0  0  0
  158.8270  211.8030  153.0620 C   0  0  1  0  0  3  0  0  0  0  0  0
  158.0020  214.2740  154.3940 C   0  0  1  0  0  3  0  0  0  0  0  0
  161.6110  208.9410  154.9390 C   0  0  0  0  0  2  0  0  0  0  0  0
  161.1110  208.8200  156.3800 C   0  0  2  0  0  3  0  0  0  0  0  0
  161.1840  211.6690  155.9850 O   0  0  0  0  0  0  0  0  0  0  0  0
  157.4590  213.8500  153.0160 C   0  0  0  0  0  2  0  0  0  0  0  0
  158.4040  212.9760  152.2110 C   0  0  0  0  0  2  0  0  0  0  0  0
  161.7340  209.7900  157.1780 O   0  0  0  0  0  0  0  0  0  0  0  0
  160.9020  210.9170  157.1330 C   0  0  0  0  0  2  0  0  0  0  0  0
  158.0780  213.0110  155.9630 C   0  0  0  0  0  2  0  0  0  0  0  0
  160.0640  209.6150  153.0310 C   0  0  1  0  0  3  0  0  0  0  0  0
  159.5540  210.7890  152.1900 C   0  0  0  0  0  2  0  0  0  0  0  0
  157.0970  213.8260  155.3720 O   0  0  0  0  0  0  0  0  0  0  0  0
  160.3040  211.1790  155.0110 C   0  0  2  0  0  3  0  0  0  0  0  0
  159.1460  213.4660  155.0010 C   0  0  1  0  0  3  0  0  0  0  0  0
  162.8120  206.5770  151.4670 C   0  0  0  0  0  2  0  0  0  0  0  0
  160.7220  208.5390  152.1470 C   0  0  1  0  0  3  0  0  0  0  0  0
  161.9660  210.2600  150.7990 C   0  0  0  0  0  1  0  0  0  0  0  0
  162.6900  207.9020  150.7160 C   0  0  0  0  0  2  0  0  0  0  0  0
  162.0930  208.9840  151.6120 C   0  0  2  0  0  3  0  0  0  0  0  0
  160.8280  207.1940  152.8820 C   0  0  0  0  0  2  0  0  0  0  0  0
  161.4560  206.1130  151.9990 C   0  0  1  0  0  3  0  0  0  0  0  0
  160.5290  205.7020  150.8560 C   0  0  0  0  0  2  0  0  0  0  0  0
  161.0150  204.4320  150.1730 C   0  0  0  0  0  2  0  0  0  0  0  0
  160.4090  203.2080  150.8320 C   0  0  1  0  0  3  0  0  0  0  0  0
  160.7740  201.9960  150.0680 C   0  0  0  0  0  2  0  0  0  0  0  0
  161.4480  202.3540  151.2470 O   0  0  0  0  0  0  0  0  0  0  0  0
  161.4190  207.5520  156.8730 O   0  0  0  0  0  0  0  0  0  0  0  0
  160.1920  207.0110  157.2580 C   0  0  0  0  0  2  0  0  0  0  0  0
  159.3390  206.9640  156.1550 O   0  0  0  0  0  1  0  0  0  0  0  0
  1  5  1  1  0  0  0
  1 16  1  0  0  0  0
  2 17  1  0  0  0  0
  2 16  1  0  0  0  0
  3  2  1  0  0  0  0
  4 17  1  0  0  0  0
  4 15  1  0  0  0  0
  5  6  1  0  0  0  0
  6 30  1  0  0  0  0
  6 10  1  0  0  0  0
  7 11  1  0  0  0  0
  8  4  1  0  0  0  0
  9  8  1  0  0  0  0
  9  3  1  0  0  0  0
 11 10  1  0  0  0  0
 13  1  1  0  0  0  0
 14 13  1  0  0  0  0
 14  3  1  0  0  0  0
 15 12  1  0  0  0  0
 16  7  1  0  0  0  0
 17 12  1  0  0  0  0
 18 24  1  0  0  0  0
 19 23  1  0  0  0  0
 19 13  1  0  0  0  0
 20 22  1  0  0  0  0
 21 18  1  0  0  0  0
 21 22  1  0  0  0  0
 22 19  1  0  0  0  0
 24 23  1  0  0  0  0
 25 24  1  0  0  0  0
 26 27  1  0  0  0  0
 26 25  1  0  0  0  0
 27 29  1  0  0  0  0
 28 27  1  0  0  0  0
 28 29  1  0  0  0  0
 30 31  1  0  0  0  0
 32 31  1  0  0  0  0
M  END
>  <MODEL>
3

>  <REMARK>
 VINA RESULT:      -6.0      3.152      8.258
  Name = 
  6 active torsions:
  status: ('A' for Active; 'I' for Inactive)
    1  A    between atoms: C_1  and  C_10
    2  A    between atoms: C_4  and  O_13
    3  A    between atoms: C_8  and  C_28
    4  A    between atoms: C_10  and  C_19
    5  A    between atoms: O_13  and  C_15
    6  A    between atoms: C_19  and  C_24
                            x       y       z     vdW  Elec       q    Type
                         _______ _______ _______ _____ _____    ______ ____

>  <TORSDO>
F 6

$$$$
=
 OpenBabel11062410423D

 32 37  0  0  1  0  0  0  0  0999 V2000
  160.9650  210.2720  154.2070 C   0  0  1  0  0  3  0  0  0  0  0  0
  159.6520  212.4340  154.4300 C   0  0  2  0  0  3  0  0  0  0  0  0
  158.6860  211.9540  153.3490 C   0  0  1  0  0  3  0  0  0  0  0  0
  157.8500  214.2980  154.8880 C   0  0  1  0  0  3  0  0  0  0  0  0
  161.6400  209.0640  154.8960 C   0  0  0  0  0  2  0  0  0  0  0  0
  161.2110  208.8280  156.3450 C   0  0  2  0  0  3  0  0  0  0  0  0
  161.1790  211.6980  156.1490 O   0  0  0  0  0  0  0  0  0  0  0  0
  157.2570  213.9530  153.5080 C   0  0  0  0  0  2  0  0  0  0  0  0
  158.1900  213.1690  152.6020 C   0  0  0  0  0  2  0  0  0  0  0  0
  161.8410  209.7600  157.1810 O   0  0  0  0  0  0  0  0  0  0  0  0
  160.9740  210.8590  157.2520 C   0  0  0  0  0  2  0  0  0  0  0  0
  158.0360  212.9330  156.3580 C   0  0  0  0  0  2  0  0  0  0  0  0
  159.9870  209.8170  153.1090 C   0  0  1  0  0  3  0  0  0  0  0  0
  159.4030  211.0290  152.3770 C   0  0  0  0  0  2  0  0  0  0  0  0
  157.0040  213.7540  155.8700 O   0  0  0  0  0  0  0  0  0  0  0  0
  160.2710  211.2470  155.1830 C   0  0  2  0  0  3  0  0  0  0  0  0
  159.0450  213.4890  155.3850 C   0  0  1  0  0  3  0  0  0  0  0  0
  162.7500  206.9880  151.2160 C   0  0  0  0  0  2  0  0  0  0  0  0
  160.6360  208.8270  152.1230 C   0  0  1  0  0  3  0  0  0  0  0  0
  161.7640  210.6780  150.8470 C   0  0  0  0  0  1  0  0  0  0  0  0
  162.5550  208.3570  150.5670 C   0  0  0  0  0  2  0  0  0  0  0  0
  161.9670  209.3540  151.5620 C   0  0  2  0  0  3  0  0  0  0  0  0
  160.8160  207.4390  152.7560 C   0  0  0  0  0  2  0  0  0  0  0  0
  161.4350  206.4430  151.7720 C   0  0  1  0  0  3  0  0  0  0  0  0
  160.4700  206.0820  150.6440 C   0  0  0  0  0  2  0  0  0  0  0  0
  161.1270  205.1710  149.6180 C   0  0  0  0  0  2  0  0  0  0  0  0
  160.8310  205.6540  148.2110 C   0  0  1  0  0  3  0  0  0  0  0  0
  162.0940  206.0030  147.5250 C   0  0  0  0  0  2  0  0  0  0  0  0
  161.4430  204.7800  147.2920 O   0  0  0  0  0  0  0  0  0  0  0  0
  161.5800  207.5390  156.7330 O   0  0  0  0  0  0  0  0  0  0  0  0
  160.3980  206.9510  157.1850 C   0  0  0  0  0  2  0  0  0  0  0  0
  159.3990  207.1200  156.2260 O   0  0  0  0  0  1  0  0  0  0  0  0
  1  5  1  1  0  0  0
  1 16  1  0  0  0  0
  2 16  1  0  0  0  0
  2 17  1  0  0  0  0
  3  2  1  0  0  0  0
  4 17  1  0  0  0  0
  4 15  1  0  0  0  0
  5  6  1  0  0  0  0
  6 30  1  0  0  0  0
  6 10  1  0  0  0  0
  7 11  1  0  0  0  0
  8  4  1  0  0  0  0
  9  3  1  0  0  0  0
  9  8  1  0  0  0  0
 10 11  1  0  0  0  0
 13  1  1  0  0  0  0
 14 13  1  0  0  0  0
 14  3  1  0  0  0  0
 15 12  1  0  0  0  0
 16  7  1  0  0  0  0
 17 12  1  0  0  0  0
 18 24  1  0  0  0  0
 19 23  1  0  0  0  0
 19 13  1  0  0  0  0
 20 22  1  0  0  0  0
 21 18  1  0  0  0  0
 21 22  1  0  0  0  0
 22 19  1  0  0  0  0
 24 23  1  0  0  0  0
 25 24  1  0  0  0  0
 26 25  1  0  0  0  0
 27 26  1  0  0  0  0
 28 27  1  0  0  0  0
 29 28  1  0  0  0  0
 29 27  1  0  0  0  0
 30 31  1  0  0  0  0
 32 31  1  0  0  0  0
M  END
>  <MODEL>
4

>  <REMARK>
 VINA RESULT:      -5.9      3.011      8.267
  Name = 
  6 active torsions:
  status: ('A' for Active; 'I' for Inactive)
    1  A    between atoms: C_1  and  C_10
    2  A    between atoms: C_4  and  O_13
    3  A    between atoms: C_8  and  C_28
    4  A    between atoms: C_10  and  C_19
    5  A    between atoms: O_13  and  C_15
    6  A    between atoms: C_19  and  C_24
                            x       y       z     vdW  Elec       q    Type
                         _______ _______ _______ _____ _____    ______ ____

>  <TORSDO>
F 6

$$$$
=
 OpenBabel11062410423D

 32 37  0  0  1  0  0  0  0  0999 V2000
  160.9880  205.6390  149.5810 C   0  0  1  0  0  3  0  0  0  0  0  0
  160.7720  207.3200  151.4730 C   0  0  2  0  0  3  0  0  0  0  0  0
  161.4160  206.3200  152.4300 C   0  0  1  0  0  3  0  0  0  0  0  0
  161.1690  209.0690  153.4000 C   0  0  1  0  0  3  0  0  0  0  0  0
  161.4170  205.3410  148.1270 C   0  0  0  0  0  2  0  0  0  0  0  0
  162.3470  206.3840  147.5040 C   0  0  2  0  0  3  0  0  0  0  0  0
  160.6290  207.9930  149.1580 O   0  0  0  0  0  0  0  0  0  0  0  0
  161.3610  207.8670  154.3440 C   0  0  0  0  0  2  0  0  0  0  0  0
  160.8320  206.5510  153.8020 C   0  0  0  0  0  2  0  0  0  0  0  0
  161.6070  207.5180  147.1400 O   0  0  0  0  0  0  0  0  0  0  0  0
  161.6310  208.3670  148.2550 C   0  0  0  0  0  2  0  0  0  0  0  0
  162.3090  209.3510  151.7620 C   0  0  0  0  0  2  0  0  0  0  0  0
  161.6220  204.6430  150.5680 C   0  0  1  0  0  3  0  0  0  0  0  0
  161.1080  204.8960  151.9890 C   0  0  0  0  0  2  0  0  0  0  0  0
  162.4360  209.6190  153.1370 O   0  0  0  0  0  0  0  0  0  0  0  0
  161.2520  207.0920  150.0320 C   0  0  2  0  0  3  0  0  0  0  0  0
  160.9170  208.7940  151.9190 C   0  0  1  0  0  3  0  0  0  0  0  0
  159.8220  200.7030  149.8890 C   0  0  0  0  0  2  0  0  0  0  0  0
  161.3970  203.1790  150.1450 C   0  0  1  0  0  3  0  0  0  0  0  0
  162.3370  202.3020  152.3070 C   0  0  0  0  0  1  0  0  0  0  0  0
  160.9740  200.8130  150.8870 C   0  0  0  0  0  2  0  0  0  0  0  0
  161.1580  202.2560  151.3510 C   0  0  2  0  0  3  0  0  0  0  0  0
  160.2570  203.0570  149.1240 C   0  0  0  0  0  2  0  0  0  0  0  0
  160.0460  201.6080  148.6780 C   0  0  1  0  0  3  0  0  0  0  0  0
  161.2050  201.1010  147.8220 C   0  0  0  0  0  2  0  0  0  0  0  0
  161.1640  201.6920  146.4200 C   0  0  0  0  0  2  0  0  0  0  0  0
  159.8200  201.4260  145.7700 C   0  0  1  0  0  3  0  0  0  0  0  0
  159.7060  202.2060  144.5190 C   0  0  0  0  0  2  0  0  0  0  0  0
  160.0340  200.8400  144.5080 O   0  0  0  0  0  0  0  0  0  0  0  0
  162.9530  205.8460  146.3690 O   0  0  0  0  0  0  0  0  0  0  0  0
  161.9950  204.9900  145.8250 C   0  0  0  0  0  2  0  0  0  0  0  0
  161.6390  205.4410  144.5540 O   0  0  0  0  0  1  0  0  0  0  0  0
  1  5  1  6  0  0  0
  1 16  1  0  0  0  0
  1 13  1  0  0  0  0
  2 17  1  0  0  0  0
  2  3  1  0  0  0  0
  3  9  1  0  0  0  0
  4  8  1  0  0  0  0
  6  5  1  0  0  0  0
  7 16  1  0  0  0  0
  9  8  1  0  0  0  0
 10  6  1  0  0  0  0
 10 11  1  0  0  0  0
 11  7  1  0  0  0  0
 12 17  1  0  0  0  0
 12 15  1  0  0  0  0
 13 14  1  0  0  0  0
 14  3  1  0  0  0  0
 15  4  1  0  0  0  0
 16  2  1  0  0  0  0
 17  4  1  0  0  0  0
 18 21  1  0  0  0  0
 19 13  1  0  0  0  0
 19 22  1  0  0  0  0
 21 22  1  0  0  0  0
 22 20  1  0  0  0  0
 23 19  1  0  0  0  0
 24 23  1  0  0  0  0
 24 18  1  0  0  0  0
 25 24  1  0  0  0  0
 26 25  1  0  0  0  0
 27 26  1  0  0  0  0
 28 27  1  0  0  0  0
 29 28  1  0  0  0  0
 29 27  1  0  0  0  0
 30  6  1  0  0  0  0
 31 30  1  0  0  0  0
 32 31  1  0  0  0  0
M  END
>  <MODEL>
5

>  <REMARK>
 VINA RESULT:      -5.8      3.065      8.654
  Name = 
  6 active torsions:
  status: ('A' for Active; 'I' for Inactive)
    1  A    between atoms: C_1  and  C_10
    2  A    between atoms: C_4  and  O_13
    3  A    between atoms: C_8  and  C_28
    4  A    between atoms: C_10  and  C_19
    5  A    between atoms: O_13  and  C_15
    6  A    between atoms: C_19  and  C_24
                            x       y       z     vdW  Elec       q    Type
                         _______ _______ _______ _____ _____    ______ ____

>  <TORSDO>
F 6

$$$$
=
 OpenBabel11062410423D

 32 37  0  0  1  0  0  0  0  0999 V2000
  161.8440  209.0300  151.5780 C   0  0  1  0  0  3  0  0  0  0  0  0
  161.9820  206.8970  150.2070 C   0  0  2  0  0  3  0  0  0  0  0  0
  161.0000  206.2240  151.1640 C   0  0  1  0  0  3  0  0  0  0  0  0
  161.5330  204.8200  148.6520 C   0  0  1  0  0  3  0  0  0  0  0  0
  161.6580  210.5640  151.6110 C   0  0  0  0  0  2  0  0  0  0  0  0
  161.0630  211.1670  150.3380 C   0  0  2  0  0  3  0  0  0  0  0  0
  162.6840  209.0250  149.3100 O   0  0  0  0  0  0  0  0  0  0  0  0
  160.9550  204.1150  149.8940 C   0  0  0  0  0  2  0  0  0  0  0  0
  161.3400  204.7540  151.2160 C   0  0  0  0  0  2  0  0  0  0  0  0
  162.0460  211.2270  149.3400 O   0  0  0  0  0  0  0  0  0  0  0  0
  161.9560  210.0160  148.6400 C   0  0  0  0  0  2  0  0  0  0  0  0
  160.7980  206.5630  147.9580 C   0  0  0  0  0  2  0  0  0  0  0  0
  160.8670  208.3260  152.5360 C   0  0  1  0  0  3  0  0  0  0  0  0
  161.1340  206.8180  152.5590 C   0  0  0  0  0  2  0  0  0  0  0  0
  160.4560  205.2050  147.8340 O   0  0  0  0  0  0  0  0  0  0  0  0
  161.7570  208.4150  150.1640 C   0  0  2  0  0  3  0  0  0  0  0  0
  162.0130  206.2620  148.7970 C   0  0  1  0  0  3  0  0  0  0  0  0
  162.2180  209.6300  156.4980 C   0  0  0  0  0  2  0  0  0  0  0  0
  160.9090  208.9220  153.9550 C   0  0  1  0  0  3  0  0  0  0  0  0
  160.1580  206.7600  154.9980 C   0  0  0  0  0  1  0  0  0  0  0  0
  161.2050  208.4880  156.4150 C   0  0  0  0  0  2  0  0  0  0  0  0
  161.2060  207.8580  155.0240 C   0  0  2  0  0  3  0  0  0  0  0  0
  161.9060  210.0880  154.0460 C   0  0  0  0  0  2  0  0  0  0  0  0
  161.9330  210.7030  155.4480 C   0  0  1  0  0  3  0  0  0  0  0  0
  160.6410  211.4530  155.7650 C   0  0  0  0  0  2  0  0  0  0  0  0
  160.1170  212.2040  154.5500 C   0  0  0  0  0  2  0  0  0  0  0  0
  158.6560  211.8730  154.3080 C   0  0  1  0  0  3  0  0  0  0  0  0
  158.1460  212.6660  153.1700 C   0  0  0  0  0  2  0  0  0  0  0  0
  158.5230  211.3210  153.0200 O   0  0  0  0  0  0  0  0  0  0  0  0
  160.6020  212.4560  150.6070 O   0  0  0  0  0  0  0  0  0  0  0  0
  160.8140  213.1660  149.4250 C   0  0  0  0  0  2  0  0  0  0  0  0
  159.5860  213.5610  148.8940 O   0  0  0  0  0  1  0  0  0  0  0  0
  1  5  1  6  0  0  0
  1 13  1  0  0  0  0
  2  3  1  0  0  0  0
  3  9  1  0  0  0  0
  3 14  1  0  0  0  0
  4 17  1  0  0  0  0
  4  8  1  0  0  0  0
  6 30  1  0  0  0  0
  6  5  1  0  0  0  0
  7 16  1  0  0  0  0
  8  9  1  0  0  0  0
 10  6  1  0  0  0  0
 11  7  1  0  0  0  0
 11 10  1  0  0  0  0
 12 17  1  0  0  0  0
 13 14  1  0  0  0  0
 13 19  1  0  0  0  0
 15 12  1  0  0  0  0
 15  4  1  0  0  0  0
 16  2  1  0  0  0  0
 16  1  1  0  0  0  0
 17  2  1  0  0  0  0
 19 23  1  0  0  0  0
 19 22  1  0  0  0  0
 20 22  1  0  0  0  0
 21 18  1  0  0  0  0
 22 21  1  0  0  0  0
 23 24  1  0  0  0  0
 24 25  1  0  0  0  0
 24 18  1  0  0  0  0
 26 25  1  0  0  0  0
 27 26  1  0  0  0  0
 28 27  1  0  0  0  0
 29 28  1  0  0  0  0
 29 27  1  0  0  0  0
 31 30  1  0  0  0  0
 32 31  1  0  0  0  0
M  END
>  <MODEL>
6

>  <REMARK>
 VINA RESULT:      -5.8      2.133      3.199
  Name = 
  6 active torsions:
  status: ('A' for Active; 'I' for Inactive)
    1  A    between atoms: C_1  and  C_10
    2  A    between atoms: C_4  and  O_13
    3  A    between atoms: C_8  and  C_28
    4  A    between atoms: C_10  and  C_19
    5  A    between atoms: O_13  and  C_15
    6  A    between atoms: C_19  and  C_24
                            x       y       z     vdW  Elec       q    Type
                         _______ _______ _______ _____ _____    ______ ____

>  <TORSDO>
F 6

$$$$
=
 OpenBabel11062410423D

 32 37  0  0  1  0  0  0  0  0999 V2000
  161.7250  205.4710  149.6600 C   0  0  1  0  0  3  0  0  0  0  0  0
  162.2370  207.8580  150.3590 C   0  0  2  0  0  3  0  0  0  0  0  0
  161.4640  208.3740  149.1480 C   0  0  1  0  0  3  0  0  0  0  0  0
  162.1550  210.3550  151.1870 C   0  0  1  0  0  3  0  0  0  0  0  0
  161.2260  204.0620  150.0530 C   0  0  0  0  0  2  0  0  0  0  0  0
  160.4570  203.9970  151.3740 C   0  0  2  0  0  3  0  0  0  0  0  0
  162.4370  206.0150  151.9060 O   0  0  0  0  0  0  0  0  0  0  0  0
  161.7970  210.7410  149.7390 C   0  0  0  0  0  2  0  0  0  0  0  0
  162.1050  209.6690  148.7090 C   0  0  0  0  0  2  0  0  0  0  0  0
  161.3570  204.0660  152.4470 O   0  0  0  0  0  0  0  0  0  0  0  0
  161.4870  205.4280  152.7520 C   0  0  0  0  0  2  0  0  0  0  0  0
  161.0400  209.0750  152.2730 C   0  0  0  0  0  2  0  0  0  0  0  0
  160.9630  206.0150  148.4390 C   0  0  1  0  0  3  0  0  0  0  0  0
  161.5390  207.3680  148.0080 C   0  0  0  0  0  2  0  0  0  0  0  0
  160.9840  210.4440  151.9600 O   0  0  0  0  0  0  0  0  0  0  0  0
  161.6990  206.4940  150.8160 C   0  0  2  0  0  3  0  0  0  0  0  0
  162.3310  208.8760  151.5200 C   0  0  1  0  0  3  0  0  0  0  0  0
  162.1440  203.5850  144.9860 C   0  0  0  0  0  2  0  0  0  0  0  0
  160.9500  205.0160  147.2670 C   0  0  1  0  0  3  0  0  0  0  0  0
  160.0810  206.7490  145.6640 C   0  0  0  0  0  1  0  0  0  0  0  0
  161.1040  204.6850  144.7780 C   0  0  0  0  0  2  0  0  0  0  0  0
  161.1590  205.7080  145.9100 C   0  0  2  0  0  3  0  0  0  0  0  0
  161.9750  203.8900  147.4740 C   0  0  0  0  0  2  0  0  0  0  0  0
  161.9470  202.8780  146.3260 C   0  0  1  0  0  3  0  0  0  0  0  0
  160.6620  202.0510  146.3270 C   0  0  0  0  0  2  0  0  0  0  0  0
  160.6630  201.0180  145.2090 C   0  0  0  0  0  2  0  0  0  0  0  0
  160.4580  199.6250  145.7730 C   0  0  1  0  0  3  0  0  0  0  0  0
  161.5090  198.7190  145.2610 C   0  0  0  0  0  2  0  0  0  0  0  0
  161.5810  199.2790  146.5480 O   0  0  0  0  0  0  0  0  0  0  0  0
  159.7520  202.7950  151.4410 O   0  0  0  0  0  0  0  0  0  0  0  0
  160.4480  201.9250  150.6010 C   0  0  0  0  0  2  0  0  0  0  0  0
  159.5530  201.3080  149.7280 O   0  0  0  0  0  1  0  0  0  0  0  0
  1  5  1  1  0  0  0
  1 16  1  0  0  0  0
  2 16  1  0  0  0  0
  2 17  1  0  0  0  0
  3  2  1  0  0  0  0
  4 17  1  0  0  0  0
  4 15  1  0  0  0  0
  5  6  1  0  0  0  0
  6 30  1  0  0  0  0
  6 10  1  0  0  0  0
  7 11  1  0  0  0  0
  8  4  1  0  0  0  0
  9  3  1  0  0  0  0
  9  8  1  0  0  0  0
 10 11  1  0  0  0  0
 13  1  1  0  0  0  0
 14 13  1  0  0  0  0
 14  3  1  0  0  0  0
 15 12  1  0  0  0  0
 16  7  1  0  0  0  0
 17 12  1  0  0  0  0
 18 24  1  0  0  0  0
 19 23  1  0  0  0  0
 19 13  1  0  0  0  0
 20 22  1  0  0  0  0
 21 18  1  0  0  0  0
 21 22  1  0  0  0  0
 22 19  1  0  0  0  0
 24 25  1  0  0  0  0
 24 23  1  0  0  0  0
 26 27  1  0  0  0  0
 26 25  1  0  0  0  0
 27 29  1  0  0  0  0
 28 27  1  0  0  0  0
 28 29  1  0  0  0  0
 31 30  1  0  0  0  0
 32 31  1  0  0  0  0
M  END
>  <MODEL>
7

>  <REMARK>
 VINA RESULT:      -5.2      3.334      9.688
  Name = 
  6 active torsions:
  status: ('A' for Active; 'I' for Inactive)
    1  A    between atoms: C_1  and  C_10
    2  A    between atoms: C_4  and  O_13
    3  A    between atoms: C_8  and  C_28
    4  A    between atoms: C_10  and  C_19
    5  A    between atoms: O_13  and  C_15
    6  A    between atoms: C_19  and  C_24
                            x       y       z     vdW  Elec       q    Type
                         _______ _______ _______ _____ _____    ______ ____

>  <TORSDO>
F 6

$$$$
=
 OpenBabel11062410423D

 32 37  0  0  1  0  0  0  0  0999 V2000
  160.9170  207.0330  151.1380 C   0  0  1  0  0  3  0  0  0  0  0  0
  160.5020  207.8780  153.4960 C   0  0  2  0  0  3  0  0  0  0  0  0
  161.1400  206.6110  154.0590 C   0  0  1  0  0  3  0  0  0  0  0  0
  160.6910  208.7900  155.9590 C   0  0  1  0  0  3  0  0  0  0  0  0
  161.4470  207.3130  149.7130 C   0  0  0  0  0  2  0  0  0  0  0  0
  162.3560  208.5380  149.5940 C   0  0  2  0  0  3  0  0  0  0  0  0
  160.4600  209.3640  151.5940 O   0  0  0  0  0  0  0  0  0  0  0  0
  160.8900  207.3280  156.4010 C   0  0  0  0  0  2  0  0  0  0  0  0
  160.4640  206.2960  155.3710 C   0  0  0  0  0  2  0  0  0  0  0  0
  161.5800  209.7050  149.6220 O   0  0  0  0  0  0  0  0  0  0  0  0
  161.4930  210.0760  150.9710 C   0  0  0  0  0  2  0  0  0  0  0  0
  161.9090  209.6950  154.6330 C   0  0  0  0  0  2  0  0  0  0  0  0
  161.5440  205.7580  151.7280 C   0  0  1  0  0  3  0  0  0  0  0  0
  160.9340  205.4470  153.0990 C   0  0  0  0  0  2  0  0  0  0  0  0
  161.9400  209.4320  156.0140 O   0  0  0  0  0  0  0  0  0  0  0  0
  161.0770  208.2190  152.1140 C   0  0  2  0  0  3  0  0  0  0  0  0
  160.5420  209.0820  154.4680 C   0  0  1  0  0  3  0  0  0  0  0  0
  159.9450  202.4640  149.3170 C   0  0  0  0  0  2  0  0  0  0  0  0
  161.4220  204.5530  150.7770 C   0  0  1  0  0  3  0  0  0  0  0  0
  161.8100  202.9100  152.6410 C   0  0  0  0  0  1  0  0  0  0  0  0
  160.8240  202.1240  150.5200 C   0  0  0  0  0  2  0  0  0  0  0  0
  160.8960  203.2980  151.4930 C   0  0  2  0  0  3  0  0  0  0  0  0
  160.5600  204.8890  149.5510 C   0  0  0  0  0  2  0  0  0  0  0  0
  160.4570  203.7050  148.5870 C   0  0  1  0  0  3  0  0  0  0  0  0
  161.7870  203.4210  147.8890 C   0  0  0  0  0  2  0  0  0  0  0  0
  161.5990  203.2070  146.3940 C   0  0  0  0  0  2  0  0  0  0  0  0
  160.8960  204.3980  145.7710 C   0  0  1  0  0  3  0  0  0  0  0  0
  161.5690  204.7710  144.5080 C   0  0  0  0  0  2  0  0  0  0  0  0
  160.3840  204.0170  144.5160 O   0  0  0  0  0  0  0  0  0  0  0  0
  163.0560  208.4800  148.3890 O   0  0  0  0  0  0  0  0  0  0  0  0
  162.8310  207.1900  147.9070 C   0  0  0  0  0  2  0  0  0  0  0  0
  162.0170  207.2510  146.7760 O   0  0  0  0  0  1  0  0  0  0  0  0
  1  5  1  6  0  0  0
  1 13  1  0  0  0  0
  1 16  1  0  0  0  0
  2  3  1  0  0  0  0
  2 17  1  0  0  0  0
  3  9  1  0  0  0  0
  4 15  1  0  0  0  0
  4  8  1  0  0  0  0
  6 10  1  0  0  0  0
  6  5  1  0  0  0  0
  7 16  1  0  0  0  0
  9  8  1  0  0  0  0
 10 11  1  0  0  0  0
 11  7  1  0  0  0  0
 12 15  1  0  0  0  0
 13 14  1  0  0  0  0
 14  3  1  0  0  0  0
 16  2  1  0  0  0  0
 17 12  1  0  0  0  0
 17  4  1  0  0  0  0
 18 21  1  0  0  0  0
 19 22  1  0  0  0  0
 19 13  1  0  0  0  0
 21 22  1  0  0  0  0
 22 20  1  0  0  0  0
 23 19  1  0  0  0  0
 24 18  1  0  0  0  0
 24 23  1  0  0  0  0
 25 24  1  0  0  0  0
 26 25  1  0  0  0  0
 27 26  1  0  0  0  0
 28 29  1  0  0  0  0
 28 27  1  0  0  0  0
 29 27  1  0  0  0  0
 30  6  1  0  0  0  0
 31 30  1  0  0  0  0
 32 31  1  0  0  0  0
M  END
>  <MODEL>
8

>  <REMARK>
 VINA RESULT:      -4.6      2.402      7.771
  Name = 
  6 active torsions:
  status: ('A' for Active; 'I' for Inactive)
    1  A    between atoms: C_1  and  C_10
    2  A    between atoms: C_4  and  O_13
    3  A    between atoms: C_8  and  C_28
    4  A    between atoms: C_10  and  C_19
    5  A    between atoms: O_13  and  C_15
    6  A    between atoms: C_19  and  C_24
                            x       y       z     vdW  Elec       q    Type
                         _______ _______ _______ _____ _____    ______ ____

>  <TORSDO>
F 6

$$$$
=
 OpenBabel11062410423D

 32 37  0  0  1  0  0  0  0  0999 V2000
  161.8250  205.1190  148.7540 C   0  0  1  0  0  3  0  0  0  0  0  0
  161.6310  202.9030  147.5290 C   0  0  2  0  0  3  0  0  0  0  0  0
  160.5290  202.4710  148.4940 C   0  0  1  0  0  3  0  0  0  0  0  0
  160.8720  200.8280  146.0980 C   0  0  1  0  0  3  0  0  0  0  0  0
  161.9000  206.6620  148.6820 C   0  0  0  0  0  2  0  0  0  0  0  0
  161.4430  207.2660  147.3520 C   0  0  2  0  0  3  0  0  0  0  0  0
  162.7020  204.8170  146.5200 O   0  0  0  0  0  0  0  0  0  0  0  0
  160.1560  200.3170  147.3630 C   0  0  0  0  0  2  0  0  0  0  0  0
  160.6150  200.9730  148.6530 C   0  0  0  0  0  2  0  0  0  0  0  0
  162.4430  207.0910  146.3860 O   0  0  0  0  0  0  0  0  0  0  0  0
  162.1660  205.8670  145.7630 C   0  0  0  0  0  2  0  0  0  0  0  0
  160.4570  202.6170  145.2680 C   0  0  0  0  0  2  0  0  0  0  0  0
  160.7230  204.6570  149.7220 C   0  0  1  0  0  3  0  0  0  0  0  0
  160.7310  203.1300  149.8510 C   0  0  0  0  0  2  0  0  0  0  0  0
  159.8940  201.3290  145.2210 O   0  0  0  0  0  0  0  0  0  0  0  0
  161.6660  204.4310  147.3800 C   0  0  2  0  0  3  0  0  0  0  0  0
  161.5850  202.1760  146.1650 C   0  0  1  0  0  3  0  0  0  0  0  0
  162.2700  206.2030  153.5220 C   0  0  0  0  0  2  0  0  0  0  0  0
  160.8350  205.3340  151.1010 C   0  0  1  0  0  3  0  0  0  0  0  0
  160.1730  203.2280  152.3050 C   0  0  0  0  0  1  0  0  0  0  0  0
  161.2710  205.0460  153.5610 C   0  0  0  0  0  2  0  0  0  0  0  0
  161.2050  204.3370  152.2110 C   0  0  2  0  0  3  0  0  0  0  0  0
  161.8180  206.5140  151.0700 C   0  0  0  0  0  2  0  0  0  0  0  0
  161.9130  207.2100  152.4300 C   0  0  1  0  0  3  0  0  0  0  0  0
  160.6280  207.9620  152.7760 C   0  0  0  0  0  2  0  0  0  0  0  0
  160.7340  209.4390  152.4230 C   0  0  0  0  0  2  0  0  0  0  0  0
  161.5780  210.1720  153.4490 C   0  0  1  0  0  3  0  0  0  0  0  0
  160.7850  211.2570  154.0650 C   0  0  0  0  0  2  0  0  0  0  0  0
  160.9800  210.0270  154.7160 O   0  0  0  0  0  0  0  0  0  0  0  0
  161.2010  208.6290  147.5230 O   0  0  0  0  0  0  0  0  0  0  0  0
  161.9560  208.9890  148.6390 C   0  0  0  0  0  2  0  0  0  0  0  0
  162.1830  210.3660  148.6210 O   0  0  0  0  0  1  0  0  0  0  0  0
  1  5  1  6  0  0  0
  1 13  1  0  0  0  0
  2  3  1  0  0  0  0
  3  9  1  0  0  0  0
  3 14  1  0  0  0  0
  4 17  1  0  0  0  0
  4  8  1  0  0  0  0
  6 30  1  0  0  0  0
  6  5  1  0  0  0  0
  7 16  1  0  0  0  0
  8  9  1  0  0  0  0
 10  6  1  0  0  0  0
 11 10  1  0  0  0  0
 11  7  1  0  0  0  0
 12 17  1  0  0  0  0
 13 14  1  0  0  0  0
 13 19  1  0  0  0  0
 15 12  1  0  0  0  0
 15  4  1  0  0  0  0
 16  2  1  0  0  0  0
 16  1  1  0  0  0  0
 17  2  1  0  0  0  0
 18 21  1  0  0  0  0
 19 22  1  0  0  0  0
 22 20  1  0  0  0  0
 22 21  1  0  0  0  0
 23 19  1  0  0  0  0
 23 24  1  0  0  0  0
 24 25  1  0  0  0  0
 24 18  1  0  0  0  0
 26 25  1  0  0  0  0
 26 27  1  0  0  0  0
 27 28  1  0  0  0  0
 27 29  1  0  0  0  0
 28 29  1  0  0  0  0
 30 31  1  0  0  0  0
 32 31  1  0  0  0  0
M  END
>  <MODEL>
9

>  <REMARK>
 VINA RESULT:      -4.3      2.802      5.115
  Name = 
  6 active torsions:
  status: ('A' for Active; 'I' for Inactive)
    1  A    between atoms: C_1  and  C_10
    2  A    between atoms: C_4  and  O_13
    3  A    between atoms: C_8  and  C_28
    4  A    between atoms: C_10  and  C_19
    5  A    between atoms: O_13  and  C_15
    6  A    between atoms: C_19  and  C_24
                            x       y       z     vdW  Elec       q    Type
                         _______ _______ _______ _____ _____    ______ ____

>  <TORSDO>
F 6

$$$$
