=
 OpenBabel11052422063D

 25 27  0  0  1  0  0  0  0  0999 V2000
  161.6390  206.4270  148.3300 C   0  0  0  0  0  0  0  0  0  0  0  0
  161.3690  205.5790  149.4310 C   0  0  0  0  0  0  0  0  0  0  0  0
  162.2000  208.2060  149.8170 C   0  0  0  0  0  3  0  0  0  0  0  0
  161.9390  207.4080  150.9270 C   0  0  0  0  0  3  0  0  0  0  0  0
  161.2650  205.2510  151.8540 C   0  0  0  0  0  0  0  0  0  0  0  0
  161.4090  205.7390  153.2580 C   0  0  0  0  0  1  0  0  0  0  0  0
  160.9810  204.2420  149.2560 C   0  0  0  0  0  3  0  0  0  0  0  0
  162.0480  207.7060  148.5640 N   0  0  0  0  0  0  0  0  0  0  0  0
  160.8710  203.9270  151.6490 C   0  0  0  0  0  3  0  0  0  0  0  0
  160.7250  203.4230  150.3560 C   0  0  0  0  0  0  0  0  0  0  0  0
  161.5220  206.0860  150.7470 C   0  0  0  0  0  0  0  0  0  0  0  0
  161.4820  205.9840  146.9210 C   0  0  0  0  0  0  0  0  0  0  0  0
  161.2080  205.2260  144.2550 C   0  0  0  0  0  3  0  0  0  0  0  0
  162.4910  205.2520  146.2580 C   0  0  0  0  0  0  0  0  0  0  0  0
  162.3230  204.8930  144.9560 N   0  0  0  0  0  0  0  0  0  0  0  0
  160.1900  205.9560  144.8660 C   0  0  0  0  0  3  0  0  0  0  0  0
  163.6750  204.8500  146.9400 N   0  0  0  0  0  1  0  0  0  0  0  0
  160.3340  206.3350  146.1990 C   0  0  0  0  0  3  0  0  0  0  0  0
  160.3280  202.0030  150.1500 C   0  0  0  0  0  2  0  0  0  0  0  0
  160.0420  201.7500  148.6790 C   0  0  0  0  0  2  0  0  0  0  0  0
  161.1270  200.9200  148.0780 C   0  0  0  0  0  0  0  0  0  0  0  0
  161.8340  200.2250  148.7930 O   0  0  0  0  0  0  0  0  0  0  0  0
  161.3280  200.9360  146.5960 C   0  0  2  0  0  3  0  0  0  0  0  0
  160.3500  201.8870  145.9340 C   0  0  0  0  0  1  0  0  0  0  0  0
  161.1600  199.6520  146.0780 O   0  0  0  0  0  1  0  0  0  0  0  0
  1  8  2  0  0  0  0
  1  2  1  0  0  0  0
  2 11  1  0  0  0  0
  3  4  2  0  0  0  0
  5  6  1  0  0  0  0
  7  2  2  0  0  0  0
  7 10  1  0  0  0  0
  8  3  1  0  0  0  0
  9  5  1  0  0  0  0
 10  9  2  0  0  0  0
 11  4  1  0  0  0  0
 11  5  2  0  0  0  0
 12  1  1  0  0  0  0
 13 16  2  0  0  0  0
 13 15  1  0  0  0  0
 14 12  1  0  0  0  0
 14 17  1  0  0  0  0
 15 14  2  0  0  0  0
 16 18  1  0  0  0  0
 18 12  2  0  0  0  0
 19 10  1  0  0  0  0
 20 19  1  0  0  0  0
 21 20  1  0  0  0  0
 21 22  2  0  0  0  0
 23 24  1  6  0  0  0
 23 21  1  0  0  0  0
 25 23  1  0  0  0  0
M  END
>  <MODEL>
1

>  <REMARK>
 VINA RESULT:      -9.1      0.000      0.000
  Name = 
  5 active torsions:
  status: ('A' for Active; 'I' for Inactive)
    1  A    between atoms: C_1  and  C_5
    2  A    between atoms: C_2  and  C_21
    3  A    between atoms: C_6  and  C_15
    4  A    between atoms: C_6  and  C_23
    5  A    between atoms: C_15  and  C_21
                            x       y       z     vdW  Elec       q    Type
                         _______ _______ _______ _____ _____    ______ ____

>  <TORSDO>
F 5

$$$$
=
 OpenBabel11052422063D

 25 27  0  0  1  0  0  0  0  0999 V2000
  161.9200  206.6550  148.3120 C   0  0  0  0  0  0  0  0  0  0  0  0
  161.5370  206.1290  149.5690 C   0  0  0  0  0  0  0  0  0  0  0  0
  162.1310  208.8310  149.2690 C   0  0  0  0  0  3  0  0  0  0  0  0
  161.7520  208.3550  150.5210 C   0  0  0  0  0  3  0  0  0  0  0  0
  161.0800  206.4880  151.9460 C   0  0  0  0  0  0  0  0  0  0  0  0
  160.9740  207.3640  153.1510 C   0  0  0  0  0  1  0  0  0  0  0  0
  161.2650  204.7640  149.7460 C   0  0  0  0  0  3  0  0  0  0  0  0
  162.2070  207.9840  148.2100 N   0  0  0  0  0  0  0  0  0  0  0  0
  160.8070  205.1260  152.0910 C   0  0  0  0  0  3  0  0  0  0  0  0
  160.8950  204.2660  150.9960 C   0  0  0  0  0  0  0  0  0  0  0  0
  161.4520  206.9990  150.6860 C   0  0  0  0  0  0  0  0  0  0  0  0
  162.0120  205.8190  147.0880 C   0  0  0  0  0  0  0  0  0  0  0  0
  162.1650  204.1880  144.8360 C   0  0  0  0  0  3  0  0  0  0  0  0
  160.9570  205.7580  146.1520 C   0  0  0  0  0  0  0  0  0  0  0  0
  161.0660  204.9540  145.0590 N   0  0  0  0  0  0  0  0  0  0  0  0
  163.2270  204.2090  145.7370 C   0  0  0  0  0  3  0  0  0  0  0  0
  159.7850  206.5530  146.3130 N   0  0  0  0  0  1  0  0  0  0  0  0
  163.1440  205.0250  146.8640 C   0  0  0  0  0  3  0  0  0  0  0  0
  160.6240  202.8120  151.1670 C   0  0  0  0  0  2  0  0  0  0  0  0
  161.4780  202.0060  150.2030 C   0  0  0  0  0  2  0  0  0  0  0  0
  160.6540  201.5360  149.0510 C   0  0  0  0  0  0  0  0  0  0  0  0
  159.4460  201.3960  149.1790 O   0  0  0  0  0  0  0  0  0  0  0  0
  161.3160  201.2540  147.7400 C   0  0  2  0  0  3  0  0  0  0  0  0
  160.4500  201.7330  146.5900 C   0  0  0  0  0  1  0  0  0  0  0  0
  161.5550  199.8860  147.6110 O   0  0  0  0  0  1  0  0  0  0  0  0
  1  2  1  0  0  0  0
  2  7  2  0  0  0  0
  2 11  1  0  0  0  0
  3  4  2  0  0  0  0
  4 11  1  0  0  0  0
  5  9  1  0  0  0  0
  5  6  1  0  0  0  0
  7 10  1  0  0  0  0
  8  1  2  0  0  0  0
  8  3  1  0  0  0  0
 10 19  1  0  0  0  0
 10  9  2  0  0  0  0
 11  5  2  0  0  0  0
 12  1  1  0  0  0  0
 13 15  2  0  0  0  0
 13 16  1  0  0  0  0
 14 17  1  0  0  0  0
 14 12  2  0  0  0  0
 15 14  1  0  0  0  0
 16 18  2  0  0  0  0
 18 12  1  0  0  0  0
 20 19  1  0  0  0  0
 21 22  2  0  0  0  0
 21 20  1  0  0  0  0
 23 24  1  6  0  0  0
 23 21  1  0  0  0  0
 25 23  1  0  0  0  0
M  END
>  <MODEL>
2

>  <REMARK>
 VINA RESULT:      -8.0      1.259      1.777
  Name = 
  5 active torsions:
  status: ('A' for Active; 'I' for Inactive)
    1  A    between atoms: C_1  and  C_5
    2  A    between atoms: C_2  and  C_21
    3  A    between atoms: C_6  and  C_15
    4  A    between atoms: C_6  and  C_23
    5  A    between atoms: C_15  and  C_21
                            x       y       z     vdW  Elec       q    Type
                         _______ _______ _______ _____ _____    ______ ____

>  <TORSDO>
F 5

$$$$
=
 OpenBabel11052422063D

 25 27  0  0  1  0  0  0  0  0999 V2000
  161.2640  203.3340  147.4000 C   0  0  0  0  0  0  0  0  0  0  0  0
  161.1620  203.9880  148.6520 C   0  0  0  0  0  0  0  0  0  0  0  0
  161.0980  201.2120  148.4770 C   0  0  0  0  0  3  0  0  0  0  0  0
  161.0010  201.8150  149.7280 C   0  0  0  0  0  3  0  0  0  0  0  0
  160.9190  203.8470  151.0830 C   0  0  0  0  0  0  0  0  0  0  0  0
  160.7820  203.0700  152.3510 C   0  0  0  0  0  1  0  0  0  0  0  0
  161.1590  205.3880  148.7560 C   0  0  0  0  0  3  0  0  0  0  0  0
  161.2240  201.9720  147.3600 N   0  0  0  0  0  0  0  0  0  0  0  0
  160.9270  205.2410  151.1570 C   0  0  0  0  0  3  0  0  0  0  0  0
  161.0510  206.0110  150.0000 C   0  0  0  0  0  0  0  0  0  0  0  0
  161.0300  203.2090  149.8300 C   0  0  0  0  0  0  0  0  0  0  0  0
  161.4270  204.0730  146.1220 C   0  0  0  0  0  0  0  0  0  0  0  0
  161.6950  205.5190  143.7570 C   0  0  0  0  0  3  0  0  0  0  0  0
  162.6420  204.7030  145.7790 C   0  0  0  0  0  0  0  0  0  0  0  0
  162.7420  205.3970  144.6140 N   0  0  0  0  0  0  0  0  0  0  0  0
  160.4720  204.9220  144.0570 C   0  0  0  0  0  3  0  0  0  0  0  0
  163.7870  204.5950  146.6220 N   0  0  0  0  0  1  0  0  0  0  0  0
  160.3420  204.2020  145.2430 C   0  0  0  0  0  3  0  0  0  0  0  0
  161.0350  207.4970  150.0880 C   0  0  0  0  0  2  0  0  0  0  0  0
  162.2940  207.9910  150.7800 C   0  0  0  0  0  2  0  0  0  0  0  0
  161.9600  209.0790  151.7460 C   0  0  0  0  0  0  0  0  0  0  0  0
  162.7160  210.0290  151.8820 O   0  0  0  0  0  0  0  0  0  0  0  0
  160.6890  209.0010  152.5290 C   0  0  2  0  0  3  0  0  0  0  0  0
  160.0900  210.3830  152.7160 C   0  0  0  0  0  1  0  0  0  0  0  0
  160.9300  208.4210  153.7740 O   0  0  0  0  0  1  0  0  0  0  0  0
  1  2  1  0  0  0  0
  2  7  2  0  0  0  0
  2 11  1  0  0  0  0
  3  4  2  0  0  0  0
  4 11  1  0  0  0  0
  5  9  1  0  0  0  0
  5  6  1  0  0  0  0
  7 10  1  0  0  0  0
  8  1  2  0  0  0  0
  8  3  1  0  0  0  0
 10 19  1  0  0  0  0
 10  9  2  0  0  0  0
 11  5  2  0  0  0  0
 12  1  1  0  0  0  0
 13 16  2  0  0  0  0
 13 15  1  0  0  0  0
 14 12  1  0  0  0  0
 14 17  1  0  0  0  0
 15 14  2  0  0  0  0
 16 18  1  0  0  0  0
 18 12  2  0  0  0  0
 19 20  1  0  0  0  0
 20 21  1  0  0  0  0
 21 22  2  0  0  0  0
 21 23  1  0  0  0  0
 23 24  1  1  0  0  0
 23 25  1  0  0  0  0
M  END
>  <MODEL>
3

>  <REMARK>
 VINA RESULT:      -7.8      3.350      5.657
  Name = 
  5 active torsions:
  status: ('A' for Active; 'I' for Inactive)
    1  A    between atoms: C_1  and  C_5
    2  A    between atoms: C_2  and  C_21
    3  A    between atoms: C_6  and  C_15
    4  A    between atoms: C_6  and  C_23
    5  A    between atoms: C_15  and  C_21
                            x       y       z     vdW  Elec       q    Type
                         _______ _______ _______ _____ _____    ______ ____

>  <TORSDO>
F 5

$$$$
=
 OpenBabel11052422063D

 25 27  0  0  1  0  0  0  0  0999 V2000
  161.3930  208.1780  151.1050 C   0  0  0  0  0  0  0  0  0  0  0  0
  161.3220  206.9830  150.3510 C   0  0  0  0  0  0  0  0  0  0  0  0
  162.1500  209.3680  149.1810 C   0  0  0  0  0  3  0  0  0  0  0  0
  162.1010  208.2130  148.4050 C   0  0  0  0  0  3  0  0  0  0  0  0
  161.6110  205.8270  148.2130 C   0  0  0  0  0  0  0  0  0  0  0  0
  161.9850  205.8020  146.7680 C   0  0  0  0  0  1  0  0  0  0  0  0
  160.8760  205.7780  150.9160 C   0  0  0  0  0  3  0  0  0  0  0  0
  161.8000  209.3260  150.4920 N   0  0  0  0  0  0  0  0  0  0  0  0
  161.1720  204.6410  148.8040 C   0  0  0  0  0  3  0  0  0  0  0  0
  160.8080  204.6130  150.1510 C   0  0  0  0  0  0  0  0  0  0  0  0
  161.6850  207.0080  148.9800 C   0  0  0  0  0  0  0  0  0  0  0  0
  161.0540  208.2350  152.5500 C   0  0  0  0  0  0  0  0  0  0  0  0
  160.4940  208.3480  155.2770 C   0  0  0  0  0  3  0  0  0  0  0  0
  160.5840  209.4200  153.1550 C   0  0  0  0  0  0  0  0  0  0  0  0
  160.3150  209.4410  154.4890 N   0  0  0  0  0  0  0  0  0  0  0  0
  160.9650  207.1580  154.7250 C   0  0  0  0  0  3  0  0  0  0  0  0
  160.3510  210.5950  152.3840 N   0  0  0  0  0  1  0  0  0  0  0  0
  161.2470  207.1080  153.3610 C   0  0  0  0  0  3  0  0  0  0  0  0
  160.3190  203.3480  150.7660 C   0  0  0  0  0  2  0  0  0  0  0  0
  161.1330  202.1710  150.2550 C   0  0  0  0  0  2  0  0  0  0  0  0
  160.4820  201.5760  149.0510 C   0  0  0  0  0  0  0  0  0  0  0  0
  159.2760  201.3790  149.0420 O   0  0  0  0  0  0  0  0  0  0  0  0
  161.3160  201.2380  147.8570 C   0  0  2  0  0  3  0  0  0  0  0  0
  160.6600  201.7460  146.5860 C   0  0  0  0  0  1  0  0  0  0  0  0
  161.4940  199.8580  147.7740 O   0  0  0  0  0  1  0  0  0  0  0  0
  1 12  1  0  0  0  0
  2  7  1  0  0  0  0
  2  1  2  0  0  0  0
  3  8  2  0  0  0  0
  4 11  2  0  0  0  0
  4  3  1  0  0  0  0
  5  9  2  0  0  0  0
  5 11  1  0  0  0  0
  6  5  1  0  0  0  0
  8  1  1  0  0  0  0
  9 10  1  0  0  0  0
 10 19  1  0  0  0  0
 10  7  2  0  0  0  0
 11  2  1  0  0  0  0
 12 14  2  0  0  0  0
 12 18  1  0  0  0  0
 14 15  1  0  0  0  0
 15 13  2  0  0  0  0
 16 13  1  0  0  0  0
 17 14  1  0  0  0  0
 18 16  2  0  0  0  0
 20 19  1  0  0  0  0
 21 20  1  0  0  0  0
 22 21  2  0  0  0  0
 23 24  1  6  0  0  0
 23 21  1  0  0  0  0
 25 23  1  0  0  0  0
M  END
>  <MODEL>
4

>  <REMARK>
 VINA RESULT:      -7.6      2.273      5.306
  Name = 
  5 active torsions:
  status: ('A' for Active; 'I' for Inactive)
    1  A    between atoms: C_1  and  C_5
    2  A    between atoms: C_2  and  C_21
    3  A    between atoms: C_6  and  C_15
    4  A    between atoms: C_6  and  C_23
    5  A    between atoms: C_15  and  C_21
                            x       y       z     vdW  Elec       q    Type
                         _______ _______ _______ _____ _____    ______ ____

>  <TORSDO>
F 5

$$$$
=
 OpenBabel11052422063D

 25 27  0  0  1  0  0  0  0  0999 V2000
  161.2180  203.1930  147.7420 C   0  0  0  0  0  0  0  0  0  0  0  0
  161.1280  203.8200  149.0080 C   0  0  0  0  0  0  0  0  0  0  0  0
  161.0580  201.0480  148.7740 C   0  0  0  0  0  3  0  0  0  0  0  0
  160.9730  201.6250  150.0390 C   0  0  0  0  0  3  0  0  0  0  0  0
  160.9070  203.6270  151.4370 C   0  0  0  0  0  0  0  0  0  0  0  0
  160.7790  202.8240  152.6900 C   0  0  0  0  0  1  0  0  0  0  0  0
  161.1300  205.2170  149.1420 C   0  0  0  0  0  3  0  0  0  0  0  0
  161.1750  201.8320  147.6720 N   0  0  0  0  0  0  0  0  0  0  0  0
  160.9190  205.0190  151.5410 C   0  0  0  0  0  3  0  0  0  0  0  0
  161.0340  205.8140  150.3990 C   0  0  0  0  0  0  0  0  0  0  0  0
  161.0060  203.0160  150.1700 C   0  0  0  0  0  0  0  0  0  0  0  0
  161.3710  203.9580  146.4780 C   0  0  0  0  0  0  0  0  0  0  0  0
  161.7310  205.3620  144.0990 C   0  0  0  0  0  3  0  0  0  0  0  0
  160.7910  203.5180  145.2700 C   0  0  0  0  0  0  0  0  0  0  0  0
  160.9820  204.2290  144.1260 N   0  0  0  0  0  0  0  0  0  0  0  0
  162.3310  205.8310  145.2660 C   0  0  0  0  0  3  0  0  0  0  0  0
  159.9740  202.3500  145.2310 N   0  0  0  0  0  1  0  0  0  0  0  0
  162.1510  205.1230  146.4540 C   0  0  0  0  0  3  0  0  0  0  0  0
  161.0220  207.2980  150.5200 C   0  0  0  0  0  2  0  0  0  0  0  0
  161.8660  207.7310  151.7070 C   0  0  0  0  0  2  0  0  0  0  0  0
  161.0960  208.6720  152.5710 C   0  0  0  0  0  0  0  0  0  0  0  0
  160.4660  209.5910  152.0670 O   0  0  0  0  0  0  0  0  0  0  0  0
  161.0910  208.4720  154.0530 C   0  0  2  0  0  3  0  0  0  0  0  0
  160.8560  207.0120  154.3940 C   0  0  0  0  0  1  0  0  0  0  0  0
  160.0970  209.2570  154.6370 O   0  0  0  0  0  1  0  0  0  0  0  0
  1  2  1  0  0  0  0
  2  7  2  0  0  0  0
  2 11  1  0  0  0  0
  3  4  2  0  0  0  0
  4 11  1  0  0  0  0
  5  9  1  0  0  0  0
  5  6  1  0  0  0  0
  7 10  1  0  0  0  0
  8  1  2  0  0  0  0
  8  3  1  0  0  0  0
 10 19  1  0  0  0  0
 10  9  2  0  0  0  0
 11  5  2  0  0  0  0
 12  1  1  0  0  0  0
 13 15  2  0  0  0  0
 13 16  1  0  0  0  0
 14 12  2  0  0  0  0
 15 14  1  0  0  0  0
 16 18  2  0  0  0  0
 17 14  1  0  0  0  0
 18 12  1  0  0  0  0
 19 20  1  0  0  0  0
 20 21  1  0  0  0  0
 21 23  1  0  0  0  0
 22 21  2  0  0  0  0
 23 24  1  6  0  0  0
 23 25  1  0  0  0  0
M  END
>  <MODEL>
5

>  <REMARK>
 VINA RESULT:      -7.5      3.568      5.834
  Name = 
  5 active torsions:
  status: ('A' for Active; 'I' for Inactive)
    1  A    between atoms: C_1  and  C_5
    2  A    between atoms: C_2  and  C_21
    3  A    between atoms: C_6  and  C_15
    4  A    between atoms: C_6  and  C_23
    5  A    between atoms: C_15  and  C_21
                            x       y       z     vdW  Elec       q    Type
                         _______ _______ _______ _____ _____    ______ ____

>  <TORSDO>
F 5

$$$$
=
 OpenBabel11052422063D

 25 27  0  0  1  0  0  0  0  0999 V2000
  161.2060  208.1120  152.3160 C   0  0  0  0  0  0  0  0  0  0  0  0
  161.0950  206.9830  151.4690 C   0  0  0  0  0  0  0  0  0  0  0  0
  161.3680  206.6880  154.2220 C   0  0  0  0  0  3  0  0  0  0  0  0
  161.2560  205.5510  153.4260 C   0  0  0  0  0  3  0  0  0  0  0  0
  161.0200  204.5510  151.2100 C   0  0  0  0  0  0  0  0  0  0  0  0
  161.0380  203.1650  151.7650 C   0  0  0  0  0  1  0  0  0  0  0  0
  160.9900  207.1120  150.0760 C   0  0  0  0  0  3  0  0  0  0  0  0
  161.3420  207.9230  153.6590 N   0  0  0  0  0  0  0  0  0  0  0  0
  160.9070  204.7100  149.8270 C   0  0  0  0  0  3  0  0  0  0  0  0
  160.8880  205.9850  149.2600 C   0  0  0  0  0  0  0  0  0  0  0  0
  161.1200  205.6860  152.0410 C   0  0  0  0  0  0  0  0  0  0  0  0
  161.1660  209.5050  151.8020 C   0  0  0  0  0  0  0  0  0  0  0  0
  161.0450  212.0940  150.7800 C   0  0  0  0  0  3  0  0  0  0  0  0
  160.3170  210.4810  152.3690 C   0  0  0  0  0  0  0  0  0  0  0  0
  160.2860  211.7380  151.8480 N   0  0  0  0  0  0  0  0  0  0  0  0
  161.8910  211.1620  150.1810 C   0  0  0  0  0  3  0  0  0  0  0  0
  159.5120  210.1810  153.5050 N   0  0  0  0  0  1  0  0  0  0  0  0
  161.9460  209.8670  150.6950 C   0  0  0  0  0  3  0  0  0  0  0  0
  160.7920  206.1420  147.7830 C   0  0  0  0  0  2  0  0  0  0  0  0
  162.1800  206.2670  147.1790 C   0  0  0  0  0  2  0  0  0  0  0  0
  162.3980  205.2000  146.1590 C   0  0  0  0  0  0  0  0  0  0  0  0
  163.5210  204.7560  145.9680 O   0  0  0  0  0  0  0  0  0  0  0  0
  161.2310  204.6730  145.3870 C   0  0  2  0  0  3  0  0  0  0  0  0
  161.1770  203.1580  145.4680 C   0  0  0  0  0  1  0  0  0  0  0  0
  161.3230  205.0690  144.0530 O   0  0  0  0  0  1  0  0  0  0  0  0
  1  8  1  0  0  0  0
  2 11  1  0  0  0  0
  2  1  2  0  0  0  0
  4  3  1  0  0  0  0
  5  6  1  0  0  0  0
  5 11  1  0  0  0  0
  7  2  1  0  0  0  0
  8  3  2  0  0  0  0
  9  5  2  0  0  0  0
 10  9  1  0  0  0  0
 10  7  2  0  0  0  0
 11  4  2  0  0  0  0
 12  1  1  0  0  0  0
 12 14  1  0  0  0  0
 13 15  1  0  0  0  0
 14 17  1  0  0  0  0
 15 14  2  0  0  0  0
 16 18  1  0  0  0  0
 16 13  2  0  0  0  0
 18 12  2  0  0  0  0
 19 10  1  0  0  0  0
 20 19  1  0  0  0  0
 21 20  1  0  0  0  0
 22 21  2  0  0  0  0
 23 24  1  6  0  0  0
 23 21  1  0  0  0  0
 25 23  1  0  0  0  0
M  END
>  <MODEL>
6

>  <REMARK>
 VINA RESULT:      -7.5      3.404      5.476
  Name = 
  5 active torsions:
  status: ('A' for Active; 'I' for Inactive)
    1  A    between atoms: C_1  and  C_5
    2  A    between atoms: C_2  and  C_21
    3  A    between atoms: C_6  and  C_15
    4  A    between atoms: C_6  and  C_23
    5  A    between atoms: C_15  and  C_21
                            x       y       z     vdW  Elec       q    Type
                         _______ _______ _______ _____ _____    ______ ____

>  <TORSDO>
F 5

$$$$
=
 OpenBabel11052422063D

 25 27  0  0  1  0  0  0  0  0999 V2000
  161.4740  205.4910  149.0870 C   0  0  0  0  0  0  0  0  0  0  0  0
  161.4470  206.4080  150.1640 C   0  0  0  0  0  0  0  0  0  0  0  0
  162.0090  207.2570  147.5750 C   0  0  0  0  0  3  0  0  0  0  0  0
  161.9860  208.1930  148.6050 C   0  0  0  0  0  3  0  0  0  0  0  0
  161.6920  208.7040  150.9760 C   0  0  0  0  0  0  0  0  0  0  0  0
  161.9560  210.1570  150.7600 C   0  0  0  0  0  1  0  0  0  0  0  0
  161.1980  205.9930  151.4810 C   0  0  0  0  0  3  0  0  0  0  0  0
  161.7580  205.9480  147.8340 N   0  0  0  0  0  0  0  0  0  0  0  0
  161.4320  208.2630  152.2750 C   0  0  0  0  0  3  0  0  0  0  0  0
  161.1820  206.9140  152.5290 C   0  0  0  0  0  0  0  0  0  0  0  0
  161.7070  207.7790  149.9110 C   0  0  0  0  0  0  0  0  0  0  0  0
  161.1910  204.0430  149.2600 C   0  0  0  0  0  0  0  0  0  0  0  0
  160.5840  201.3440  149.5860 C   0  0  0  0  0  3  0  0  0  0  0  0
  161.2130  203.1480  148.1690 C   0  0  0  0  0  0  0  0  0  0  0  0
  160.9170  201.8340  148.3630 N   0  0  0  0  0  0  0  0  0  0  0  0
  160.5400  202.1920  150.6910 C   0  0  0  0  0  3  0  0  0  0  0  0
  161.5770  203.5900  146.8640 N   0  0  0  0  0  1  0  0  0  0  0  0
  160.8420  203.5430  150.5220 C   0  0  0  0  0  3  0  0  0  0  0  0
  160.9290  206.4520  153.9220 C   0  0  0  0  0  2  0  0  0  0  0  0
  161.2470  207.5650  154.9060 C   0  0  0  0  0  2  0  0  0  0  0  0
  160.0540  207.8620  155.7520 C   0  0  0  0  0  0  0  0  0  0  0  0
  159.3310  206.9530  156.1330 O   0  0  0  0  0  0  0  0  0  0  0  0
  159.7620  209.2770  156.1390 C   0  0  2  0  0  3  0  0  0  0  0  0
  159.8540  210.1910  154.9320 C   0  0  0  0  0  1  0  0  0  0  0  0
  160.6610  209.6990  157.1190 O   0  0  0  0  0  1  0  0  0  0  0  0
  1 12  1  0  0  0  0
  1  2  1  0  0  0  0
  2  7  1  0  0  0  0
  3  8  1  0  0  0  0
  3  4  2  0  0  0  0
  4 11  1  0  0  0  0
  5  9  2  0  0  0  0
  6  5  1  0  0  0  0
  7 10  2  0  0  0  0
  8  1  2  0  0  0  0
  9 10  1  0  0  0  0
 10 19  1  0  0  0  0
 11  2  2  0  0  0  0
 11  5  1  0  0  0  0
 12 18  1  0  0  0  0
 13 16  1  0  0  0  0
 14 15  1  0  0  0  0
 14 12  2  0  0  0  0
 15 13  2  0  0  0  0
 17 14  1  0  0  0  0
 18 16  2  0  0  0  0
 19 20  1  0  0  0  0
 20 21  1  0  0  0  0
 21 22  2  0  0  0  0
 21 23  1  0  0  0  0
 23 24  1  6  0  0  0
 23 25  1  0  0  0  0
M  END
>  <MODEL>
7

>  <REMARK>
 VINA RESULT:      -7.4      3.910      6.726
  Name = 
  5 active torsions:
  status: ('A' for Active; 'I' for Inactive)
    1  A    between atoms: C_1  and  C_5
    2  A    between atoms: C_2  and  C_21
    3  A    between atoms: C_6  and  C_15
    4  A    between atoms: C_6  and  C_23
    5  A    between atoms: C_15  and  C_21
                            x       y       z     vdW  Elec       q    Type
                         _______ _______ _______ _____ _____    ______ ____

>  <TORSDO>
F 5

$$$$
=
 OpenBabel11052422063D

 25 27  0  0  1  0  0  0  0  0999 V2000
  161.1670  205.0410  148.6140 C   0  0  0  0  0  0  0  0  0  0  0  0
  161.3650  206.0230  149.6140 C   0  0  0  0  0  0  0  0  0  0  0  0
  160.8760  203.3690  150.2910 C   0  0  0  0  0  3  0  0  0  0  0  0
  161.0710  204.3030  151.3050 C   0  0  0  0  0  3  0  0  0  0  0  0
  161.5030  206.6100  151.9850 C   0  0  0  0  0  0  0  0  0  0  0  0
  161.4640  206.2560  153.4360 C   0  0  0  0  0  1  0  0  0  0  0  0
  161.5790  207.3720  149.2910 C   0  0  0  0  0  3  0  0  0  0  0  0
  160.9260  203.7520  148.9900 N   0  0  0  0  0  0  0  0  0  0  0  0
  161.7230  207.9430  151.6350 C   0  0  0  0  0  3  0  0  0  0  0  0
  161.7650  208.3250  150.2930 C   0  0  0  0  0  0  0  0  0  0  0  0
  161.3160  205.6400  150.9780 C   0  0  0  0  0  0  0  0  0  0  0  0
  161.2240  205.3510  147.1630 C   0  0  0  0  0  0  0  0  0  0  0  0
  161.3400  206.0110  144.4590 C   0  0  0  0  0  3  0  0  0  0  0  0
  162.4040  205.1660  146.4110 C   0  0  0  0  0  0  0  0  0  0  0  0
  162.4250  205.4930  145.0900 N   0  0  0  0  0  0  0  0  0  0  0  0
  160.1550  206.2200  145.1630 C   0  0  0  0  0  3  0  0  0  0  0  0
  163.5720  204.6060  147.0050 N   0  0  0  0  0  1  0  0  0  0  0  0
  160.1030  205.8910  146.5170 C   0  0  0  0  0  3  0  0  0  0  0  0
  161.9780  209.7530  149.9310 C   0  0  0  0  0  2  0  0  0  0  0  0
  161.9580  209.9170  148.4200 C   0  0  0  0  0  2  0  0  0  0  0  0
  161.6670  211.3350  148.0580 C   0  0  0  0  0  0  0  0  0  0  0  0
  160.7070  211.6010  147.3510 O   0  0  0  0  0  0  0  0  0  0  0  0
  162.5510  212.4230  148.5790 C   0  0  2  0  0  3  0  0  0  0  0  0
  161.8360  213.7600  148.5360 C   0  0  0  0  0  1  0  0  0  0  0  0
  163.7210  212.4910  147.8220 O   0  0  0  0  0  1  0  0  0  0  0  0
  1  8  2  0  0  0  0
  1  2  1  0  0  0  0
  2 11  1  0  0  0  0
  3  4  2  0  0  0  0
  5  6  1  0  0  0  0
  7  2  2  0  0  0  0
  7 10  1  0  0  0  0
  8  3  1  0  0  0  0
  9  5  1  0  0  0  0
 10  9  2  0  0  0  0
 11  4  1  0  0  0  0
 11  5  2  0  0  0  0
 12  1  1  0  0  0  0
 13 15  2  0  0  0  0
 13 16  1  0  0  0  0
 14 17  1  0  0  0  0
 14 12  2  0  0  0  0
 15 14  1  0  0  0  0
 16 18  2  0  0  0  0
 18 12  1  0  0  0  0
 19 10  1  0  0  0  0
 20 19  1  0  0  0  0
 21 20  1  0  0  0  0
 21 23  1  0  0  0  0
 22 21  2  0  0  0  0
 23 24  1  6  0  0  0
 25 23  1  0  0  0  0
M  END
>  <MODEL>
8

>  <REMARK>
 VINA RESULT:      -7.4      3.909      6.161
  Name = 
  5 active torsions:
  status: ('A' for Active; 'I' for Inactive)
    1  A    between atoms: C_1  and  C_5
    2  A    between atoms: C_2  and  C_21
    3  A    between atoms: C_6  and  C_15
    4  A    between atoms: C_6  and  C_23
    5  A    between atoms: C_15  and  C_21
                            x       y       z     vdW  Elec       q    Type
                         _______ _______ _______ _____ _____    ______ ____

>  <TORSDO>
F 5

$$$$
=
 OpenBabel11052422063D

 25 27  0  0  1  0  0  0  0  0999 V2000
  161.1870  204.3170  149.7580 C   0  0  0  0  0  0  0  0  0  0  0  0
  161.3500  205.6480  150.2100 C   0  0  0  0  0  0  0  0  0  0  0  0
  160.8320  203.5810  151.9990 C   0  0  0  0  0  3  0  0  0  0  0  0
  160.9920  204.8760  152.4860 C   0  0  0  0  0  3  0  0  0  0  0  0
  161.4030  207.2470  152.0620 C   0  0  0  0  0  0  0  0  0  0  0  0
  161.3110  207.5860  153.5130 C   0  0  0  0  0  1  0  0  0  0  0  0
  161.5800  206.7080  149.3190 C   0  0  0  0  0  3  0  0  0  0  0  0
  160.9310  203.3350  150.6680 N   0  0  0  0  0  0  0  0  0  0  0  0
  161.6390  208.2800  151.1530 C   0  0  0  0  0  3  0  0  0  0  0  0
  161.7310  208.0130  149.7860 C   0  0  0  0  0  0  0  0  0  0  0  0
  161.2510  205.9240  151.5980 C   0  0  0  0  0  0  0  0  0  0  0  0
  161.2980  203.9380  148.3260 C   0  0  0  0  0  0  0  0  0  0  0  0
  161.5810  203.2110  145.6520 C   0  0  0  0  0  3  0  0  0  0  0  0
  160.8690  202.6770  147.8580 C   0  0  0  0  0  0  0  0  0  0  0  0
  161.0170  202.3550  146.5440 N   0  0  0  0  0  0  0  0  0  0  0  0
  162.0280  204.4630  146.0700 C   0  0  0  0  0  3  0  0  0  0  0  0
  160.2480  201.7410  148.7340 N   0  0  0  0  0  1  0  0  0  0  0  0
  161.8860  204.8210  147.4100 C   0  0  0  0  0  3  0  0  0  0  0  0
  161.9600  209.1260  148.8240 C   0  0  0  0  0  2  0  0  0  0  0  0
  161.9520  210.4580  149.5550 C   0  0  0  0  0  2  0  0  0  0  0  0
  162.0650  211.5830  148.5810 C   0  0  0  0  0  0  0  0  0  0  0  0
  163.0770  211.7110  147.9080 O   0  0  0  0  0  0  0  0  0  0  0  0
  160.9240  212.5380  148.4270 C   0  0  2  0  0  3  0  0  0  0  0  0
  160.6730  212.8380  146.9600 C   0  0  0  0  0  1  0  0  0  0  0  0
  161.1990  213.7230  149.1090 O   0  0  0  0  0  1  0  0  0  0  0  0
  1  2  2  0  0  0  0
  1  8  1  0  0  0  0
  2 11  1  0  0  0  0
  3  4  1  0  0  0  0
  5  6  1  0  0  0  0
  7 10  2  0  0  0  0
  7  2  1  0  0  0  0
  8  3  2  0  0  0  0
  9  5  2  0  0  0  0
 10  9  1  0  0  0  0
 11  5  1  0  0  0  0
 11  4  2  0  0  0  0
 12  1  1  0  0  0  0
 13 16  2  0  0  0  0
 13 15  1  0  0  0  0
 14 12  1  0  0  0  0
 14 17  1  0  0  0  0
 15 14  2  0  0  0  0
 16 18  1  0  0  0  0
 18 12  2  0  0  0  0
 19 20  1  0  0  0  0
 19 10  1  0  0  0  0
 21 20  1  0  0  0  0
 22 21  2  0  0  0  0
 23 24  1  6  0  0  0
 23 21  1  0  0  0  0
 23 25  1  0  0  0  0
M  END
>  <MODEL>
9

>  <REMARK>
 VINA RESULT:      -7.3      4.331      6.482
  Name = 
  5 active torsions:
  status: ('A' for Active; 'I' for Inactive)
    1  A    between atoms: C_1  and  C_5
    2  A    between atoms: C_2  and  C_21
    3  A    between atoms: C_6  and  C_15
    4  A    between atoms: C_6  and  C_23
    5  A    between atoms: C_15  and  C_21
                            x       y       z     vdW  Elec       q    Type
                         _______ _______ _______ _____ _____    ______ ____

>  <TORSDO>
F 5

$$$$
