=
 OpenBabel11052421563D

 30 33  0  0  1  0  0  0  0  0999 V2000
  161.4960  204.6530  148.4570 N   0  0  0  0  0  0  0  0  0  0  0  0
  161.1910  202.4120  147.6700 C   0  0  0  0  0  0  0  0  0  0  0  0
  160.8050  203.5140  152.4180 C   0  0  0  0  0  3  0  0  0  0  0  0
  161.5350  205.6050  149.4280 C   0  0  0  0  0  0  0  0  0  0  0  0
  160.8850  204.4640  153.4390 C   0  0  0  0  0  3  0  0  0  0  0  0
  160.9040  201.0710  147.9400 C   0  0  0  0  0  3  0  0  0  0  0  0
  161.5050  202.8930  146.0090 Cl  0  0  0  0  0  0  0  0  0  0  0  0
  161.0250  203.8820  151.0800 C   0  0  0  0  0  0  0  0  0  0  0  0
  160.6530  200.6550  149.2500 C   0  0  0  0  0  3  0  0  0  0  0  0
  161.2240  203.3480  148.7170 C   0  0  0  0  0  0  0  0  0  0  0  0
  161.3170  205.2340  150.7720 C   0  0  0  0  0  0  0  0  0  0  0  0
  161.1900  205.7910  153.1350 C   0  0  0  0  0  3  0  0  0  0  0  0
  161.4070  206.1730  151.8110 C   0  0  0  0  0  3  0  0  0  0  0  0
  160.6870  201.5780  150.2960 C   0  0  0  0  0  3  0  0  0  0  0  0
  160.9720  202.9300  150.0440 C   0  0  0  0  0  0  0  0  0  0  0  0
  161.2860  208.7620  147.6660 O   0  0  0  0  0  0  0  0  0  0  0  0
  161.4620  207.5180  147.7740 C   0  0  0  0  0  0  0  0  0  0  0  0
  161.8250  206.9650  149.0550 N   0  0  0  0  0  0  0  0  0  0  0  0
  160.1380  206.3440  145.9450 C   0  0  0  0  0  3  0  0  0  0  0  0
  162.3400  206.1250  145.8890 N   0  0  0  0  0  0  0  0  0  0  0  0
  161.3220  206.6730  146.5720 C   0  0  1  0  0  3  0  0  0  0  0  0
  160.4780  205.5850  144.8860 N   0  0  0  0  0  0  0  0  0  0  0  0
  161.7980  205.4690  144.8770 N   0  0  0  0  0  0  0  0  0  0  0  0
  162.6110  207.7780  149.9760 C   0  0  0  0  0  2  0  0  0  0  0  0
  162.0070  209.1680  150.0890 C   0  0  0  0  0  2  0  0  0  0  0  0
  160.9260  209.7310  152.1740 N   0  0  0  0  0  0  0  0  0  0  0  0
  162.0290  209.6230  151.5060 C   0  0  0  0  0  3  0  0  0  0  0  0
  160.9250  211.3900  153.8280 O   0  0  0  0  0  0  0  0  0  0  0  0
  160.8980  210.1640  153.5360 C   0  0  0  0  0  0  0  0  0  0  0  0
  160.8380  209.1530  154.6230 C   0  0  0  0  0  1  0  0  0  0  0  0
  1 10  2  0  0  0  0
  1  4  1  0  0  0  0
  2  6  2  0  0  0  0
  2 10  1  0  0  0  0
  3  5  2  0  0  0  0
  4 11  2  0  0  0  0
  6  9  1  0  0  0  0
  7  2  1  0  0  0  0
  8  3  1  0  0  0  0
  9 14  2  0  0  0  0
 10 15  1  0  0  0  0
 11  8  1  0  0  0  0
 11 13  1  0  0  0  0
 12  5  1  0  0  0  0
 13 12  2  0  0  0  0
 15 14  1  0  0  0  0
 15  8  2  0  0  0  0
 16 17  2  0  0  0  0
 17 18  1  0  0  0  0
 18  4  1  0  0  0  0
 18 24  1  0  0  0  0
 19 21  1  0  0  0  0
 20 21  1  0  0  0  0
 21 17  1  6  0  0  0
 22 19  2  0  0  0  0
 23 22  1  0  0  0  0
 23 20  2  0  0  0  0
 24 25  1  0  0  0  0
 25 27  1  0  0  0  0
 26 29  1  0  0  0  0
 27 26  2  0  0  0  0
 29 28  2  0  0  0  0
 29 30  1  0  0  0  0
M  END
>  <MODEL>
1

>  <REMARK>
 VINA RESULT:      -8.8      0.000      0.000
  Name = 
  6 active torsions:
  status: ('A' for Active; 'I' for Inactive)
    1  A    between atoms: C_4  and  N_13
    2  A    between atoms: N_7  and  C_15
    3  A    between atoms: C_8  and  C_12
    4  A    between atoms: N_13  and  C_27
    5  A    between atoms: C_16  and  C_30
    6  A    between atoms: C_27  and  C_30
                            x       y       z     vdW  Elec       q    Type
                         _______ _______ _______ _____ _____    ______ ____

>  <TORSDO>
F 6

$$$$
=
 OpenBabel11052421563D

 30 33  0  0  1  0  0  0  0  0999 V2000
  160.9950  204.4080  148.5930 N   0  0  0  0  0  0  0  0  0  0  0  0
  160.8930  202.0170  148.5270 C   0  0  0  0  0  0  0  0  0  0  0  0
  161.1900  204.4330  152.7680 C   0  0  0  0  0  3  0  0  0  0  0  0
  161.0610  205.6040  149.2380 C   0  0  0  0  0  0  0  0  0  0  0  0
  161.3050  205.6450  153.4520 C   0  0  0  0  0  3  0  0  0  0  0  0
  160.8620  200.7950  149.2060 C   0  0  0  0  0  3  0  0  0  0  0  0
  160.8350  202.0120  146.7710 Cl  0  0  0  0  0  0  0  0  0  0  0  0
  161.1130  204.4070  151.3650 C   0  0  0  0  0  0  0  0  0  0  0  0
  160.9100  200.7630  150.6020 C   0  0  0  0  0  3  0  0  0  0  0  0
  160.9700  203.2190  149.2490 C   0  0  0  0  0  0  0  0  0  0  0  0
  161.1410  205.6290  150.6470 C   0  0  0  0  0  0  0  0  0  0  0  0
  161.3510  206.8450  152.7420 C   0  0  0  0  0  3  0  0  0  0  0  0
  161.2720  206.8370  151.3490 C   0  0  0  0  0  3  0  0  0  0  0  0
  160.9900  201.9540  151.3260 C   0  0  0  0  0  3  0  0  0  0  0  0
  161.0210  203.1910  150.6620 C   0  0  0  0  0  0  0  0  0  0  0  0
  160.6800  207.7930  146.3760 O   0  0  0  0  0  0  0  0  0  0  0  0
  161.1450  206.8130  147.0180 C   0  0  0  0  0  0  0  0  0  0  0  0
  161.0750  206.8140  148.4570 N   0  0  0  0  0  0  0  0  0  0  0  0
  161.2200  205.0240  145.2080 C   0  0  0  0  0  3  0  0  0  0  0  0
  163.0120  205.2290  146.4930 N   0  0  0  0  0  0  0  0  0  0  0  0
  161.7770  205.7090  146.2690 C   0  0  1  0  0  3  0  0  0  0  0  0
  162.1470  204.1280  144.8200 N   0  0  0  0  0  0  0  0  0  0  0  0
  163.2050  204.2710  145.6030 N   0  0  0  0  0  0  0  0  0  0  0  0
  161.1260  208.0880  149.1640 C   0  0  0  0  0  2  0  0  0  0  0  0
  162.2780  208.9300  148.6410 C   0  0  0  0  0  2  0  0  0  0  0  0
  161.9340  211.2700  148.1570 N   0  0  0  0  0  0  0  0  0  0  0  0
  162.1040  210.3490  149.0500 C   0  0  0  0  0  3  0  0  0  0  0  0
  160.8720  213.0040  149.3210 O   0  0  0  0  0  0  0  0  0  0  0  0
  161.7620  212.6470  148.5040 C   0  0  0  0  0  0  0  0  0  0  0  0
  162.6480  213.6710  147.8910 C   0  0  0  0  0  1  0  0  0  0  0  0
  1  4  2  0  0  0  0
  1 10  1  0  0  0  0
  2  6  2  0  0  0  0
  2 10  1  0  0  0  0
  3  5  1  0  0  0  0
  4 11  1  0  0  0  0
  6  9  1  0  0  0  0
  7  2  1  0  0  0  0
  8  3  2  0  0  0  0
  9 14  2  0  0  0  0
 10 15  2  0  0  0  0
 11 13  2  0  0  0  0
 11  8  1  0  0  0  0
 12  5  2  0  0  0  0
 13 12  1  0  0  0  0
 15 14  1  0  0  0  0
 15  8  1  0  0  0  0
 16 17  2  0  0  0  0
 17 18  1  0  0  0  0
 18 24  1  0  0  0  0
 18  4  1  0  0  0  0
 19 21  1  0  0  0  0
 21 20  1  0  0  0  0
 21 17  1  6  0  0  0
 22 19  2  0  0  0  0
 22 23  1  0  0  0  0
 23 20  2  0  0  0  0
 25 27  1  0  0  0  0
 25 24  1  0  0  0  0
 26 29  1  0  0  0  0
 26 27  2  0  0  0  0
 29 28  2  0  0  0  0
 30 29  1  0  0  0  0
M  END
>  <MODEL>
2

>  <REMARK>
 VINA RESULT:      -8.5      1.945      2.516
  Name = 
  6 active torsions:
  status: ('A' for Active; 'I' for Inactive)
    1  A    between atoms: C_4  and  N_13
    2  A    between atoms: N_7  and  C_15
    3  A    between atoms: C_8  and  C_12
    4  A    between atoms: N_13  and  C_27
    5  A    between atoms: C_16  and  C_30
    6  A    between atoms: C_27  and  C_30
                            x       y       z     vdW  Elec       q    Type
                         _______ _______ _______ _____ _____    ______ ____

>  <TORSDO>
F 6

$$$$
=
 OpenBabel11052421563D

 30 33  0  0  0  0  0  0  0  0999 V2000
  161.1890  205.1270  150.0090 N   0  0  0  0  0  0  0  0  0  0  0  0
  160.6780  202.9290  150.8090 C   0  0  0  0  0  0  0  0  0  0  0  0
  161.7900  203.7320  146.1160 C   0  0  0  0  0  3  0  0  0  0  0  0
  161.5440  206.0170  149.0430 C   0  0  0  0  0  0  0  0  0  0  0  0
  162.1090  204.6310  145.0960 C   0  0  0  0  0  3  0  0  0  0  0  0
  160.5300  201.5620  150.5580 C   0  0  0  0  0  3  0  0  0  0  0  0
  160.4040  203.5250  152.4390 Cl  0  0  0  0  0  0  0  0  0  0  0  0
  161.5950  204.1830  147.4320 C   0  0  0  0  0  0  0  0  0  0  0  0
  160.7380  201.0550  149.2730 C   0  0  0  0  0  3  0  0  0  0  0  0
  161.0390  203.7990  149.7670 C   0  0  0  0  0  0  0  0  0  0  0  0
  161.7370  205.5630  147.7200 C   0  0  0  0  0  0  0  0  0  0  0  0
  162.2320  205.9920  145.3790 C   0  0  0  0  0  3  0  0  0  0  0  0
  162.0450  206.4550  146.6820 C   0  0  0  0  0  3  0  0  0  0  0  0
  161.0940  201.9140  148.2310 C   0  0  0  0  0  3  0  0  0  0  0  0
  161.2480  203.2910  148.4650 C   0  0  0  0  0  0  0  0  0  0  0  0
  162.6840  208.9610  150.8200 O   0  0  0  0  0  0  0  0  0  0  0  0
  162.1220  207.8390  150.6990 C   0  0  0  0  0  0  0  0  0  0  0  0
  161.6850  207.4060  149.3960 N   0  0  0  0  0  0  0  0  0  0  0  0
  160.8340  207.1230  152.7740 C   0  0  0  0  0  3  0  0  0  0  0  0
  162.7020  206.0240  152.3230 N   0  0  0  0  0  0  0  0  0  0  0  0
  161.9020  207.0200  151.9070 C   0  0  0  0  0  0  0  0  0  0  0  0
  161.0250  206.1760  153.7110 N   0  0  0  0  0  2  0  0  0  0  0  0
  162.1470  205.5360  153.4180 N   0  0  0  0  0  0  0  0  0  0  0  0
  161.2670  208.4080  148.4230 C   0  0  0  0  0  2  0  0  0  0  0  0
  162.2830  209.5370  148.3690 C   0  0  0  0  0  2  0  0  0  0  0  0
  162.1920  211.9310  148.6710 N   0  0  0  0  0  0  0  0  0  0  0  0
  161.5870  210.8500  148.2970 C   0  0  0  0  0  3  0  0  0  0  0  0
  160.4970  213.4400  149.2530 O   0  0  0  0  0  0  0  0  0  0  0  0
  161.5630  213.2150  148.6200 C   0  0  0  0  0  0  0  0  0  0  0  0
  162.1770  214.2970  147.8090 C   0  0  0  0  0  1  0  0  0  0  0  0
  2  7  1  0  0  0  0
  3  8  1  0  0  0  0
  4 18  1  0  0  0  0
  4  1  2  0  0  0  0
  5 12  1  0  0  0  0
  5  3  2  0  0  0  0
  6  2  1  0  0  0  0
  8 11  2  0  0  0  0
  8 15  1  0  0  0  0
  9  6  2  0  0  0  0
 10  1  1  0  0  0  0
 10  2  2  0  0  0  0
 11  4  1  0  0  0  0
 12 13  2  0  0  0  0
 13 11  1  0  0  0  0
 14 15  2  0  0  0  0
 14  9  1  0  0  0  0
 15 10  1  0  0  0  0
 17 16  2  0  0  0  0
 17 21  1  0  0  0  0
 18 17  1  0  0  0  0
 19 22  1  0  0  0  0
 20 23  2  0  0  0  0
 21 20  1  0  0  0  0
 21 19  2  0  0  0  0
 23 22  1  0  0  0  0
 24 18  1  0  0  0  0
 25 24  1  0  0  0  0
 27 25  1  0  0  0  0
 27 26  2  0  0  0  0
 29 26  1  0  0  0  0
 29 28  2  0  0  0  0
 30 29  1  0  0  0  0
M  END
>  <MODEL>
3

>  <REMARK>
 VINA RESULT:      -8.3      2.811      5.031
  Name = 
  6 active torsions:
  status: ('A' for Active; 'I' for Inactive)
    1  A    between atoms: C_4  and  N_13
    2  A    between atoms: N_7  and  C_15
    3  A    between atoms: C_8  and  C_12
    4  A    between atoms: N_13  and  C_27
    5  A    between atoms: C_16  and  C_30
    6  A    between atoms: C_27  and  C_30
                            x       y       z     vdW  Elec       q    Type
                         _______ _______ _______ _____ _____    ______ ____

>  <TORSDO>
F 6

$$$$
=
 OpenBabel11052421563D

 30 33  0  0  0  0  0  0  0  0999 V2000
  161.3830  209.3500  153.5790 N   0  0  0  0  0  0  0  0  0  0  0  0
  160.9210  209.6070  155.9140 C   0  0  0  0  0  0  0  0  0  0  0  0
  160.8710  205.2070  153.7820 C   0  0  0  0  0  3  0  0  0  0  0  0
  161.5510  208.6130  152.4460 C   0  0  0  0  0  0  0  0  0  0  0  0
  160.9920  204.4330  152.6260 C   0  0  0  0  0  3  0  0  0  0  0  0
  160.6090  209.0320  157.1480 C   0  0  0  0  0  3  0  0  0  0  0  0
  161.1150  211.3510  155.8160 Cl  0  0  0  0  0  0  0  0  0  0  0  0
  161.0500  206.6000  153.7330 C   0  0  0  0  0  0  0  0  0  0  0  0
  160.4450  207.6490  157.2590 C   0  0  0  0  0  3  0  0  0  0  0  0
  161.0740  208.7940  154.7790 C   0  0  0  0  0  0  0  0  0  0  0  0
  161.3680  207.2150  152.4960 C   0  0  0  0  0  0  0  0  0  0  0  0
  161.2880  205.0430  151.4060 C   0  0  0  0  0  3  0  0  0  0  0  0
  161.4720  206.4240  151.3410 C   0  0  0  0  0  3  0  0  0  0  0  0
  160.5920  206.8340  156.1350 C   0  0  0  0  0  3  0  0  0  0  0  0
  160.9070  207.3940  154.8860 C   0  0  0  0  0  0  0  0  0  0  0  0
  162.2290  211.3400  150.1590 O   0  0  0  0  0  0  0  0  0  0  0  0
  161.5370  210.6660  150.9690 C   0  0  0  0  0  0  0  0  0  0  0  0
  161.8850  209.2900  151.2210 N   0  0  0  0  0  0  0  0  0  0  0  0
  160.0330  212.6400  151.5350 C   0  0  0  0  0  3  0  0  0  0  0  0
  159.4380  210.6630  152.3340 N   0  0  0  0  0  0  0  0  0  0  0  0
  160.3690  211.3040  151.6090 C   0  0  0  0  0  0  0  0  0  0  0  0
  158.8920  212.7730  152.2380 N   0  0  0  0  0  2  0  0  0  0  0  0
  158.5600  211.5790  152.7040 N   0  0  0  0  0  0  0  0  0  0  0  0
  162.5090  208.5150  150.1550 C   0  0  0  0  0  2  0  0  0  0  0  0
  161.6450  208.5590  148.9050 C   0  0  0  0  0  2  0  0  0  0  0  0
  161.4540  206.5010  147.6550 N   0  0  0  0  0  0  0  0  0  0  0  0
  162.1380  207.5710  147.9070 C   0  0  0  0  0  3  0  0  0  0  0  0
  162.4190  205.8710  145.6150 O   0  0  0  0  0  0  0  0  0  0  0  0
  161.8880  205.5250  146.7040 C   0  0  0  0  0  0  0  0  0  0  0  0
  161.7090  204.0810  147.0070 C   0  0  0  0  0  1  0  0  0  0  0  0
  1 10  1  0  0  0  0
  2  6  1  0  0  0  0
  4 11  1  0  0  0  0
  4  1  2  0  0  0  0
  5  3  2  0  0  0  0
  6  9  2  0  0  0  0
  7  2  1  0  0  0  0
  8  3  1  0  0  0  0
  8 15  1  0  0  0  0
 10 15  1  0  0  0  0
 10  2  2  0  0  0  0
 11  8  2  0  0  0  0
 12  5  1  0  0  0  0
 13 12  2  0  0  0  0
 13 11  1  0  0  0  0
 14  9  1  0  0  0  0
 15 14  2  0  0  0  0
 16 17  2  0  0  0  0
 17 18  1  0  0  0  0
 17 21  1  0  0  0  0
 18  4  1  0  0  0  0
 19 21  2  0  0  0  0
 19 22  1  0  0  0  0
 20 23  2  0  0  0  0
 21 20  1  0  0  0  0
 22 23  1  0  0  0  0
 24 18  1  0  0  0  0
 25 24  1  0  0  0  0
 26 27  2  0  0  0  0
 27 25  1  0  0  0  0
 28 29  2  0  0  0  0
 29 30  1  0  0  0  0
 29 26  1  0  0  0  0
M  END
>  <MODEL>
4

>  <REMARK>
 VINA RESULT:      -7.5      3.190      7.240
  Name = 
  6 active torsions:
  status: ('A' for Active; 'I' for Inactive)
    1  A    between atoms: C_4  and  N_13
    2  A    between atoms: N_7  and  C_15
    3  A    between atoms: C_8  and  C_12
    4  A    between atoms: N_13  and  C_27
    5  A    between atoms: C_16  and  C_30
    6  A    between atoms: C_27  and  C_30
                            x       y       z     vdW  Elec       q    Type
                         _______ _______ _______ _____ _____    ______ ____

>  <TORSDO>
F 6

$$$$
=
 OpenBabel11052421563D

 30 33  0  0  0  0  0  0  0  0999 V2000
  160.4990  209.0150  153.3970 N   0  0  0  0  0  0  0  0  0  0  0  0
  161.0760  206.6910  153.4130 C   0  0  0  0  0  0  0  0  0  0  0  0
  162.1790  209.5590  149.6090 C   0  0  0  0  0  3  0  0  0  0  0  0
  160.4680  210.2560  152.8390 C   0  0  0  0  0  0  0  0  0  0  0  0
  162.1200  210.8120  148.9950 C   0  0  0  0  0  3  0  0  0  0  0  0
  161.6690  205.5950  152.7800 C   0  0  0  0  0  3  0  0  0  0  0  0
  160.3470  206.4640  154.9950 Cl  0  0  0  0  0  0  0  0  0  0  0  0
  161.6280  209.3610  150.8860 C   0  0  0  0  0  0  0  0  0  0  0  0
  162.2550  205.7410  151.5200 C   0  0  0  0  0  3  0  0  0  0  0  0
  161.0690  207.9460  152.7820 C   0  0  0  0  0  0  0  0  0  0  0  0
  161.0200  210.4520  151.5550 C   0  0  0  0  0  0  0  0  0  0  0  0
  161.5050  211.8810  149.6480 C   0  0  0  0  0  3  0  0  0  0  0  0
  160.9570  211.7020  150.9180 C   0  0  0  0  0  3  0  0  0  0  0  0
  162.2490  206.9840  150.8860 C   0  0  0  0  0  3  0  0  0  0  0  0
  161.6590  208.0980  151.5060 C   0  0  0  0  0  0  0  0  0  0  0  0
  160.1020  212.9800  155.2010 O   0  0  0  0  0  0  0  0  0  0  0  0
  160.3360  211.7930  154.8430 C   0  0  0  0  0  0  0  0  0  0  0  0
  159.8470  211.3300  153.5700 N   0  0  0  0  0  0  0  0  0  0  0  0
  162.4490  210.8700  155.9210 C   0  0  0  0  0  3  0  0  0  0  0  0
  160.5210  210.0270  156.6080 N   0  0  0  0  0  0  0  0  0  0  0  0
  161.0800  210.9080  155.7620 C   0  0  0  0  0  0  0  0  0  0  0  0
  162.6860  209.9430  156.8690 N   0  0  0  0  0  2  0  0  0  0  0  0
  161.5180  209.4560  157.2610 N   0  0  0  0  0  0  0  0  0  0  0  0
  158.6120  211.8960  153.0410 C   0  0  0  0  0  2  0  0  0  0  0  0
  158.8280  213.3500  152.6550 C   0  0  0  0  0  2  0  0  0  0  0  0
  157.8030  213.0680  150.4870 N   0  0  0  0  0  0  0  0  0  0  0  0
  157.8700  213.7450  151.5880 C   0  0  0  0  0  3  0  0  0  0  0  0
  157.1620  213.1280  148.2350 O   0  0  0  0  0  0  0  0  0  0  0  0
  156.8980  213.4110  149.4340 C   0  0  0  0  0  0  0  0  0  0  0  0
  155.6290  214.1110  149.7600 C   0  0  0  0  0  1  0  0  0  0  0  0
  2  7  1  0  0  0  0
  3  8  1  0  0  0  0
  4  1  1  0  0  0  0
  4 18  1  0  0  0  0
  5  3  2  0  0  0  0
  5 12  1  0  0  0  0
  6  2  2  0  0  0  0
  8 15  2  0  0  0  0
  8 11  1  0  0  0  0
  9  6  1  0  0  0  0
 10  1  2  0  0  0  0
 10  2  1  0  0  0  0
 11  4  2  0  0  0  0
 12 13  2  0  0  0  0
 13 11  1  0  0  0  0
 14 15  1  0  0  0  0
 14  9  2  0  0  0  0
 15 10  1  0  0  0  0
 17 16  2  0  0  0  0
 17 21  1  0  0  0  0
 18 17  1  0  0  0  0
 19 22  1  0  0  0  0
 20 23  2  0  0  0  0
 21 19  2  0  0  0  0
 21 20  1  0  0  0  0
 22 23  1  0  0  0  0
 24 18  1  0  0  0  0
 25 24  1  0  0  0  0
 26 27  2  0  0  0  0
 27 25  1  0  0  0  0
 28 29  2  0  0  0  0
 29 30  1  0  0  0  0
 29 26  1  0  0  0  0
M  END
>  <MODEL>
5

>  <REMARK>
 VINA RESULT:      -7.2      4.740      7.827
  Name = 
  6 active torsions:
  status: ('A' for Active; 'I' for Inactive)
    1  A    between atoms: C_4  and  N_13
    2  A    between atoms: N_7  and  C_15
    3  A    between atoms: C_8  and  C_12
    4  A    between atoms: N_13  and  C_27
    5  A    between atoms: C_16  and  C_30
    6  A    between atoms: C_27  and  C_30
                            x       y       z     vdW  Elec       q    Type
                         _______ _______ _______ _____ _____    ______ ____

>  <TORSDO>
F 6

$$$$
=
 OpenBabel11052421563D

 30 33  0  0  0  0  0  0  0  0999 V2000
  158.8520  210.5010  154.7270 N   0  0  0  0  0  0  0  0  0  0  0  0
  157.3420  212.3460  154.5020 C   0  0  0  0  0  0  0  0  0  0  0  0
  160.8090  211.4750  151.1650 C   0  0  0  0  0  3  0  0  0  0  0  0
  159.8830  209.7160  154.3110 C   0  0  0  0  0  0  0  0  0  0  0  0
  161.9000  210.7130  150.7400 C   0  0  0  0  0  3  0  0  0  0  0  0
  156.8950  213.4510  153.7730 C   0  0  0  0  0  3  0  0  0  0  0  0
  156.5390  211.9440  156.0120 Cl  0  0  0  0  0  0  0  0  0  0  0  0
  160.1330  211.1550  152.3550 C   0  0  0  0  0  0  0  0  0  0  0  0
  157.5140  213.7990  152.5700 C   0  0  0  0  0  3  0  0  0  0  0  0
  158.4180  211.5790  154.0240 C   0  0  0  0  0  0  0  0  0  0  0  0
  160.5630  210.0400  153.1180 C   0  0  0  0  0  0  0  0  0  0  0  0
  162.3320  209.6260  151.5010 C   0  0  0  0  0  3  0  0  0  0  0  0
  161.6690  209.2940  152.6830 C   0  0  0  0  0  3  0  0  0  0  0  0
  158.5850  213.0430  152.0900 C   0  0  0  0  0  3  0  0  0  0  0  0
  159.0480  211.9290  152.8080 C   0  0  0  0  0  0  0  0  0  0  0  0
  160.8040  207.8190  157.2580 O   0  0  0  0  0  0  0  0  0  0  0  0
  160.9220  208.7320  156.3970 C   0  0  0  0  0  0  0  0  0  0  0  0
  160.2680  208.5890  155.1210 N   0  0  0  0  0  0  0  0  0  0  0  0
  161.2980  211.1740  157.0100 C   0  0  0  0  0  3  0  0  0  0  0  0
  163.0980  209.9020  156.8030 N   0  0  0  0  0  0  0  0  0  0  0  0
  161.7580  209.9070  156.7170 C   0  0  0  0  0  0  0  0  0  0  0  0
  162.3940  211.9160  157.2610 N   0  0  0  0  0  2  0  0  0  0  0  0
  163.4530  211.1320  157.1290 N   0  0  0  0  0  0  0  0  0  0  0  0
  160.0780  207.2520  154.5720 C   0  0  0  0  0  2  0  0  0  0  0  0
  161.4250  206.6210  154.2590 C   0  0  0  0  0  2  0  0  0  0  0  0
  161.2530  205.7760  152.0030 N   0  0  0  0  0  0  0  0  0  0  0  0
  161.2590  205.5200  153.2720 C   0  0  0  0  0  3  0  0  0  0  0  0
  160.9120  205.0390  149.8060 O   0  0  0  0  0  0  0  0  0  0  0  0
  161.0960  204.7500  151.0190 C   0  0  0  0  0  0  0  0  0  0  0  0
  161.1490  203.3240  151.4340 C   0  0  0  0  0  1  0  0  0  0  0  0
  2  7  1  0  0  0  0
  3  8  1  0  0  0  0
  4  1  1  0  0  0  0
  4 18  1  0  0  0  0
  5  3  2  0  0  0  0
  5 12  1  0  0  0  0
  6  2  2  0  0  0  0
  8 15  2  0  0  0  0
  8 11  1  0  0  0  0
  9  6  1  0  0  0  0
 10  2  1  0  0  0  0
 10  1  2  0  0  0  0
 11  4  2  0  0  0  0
 12 13  2  0  0  0  0
 13 11  1  0  0  0  0
 14  9  2  0  0  0  0
 14 15  1  0  0  0  0
 15 10  1  0  0  0  0
 17 21  1  0  0  0  0
 17 16  2  0  0  0  0
 18 17  1  0  0  0  0
 19 22  1  0  0  0  0
 20 23  2  0  0  0  0
 21 20  1  0  0  0  0
 21 19  2  0  0  0  0
 23 22  1  0  0  0  0
 24 18  1  0  0  0  0
 25 24  1  0  0  0  0
 26 27  2  0  0  0  0
 27 25  1  0  0  0  0
 28 29  2  0  0  0  0
 29 30  1  0  0  0  0
 29 26  1  0  0  0  0
M  END
>  <MODEL>
6

>  <REMARK>
 VINA RESULT:      -7.2      4.376      9.419
  Name = 
  6 active torsions:
  status: ('A' for Active; 'I' for Inactive)
    1  A    between atoms: C_4  and  N_13
    2  A    between atoms: N_7  and  C_15
    3  A    between atoms: C_8  and  C_12
    4  A    between atoms: N_13  and  C_27
    5  A    between atoms: C_16  and  C_30
    6  A    between atoms: C_27  and  C_30
                            x       y       z     vdW  Elec       q    Type
                         _______ _______ _______ _____ _____    ______ ____

>  <TORSDO>
F 6

$$$$
=
 OpenBabel11052421563D

 30 33  0  0  1  0  0  0  0  0999 V2000
  161.8550  210.0720  151.8940 N   0  0  0  0  0  0  0  0  0  0  0  0
  161.9730  209.8160  149.5170 C   0  0  0  0  0  0  0  0  0  0  0  0
  160.9880  206.0200  152.4380 C   0  0  0  0  0  3  0  0  0  0  0  0
  161.6570  209.6100  153.1590 C   0  0  0  0  0  0  0  0  0  0  0  0
  160.8260  205.5110  153.7280 C   0  0  0  0  0  3  0  0  0  0  0  0
  161.8740  208.9960  148.3900 C   0  0  0  0  0  3  0  0  0  0  0  0
  162.3600  211.5160  149.2970 Cl  0  0  0  0  0  0  0  0  0  0  0  0
  161.2700  207.3820  152.2370 C   0  0  0  0  0  0  0  0  0  0  0  0
  161.5700  207.6400  148.5300 C   0  0  0  0  0  3  0  0  0  0  0  0
  161.7650  209.2770  150.7970 C   0  0  0  0  0  0  0  0  0  0  0  0
  161.3770  208.2410  153.3590 C   0  0  0  0  0  0  0  0  0  0  0  0
  160.9490  206.3540  154.8320 C   0  0  0  0  0  3  0  0  0  0  0  0
  161.2250  207.7100  154.6490 C   0  0  0  0  0  3  0  0  0  0  0  0
  161.3660  207.0960  149.7990 C   0  0  0  0  0  3  0  0  0  0  0  0
  161.4600  207.9050  150.9440 C   0  0  0  0  0  0  0  0  0  0  0  0
  160.6380  211.7550  155.8950 O   0  0  0  0  0  0  0  0  0  0  0  0
  160.6710  211.3560  154.6990 C   0  0  0  0  0  0  0  0  0  0  0  0
  161.7670  210.5300  154.2600 N   0  0  0  0  0  0  0  0  0  0  0  0
  159.7250  212.6820  152.7440 C   0  0  0  0  0  3  0  0  0  0  0  0
  158.3360  211.3180  153.7980 N   0  0  0  0  0  0  0  0  0  0  0  0
  159.5970  211.7800  153.7800 C   0  0  1  0  0  3  0  0  0  0  0  0
  158.5130  212.7480  152.1600 N   0  0  0  0  0  0  0  0  0  0  0  0
  157.7040  211.9260  152.8090 N   0  0  0  0  0  0  0  0  0  0  0  0
  163.0730  210.7020  154.8840 C   0  0  0  0  0  2  0  0  0  0  0  0
  162.9310  210.7090  156.3980 C   0  0  0  0  0  2  0  0  0  0  0  0
  164.9970  211.9570  156.3000 N   0  0  0  0  0  0  0  0  0  0  0  0
  164.1390  211.3120  157.0230 C   0  0  0  0  0  3  0  0  0  0  0  0
  167.1380  211.8410  157.2440 O   0  0  0  0  0  0  0  0  0  0  0  0
  166.1710  212.5520  156.8570 C   0  0  0  0  0  0  0  0  0  0  0  0
  166.2520  214.0300  156.9830 C   0  0  0  0  0  1  0  0  0  0  0  0
  1  4  1  0  0  0  0
  2 10  1  0  0  0  0
  3  5  2  0  0  0  0
  4 11  2  0  0  0  0
  4 18  1  0  0  0  0
  5 12  1  0  0  0  0
  6  9  1  0  0  0  0
  6  2  2  0  0  0  0
  7  2  1  0  0  0  0
  8  3  1  0  0  0  0
  8 11  1  0  0  0  0
  9 14  2  0  0  0  0
 10 15  1  0  0  0  0
 10  1  2  0  0  0  0
 11 13  1  0  0  0  0
 13 12  2  0  0  0  0
 14 15  1  0  0  0  0
 15  8  2  0  0  0  0
 17 16  2  0  0  0  0
 18 17  1  0  0  0  0
 18 24  1  0  0  0  0
 19 21  1  0  0  0  0
 21 20  1  0  0  0  0
 21 17  1  6  0  0  0
 22 19  2  0  0  0  0
 22 23  1  0  0  0  0
 23 20  2  0  0  0  0
 24 25  1  0  0  0  0
 25 27  1  0  0  0  0
 26 29  1  0  0  0  0
 26 27  2  0  0  0  0
 29 30  1  0  0  0  0
 29 28  2  0  0  0  0
M  END
>  <MODEL>
7

>  <REMARK>
 VINA RESULT:      -7.2      4.562      6.991
  Name = 
  6 active torsions:
  status: ('A' for Active; 'I' for Inactive)
    1  A    between atoms: C_4  and  N_13
    2  A    between atoms: N_7  and  C_15
    3  A    between atoms: C_8  and  C_12
    4  A    between atoms: N_13  and  C_27
    5  A    between atoms: C_16  and  C_30
    6  A    between atoms: C_27  and  C_30
                            x       y       z     vdW  Elec       q    Type
                         _______ _______ _______ _____ _____    ______ ____

>  <TORSDO>
F 6

$$$$
=
 OpenBabel11052421563D

 30 33  0  0  1  0  0  0  0  0999 V2000
  160.8320  210.1250  151.1440 N   0  0  0  0  0  0  0  0  0  0  0  0
  160.0330  212.1930  152.0490 C   0  0  0  0  0  0  0  0  0  0  0  0
  160.7540  208.2820  154.8940 C   0  0  0  0  0  3  0  0  0  0  0  0
  161.2310  208.8280  151.2440 C   0  0  0  0  0  0  0  0  0  0  0  0
  161.1150  206.9390  155.0160 C   0  0  0  0  0  3  0  0  0  0  0  0
  159.6210  212.9420  153.1540 C   0  0  0  0  0  3  0  0  0  0  0  0
  160.0450  212.9550  150.4660 Cl  0  0  0  0  0  0  0  0  0  0  0  0
  160.7850  208.9200  153.6420 C   0  0  0  0  0  0  0  0  0  0  0  0
  159.5970  212.3660  154.4270 C   0  0  0  0  0  3  0  0  0  0  0  0
  160.4260  210.8550  152.2150 C   0  0  0  0  0  0  0  0  0  0  0  0
  161.1970  208.1880  152.5010 C   0  0  0  0  0  0  0  0  0  0  0  0
  161.5040  206.2150  153.8890 C   0  0  0  0  0  3  0  0  0  0  0  0
  161.5430  206.8350  152.6390 C   0  0  0  0  0  3  0  0  0  0  0  0
  159.9830  211.0360  154.5990 C   0  0  0  0  0  3  0  0  0  0  0  0
  160.4000  210.2670  153.5010 C   0  0  0  0  0  0  0  0  0  0  0  0
  163.0810  208.1280  148.2080 O   0  0  0  0  0  0  0  0  0  0  0  0
  162.3260  208.7980  148.9640 C   0  0  0  0  0  0  0  0  0  0  0  0
  161.6510  208.1370  150.0520 N   0  0  0  0  0  0  0  0  0  0  0  0
  162.9150  211.2660  149.1680 C   0  0  0  0  0  3  0  0  0  0  0  0
  161.1840  210.7490  147.8890 N   0  0  0  0  0  0  0  0  0  0  0  0
  162.1350  210.2350  148.6860 C   0  0  1  0  0  3  0  0  0  0  0  0
  162.4000  212.3950  148.6460 N   0  0  0  0  0  0  0  0  0  0  0  0
  161.3670  212.0580  147.8880 N   0  0  0  0  0  0  0  0  0  0  0  0
  161.2820  206.7340  149.9050 C   0  0  0  0  0  2  0  0  0  0  0  0
  160.3780  206.5570  148.6960 C   0  0  0  0  0  2  0  0  0  0  0  0
  161.0630  206.1330  146.4190 N   0  0  0  0  0  0  0  0  0  0  0  0
  161.0670  205.7480  147.6550 C   0  0  0  0  0  3  0  0  0  0  0  0
  161.2060  205.3000  144.2340 O   0  0  0  0  0  0  0  0  0  0  0  0
  161.7120  205.3870  145.3860 C   0  0  0  0  0  0  0  0  0  0  0  0
  163.0000  204.7050  145.6740 C   0  0  0  0  0  1  0  0  0  0  0  0
  1  4  2  0  0  0  0
  1 10  1  0  0  0  0
  2 10  2  0  0  0  0
  2  6  1  0  0  0  0
  3  5  1  0  0  0  0
  4 11  1  0  0  0  0
  6  9  2  0  0  0  0
  7  2  1  0  0  0  0
  8  3  2  0  0  0  0
  9 14  1  0  0  0  0
 10 15  1  0  0  0  0
 11 13  2  0  0  0  0
 11  8  1  0  0  0  0
 12  5  2  0  0  0  0
 13 12  1  0  0  0  0
 15  8  1  0  0  0  0
 15 14  2  0  0  0  0
 16 17  2  0  0  0  0
 17 18  1  0  0  0  0
 18  4  1  0  0  0  0
 20 21  1  0  0  0  0
 21 17  1  6  0  0  0
 21 19  1  0  0  0  0
 22 19  2  0  0  0  0
 23 20  2  0  0  0  0
 23 22  1  0  0  0  0
 24 18  1  0  0  0  0
 25 24  1  0  0  0  0
 26 27  2  0  0  0  0
 27 25  1  0  0  0  0
 28 29  2  0  0  0  0
 29 30  1  0  0  0  0
 29 26  1  0  0  0  0
M  END
>  <MODEL>
8

>  <REMARK>
 VINA RESULT:      -7.1      3.385      7.260
  Name = 
  6 active torsions:
  status: ('A' for Active; 'I' for Inactive)
    1  A    between atoms: C_4  and  N_13
    2  A    between atoms: N_7  and  C_15
    3  A    between atoms: C_8  and  C_12
    4  A    between atoms: N_13  and  C_27
    5  A    between atoms: C_16  and  C_30
    6  A    between atoms: C_27  and  C_30
                            x       y       z     vdW  Elec       q    Type
                         _______ _______ _______ _____ _____    ______ ____

>  <TORSDO>
F 6

$$$$
=
 OpenBabel11052421563D

 30 33  0  0  0  0  0  0  0  0999 V2000
  159.4800  210.7070  153.2080 N   0  0  0  0  0  0  0  0  0  0  0  0
  157.7560  212.2350  153.8600 C   0  0  0  0  0  0  0  0  0  0  0  0
  160.4690  213.0170  149.8680 C   0  0  0  0  0  3  0  0  0  0  0  0
  160.4760  210.2770  152.3860 C   0  0  0  0  0  0  0  0  0  0  0  0
  161.5180  212.6220  149.0350 C   0  0  0  0  0  3  0  0  0  0  0  0
  157.0320  213.4060  153.6180 C   0  0  0  0  0  3  0  0  0  0  0  0
  157.3600  211.2710  155.2750 Cl  0  0  0  0  0  0  0  0  0  0  0  0
  160.1170  212.2460  150.9890 C   0  0  0  0  0  0  0  0  0  0  0  0
  157.3230  214.1960  152.5030 C   0  0  0  0  0  3  0  0  0  0  0  0
  158.7790  211.8470  152.9790 C   0  0  0  0  0  0  0  0  0  0  0  0
  160.8310  211.0530  151.2620 C   0  0  0  0  0  0  0  0  0  0  0  0
  162.2310  211.4550  149.3150 C   0  0  0  0  0  3  0  0  0  0  0  0
  161.8920  210.6780  150.4230 C   0  0  0  0  0  3  0  0  0  0  0  0
  158.3410  213.8200  151.6250 C   0  0  0  0  0  3  0  0  0  0  0  0
  159.0780  212.6460  151.8510 C   0  0  0  0  0  0  0  0  0  0  0  0
  161.4660  207.3420  154.2680 O   0  0  0  0  0  0  0  0  0  0  0  0
  161.3200  208.5780  154.0580 C   0  0  0  0  0  0  0  0  0  0  0  0
  161.1600  209.0510  152.7070 N   0  0  0  0  0  0  0  0  0  0  0  0
  160.4890  209.4890  156.2850 C   0  0  0  0  0  3  0  0  0  0  0  0
  162.2590  210.4760  155.3930 N   0  0  0  0  0  0  0  0  0  0  0  0
  161.3530  209.5020  155.2100 C   0  0  0  0  0  0  0  0  0  0  0  0
  160.8990  210.4800  157.1000 N   0  0  0  0  0  2  0  0  0  0  0  0
  161.9550  211.0530  156.5430 N   0  0  0  0  0  0  0  0  0  0  0  0
  161.8020  208.3180  151.6230 C   0  0  0  0  0  2  0  0  0  0  0  0
  160.8310  207.3100  151.0280 C   0  0  0  0  0  2  0  0  0  0  0  0
  160.5370  206.1930  148.9080 N   0  0  0  0  0  0  0  0  0  0  0  0
  161.3240  206.8420  149.7050 C   0  0  0  0  0  3  0  0  0  0  0  0
  160.8310  206.4370  146.5960 O   0  0  0  0  0  0  0  0  0  0  0  0
  160.9670  205.7240  147.6270 C   0  0  0  0  0  0  0  0  0  0  0  0
  161.5810  204.3760  147.5100 C   0  0  0  0  0  1  0  0  0  0  0  0
  2  7  1  0  0  0  0
  3  8  1  0  0  0  0
  4 18  1  0  0  0  0
  4  1  2  0  0  0  0
  5 12  1  0  0  0  0
  5  3  2  0  0  0  0
  6  2  1  0  0  0  0
  8 11  2  0  0  0  0
  8 15  1  0  0  0  0
  9  6  2  0  0  0  0
 10  1  1  0  0  0  0
 10  2  2  0  0  0  0
 11  4  1  0  0  0  0
 12 13  2  0  0  0  0
 13 11  1  0  0  0  0
 14 15  2  0  0  0  0
 14  9  1  0  0  0  0
 15 10  1  0  0  0  0
 17 16  2  0  0  0  0
 17 21  1  0  0  0  0
 18 17  1  0  0  0  0
 19 22  1  0  0  0  0
 20 23  2  0  0  0  0
 21 20  1  0  0  0  0
 21 19  2  0  0  0  0
 23 22  1  0  0  0  0
 24 18  1  0  0  0  0
 25 24  1  0  0  0  0
 26 27  2  0  0  0  0
 27 25  1  0  0  0  0
 28 29  2  0  0  0  0
 29 26  1  0  0  0  0
 30 29  1  0  0  0  0
M  END
>  <MODEL>
9

>  <REMARK>
 VINA RESULT:      -7.1      3.855      9.194
  Name = 
  6 active torsions:
  status: ('A' for Active; 'I' for Inactive)
    1  A    between atoms: C_4  and  N_13
    2  A    between atoms: N_7  and  C_15
    3  A    between atoms: C_8  and  C_12
    4  A    between atoms: N_13  and  C_27
    5  A    between atoms: C_16  and  C_30
    6  A    between atoms: C_27  and  C_30
                            x       y       z     vdW  Elec       q    Type
                         _______ _______ _______ _____ _____    ______ ____

>  <TORSDO>
F 6

$$$$
