=
 OpenBabel11052422003D

 30 34  0  0  1  0  0  0  0  0999 V2000
  161.1670  206.9710  152.5620 C   0  0  0  0  0  0  0  0  0  0  0  0
  160.4980  205.5870  148.9350 C   0  0  0  0  0  2  0  0  0  0  0  0
  161.7980  206.6860  148.3170 S   0  0  2  0  0  0  0  0  0  0  0  0
  160.6360  205.6900  151.9930 C   0  0  1  0  0  3  0  0  0  0  0  0
  161.7520  206.9900  153.7060 N   0  0  0  0  0  2  0  0  0  0  0  0
  161.0510  204.5130  149.8700 C   0  0  0  0  0  2  0  0  0  0  0  0
  161.7180  205.1490  151.0750 C   0  0  2  0  0  3  0  0  0  0  0  0
  161.1300  208.1970  151.6830 C   0  0  2  0  0  3  0  0  0  0  0  0
  161.5640  208.2430  149.2250 C   0  0  1  0  0  3  0  0  0  0  0  0
  161.3200  206.9990  146.9060 O   0  0  0  0  0  0  0  0  0  0  0  0
  161.4120  204.4350  152.3700 C   0  0  0  0  0  2  0  0  0  0  0  0
  162.2030  208.1440  150.5990 C   0  0  0  0  0  2  0  0  0  0  0  0
  161.1060  209.5000  152.4460 C   0  0  0  0  0  0  0  0  0  0  0  0
  162.1630  210.0720  152.6570 O   0  0  0  0  0  0  0  0  0  0  0  0
  159.8320  210.0700  153.0310 C   0  0  2  0  0  3  0  0  0  0  0  0
  160.0780  211.4220  153.6780 C   0  0  2  0  0  3  0  0  0  0  0  0
  159.8030  210.2230  154.5600 C   0  0  2  0  0  3  0  0  0  0  0  0
  158.9930  213.5190  154.3990 C   0  0  0  0  0  2  0  0  0  0  0  0
  158.1760  212.3640  154.9350 C   0  0  0  0  0  2  0  0  0  0  0  0
  158.8230  212.2630  153.5680 C   0  0  0  0  0  3  0  0  0  0  0  0
  161.0920  209.8320  155.2890 C   0  0  0  0  0  2  0  0  0  0  0  0
  160.8940  211.3870  157.2600 C   0  0  0  0  0  1  0  0  0  0  0  0
  163.1510  210.7000  156.4530 C   0  0  0  0  0  1  0  0  0  0  0  0
  161.7200  211.0000  156.0480 C   0  0  0  0  0  3  0  0  0  0  0  0
  162.2150  209.3970  148.4830 C   0  0  0  0  0  2  0  0  0  0  0  0
  162.0690  210.6270  149.2490 N   0  0  0  0  0  2  0  0  0  0  0  0
  162.1740  211.7470  148.3240 C   0  0  0  0  0  0  0  0  0  0  0  0
  163.4400  212.0980  147.8550 O   0  0  0  0  0  1  0  0  0  0  0  0
  160.9870  212.0430  147.4420 C   0  0  0  0  0  2  0  0  0  0  0  0
  161.2850  212.9150  148.6620 C   0  0  0  0  0  2  0  0  0  0  0  0
  1  5  2  0  0  0  0
  2  6  1  0  0  0  0
  3 10  2  6  0  0  0
  3  2  1  0  0  0  0
  3  9  1  0  0  0  0
  4 11  1  1  0  0  0
  4  1  1  0  0  0  0
  7  6  1  6  0  0  0
  7  4  1  0  0  0  0
  7 11  1  0  0  0  0
  8 13  1  1  0  0  0
  8  1  1  0  0  0  0
  9 25  1  6  0  0  0
  9 12  1  0  0  0  0
 12  8  1  0  0  0  0
 13 14  2  0  0  0  0
 15 13  1  1  0  0  0
 15 16  1  0  0  0  0
 15 17  1  0  0  0  0
 16 20  1  6  0  0  0
 16 17  1  0  0  0  0
 17 21  1  1  0  0  0
 18 19  1  0  0  0  0
 20 18  1  0  0  0  0
 20 19  1  0  0  0  0
 21 24  1  0  0  0  0
 24 23  1  0  0  0  0
 24 22  1  0  0  0  0
 25 26  1  0  0  0  0
 27 30  1  0  0  0  0
 27 26  1  0  0  0  0
 28 27  1  0  0  0  0
 29 27  1  0  0  0  0
 29 30  1  0  0  0  0
M  END
>  <MODEL>
1

>  <REMARK>
 VINA RESULT:      -7.0      0.000      0.000
  Name = 
  8 active torsions:
  status: ('A' for Active; 'I' for Inactive)
    1  A    between atoms: C_1  and  C_4
    2  A    between atoms: C_1  and  C_22
    3  A    between atoms: N_7  and  C_10
    4  A    between atoms: N_7  and  C_25
    5  A    between atoms: C_8  and  C_30
    6  A    between atoms: C_9  and  C_12
    7  A    between atoms: C_9  and  C_21
    8  A    between atoms: C_23  and  C_25
                            x       y       z     vdW  Elec       q    Type
                         _______ _______ _______ _____ _____    ______ ____

>  <TORSDO>
F 8

$$$$
=
 OpenBabel11052422003D

 30 34  0  0  1  0  0  0  0  0999 V2000
  161.9070  209.9740  148.9440 C   0  0  0  0  0  0  0  0  0  0  0  0
  159.5620  212.7750  150.4170 C   0  0  0  0  0  2  0  0  0  0  0  0
  160.3710  212.5570  152.0210 S   0  0  2  0  0  0  0  0  0  0  0  0
  161.1840  211.1620  148.3810 C   0  0  1  0  0  3  0  0  0  0  0  0
  162.9780  209.5330  148.3880 N   0  0  0  0  0  2  0  0  0  0  0  0
  160.5200  213.3210  149.3600 C   0  0  0  0  0  2  0  0  0  0  0  0
  161.6830  212.3700  149.1540 C   0  0  2  0  0  3  0  0  0  0  0  0
  161.4220  209.4180  150.2600 C   0  0  2  0  0  3  0  0  0  0  0  0
  160.5900  210.7600  152.1920 C   0  0  1  0  0  3  0  0  0  0  0  0
  159.2560  212.8940  153.0000 O   0  0  0  0  0  0  0  0  0  0  0  0
  162.0650  212.2020  147.7030 C   0  0  0  0  0  2  0  0  0  0  0  0
  161.8240  210.3120  151.4290 C   0  0  0  0  0  2  0  0  0  0  0  0
  161.7560  207.9600  150.4710 C   0  0  0  0  0  0  0  0  0  0  0  0
  162.9170  207.6540  150.6890 O   0  0  0  0  0  0  0  0  0  0  0  0
  160.7200  206.8660  150.3330 C   0  0  2  0  0  3  0  0  0  0  0  0
  161.3710  205.4960  150.2510 C   0  0  2  0  0  3  0  0  0  0  0  0
  160.7390  206.0840  149.0090 C   0  0  2  0  0  3  0  0  0  0  0  0
  161.2280  203.5520  151.7660 C   0  0  0  0  0  2  0  0  0  0  0  0
  160.8550  203.0870  150.3750 C   0  0  0  0  0  2  0  0  0  0  0  0
  160.4380  204.4640  150.8490 C   0  0  0  0  0  3  0  0  0  0  0  0
  161.8430  206.4790  148.0230 C   0  0  0  0  0  2  0  0  0  0  0  0
  161.7090  204.2320  146.8920 C   0  0  0  0  0  1  0  0  0  0  0  0
  160.5350  206.1900  145.8890 C   0  0  0  0  0  1  0  0  0  0  0  0
  161.7400  205.7360  146.6920 C   0  0  0  0  0  3  0  0  0  0  0  0
  160.7740  210.3810  153.6510 C   0  0  0  0  0  2  0  0  0  0  0  0
  160.0070  209.1810  153.9540 N   0  0  0  0  0  2  0  0  0  0  0  0
  160.8440  208.3050  154.7640 C   0  0  0  0  0  0  0  0  0  0  0  0
  161.8070  208.8900  155.5870 O   0  0  0  0  0  1  0  0  0  0  0  0
  160.2680  206.9760  155.1840 C   0  0  0  0  0  2  0  0  0  0  0  0
  161.2980  207.0550  154.0570 C   0  0  0  0  0  2  0  0  0  0  0  0
  1  8  1  0  0  0  0
  2  3  1  0  0  0  0
  3  9  1  0  0  0  0
  3 10  2  1  0  0  0
  4 11  1  6  0  0  0
  4  1  1  0  0  0  0
  4  7  1  0  0  0  0
  5  1  2  0  0  0  0
  6  2  1  0  0  0  0
  7 11  1  6  0  0  0
  7  6  1  0  0  0  0
  8 13  1  1  0  0  0
  8 12  1  0  0  0  0
  9 25  1  1  0  0  0
 12  9  1  0  0  0  0
 13 14  2  0  0  0  0
 15 13  1  6  0  0  0
 16 15  1  0  0  0  0
 16 20  1  1  0  0  0
 17 21  1  6  0  0  0
 17 16  1  0  0  0  0
 17 15  1  0  0  0  0
 19 20  1  0  0  0  0
 19 18  1  0  0  0  0
 20 18  1  0  0  0  0
 23 24  1  0  0  0  0
 24 22  1  0  0  0  0
 24 21  1  0  0  0  0
 25 26  1  0  0  0  0
 26 27  1  0  0  0  0
 27 29  1  0  0  0  0
 27 28  1  0  0  0  0
 30 27  1  0  0  0  0
 30 29  1  0  0  0  0
M  END
>  <MODEL>
2

>  <REMARK>
 VINA RESULT:      -6.2      2.641      7.676
  Name = 
  8 active torsions:
  status: ('A' for Active; 'I' for Inactive)
    1  A    between atoms: C_1  and  C_4
    2  A    between atoms: C_1  and  C_22
    3  A    between atoms: N_7  and  C_10
    4  A    between atoms: N_7  and  C_25
    5  A    between atoms: C_8  and  C_30
    6  A    between atoms: C_9  and  C_12
    7  A    between atoms: C_9  and  C_21
    8  A    between atoms: C_23  and  C_25
                            x       y       z     vdW  Elec       q    Type
                         _______ _______ _______ _____ _____    ______ ____

>  <TORSDO>
F 8

$$$$
=
 OpenBabel11052422003D

 30 34  0  0  1  0  0  0  0  0999 V2000
  160.9670  206.3010  152.2880 C   0  0  0  0  0  0  0  0  0  0  0  0
  160.6610  205.2970  148.4920 C   0  0  0  0  0  2  0  0  0  0  0  0
  161.9640  206.4940  148.1090 S   0  0  2  0  0  0  0  0  0  0  0  0
  160.5350  205.0730  151.5430 C   0  0  1  0  0  3  0  0  0  0  0  0
  161.4510  206.2130  153.4750 N   0  0  0  0  0  2  0  0  0  0  0  0
  161.1740  204.1450  149.3530 C   0  0  0  0  0  2  0  0  0  0  0  0
  161.7120  204.6660  150.6720 C   0  0  2  0  0  3  0  0  0  0  0  0
  160.9560  207.6120  151.5430 C   0  0  2  0  0  3  0  0  0  0  0  0
  161.5940  207.9360  149.1520 C   0  0  1  0  0  3  0  0  0  0  0  0
  161.5950  206.9430  146.7020 O   0  0  0  0  0  0  0  0  0  0  0  0
  161.3250  203.8080  151.8530 C   0  0  0  0  0  2  0  0  0  0  0  0
  162.1170  207.7080  150.5580 C   0  0  0  0  0  2  0  0  0  0  0  0
  160.8160  208.8240  152.4340 C   0  0  0  0  0  0  0  0  0  0  0  0
  160.1310  209.7570  152.0460 O   0  0  0  0  0  0  0  0  0  0  0  0
  161.5630  208.9540  153.7430 C   0  0  2  0  0  3  0  0  0  0  0  0
  160.6080  209.1800  154.9030 C   0  0  2  0  0  3  0  0  0  0  0  0
  161.4770  210.3260  154.4330 C   0  0  2  0  0  3  0  0  0  0  0  0
  160.4460  207.3190  156.5160 C   0  0  0  0  0  2  0  0  0  0  0  0
  160.1590  208.6050  157.2590 C   0  0  0  0  0  2  0  0  0  0  0  0
  161.2030  208.5830  156.1610 C   0  0  0  0  0  3  0  0  0  0  0  0
  160.5980  211.3660  153.7310 C   0  0  0  0  0  2  0  0  0  0  0  0
  158.4140  212.0750  154.7650 C   0  0  0  0  0  1  0  0  0  0  0  0
  160.5150  212.2230  156.0990 C   0  0  0  0  0  1  0  0  0  0  0  0
  159.9110  212.3160  154.7100 C   0  0  0  0  0  3  0  0  0  0  0  0
  162.2600  209.1820  148.5950 C   0  0  0  0  0  2  0  0  0  0  0  0
  161.8710  210.3460  149.3780 N   0  0  0  0  0  2  0  0  0  0  0  0
  162.0510  211.5290  148.5470 C   0  0  0  0  0  0  0  0  0  0  0  0
  163.3510  211.9040  148.2070 O   0  0  0  0  0  1  0  0  0  0  0  0
  160.9390  211.8940  147.5940 C   0  0  0  0  0  2  0  0  0  0  0  0
  161.1370  212.6750  148.8930 C   0  0  0  0  0  2  0  0  0  0  0  0
  1  5  2  0  0  0  0
  2  6  1  0  0  0  0
  3 10  2  6  0  0  0
  3  2  1  0  0  0  0
  3  9  1  0  0  0  0
  4 11  1  1  0  0  0
  4  1  1  0  0  0  0
  7  6  1  6  0  0  0
  7  4  1  0  0  0  0
  7 11  1  0  0  0  0
  8  1  1  0  0  0  0
  8 13  1  1  0  0  0
  9 25  1  6  0  0  0
  9 12  1  0  0  0  0
 12  8  1  0  0  0  0
 14 13  2  0  0  0  0
 15 13  1  6  0  0  0
 15 17  1  0  0  0  0
 15 16  1  0  0  0  0
 16 20  1  1  0  0  0
 17 21  1  6  0  0  0
 17 16  1  0  0  0  0
 18 19  1  0  0  0  0
 20 18  1  0  0  0  0
 20 19  1  0  0  0  0
 21 24  1  0  0  0  0
 24 22  1  0  0  0  0
 24 23  1  0  0  0  0
 25 26  1  0  0  0  0
 27 30  1  0  0  0  0
 27 26  1  0  0  0  0
 28 27  1  0  0  0  0
 29 27  1  0  0  0  0
 29 30  1  0  0  0  0
M  END
>  <MODEL>
3

>  <REMARK>
 VINA RESULT:      -5.6      1.094      2.260
  Name = 
  8 active torsions:
  status: ('A' for Active; 'I' for Inactive)
    1  A    between atoms: C_1  and  C_4
    2  A    between atoms: C_1  and  C_22
    3  A    between atoms: N_7  and  C_10
    4  A    between atoms: N_7  and  C_25
    5  A    between atoms: C_8  and  C_30
    6  A    between atoms: C_9  and  C_12
    7  A    between atoms: C_9  and  C_21
    8  A    between atoms: C_23  and  C_25
                            x       y       z     vdW  Elec       q    Type
                         _______ _______ _______ _____ _____    ______ ____

>  <TORSDO>
F 8

$$$$
=
 OpenBabel11052422003D

 30 34  0  0  1  0  0  0  0  0999 V2000
  161.1140  206.7390  154.2350 C   0  0  0  0  0  0  0  0  0  0  0  0
  161.1520  210.6030  154.9990 C   0  0  0  0  0  2  0  0  0  0  0  0
  160.2830  210.8820  153.4360 S   0  0  2  0  0  0  0  0  0  0  0  0
  161.1590  207.5780  155.4770 C   0  0  1  0  0  3  0  0  0  0  0  0
  160.6080  205.5570  154.2580 N   0  0  0  0  0  2  0  0  0  0  0  0
  160.2990  209.8250  155.9990 C   0  0  0  0  0  2  0  0  0  0  0  0
  159.9280  208.4660  155.4380 C   0  0  2  0  0  3  0  0  0  0  0  0
  161.5350  207.3840  152.9380 C   0  0  2  0  0  3  0  0  0  0  0  0
  161.0620  209.7370  152.2580 C   0  0  1  0  0  3  0  0  0  0  0  0
  160.7920  212.2540  153.0170 O   0  0  0  0  0  0  0  0  0  0  0  0
  160.0160  207.3560  156.4590 C   0  0  0  0  0  2  0  0  0  0  0  0
  160.4730  208.3470  152.4180 C   0  0  0  0  0  2  0  0  0  0  0  0
  162.0260  206.4050  151.8970 C   0  0  0  0  0  0  0  0  0  0  0  0
  163.0820  206.6380  151.3300 O   0  0  0  0  0  0  0  0  0  0  0  0
  161.2150  205.2000  151.4750 C   0  0  2  0  0  3  0  0  0  0  0  0
  161.7510  204.5970  150.1870 C   0  0  2  0  0  3  0  0  0  0  0  0
  160.4340  205.3420  150.1590 C   0  0  2  0  0  3  0  0  0  0  0  0
  161.3320  202.6310  148.7560 C   0  0  0  0  0  2  0  0  0  0  0  0
  160.1050  202.8520  149.6130 C   0  0  0  0  0  2  0  0  0  0  0  0
  161.4840  203.1060  150.1860 C   0  0  0  0  0  3  0  0  0  0  0  0
  160.6250  206.6680  149.4160 C   0  0  0  0  0  2  0  0  0  0  0  0
  160.7750  206.3300  146.9240 C   0  0  0  0  0  1  0  0  0  0  0  0
  162.4740  207.7400  148.0820 C   0  0  0  0  0  1  0  0  0  0  0  0
  161.5530  206.5410  148.2100 C   0  0  0  0  0  3  0  0  0  0  0  0
  160.8170  210.1920  150.8300 C   0  0  0  0  0  2  0  0  0  0  0  0
  162.0550  210.6890  150.2460 N   0  0  0  0  0  2  0  0  0  0  0  0
  161.7210  211.7830  149.3450 C   0  0  0  0  0  0  0  0  0  0  0  0
  160.8290  212.7580  149.7940 O   0  0  0  0  0  1  0  0  0  0  0  0
  162.7500  212.1870  148.3180 C   0  0  0  0  0  2  0  0  0  0  0  0
  161.5250  211.3670  147.9100 C   0  0  0  0  0  2  0  0  0  0  0  0
  1  5  2  0  0  0  0
  1  4  1  0  0  0  0
  2  6  1  0  0  0  0
  3 10  2  6  0  0  0
  3  2  1  0  0  0  0
  4 11  1  1  0  0  0
  7  4  1  0  0  0  0
  7  6  1  1  0  0  0
  7 11  1  0  0  0  0
  8 13  1  6  0  0  0
  8  1  1  0  0  0  0
  9 25  1  6  0  0  0
  9 12  1  0  0  0  0
  9  3  1  0  0  0  0
 12  8  1  0  0  0  0
 14 13  2  0  0  0  0
 15 13  1  6  0  0  0
 16 20  1  1  0  0  0
 16 15  1  0  0  0  0
 17 21  1  6  0  0  0
 17 16  1  0  0  0  0
 17 15  1  0  0  0  0
 18 19  1  0  0  0  0
 18 20  1  0  0  0  0
 19 20  1  0  0  0  0
 22 24  1  0  0  0  0
 23 24  1  0  0  0  0
 24 21  1  0  0  0  0
 26 25  1  0  0  0  0
 27 28  1  0  0  0  0
 27 26  1  0  0  0  0
 29 27  1  0  0  0  0
 30 29  1  0  0  0  0
 30 27  1  0  0  0  0
M  END
>  <MODEL>
4

>  <REMARK>
 VINA RESULT:      -5.6      2.363      6.451
  Name = 
  8 active torsions:
  status: ('A' for Active; 'I' for Inactive)
    1  A    between atoms: C_1  and  C_4
    2  A    between atoms: C_1  and  C_22
    3  A    between atoms: N_7  and  C_10
    4  A    between atoms: N_7  and  C_25
    5  A    between atoms: C_8  and  C_30
    6  A    between atoms: C_9  and  C_12
    7  A    between atoms: C_9  and  C_21
    8  A    between atoms: C_23  and  C_25
                            x       y       z     vdW  Elec       q    Type
                         _______ _______ _______ _____ _____    ______ ____

>  <TORSDO>
F 8

$$$$
=
 OpenBabel11052422003D

 30 34  0  0  1  0  0  0  0  0999 V2000
  161.1080  207.1490  154.2390 C   0  0  0  0  0  0  0  0  0  0  0  0
  161.1980  210.6350  156.0710 C   0  0  0  0  0  2  0  0  0  0  0  0
  159.9930  211.2550  154.8710 S   0  0  2  0  0  0  0  0  0  0  0  0
  161.4050  207.6110  155.6350 C   0  0  1  0  0  3  0  0  0  0  0  0
  160.6570  205.9660  154.0210 N   0  0  0  0  0  2  0  0  0  0  0  0
  160.6150  209.5340  156.9540 C   0  0  0  0  0  2  0  0  0  0  0  0
  160.1700  208.3560  156.1110 C   0  0  2  0  0  3  0  0  0  0  0  0
  161.2080  208.1650  153.1290 C   0  0  2  0  0  3  0  0  0  0  0  0
  160.5220  210.5600  153.2770 C   0  0  1  0  0  3  0  0  0  0  0  0
  160.3520  212.7310  154.7750 O   0  0  0  0  0  0  0  0  0  0  0  0
  160.5190  207.0200  156.7230 C   0  0  0  0  0  2  0  0  0  0  0  0
  160.0270  209.1310  153.1430 C   0  0  0  0  0  2  0  0  0  0  0  0
  161.4830  207.5650  151.7700 C   0  0  0  0  0  0  0  0  0  0  0  0
  162.4340  207.9840  151.1290 O   0  0  0  0  0  0  0  0  0  0  0  0
  160.5720  206.5310  151.1450 C   0  0  2  0  0  3  0  0  0  0  0  0
  161.3550  205.3130  150.6840 C   0  0  2  0  0  3  0  0  0  0  0  0
  160.7910  206.2600  149.6470 C   0  0  2  0  0  3  0  0  0  0  0  0
  161.3210  202.8880  151.1440 C   0  0  0  0  0  2  0  0  0  0  0  0
  160.8840  203.0960  149.7100 C   0  0  0  0  0  2  0  0  0  0  0  0
  160.4700  204.0870  150.7790 C   0  0  0  0  0  3  0  0  0  0  0  0
  161.9420  207.0320  148.9960 C   0  0  0  0  0  2  0  0  0  0  0  0
  162.8350  205.4310  147.2690 C   0  0  0  0  0  1  0  0  0  0  0  0
  160.7420  206.7040  146.8050 C   0  0  0  0  0  1  0  0  0  0  0  0
  162.0880  206.7300  147.5060 C   0  0  0  0  0  3  0  0  0  0  0  0
  159.9490  211.3690  152.1260 C   0  0  0  0  0  2  0  0  0  0  0  0
  158.5340  211.6250  152.3530 N   0  0  0  0  0  2  0  0  0  0  0  0
  158.2740  213.0240  152.0420 C   0  0  0  0  0  0  0  0  0  0  0  0
  157.3700  213.7210  152.8450 O   0  0  0  0  0  1  0  0  0  0  0  0
  159.3720  213.8100  151.3690 C   0  0  0  0  0  2  0  0  0  0  0  0
  158.1630  213.3210  150.5700 C   0  0  0  0  0  2  0  0  0  0  0  0
  1  4  1  0  0  0  0
  2  6  1  0  0  0  0
  3 10  2  6  0  0  0
  3  2  1  0  0  0  0
  4  7  1  0  0  0  0
  4 11  1  1  0  0  0
  5  1  2  0  0  0  0
  7 11  1  1  0  0  0
  7  6  1  0  0  0  0
  8 13  1  6  0  0  0
  8 12  1  0  0  0  0
  8  1  1  0  0  0  0
  9 25  1  6  0  0  0
  9  3  1  0  0  0  0
 12  9  1  0  0  0  0
 14 13  2  0  0  0  0
 15 13  1  1  0  0  0
 16 20  1  6  0  0  0
 16 15  1  0  0  0  0
 17 21  1  1  0  0  0
 17 16  1  0  0  0  0
 17 15  1  0  0  0  0
 19 20  1  0  0  0  0
 19 18  1  0  0  0  0
 20 18  1  0  0  0  0
 22 24  1  0  0  0  0
 23 24  1  0  0  0  0
 24 21  1  0  0  0  0
 25 26  1  0  0  0  0
 27 26  1  0  0  0  0
 27 28  1  0  0  0  0
 29 27  1  0  0  0  0
 30 29  1  0  0  0  0
 30 27  1  0  0  0  0
M  END
>  <MODEL>
5

>  <REMARK>
 VINA RESULT:      -5.5      2.886      6.956
  Name = 
  8 active torsions:
  status: ('A' for Active; 'I' for Inactive)
    1  A    between atoms: C_1  and  C_4
    2  A    between atoms: C_1  and  C_22
    3  A    between atoms: N_7  and  C_10
    4  A    between atoms: N_7  and  C_25
    5  A    between atoms: C_8  and  C_30
    6  A    between atoms: C_9  and  C_12
    7  A    between atoms: C_9  and  C_21
    8  A    between atoms: C_23  and  C_25
                            x       y       z     vdW  Elec       q    Type
                         _______ _______ _______ _____ _____    ______ ____

>  <TORSDO>
F 8

$$$$
=
 OpenBabel11052422003D

 30 34  0  0  1  0  0  0  0  0999 V2000
  161.9310  211.4050  148.7340 C   0  0  0  0  0  0  0  0  0  0  0  0
  158.3700  213.0840  148.6100 C   0  0  0  0  0  2  0  0  0  0  0  0
  158.6560  213.7270  150.2770 S   0  0  2  0  0  0  0  0  0  0  0  0
  161.0290  211.9100  147.6470 C   0  0  1  0  0  3  0  0  0  0  0  0
  163.2050  211.3760  148.5700 N   0  0  0  0  0  2  0  0  0  0  0  0
  159.3300  213.6910  147.5880 C   0  0  0  0  0  2  0  0  0  0  0  0
  160.7660  213.3740  147.9550 C   0  0  2  0  0  3  0  0  0  0  0  0
  161.3060  211.0840  150.0690 C   0  0  2  0  0  3  0  0  0  0  0  0
  159.4700  212.3680  151.1680 C   0  0  1  0  0  3  0  0  0  0  0  0
  157.2500  213.7680  150.8600 O   0  0  0  0  0  0  0  0  0  0  0  0
  161.6170  213.0020  146.7630 C   0  0  0  0  0  2  0  0  0  0  0  0
  160.9530  212.3490  150.8440 C   0  0  0  0  0  2  0  0  0  0  0  0
  162.0810  210.0730  150.8810 C   0  0  0  0  0  0  0  0  0  0  0  0
  162.4950  210.4030  151.9810 O   0  0  0  0  0  0  0  0  0  0  0  0
  162.4340  208.7030  150.3430 C   0  0  2  0  0  3  0  0  0  0  0  0
  161.2060  207.9900  149.8000 C   0  0  2  0  0  3  0  0  0  0  0  0
  161.8250  207.5080  151.0940 C   0  0  2  0  0  3  0  0  0  0  0  0
  160.3970  206.3660  148.1280 C   0  0  0  0  0  2  0  0  0  0  0  0
  161.3320  205.6380  149.0690 C   0  0  0  0  0  2  0  0  0  0  0  0
  161.6230  207.0710  148.6710 C   0  0  0  0  0  3  0  0  0  0  0  0
  160.8930  207.8620  152.2570 C   0  0  0  0  0  2  0  0  0  0  0  0
  161.5810  205.5200  152.8750 C   0  0  0  0  0  1  0  0  0  0  0  0
  161.2090  207.2090  154.6700 C   0  0  0  0  0  1  0  0  0  0  0  0
  160.7850  206.7420  153.2900 C   0  0  0  0  0  3  0  0  0  0  0  0
  159.3160  212.5450  152.6680 C   0  0  0  0  0  2  0  0  0  0  0  0
  158.5750  211.4240  153.2290 N   0  0  0  0  0  2  0  0  0  0  0  0
  159.0860  211.1710  154.5690 C   0  0  0  0  0  0  0  0  0  0  0  0
  158.1950  210.7020  155.5360 O   0  0  0  0  0  1  0  0  0  0  0  0
  160.5400  210.7960  154.7080 C   0  0  0  0  0  2  0  0  0  0  0  0
  160.0630  212.2040  155.0650 C   0  0  0  0  0  2  0  0  0  0  0  0
  1  8  1  0  0  0  0
  2  3  1  0  0  0  0
  3 10  2  1  0  0  0
  3  9  1  0  0  0  0
  4 11  1  6  0  0  0
  4  7  1  0  0  0  0
  4  1  1  0  0  0  0
  5  1  2  0  0  0  0
  6  7  1  0  0  0  0
  6  2  1  0  0  0  0
  7 11  1  6  0  0  0
  8 12  1  0  0  0  0
  8 13  1  1  0  0  0
  9 25  1  1  0  0  0
 12  9  1  0  0  0  0
 13 14  2  0  0  0  0
 15 13  1  1  0  0  0
 15 17  1  0  0  0  0
 16 20  1  6  0  0  0
 16 15  1  0  0  0  0
 16 17  1  0  0  0  0
 17 21  1  1  0  0  0
 18 20  1  0  0  0  0
 18 19  1  0  0  0  0
 20 19  1  0  0  0  0
 21 24  1  0  0  0  0
 22 24  1  0  0  0  0
 24 23  1  0  0  0  0
 25 26  1  0  0  0  0
 26 27  1  0  0  0  0
 27 29  1  0  0  0  0
 27 30  1  0  0  0  0
 27 28  1  0  0  0  0
 29 30  1  0  0  0  0
M  END
>  <MODEL>
6

>  <REMARK>
 VINA RESULT:      -5.5      2.680      6.828
  Name = 
  8 active torsions:
  status: ('A' for Active; 'I' for Inactive)
    1  A    between atoms: C_1  and  C_4
    2  A    between atoms: C_1  and  C_22
    3  A    between atoms: N_7  and  C_10
    4  A    between atoms: N_7  and  C_25
    5  A    between atoms: C_8  and  C_30
    6  A    between atoms: C_9  and  C_12
    7  A    between atoms: C_9  and  C_21
    8  A    between atoms: C_23  and  C_25
                            x       y       z     vdW  Elec       q    Type
                         _______ _______ _______ _____ _____    ______ ____

>  <TORSDO>
F 8

$$$$
=
 OpenBabel11052422003D

 30 34  0  0  1  0  0  0  0  0999 V2000
  161.3830  205.8710  151.1950 C   0  0  0  0  0  0  0  0  0  0  0  0
  160.0860  202.5900  149.4440 C   0  0  0  0  0  2  0  0  0  0  0  0
  161.4590  202.7170  148.2720 S   0  0  2  0  0  0  0  0  0  0  0  0
  160.5950  204.6720  151.6310 C   0  0  1  0  0  3  0  0  0  0  0  0
  162.0930  206.5320  152.0370 N   0  0  0  0  0  2  0  0  0  0  0  0
  160.5700  202.3300  150.8690 C   0  0  0  0  0  2  0  0  0  0  0  0
  161.4640  203.4600  151.3410 C   0  0  2  0  0  3  0  0  0  0  0  0
  161.4350  206.1760  149.7190 C   0  0  2  0  0  3  0  0  0  0  0  0
  161.5790  204.4890  147.8850 C   0  0  1  0  0  3  0  0  0  0  0  0
  160.8740  202.0970  147.0110 O   0  0  0  0  0  0  0  0  0  0  0  0
  161.2040  203.8670  152.7720 C   0  0  0  0  0  2  0  0  0  0  0  0
  162.3510  205.2080  148.9770 C   0  0  0  0  0  2  0  0  0  0  0  0
  161.7040  207.6280  149.4010 C   0  0  0  0  0  0  0  0  0  0  0  0
  161.5060  208.0220  148.2620 O   0  0  0  0  0  0  0  0  0  0  0  0
  162.2890  208.5830  150.4180 C   0  0  2  0  0  3  0  0  0  0  0  0
  161.2420  209.5600  150.9250 C   0  0  2  0  0  3  0  0  0  0  0  0
  162.3320  210.0630  150.0050 C   0  0  2  0  0  3  0  0  0  0  0  0
  160.4580  209.4700  153.2640 C   0  0  0  0  0  2  0  0  0  0  0  0
  160.5270  210.9240  152.8520 C   0  0  0  0  0  2  0  0  0  0  0  0
  161.5710  209.9460  152.3520 C   0  0  0  0  0  3  0  0  0  0  0  0
  161.7230  210.3860  148.6370 C   0  0  0  0  0  2  0  0  0  0  0  0
  163.1540  212.3760  148.0570 C   0  0  0  0  0  1  0  0  0  0  0  0
  160.8370  212.2170  147.1500 C   0  0  0  0  0  1  0  0  0  0  0  0
  161.7450  211.8800  148.3190 C   0  0  0  0  0  3  0  0  0  0  0  0
  162.3110  204.7010  146.5710 C   0  0  0  0  0  2  0  0  0  0  0  0
  161.9070  205.9650  145.9740 N   0  0  0  0  0  2  0  0  0  0  0  0
  160.8370  205.6930  145.0230 C   0  0  0  0  0  0  0  0  0  0  0  0
  159.5730  206.2250  145.2820 O   0  0  0  0  0  1  0  0  0  0  0  0
  161.2210  205.4550  143.5830 C   0  0  0  0  0  2  0  0  0  0  0  0
  160.8280  204.2860  144.4870 C   0  0  0  0  0  2  0  0  0  0  0  0
  1  4  1  0  0  0  0
  1  5  2  0  0  0  0
  2  6  1  0  0  0  0
  3 10  2  6  0  0  0
  3  2  1  0  0  0  0
  4 11  1  1  0  0  0
  7  6  1  1  0  0  0
  7  4  1  0  0  0  0
  7 11  1  0  0  0  0
  8 13  1  1  0  0  0
  8  1  1  0  0  0  0
  9 25  1  6  0  0  0
  9  3  1  0  0  0  0
  9 12  1  0  0  0  0
 12  8  1  0  0  0  0
 14 13  2  0  0  0  0
 15 13  1  6  0  0  0
 15 16  1  0  0  0  0
 16 20  1  1  0  0  0
 17 21  1  6  0  0  0
 17 15  1  0  0  0  0
 17 16  1  0  0  0  0
 19 18  1  0  0  0  0
 20 19  1  0  0  0  0
 20 18  1  0  0  0  0
 22 24  1  0  0  0  0
 23 24  1  0  0  0  0
 24 21  1  0  0  0  0
 26 25  1  0  0  0  0
 27 28  1  0  0  0  0
 27 26  1  0  0  0  0
 29 30  1  0  0  0  0
 29 27  1  0  0  0  0
 30 27  1  0  0  0  0
M  END
>  <MODEL>
7

>  <REMARK>
 VINA RESULT:      -5.1      2.555      5.304
  Name = 
  8 active torsions:
  status: ('A' for Active; 'I' for Inactive)
    1  A    between atoms: C_1  and  C_4
    2  A    between atoms: C_1  and  C_22
    3  A    between atoms: N_7  and  C_10
    4  A    between atoms: N_7  and  C_25
    5  A    between atoms: C_8  and  C_30
    6  A    between atoms: C_9  and  C_12
    7  A    between atoms: C_9  and  C_21
    8  A    between atoms: C_23  and  C_25
                            x       y       z     vdW  Elec       q    Type
                         _______ _______ _______ _____ _____    ______ ____

>  <TORSDO>
F 8

$$$$
=
 OpenBabel11052422003D

 30 34  0  0  1  0  0  0  0  0999 V2000
  161.0270  208.7580  153.1560 C   0  0  0  0  0  0  0  0  0  0  0  0
  160.9940  206.3260  150.0580 C   0  0  0  0  0  2  0  0  0  0  0  0
  162.2400  207.3750  149.2690 S   0  0  2  0  0  0  0  0  0  0  0  0
  160.7140  207.3070  152.9460 C   0  0  1  0  0  3  0  0  0  0  0  0
  161.4500  209.1810  154.2940 N   0  0  0  0  0  2  0  0  0  0  0  0
  161.5290  205.6480  151.3180 C   0  0  0  0  0  2  0  0  0  0  0  0
  161.9590  206.6850  152.3380 C   0  0  2  0  0  3  0  0  0  0  0  0
  160.9770  209.6670  151.9530 C   0  0  2  0  0  3  0  0  0  0  0  0
  161.7240  209.0770  149.6470 C   0  0  1  0  0  3  0  0  0  0  0  0
  161.9220  207.2070  147.7900 O   0  0  0  0  0  0  0  0  0  0  0  0
  161.5620  206.3310  153.7510 C   0  0  0  0  0  2  0  0  0  0  0  0
  162.1830  209.4600  151.0420 C   0  0  0  0  0  2  0  0  0  0  0  0
  160.7140  211.1160  152.2890 C   0  0  0  0  0  0  0  0  0  0  0  0
  161.1560  211.9770  151.5450 O   0  0  0  0  0  0  0  0  0  0  0  0
  160.0010  211.5350  153.5570 C   0  0  2  0  0  3  0  0  0  0  0  0
  158.5530  211.0750  153.5540 C   0  0  2  0  0  3  0  0  0  0  0  0
  158.8570  212.5480  153.3820 C   0  0  2  0  0  3  0  0  0  0  0  0
  156.6170  211.0550  155.0840 C   0  0  0  0  0  2  0  0  0  0  0  0
  157.5860  212.1080  155.5740 C   0  0  0  0  0  2  0  0  0  0  0  0
  158.1100  210.8170  154.9780 C   0  0  0  0  0  3  0  0  0  0  0  0
  158.5500  212.9570  151.9370 C   0  0  0  0  0  2  0  0  0  0  0  0
  157.1600  214.4390  150.4500 C   0  0  0  0  0  1  0  0  0  0  0  0
  156.5740  214.2160  152.8630 C   0  0  0  0  0  1  0  0  0  0  0  0
  157.7040  214.2250  151.8500 C   0  0  0  0  0  3  0  0  0  0  0  0
  162.3420  210.0530  148.6610 C   0  0  0  0  0  2  0  0  0  0  0  0
  161.4190  211.1490  148.4010 N   0  0  0  0  0  2  0  0  0  0  0  0
  162.1830  212.2580  147.8470 C   0  0  0  0  0  0  0  0  0  0  0  0
  163.5740  212.2170  147.9470 O   0  0  0  0  0  1  0  0  0  0  0  0
  161.5810  213.0170  146.6890 C   0  0  0  0  0  2  0  0  0  0  0  0
  161.5760  213.6140  148.0970 C   0  0  0  0  0  2  0  0  0  0  0  0
  1  5  2  0  0  0  0
  2  6  1  0  0  0  0
  3 10  2  6  0  0  0
  3  9  1  0  0  0  0
  3  2  1  0  0  0  0
  4  1  1  0  0  0  0
  4 11  1  1  0  0  0
  7  6  1  6  0  0  0
  7  4  1  0  0  0  0
  7 11  1  0  0  0  0
  8 13  1  1  0  0  0
  8  1  1  0  0  0  0
  9 25  1  6  0  0  0
  9 12  1  0  0  0  0
 12  8  1  0  0  0  0
 14 13  2  0  0  0  0
 15 13  1  6  0  0  0
 16 15  1  0  0  0  0
 16 20  1  1  0  0  0
 17 21  1  6  0  0  0
 17 16  1  0  0  0  0
 17 15  1  0  0  0  0
 18 19  1  0  0  0  0
 20 18  1  0  0  0  0
 20 19  1  0  0  0  0
 22 24  1  0  0  0  0
 24 21  1  0  0  0  0
 24 23  1  0  0  0  0
 26 25  1  0  0  0  0
 27 28  1  0  0  0  0
 27 30  1  0  0  0  0
 27 26  1  0  0  0  0
 29 27  1  0  0  0  0
 29 30  1  0  0  0  0
M  END
>  <MODEL>
8

>  <REMARK>
 VINA RESULT:      -5.1      1.731      3.105
  Name = 
  8 active torsions:
  status: ('A' for Active; 'I' for Inactive)
    1  A    between atoms: C_1  and  C_4
    2  A    between atoms: C_1  and  C_22
    3  A    between atoms: N_7  and  C_10
    4  A    between atoms: N_7  and  C_25
    5  A    between atoms: C_8  and  C_30
    6  A    between atoms: C_9  and  C_12
    7  A    between atoms: C_9  and  C_21
    8  A    between atoms: C_23  and  C_25
                            x       y       z     vdW  Elec       q    Type
                         _______ _______ _______ _____ _____    ______ ____

>  <TORSDO>
F 8

$$$$
=
 OpenBabel11052422003D

 30 34  0  0  1  0  0  0  0  0999 V2000
  161.9510  210.8690  149.0600 C   0  0  0  0  0  0  0  0  0  0  0  0
  158.8560  213.0250  150.1950 C   0  0  0  0  0  2  0  0  0  0  0  0
  159.4580  212.9250  151.8990 S   0  0  2  0  0  0  0  0  0  0  0  0
  161.0680  211.8910  148.4070 C   0  0  1  0  0  3  0  0  0  0  0  0
  163.1610  210.6970  148.6650 N   0  0  0  0  0  2  0  0  0  0  0  0
  159.8070  213.8110  149.2950 C   0  0  0  0  0  2  0  0  0  0  0  0
  161.1700  213.1480  149.2550 C   0  0  2  0  0  3  0  0  0  0  0  0
  161.4220  210.1680  150.2870 C   0  0  2  0  0  3  0  0  0  0  0  0
  160.0460  211.2160  152.0860 C   0  0  1  0  0  3  0  0  0  0  0  0
  158.1690  212.9700  152.7070 O   0  0  0  0  0  0  0  0  0  0  0  0
  161.7810  213.1260  147.8740 C   0  0  0  0  0  2  0  0  0  0  0  0
  161.4440  211.0800  151.5090 C   0  0  0  0  0  2  0  0  0  0  0  0
  162.0390  208.8120  150.5330 C   0  0  0  0  0  0  0  0  0  0  0  0
  162.3300  208.5020  151.6770 O   0  0  0  0  0  0  0  0  0  0  0  0
  162.3870  207.8660  149.4040 C   0  0  2  0  0  3  0  0  0  0  0  0
  161.1600  207.5120  148.5820 C   0  0  2  0  0  3  0  0  0  0  0  0
  161.7660  206.4620  149.4870 C   0  0  2  0  0  3  0  0  0  0  0  0
  160.6530  206.2070  146.5490 C   0  0  0  0  0  2  0  0  0  0  0  0
  162.0290  205.8020  147.0310 C   0  0  0  0  0  2  0  0  0  0  0  0
  161.5790  207.2440  147.1510 C   0  0  0  0  0  3  0  0  0  0  0  0
  160.8280  206.2220  150.6740 C   0  0  0  0  0  2  0  0  0  0  0  0
  160.8340  203.9010  149.6970 C   0  0  0  0  0  1  0  0  0  0  0  0
  161.3860  204.2260  152.1070 C   0  0  0  0  0  1  0  0  0  0  0  0
  160.5710  204.7390  150.9340 C   0  0  0  0  0  3  0  0  0  0  0  0
  160.1020  210.8280  153.5540 C   0  0  0  0  0  2  0  0  0  0  0  0
  161.4860  210.6620  153.9730 N   0  0  0  0  0  2  0  0  0  0  0  0
  161.4930  209.8790  155.2020 C   0  0  0  0  0  0  0  0  0  0  0  0
  162.4770  210.1540  156.1530 O   0  0  0  0  0  1  0  0  0  0  0  0
  160.1790  209.3210  155.6880 C   0  0  0  0  0  2  0  0  0  0  0  0
  161.2040  208.4140  155.0060 C   0  0  0  0  0  2  0  0  0  0  0  0
  1  8  1  0  0  0  0
  2  3  1  0  0  0  0
  3  9  1  0  0  0  0
  3 10  2  1  0  0  0
  4 11  1  6  0  0  0
  4  1  1  0  0  0  0
  4  7  1  0  0  0  0
  5  1  2  0  0  0  0
  6  2  1  0  0  0  0
  7 11  1  6  0  0  0
  7  6  1  0  0  0  0
  8 13  1  1  0  0  0
  8 12  1  0  0  0  0
  9 25  1  1  0  0  0
 12  9  1  0  0  0  0
 13 14  2  0  0  0  0
 15 17  1  0  0  0  0
 15 13  1  1  0  0  0
 16 20  1  6  0  0  0
 16 15  1  0  0  0  0
 16 17  1  0  0  0  0
 17 21  1  1  0  0  0
 18 19  1  0  0  0  0
 18 20  1  0  0  0  0
 19 20  1  0  0  0  0
 21 24  1  0  0  0  0
 22 24  1  0  0  0  0
 24 23  1  0  0  0  0
 25 26  1  0  0  0  0
 26 27  1  0  0  0  0
 27 29  1  0  0  0  0
 27 28  1  0  0  0  0
 30 27  1  0  0  0  0
 30 29  1  0  0  0  0
M  END
>  <MODEL>
9

>  <REMARK>
 VINA RESULT:      -5.1      2.529      7.370
  Name = 
  8 active torsions:
  status: ('A' for Active; 'I' for Inactive)
    1  A    between atoms: C_1  and  C_4
    2  A    between atoms: C_1  and  C_22
    3  A    between atoms: N_7  and  C_10
    4  A    between atoms: N_7  and  C_25
    5  A    between atoms: C_8  and  C_30
    6  A    between atoms: C_9  and  C_12
    7  A    between atoms: C_9  and  C_21
    8  A    between atoms: C_23  and  C_25
                            x       y       z     vdW  Elec       q    Type
                         _______ _______ _______ _____ _____    ______ ____

>  <TORSDO>
F 8

$$$$
