=
 OpenBabel11052422153D

 25 28  0  0  1  0  0  0  0  0999 V2000
  161.1970  207.7020  150.9490 C   0  0  0  0  0  0  0  0  0  0  0  0
  161.2390  206.6250  150.0440 C   0  0  0  0  0  0  0  0  0  0  0  0
  162.2040  209.1380  149.2950 C   0  0  0  0  0  3  0  0  0  0  0  0
  160.6460  207.6650  152.3400 C   0  0  2  0  0  3  0  0  0  0  0  0
  161.3490  208.0650  155.1540 C   0  0  0  0  0  2  0  0  0  0  0  0
  162.2790  208.0830  148.4390 N   0  0  0  0  0  0  0  0  0  0  0  0
  161.0540  208.9910  152.9240 C   0  0  0  0  0  0  0  0  0  0  0  0
  161.3680  209.1380  154.1690 N   0  0  0  0  0  0  0  0  0  0  0  0
  161.8840  205.7350  147.8270 C   0  0  0  0  0  0  0  0  0  0  0  0
  162.3950  205.9010  146.6880 O   0  0  0  0  0  0  0  0  0  0  0  0
  160.6760  205.2740  150.4150 C   0  0  0  0  0  2  0  0  0  0  0  0
  160.7830  206.7480  154.6120 C   0  0  0  0  0  2  0  0  0  0  0  0
  161.6500  208.9550  150.5580 C   0  0  0  0  0  0  0  0  0  0  0  0
  161.4130  210.2790  151.7330 S   0  0  0  0  0  0  0  0  0  0  0  0
  161.3750  204.4530  148.1960 N   0  0  0  0  0  0  0  0  0  0  0  0
  161.2360  206.5380  153.1780 C   0  0  0  0  0  2  0  0  0  0  0  0
  160.8210  204.2150  149.3500 C   0  0  0  0  0  0  0  0  0  0  0  0
  161.8080  206.8480  148.7770 C   0  0  0  0  0  0  0  0  0  0  0  0
  160.3330  202.8420  149.6570 C   0  0  0  0  0  2  0  0  0  0  0  0
  161.4420  201.8280  149.4400 C   0  0  0  0  0  2  0  0  0  0  0  0
  161.0660  200.9140  148.3310 C   0  0  0  0  0  3  0  0  0  0  0  0
  161.1820  201.3160  147.0720 C   0  0  0  0  0  3  0  0  0  0  0  0
  160.8230  200.4480  145.9460 C   0  0  0  0  0  0  0  0  0  0  0  0
  160.0030  200.9600  144.9020 N   0  0  0  0  0  1  0  0  0  0  0  0
  161.2320  199.2570  145.8910 O   0  0  0  0  0  0  0  0  0  0  0  0
  1  4  1  0  0  0  0
  2 11  1  0  0  0  0
  2  1  2  0  0  0  0
  3 13  2  0  0  0  0
  4  7  1  0  0  0  0
  4 16  1  1  0  0  0
  6 18  2  0  0  0  0
  6  3  1  0  0  0  0
  7  8  2  0  0  0  0
  8  5  1  0  0  0  0
  9 15  1  0  0  0  0
  9 18  1  0  0  0  0
 10  9  2  0  0  0  0
 12  5  1  0  0  0  0
 13  1  1  0  0  0  0
 13 14  1  0  0  0  0
 14  7  1  0  0  0  0
 15 17  2  0  0  0  0
 16 12  1  0  0  0  0
 17 19  1  0  0  0  0
 17 11  1  0  0  0  0
 18  2  1  0  0  0  0
 20 19  1  0  0  0  0
 21 20  1  0  0  0  0
 22 21  2  0  0  0  0
 23 22  1  0  0  0  0
 24 23  1  0  0  0  0
 25 23  2  0  0  0  0
M  END
>  <MODEL>
1

>  <REMARK>
 VINA RESULT:      -8.8      0.000      0.000
  Name = 
  4 active torsions:
  status: ('A' for Active; 'I' for Inactive)
    1  A    between atoms: C_2  and  C_25
    2  A    between atoms: C_6  and  C_15
    3  A    between atoms: C_6  and  C_23
    4  A    between atoms: C_15  and  C_21
                            x       y       z     vdW  Elec       q    Type
                         _______ _______ _______ _____ _____    ______ ____

>  <TORSDO>
F 4

$$$$
=
 OpenBabel11052422153D

 25 28  0  0  1  0  0  0  0  0999 V2000
  161.1410  205.0620  149.5660 C   0  0  0  0  0  0  0  0  0  0  0  0
  161.2880  206.1230  150.4780 C   0  0  0  0  0  0  0  0  0  0  0  0
  161.0040  203.5000  151.3970 C   0  0  0  0  0  3  0  0  0  0  0  0
  161.0970  205.1810  148.0750 C   0  0  2  0  0  3  0  0  0  0  0  0
  162.4370  204.3340  145.6130 C   0  0  0  0  0  2  0  0  0  0  0  0
  161.1850  204.5260  152.2720 N   0  0  0  0  0  0  0  0  0  0  0  0
  161.1590  203.7530  147.5990 C   0  0  0  0  0  0  0  0  0  0  0  0
  161.7650  203.4060  146.5120 N   0  0  0  0  0  0  0  0  0  0  0  0
  161.4940  206.9030  152.8180 C   0  0  0  0  0  0  0  0  0  0  0  0
  161.5350  206.6590  154.0530 O   0  0  0  0  0  0  0  0  0  0  0  0
  161.3930  207.5520  150.0010 C   0  0  0  0  0  2  0  0  0  0  0  0
  162.2470  205.8050  145.9990 C   0  0  0  0  0  2  0  0  0  0  0  0
  160.9700  203.7650  150.0320 C   0  0  0  0  0  0  0  0  0  0  0  0
  160.6450  202.5220  148.7930 S   0  0  0  0  0  0  0  0  0  0  0  0
  161.6220  208.2490  152.3560 N   0  0  0  0  0  0  0  0  0  0  0  0
  162.2800  205.9550  147.5100 C   0  0  0  0  0  2  0  0  0  0  0  0
  161.5740  208.5730  151.0960 C   0  0  0  0  0  0  0  0  0  0  0  0
  161.3190  205.8160  151.8500 C   0  0  0  0  0  0  0  0  0  0  0  0
  161.7330  210.0010  150.7040 C   0  0  0  0  0  2  0  0  0  0  0  0
  162.2090  210.1030  149.2670 C   0  0  0  0  0  2  0  0  0  0  0  0
  161.9200  211.4640  148.7450 C   0  0  0  0  0  3  0  0  0  0  0  0
  162.8280  212.1040  148.0200 C   0  0  0  0  0  3  0  0  0  0  0  0
  162.5860  213.4470  147.4850 C   0  0  0  0  0  0  0  0  0  0  0  0
  162.4210  213.6220  146.0830 N   0  0  0  0  0  1  0  0  0  0  0  0
  162.5240  214.4460  148.2500 O   0  0  0  0  0  0  0  0  0  0  0  0
  1 13  2  0  0  0  0
  1  2  1  0  0  0  0
  2 18  2  0  0  0  0
  3  6  2  0  0  0  0
  4 16  1  6  0  0  0
  4  1  1  0  0  0  0
  5 12  1  0  0  0  0
  5  8  1  0  0  0  0
  7  4  1  0  0  0  0
  7 14  1  0  0  0  0
  8  7  2  0  0  0  0
  9 10  2  0  0  0  0
 11  2  1  0  0  0  0
 11 17  1  0  0  0  0
 12 16  1  0  0  0  0
 13  3  1  0  0  0  0
 14 13  1  0  0  0  0
 15  9  1  0  0  0  0
 17 15  2  0  0  0  0
 18  6  1  0  0  0  0
 18  9  1  0  0  0  0
 19 17  1  0  0  0  0
 20 19  1  0  0  0  0
 21 20  1  0  0  0  0
 22 21  2  0  0  0  0
 23 22  1  0  0  0  0
 23 25  2  0  0  0  0
 24 23  1  0  0  0  0
M  END
>  <MODEL>
2

>  <REMARK>
 VINA RESULT:      -8.7      3.685      8.124
  Name = 
  4 active torsions:
  status: ('A' for Active; 'I' for Inactive)
    1  A    between atoms: C_2  and  C_25
    2  A    between atoms: C_6  and  C_15
    3  A    between atoms: C_6  and  C_23
    4  A    between atoms: C_15  and  C_21
                            x       y       z     vdW  Elec       q    Type
                         _______ _______ _______ _____ _____    ______ ____

>  <TORSDO>
F 4

$$$$
=
 OpenBabel11052422153D

 25 28  0  0  1  0  0  0  0  0999 V2000
  161.1100  204.5460  149.2740 C   0  0  0  0  0  0  0  0  0  0  0  0
  161.2090  205.4820  150.3190 C   0  0  0  0  0  0  0  0  0  0  0  0
  161.0000  202.7540  150.8830 C   0  0  0  0  0  3  0  0  0  0  0  0
  161.0820  204.8560  147.8100 C   0  0  2  0  0  3  0  0  0  0  0  0
  162.4840  204.3810  145.2830 C   0  0  0  0  0  2  0  0  0  0  0  0
  161.1350  203.6610  151.8880 N   0  0  0  0  0  0  0  0  0  0  0  0
  161.1990  203.5060  147.1540 C   0  0  0  0  0  0  0  0  0  0  0  0
  161.8320  203.3230  146.0420 N   0  0  0  0  0  0  0  0  0  0  0  0
  161.3570  205.9550  152.7440 C   0  0  0  0  0  0  0  0  0  0  0  0
  161.3890  205.5540  153.9360 O   0  0  0  0  0  0  0  0  0  0  0  0
  161.2720  206.9630  150.0330 C   0  0  0  0  0  2  0  0  0  0  0  0
  162.2390  205.7830  145.8540 C   0  0  0  0  0  2  0  0  0  0  0  0
  160.9760  203.1940  149.5630 C   0  0  0  0  0  0  0  0  0  0  0  0
  160.7100  202.1130  148.1680 S   0  0  0  0  0  0  0  0  0  0  0  0
  161.4450  207.3530  152.4630 N   0  0  0  0  0  0  0  0  0  0  0  0
  162.2470  205.7350  147.3720 C   0  0  0  0  0  2  0  0  0  0  0  0
  161.4040  207.8380  151.2550 C   0  0  0  0  0  0  0  0  0  0  0  0
  161.2310  205.0000  151.6400 C   0  0  0  0  0  0  0  0  0  0  0  0
  161.5200  209.3100  151.0560 C   0  0  0  0  0  2  0  0  0  0  0  0
  161.8290  209.9970  152.3720 C   0  0  0  0  0  2  0  0  0  0  0  0
  160.8070  211.0440  152.6360 C   0  0  0  0  0  3  0  0  0  0  0  0
  159.5440  210.6980  152.8490 C   0  0  0  0  0  3  0  0  0  0  0  0
  158.5020  211.6960  153.1130 C   0  0  0  0  0  0  0  0  0  0  0  0
  158.4890  212.9070  152.3680 N   0  0  0  0  0  1  0  0  0  0  0  0
  157.6200  211.4930  153.9890 O   0  0  0  0  0  0  0  0  0  0  0  0
  1 13  2  0  0  0  0
  1  2  1  0  0  0  0
  2 18  2  0  0  0  0
  3  6  2  0  0  0  0
  4 16  1  6  0  0  0
  4  1  1  0  0  0  0
  5 12  1  0  0  0  0
  5  8  1  0  0  0  0
  7  4  1  0  0  0  0
  7 14  1  0  0  0  0
  8  7  2  0  0  0  0
  9 10  2  0  0  0  0
 11  2  1  0  0  0  0
 11 17  1  0  0  0  0
 12 16  1  0  0  0  0
 13  3  1  0  0  0  0
 14 13  1  0  0  0  0
 15  9  1  0  0  0  0
 17 15  2  0  0  0  0
 18  6  1  0  0  0  0
 18  9  1  0  0  0  0
 19 17  1  0  0  0  0
 19 20  1  0  0  0  0
 20 21  1  0  0  0  0
 21 22  2  0  0  0  0
 22 23  1  0  0  0  0
 23 25  2  0  0  0  0
 24 23  1  0  0  0  0
M  END
>  <MODEL>
3

>  <REMARK>
 VINA RESULT:      -8.6      3.709      8.345
  Name = 
  4 active torsions:
  status: ('A' for Active; 'I' for Inactive)
    1  A    between atoms: C_2  and  C_25
    2  A    between atoms: C_6  and  C_15
    3  A    between atoms: C_6  and  C_23
    4  A    between atoms: C_15  and  C_21
                            x       y       z     vdW  Elec       q    Type
                         _______ _______ _______ _____ _____    ______ ____

>  <TORSDO>
F 4

$$$$
=
 OpenBabel11052422153D

 25 28  0  0  1  0  0  0  0  0999 V2000
  161.0960  204.5410  149.4300 C   0  0  0  0  0  0  0  0  0  0  0  0
  161.1530  205.4380  150.5130 C   0  0  0  0  0  0  0  0  0  0  0  0
  160.9410  202.6900  150.9660 C   0  0  0  0  0  3  0  0  0  0  0  0
  161.1170  204.9070  147.9790 C   0  0  2  0  0  3  0  0  0  0  0  0
  162.6080  204.5340  145.4870 C   0  0  0  0  0  2  0  0  0  0  0  0
  161.0360  203.5590  152.0080 N   0  0  0  0  0  0  0  0  0  0  0  0
  161.2640  203.5830  147.2770 C   0  0  0  0  0  0  0  0  0  0  0  0
  161.9360  203.4450  146.1810 N   0  0  0  0  0  0  0  0  0  0  0  0
  161.2140  205.8190  152.9570 C   0  0  0  0  0  0  0  0  0  0  0  0
  161.2070  205.3730  154.1340 O   0  0  0  0  0  0  0  0  0  0  0  0
  161.2170  206.9290  150.2850 C   0  0  0  0  0  2  0  0  0  0  0  0
  162.3350  205.9120  146.1010 C   0  0  0  0  0  2  0  0  0  0  0  0
  160.9600  203.1790  149.6640 C   0  0  0  0  0  0  0  0  0  0  0  0
  160.7490  202.1510  148.2200 S   0  0  0  0  0  0  0  0  0  0  0  0
  161.3040  207.2280  152.7330 N   0  0  0  0  0  0  0  0  0  0  0  0
  162.2900  205.8070  147.6150 C   0  0  0  0  0  2  0  0  0  0  0  0
  161.3020  207.7570  151.5440 C   0  0  0  0  0  0  0  0  0  0  0  0
  161.1330  204.9060  151.8140 C   0  0  0  0  0  0  0  0  0  0  0  0
  161.4160  209.2360  151.4040 C   0  0  0  0  0  2  0  0  0  0  0  0
  160.4500  209.9310  152.3450 C   0  0  0  0  0  2  0  0  0  0  0  0
  161.2130  210.6080  153.4260 C   0  0  0  0  0  3  0  0  0  0  0  0
  161.2630  210.0730  154.6380 C   0  0  0  0  0  3  0  0  0  0  0  0
  162.0030  210.7050  155.7350 C   0  0  0  0  0  0  0  0  0  0  0  0
  161.2860  211.3250  156.7960 N   0  0  0  0  0  1  0  0  0  0  0  0
  163.2630  210.7070  155.7480 O   0  0  0  0  0  0  0  0  0  0  0  0
  1 13  2  0  0  0  0
  1  2  1  0  0  0  0
  2 18  2  0  0  0  0
  3  6  2  0  0  0  0
  4 16  1  1  0  0  0
  4  1  1  0  0  0  0
  5 12  1  0  0  0  0
  5  8  1  0  0  0  0
  7  4  1  0  0  0  0
  7 14  1  0  0  0  0
  8  7  2  0  0  0  0
  9 10  2  0  0  0  0
 11  2  1  0  0  0  0
 11 17  1  0  0  0  0
 12 16  1  0  0  0  0
 13  3  1  0  0  0  0
 14 13  1  0  0  0  0
 15  9  1  0  0  0  0
 17 15  2  0  0  0  0
 18  6  1  0  0  0  0
 18  9  1  0  0  0  0
 19 17  1  0  0  0  0
 19 20  1  0  0  0  0
 20 21  1  0  0  0  0
 21 22  2  0  0  0  0
 22 23  1  0  0  0  0
 23 25  2  0  0  0  0
 23 24  1  0  0  0  0
M  END
>  <MODEL>
4

>  <REMARK>
 VINA RESULT:      -8.4      3.642      8.518
  Name = 
  4 active torsions:
  status: ('A' for Active; 'I' for Inactive)
    1  A    between atoms: C_2  and  C_25
    2  A    between atoms: C_6  and  C_15
    3  A    between atoms: C_6  and  C_23
    4  A    between atoms: C_15  and  C_21
                            x       y       z     vdW  Elec       q    Type
                         _______ _______ _______ _____ _____    ______ ____

>  <TORSDO>
F 4

$$$$
=
 OpenBabel11052422153D

 25 28  0  0  1  0  0  0  0  0999 V2000
  161.5820  205.1150  148.9300 C   0  0  0  0  0  0  0  0  0  0  0  0
  161.5830  206.0190  150.0080 C   0  0  0  0  0  0  0  0  0  0  0  0
  161.6280  206.9580  147.3770 C   0  0  0  0  0  3  0  0  0  0  0  0
  161.5800  203.6210  149.0310 C   0  0  2  0  0  3  0  0  0  0  0  0
  160.0630  201.2230  148.3110 C   0  0  0  0  0  2  0  0  0  0  0  0
  161.5890  207.8270  148.4220 N   0  0  0  0  0  0  0  0  0  0  0  0
  161.3500  203.1650  147.6150 C   0  0  0  0  0  0  0  0  0  0  0  0
  160.6680  202.1070  147.3240 N   0  0  0  0  0  0  0  0  0  0  0  0
  161.5520  208.3560  150.8220 C   0  0  0  0  0  0  0  0  0  0  0  0
  161.5340  209.5940  150.5940 O   0  0  0  0  0  0  0  0  0  0  0  0
  161.6100  205.5290  151.4350 C   0  0  0  0  0  2  0  0  0  0  0  0
  160.4210  201.5840  149.7570 C   0  0  0  0  0  2  0  0  0  0  0  0
  161.6350  205.5890  147.6260 C   0  0  0  0  0  0  0  0  0  0  0  0
  161.7800  204.3530  146.3450 S   0  0  0  0  0  0  0  0  0  0  0  0
  161.5480  207.8830  152.1710 N   0  0  0  0  0  0  0  0  0  0  0  0
  160.4630  203.0930  149.9210 C   0  0  0  0  0  2  0  0  0  0  0  0
  161.5790  206.6180  152.4780 C   0  0  0  0  0  0  0  0  0  0  0  0
  161.5740  207.3950  149.7160 C   0  0  0  0  0  0  0  0  0  0  0  0
  161.5550  206.2160  153.9120 C   0  0  0  0  0  2  0  0  0  0  0  0
  160.4560  206.9580  154.6490 C   0  0  0  0  0  2  0  0  0  0  0  0
  161.0540  207.7770  155.7360 C   0  0  0  0  0  3  0  0  0  0  0  0
  161.1990  209.0860  155.5770 C   0  0  0  0  0  3  0  0  0  0  0  0
  161.7840  209.9330  156.6200 C   0  0  0  0  0  0  0  0  0  0  0  0
  161.1730  211.1790  156.9340 N   0  0  0  0  0  1  0  0  0  0  0  0
  162.8190  209.5730  157.2420 O   0  0  0  0  0  0  0  0  0  0  0  0
  1  4  1  0  0  0  0
  1  2  1  0  0  0  0
  2 11  1  0  0  0  0
  3 13  1  0  0  0  0
  3  6  2  0  0  0  0
  4 16  1  1  0  0  0
  5 12  1  0  0  0  0
  6 18  1  0  0  0  0
  7  4  1  0  0  0  0
  8  7  2  0  0  0  0
  8  5  1  0  0  0  0
  9 15  1  0  0  0  0
 10  9  2  0  0  0  0
 11 17  1  0  0  0  0
 12 16  1  0  0  0  0
 13  1  2  0  0  0  0
 14  7  1  0  0  0  0
 14 13  1  0  0  0  0
 15 17  2  0  0  0  0
 17 19  1  0  0  0  0
 18  2  2  0  0  0  0
 18  9  1  0  0  0  0
 19 20  1  0  0  0  0
 20 21  1  0  0  0  0
 22 21  2  0  0  0  0
 22 23  1  0  0  0  0
 23 24  1  0  0  0  0
 23 25  2  0  0  0  0
M  END
>  <MODEL>
5

>  <REMARK>
 VINA RESULT:      -8.3      3.302      7.916
  Name = 
  4 active torsions:
  status: ('A' for Active; 'I' for Inactive)
    1  A    between atoms: C_2  and  C_25
    2  A    between atoms: C_6  and  C_15
    3  A    between atoms: C_6  and  C_23
    4  A    between atoms: C_15  and  C_21
                            x       y       z     vdW  Elec       q    Type
                         _______ _______ _______ _____ _____    ______ ____

>  <TORSDO>
F 4

$$$$
=
 OpenBabel11052422153D

 25 28  0  0  1  0  0  0  0  0999 V2000
  160.9590  208.9400  153.0500 C   0  0  0  0  0  0  0  0  0  0  0  0
  161.3140  207.9340  152.1330 C   0  0  0  0  0  0  0  0  0  0  0  0
  161.4150  210.6240  151.3870 C   0  0  0  0  0  3  0  0  0  0  0  0
  160.4870  208.7270  154.4550 C   0  0  2  0  0  3  0  0  0  0  0  0
  161.1060  209.3230  157.2540 C   0  0  0  0  0  2  0  0  0  0  0  0
  161.7940  209.6490  150.5180 N   0  0  0  0  0  0  0  0  0  0  0  0
  160.4720  210.1130  155.0430 C   0  0  0  0  0  0  0  0  0  0  0  0
  160.7580  210.3490  156.2810 N   0  0  0  0  0  0  0  0  0  0  0  0
  162.1440  207.2980  149.8900 C   0  0  0  0  0  0  0  0  0  0  0  0
  162.5450  207.6190  148.7410 O   0  0  0  0  0  0  0  0  0  0  0  0
  161.2170  206.4730  152.5040 C   0  0  0  0  0  2  0  0  0  0  0  0
  160.9710  207.8950  156.7120 C   0  0  0  0  0  2  0  0  0  0  0  0
  160.9830  210.2730  152.6620 C   0  0  0  0  0  0  0  0  0  0  0  0
  160.3720  211.4510  153.8570 S   0  0  0  0  0  0  0  0  0  0  0  0
  162.0770  205.9190  150.2590 N   0  0  0  0  0  0  0  0  0  0  0  0
  161.4260  207.8430  155.2640 C   0  0  0  0  0  2  0  0  0  0  0  0
  161.6590  205.5170  151.4240 C   0  0  0  0  0  0  0  0  0  0  0  0
  161.7470  208.3270  150.8540 C   0  0  0  0  0  0  0  0  0  0  0  0
  161.6390  204.0580  151.7280 C   0  0  0  0  0  2  0  0  0  0  0  0
  160.3860  203.4190  151.1590 C   0  0  0  0  0  2  0  0  0  0  0  0
  160.7660  202.3950  150.1520 C   0  0  0  0  0  3  0  0  0  0  0  0
  160.5830  202.6350  148.8600 C   0  0  0  0  0  3  0  0  0  0  0  0
  160.9440  201.6540  147.8310 C   0  0  0  0  0  0  0  0  0  0  0  0
  160.9660  202.0500  146.4650 N   0  0  0  0  0  1  0  0  0  0  0  0
  161.2330  200.4680  148.1410 O   0  0  0  0  0  0  0  0  0  0  0  0
  1  4  1  0  0  0  0
  2 11  1  0  0  0  0
  2  1  2  0  0  0  0
  3 13  2  0  0  0  0
  4  7  1  0  0  0  0
  4 16  1  1  0  0  0
  6 18  2  0  0  0  0
  6  3  1  0  0  0  0
  7  8  2  0  0  0  0
  8  5  1  0  0  0  0
  9 15  1  0  0  0  0
  9 18  1  0  0  0  0
 10  9  2  0  0  0  0
 12  5  1  0  0  0  0
 13  1  1  0  0  0  0
 13 14  1  0  0  0  0
 14  7  1  0  0  0  0
 15 17  2  0  0  0  0
 16 12  1  0  0  0  0
 17 19  1  0  0  0  0
 17 11  1  0  0  0  0
 18  2  1  0  0  0  0
 20 19  1  0  0  0  0
 21 20  1  0  0  0  0
 22 21  2  0  0  0  0
 23 25  2  0  0  0  0
 23 22  1  0  0  0  0
 24 23  1  0  0  0  0
M  END
>  <MODEL>
6

>  <REMARK>
 VINA RESULT:      -8.1      1.786      2.506
  Name = 
  4 active torsions:
  status: ('A' for Active; 'I' for Inactive)
    1  A    between atoms: C_2  and  C_25
    2  A    between atoms: C_6  and  C_15
    3  A    between atoms: C_6  and  C_23
    4  A    between atoms: C_15  and  C_21
                            x       y       z     vdW  Elec       q    Type
                         _______ _______ _______ _____ _____    ______ ____

>  <TORSDO>
F 4

$$$$
=
 OpenBabel11052422153D

 25 28  0  0  1  0  0  0  0  0999 V2000
  161.5290  204.8690  148.1970 C   0  0  0  0  0  0  0  0  0  0  0  0
  161.5930  206.0830  148.9050 C   0  0  0  0  0  0  0  0  0  0  0  0
  161.4950  206.0790  146.1120 C   0  0  0  0  0  3  0  0  0  0  0  0
  161.5270  203.4970  148.7970 C   0  0  2  0  0  3  0  0  0  0  0  0
  159.9630  201.0300  149.0070 C   0  0  0  0  0  2  0  0  0  0  0  0
  161.5170  207.2500  146.8040 N   0  0  0  0  0  0  0  0  0  0  0  0
  161.2170  202.5960  147.6310 C   0  0  0  0  0  0  0  0  0  0  0  0
  160.5160  201.5160  147.7500 N   0  0  0  0  0  0  0  0  0  0  0  0
  161.6150  208.5580  148.8830 C   0  0  0  0  0  0  0  0  0  0  0  0
  161.5900  209.6460  148.2510 O   0  0  0  0  0  0  0  0  0  0  0  0
  161.6970  206.1020  150.4100 C   0  0  0  0  0  2  0  0  0  0  0  0
  160.4020  201.8490  150.2260 C   0  0  0  0  0  2  0  0  0  0  0  0
  161.5110  204.8740  146.8080 C   0  0  0  0  0  0  0  0  0  0  0  0
  161.5800  203.2760  146.0150 S   0  0  0  0  0  0  0  0  0  0  0  0
  161.6850  208.5670  150.3100 N   0  0  0  0  0  0  0  0  0  0  0  0
  160.4590  203.3240  149.8680 C   0  0  0  0  0  2  0  0  0  0  0  0
  161.7290  207.4800  151.0250 C   0  0  0  0  0  0  0  0  0  0  0  0
  161.5730  207.2800  148.1670 C   0  0  0  0  0  0  0  0  0  0  0  0
  161.7830  207.5840  152.5100 C   0  0  0  0  0  2  0  0  0  0  0  0
  161.3220  206.2870  153.1460 C   0  0  0  0  0  2  0  0  0  0  0  0
  160.8660  206.5520  154.5360 C   0  0  0  0  0  3  0  0  0  0  0  0
  161.0640  207.7440  155.0830 C   0  0  0  0  0  3  0  0  0  0  0  0
  160.6320  208.0500  156.4500 C   0  0  0  0  0  0  0  0  0  0  0  0
  160.0810  207.0170  157.2570 N   0  0  0  0  0  1  0  0  0  0  0  0
  160.7420  209.2150  156.9170 O   0  0  0  0  0  0  0  0  0  0  0  0
  1  4  1  0  0  0  0
  1  2  1  0  0  0  0
  2 11  1  0  0  0  0
  3  6  2  0  0  0  0
  3 13  1  0  0  0  0
  4 16  1  1  0  0  0
  5 12  1  0  0  0  0
  6 18  1  0  0  0  0
  7  8  2  0  0  0  0
  7  4  1  0  0  0  0
  8  5  1  0  0  0  0
  9 15  1  0  0  0  0
 10  9  2  0  0  0  0
 11 17  1  0  0  0  0
 13  1  2  0  0  0  0
 14 13  1  0  0  0  0
 14  7  1  0  0  0  0
 15 17  2  0  0  0  0
 16 12  1  0  0  0  0
 17 19  1  0  0  0  0
 18  9  1  0  0  0  0
 18  2  2  0  0  0  0
 19 20  1  0  0  0  0
 20 21  1  0  0  0  0
 21 22  2  0  0  0  0
 22 23  1  0  0  0  0
 23 25  2  0  0  0  0
 23 24  1  0  0  0  0
M  END
>  <MODEL>
7

>  <REMARK>
 VINA RESULT:      -8.1      3.325      7.465
  Name = 
  4 active torsions:
  status: ('A' for Active; 'I' for Inactive)
    1  A    between atoms: C_2  and  C_25
    2  A    between atoms: C_6  and  C_15
    3  A    between atoms: C_6  and  C_23
    4  A    between atoms: C_15  and  C_21
                            x       y       z     vdW  Elec       q    Type
                         _______ _______ _______ _____ _____    ______ ____

>  <TORSDO>
F 4

$$$$
=
 OpenBabel11052422153D

 25 28  0  0  1  0  0  0  0  0999 V2000
  161.0890  208.4530  152.3760 C   0  0  0  0  0  0  0  0  0  0  0  0
  161.2200  207.5250  151.3270 C   0  0  0  0  0  0  0  0  0  0  0  0
  162.1500  210.1420  151.0220 C   0  0  0  0  0  3  0  0  0  0  0  0
  160.4560  208.1960  153.7080 C   0  0  2  0  0  3  0  0  0  0  0  0
  160.9740  208.1870  156.5900 C   0  0  0  0  0  2  0  0  0  0  0  0
  162.3090  209.2300  150.0260 N   0  0  0  0  0  0  0  0  0  0  0  0
  160.7870  209.4290  154.5070 C   0  0  0  0  0  0  0  0  0  0  0  0
  161.0200  209.3940  155.7780 N   0  0  0  0  0  0  0  0  0  0  0  0
  162.0260  206.9920  149.0490 C   0  0  0  0  0  0  0  0  0  0  0  0
  162.6000  207.3370  147.9830 O   0  0  0  0  0  0  0  0  0  0  0  0
  160.6780  206.1220  151.4570 C   0  0  0  0  0  2  0  0  0  0  0  0
  160.4840  206.9530  155.8230 C   0  0  0  0  0  2  0  0  0  0  0  0
  161.5260  209.7610  152.2060 C   0  0  0  0  0  0  0  0  0  0  0  0
  161.1760  210.8880  153.5450 S   0  0  0  0  0  0  0  0  0  0  0  0
  161.5360  205.6570  149.1910 N   0  0  0  0  0  0  0  0  0  0  0  0
  161.0300  206.9710  154.4060 C   0  0  0  0  0  2  0  0  0  0  0  0
  160.9210  205.2380  150.2590 C   0  0  0  0  0  0  0  0  0  0  0  0
  161.8570  207.9480  150.1470 C   0  0  0  0  0  0  0  0  0  0  0  0
  160.4580  203.8230  150.3260 C   0  0  0  0  0  2  0  0  0  0  0  0
  161.3920  202.9260  149.5360 C   0  0  0  0  0  2  0  0  0  0  0  0
  160.8690  202.7630  148.1540 C   0  0  0  0  0  3  0  0  0  0  0  0
  161.5770  203.2010  147.1210 C   0  0  0  0  0  3  0  0  0  0  0  0
  161.1010  203.0620  145.7410 C   0  0  0  0  0  0  0  0  0  0  0  0
  161.1670  204.1790  144.8630 N   0  0  0  0  0  1  0  0  0  0  0  0
  160.6340  201.9680  145.3250 O   0  0  0  0  0  0  0  0  0  0  0  0
  1  4  1  0  0  0  0
  2 11  1  0  0  0  0
  2  1  2  0  0  0  0
  3 13  2  0  0  0  0
  4 16  1  1  0  0  0
  4  7  1  0  0  0  0
  6 18  2  0  0  0  0
  6  3  1  0  0  0  0
  7  8  2  0  0  0  0
  8  5  1  0  0  0  0
  9 15  1  0  0  0  0
  9 18  1  0  0  0  0
 10  9  2  0  0  0  0
 12  5  1  0  0  0  0
 13  1  1  0  0  0  0
 13 14  1  0  0  0  0
 14  7  1  0  0  0  0
 15 17  2  0  0  0  0
 16 12  1  0  0  0  0
 17 19  1  0  0  0  0
 17 11  1  0  0  0  0
 18  2  1  0  0  0  0
 20 19  1  0  0  0  0
 21 20  1  0  0  0  0
 22 21  2  0  0  0  0
 23 22  1  0  0  0  0
 24 23  1  0  0  0  0
 25 23  2  0  0  0  0
M  END
>  <MODEL>
8

>  <REMARK>
 VINA RESULT:      -8.1      1.644      1.854
  Name = 
  4 active torsions:
  status: ('A' for Active; 'I' for Inactive)
    1  A    between atoms: C_2  and  C_25
    2  A    between atoms: C_6  and  C_15
    3  A    between atoms: C_6  and  C_23
    4  A    between atoms: C_15  and  C_21
                            x       y       z     vdW  Elec       q    Type
                         _______ _______ _______ _____ _____    ______ ____

>  <TORSDO>
F 4

$$$$
=
 OpenBabel11052422153D

 25 28  0  0  1  0  0  0  0  0999 V2000
  161.0600  209.0000  153.5270 C   0  0  0  0  0  0  0  0  0  0  0  0
  161.1470  208.0380  152.5040 C   0  0  0  0  0  0  0  0  0  0  0  0
  161.1360  207.2530  155.1860 C   0  0  0  0  0  3  0  0  0  0  0  0
  160.9880  210.4830  153.3390 C   0  0  2  0  0  3  0  0  0  0  0  0
  159.3280  212.8380  153.8630 C   0  0  0  0  0  2  0  0  0  0  0  0
  161.1800  206.3250  154.1920 N   0  0  0  0  0  0  0  0  0  0  0  0
  160.6810  211.0060  154.7170 C   0  0  0  0  0  0  0  0  0  0  0  0
  159.9370  212.0430  154.9200 N   0  0  0  0  0  0  0  0  0  0  0  0
  161.2620  205.6600  151.8270 C   0  0  0  0  0  0  0  0  0  0  0  0
  161.2970  204.4380  152.1260 O   0  0  0  0  0  0  0  0  0  0  0  0
  161.2050  208.4470  151.0530 C   0  0  0  0  0  2  0  0  0  0  0  0
  159.7590  212.4150  152.4540 C   0  0  0  0  0  2  0  0  0  0  0  0
  161.0860  208.6040  154.8580 C   0  0  0  0  0  0  0  0  0  0  0  0
  161.1190  209.9160  156.0680 S   0  0  0  0  0  0  0  0  0  0  0  0
  161.2880  206.0560  150.4540 N   0  0  0  0  0  0  0  0  0  0  0  0
  159.8820  210.9030  152.3800 C   0  0  0  0  0  2  0  0  0  0  0  0
  161.2690  207.3010  150.0740 C   0  0  0  0  0  0  0  0  0  0  0  0
  161.1950  206.6820  152.8750 C   0  0  0  0  0  0  0  0  0  0  0  0
  161.2810  207.6200  148.6190 C   0  0  0  0  0  2  0  0  0  0  0  0
  162.4000  206.8680  147.9240 C   0  0  0  0  0  2  0  0  0  0  0  0
  161.8480  206.1230  146.7620 C   0  0  0  0  0  3  0  0  0  0  0  0
  161.7900  204.7980  146.7910 C   0  0  0  0  0  3  0  0  0  0  0  0
  161.2540  204.0220  145.6690 C   0  0  0  0  0  0  0  0  0  0  0  0
  160.7840  204.7000  144.5100 N   0  0  0  0  0  1  0  0  0  0  0  0
  161.2040  202.7640  145.7170 O   0  0  0  0  0  0  0  0  0  0  0  0
  1 13  1  0  0  0  0
  2 18  1  0  0  0  0
  2  1  2  0  0  0  0
  4 16  1  6  0  0  0
  4  1  1  0  0  0  0
  4  7  1  0  0  0  0
  5  8  1  0  0  0  0
  6  3  1  0  0  0  0
  7  8  2  0  0  0  0
  7 14  1  0  0  0  0
  9 10  2  0  0  0  0
  9 18  1  0  0  0  0
 11  2  1  0  0  0  0
 12  5  1  0  0  0  0
 13  3  2  0  0  0  0
 13 14  1  0  0  0  0
 15  9  1  0  0  0  0
 16 12  1  0  0  0  0
 17 15  2  0  0  0  0
 17 11  1  0  0  0  0
 18  6  2  0  0  0  0
 19 17  1  0  0  0  0
 20 19  1  0  0  0  0
 21 22  2  0  0  0  0
 21 20  1  0  0  0  0
 23 25  2  0  0  0  0
 23 22  1  0  0  0  0
 24 23  1  0  0  0  0
M  END
>  <MODEL>
9

>  <REMARK>
 VINA RESULT:      -8.0      2.619      4.373
  Name = 
  4 active torsions:
  status: ('A' for Active; 'I' for Inactive)
    1  A    between atoms: C_2  and  C_25
    2  A    between atoms: C_6  and  C_15
    3  A    between atoms: C_6  and  C_23
    4  A    between atoms: C_15  and  C_21
                            x       y       z     vdW  Elec       q    Type
                         _______ _______ _______ _____ _____    ______ ____

>  <TORSDO>
F 4

$$$$
