=
 OpenBabel11062409273D

 34 38  0  0  1  0  0  0  0  0999 V2000
  161.3880  207.3590  150.9250 C   0  0  0  0  0  0  0  0  0  0  0  0
  161.2740  203.8650  152.0900 C   0  0  0  0  0  3  0  0  0  0  0  0
  160.9620  205.8270  153.1630 O   0  0  0  0  0  0  0  0  0  0  0  0
  161.6640  209.6550  149.9270 N   0  0  0  0  0  0  0  0  0  0  0  0
  161.7220  208.2030  149.7060 C   0  0  0  0  0  2  0  0  0  0  0  0
  161.3820  209.4470  152.3490 C   0  0  2  0  0  3  0  0  0  0  0  0
  160.1060  210.0170  152.3480 O   0  0  0  0  0  1  0  0  0  0  0  0
  162.2160  210.0390  151.2260 C   0  0  0  0  0  2  0  0  0  0  0  0
  161.0130  207.1460  153.2970 C   0  0  0  0  0  0  0  0  0  0  0  0
  161.2820  207.9570  152.1910 C   0  0  0  0  0  0  0  0  0  0  0  0
  160.8430  207.6560  154.4370 O   0  0  0  0  0  0  0  0  0  0  0  0
  161.7710  202.9570  151.0170 C   0  0  0  0  0  2  0  0  0  0  0  0
  160.9230  202.9730  149.7970 C   0  0  0  0  0  0  0  0  0  0  0  0
  160.7210  204.1030  149.1220 C   0  0  0  0  0  3  0  0  0  0  0  0
  161.1370  205.1960  152.0050 C   0  0  0  0  0  0  0  0  0  0  0  0
  161.0860  205.4620  149.5560 C   0  0  0  0  0  3  0  0  0  0  0  0
  161.2520  205.9560  150.8020 C   0  0  0  0  0  0  0  0  0  0  0  0
  160.4520  201.6910  149.2410 C   0  0  0  0  0  0  0  0  0  0  0  0
  161.3300  200.8630  148.5480 O   0  0  0  0  0  0  0  0  0  0  0  0
  159.2440  201.3420  149.3740 O   0  0  0  0  0  1  0  0  0  0  0  0
  162.4060  210.3700  148.8740 C   0  0  0  0  0  2  0  0  0  0  0  0
  160.6370  213.7240  148.6570 C   0  0  0  0  0  2  0  0  0  0  0  0
  162.9400  212.5230  147.7580 O   0  0  0  0  0  0  0  0  0  0  0  0
  160.2440  214.0740  144.9360 C   0  0  0  0  0  0  0  0  0  0  0  0
  160.0520  214.2670  146.2540 C   0  0  0  0  0  3  0  0  0  0  0  0
  161.1500  214.0170  147.2460 C   0  0  2  0  0  3  0  0  0  0  0  0
  162.6440  213.2660  145.4510 C   0  0  0  0  0  2  0  0  0  0  0  0
  162.0070  212.8630  146.7660 C   0  0  1  0  0  3  0  0  0  0  0  0
  161.5350  213.4620  144.4000 C   0  0  0  0  0  2  0  0  0  0  0  0
  162.2500  211.9120  148.8520 C   0  0  1  0  0  3  0  0  0  0  0  0
  160.8310  212.3120  149.0090 N   0  0  0  0  0  2  0  0  0  0  0  0
  159.1340  214.3330  144.0010 C   0  0  0  0  0  0  0  0  0  0  0  0
  157.9560  214.4530  144.4310 O   0  0  0  0  0  1  0  0  0  0  0  0
  159.3730  214.4530  142.6370 O   0  0  0  0  0  0  0  0  0  0  0  0
  1 10  2  0  0  0  0
  3  9  1  0  0  0  0
  4  8  1  0  0  0  0
  5  4  1  0  0  0  0
  5  1  1  0  0  0  0
  6  7  1  6  0  0  0
  8  6  1  0  0  0  0
  9 11  2  0  0  0  0
 10  6  1  0  0  0  0
 10  9  1  0  0  0  0
 12  2  1  0  0  0  0
 13 12  1  0  0  0  0
 14 16  1  0  0  0  0
 14 13  2  0  0  0  0
 15  2  2  0  0  0  0
 15  3  1  0  0  0  0
 16 17  2  0  0  0  0
 17  1  1  0  0  0  0
 17 15  1  0  0  0  0
 18 20  1  0  0  0  0
 18 13  1  0  0  0  0
 19 18  2  0  0  0  0
 21  4  1  0  0  0  0
 22 31  1  0  0  0  0
 23 30  1  0  0  0  0
 24 25  2  0  0  0  0
 26 25  1  6  0  0  0
 26 22  1  0  0  0  0
 28 27  1  6  0  0  0
 28 26  1  0  0  0  0
 28 23  1  0  0  0  0
 29 24  1  0  0  0  0
 29 27  1  0  0  0  0
 30 21  1  6  0  0  0
 30 31  1  0  0  0  0
 32 33  1  0  0  0  0
 32 24  1  0  0  0  0
 34 32  2  0  0  0  0
M  END
>  <MODEL>
1

>  <REMARK>
 VINA RESULT:      -9.7      0.000      0.000
  Name = 
  4 active torsions:
  status: ('A' for Active; 'I' for Inactive)
    1  A    between atoms: C_3  and  C_25
    2  A    between atoms: C_7  and  C_11
    3  A    between atoms: N_8  and  C_18
    4  A    between atoms: C_18  and  C_30
                            x       y       z     vdW  Elec       q    Type
                         _______ _______ _______ _____ _____    ______ ____

>  <TORSDO>
F 4

$$$$
=
 OpenBabel11062409273D

 34 38  0  0  1  0  0  0  0  0999 V2000
  161.3690  207.2400  150.9200 C   0  0  0  0  0  0  0  0  0  0  0  0
  161.2670  203.7660  152.1440 C   0  0  0  0  0  3  0  0  0  0  0  0
  161.0050  205.7470  153.1950 O   0  0  0  0  0  0  0  0  0  0  0  0
  161.6290  209.5180  149.8780 N   0  0  0  0  0  0  0  0  0  0  0  0
  161.6700  208.0630  149.6770 C   0  0  0  0  0  2  0  0  0  0  0  0
  161.4250  209.3500  152.3100 C   0  0  2  0  0  3  0  0  0  0  0  0
  160.1530  209.9300  152.3410 O   0  0  0  0  0  1  0  0  0  0  0  0
  162.2260  209.9190  151.1510 C   0  0  0  0  0  2  0  0  0  0  0  0
  161.0700  207.0670  153.3060 C   0  0  0  0  0  0  0  0  0  0  0  0
  161.3090  207.8590  152.1790 C   0  0  0  0  0  0  0  0  0  0  0  0
  160.9410  207.5960  154.4430 O   0  0  0  0  0  0  0  0  0  0  0  0
  161.7230  202.8370  151.0700 C   0  0  0  0  0  2  0  0  0  0  0  0
  160.8360  202.8410  149.8770 C   0  0  0  0  0  0  0  0  0  0  0  0
  160.6200  203.9610  149.1910 C   0  0  0  0  0  3  0  0  0  0  0  0
  161.1380  205.0960  152.0420 C   0  0  0  0  0  0  0  0  0  0  0  0
  161.0090  205.3240  149.5920 C   0  0  0  0  0  3  0  0  0  0  0  0
  161.2190  205.8370  150.8240 C   0  0  0  0  0  0  0  0  0  0  0  0
  160.3380  201.5540  149.3580 C   0  0  0  0  0  0  0  0  0  0  0  0
  161.2270  200.6130  148.8470 O   0  0  0  0  0  0  0  0  0  0  0  0
  159.0990  201.3020  149.3560 O   0  0  0  0  0  1  0  0  0  0  0  0
  162.3410  210.2110  148.7890 C   0  0  0  0  0  2  0  0  0  0  0  0
  160.8120  213.6300  149.4120 C   0  0  0  0  0  2  0  0  0  0  0  0
  162.1780  212.2900  147.4410 O   0  0  0  0  0  0  0  0  0  0  0  0
  158.3790  213.8450  146.5550 C   0  0  0  0  0  0  0  0  0  0  0  0
  158.9730  214.1010  147.7360 C   0  0  0  0  0  3  0  0  0  0  0  0
  160.4370  213.8420  147.9440 C   0  0  2  0  0  3  0  0  0  0  0  0
  160.6350  212.9500  145.6680 C   0  0  0  0  0  2  0  0  0  0  0  0
  160.8510  212.6310  147.1330 C   0  0  1  0  0  3  0  0  0  0  0  0
  159.1280  213.1530  145.4200 C   0  0  0  0  0  2  0  0  0  0  0  0
  162.2230  211.7560  148.7670 C   0  0  1  0  0  3  0  0  0  0  0  0
  161.1510  212.2270  149.6760 N   0  0  0  0  0  2  0  0  0  0  0  0
  156.9390  214.1170  146.4010 C   0  0  0  0  0  0  0  0  0  0  0  0
  156.4140  214.1330  145.2550 O   0  0  0  0  0  0  0  0  0  0  0  0
  156.1410  214.3550  147.5140 O   0  0  0  0  0  1  0  0  0  0  0  0
  1 10  2  0  0  0  0
  3  9  1  0  0  0  0
  4  8  1  0  0  0  0
  5  4  1  0  0  0  0
  5  1  1  0  0  0  0
  6  7  1  6  0  0  0
  8  6  1  0  0  0  0
  9 11  2  0  0  0  0
 10  6  1  0  0  0  0
 10  9  1  0  0  0  0
 12  2  1  0  0  0  0
 13 12  1  0  0  0  0
 14 16  1  0  0  0  0
 14 13  2  0  0  0  0
 15  2  2  0  0  0  0
 15  3  1  0  0  0  0
 16 17  2  0  0  0  0
 17  1  1  0  0  0  0
 17 15  1  0  0  0  0
 18 13  1  0  0  0  0
 19 18  2  0  0  0  0
 20 18  1  0  0  0  0
 21  4  1  0  0  0  0
 22 31  1  0  0  0  0
 23 30  1  0  0  0  0
 24 25  2  0  0  0  0
 26 25  1  1  0  0  0
 26 22  1  0  0  0  0
 28 27  1  6  0  0  0
 28 23  1  0  0  0  0
 28 26  1  0  0  0  0
 29 27  1  0  0  0  0
 29 24  1  0  0  0  0
 30 21  1  6  0  0  0
 30 31  1  0  0  0  0
 32 24  1  0  0  0  0
 32 34  1  0  0  0  0
 33 32  2  0  0  0  0
M  END
>  <MODEL>
2

>  <REMARK>
 VINA RESULT:      -9.5      1.098      1.473
  Name = 
  4 active torsions:
  status: ('A' for Active; 'I' for Inactive)
    1  A    between atoms: C_3  and  C_25
    2  A    between atoms: C_7  and  C_11
    3  A    between atoms: N_8  and  C_18
    4  A    between atoms: C_18  and  C_30
                            x       y       z     vdW  Elec       q    Type
                         _______ _______ _______ _____ _____    ______ ____

>  <TORSDO>
F 4

$$$$
=
 OpenBabel11062409273D

 34 38  0  0  1  0  0  0  0  0999 V2000
  161.5750  207.8570  149.4220 C   0  0  0  0  0  0  0  0  0  0  0  0
  161.4240  204.2240  148.8180 C   0  0  0  0  0  3  0  0  0  0  0  0
  161.0620  205.4650  150.6700 O   0  0  0  0  0  0  0  0  0  0  0  0
  161.8840  210.3480  149.6210 N   0  0  0  0  0  0  0  0  0  0  0  0
  161.9570  209.1660  148.7500 C   0  0  0  0  0  2  0  0  0  0  0  0
  161.5030  209.0400  151.6540 C   0  0  2  0  0  3  0  0  0  0  0  0
  160.2260  209.5660  151.8690 O   0  0  0  0  0  1  0  0  0  0  0  0
  162.3810  210.0740  150.9690 C   0  0  0  0  0  2  0  0  0  0  0  0
  161.1030  206.5690  151.4050 C   0  0  0  0  0  0  0  0  0  0  0  0
  161.4150  207.7980  150.8160 C   0  0  0  0  0  0  0  0  0  0  0  0
  160.8840  206.4910  152.6440 O   0  0  0  0  0  0  0  0  0  0  0  0
  161.9690  203.9130  147.4650 C   0  0  0  0  0  2  0  0  0  0  0  0
  161.1720  204.5100  146.3620 C   0  0  0  0  0  0  0  0  0  0  0  0
  160.9940  205.8270  146.2840 C   0  0  0  0  0  3  0  0  0  0  0  0
  161.2870  205.4440  149.3580 C   0  0  0  0  0  0  0  0  0  0  0  0
  161.3360  206.8210  147.3160 C   0  0  0  0  0  3  0  0  0  0  0  0
  161.4490  206.6750  148.6540 C   0  0  0  0  0  0  0  0  0  0  0  0
  160.7280  203.6430  145.2550 C   0  0  0  0  0  0  0  0  0  0  0  0
  160.8270  202.2590  145.3660 O   0  0  0  0  0  1  0  0  0  0  0  0
  160.2710  204.1480  144.1900 O   0  0  0  0  0  0  0  0  0  0  0  0
  162.6670  211.4600  149.0520 C   0  0  0  0  0  2  0  0  0  0  0  0
  159.8800  213.1840  147.1340 C   0  0  0  0  0  2  0  0  0  0  0  0
  162.5970  213.3850  147.4850 O   0  0  0  0  0  0  0  0  0  0  0  0
  161.1080  212.7950  143.6040 C   0  0  0  0  0  0  0  0  0  0  0  0
  160.2740  213.0060  144.6400 C   0  0  0  0  0  3  0  0  0  0  0  0
  160.7780  213.5400  145.9490 C   0  0  2  0  0  3  0  0  0  0  0  0
  163.0780  213.5450  145.0970 C   0  0  0  0  0  2  0  0  0  0  0  0
  162.1780  213.0180  146.1970 C   0  0  1  0  0  3  0  0  0  0  0  0
  162.6180  212.9540  143.7510 C   0  0  0  0  0  2  0  0  0  0  0  0
  161.8530  212.6310  148.4460 C   0  0  1  0  0  3  0  0  0  0  0  0
  160.5130  212.1810  147.9980 N   0  0  0  0  0  2  0  0  0  0  0  0
  160.5640  212.2690  142.3380 C   0  0  0  0  0  0  0  0  0  0  0  0
  161.2100  211.4160  141.6740 O   0  0  0  0  0  0  0  0  0  0  0  0
  159.3320  212.7050  141.8640 O   0  0  0  0  0  1  0  0  0  0  0  0
  1 10  2  0  0  0  0
  2 15  2  0  0  0  0
  3  9  1  0  0  0  0
  4  8  1  0  0  0  0
  5  1  1  0  0  0  0
  5  4  1  0  0  0  0
  6  7  1  6  0  0  0
  8  6  1  0  0  0  0
  9 11  2  0  0  0  0
 10  9  1  0  0  0  0
 10  6  1  0  0  0  0
 12  2  1  0  0  0  0
 13 12  1  0  0  0  0
 14 13  2  0  0  0  0
 14 16  1  0  0  0  0
 15  3  1  0  0  0  0
 16 17  2  0  0  0  0
 17 15  1  0  0  0  0
 17  1  1  0  0  0  0
 18 19  1  0  0  0  0
 18 13  1  0  0  0  0
 20 18  2  0  0  0  0
 21  4  1  0  0  0  0
 22 31  1  0  0  0  0
 23 30  1  0  0  0  0
 24 29  1  0  0  0  0
 24 25  2  0  0  0  0
 26 25  1  6  0  0  0
 26 28  1  0  0  0  0
 26 22  1  0  0  0  0
 28 27  1  6  0  0  0
 28 23  1  0  0  0  0
 29 27  1  0  0  0  0
 30 21  1  6  0  0  0
 31 30  1  0  0  0  0
 32 24  1  0  0  0  0
 33 32  2  0  0  0  0
 34 32  1  0  0  0  0
M  END
>  <MODEL>
3

>  <REMARK>
 VINA RESULT:      -9.5      2.020      2.546
  Name = 
  4 active torsions:
  status: ('A' for Active; 'I' for Inactive)
    1  A    between atoms: C_3  and  C_25
    2  A    between atoms: C_7  and  C_11
    3  A    between atoms: N_8  and  C_18
    4  A    between atoms: C_18  and  C_30
                            x       y       z     vdW  Elec       q    Type
                         _______ _______ _______ _____ _____    ______ ____

>  <TORSDO>
F 4

$$$$
=
 OpenBabel11062409273D

 34 38  0  0  1  0  0  0  0  0999 V2000
  161.3550  206.1580  150.4480 C   0  0  0  0  0  0  0  0  0  0  0  0
  161.6130  203.5280  147.8800 C   0  0  0  0  0  3  0  0  0  0  0  0
  161.2590  203.4350  150.1080 O   0  0  0  0  0  0  0  0  0  0  0  0
  161.3620  208.1150  152.0340 N   0  0  0  0  0  0  0  0  0  0  0  0
  161.5080  207.6580  150.6450 C   0  0  0  0  0  2  0  0  0  0  0  0
  161.3270  205.8490  152.9570 C   0  0  2  0  0  3  0  0  0  0  0  0
  160.0170  205.9580  153.4320 O   0  0  0  0  0  1  0  0  0  0  0  0
  162.0050  207.2080  152.9850 C   0  0  0  0  0  2  0  0  0  0  0  0
  161.2230  203.9220  151.3420 C   0  0  0  0  0  0  0  0  0  0  0  0
  161.3240  205.3000  151.5590 C   0  0  0  0  0  0  0  0  0  0  0  0
  161.1230  203.1270  152.3150 O   0  0  0  0  0  0  0  0  0  0  0  0
  162.0740  204.1220  146.5920 C   0  0  0  0  0  2  0  0  0  0  0  0
  161.1150  205.1060  146.0260 C   0  0  0  0  0  0  0  0  0  0  0  0
  160.7660  206.1910  146.7130 C   0  0  0  0  0  3  0  0  0  0  0  0
  161.3700  204.1920  149.0190 C   0  0  0  0  0  0  0  0  0  0  0  0
  161.0680  206.4680  148.1280 C   0  0  0  0  0  3  0  0  0  0  0  0
  161.3130  205.6130  149.1430 C   0  0  0  0  0  0  0  0  0  0  0  0
  160.6910  204.9590  144.6210 C   0  0  0  0  0  0  0  0  0  0  0  0
  159.8180  203.9380  144.2560 O   0  0  0  0  0  1  0  0  0  0  0  0
  161.1290  205.7470  143.7350 O   0  0  0  0  0  0  0  0  0  0  0  0
  161.9460  209.4580  152.2020 C   0  0  0  0  0  2  0  0  0  0  0  0
  160.6590  209.8810  155.7490 C   0  0  0  0  0  2  0  0  0  0  0  0
  161.1230  211.4020  153.5080 O   0  0  0  0  0  0  0  0  0  0  0  0
  157.2360  211.2870  155.0940 C   0  0  0  0  0  0  0  0  0  0  0  0
  158.2620  210.6950  155.7340 C   0  0  0  0  0  3  0  0  0  0  0  0
  159.6860  210.9980  155.3700 C   0  0  2  0  0  3  0  0  0  0  0  0
  158.9420  212.4980  153.5770 C   0  0  0  0  0  2  0  0  0  0  0  0
  159.7760  211.2700  153.8830 C   0  0  1  0  0  3  0  0  0  0  0  0
  157.4650  212.1840  153.8810 C   0  0  0  0  0  2  0  0  0  0  0  0
  161.7530  210.1210  153.5890 C   0  0  1  0  0  3  0  0  0  0  0  0
  161.1470  209.1760  154.5570 N   0  0  0  0  0  2  0  0  0  0  0  0
  155.8550  210.9560  155.4880 C   0  0  0  0  0  0  0  0  0  0  0  0
  155.1550  210.1900  154.7730 O   0  0  0  0  0  0  0  0  0  0  0  0
  155.3080  211.4810  156.6540 O   0  0  0  0  0  1  0  0  0  0  0  0
  1  5  1  0  0  0  0
  1 10  2  0  0  0  0
  2 15  2  0  0  0  0
  3  9  1  0  0  0  0
  4 21  1  0  0  0  0
  4  8  1  0  0  0  0
  5  4  1  0  0  0  0
  6  8  1  0  0  0  0
  6  7  1  6  0  0  0
  9 10  1  0  0  0  0
  9 11  2  0  0  0  0
 10  6  1  0  0  0  0
 12  2  1  0  0  0  0
 13 12  1  0  0  0  0
 13 14  2  0  0  0  0
 14 16  1  0  0  0  0
 15 17  1  0  0  0  0
 15  3  1  0  0  0  0
 16 17  2  0  0  0  0
 17  1  1  0  0  0  0
 18 13  1  0  0  0  0
 19 18  1  0  0  0  0
 20 18  2  0  0  0  0
 23 30  1  0  0  0  0
 23 28  1  0  0  0  0
 24 32  1  0  0  0  0
 24 25  2  0  0  0  0
 26 25  1  6  0  0  0
 26 22  1  0  0  0  0
 27 29  1  0  0  0  0
 28 27  1  1  0  0  0
 28 26  1  0  0  0  0
 29 24  1  0  0  0  0
 30 21  1  6  0  0  0
 30 31  1  0  0  0  0
 31 22  1  0  0  0  0
 32 34  1  0  0  0  0
 33 32  2  0  0  0  0
M  END
>  <MODEL>
4

>  <REMARK>
 VINA RESULT:      -9.0      4.671      6.762
  Name = 
  4 active torsions:
  status: ('A' for Active; 'I' for Inactive)
    1  A    between atoms: C_3  and  C_25
    2  A    between atoms: C_7  and  C_11
    3  A    between atoms: N_8  and  C_18
    4  A    between atoms: C_18  and  C_30
                            x       y       z     vdW  Elec       q    Type
                         _______ _______ _______ _____ _____    ______ ____

>  <TORSDO>
F 4

$$$$
=
 OpenBabel11062409273D

 34 38  0  0  1  0  0  0  0  0999 V2000
  161.2060  209.6310  152.5770 C   0  0  0  0  0  0  0  0  0  0  0  0
  159.9310  212.6930  150.9700 C   0  0  0  0  0  3  0  0  0  0  0  0
  159.8450  211.9570  153.1030 O   0  0  0  0  0  0  0  0  0  0  0  0
  162.0380  207.4060  153.4130 N   0  0  0  0  0  0  0  0  0  0  0  0
  161.8720  208.3020  152.2600 C   0  0  0  0  0  2  0  0  0  0  0  0
  160.6910  208.7990  154.9070 C   0  0  2  0  0  3  0  0  0  0  0  0
  161.7590  209.0890  155.7600 O   0  0  0  0  0  1  0  0  0  0  0  0
  160.8720  207.4200  154.2970 C   0  0  0  0  0  2  0  0  0  0  0  0
  159.9590  211.0560  154.0700 C   0  0  0  0  0  0  0  0  0  0  0  0
  160.5980  209.8360  153.8260 C   0  0  0  0  0  0  0  0  0  0  0  0
  159.4630  211.3020  155.2020 O   0  0  0  0  0  0  0  0  0  0  0  0
  160.0660  212.5810  149.4890 C   0  0  0  0  0  2  0  0  0  0  0  0
  161.4780  212.4800  149.0360 C   0  0  0  0  0  0  0  0  0  0  0  0
  162.2590  211.4850  149.4540 C   0  0  0  0  0  3  0  0  0  0  0  0
  160.3270  211.7860  151.8750 C   0  0  0  0  0  0  0  0  0  0  0  0
  161.9540  210.5210  150.5240 C   0  0  0  0  0  3  0  0  0  0  0  0
  161.1340  210.6430  151.5900 C   0  0  0  0  0  0  0  0  0  0  0  0
  161.9540  213.3920  147.9800 C   0  0  0  0  0  0  0  0  0  0  0  0
  161.7420  213.0840  146.6390 O   0  0  0  0  0  0  0  0  0  0  0  0
  162.5710  214.4530  148.2820 O   0  0  0  0  0  1  0  0  0  0  0  0
  162.2670  206.0210  152.9650 C   0  0  0  0  0  2  0  0  0  0  0  0
  160.5910  203.5310  150.6390 C   0  0  0  0  0  2  0  0  0  0  0  0
  160.6230  206.2370  151.1170 O   0  0  0  0  0  0  0  0  0  0  0  0
  161.6710  204.8550  147.2920 C   0  0  0  0  0  0  0  0  0  0  0  0
  161.2100  204.0070  148.2310 C   0  0  0  0  0  3  0  0  0  0  0  0
  160.5280  204.5130  149.4690 C   0  0  2  0  0  3  0  0  0  0  0  0
  160.9010  206.8330  148.7660 C   0  0  0  0  0  2  0  0  0  0  0  0
  161.1470  205.8340  149.8780 C   0  0  1  0  0  3  0  0  0  0  0  0
  161.6500  206.3660  147.5020 C   0  0  0  0  0  2  0  0  0  0  0  0
  161.1300  205.3710  152.1360 C   0  0  1  0  0  3  0  0  0  0  0  0
  161.5040  204.0100  151.6840 N   0  0  0  0  0  2  0  0  0  0  0  0
  162.3340  204.3090  146.0930 C   0  0  0  0  0  0  0  0  0  0  0  0
  163.5000  204.6760  145.7890 O   0  0  0  0  0  1  0  0  0  0  0  0
  161.6830  203.3820  145.2870 O   0  0  0  0  0  0  0  0  0  0  0  0
  1 10  2  0  0  0  0
  2 15  2  0  0  0  0
  3  9  1  0  0  0  0
  4  8  1  0  0  0  0
  5  1  1  0  0  0  0
  5  4  1  0  0  0  0
  6  7  1  1  0  0  0
  8  6  1  0  0  0  0
  9 11  2  0  0  0  0
 10  9  1  0  0  0  0
 10  6  1  0  0  0  0
 12  2  1  0  0  0  0
 13 14  2  0  0  0  0
 13 12  1  0  0  0  0
 14 16  1  0  0  0  0
 15  3  1  0  0  0  0
 16 17  2  0  0  0  0
 17 15  1  0  0  0  0
 17  1  1  0  0  0  0
 18 20  1  0  0  0  0
 18 13  1  0  0  0  0
 19 18  2  0  0  0  0
 21  4  1  0  0  0  0
 22 31  1  0  0  0  0
 23 30  1  0  0  0  0
 24 29  1  0  0  0  0
 24 25  2  0  0  0  0
 26 25  1  6  0  0  0
 26 28  1  0  0  0  0
 26 22  1  0  0  0  0
 28 27  1  6  0  0  0
 28 23  1  0  0  0  0
 29 27  1  0  0  0  0
 30 21  1  6  0  0  0
 31 30  1  0  0  0  0
 32 24  1  0  0  0  0
 33 32  1  0  0  0  0
 34 32  2  0  0  0  0
M  END
>  <MODEL>
5

>  <REMARK>
 VINA RESULT:      -8.2      2.769      8.105
  Name = 
  4 active torsions:
  status: ('A' for Active; 'I' for Inactive)
    1  A    between atoms: C_3  and  C_25
    2  A    between atoms: C_7  and  C_11
    3  A    between atoms: N_8  and  C_18
    4  A    between atoms: C_18  and  C_30
                            x       y       z     vdW  Elec       q    Type
                         _______ _______ _______ _____ _____    ______ ____

>  <TORSDO>
F 4

$$$$
=
 OpenBabel11062409273D

 34 38  0  0  1  0  0  0  0  0999 V2000
  161.2620  206.4430  150.5160 C   0  0  0  0  0  0  0  0  0  0  0  0
  161.7510  203.7230  148.0790 C   0  0  0  0  0  3  0  0  0  0  0  0
  161.3620  203.7080  150.3030 O   0  0  0  0  0  0  0  0  0  0  0  0
  161.1040  208.4660  152.0090 N   0  0  0  0  0  0  0  0  0  0  0  0
  161.3070  207.9570  150.6450 C   0  0  0  0  0  2  0  0  0  0  0  0
  161.2090  206.2480  153.0360 C   0  0  2  0  0  3  0  0  0  0  0  0
  159.8860  206.2860  153.4850 O   0  0  0  0  0  1  0  0  0  0  0  0
  161.7900  207.6520  153.0110 C   0  0  0  0  0  2  0  0  0  0  0  0
  161.2690  204.2470  151.5120 C   0  0  0  0  0  0  0  0  0  0  0  0
  161.2710  205.6370  151.6660 C   0  0  0  0  0  0  0  0  0  0  0  0
  161.2070  203.4920  152.5190 O   0  0  0  0  0  0  0  0  0  0  0  0
  162.1930  204.2880  146.7720 C   0  0  0  0  0  2  0  0  0  0  0  0
  161.1800  205.1760  146.1450 C   0  0  0  0  0  0  0  0  0  0  0  0
  160.7430  206.2640  146.7750 C   0  0  0  0  0  3  0  0  0  0  0  0
  161.4410  204.4200  149.1820 C   0  0  0  0  0  0  0  0  0  0  0  0
  160.9980  206.6260  148.1800 C   0  0  0  0  0  3  0  0  0  0  0  0
  161.2830  205.8380  149.2380 C   0  0  0  0  0  0  0  0  0  0  0  0
  160.7940  204.9350  144.7420 C   0  0  0  0  0  0  0  0  0  0  0  0
  161.2060  205.8100  143.7410 O   0  0  0  0  0  0  0  0  0  0  0  0
  160.0710  203.9430  144.4400 O   0  0  0  0  0  1  0  0  0  0  0  0
  161.5890  209.8530  152.1220 C   0  0  0  0  0  2  0  0  0  0  0  0
  158.3350  211.4600  153.2360 C   0  0  0  0  0  2  0  0  0  0  0  0
  160.8640  212.2030  152.4600 O   0  0  0  0  0  0  0  0  0  0  0  0
  157.5820  213.6510  150.2770 C   0  0  0  0  0  0  0  0  0  0  0  0
  157.4020  212.9410  151.4060 C   0  0  0  0  0  3  0  0  0  0  0  0
  158.5320  212.7010  152.3650 C   0  0  2  0  0  3  0  0  0  0  0  0
  160.0810  213.8970  150.8860 C   0  0  0  0  0  2  0  0  0  0  0  0
  159.8280  212.5790  151.5900 C   0  0  1  0  0  3  0  0  0  0  0  0
  158.9660  214.1280  149.8480 C   0  0  0  0  0  2  0  0  0  0  0  0
  160.6590  210.8460  152.8630 C   0  0  1  0  0  3  0  0  0  0  0  0
  159.2510  210.3840  152.8410 N   0  0  0  0  0  2  0  0  0  0  0  0
  156.4400  213.8590  149.3680 C   0  0  0  0  0  0  0  0  0  0  0  0
  155.2890  214.0760  149.8320 O   0  0  0  0  0  1  0  0  0  0  0  0
  156.6180  213.8210  147.9900 O   0  0  0  0  0  0  0  0  0  0  0  0
  1  5  1  0  0  0  0
  1 10  2  0  0  0  0
  2 15  2  0  0  0  0
  3  9  1  0  0  0  0
  4 21  1  0  0  0  0
  4  8  1  0  0  0  0
  5  4  1  0  0  0  0
  6  7  1  6  0  0  0
  8  6  1  0  0  0  0
  9 10  1  0  0  0  0
  9 11  2  0  0  0  0
 10  6  1  0  0  0  0
 12  2  1  0  0  0  0
 13 12  1  0  0  0  0
 13 14  2  0  0  0  0
 14 16  1  0  0  0  0
 15 17  1  0  0  0  0
 15  3  1  0  0  0  0
 16 17  2  0  0  0  0
 17  1  1  0  0  0  0
 18 13  1  0  0  0  0
 19 18  2  0  0  0  0
 20 18  1  0  0  0  0
 23 30  1  0  0  0  0
 24 25  2  0  0  0  0
 26 25  1  6  0  0  0
 26 22  1  0  0  0  0
 28 27  1  1  0  0  0
 28 26  1  0  0  0  0
 28 23  1  0  0  0  0
 29 24  1  0  0  0  0
 29 27  1  0  0  0  0
 30 21  1  6  0  0  0
 31 30  1  0  0  0  0
 31 22  1  0  0  0  0
 32 33  1  0  0  0  0
 32 24  1  0  0  0  0
 34 32  2  0  0  0  0
M  END
>  <MODEL>
6

>  <REMARK>
 VINA RESULT:      -8.1      3.256      4.572
  Name = 
  4 active torsions:
  status: ('A' for Active; 'I' for Inactive)
    1  A    between atoms: C_3  and  C_25
    2  A    between atoms: C_7  and  C_11
    3  A    between atoms: N_8  and  C_18
    4  A    between atoms: C_18  and  C_30
                            x       y       z     vdW  Elec       q    Type
                         _______ _______ _______ _____ _____    ______ ____

>  <TORSDO>
F 4

$$$$
=
 OpenBabel11062409273D

 34 38  0  0  1  0  0  0  0  0999 V2000
  161.3780  207.3960  150.6810 C   0  0  0  0  0  0  0  0  0  0  0  0
  161.4340  204.0140  152.1450 C   0  0  0  0  0  3  0  0  0  0  0  0
  161.2210  206.0610  153.0750 O   0  0  0  0  0  0  0  0  0  0  0  0
  161.5140  209.5980  149.4670 N   0  0  0  0  0  0  0  0  0  0  0  0
  161.5640  208.1330  149.3650 C   0  0  0  0  0  2  0  0  0  0  0  0
  161.5060  209.5980  151.9140 C   0  0  2  0  0  3  0  0  0  0  0  0
  160.2310  210.1630  152.0070 O   0  0  0  0  0  1  0  0  0  0  0  0
  162.2030  210.0940  150.6580 C   0  0  0  0  0  2  0  0  0  0  0  0
  161.2720  207.3860  153.0900 C   0  0  0  0  0  0  0  0  0  0  0  0
  161.4060  208.1000  151.8950 C   0  0  0  0  0  0  0  0  0  0  0  0
  161.2240  207.9920  154.1950 O   0  0  0  0  0  0  0  0  0  0  0  0
  161.8190  203.0180  151.1040 C   0  0  0  0  0  2  0  0  0  0  0  0
  160.8400  202.9280  149.9890 C   0  0  0  0  0  0  0  0  0  0  0  0
  160.5510  203.9950  149.2470 C   0  0  0  0  0  3  0  0  0  0  0  0
  161.2730  205.3330  151.9630 C   0  0  0  0  0  0  0  0  0  0  0  0
  160.9470  205.3870  149.5210 C   0  0  0  0  0  3  0  0  0  0  0  0
  161.2450  205.9870  150.6940 C   0  0  0  0  0  0  0  0  0  0  0  0
  160.3250  201.6020  149.6010 C   0  0  0  0  0  0  0  0  0  0  0  0
  159.0710  201.4840  149.0070 O   0  0  0  0  0  0  0  0  0  0  0  0
  161.0090  200.5620  149.8180 O   0  0  0  0  0  1  0  0  0  0  0  0
  162.1260  210.2220  148.2800 C   0  0  0  0  0  2  0  0  0  0  0  0
  161.2100  213.7550  149.3270 C   0  0  0  0  0  2  0  0  0  0  0  0
  161.2850  212.2110  147.0550 O   0  0  0  0  0  0  0  0  0  0  0  0
  157.6240  213.9130  148.2110 C   0  0  0  0  0  0  0  0  0  0  0  0
  158.7630  214.2140  148.8630 C   0  0  0  0  0  3  0  0  0  0  0  0
  160.1060  213.8880  148.2770 C   0  0  2  0  0  3  0  0  0  0  0  0
  159.0380  212.8370  146.3350 C   0  0  0  0  0  2  0  0  0  0  0  0
  160.0050  212.6050  147.4780 C   0  0  1  0  0  3  0  0  0  0  0  0
  157.6360  213.1070  146.9170 C   0  0  0  0  0  2  0  0  0  0  0  0
  162.0310  211.7660  148.1920 C   0  0  1  0  0  3  0  0  0  0  0  0
  161.6220  212.3560  149.4890 N   0  0  0  0  0  2  0  0  0  0  0  0
  156.3300  214.2540  148.8290 C   0  0  0  0  0  0  0  0  0  0  0  0
  156.2340  214.3720  150.0800 O   0  0  0  0  0  1  0  0  0  0  0  0
  155.2020  214.4530  148.0420 O   0  0  0  0  0  0  0  0  0  0  0  0
  1 17  1  0  0  0  0
  1 10  2  0  0  0  0
  3  9  1  0  0  0  0
  4  8  1  0  0  0  0
  5  4  1  0  0  0  0
  5  1  1  0  0  0  0
  6  7  1  6  0  0  0
  8  6  1  0  0  0  0
  9 11  2  0  0  0  0
 10  6  1  0  0  0  0
 10  9  1  0  0  0  0
 12  2  1  0  0  0  0
 13 12  1  0  0  0  0
 14 16  1  0  0  0  0
 14 13  2  0  0  0  0
 15  2  2  0  0  0  0
 15  3  1  0  0  0  0
 16 17  2  0  0  0  0
 17 15  1  0  0  0  0
 18 20  1  0  0  0  0
 18 13  1  0  0  0  0
 19 18  2  0  0  0  0
 21  4  1  0  0  0  0
 22 31  1  0  0  0  0
 23 28  1  0  0  0  0
 23 30  1  0  0  0  0
 24 32  1  0  0  0  0
 24 25  2  0  0  0  0
 26 25  1  1  0  0  0
 26 22  1  0  0  0  0
 27 29  1  0  0  0  0
 28 27  1  6  0  0  0
 28 26  1  0  0  0  0
 29 24  1  0  0  0  0
 30 21  1  1  0  0  0
 30 31  1  0  0  0  0
 32 33  1  0  0  0  0
 34 32  2  0  0  0  0
M  END
>  <MODEL>
7

>  <REMARK>
 VINA RESULT:      -8.0      1.814      2.419
  Name = 
  4 active torsions:
  status: ('A' for Active; 'I' for Inactive)
    1  A    between atoms: C_3  and  C_25
    2  A    between atoms: C_7  and  C_11
    3  A    between atoms: N_8  and  C_18
    4  A    between atoms: C_18  and  C_30
                            x       y       z     vdW  Elec       q    Type
                         _______ _______ _______ _____ _____    ______ ____

>  <TORSDO>
F 4

$$$$
=
 OpenBabel11062409273D

 34 38  0  0  1  0  0  0  0  0999 V2000
  161.2620  207.2600  151.2840 C   0  0  0  0  0  0  0  0  0  0  0  0
  161.1360  204.9830  148.3890 C   0  0  0  0  0  3  0  0  0  0  0  0
  161.8460  207.1160  148.6050 O   0  0  0  0  0  0  0  0  0  0  0  0
  161.1120  208.6700  153.3650 N   0  0  0  0  0  0  0  0  0  0  0  0
  160.8450  207.3660  152.7420 C   0  0  0  0  0  2  0  0  0  0  0  0
  161.7420  209.7410  151.2580 C   0  0  2  0  0  3  0  0  0  0  0  0
  163.0620  209.9720  151.6570 O   0  0  0  0  0  1  0  0  0  0  0  0
  160.8200  209.7840  152.4640 C   0  0  0  0  0  2  0  0  0  0  0  0
  161.9750  208.2840  149.2200 C   0  0  0  0  0  0  0  0  0  0  0  0
  161.6360  208.4110  150.5710 C   0  0  0  0  0  0  0  0  0  0  0  0
  162.3820  209.2820  148.5670 O   0  0  0  0  0  0  0  0  0  0  0  0
  160.3710  203.7530  148.7450 C   0  0  0  0  0  2  0  0  0  0  0  0
  161.0130  202.9560  149.8220 C   0  0  0  0  0  0  0  0  0  0  0  0
  161.2420  203.4880  151.0210 C   0  0  0  0  0  3  0  0  0  0  0  0
  161.4170  206.0090  149.2050 C   0  0  0  0  0  0  0  0  0  0  0  0
  161.1160  204.9080  151.3890 C   0  0  0  0  0  3  0  0  0  0  0  0
  161.2070  206.0130  150.6180 C   0  0  0  0  0  0  0  0  0  0  0  0
  161.2340  201.5140  149.6040 C   0  0  0  0  0  0  0  0  0  0  0  0
  161.4410  201.0230  148.3190 O   0  0  0  0  0  0  0  0  0  0  0  0
  161.2200  200.7110  150.5800 O   0  0  0  0  0  1  0  0  0  0  0  0
  160.3060  208.8340  154.5880 C   0  0  0  0  0  2  0  0  0  0  0  0
  159.7440  211.4720  157.2600 C   0  0  0  0  0  2  0  0  0  0  0  0
  160.5030  211.3090  154.6250 O   0  0  0  0  0  0  0  0  0  0  0  0
  157.1250  213.6020  155.6090 C   0  0  0  0  0  0  0  0  0  0  0  0
  157.8960  213.0590  156.5700 C   0  0  0  0  0  3  0  0  0  0  0  0
  159.2650  212.5270  156.2620 C   0  0  2  0  0  3  0  0  0  0  0  0
  158.9750  213.0640  153.8860 C   0  0  0  0  0  2  0  0  0  0  0  0
  159.2740  211.9450  154.8630 C   0  0  1  0  0  3  0  0  0  0  0  0
  157.5450  213.5790  154.1430 C   0  0  0  0  0  2  0  0  0  0  0  0
  160.5680  210.1190  155.4150 C   0  0  1  0  0  3  0  0  0  0  0  0
  159.7570  210.1350  156.6550 N   0  0  0  0  0  2  0  0  0  0  0  0
  155.7880  214.1110  155.9620 C   0  0  0  0  0  0  0  0  0  0  0  0
  155.4590  214.2510  157.1710 O   0  0  0  0  0  1  0  0  0  0  0  0
  154.8740  214.4450  154.9690 O   0  0  0  0  0  0  0  0  0  0  0  0
  1  5  1  0  0  0  0
  2 12  1  0  0  0  0
  2 15  2  0  0  0  0
  3 15  1  0  0  0  0
  3  9  1  0  0  0  0
  4 21  1  0  0  0  0
  5  4  1  0  0  0  0
  6  7  1  1  0  0  0
  6  8  1  0  0  0  0
  8  4  1  0  0  0  0
  9 10  1  0  0  0  0
 10  6  1  0  0  0  0
 10  1  2  0  0  0  0
 11  9  2  0  0  0  0
 12 13  1  0  0  0  0
 13 14  2  0  0  0  0
 14 16  1  0  0  0  0
 15 17  1  0  0  0  0
 17  1  1  0  0  0  0
 17 16  2  0  0  0  0
 18 13  1  0  0  0  0
 18 20  1  0  0  0  0
 19 18  2  0  0  0  0
 23 28  1  0  0  0  0
 23 30  1  0  0  0  0
 24 32  1  0  0  0  0
 24 25  2  0  0  0  0
 26 25  1  1  0  0  0
 26 22  1  0  0  0  0
 27 29  1  0  0  0  0
 28 27  1  6  0  0  0
 28 26  1  0  0  0  0
 29 24  1  0  0  0  0
 30 21  1  6  0  0  0
 30 31  1  0  0  0  0
 31 22  1  0  0  0  0
 32 33  1  0  0  0  0
 34 32  2  0  0  0  0
M  END
>  <MODEL>
8

>  <REMARK>
 VINA RESULT:      -7.9      4.247      6.739
  Name = 
  4 active torsions:
  status: ('A' for Active; 'I' for Inactive)
    1  A    between atoms: C_3  and  C_25
    2  A    between atoms: C_7  and  C_11
    3  A    between atoms: N_8  and  C_18
    4  A    between atoms: C_18  and  C_30
                            x       y       z     vdW  Elec       q    Type
                         _______ _______ _______ _____ _____    ______ ____

>  <TORSDO>
F 4

$$$$
=
 OpenBabel11062409273D

 34 38  0  0  1  0  0  0  0  0999 V2000
  161.1960  204.0340  148.4180 C   0  0  0  0  0  0  0  0  0  0  0  0
  160.5990  202.2580  145.2450 C   0  0  0  0  0  3  0  0  0  0  0  0
  161.0660  204.4190  145.7030 O   0  0  0  0  0  0  0  0  0  0  0  0
  161.4240  205.0490  150.7120 N   0  0  0  0  0  0  0  0  0  0  0  0
  161.1680  203.8340  149.9250 C   0  0  0  0  0  2  0  0  0  0  0  0
  161.3370  206.5330  148.7690 C   0  0  2  0  0  3  0  0  0  0  0  0
  162.6750  206.9200  148.8820 O   0  0  0  0  0  1  0  0  0  0  0  0
  160.7670  206.2250  150.1430 C   0  0  0  0  0  2  0  0  0  0  0  0
  161.2060  205.4790  146.4880 C   0  0  0  0  0  0  0  0  0  0  0  0
  161.2220  205.3300  147.8780 C   0  0  0  0  0  0  0  0  0  0  0  0
  161.2970  206.6230  145.9670 O   0  0  0  0  0  0  0  0  0  0  0  0
  160.1150  200.8750  145.5230 C   0  0  0  0  0  2  0  0  0  0  0  0
  161.1140  200.0380  146.2380 C   0  0  0  0  0  0  0  0  0  0  0  0
  161.5820  200.4040  147.4300 C   0  0  0  0  0  3  0  0  0  0  0  0
  160.9540  203.1740  146.1580 C   0  0  0  0  0  0  0  0  0  0  0  0
  161.3790  201.7050  148.0900 C   0  0  0  0  0  3  0  0  0  0  0  0
  161.1250  202.9180  147.5520 C   0  0  0  0  0  0  0  0  0  0  0  0
  161.4480  198.7090  145.6950 C   0  0  0  0  0  0  0  0  0  0  0  0
  160.4390  197.8550  145.2610 O   0  0  0  0  0  0  0  0  0  0  0  0
  162.6520  198.3280  145.6350 O   0  0  0  0  0  1  0  0  0  0  0  0
  160.9550  204.8760  152.0980 C   0  0  0  0  0  2  0  0  0  0  0  0
  160.9460  207.4820  154.8600 C   0  0  0  0  0  2  0  0  0  0  0  0
  162.3230  206.8980  152.5560 O   0  0  0  0  0  0  0  0  0  0  0  0
  160.4060  210.6210  152.8660 C   0  0  0  0  0  0  0  0  0  0  0  0
  160.4530  209.7780  153.9150 C   0  0  0  0  0  3  0  0  0  0  0  0
  161.3980  208.6120  153.9340 C   0  0  2  0  0  3  0  0  0  0  0  0
  162.1880  209.1730  151.6810 C   0  0  0  0  0  2  0  0  0  0  0  0
  161.5660  208.0800  152.5260 C   0  0  1  0  0  3  0  0  0  0  0  0
  161.2030  210.3550  151.5930 C   0  0  0  0  0  2  0  0  0  0  0  0
  161.5360  205.8590  153.1460 C   0  0  1  0  0  3  0  0  0  0  0  0
  160.4900  206.3170  154.0920 N   0  0  0  0  0  2  0  0  0  0  0  0
  159.4610  211.7520  152.8950 C   0  0  0  0  0  0  0  0  0  0  0  0
  159.7720  212.8540  152.3670 O   0  0  0  0  0  0  0  0  0  0  0  0
  158.2170  211.6190  153.5000 O   0  0  0  0  0  1  0  0  0  0  0  0
  1  5  1  0  0  0  0
  2 12  1  0  0  0  0
  2 15  2  0  0  0  0
  3 15  1  0  0  0  0
  3  9  1  0  0  0  0
  4 21  1  0  0  0  0
  5  4  1  0  0  0  0
  6  7  1  1  0  0  0
  6  8  1  0  0  0  0
  8  4  1  0  0  0  0
  9 10  1  0  0  0  0
 10  1  2  0  0  0  0
 10  6  1  0  0  0  0
 11  9  2  0  0  0  0
 12 13  1  0  0  0  0
 13 14  2  0  0  0  0
 14 16  1  0  0  0  0
 15 17  1  0  0  0  0
 17 16  2  0  0  0  0
 17  1  1  0  0  0  0
 18 13  1  0  0  0  0
 19 18  2  0  0  0  0
 20 18  1  0  0  0  0
 23 30  1  0  0  0  0
 24 32  1  0  0  0  0
 24 25  2  0  0  0  0
 26 25  1  6  0  0  0
 26 22  1  0  0  0  0
 28 27  1  6  0  0  0
 28 23  1  0  0  0  0
 28 26  1  0  0  0  0
 29 27  1  0  0  0  0
 29 24  1  0  0  0  0
 30 21  1  6  0  0  0
 30 31  1  0  0  0  0
 31 22  1  0  0  0  0
 32 34  1  0  0  0  0
 33 32  2  0  0  0  0
M  END
>  <MODEL>
9

>  <REMARK>
 VINA RESULT:      -7.9      4.627      6.829
  Name = 
  4 active torsions:
  status: ('A' for Active; 'I' for Inactive)
    1  A    between atoms: C_3  and  C_25
    2  A    between atoms: C_7  and  C_11
    3  A    between atoms: N_8  and  C_18
    4  A    between atoms: C_18  and  C_30
                            x       y       z     vdW  Elec       q    Type
                         _______ _______ _______ _____ _____    ______ ____

>  <TORSDO>
F 4

$$$$
