=
 OpenBabel11052422243D

 31 35  0  0  1  0  0  0  0  0999 V2000
  161.2200  201.9030  150.4860 C   0  0  0  0  0  0  0  0  0  0  0  0
  161.0700  205.4400  149.0120 C   0  0  1  0  0  3  0  0  0  0  0  0
  161.4730  205.0700  147.5660 C   0  0  1  0  0  3  0  0  0  0  0  0
  160.5200  203.6980  145.6450 C   0  0  0  0  0  2  0  0  0  0  0  0
  161.0830  204.2720  149.9700 C   0  0  0  0  0  0  0  0  0  0  0  0
  161.0830  202.1880  151.8470 C   0  0  0  0  0  3  0  0  0  0  0  0
  160.2230  204.4650  146.9230 C   0  0  0  0  0  2  0  0  0  0  0  0
  161.6460  206.9380  151.0100 C   0  0  1  0  0  3  0  0  0  0  0  0
  161.3550  200.6200  150.0720 F   0  0  0  0  0  0  0  0  0  0  0  0
  162.9090  207.1390  147.5250 C   0  0  0  0  0  3  0  0  0  0  0  0
  160.7350  204.6670  144.4960 C   0  0  0  0  0  2  0  0  0  0  0  0
  160.7410  205.9650  151.7830 C   0  0  0  0  0  2  0  0  0  0  0  0
  161.8420  206.5530  149.5980 N   0  0  0  0  0  0  0  0  0  0  0  0
  161.2180  202.9400  149.5480 C   0  0  0  0  0  3  0  0  0  0  0  0
  162.1440  205.1650  144.4940 C   0  0  0  0  0  3  0  0  0  0  0  0
  160.9410  204.5500  151.3390 C   0  0  0  0  0  0  0  0  0  0  0  0
  160.9390  203.5110  152.2740 C   0  0  0  0  0  3  0  0  0  0  0  0
  162.8220  207.2710  148.8410 C   0  0  0  0  0  3  0  0  0  0  0  0
  161.9570  206.2870  146.7490 C   0  0  1  0  0  3  0  0  0  0  0  0
  162.6820  205.8750  145.4950 C   0  0  0  0  0  3  0  0  0  0  0  0
  161.0750  208.3500  151.1220 C   0  0  0  0  0  2  0  0  0  0  0  0
  160.3410  208.4860  152.3100 O   0  0  0  0  0  0  0  0  0  0  0  0
  162.1540  210.1840  152.6800 C   0  0  0  0  0  1  0  0  0  0  0  0
  158.9410  211.5300  152.8740 O   0  0  0  0  0  0  0  0  0  0  0  0
  159.7520  210.6260  153.2070 C   0  0  0  0  0  0  0  0  0  0  0  0
  160.3840  209.7130  154.2660 N   0  0  0  0  0  0  0  0  0  0  0  0
  160.7360  209.6920  152.9160 C   0  0  1  0  0  0  0  0  0  0  0  0
  160.4670  209.2260  155.6360 C   0  0  0  0  0  0  0  0  0  0  0  0
  159.5250  209.8990  156.4180 O   0  0  0  0  0  1  0  0  0  0  0  0
  161.8540  209.4930  156.1830 C   0  0  0  0  0  1  0  0  0  0  0  0
  160.1830  207.7360  155.6790 C   0  0  0  0  0  1  0  0  0  0  0  0
  1  6  1  0  0  0  0
  2 13  1  0  0  0  0
  2  5  1  1  0  0  0
  3  7  1  6  0  0  0
  3  2  1  0  0  0  0
  4  7  1  0  0  0  0
  5 16  2  0  0  0  0
  6 17  2  0  0  0  0
  8 21  1  6  0  0  0
  8 12  1  0  0  0  0
  9  1  1  0  0  0  0
 10 18  2  0  0  0  0
 11  4  1  0  0  0  0
 13  8  1  0  0  0  0
 14  5  1  0  0  0  0
 14  1  2  0  0  0  0
 15 11  1  0  0  0  0
 15 20  2  0  0  0  0
 16 12  1  0  0  0  0
 16 17  1  0  0  0  0
 18 13  1  0  0  0  0
 19 20  1  6  0  0  0
 19 10  1  0  0  0  0
 19  3  1  0  0  0  0
 21 22  1  0  0  0  0
 22 27  1  0  0  0  0
 24 25  2  0  0  0  0
 25 26  1  0  0  0  0
 26 28  1  0  0  0  0
 27 23  1  6  0  0  0
 27 25  1  0  0  0  0
 27 26  1  0  0  0  0
 28 31  1  0  0  0  0
 28 30  1  0  0  0  0
 28 29  1  0  0  0  0
M  END
>  <MODEL>
1

>  <REMARK>
 VINA RESULT:      -7.0      0.000      0.000
  Name = 
  4 active torsions:
  status: ('A' for Active; 'I' for Inactive)
    1  A    between atoms: C_1  and  N_19
    2  A    between atoms: O_9  and  C_22
    3  A    between atoms: O_9  and  C_23
    4  A    between atoms: C_15  and  C_23
                            x       y       z     vdW  Elec       q    Type
                         _______ _______ _______ _____ _____    ______ ____

>  <TORSDO>
F 4

$$$$
=
 OpenBabel11052422243D

 31 35  0  0  1  0  0  0  0  0999 V2000
  160.8640  204.7860  152.0750 C   0  0  0  0  0  0  0  0  0  0  0  0
  161.3980  208.5330  152.6890 C   0  0  1  0  0  3  0  0  0  0  0  0
  160.7890  208.5910  154.1090 C   0  0  1  0  0  3  0  0  0  0  0  0
  161.3060  207.6380  156.4120 C   0  0  0  0  0  2  0  0  0  0  0  0
  161.3090  207.1730  152.0380 C   0  0  0  0  0  0  0  0  0  0  0  0
  161.1900  204.7010  150.7180 C   0  0  0  0  0  3  0  0  0  0  0  0
  161.8540  208.0170  155.0460 C   0  0  0  0  0  2  0  0  0  0  0  0
  161.2790  209.5410  150.3350 C   0  0  1  0  0  3  0  0  0  0  0  0
  160.4890  203.6750  152.7520 F   0  0  0  0  0  0  0  0  0  0  0  0
  159.6930  210.7640  153.4610 C   0  0  0  0  0  3  0  0  0  0  0  0
  161.1210  208.8830  157.2610 C   0  0  0  0  0  2  0  0  0  0  0  0
  162.1010  208.3020  149.9470 C   0  0  0  0  0  2  0  0  0  0  0  0
  160.8740  209.5500  151.7560 N   0  0  0  0  0  0  0  0  0  0  0  0
  160.9250  206.0160  152.7350 C   0  0  0  0  0  3  0  0  0  0  0  0
  159.8130  209.5350  156.9460 C   0  0  0  0  0  3  0  0  0  0  0  0
  161.6380  207.0790  150.6760 C   0  0  0  0  0  0  0  0  0  0  0  0
  161.5810  205.8470  150.0190 C   0  0  0  0  0  3  0  0  0  0  0  0
  159.9410  210.5500  152.1770 C   0  0  0  0  0  3  0  0  0  0  0  0
  160.4130  210.0240  154.5420 C   0  0  1  0  0  3  0  0  0  0  0  0
  159.5020  210.0310  155.7410 C   0  0  0  0  0  3  0  0  0  0  0  0
  162.0700  210.7980  149.9800 C   0  0  0  0  0  2  0  0  0  0  0  0
  161.7710  211.2090  148.6720 O   0  0  0  0  0  0  0  0  0  0  0  0
  160.6390  213.0550  149.9430 C   0  0  0  0  0  1  0  0  0  0  0  0
  163.2210  214.1780  147.8820 O   0  0  0  0  0  0  0  0  0  0  0  0
  162.1850  213.4770  148.0250 C   0  0  0  0  0  0  0  0  0  0  0  0
  160.8220  212.9770  147.5280 N   0  0  0  0  0  0  0  0  0  0  0  0
  161.4070  212.5660  148.7260 C   0  0  1  0  0  0  0  0  0  0  0  0
  159.7760  212.9400  146.5160 C   0  0  0  0  0  0  0  0  0  0  0  0
  160.0300  211.8880  145.6330 O   0  0  0  0  0  1  0  0  0  0  0  0
  159.7700  214.2470  145.7490 C   0  0  0  0  0  1  0  0  0  0  0  0
  158.4220  212.7310  147.1700 C   0  0  0  0  0  1  0  0  0  0  0  0
  1 14  1  0  0  0  0
  1  9  1  0  0  0  0
  2  5  1  6  0  0  0
  2  3  1  0  0  0  0
  3 19  1  0  0  0  0
  3  7  1  1  0  0  0
  4 11  1  0  0  0  0
  5 14  2  0  0  0  0
  6  1  2  0  0  0  0
  7  4  1  0  0  0  0
  8 21  1  1  0  0  0
  8 13  1  0  0  0  0
 12  8  1  0  0  0  0
 12 16  1  0  0  0  0
 13 18  1  0  0  0  0
 13  2  1  0  0  0  0
 15 11  1  0  0  0  0
 16  5  1  0  0  0  0
 17 16  2  0  0  0  0
 17  6  1  0  0  0  0
 18 10  2  0  0  0  0
 19 10  1  6  0  0  0
 19 20  1  0  0  0  0
 20 15  2  0  0  0  0
 22 27  1  0  0  0  0
 22 21  1  0  0  0  0
 24 25  2  0  0  0  0
 25 27  1  0  0  0  0
 26 25  1  0  0  0  0
 26 27  1  0  0  0  0
 27 23  1  1  0  0  0
 28 31  1  0  0  0  0
 28 26  1  0  0  0  0
 29 28  1  0  0  0  0
 30 28  1  0  0  0  0
M  END
>  <MODEL>
2

>  <REMARK>
 VINA RESULT:      -6.6      3.825      7.507
  Name = 
  4 active torsions:
  status: ('A' for Active; 'I' for Inactive)
    1  A    between atoms: C_1  and  N_19
    2  A    between atoms: O_9  and  C_22
    3  A    between atoms: O_9  and  C_23
    4  A    between atoms: C_15  and  C_23
                            x       y       z     vdW  Elec       q    Type
                         _______ _______ _______ _____ _____    ______ ____

>  <TORSDO>
F 4

$$$$
=
 OpenBabel11052422243D

 31 35  0  0  1  0  0  0  0  0999 V2000
  162.1050  210.7020  149.5920 C   0  0  0  0  0  0  0  0  0  0  0  0
  160.7120  208.2480  152.1890 C   0  0  1  0  0  3  0  0  0  0  0  0
  160.7010  209.2180  153.3930 C   0  0  1  0  0  3  0  0  0  0  0  0
  159.5110  211.3670  154.0610 C   0  0  0  0  0  2  0  0  0  0  0  0
  161.2900  208.8450  150.9270 C   0  0  0  0  0  0  0  0  0  0  0  0
  162.3530  209.8320  148.5270 C   0  0  0  0  0  3  0  0  0  0  0  0
  159.4780  210.1160  153.1980 C   0  0  0  0  0  2  0  0  0  0  0  0
  161.5530  205.9720  151.3630 C   0  0  1  0  0  3  0  0  0  0  0  0
  162.3810  212.0220  149.4670 F   0  0  0  0  0  0  0  0  0  0  0  0
  161.5540  207.3250  154.8200 C   0  0  0  0  0  3  0  0  0  0  0  0
  159.1260  211.0220  155.4890 C   0  0  0  0  0  2  0  0  0  0  0  0
  161.1820  206.5290  149.9780 C   0  0  0  0  0  2  0  0  0  0  0  0
  161.3650  206.9510  152.4520 N   0  0  0  0  0  0  0  0  0  0  0  0
  161.5730  210.2120  150.7890 C   0  0  0  0  0  3  0  0  0  0  0  0
  160.3130  210.5070  156.2360 C   0  0  0  0  0  3  0  0  0  0  0  0
  161.5370  207.9770  149.8500 C   0  0  0  0  0  0  0  0  0  0  0  0
  162.0650  208.4700  148.6540 C   0  0  0  0  0  3  0  0  0  0  0  0
  161.8660  206.6090  153.7490 C   0  0  0  0  0  3  0  0  0  0  0  0
  160.6160  208.4880  154.7500 C   0  0  1  0  0  3  0  0  0  0  0  0
  160.9720  209.3900  155.9020 C   0  0  0  0  0  3  0  0  0  0  0  0
  160.7500  204.6990  151.6220 C   0  0  0  0  0  2  0  0  0  0  0  0
  160.0870  204.2950  150.4540 O   0  0  0  0  0  0  0  0  0  0  0  0
  161.9760  202.6600  150.7060 C   0  0  0  0  0  1  0  0  0  0  0  0
  159.1240  201.2630  149.2620 O   0  0  0  0  0  0  0  0  0  0  0  0
  159.9620  202.2010  149.2990 C   0  0  0  0  0  0  0  0  0  0  0  0
  160.9040  203.1880  148.5980 N   0  0  0  0  0  0  0  0  0  0  0  0
  160.7280  203.1360  149.9820 C   0  0  1  0  0  0  0  0  0  0  0  0
  161.4700  203.7580  147.3840 C   0  0  0  0  0  0  0  0  0  0  0  0
  162.8440  203.9400  147.5600 O   0  0  0  0  0  1  0  0  0  0  0  0
  160.8210  205.0980  147.1040 C   0  0  0  0  0  1  0  0  0  0  0  0
  161.2340  202.8260  146.2090 C   0  0  0  0  0  1  0  0  0  0  0  0
  1 14  1  0  0  0  0
  2  5  1  6  0  0  0
  2 13  1  0  0  0  0
  2  3  1  0  0  0  0
  3  7  1  6  0  0  0
  3 19  1  0  0  0  0
  4 11  1  0  0  0  0
  6 17  1  0  0  0  0
  6  1  2  0  0  0  0
  7  4  1  0  0  0  0
  8 21  1  1  0  0  0
  8 13  1  0  0  0  0
  9  1  1  0  0  0  0
 11 15  1  0  0  0  0
 12  8  1  0  0  0  0
 13 18  1  0  0  0  0
 14  5  2  0  0  0  0
 16 12  1  0  0  0  0
 16  5  1  0  0  0  0
 17 16  2  0  0  0  0
 18 10  2  0  0  0  0
 19 10  1  6  0  0  0
 19 20  1  0  0  0  0
 20 15  2  0  0  0  0
 22 21  1  0  0  0  0
 24 25  2  0  0  0  0
 25 27  1  0  0  0  0
 26 25  1  0  0  0  0
 26 27  1  0  0  0  0
 27 22  1  0  0  0  0
 27 23  1  1  0  0  0
 28 29  1  0  0  0  0
 28 26  1  0  0  0  0
 30 28  1  0  0  0  0
 31 28  1  0  0  0  0
M  END
>  <MODEL>
3

>  <REMARK>
 VINA RESULT:      -6.5      3.370      8.374
  Name = 
  4 active torsions:
  status: ('A' for Active; 'I' for Inactive)
    1  A    between atoms: C_1  and  N_19
    2  A    between atoms: O_9  and  C_22
    3  A    between atoms: O_9  and  C_23
    4  A    between atoms: C_15  and  C_23
                            x       y       z     vdW  Elec       q    Type
                         _______ _______ _______ _____ _____    ______ ____

>  <TORSDO>
F 4

$$$$
=
 OpenBabel11052422243D

 31 35  0  0  1  0  0  0  0  0999 V2000
  161.4370  213.2050  148.9380 C   0  0  0  0  0  0  0  0  0  0  0  0
  160.3400  211.1840  152.0070 C   0  0  1  0  0  3  0  0  0  0  0  0
  159.7640  212.3620  152.8250 C   0  0  1  0  0  3  0  0  0  0  0  0
  157.8490  214.0280  152.6250 C   0  0  0  0  0  2  0  0  0  0  0  0
  160.9660  211.5970  150.6950 C   0  0  0  0  0  0  0  0  0  0  0  0
  162.1700  212.2380  148.2450 C   0  0  0  0  0  3  0  0  0  0  0  0
  158.3960  212.6720  152.2120 C   0  0  0  0  0  2  0  0  0  0  0  0
  162.0040  209.2360  152.0590 C   0  0  1  0  0  3  0  0  0  0  0  0
  161.3100  214.4530  148.4280 F   0  0  0  0  0  0  0  0  0  0  0  0
  160.8260  211.3500  154.8730 C   0  0  0  0  0  3  0  0  0  0  0  0
  157.2860  213.9540  154.0330 C   0  0  0  0  0  2  0  0  0  0  0  0
  161.7930  209.2380  150.5360 C   0  0  0  0  0  2  0  0  0  0  0  0
  161.2880  210.3290  152.7460 N   0  0  0  0  0  0  0  0  0  0  0  0
  160.8340  212.8870  150.1590 C   0  0  0  0  0  3  0  0  0  0  0  0
  158.3800  214.1180  155.0380 C   0  0  0  0  0  3  0  0  0  0  0  0
  161.7010  210.6280  149.9910 C   0  0  0  0  0  0  0  0  0  0  0  0
  162.2990  210.9480  148.7690 C   0  0  0  0  0  3  0  0  0  0  0  0
  161.5720  210.5430  154.1330 C   0  0  0  0  0  3  0  0  0  0  0  0
  159.6130  212.0330  154.3260 C   0  0  1  0  0  3  0  0  0  0  0  0
  159.4100  213.2700  155.1590 C   0  0  0  0  0  3  0  0  0  0  0  0
  161.6000  207.8740  152.6180 C   0  0  0  0  0  2  0  0  0  0  0  0
  160.8620  207.1550  151.6660 O   0  0  0  0  0  0  0  0  0  0  0  0
  163.1000  206.0170  151.6110 C   0  0  0  0  0  1  0  0  0  0  0  0
  160.4230  203.7910  151.8450 O   0  0  0  0  0  0  0  0  0  0  0  0
  160.9450  204.7920  151.2890 C   0  0  0  0  0  0  0  0  0  0  0  0
  161.3140  205.5890  150.0300 N   0  0  0  0  0  0  0  0  0  0  0  0
  161.6070  206.0120  151.3270 C   0  0  1  0  0  0  0  0  0  0  0  0
  161.2900  205.7600  148.5850 C   0  0  0  0  0  0  0  0  0  0  0  0
  160.0420  206.2590  148.2040 O   0  0  0  0  0  1  0  0  0  0  0  0
  161.5190  204.4210  147.9130 C   0  0  0  0  0  1  0  0  0  0  0  0
  162.3730  206.7330  148.1550 C   0  0  0  0  0  1  0  0  0  0  0  0
  1 14  1  0  0  0  0
  2  5  1  6  0  0  0
  2 13  1  0  0  0  0
  2  3  1  0  0  0  0
  3  7  1  6  0  0  0
  3 19  1  0  0  0  0
  4 11  1  0  0  0  0
  6 17  1  0  0  0  0
  6  1  2  0  0  0  0
  7  4  1  0  0  0  0
  8 21  1  1  0  0  0
  8 13  1  0  0  0  0
  9  1  1  0  0  0  0
 11 15  1  0  0  0  0
 12  8  1  0  0  0  0
 13 18  1  0  0  0  0
 14  5  2  0  0  0  0
 15 20  2  0  0  0  0
 16 12  1  0  0  0  0
 16  5  1  0  0  0  0
 17 16  2  0  0  0  0
 18 10  2  0  0  0  0
 19 10  1  1  0  0  0
 19 20  1  0  0  0  0
 22 21  1  0  0  0  0
 25 27  1  0  0  0  0
 25 24  2  0  0  0  0
 26 25  1  0  0  0  0
 26 27  1  0  0  0  0
 27 23  1  1  0  0  0
 27 22  1  0  0  0  0
 28 26  1  0  0  0  0
 29 28  1  0  0  0  0
 30 28  1  0  0  0  0
 31 28  1  0  0  0  0
M  END
>  <MODEL>
4

>  <REMARK>
 VINA RESULT:      -6.4      3.735      8.760
  Name = 
  4 active torsions:
  status: ('A' for Active; 'I' for Inactive)
    1  A    between atoms: C_1  and  N_19
    2  A    between atoms: O_9  and  C_22
    3  A    between atoms: O_9  and  C_23
    4  A    between atoms: C_15  and  C_23
                            x       y       z     vdW  Elec       q    Type
                         _______ _______ _______ _____ _____    ______ ____

>  <TORSDO>
F 4

$$$$
=
 OpenBabel11052422243D

 31 35  0  0  1  0  0  0  0  0999 V2000
  161.2240  201.8580  150.5010 C   0  0  0  0  0  0  0  0  0  0  0  0
  161.0040  205.4810  149.2640 C   0  0  1  0  0  3  0  0  0  0  0  0
  161.4620  205.2230  147.8100 C   0  0  1  0  0  3  0  0  0  0  0  0
  160.6140  203.9560  145.7710 C   0  0  0  0  0  2  0  0  0  0  0  0
  161.0250  204.2510  150.1410 C   0  0  0  0  0  0  0  0  0  0  0  0
  161.0360  202.0450  151.8730 C   0  0  0  0  0  3  0  0  0  0  0  0
  160.2530  204.6240  147.0880 C   0  0  0  0  0  2  0  0  0  0  0  0
  161.4690  206.8560  151.3760 C   0  0  1  0  0  3  0  0  0  0  0  0
  161.4140  200.6110  150.0070 F   0  0  0  0  0  0  0  0  0  0  0  0
  162.8310  207.3330  147.9550 C   0  0  0  0  0  3  0  0  0  0  0  0
  160.8320  205.0070  144.6980 C   0  0  0  0  0  2  0  0  0  0  0  0
  160.5730  205.8060  152.0520 C   0  0  0  0  0  2  0  0  0  0  0  0
  161.7210  206.5740  149.9480 N   0  0  0  0  0  0  0  0  0  0  0  0
  161.2160  202.9550  149.6360 C   0  0  0  0  0  3  0  0  0  0  0  0
  162.2240  205.5470  144.7750 C   0  0  0  0  0  3  0  0  0  0  0  0
  160.8330  204.4310  151.5210 C   0  0  0  0  0  0  0  0  0  0  0  0
  160.8360  203.3310  152.3830 C   0  0  0  0  0  3  0  0  0  0  0  0
  162.6990  207.3720  149.2740 C   0  0  0  0  0  3  0  0  0  0  0  0
  161.9310  206.5060  147.0930 C   0  0  1  0  0  3  0  0  0  0  0  0
  162.7070  206.2030  145.8390 C   0  0  0  0  0  3  0  0  0  0  0  0
  160.8480  208.2390  151.5630 C   0  0  0  0  0  2  0  0  0  0  0  0
  161.7660  209.1060  152.1750 O   0  0  0  0  0  0  0  0  0  0  0  0
  160.4410  208.3680  154.1770 C   0  0  0  0  0  1  0  0  0  0  0  0
  162.9180  210.7030  154.9430 O   0  0  0  0  0  0  0  0  0  0  0  0
  161.9560  210.3550  154.2090 C   0  0  0  0  0  0  0  0  0  0  0  0
  160.6550  210.6720  153.4600 N   0  0  0  0  0  0  0  0  0  0  0  0
  161.2670  209.4180  153.4520 C   0  0  1  0  0  0  0  0  0  0  0  0
  159.6280  211.6170  153.0450 C   0  0  0  0  0  0  0  0  0  0  0  0
  158.4520  210.9180  152.7620 O   0  0  0  0  0  1  0  0  0  0  0  0
  160.0880  212.3480  151.8000 C   0  0  0  0  0  1  0  0  0  0  0  0
  159.3620  212.6210  154.1520 C   0  0  0  0  0  1  0  0  0  0  0  0
  1  6  1  0  0  0  0
  2 13  1  0  0  0  0
  2  5  1  1  0  0  0
  3  7  1  6  0  0  0
  3  2  1  0  0  0  0
  4  7  1  0  0  0  0
  5 16  2  0  0  0  0
  6 17  2  0  0  0  0
  8 21  1  6  0  0  0
  8 12  1  0  0  0  0
  9  1  1  0  0  0  0
 10 18  2  0  0  0  0
 11 15  1  0  0  0  0
 11  4  1  0  0  0  0
 13  8  1  0  0  0  0
 14  5  1  0  0  0  0
 14  1  2  0  0  0  0
 15 20  2  0  0  0  0
 16 12  1  0  0  0  0
 16 17  1  0  0  0  0
 18 13  1  0  0  0  0
 19 20  1  6  0  0  0
 19  3  1  0  0  0  0
 19 10  1  0  0  0  0
 21 22  1  0  0  0  0
 22 27  1  0  0  0  0
 25 24  2  0  0  0  0
 26 25  1  0  0  0  0
 27 26  1  0  0  0  0
 27 23  1  1  0  0  0
 27 25  1  0  0  0  0
 28 26  1  0  0  0  0
 28 31  1  0  0  0  0
 29 28  1  0  0  0  0
 30 28  1  0  0  0  0
M  END
>  <MODEL>
5

>  <REMARK>
 VINA RESULT:      -6.3      1.112      2.035
  Name = 
  4 active torsions:
  status: ('A' for Active; 'I' for Inactive)
    1  A    between atoms: C_1  and  N_19
    2  A    between atoms: O_9  and  C_22
    3  A    between atoms: O_9  and  C_23
    4  A    between atoms: C_15  and  C_23
                            x       y       z     vdW  Elec       q    Type
                         _______ _______ _______ _____ _____    ______ ____

>  <TORSDO>
F 4

$$$$
=
 OpenBabel11052422243D

 31 35  0  0  1  0  0  0  0  0999 V2000
  161.3120  201.2330  149.5640 C   0  0  0  0  0  0  0  0  0  0  0  0
  160.9060  204.9350  148.6520 C   0  0  1  0  0  3  0  0  0  0  0  0
  161.3240  204.8210  147.1680 C   0  0  1  0  0  3  0  0  0  0  0  0
  160.4560  203.6970  145.0550 C   0  0  0  0  0  2  0  0  0  0  0  0
  161.0060  203.6370  149.4180 C   0  0  0  0  0  0  0  0  0  0  0  0
  161.1640  201.2950  150.9520 C   0  0  0  0  0  3  0  0  0  0  0  0
  160.1150  204.2360  146.4340 C   0  0  0  0  0  2  0  0  0  0  0  0
  161.3890  206.1450  150.8590 C   0  0  1  0  0  3  0  0  0  0  0  0
  161.5330  200.0410  148.9590 F   0  0  0  0  0  0  0  0  0  0  0  0
  162.6120  206.9670  147.4520 C   0  0  0  0  0  3  0  0  0  0  0  0
  160.5950  204.8440  144.0700 C   0  0  0  0  0  2  0  0  0  0  0  0
  160.5590  205.0040  151.4700 C   0  0  0  0  0  2  0  0  0  0  0  0
  161.6020  205.9950  149.4050 N   0  0  0  0  0  0  0  0  0  0  0  0
  161.2310  202.3990  148.7970 C   0  0  0  0  0  3  0  0  0  0  0  0
  161.9660  205.4340  144.1500 C   0  0  0  0  0  3  0  0  0  0  0  0
  160.8550  203.6910  150.8140 C   0  0  0  0  0  0  0  0  0  0  0  0
  160.9310  202.5230  151.5780 C   0  0  0  0  0  3  0  0  0  0  0  0
  162.5240  206.8890  148.7720 C   0  0  0  0  0  3  0  0  0  0  0  0
  161.7170  206.1800  146.5490 C   0  0  1  0  0  3  0  0  0  0  0  0
  162.4600  206.0170  145.2510 C   0  0  0  0  0  3  0  0  0  0  0  0
  160.7220  207.4790  151.1840 C   0  0  0  0  0  2  0  0  0  0  0  0
  160.3700  207.5300  152.5420 O   0  0  0  0  0  0  0  0  0  0  0  0
  162.1480  207.6400  154.3120 C   0  0  0  0  0  1  0  0  0  0  0  0
  162.7070  209.8310  151.6540 O   0  0  0  0  0  0  0  0  0  0  0  0
  161.9160  209.3590  152.5120 C   0  0  0  0  0  0  0  0  0  0  0  0
  160.8320  209.5400  153.5830 N   0  0  0  0  0  0  0  0  0  0  0  0
  161.3450  208.2990  153.2030 C   0  0  1  0  0  0  0  0  0  0  0  0
  159.9280  210.3920  154.3420 C   0  0  0  0  0  0  0  0  0  0  0  0
  158.9970  210.9630  153.4710 O   0  0  0  0  0  1  0  0  0  0  0  0
  160.7200  211.4920  155.0190 C   0  0  0  0  0  1  0  0  0  0  0  0
  159.1980  209.5750  155.3930 C   0  0  0  0  0  1  0  0  0  0  0  0
  1  6  1  0  0  0  0
  2 13  1  0  0  0  0
  2  5  1  1  0  0  0
  3  7  1  6  0  0  0
  3  2  1  0  0  0  0
  4  7  1  0  0  0  0
  5 16  2  0  0  0  0
  6 17  2  0  0  0  0
  8 21  1  6  0  0  0
  8 12  1  0  0  0  0
  9  1  1  0  0  0  0
 10 18  2  0  0  0  0
 11 15  1  0  0  0  0
 11  4  1  0  0  0  0
 13  8  1  0  0  0  0
 14  5  1  0  0  0  0
 14  1  2  0  0  0  0
 15 20  2  0  0  0  0
 16 12  1  0  0  0  0
 16 17  1  0  0  0  0
 18 13  1  0  0  0  0
 19 20  1  6  0  0  0
 19  3  1  0  0  0  0
 19 10  1  0  0  0  0
 21 22  1  0  0  0  0
 22 27  1  0  0  0  0
 24 25  2  0  0  0  0
 25 27  1  0  0  0  0
 25 26  1  0  0  0  0
 26 28  1  0  0  0  0
 27 26  1  0  0  0  0
 27 23  1  1  0  0  0
 28 30  1  0  0  0  0
 28 31  1  0  0  0  0
 29 28  1  0  0  0  0
M  END
>  <MODEL>
6

>  <REMARK>
 VINA RESULT:      -5.5      1.137      1.576
  Name = 
  4 active torsions:
  status: ('A' for Active; 'I' for Inactive)
    1  A    between atoms: C_1  and  N_19
    2  A    between atoms: O_9  and  C_22
    3  A    between atoms: O_9  and  C_23
    4  A    between atoms: C_15  and  C_23
                            x       y       z     vdW  Elec       q    Type
                         _______ _______ _______ _____ _____    ______ ____

>  <TORSDO>
F 4

$$$$
=
 OpenBabel11052422243D

 31 35  0  0  1  0  0  0  0  0999 V2000
  161.3180  205.9530  153.6620 C   0  0  0  0  0  0  0  0  0  0  0  0
  161.0480  207.9770  150.4150 C   0  0  1  0  0  3  0  0  0  0  0  0
  161.5350  206.8720  149.4510 C   0  0  1  0  0  3  0  0  0  0  0  0
  160.7450  204.5810  148.6680 C   0  0  0  0  0  2  0  0  0  0  0  0
  161.0790  207.5770  151.8720 C   0  0  0  0  0  0  0  0  0  0  0  0
  161.1040  206.9590  154.6070 C   0  0  0  0  0  3  0  0  0  0  0  0
  160.3500  205.9210  149.2680 C   0  0  0  0  0  2  0  0  0  0  0  0
  161.4530  210.3880  151.1860 C   0  0  1  0  0  3  0  0  0  0  0  0
  161.5400  204.6800  154.0650 F   0  0  0  0  0  0  0  0  0  0  0  0
  162.8600  208.6340  148.2320 C   0  0  0  0  0  3  0  0  0  0  0  0
  160.9600  204.7250  147.1720 C   0  0  0  0  0  2  0  0  0  0  0  0
  160.5660  209.9770  152.3730 C   0  0  0  0  0  2  0  0  0  0  0  0
  161.7330  209.2750  150.2570 N   0  0  0  0  0  0  0  0  0  0  0  0
  161.3040  206.2580  152.2970 C   0  0  0  0  0  3  0  0  0  0  0  0
  162.3400  205.2270  146.8920 C   0  0  0  0  0  3  0  0  0  0  0  0
  160.8610  208.5830  152.8290 C   0  0  0  0  0  0  0  0  0  0  0  0
  160.8720  208.2740  154.1920 C   0  0  0  0  0  3  0  0  0  0  0  0
  162.7060  209.4930  149.2300 C   0  0  0  0  0  3  0  0  0  0  0  0
  161.9910  207.4260  148.0840 C   0  0  1  0  0  3  0  0  0  0  0  0
  162.7930  206.4190  147.3030 C   0  0  0  0  0  3  0  0  0  0  0  0
  160.8030  211.5630  150.4590 C   0  0  0  0  0  2  0  0  0  0  0  0
  161.4970  211.8470  149.2730 O   0  0  0  0  0  0  0  0  0  0  0  0
  160.3700  214.0070  149.8840 C   0  0  0  0  0  1  0  0  0  0  0  0
  163.3980  214.4530  148.2080 O   0  0  0  0  0  0  0  0  0  0  0  0
  162.2800  213.8790  148.2770 C   0  0  0  0  0  0  0  0  0  0  0  0
  160.9840  213.3810  147.6250 N   0  0  0  0  0  0  0  0  0  0  0  0
  161.2880  213.2050  148.9750 C   0  0  1  0  0  0  0  0  0  0  0  0
  160.1440  213.1970  146.4500 C   0  0  0  0  0  0  0  0  0  0  0  0
  159.3840  212.0360  146.6080 O   0  0  0  0  0  1  0  0  0  0  0  0
  161.0190  213.0580  145.2200 C   0  0  0  0  0  1  0  0  0  0  0  0
  159.2160  214.3860  146.2780 C   0  0  0  0  0  1  0  0  0  0  0  0
  1  9  1  0  0  0  0
  1  6  1  0  0  0  0
  2  5  1  1  0  0  0
  3  7  1  6  0  0  0
  3  2  1  0  0  0  0
  4  7  1  0  0  0  0
  5 14  1  0  0  0  0
  5 16  2  0  0  0  0
  8 21  1  6  0  0  0
  8 12  1  0  0  0  0
 10 18  2  0  0  0  0
 11  4  1  0  0  0  0
 12 16  1  0  0  0  0
 13  2  1  0  0  0  0
 13  8  1  0  0  0  0
 14  1  2  0  0  0  0
 15 11  1  0  0  0  0
 15 20  2  0  0  0  0
 16 17  1  0  0  0  0
 17  6  2  0  0  0  0
 18 13  1  0  0  0  0
 19 20  1  1  0  0  0
 19 10  1  0  0  0  0
 19  3  1  0  0  0  0
 22 21  1  0  0  0  0
 24 25  2  0  0  0  0
 25 27  1  0  0  0  0
 26 25  1  0  0  0  0
 26 27  1  0  0  0  0
 27 22  1  0  0  0  0
 27 23  1  1  0  0  0
 28 29  1  0  0  0  0
 28 26  1  0  0  0  0
 30 28  1  0  0  0  0
 31 28  1  0  0  0  0
M  END
>  <MODEL>
7

>  <REMARK>
 VINA RESULT:      -5.3      3.903      5.588
  Name = 
  4 active torsions:
  status: ('A' for Active; 'I' for Inactive)
    1  A    between atoms: C_1  and  N_19
    2  A    between atoms: O_9  and  C_22
    3  A    between atoms: O_9  and  C_23
    4  A    between atoms: C_15  and  C_23
                            x       y       z     vdW  Elec       q    Type
                         _______ _______ _______ _____ _____    ______ ____

>  <TORSDO>
F 4

$$$$
=
 OpenBabel11052422243D

 31 35  0  0  1  0  0  0  0  0999 V2000
  161.2070  201.7680  148.9480 C   0  0  0  0  0  0  0  0  0  0  0  0
  160.9400  205.2390  150.5560 C   0  0  1  0  0  3  0  0  0  0  0  0
  161.4200  206.0600  149.3380 C   0  0  1  0  0  3  0  0  0  0  0  0
  160.6180  206.5520  146.9720 C   0  0  0  0  0  2  0  0  0  0  0  0
  160.9720  203.7440  150.3390 C   0  0  0  0  0  0  0  0  0  0  0  0
  160.9990  200.9530  150.0640 C   0  0  0  0  0  3  0  0  0  0  0  0
  160.2300  206.1230  148.3770 C   0  0  0  0  0  2  0  0  0  0  0  0
  161.3560  204.7730  153.0420 C   0  0  1  0  0  3  0  0  0  0  0  0
  161.4240  201.2100  147.7330 F   0  0  0  0  0  0  0  0  0  0  0  0
  162.7510  207.4890  150.9290 C   0  0  0  0  0  3  0  0  0  0  0  0
  160.8310  208.0550  146.9290 C   0  0  0  0  0  2  0  0  0  0  0  0
  160.4700  203.5430  152.7850 C   0  0  0  0  0  2  0  0  0  0  0  0
  161.6300  205.5580  151.8210 N   0  0  0  0  0  0  0  0  0  0  0  0
  161.1910  203.1590  149.0820 C   0  0  0  0  0  3  0  0  0  0  0  0
  162.2120  208.3970  147.3860 C   0  0  0  0  0  3  0  0  0  0  0  0
  160.7600  202.9190  151.4560 C   0  0  0  0  0  0  0  0  0  0  0  0
  160.7720  201.5280  151.3180 C   0  0  0  0  0  3  0  0  0  0  0  0
  162.6020  206.6050  151.9060 C   0  0  0  0  0  3  0  0  0  0  0  0
  161.8760  207.4850  149.7170 C   0  0  1  0  0  3  0  0  0  0  0  0
  162.6710  208.1370  148.6170 C   0  0  0  0  0  3  0  0  0  0  0  0
  160.7100  205.6390  154.1210 C   0  0  0  0  0  2  0  0  0  0  0  0
  161.4410  206.8240  154.2980 O   0  0  0  0  0  0  0  0  0  0  0  0
  159.4200  207.1150  155.7610 C   0  0  0  0  0  1  0  0  0  0  0  0
  162.3290  208.4650  157.1360 O   0  0  0  0  0  0  0  0  0  0  0  0
  161.5630  208.3430  156.1450 C   0  0  0  0  0  0  0  0  0  0  0  0
  160.7960  208.9410  154.9580 N   0  0  0  0  0  0  0  0  0  0  0  0
  160.7850  207.5840  155.2820 C   0  0  1  0  0  0  0  0  0  0  0  0
  160.4380  210.0780  154.1220 C   0  0  0  0  0  0  0  0  0  0  0  0
  161.4500  211.0380  154.1970 O   0  0  0  0  0  1  0  0  0  0  0  0
  159.1390  210.6810  154.6190 C   0  0  0  0  0  1  0  0  0  0  0  0
  160.2710  209.6350  152.6800 C   0  0  0  0  0  1  0  0  0  0  0  0
  1 14  2  0  0  0  0
  1  6  1  0  0  0  0
  2  5  1  6  0  0  0
  2 13  1  0  0  0  0
  3  7  1  6  0  0  0
  3 19  1  0  0  0  0
  3  2  1  0  0  0  0
  4  7  1  0  0  0  0
  5 16  2  0  0  0  0
  6 17  2  0  0  0  0
  8 21  1  1  0  0  0
  9  1  1  0  0  0  0
 10 18  2  0  0  0  0
 11  4  1  0  0  0  0
 11 15  1  0  0  0  0
 12  8  1  0  0  0  0
 13 18  1  0  0  0  0
 13  8  1  0  0  0  0
 14  5  1  0  0  0  0
 15 20  2  0  0  0  0
 16 12  1  0  0  0  0
 17 16  1  0  0  0  0
 19 20  1  6  0  0  0
 19 10  1  0  0  0  0
 21 22  1  0  0  0  0
 22 27  1  0  0  0  0
 25 24  2  0  0  0  0
 26 27  1  0  0  0  0
 26 25  1  0  0  0  0
 27 23  1  1  0  0  0
 27 25  1  0  0  0  0
 28 29  1  0  0  0  0
 28 30  1  0  0  0  0
 28 26  1  0  0  0  0
 31 28  1  0  0  0  0
M  END
>  <MODEL>
8

>  <REMARK>
 VINA RESULT:      -4.8      1.886      3.123
  Name = 
  4 active torsions:
  status: ('A' for Active; 'I' for Inactive)
    1  A    between atoms: C_1  and  N_19
    2  A    between atoms: O_9  and  C_22
    3  A    between atoms: O_9  and  C_23
    4  A    between atoms: C_15  and  C_23
                            x       y       z     vdW  Elec       q    Type
                         _______ _______ _______ _____ _____    ______ ____

>  <TORSDO>
F 4

$$$$
=
 OpenBabel11052422243D

 31 35  0  0  1  0  0  0  0  0999 V2000
  161.7780  212.0090  149.5300 C   0  0  0  0  0  0  0  0  0  0  0  0
  160.6080  209.3120  151.9930 C   0  0  1  0  0  3  0  0  0  0  0  0
  160.2360  210.2550  153.1590 C   0  0  1  0  0  3  0  0  0  0  0  0
  158.5420  212.1010  153.6120 C   0  0  0  0  0  2  0  0  0  0  0  0
  161.2060  210.0190  150.7990 C   0  0  0  0  0  0  0  0  0  0  0  0
  162.3390  211.2130  148.5280 C   0  0  0  0  0  3  0  0  0  0  0  0
  158.8860  210.8730  152.7860 C   0  0  0  0  0  2  0  0  0  0  0  0
  162.0110  207.2680  151.3410 C   0  0  1  0  0  3  0  0  0  0  0  0
  161.7820  213.3580  149.4060 F   0  0  0  0  0  0  0  0  0  0  0  0
  161.2760  208.5850  154.7330 C   0  0  0  0  0  3  0  0  0  0  0  0
  158.0560  211.6810  154.9880 C   0  0  0  0  0  2  0  0  0  0  0  0
  161.7140  207.7340  149.9060 C   0  0  0  0  0  2  0  0  0  0  0  0
  161.4810  208.1830  152.3710 N   0  0  0  0  0  0  0  0  0  0  0  0
  161.2100  211.4160  150.6610 C   0  0  0  0  0  3  0  0  0  0  0  0
  159.2180  211.4290  155.8940 C   0  0  0  0  0  3  0  0  0  0  0  0
  161.7690  209.2250  149.7860 C   0  0  0  0  0  0  0  0  0  0  0  0
  162.3320  209.8210  148.6530 C   0  0  0  0  0  3  0  0  0  0  0  0
  161.8690  207.9540  153.7290 C   0  0  0  0  0  3  0  0  0  0  0  0
  160.1310  209.5220  154.5130 C   0  0  1  0  0  3  0  0  0  0  0  0
  160.1360  210.4780  155.6760 C   0  0  0  0  0  3  0  0  0  0  0  0
  161.4680  205.8530  151.5290 C   0  0  0  0  0  2  0  0  0  0  0  0
  162.0540  204.9790  150.6010 O   0  0  0  0  0  0  0  0  0  0  0  0
  159.7120  205.3180  149.7610 C   0  0  0  0  0  1  0  0  0  0  0  0
  162.0360  204.8130  147.2080 O   0  0  0  0  0  0  0  0  0  0  0  0
  161.5600  204.4550  148.3170 C   0  0  0  0  0  0  0  0  0  0  0  0
  161.0640  203.3660  149.2770 N   0  0  0  0  0  0  0  0  0  0  0  0
  161.1010  204.7230  149.5990 C   0  0  1  0  0  0  0  0  0  0  0  0
  160.8210  201.9650  149.5890 C   0  0  0  0  0  0  0  0  0  0  0  0
  161.5860  201.1660  148.7360 O   0  0  0  0  0  1  0  0  0  0  0  0
  159.3530  201.6490  149.3870 C   0  0  0  0  0  1  0  0  0  0  0  0
  161.2070  201.6750  151.0290 C   0  0  0  0  0  1  0  0  0  0  0  0
  1 14  1  0  0  0  0
  2  5  1  6  0  0  0
  2 13  1  0  0  0  0
  2  3  1  0  0  0  0
  3  7  1  6  0  0  0
  3 19  1  0  0  0  0
  4 11  1  0  0  0  0
  6 17  1  0  0  0  0
  6  1  2  0  0  0  0
  7  4  1  0  0  0  0
  8 21  1  1  0  0  0
  8 13  1  0  0  0  0
  9  1  1  0  0  0  0
 11 15  1  0  0  0  0
 12  8  1  0  0  0  0
 13 18  1  0  0  0  0
 14  5  2  0  0  0  0
 16 12  1  0  0  0  0
 16  5  1  0  0  0  0
 17 16  2  0  0  0  0
 18 10  2  0  0  0  0
 19 10  1  1  0  0  0
 19 20  1  0  0  0  0
 20 15  2  0  0  0  0
 22 21  1  0  0  0  0
 24 25  2  0  0  0  0
 25 26  1  0  0  0  0
 25 27  1  0  0  0  0
 26 28  1  0  0  0  0
 26 27  1  0  0  0  0
 27 23  1  1  0  0  0
 27 22  1  0  0  0  0
 28 31  1  0  0  0  0
 29 28  1  0  0  0  0
 30 28  1  0  0  0  0
M  END
>  <MODEL>
9

>  <REMARK>
 VINA RESULT:      -4.4      3.672      8.452
  Name = 
  4 active torsions:
  status: ('A' for Active; 'I' for Inactive)
    1  A    between atoms: C_1  and  N_19
    2  A    between atoms: O_9  and  C_22
    3  A    between atoms: O_9  and  C_23
    4  A    between atoms: C_15  and  C_23
                            x       y       z     vdW  Elec       q    Type
                         _______ _______ _______ _____ _____    ______ ____

>  <TORSDO>
F 4

$$$$
