=
 OpenBabel11052423203D

 27 31  0  0  1  0  0  0  0  0999 V2000
  162.0250  206.7150  148.7770 N   0  0  0  0  0  0  0  0  0  0  0  0
  161.9450  207.9170  149.5360 C   0  0  0  0  0  0  0  0  0  0  0  0
  161.1660  206.2060  150.9550 C   0  0  2  0  0  3  0  0  0  0  0  0
  161.2710  211.0780  152.0710 C   0  0  0  0  0  3  0  0  0  0  0  0
  160.7730  210.8780  153.4440 C   0  0  0  0  0  3  0  0  0  0  0  0
  162.1530  209.1550  149.0820 C   0  0  0  0  0  3  0  0  0  0  0  0
  160.4560  208.4360  153.0230 C   0  0  0  0  0  3  0  0  0  0  0  0
  161.0120  203.4070  150.5450 C   0  0  2  0  0  3  0  0  0  0  0  0
  162.0240  205.8280  153.4180 C   0  0  0  0  0  1  0  0  0  0  0  0
  159.5650  202.9650  150.6140 C   0  0  0  0  0  1  0  0  0  0  0  0
  161.1980  208.6590  151.7330 C   0  0  0  0  0  0  0  0  0  0  0  0
  160.4220  209.6680  153.8920 C   0  0  0  0  0  3  0  0  0  0  0  0
  161.4750  210.0400  151.2610 C   0  0  2  0  0  3  0  0  0  0  0  0
  161.9140  205.6350  149.7530 C   0  0  1  0  0  3  0  0  0  0  0  0
  161.5130  207.6590  150.8980 C   0  0  0  0  0  0  0  0  0  0  0  0
  161.4400  203.9870  151.8980 C   0  0  0  0  0  3  0  0  0  0  0  0
  161.9540  210.2410  149.9540 O   0  0  0  0  0  0  0  0  0  0  0  0
  161.9540  203.6990  148.3450 O   0  0  0  0  0  1  0  0  0  0  0  0
  161.2060  204.3550  149.3230 C   0  0  1  0  0  3  0  0  0  0  0  0
  161.5190  205.3160  152.1120 C   0  0  0  0  0  0  0  0  0  0  0  0
  162.7410  206.5930  147.5090 C   0  0  0  0  0  2  0  0  0  0  0  0
  160.2620  204.8230  144.4870 C   0  0  0  0  0  3  0  0  0  0  0  0
  161.8730  205.9650  146.4700 C   0  0  0  0  0  0  0  0  0  0  0  0
  160.5540  206.4000  146.3030 C   0  0  0  0  0  3  0  0  0  0  0  0
  159.7480  205.8280  145.3130 C   0  0  0  0  0  3  0  0  0  0  0  0
  161.5820  204.3900  144.6500 C   0  0  0  0  0  3  0  0  0  0  0  0
  162.3870  204.9620  145.6400 C   0  0  0  0  0  3  0  0  0  0  0  0
  1  2  1  0  0  0  0
  2 15  1  0  0  0  0
  3 15  1  1  0  0  0
  3 20  1  0  0  0  0
  4  5  2  0  0  0  0
  5 12  1  0  0  0  0
  6  2  2  0  0  0  0
  6 17  1  0  0  0  0
  7 12  2  0  0  0  0
  8 10  1  1  0  0  0
  8 16  1  0  0  0  0
 11  7  1  0  0  0  0
 13 11  1  0  0  0  0
 13  4  1  1  0  0  0
 14  1  1  6  0  0  0
 14  3  1  0  0  0  0
 15 11  2  0  0  0  0
 16 20  2  0  0  0  0
 17 13  1  0  0  0  0
 19 18  1  6  0  0  0
 19 14  1  0  0  0  0
 19  8  1  0  0  0  0
 20  9  1  0  0  0  0
 21  1  1  0  0  0  0
 22 26  2  0  0  0  0
 22 25  1  0  0  0  0
 23 21  1  0  0  0  0
 24 23  1  0  0  0  0
 25 24  2  0  0  0  0
 26 27  1  0  0  0  0
 27 23  2  0  0  0  0
M  END
>  <MODEL>
1

>  <REMARK>
 VINA RESULT:      -7.8      0.000      0.000
  Name = 
  2 active torsions:
  status: ('A' for Active; 'I' for Inactive)
    1  A    between atoms: N_1  and  C_15
    2  A    between atoms: C_9  and  C_15
                            x       y       z     vdW  Elec       q    Type
                         _______ _______ _______ _____ _____    ______ ____

>  <TORSDO>
F 2

$$$$
=
 OpenBabel11052423203D

 27 31  0  0  1  0  0  0  0  0999 V2000
  161.6580  208.6100  151.9330 N   0  0  0  0  0  0  0  0  0  0  0  0
  161.3190  209.9350  151.5380 C   0  0  0  0  0  0  0  0  0  0  0  0
  160.4010  209.6490  153.6880 C   0  0  2  0  0  3  0  0  0  0  0  0
  159.8610  213.7080  150.8200 C   0  0  0  0  0  3  0  0  0  0  0  0
  159.1010  214.4520  151.8400 C   0  0  0  0  0  3  0  0  0  0  0  0
  161.5150  210.4770  150.3330 C   0  0  0  0  0  3  0  0  0  0  0  0
  159.0850  212.4610  153.3490 C   0  0  0  0  0  3  0  0  0  0  0  0
  160.5710  207.4640  155.4820 C   0  0  2  0  0  3  0  0  0  0  0  0
  160.7440  211.3460  155.6760 C   0  0  0  0  0  1  0  0  0  0  0  0
  159.1840  206.9100  155.7390 C   0  0  0  0  0  1  0  0  0  0  0  0
  160.0640  211.8430  152.3860 C   0  0  0  0  0  0  0  0  0  0  0  0
  158.7650  213.8940  153.0080 C   0  0  0  0  0  3  0  0  0  0  0  0
  160.3180  212.4820  151.0690 C   0  0  2  0  0  3  0  0  0  0  0  0
  161.4320  208.5680  153.3750 C   0  0  1  0  0  3  0  0  0  0  0  0
  160.6300  210.6480  152.6000 C   0  0  0  0  0  0  0  0  0  0  0  0
  160.6520  208.9090  155.9860 C   0  0  0  0  0  3  0  0  0  0  0  0
  161.0460  211.7800  150.0900 O   0  0  0  0  0  0  0  0  0  0  0  0
  161.9310  206.2820  153.8800 O   0  0  0  0  0  1  0  0  0  0  0  0
  160.9410  207.2590  153.9820 C   0  0  1  0  0  3  0  0  0  0  0  0
  160.5730  209.9620  155.1470 C   0  0  0  0  0  0  0  0  0  0  0  0
  162.6340  207.7730  151.2400 C   0  0  0  0  0  2  0  0  0  0  0  0
  160.7520  205.2620  148.3140 C   0  0  0  0  0  3  0  0  0  0  0  0
  161.9630  206.9080  150.2250 C   0  0  0  0  0  0  0  0  0  0  0  0
  161.9520  207.2890  148.8790 C   0  0  0  0  0  3  0  0  0  0  0  0
  161.3450  206.4660  147.9230 C   0  0  0  0  0  3  0  0  0  0  0  0
  160.7670  204.8780  149.6590 C   0  0  0  0  0  3  0  0  0  0  0  0
  161.3740  205.7000  150.6130 C   0  0  0  0  0  3  0  0  0  0  0  0
  2  1  1  0  0  0  0
  2 15  1  0  0  0  0
  3 15  1  6  0  0  0
  3 20  1  0  0  0  0
  4  5  2  0  0  0  0
  5 12  1  0  0  0  0
  6  2  2  0  0  0  0
  8 10  1  6  0  0  0
  8 16  1  0  0  0  0
 11 15  2  0  0  0  0
 11  7  1  0  0  0  0
 12  7  2  0  0  0  0
 13  4  1  1  0  0  0
 13 11  1  0  0  0  0
 14  1  1  6  0  0  0
 14  3  1  0  0  0  0
 14 19  1  0  0  0  0
 17  6  1  0  0  0  0
 17 13  1  0  0  0  0
 19 18  1  1  0  0  0
 19  8  1  0  0  0  0
 20  9  1  0  0  0  0
 20 16  2  0  0  0  0
 21  1  1  0  0  0  0
 22 26  1  0  0  0  0
 23 27  1  0  0  0  0
 23 21  1  0  0  0  0
 24 23  2  0  0  0  0
 25 22  2  0  0  0  0
 25 24  1  0  0  0  0
 26 27  2  0  0  0  0
M  END
>  <MODEL>
2

>  <REMARK>
 VINA RESULT:      -7.5      2.308      4.508
  Name = 
  2 active torsions:
  status: ('A' for Active; 'I' for Inactive)
    1  A    between atoms: N_1  and  C_15
    2  A    between atoms: C_9  and  C_15
                            x       y       z     vdW  Elec       q    Type
                         _______ _______ _______ _____ _____    ______ ____

>  <TORSDO>
F 2

$$$$
=
 OpenBabel11052423203D

 27 31  0  0  1  0  0  0  0  0999 V2000
  161.8890  209.8490  151.0320 N   0  0  0  0  0  0  0  0  0  0  0  0
  161.6110  209.9020  152.4270 C   0  0  0  0  0  0  0  0  0  0  0  0
  161.1860  207.6800  151.7690 C   0  0  2  0  0  3  0  0  0  0  0  0
  160.4370  209.5440  156.3480 C   0  0  0  0  0  3  0  0  0  0  0  0
  160.0150  208.2500  156.9150 C   0  0  0  0  0  3  0  0  0  0  0  0
  161.5820  210.9990  153.1880 C   0  0  0  0  0  3  0  0  0  0  0  0
  160.1340  207.1700  154.6660 C   0  0  0  0  0  2  0  0  0  0  0  0
  161.5290  206.4090  149.2610 C   0  0  2  0  0  3  0  0  0  0  0  0
  162.1540  205.5640  153.0070 C   0  0  0  0  0  1  0  0  0  0  0  0
  160.1870  205.9250  148.7510 C   0  0  0  0  0  1  0  0  0  0  0  0
  160.7940  208.4400  154.1960 C   0  0  0  0  0  0  0  0  0  0  0  0
  159.8980  207.1570  156.1540 C   0  0  0  0  0  3  0  0  0  0  0  0
  160.8060  209.6410  155.0710 C   0  0  0  0  0  0  0  0  0  0  0  0
  161.9960  208.4280  150.7140 C   0  0  1  0  0  3  0  0  0  0  0  0
  161.2640  208.5920  152.9510 C   0  0  0  0  0  0  0  0  0  0  0  0
  161.8770  205.6880  150.5680 C   0  0  0  0  0  3  0  0  0  0  0  0
  161.2110  210.8790  154.5390 O   0  0  0  0  0  0  0  0  0  0  0  0
  162.3520  208.4830  148.3480 O   0  0  0  0  0  1  0  0  0  0  0  0
  161.5210  207.9660  149.3410 C   0  0  1  0  0  3  0  0  0  0  0  0
  161.7200  206.2760  151.7710 C   0  0  0  0  0  0  0  0  0  0  0  0
  162.5850  210.9010  150.2950 C   0  0  0  0  0  2  0  0  0  0  0  0
  159.8440  213.3190  148.0500 C   0  0  0  0  0  3  0  0  0  0  0  0
  161.6190  211.7290  149.5150 C   0  0  0  0  0  0  0  0  0  0  0  0
  160.7530  212.6040  150.1780 C   0  0  0  0  0  3  0  0  0  0  0  0
  159.8640  213.3990  149.4460 C   0  0  0  0  0  3  0  0  0  0  0  0
  160.7130  212.4480  147.3850 C   0  0  0  0  0  3  0  0  0  0  0  0
  161.6010  211.6540  148.1180 C   0  0  0  0  0  3  0  0  0  0  0  0
  1  2  1  0  0  0  0
  2 15  1  0  0  0  0
  2  6  2  0  0  0  0
  3 20  1  1  0  0  0
  3 15  1  0  0  0  0
  4  5  1  0  0  0  0
  6 17  1  0  0  0  0
  7 12  1  0  0  0  0
  8 10  1  1  0  0  0
  8 19  1  0  0  0  0
  8 16  1  0  0  0  0
 11  7  1  0  0  0  0
 11 13  1  0  0  0  0
 12  5  2  0  0  0  0
 13  4  2  0  0  0  0
 14  1  1  6  0  0  0
 14  3  1  0  0  0  0
 15 11  2  0  0  0  0
 16 20  2  0  0  0  0
 17 13  1  0  0  0  0
 19 18  1  6  0  0  0
 19 14  1  0  0  0  0
 20  9  1  0  0  0  0
 21  1  1  0  0  0  0
 22 25  1  0  0  0  0
 23 24  1  0  0  0  0
 23 21  1  0  0  0  0
 25 24  2  0  0  0  0
 26 22  2  0  0  0  0
 26 27  1  0  0  0  0
 27 23  2  0  0  0  0
M  END
>  <MODEL>
3

>  <REMARK>
 VINA RESULT:      -7.4      2.508      4.859
  Name = 
  2 active torsions:
  status: ('A' for Active; 'I' for Inactive)
    1  A    between atoms: N_1  and  C_15
    2  A    between atoms: C_9  and  C_15
                            x       y       z     vdW  Elec       q    Type
                         _______ _______ _______ _____ _____    ______ ____

>  <TORSDO>
F 2

$$$$
=
 OpenBabel11052423203D

 27 31  0  0  1  0  0  0  0  0999 V2000
  161.0360  209.6790  152.7000 N   0  0  0  0  0  0  0  0  0  0  0  0
  160.3070  210.8880  152.5160 C   0  0  0  0  0  0  0  0  0  0  0  0
  159.6130  210.0280  154.5960 C   0  0  2  0  0  3  0  0  0  0  0  0
  157.7820  214.1260  152.3950 C   0  0  0  0  0  3  0  0  0  0  0  0
  156.8870  214.4530  153.5190 C   0  0  0  0  0  3  0  0  0  0  0  0
  160.2810  211.6360  151.4100 C   0  0  0  0  0  3  0  0  0  0  0  0
  157.5210  212.3450  154.7000 C   0  0  0  0  0  3  0  0  0  0  0  0
  160.4950  207.7490  156.0280 C   0  0  2  0  0  3  0  0  0  0  0  0
  159.5400  211.4360  156.8230 C   0  0  0  0  0  1  0  0  0  0  0  0
  159.3430  206.7800  156.1960 C   0  0  0  0  0  1  0  0  0  0  0  0
  158.5920  212.1930  153.6510 C   0  0  0  0  0  0  0  0  0  0  0  0
  156.7820  213.6540  154.5860 C   0  0  0  0  0  3  0  0  0  0  0  0
  158.5880  213.0670  152.4500 C   0  0  1  0  0  3  0  0  0  0  0  0
  160.8980  209.3590  154.1180 C   0  0  1  0  0  3  0  0  0  0  0  0
  159.4910  211.2000  153.6770 C   0  0  0  0  0  0  0  0  0  0  0  0
  160.1760  209.0620  156.7500 C   0  0  0  0  0  3  0  0  0  0  0  0
  159.4410  212.7640  151.3730 O   0  0  0  0  0  0  0  0  0  0  0  0
  162.0640  207.2730  154.2610 O   0  0  0  0  0  1  0  0  0  0  0  0
  160.8390  207.8870  154.5140 C   0  0  1  0  0  3  0  0  0  0  0  0
  159.7540  210.1570  156.0860 C   0  0  0  0  0  0  0  0  0  0  0  0
  162.1800  209.2800  151.8840 C   0  0  0  0  0  2  0  0  0  0  0  0
  160.9930  206.6590  148.7010 C   0  0  0  0  0  3  0  0  0  0  0  0
  161.7500  208.3760  150.7770 C   0  0  0  0  0  0  0  0  0  0  0  0
  161.9410  208.7590  149.4450 C   0  0  0  0  0  3  0  0  0  0  0  0
  161.5620  207.9020  148.4070 C   0  0  0  0  0  3  0  0  0  0  0  0
  160.8050  206.2710  150.0310 C   0  0  0  0  0  3  0  0  0  0  0  0
  161.1850  207.1290  151.0690 C   0  0  0  0  0  3  0  0  0  0  0  0
  2  1  1  0  0  0  0
  2 15  1  0  0  0  0
  3 15  1  6  0  0  0
  3 20  1  0  0  0  0
  4  5  2  0  0  0  0
  5 12  1  0  0  0  0
  6  2  2  0  0  0  0
  8 10  1  6  0  0  0
  8 16  1  0  0  0  0
 11 15  2  0  0  0  0
 11  7  1  0  0  0  0
 12  7  2  0  0  0  0
 13  4  1  6  0  0  0
 13 11  1  0  0  0  0
 14  1  1  6  0  0  0
 14 19  1  0  0  0  0
 14  3  1  0  0  0  0
 17  6  1  0  0  0  0
 17 13  1  0  0  0  0
 19 18  1  1  0  0  0
 19  8  1  0  0  0  0
 20 16  2  0  0  0  0
 20  9  1  0  0  0  0
 21  1  1  0  0  0  0
 22 26  1  0  0  0  0
 23 27  1  0  0  0  0
 23 21  1  0  0  0  0
 24 23  2  0  0  0  0
 25 22  2  0  0  0  0
 25 24  1  0  0  0  0
 26 27  2  0  0  0  0
M  END
>  <MODEL>
4

>  <REMARK>
 VINA RESULT:      -7.0      2.969      5.485
  Name = 
  2 active torsions:
  status: ('A' for Active; 'I' for Inactive)
    1  A    between atoms: N_1  and  C_15
    2  A    between atoms: C_9  and  C_15
                            x       y       z     vdW  Elec       q    Type
                         _______ _______ _______ _____ _____    ______ ____

>  <TORSDO>
F 2

$$$$
=
 OpenBabel11052423203D

 27 31  0  0  1  0  0  0  0  0999 V2000
  161.1910  210.1150  152.6940 N   0  0  0  0  0  0  0  0  0  0  0  0
  161.0650  208.9050  151.9550 C   0  0  0  0  0  0  0  0  0  0  0  0
  161.2460  208.2640  154.2140 C   0  0  2  0  0  3  0  0  0  0  0  0
  160.9870  205.1360  150.3230 C   0  0  0  0  0  3  0  0  0  0  0  0
  160.9860  203.9270  151.1660 C   0  0  0  0  0  3  0  0  0  0  0  0
  161.0750  208.7850  150.6250 C   0  0  0  0  0  3  0  0  0  0  0  0
  161.3180  205.3030  153.2240 C   0  0  0  0  0  3  0  0  0  0  0  0
  161.4050  209.8390  156.5640 C   0  0  2  0  0  3  0  0  0  0  0  0
  159.5960  206.5930  155.4110 C   0  0  0  0  0  1  0  0  0  0  0  0
  162.7250  209.5760  157.2600 C   0  0  0  0  0  1  0  0  0  0  0  0
  161.0620  206.5010  152.3490 C   0  0  0  0  0  0  0  0  0  0  0  0
  161.1130  203.9990  152.4950 C   0  0  0  0  0  3  0  0  0  0  0  0
  161.0210  206.3500  150.8710 C   0  0  2  0  0  3  0  0  0  0  0  0
  160.9210  209.7490  154.0820 C   0  0  1  0  0  3  0  0  0  0  0  0
  161.0020  207.7490  152.8330 C   0  0  0  0  0  0  0  0  0  0  0  0
  160.5740  208.5520  156.5290 C   0  0  0  0  0  3  0  0  0  0  0  0
  161.0180  207.4980  150.0600 O   0  0  0  0  0  0  0  0  0  0  0  0
  161.2700  211.8300  155.2120 O   0  0  0  0  0  1  0  0  0  0  0  0
  161.6750  210.4960  155.1770 C   0  0  1  0  0  3  0  0  0  0  0  0
  160.4870  207.7890  155.4200 C   0  0  0  0  0  0  0  0  0  0  0  0
  160.9380  211.4430  152.1410 C   0  0  0  0  0  2  0  0  0  0  0  0
  157.2220  213.0030  153.6130 C   0  0  0  0  0  3  0  0  0  0  0  0
  159.6370  211.9840  152.6360 C   0  0  0  0  0  0  0  0  0  0  0  0
  158.6820  211.1200  153.1810 C   0  0  0  0  0  3  0  0  0  0  0  0
  157.4730  211.6290  153.6690 C   0  0  0  0  0  3  0  0  0  0  0  0
  158.1780  213.8690  153.0730 C   0  0  0  0  0  3  0  0  0  0  0  0
  159.3860  213.3600  152.5870 C   0  0  0  0  0  3  0  0  0  0  0  0
  2  1  1  0  0  0  0
  2 15  1  0  0  0  0
  3 15  1  6  0  0  0
  3 20  1  0  0  0  0
  4  5  2  0  0  0  0
  5 12  1  0  0  0  0
  6  2  2  0  0  0  0
  8 10  1  6  0  0  0
  9 20  1  0  0  0  0
 11 15  2  0  0  0  0
 11  7  1  0  0  0  0
 12  7  2  0  0  0  0
 13  4  1  1  0  0  0
 13 11  1  0  0  0  0
 14  1  1  6  0  0  0
 14  3  1  0  0  0  0
 14 19  1  0  0  0  0
 16  8  1  0  0  0  0
 17  6  1  0  0  0  0
 17 13  1  0  0  0  0
 19 18  1  1  0  0  0
 19  8  1  0  0  0  0
 20 16  2  0  0  0  0
 21 23  1  0  0  0  0
 21  1  1  0  0  0  0
 22 25  1  0  0  0  0
 23 24  1  0  0  0  0
 24 25  2  0  0  0  0
 26 22  2  0  0  0  0
 27 23  2  0  0  0  0
 27 26  1  0  0  0  0
M  END
>  <MODEL>
5

>  <REMARK>
 VINA RESULT:      -7.0      3.001      7.356
  Name = 
  2 active torsions:
  status: ('A' for Active; 'I' for Inactive)
    1  A    between atoms: N_1  and  C_15
    2  A    between atoms: C_9  and  C_15
                            x       y       z     vdW  Elec       q    Type
                         _______ _______ _______ _____ _____    ______ ____

>  <TORSDO>
F 2

$$$$
=
 OpenBabel11052423203D

 27 31  0  0  1  0  0  0  0  0999 V2000
  161.8720  206.6290  152.0350 N   0  0  0  0  0  0  0  0  0  0  0  0
  161.5640  205.2780  151.7050 C   0  0  0  0  0  0  0  0  0  0  0  0
  161.6370  206.4420  149.6580 C   0  0  2  0  0  3  0  0  0  0  0  0
  160.4240  201.6240  150.2160 C   0  0  0  0  0  3  0  0  0  0  0  0
  160.2790  201.3880  148.7680 C   0  0  0  0  0  3  0  0  0  0  0  0
  161.2870  204.2960  152.5660 C   0  0  0  0  0  3  0  0  0  0  0  0
  160.6670  203.8090  148.2870 C   0  0  0  0  0  2  0  0  0  0  0  0
  162.2900  209.1410  149.1020 C   0  0  2  0  0  3  0  0  0  0  0  0
  163.0140  205.6450  147.5570 C   0  0  0  0  0  1  0  0  0  0  0  0
  161.0920  209.8350  148.4850 C   0  0  0  0  0  1  0  0  0  0  0  0
  161.0480  203.9380  149.7380 C   0  0  0  0  0  0  0  0  0  0  0  0
  160.4120  202.3800  147.8800 C   0  0  0  0  0  3  0  0  0  0  0  0
  160.7860  202.8190  150.6790 C   0  0  0  0  0  0  0  0  0  0  0  0
  162.2870  207.2470  150.7790 C   0  0  1  0  0  3  0  0  0  0  0  0
  161.4970  205.0840  150.2670 C   0  0  0  0  0  0  0  0  0  0  0  0
  162.7610  208.0080  148.1840 C   0  0  0  0  0  3  0  0  0  0  0  0
  160.9260  203.0340  152.0630 O   0  0  0  0  0  0  0  0  0  0  0  0
  162.6650  209.5130  151.4540 O   0  0  0  0  0  1  0  0  0  0  0  0
  161.9470  208.7170  150.5620 C   0  0  1  0  0  3  0  0  0  0  0  0
  162.4590  206.7170  148.4320 C   0  0  0  0  0  0  0  0  0  0  0  0
  162.3400  207.0640  153.3490 C   0  0  0  0  0  2  0  0  0  0  0  0
  159.1730  208.8400  155.6350 C   0  0  0  0  0  3  0  0  0  0  0  0
  161.2260  207.6780  154.1300 C   0  0  0  0  0  0  0  0  0  0  0  0
  160.4820  206.8970  155.0200 C   0  0  0  0  0  3  0  0  0  0  0  0
  159.4540  207.4770  155.7720 C   0  0  0  0  0  3  0  0  0  0  0  0
  159.9190  209.6230  154.7490 C   0  0  0  0  0  3  0  0  0  0  0  0
  160.9470  209.0430  153.9980 C   0  0  0  0  0  3  0  0  0  0  0  0
  1 21  1  0  0  0  0
  2  1  1  0  0  0  0
  2  6  2  0  0  0  0
  3 20  1  6  0  0  0
  3 15  1  0  0  0  0
  3 14  1  0  0  0  0
  4 13  2  0  0  0  0
  5  4  1  0  0  0  0
  7 11  1  0  0  0  0
  8 10  1  6  0  0  0
  8 19  1  0  0  0  0
  9 20  1  0  0  0  0
 11 15  2  0  0  0  0
 11 13  1  0  0  0  0
 12  7  1  0  0  0  0
 12  5  2  0  0  0  0
 13 17  1  0  0  0  0
 14  1  1  1  0  0  0
 15  2  1  0  0  0  0
 16 20  2  0  0  0  0
 16  8  1  0  0  0  0
 17  6  1  0  0  0  0
 19 14  1  0  0  0  0
 19 18  1  1  0  0  0
 21 23  1  0  0  0  0
 22 25  1  0  0  0  0
 23 24  1  0  0  0  0
 24 25  2  0  0  0  0
 26 22  2  0  0  0  0
 27 23  2  0  0  0  0
 27 26  1  0  0  0  0
M  END
>  <MODEL>
6

>  <REMARK>
 VINA RESULT:      -6.7      2.062      7.287
  Name = 
  2 active torsions:
  status: ('A' for Active; 'I' for Inactive)
    1  A    between atoms: N_1  and  C_15
    2  A    between atoms: C_9  and  C_15
                            x       y       z     vdW  Elec       q    Type
                         _______ _______ _______ _____ _____    ______ ____

>  <TORSDO>
F 2

$$$$
=
 OpenBabel11052423203D

 27 31  0  0  1  0  0  0  0  0999 V2000
  159.7570  210.7150  154.7550 N   0  0  0  0  0  0  0  0  0  0  0  0
  160.2090  209.3750  154.5860 C   0  0  0  0  0  0  0  0  0  0  0  0
  160.2430  210.3410  152.4390 C   0  0  2  0  0  3  0  0  0  0  0  0
  161.3230  205.5750  153.4930 C   0  0  0  0  0  3  0  0  0  0  0  0
  161.6730  205.2410  152.1010 C   0  0  0  0  0  3  0  0  0  0  0  0
  160.2170  208.4190  155.5180 C   0  0  0  0  0  3  0  0  0  0  0  0
  160.9940  207.5190  151.3320 C   0  0  0  0  0  2  0  0  0  0  0  0
  159.6760  212.9890  151.6070 C   0  0  2  0  0  3  0  0  0  0  0  0
  162.3100  210.2390  150.8080 C   0  0  0  0  0  1  0  0  0  0  0  0
  158.4920  212.9800  150.6610 C   0  0  0  0  0  1  0  0  0  0  0  0
  160.8920  207.8760  152.7910 C   0  0  0  0  0  0  0  0  0  0  0  0
  161.5470  206.1340  151.1130 C   0  0  0  0  0  3  0  0  0  0  0  0
  160.9560  206.8120  153.8260 C   0  0  0  0  0  0  0  0  0  0  0  0
  160.1360  211.4060  153.5260 C   0  0  1  0  0  3  0  0  0  0  0  0
  160.6040  209.1150  153.2130 C   0  0  0  0  0  0  0  0  0  0  0  0
  160.8350  212.1970  150.9910 C   0  0  0  0  0  3  0  0  0  0  0  0
  160.6260  207.1220  155.1580 O   0  0  0  0  0  0  0  0  0  0  0  0
  159.2300  213.5910  153.8980 O   0  0  0  0  0  1  0  0  0  0  0  0
  159.2160  212.5100  153.0160 C   0  0  1  0  0  3  0  0  0  0  0  0
  161.1200  210.9360  151.3740 C   0  0  0  0  0  0  0  0  0  0  0  0
  159.6210  211.3760  156.0500 C   0  0  0  0  0  2  0  0  0  0  0  0
  155.5460  212.5490  156.7080 C   0  0  0  0  0  3  0  0  0  0  0  0
  158.2030  211.7740  156.2940 C   0  0  0  0  0  0  0  0  0  0  0  0
  157.9160  212.9150  157.0500 C   0  0  0  0  0  3  0  0  0  0  0  0
  156.5880  213.3020  157.2580 C   0  0  0  0  0  3  0  0  0  0  0  0
  155.8310  211.4100  155.9480 C   0  0  0  0  0  3  0  0  0  0  0  0
  157.1590  211.0240  155.7390 C   0  0  0  0  0  3  0  0  0  0  0  0
  1 21  1  0  0  0  0
  2  1  1  0  0  0  0
  2  6  2  0  0  0  0
  3 20  1  6  0  0  0
  3 15  1  0  0  0  0
  3 14  1  0  0  0  0
  4 13  2  0  0  0  0
  5  4  1  0  0  0  0
  7 11  1  0  0  0  0
  8 10  1  6  0  0  0
  8 19  1  0  0  0  0
  9 20  1  0  0  0  0
 11 15  2  0  0  0  0
 11 13  1  0  0  0  0
 12  7  1  0  0  0  0
 12  5  2  0  0  0  0
 13 17  1  0  0  0  0
 14  1  1  1  0  0  0
 15  2  1  0  0  0  0
 16 20  2  0  0  0  0
 16  8  1  0  0  0  0
 17  6  1  0  0  0  0
 19 14  1  0  0  0  0
 19 18  1  1  0  0  0
 21 23  1  0  0  0  0
 22 25  1  0  0  0  0
 23 24  1  0  0  0  0
 24 25  2  0  0  0  0
 26 22  2  0  0  0  0
 27 26  1  0  0  0  0
 27 23  2  0  0  0  0
M  END
>  <MODEL>
7

>  <REMARK>
 VINA RESULT:      -6.7      3.923      8.894
  Name = 
  2 active torsions:
  status: ('A' for Active; 'I' for Inactive)
    1  A    between atoms: N_1  and  C_15
    2  A    between atoms: C_9  and  C_15
                            x       y       z     vdW  Elec       q    Type
                         _______ _______ _______ _____ _____    ______ ____

>  <TORSDO>
F 2

$$$$
=
 OpenBabel11052423203D

 27 31  0  0  1  0  0  0  0  0999 V2000
  161.8470  204.8160  148.0010 N   0  0  0  0  0  0  0  0  0  0  0  0
  161.9280  206.1550  148.4780 C   0  0  0  0  0  0  0  0  0  0  0  0
  161.1200  204.8750  150.2830 C   0  0  2  0  0  3  0  0  0  0  0  0
  161.7270  209.8380  150.2860 C   0  0  0  0  0  3  0  0  0  0  0  0
  161.3220  209.9880  151.6960 C   0  0  0  0  0  3  0  0  0  0  0  0
  162.2050  207.2400  147.7500 C   0  0  0  0  0  3  0  0  0  0  0  0
  160.7670  207.5570  151.8450 C   0  0  0  0  0  3  0  0  0  0  0  0
  160.6970  202.0840  150.5120 C   0  0  2  0  0  3  0  0  0  0  0  0
  162.1330  204.9520  152.7150 C   0  0  0  0  0  1  0  0  0  0  0  0
  159.2270  201.8140  150.7600 C   0  0  0  0  0  1  0  0  0  0  0  0
  161.4220  207.4220  150.4960 C   0  0  0  0  0  0  0  0  0  0  0  0
  160.9060  208.9440  152.4200 C   0  0  0  0  0  3  0  0  0  0  0  0
  161.7780  208.6350  149.7150 C   0  0  1  0  0  3  0  0  0  0  0  0
  161.7200  203.9880  149.1970 C   0  0  1  0  0  3  0  0  0  0  0  0
  161.5840  206.2400  149.8870 C   0  0  0  0  0  0  0  0  0  0  0  0
  161.2780  202.8940  151.6760 C   0  0  0  0  0  3  0  0  0  0  0  0
  162.1680  208.5010  148.3710 O   0  0  0  0  0  0  0  0  0  0  0  0
  161.4850  201.8010  148.2520 O   0  0  0  0  0  1  0  0  0  0  0  0
  160.8750  202.7230  149.1020 C   0  0  1  0  0  3  0  0  0  0  0  0
  161.4860  204.2240  151.5860 C   0  0  0  0  0  0  0  0  0  0  0  0
  162.4480  204.3540  146.7520 C   0  0  0  0  0  2  0  0  0  0  0  0
  159.3870  203.0670  144.0340 C   0  0  0  0  0  3  0  0  0  0  0  0
  161.3960  203.9040  145.7940 C   0  0  0  0  0  0  0  0  0  0  0  0
  161.0490  202.5500  145.7190 C   0  0  0  0  0  3  0  0  0  0  0  0
  160.0460  202.1310  144.8380 C   0  0  0  0  0  3  0  0  0  0  0  0
  159.7290  204.4210  144.1110 C   0  0  0  0  0  3  0  0  0  0  0  0
  160.7320  204.8390  144.9920 C   0  0  0  0  0  3  0  0  0  0  0  0
  1  2  1  0  0  0  0
  2 15  1  0  0  0  0
  3 15  1  1  0  0  0
  3 20  1  0  0  0  0
  4  5  2  0  0  0  0
  5 12  1  0  0  0  0
  6 17  1  0  0  0  0
  6  2  2  0  0  0  0
  7 12  2  0  0  0  0
  8 10  1  1  0  0  0
  8 16  1  0  0  0  0
 11  7  1  0  0  0  0
 13  4  1  6  0  0  0
 13 11  1  0  0  0  0
 14  1  1  6  0  0  0
 14  3  1  0  0  0  0
 15 11  2  0  0  0  0
 17 13  1  0  0  0  0
 19 18  1  6  0  0  0
 19 14  1  0  0  0  0
 19  8  1  0  0  0  0
 20 16  2  0  0  0  0
 20  9  1  0  0  0  0
 21  1  1  0  0  0  0
 22 26  2  0  0  0  0
 22 25  1  0  0  0  0
 23 21  1  0  0  0  0
 24 23  1  0  0  0  0
 25 24  2  0  0  0  0
 26 27  1  0  0  0  0
 27 23  2  0  0  0  0
M  END
>  <MODEL>
8

>  <REMARK>
 VINA RESULT:      -6.7      1.376      2.060
  Name = 
  2 active torsions:
  status: ('A' for Active; 'I' for Inactive)
    1  A    between atoms: N_1  and  C_15
    2  A    between atoms: C_9  and  C_15
                            x       y       z     vdW  Elec       q    Type
                         _______ _______ _______ _____ _____    ______ ____

>  <TORSDO>
F 2

$$$$
=
 OpenBabel11052423203D

 27 31  0  0  1  0  0  0  0  0999 V2000
  161.9770  206.1480  148.7750 N   0  0  0  0  0  0  0  0  0  0  0  0
  161.9230  207.1730  149.7620 C   0  0  0  0  0  0  0  0  0  0  0  0
  161.0670  205.2370  150.7950 C   0  0  2  0  0  3  0  0  0  0  0  0
  161.3110  209.7730  152.8830 C   0  0  0  0  0  3  0  0  0  0  0  0
  160.7860  209.3150  154.1810 C   0  0  0  0  0  3  0  0  0  0  0  0
  162.1780  208.4690  149.5720 C   0  0  0  0  0  3  0  0  0  0  0  0
  160.3970  207.0220  153.2690 C   0  0  0  0  0  3  0  0  0  0  0  0
  160.8300  202.5870  149.8230 C   0  0  2  0  0  3  0  0  0  0  0  0
  161.8740  204.3360  153.1380 C   0  0  0  0  0  1  0  0  0  0  0  0
  159.3680  202.1900  149.7870 C   0  0  0  0  0  1  0  0  0  0  0  0
  161.1660  207.4770  152.0570 C   0  0  0  0  0  0  0  0  0  0  0  0
  160.3890  208.0520  154.3700 C   0  0  0  0  0  3  0  0  0  0  0  0
  161.4950  208.9160  151.8800 C   0  0  1  0  0  3  0  0  0  0  0  0
  161.8150  204.8970  149.5100 C   0  0  1  0  0  3  0  0  0  0  0  0
  161.4620  206.6570  151.0390 C   0  0  0  0  0  0  0  0  0  0  0  0
  161.2550  202.8640  151.2680 C   0  0  0  0  0  3  0  0  0  0  0  0
  162.0000  209.3610  150.6450 O   0  0  0  0  0  0  0  0  0  0  0  0
  161.8150  203.2880  147.7370 O   0  0  0  0  0  1  0  0  0  0  0  0
  161.0730  203.7560  148.8210 C   0  0  1  0  0  3  0  0  0  0  0  0
  161.3730  204.1180  151.7500 C   0  0  0  0  0  0  0  0  0  0  0  0
  162.7080  206.2620  147.5150 C   0  0  0  0  0  2  0  0  0  0  0  0
  160.2180  205.0580  144.2350 C   0  0  0  0  0  3  0  0  0  0  0  0
  161.8460  205.8580  146.3650 C   0  0  0  0  0  0  0  0  0  0  0  0
  162.3810  205.0940  145.3230 C   0  0  0  0  0  3  0  0  0  0  0  0
  161.5680  204.6940  144.2580 C   0  0  0  0  0  3  0  0  0  0  0  0
  159.6800  205.8190  145.2780 C   0  0  0  0  0  3  0  0  0  0  0  0
  160.4930  206.2170  146.3430 C   0  0  0  0  0  3  0  0  0  0  0  0
  1  2  1  0  0  0  0
  2 15  1  0  0  0  0
  3 15  1  1  0  0  0
  3 20  1  0  0  0  0
  4  5  2  0  0  0  0
  5 12  1  0  0  0  0
  6  2  2  0  0  0  0
  6 17  1  0  0  0  0
  7 12  2  0  0  0  0
  8 10  1  1  0  0  0
  8 16  1  0  0  0  0
 11  7  1  0  0  0  0
 13 11  1  0  0  0  0
 13  4  1  6  0  0  0
 14  1  1  6  0  0  0
 14  3  1  0  0  0  0
 15 11  2  0  0  0  0
 16 20  2  0  0  0  0
 17 13  1  0  0  0  0
 19 18  1  6  0  0  0
 19 14  1  0  0  0  0
 19  8  1  0  0  0  0
 20  9  1  0  0  0  0
 21  1  1  0  0  0  0
 22 25  2  0  0  0  0
 22 26  1  0  0  0  0
 23 21  1  0  0  0  0
 24 23  2  0  0  0  0
 25 24  1  0  0  0  0
 26 27  2  0  0  0  0
 27 23  1  0  0  0  0
M  END
>  <MODEL>
9

>  <REMARK>
 VINA RESULT:      -6.6      0.880      1.387
  Name = 
  2 active torsions:
  status: ('A' for Active; 'I' for Inactive)
    1  A    between atoms: N_1  and  C_15
    2  A    between atoms: C_9  and  C_15
                            x       y       z     vdW  Elec       q    Type
                         _______ _______ _______ _____ _____    ______ ____

>  <TORSDO>
F 2

$$$$
