=
 OpenBabel11052422353D

 31 34  0  0  1  0  0  0  0  0999 V2000
  161.6300  209.1110  151.1940 C   0  0  2  0  0  3  0  0  0  0  0  0
  160.8200  207.8410  153.2080 C   0  0  1  0  0  3  0  0  0  0  0  0
  162.6280  207.9980  150.9030 C   0  0  0  0  0  2  0  0  0  0  0  0
  162.1960  210.4340  150.7250 C   0  0  0  0  0  1  0  0  0  0  0  0
  161.3520  209.1800  152.6910 C   0  0  0  0  0  2  0  0  0  0  0  0
  161.7660  206.6750  152.8540 C   0  0  2  0  0  3  0  0  0  0  0  0
  162.0560  206.6610  151.3550 C   0  0  0  0  0  2  0  0  0  0  0  0
  160.5270  207.9350  154.6820 C   0  0  0  0  0  0  0  0  0  0  0  0
  159.7730  207.0580  155.1790 O   0  0  0  0  0  0  0  0  0  0  0  0
  161.0740  209.0270  155.5370 C   0  0  0  0  0  0  0  0  0  0  0  0
  162.7340  209.7350  157.1790 C   0  0  0  0  0  3  0  0  0  0  0  0
  162.1800  208.7520  156.3590 C   0  0  0  0  0  3  0  0  0  0  0  0
  162.1870  211.0150  157.1970 C   0  0  0  0  0  3  0  0  0  0  0  0
  161.0840  211.3120  156.3970 C   0  0  0  0  0  3  0  0  0  0  0  0
  160.5160  210.3330  155.5620 C   0  0  0  0  0  0  0  0  0  0  0  0
  159.4890  211.9740  153.9820 C   0  0  0  0  0  1  0  0  0  0  0  0
  158.0650  210.7840  155.6460 C   0  0  0  0  0  1  0  0  0  0  0  0
  159.2930  210.6850  154.7600 C   0  0  0  0  0  3  0  0  0  0  0  0
  161.1500  205.3360  153.2270 C   0  0  0  0  0  2  0  0  0  0  0  0
  161.6510  204.2500  152.2910 C   0  0  0  0  0  2  0  0  0  0  0  0
  160.5550  203.7450  151.4800 N   0  0  0  0  0  2  0  0  0  0  0  0
  161.5010  204.4420  146.4150 C   0  0  0  0  0  0  0  0  0  0  0  0
  161.0920  204.9720  148.7590 C   0  0  0  0  0  3  0  0  0  0  0  0
  161.0480  201.3280  148.3960 C   0  0  0  0  0  3  0  0  0  0  0  0
  160.7460  201.3600  150.0600 S   0  0  0  0  0  0  0  0  0  0  0  0
  161.8130  204.9830  144.7800 Cl  0  0  0  0  0  0  0  0  0  0  0  0
  160.7640  203.0320  150.2590 C   0  0  0  0  0  0  0  0  0  0  0  0
  161.3420  205.3870  147.4430 C   0  0  0  0  0  3  0  0  0  0  0  0
  161.1600  202.6580  147.9970 C   0  0  0  0  0  0  0  0  0  0  0  0
  161.0040  203.6040  149.0250 C   0  0  0  0  0  0  0  0  0  0  0  0
  161.4100  203.0700  146.6890 C   0  0  0  0  0  3  0  0  0  0  0  0
  1  4  1  1  0  0  0
  1  5  1  0  0  0  0
  2  8  1  1  0  0  0
  3  1  1  0  0  0  0
  3  7  1  0  0  0  0
  5  2  1  0  0  0  0
  6  2  1  0  0  0  0
  6 19  1  6  0  0  0
  7  6  1  0  0  0  0
  8  9  2  0  0  0  0
  8 10  1  0  0  0  0
 10 15  2  0  0  0  0
 10 12  1  0  0  0  0
 11 13  1  0  0  0  0
 12 11  2  0  0  0  0
 14 13  2  0  0  0  0
 15 14  1  0  0  0  0
 16 18  1  0  0  0  0
 18 15  1  0  0  0  0
 18 17  1  0  0  0  0
 20 19  1  0  0  0  0
 21 20  1  0  0  0  0
 22 31  2  0  0  0  0
 22 28  1  0  0  0  0
 23 30  1  0  0  0  0
 24 25  1  0  0  0  0
 25 27  1  0  0  0  0
 26 22  1  0  0  0  0
 27 21  1  0  0  0  0
 28 23  2  0  0  0  0
 29 24  2  0  0  0  0
 29 30  1  0  0  0  0
 30 27  2  0  0  0  0
 31 29  1  0  0  0  0
M  END
>  <MODEL>
1

>  <REMARK>
 VINA RESULT:      -8.9      0.000      0.000
  Name = 
  7 active torsions:
  status: ('A' for Active; 'I' for Inactive)
    1  A    between atoms: C_4  and  C_5
    2  A    between atoms: C_4  and  C_12
    3  A    between atoms: C_9  and  N_23
    4  A    between atoms: C_15  and  C_20
    5  A    between atoms: C_15  and  N_23
    6  A    between atoms: C_20  and  C_27
    7  A    between atoms: C_30  and  C_31
                            x       y       z     vdW  Elec       q    Type
                         _______ _______ _______ _____ _____    ______ ____

>  <TORSDO>
F 7

$$$$
=
 OpenBabel11052422353D

 31 34  0  0  1  0  0  0  0  0999 V2000
  160.7630  207.6420  155.6060 C   0  0  2  0  0  3  0  0  0  0  0  0
  160.8050  209.6820  154.1350 C   0  0  1  0  0  3  0  0  0  0  0  0
  160.6420  206.7610  154.3700 C   0  0  0  0  0  2  0  0  0  0  0  0
  160.0520  206.9840  156.7680 C   0  0  0  0  0  1  0  0  0  0  0  0
  160.1380  209.0060  155.3350 C   0  0  0  0  0  2  0  0  0  0  0  0
  160.7790  208.7790  152.8830 C   0  0  2  0  0  3  0  0  0  0  0  0
  161.3740  207.4100  153.2020 C   0  0  0  0  0  2  0  0  0  0  0  0
  160.1940  211.0370  153.8970 C   0  0  0  0  0  0  0  0  0  0  0  0
  160.7970  211.8150  153.1130 O   0  0  0  0  0  0  0  0  0  0  0  0
  158.9370  211.4740  154.5700 C   0  0  0  0  0  0  0  0  0  0  0  0
  156.5000  211.3980  154.6550 C   0  0  0  0  0  3  0  0  0  0  0  0
  157.7060  211.0210  154.0660 C   0  0  0  0  0  3  0  0  0  0  0  0
  156.5010  212.2430  155.7610 C   0  0  0  0  0  3  0  0  0  0  0  0
  157.7080  212.7140  156.2760 C   0  0  0  0  0  3  0  0  0  0  0  0
  158.9330  212.3410  155.6960 C   0  0  0  0  0  0  0  0  0  0  0  0
  160.8480  211.9850  157.2610 C   0  0  0  0  0  1  0  0  0  0  0  0
  159.9620  214.2830  156.8740 C   0  0  0  0  0  1  0  0  0  0  0  0
  160.2040  212.9200  156.2520 C   0  0  0  0  0  3  0  0  0  0  0  0
  161.5850  209.3920  151.7490 C   0  0  0  0  0  2  0  0  0  0  0  0
  162.1210  208.3000  150.8390 C   0  0  0  0  0  2  0  0  0  0  0  0
  161.0550  207.7910  149.9900 N   0  0  0  0  0  2  0  0  0  0  0  0
  160.8870  202.6080  149.5970 C   0  0  0  0  0  0  0  0  0  0  0  0
  160.7260  204.8340  150.5790 C   0  0  0  0  0  3  0  0  0  0  0  0
  161.7360  205.2100  147.0780 C   0  0  0  0  0  3  0  0  0  0  0  0
  161.7180  206.8600  147.4530 S   0  0  0  0  0  0  0  0  0  0  0  0
  160.7470  200.8720  149.7670 Cl  0  0  0  0  0  0  0  0  0  0  0  0
  161.2520  206.7180  149.0640 C   0  0  0  0  0  0  0  0  0  0  0  0
  160.6200  203.4410  150.6980 C   0  0  0  0  0  3  0  0  0  0  0  0
  161.3700  204.5440  148.2460 C   0  0  0  0  0  0  0  0  0  0  0  0
  161.1020  205.3750  149.3480 C   0  0  0  0  0  0  0  0  0  0  0  0
  161.2640  203.1590  148.3630 C   0  0  0  0  0  3  0  0  0  0  0  0
  1  4  1  1  0  0  0
  2  8  1  6  0  0  0
  2  5  1  0  0  0  0
  3  1  1  0  0  0  0
  5  1  1  0  0  0  0
  6 19  1  6  0  0  0
  6  7  1  0  0  0  0
  6  2  1  0  0  0  0
  7  3  1  0  0  0  0
  8 10  1  0  0  0  0
  9  8  2  0  0  0  0
 10 15  1  0  0  0  0
 11 13  2  0  0  0  0
 12 10  2  0  0  0  0
 12 11  1  0  0  0  0
 13 14  1  0  0  0  0
 15 18  1  0  0  0  0
 15 14  2  0  0  0  0
 18 17  1  0  0  0  0
 18 16  1  0  0  0  0
 20 19  1  0  0  0  0
 21 20  1  0  0  0  0
 22 26  1  0  0  0  0
 22 28  1  0  0  0  0
 23 28  2  0  0  0  0
 24 25  1  0  0  0  0
 24 29  2  0  0  0  0
 25 27  1  0  0  0  0
 27 30  2  0  0  0  0
 27 21  1  0  0  0  0
 29 31  1  0  0  0  0
 29 30  1  0  0  0  0
 30 23  1  0  0  0  0
 31 22  2  0  0  0  0
M  END
>  <MODEL>
2

>  <REMARK>
 VINA RESULT:      -8.8      2.448      4.209
  Name = 
  7 active torsions:
  status: ('A' for Active; 'I' for Inactive)
    1  A    between atoms: C_4  and  C_5
    2  A    between atoms: C_4  and  C_12
    3  A    between atoms: C_9  and  N_23
    4  A    between atoms: C_15  and  C_20
    5  A    between atoms: C_15  and  N_23
    6  A    between atoms: C_20  and  C_27
    7  A    between atoms: C_30  and  C_31
                            x       y       z     vdW  Elec       q    Type
                         _______ _______ _______ _____ _____    ______ ____

>  <TORSDO>
F 7

$$$$
=
 OpenBabel11052422353D

 31 34  0  0  1  0  0  0  0  0999 V2000
  160.8210  207.5580  155.4890 C   0  0  2  0  0  3  0  0  0  0  0  0
  160.9950  209.6410  154.0920 C   0  0  1  0  0  3  0  0  0  0  0  0
  160.6210  206.7340  154.2250 C   0  0  0  0  0  2  0  0  0  0  0  0
  160.0770  206.9110  156.6380 C   0  0  0  0  0  1  0  0  0  0  0  0
  160.2950  208.9720  155.2770 C   0  0  0  0  0  2  0  0  0  0  0  0
  160.8880  208.7900  152.8090 C   0  0  2  0  0  3  0  0  0  0  0  0
  161.3840  207.3690  153.0700 C   0  0  0  0  0  2  0  0  0  0  0  0
  160.4820  211.0450  153.9120 C   0  0  0  0  0  0  0  0  0  0  0  0
  160.5150  211.5290  152.7500 O   0  0  0  0  0  0  0  0  0  0  0  0
  159.9720  211.8610  155.0510 C   0  0  0  0  0  0  0  0  0  0  0  0
  160.4240  212.9240  157.2000 C   0  0  0  0  0  3  0  0  0  0  0  0
  160.8460  212.1650  156.1090 C   0  0  0  0  0  3  0  0  0  0  0  0
  159.1140  213.3910  157.2570 C   0  0  0  0  0  3  0  0  0  0  0  0
  158.2240  213.0940  156.2250 C   0  0  0  0  0  3  0  0  0  0  0  0
  158.6340  212.3340  155.1160 C   0  0  0  0  0  0  0  0  0  0  0  0
  157.3660  213.1700  153.1330 C   0  0  0  0  0  1  0  0  0  0  0  0
  156.3230  211.5110  154.6720 C   0  0  0  0  0  1  0  0  0  0  0  0
  157.6230  211.9930  154.0560 C   0  0  0  0  0  3  0  0  0  0  0  0
  161.7230  209.3820  151.6860 C   0  0  0  0  0  2  0  0  0  0  0  0
  162.2340  208.2790  150.7750 C   0  0  0  0  0  2  0  0  0  0  0  0
  161.2070  207.9100  149.8140 N   0  0  0  0  0  2  0  0  0  0  0  0
  160.7840  202.7290  149.7060 C   0  0  0  0  0  0  0  0  0  0  0  0
  160.7490  205.0090  150.5690 C   0  0  0  0  0  3  0  0  0  0  0  0
  161.7050  205.1470  147.0350 C   0  0  0  0  0  3  0  0  0  0  0  0
  161.7730  206.8140  147.3200 S   0  0  0  0  0  0  0  0  0  0  0  0
  160.5650  201.0130  149.9730 Cl  0  0  0  0  0  0  0  0  0  0  0  0
  161.3330  206.7820  148.9450 C   0  0  0  0  0  0  0  0  0  0  0  0
  160.5790  203.6310  150.7650 C   0  0  0  0  0  3  0  0  0  0  0  0
  161.3310  204.5640  148.2440 C   0  0  0  0  0  0  0  0  0  0  0  0
  161.1250  205.4640  149.3030 C   0  0  0  0  0  0  0  0  0  0  0  0
  161.1620  203.1940  148.4380 C   0  0  0  0  0  3  0  0  0  0  0  0
  1  4  1  1  0  0  0
  2  8  1  6  0  0  0
  2  5  1  0  0  0  0
  3  1  1  0  0  0  0
  5  1  1  0  0  0  0
  6 19  1  6  0  0  0
  6  7  1  0  0  0  0
  6  2  1  0  0  0  0
  7  3  1  0  0  0  0
  8 10  1  0  0  0  0
  9  8  2  0  0  0  0
 10 15  2  0  0  0  0
 10 12  1  0  0  0  0
 11 13  1  0  0  0  0
 12 11  2  0  0  0  0
 14 13  2  0  0  0  0
 15 14  1  0  0  0  0
 16 18  1  0  0  0  0
 18 17  1  0  0  0  0
 18 15  1  0  0  0  0
 20 19  1  0  0  0  0
 21 20  1  0  0  0  0
 22 26  1  0  0  0  0
 22 28  1  0  0  0  0
 23 28  2  0  0  0  0
 24 25  1  0  0  0  0
 24 29  2  0  0  0  0
 25 27  1  0  0  0  0
 27 30  2  0  0  0  0
 27 21  1  0  0  0  0
 29 31  1  0  0  0  0
 29 30  1  0  0  0  0
 30 23  1  0  0  0  0
 31 22  2  0  0  0  0
M  END
>  <MODEL>
3

>  <REMARK>
 VINA RESULT:      -8.7      2.480      3.825
  Name = 
  7 active torsions:
  status: ('A' for Active; 'I' for Inactive)
    1  A    between atoms: C_4  and  C_5
    2  A    between atoms: C_4  and  C_12
    3  A    between atoms: C_9  and  N_23
    4  A    between atoms: C_15  and  C_20
    5  A    between atoms: C_15  and  N_23
    6  A    between atoms: C_20  and  C_27
    7  A    between atoms: C_30  and  C_31
                            x       y       z     vdW  Elec       q    Type
                         _______ _______ _______ _____ _____    ______ ____

>  <TORSDO>
F 7

$$$$
=
 OpenBabel11052422353D

 31 34  0  0  1  0  0  0  0  0999 V2000
  161.7100  210.5890  149.1450 C   0  0  2  0  0  3  0  0  0  0  0  0
  161.3870  209.8310  151.5210 C   0  0  1  0  0  3  0  0  0  0  0  0
  162.3270  209.2390  148.8050 C   0  0  0  0  0  2  0  0  0  0  0  0
  162.3290  211.6610  148.2740 C   0  0  0  0  0  1  0  0  0  0  0  0
  161.9610  210.9200  150.6110 C   0  0  0  0  0  2  0  0  0  0  0  0
  161.9240  208.4330  151.1480 C   0  0  2  0  0  3  0  0  0  0  0  0
  161.6940  208.1530  149.6650 C   0  0  0  0  0  2  0  0  0  0  0  0
  161.6200  210.1860  152.9650 C   0  0  0  0  0  0  0  0  0  0  0  0
  162.8090  210.1870  153.3770 O   0  0  0  0  0  0  0  0  0  0  0  0
  160.5010  210.5030  153.8990 C   0  0  0  0  0  0  0  0  0  0  0  0
  158.6860  212.0120  154.5170 C   0  0  0  0  0  3  0  0  0  0  0  0
  159.7430  211.6650  153.6760 C   0  0  0  0  0  3  0  0  0  0  0  0
  158.3680  211.2020  155.6040 C   0  0  0  0  0  3  0  0  0  0  0  0
  159.1110  210.0480  155.8530 C   0  0  0  0  0  3  0  0  0  0  0  0
  160.1770  209.6830  155.0130 C   0  0  0  0  0  0  0  0  0  0  0  0
  160.0920  207.2610  155.6180 C   0  0  0  0  0  1  0  0  0  0  0  0
  161.8920  208.7150  156.5430 C   0  0  0  0  0  1  0  0  0  0  0  0
  160.9830  208.4600  155.3540 C   0  0  0  0  0  3  0  0  0  0  0  0
  161.2250  207.3460  151.9470 C   0  0  0  0  0  2  0  0  0  0  0  0
  161.9000  206.0060  151.7110 C   0  0  0  0  0  2  0  0  0  0  0  0
  160.9000  204.9530  151.6170 N   0  0  0  0  0  2  0  0  0  0  0  0
  161.3670  204.1470  146.5020 C   0  0  0  0  0  0  0  0  0  0  0  0
  161.2110  205.3350  148.6250 C   0  0  0  0  0  3  0  0  0  0  0  0
  161.0000  201.7440  149.3160 C   0  0  0  0  0  3  0  0  0  0  0  0
  160.8650  202.2600  150.9230 S   0  0  0  0  0  0  0  0  0  0  0  0
  161.5360  204.1890  144.7600 Cl  0  0  0  0  0  0  0  0  0  0  0  0
  160.9620  203.9150  150.6360 C   0  0  0  0  0  0  0  0  0  0  0  0
  161.3450  205.3500  147.2290 C   0  0  0  0  0  3  0  0  0  0  0  0
  161.1200  202.9010  148.5490 C   0  0  0  0  0  0  0  0  0  0  0  0
  161.0990  204.1040  149.2740 C   0  0  0  0  0  0  0  0  0  0  0  0
  161.2550  202.9140  147.1610 C   0  0  0  0  0  3  0  0  0  0  0  0
  1  4  1  6  0  0  0
  1  5  1  0  0  0  0
  2  8  1  1  0  0  0
  3  1  1  0  0  0  0
  3  7  1  0  0  0  0
  5  2  1  0  0  0  0
  6  2  1  0  0  0  0
  6 19  1  1  0  0  0
  7  6  1  0  0  0  0
  8  9  2  0  0  0  0
  8 10  1  0  0  0  0
 10 15  1  0  0  0  0
 11 13  2  0  0  0  0
 12 10  2  0  0  0  0
 12 11  1  0  0  0  0
 13 14  1  0  0  0  0
 15 18  1  0  0  0  0
 15 14  2  0  0  0  0
 18 16  1  0  0  0  0
 18 17  1  0  0  0  0
 20 19  1  0  0  0  0
 21 20  1  0  0  0  0
 22 31  2  0  0  0  0
 22 28  1  0  0  0  0
 23 30  1  0  0  0  0
 24 25  1  0  0  0  0
 26 22  1  0  0  0  0
 27 25  1  0  0  0  0
 27 21  1  0  0  0  0
 28 23  2  0  0  0  0
 29 30  1  0  0  0  0
 29 24  2  0  0  0  0
 30 27  2  0  0  0  0
 31 29  1  0  0  0  0
M  END
>  <MODEL>
4

>  <REMARK>
 VINA RESULT:      -8.6      1.399      2.701
  Name = 
  7 active torsions:
  status: ('A' for Active; 'I' for Inactive)
    1  A    between atoms: C_4  and  C_5
    2  A    between atoms: C_4  and  C_12
    3  A    between atoms: C_9  and  N_23
    4  A    between atoms: C_15  and  C_20
    5  A    between atoms: C_15  and  N_23
    6  A    between atoms: C_20  and  C_27
    7  A    between atoms: C_30  and  C_31
                            x       y       z     vdW  Elec       q    Type
                         _______ _______ _______ _____ _____    ______ ____

>  <TORSDO>
F 7

$$$$
=
 OpenBabel11052422353D

 31 34  0  0  1  0  0  0  0  0999 V2000
  160.3080  207.8790  154.3410 C   0  0  2  0  0  3  0  0  0  0  0  0
  161.1920  207.2440  152.0740 C   0  0  1  0  0  3  0  0  0  0  0  0
  160.7480  209.3170  154.1040 C   0  0  0  0  0  2  0  0  0  0  0  0
  160.3870  207.5630  155.8190 C   0  0  0  0  0  1  0  0  0  0  0  0
  161.2120  206.9240  153.5710 C   0  0  0  0  0  2  0  0  0  0  0  0
  161.5490  208.7210  151.8000 C   0  0  2  0  0  3  0  0  0  0  0  0
  160.6520  209.6460  152.6190 C   0  0  0  0  0  2  0  0  0  0  0  0
  162.0690  206.2770  151.3250 C   0  0  0  0  0  0  0  0  0  0  0  0
  163.2410  206.6490  151.0530 O   0  0  0  0  0  0  0  0  0  0  0  0
  161.5870  204.9350  150.8890 C   0  0  0  0  0  0  0  0  0  0  0  0
  160.9800  202.6540  151.5050 C   0  0  0  0  0  3  0  0  0  0  0  0
  161.4280  203.9270  151.8550 C   0  0  0  0  0  3  0  0  0  0  0  0
  160.6870  202.3610  150.1760 C   0  0  0  0  0  3  0  0  0  0  0  0
  160.8440  203.3410  149.1960 C   0  0  0  0  0  3  0  0  0  0  0  0
  161.2910  204.6310  149.5330 C   0  0  0  0  0  0  0  0  0  0  0  0
  160.2190  206.3890  148.1190 C   0  0  0  0  0  1  0  0  0  0  0  0
  162.0460  204.9770  147.1820 C   0  0  0  0  0  1  0  0  0  0  0  0
  161.4990  205.6360  148.4340 C   0  0  0  0  0  3  0  0  0  0  0  0
  161.3660  209.0650  150.3310 C   0  0  0  0  0  2  0  0  0  0  0  0
  162.2760  210.2190  149.9470 C   0  0  0  0  0  2  0  0  0  0  0  0
  161.4810  211.3760  149.5650 N   0  0  0  0  0  2  0  0  0  0  0  0
  159.0740  213.7500  145.6140 C   0  0  0  0  0  0  0  0  0  0  0  0
  159.3840  212.4910  147.6790 C   0  0  0  0  0  3  0  0  0  0  0  0
  162.6930  213.3700  146.3790 C   0  0  0  0  0  3  0  0  0  0  0  0
  163.2380  212.5410  147.7500 S   0  0  0  0  0  0  0  0  0  0  0  0
  158.0000  214.4530  144.4250 Cl  0  0  0  0  0  0  0  0  0  0  0  0
  161.7300  212.1250  148.3730 C   0  0  0  0  0  0  0  0  0  0  0  0
  158.5380  213.0600  146.7160 C   0  0  0  0  0  3  0  0  0  0  0  0
  161.3020  213.3120  146.4190 C   0  0  0  0  0  0  0  0  0  0  0  0
  160.7640  212.6230  147.5200 C   0  0  0  0  0  0  0  0  0  0  0  0
  160.4620  213.8790  145.4620 C   0  0  0  0  0  3  0  0  0  0  0  0
  1  4  1  1  0  0  0
  2  8  1  6  0  0  0
  2  5  1  0  0  0  0
  3  1  1  0  0  0  0
  5  1  1  0  0  0  0
  6 19  1  6  0  0  0
  6  2  1  0  0  0  0
  6  7  1  0  0  0  0
  7  3  1  0  0  0  0
  9  8  2  0  0  0  0
 10  8  1  0  0  0  0
 10 12  1  0  0  0  0
 11 12  2  0  0  0  0
 13 11  1  0  0  0  0
 14 15  1  0  0  0  0
 14 13  2  0  0  0  0
 15 10  2  0  0  0  0
 16 18  1  0  0  0  0
 17 18  1  0  0  0  0
 18 15  1  0  0  0  0
 20 19  1  0  0  0  0
 21 20  1  0  0  0  0
 22 28  1  0  0  0  0
 24 29  2  0  0  0  0
 24 25  1  0  0  0  0
 25 27  1  0  0  0  0
 26 22  1  0  0  0  0
 27 21  1  0  0  0  0
 28 23  2  0  0  0  0
 29 30  1  0  0  0  0
 30 23  1  0  0  0  0
 30 27  2  0  0  0  0
 31 22  2  0  0  0  0
 31 29  1  0  0  0  0
M  END
>  <MODEL>
5

>  <REMARK>
 VINA RESULT:      -8.3      4.326      8.074
  Name = 
  7 active torsions:
  status: ('A' for Active; 'I' for Inactive)
    1  A    between atoms: C_4  and  C_5
    2  A    between atoms: C_4  and  C_12
    3  A    between atoms: C_9  and  N_23
    4  A    between atoms: C_15  and  C_20
    5  A    between atoms: C_15  and  N_23
    6  A    between atoms: C_20  and  C_27
    7  A    between atoms: C_30  and  C_31
                            x       y       z     vdW  Elec       q    Type
                         _______ _______ _______ _____ _____    ______ ____

>  <TORSDO>
F 7

$$$$
=
 OpenBabel11052422353D

 31 34  0  0  1  0  0  0  0  0999 V2000
  160.2990  207.3050  154.8170 C   0  0  2  0  0  3  0  0  0  0  0  0
  161.1040  206.7280  152.5050 C   0  0  1  0  0  3  0  0  0  0  0  0
  160.6580  208.7640  154.5710 C   0  0  0  0  0  2  0  0  0  0  0  0
  160.4630  206.9850  156.2870 C   0  0  0  0  0  1  0  0  0  0  0  0
  161.2110  206.4000  153.9960 C   0  0  0  0  0  2  0  0  0  0  0  0
  161.3760  208.2220  152.2270 C   0  0  2  0  0  3  0  0  0  0  0  0
  160.4760  209.0970  153.0960 C   0  0  0  0  0  2  0  0  0  0  0  0
  161.9900  205.8090  151.7080 C   0  0  0  0  0  0  0  0  0  0  0  0
  163.1870  206.1610  151.5390 O   0  0  0  0  0  0  0  0  0  0  0  0
  161.4890  204.5390  151.1080 C   0  0  0  0  0  0  0  0  0  0  0  0
  160.8290  202.2130  151.4400 C   0  0  0  0  0  3  0  0  0  0  0  0
  161.2960  203.4260  151.9460 C   0  0  0  0  0  3  0  0  0  0  0  0
  160.5510  202.0870  150.0820 C   0  0  0  0  0  3  0  0  0  0  0  0
  160.7430  203.1730  149.2280 C   0  0  0  0  0  3  0  0  0  0  0  0
  161.2090  204.4040  149.7220 C   0  0  0  0  0  0  0  0  0  0  0  0
  160.1950  206.3430  148.5160 C   0  0  0  0  0  1  0  0  0  0  0  0
  162.0040  205.0100  147.4370 C   0  0  0  0  0  1  0  0  0  0  0  0
  161.4530  205.5280  148.7540 C   0  0  0  0  0  3  0  0  0  0  0  0
  161.1070  208.5660  150.7720 C   0  0  0  0  0  2  0  0  0  0  0  0
  162.2890  209.3180  150.1840 C   0  0  0  0  0  2  0  0  0  0  0  0
  162.3130  210.6820  150.6890 N   0  0  0  0  0  2  0  0  0  0  0  0
  158.1550  213.6220  151.7410 C   0  0  0  0  0  0  0  0  0  0  0  0
  159.9070  211.9520  152.0300 C   0  0  0  0  0  3  0  0  0  0  0  0
  160.3610  213.5170  148.7500 C   0  0  0  0  0  3  0  0  0  0  0  0
  161.6750  212.4560  148.6420 S   0  0  0  0  0  0  0  0  0  0  0  0
  156.7480  214.4530  152.3670 Cl  0  0  0  0  0  0  0  0  0  0  0  0
  161.4930  211.7200  150.1450 C   0  0  0  0  0  0  0  0  0  0  0  0
  158.7780  212.6270  152.5150 C   0  0  0  0  0  3  0  0  0  0  0  0
  159.7740  213.2800  149.9910 C   0  0  0  0  0  0  0  0  0  0  0  0
  160.3970  212.2870  150.7660 C   0  0  0  0  0  0  0  0  0  0  0  0
  158.6530  213.9530  150.4720 C   0  0  0  0  0  3  0  0  0  0  0  0
  1  4  1  1  0  0  0
  2  8  1  6  0  0  0
  2  5  1  0  0  0  0
  3  1  1  0  0  0  0
  5  1  1  0  0  0  0
  6 19  1  6  0  0  0
  6  2  1  0  0  0  0
  6  7  1  0  0  0  0
  7  3  1  0  0  0  0
  9  8  2  0  0  0  0
 10  8  1  0  0  0  0
 10 12  1  0  0  0  0
 11 12  2  0  0  0  0
 13 11  1  0  0  0  0
 14 15  1  0  0  0  0
 14 13  2  0  0  0  0
 15 10  2  0  0  0  0
 16 18  1  0  0  0  0
 17 18  1  0  0  0  0
 18 15  1  0  0  0  0
 20 21  1  0  0  0  0
 20 19  1  0  0  0  0
 22 26  1  0  0  0  0
 22 28  1  0  0  0  0
 23 28  2  0  0  0  0
 24 29  2  0  0  0  0
 25 24  1  0  0  0  0
 25 27  1  0  0  0  0
 27 21  1  0  0  0  0
 27 30  2  0  0  0  0
 29 31  1  0  0  0  0
 29 30  1  0  0  0  0
 30 23  1  0  0  0  0
 31 22  2  0  0  0  0
M  END
>  <MODEL>
6

>  <REMARK>
 VINA RESULT:      -8.2      3.907      8.283
  Name = 
  7 active torsions:
  status: ('A' for Active; 'I' for Inactive)
    1  A    between atoms: C_4  and  C_5
    2  A    between atoms: C_4  and  C_12
    3  A    between atoms: C_9  and  N_23
    4  A    between atoms: C_15  and  C_20
    5  A    between atoms: C_15  and  N_23
    6  A    between atoms: C_20  and  C_27
    7  A    between atoms: C_30  and  C_31
                            x       y       z     vdW  Elec       q    Type
                         _______ _______ _______ _____ _____    ______ ____

>  <TORSDO>
F 7

$$$$
=
 OpenBabel11052422353D

 31 34  0  0  1  0  0  0  0  0999 V2000
  162.4410  209.1440  149.1790 C   0  0  2  0  0  3  0  0  0  0  0  0
  161.4700  206.8590  149.5810 C   0  0  1  0  0  3  0  0  0  0  0  0
  162.1220  209.5260  150.6180 C   0  0  0  0  0  2  0  0  0  0  0  0
  162.3590  210.3730  148.3000 C   0  0  0  0  0  1  0  0  0  0  0  0
  161.4460  208.1000  148.6850 C   0  0  0  0  0  2  0  0  0  0  0  0
  161.2360  207.2190  151.0630 C   0  0  2  0  0  3  0  0  0  0  0  0
  162.2220  208.2960  151.5110 C   0  0  0  0  0  2  0  0  0  0  0  0
  160.5010  205.8290  149.0650 C   0  0  0  0  0  0  0  0  0  0  0  0
  159.3900  206.2410  148.6390 O   0  0  0  0  0  0  0  0  0  0  0  0
  160.8100  204.3700  149.0700 C   0  0  0  0  0  0  0  0  0  0  0  0
  160.8760  202.2730  150.3140 C   0  0  0  0  0  3  0  0  0  0  0  0
  160.6050  203.6390  150.2520 C   0  0  0  0  0  3  0  0  0  0  0  0
  161.3650  201.6100  149.1920 C   0  0  0  0  0  3  0  0  0  0  0  0
  161.5850  202.3140  148.0090 C   0  0  0  0  0  3  0  0  0  0  0  0
  161.3130  203.6910  147.9280 C   0  0  0  0  0  0  0  0  0  0  0  0
  161.2750  203.5750  145.4330 C   0  0  0  0  0  1  0  0  0  0  0  0
  163.0750  204.8480  146.5950 C   0  0  0  0  0  1  0  0  0  0  0  0
  161.6200  204.4170  146.6480 C   0  0  0  0  0  3  0  0  0  0  0  0
  161.4250  206.0060  151.9590 C   0  0  0  0  0  2  0  0  0  0  0  0
  161.8900  206.4400  153.3380 C   0  0  0  0  0  2  0  0  0  0  0  0
  160.7600  206.9190  154.1170 N   0  0  0  0  0  2  0  0  0  0  0  0
  159.6050  211.9880  154.2420 C   0  0  0  0  0  0  0  0  0  0  0  0
  159.7880  209.7040  153.4090 C   0  0  0  0  0  3  0  0  0  0  0  0
  161.2140  209.7990  156.7820 C   0  0  0  0  0  3  0  0  0  0  0  0
  161.4860  208.1520  156.5030 S   0  0  0  0  0  0  0  0  0  0  0  0
  159.1060  213.6460  153.9940 Cl  0  0  0  0  0  0  0  0  0  0  0  0
  160.8340  208.0770  154.9530 C   0  0  0  0  0  0  0  0  0  0  0  0
  159.3950  211.0370  153.2280 C   0  0  0  0  0  3  0  0  0  0  0  0
  160.6030  210.2900  155.6300 C   0  0  0  0  0  0  0  0  0  0  0  0
  160.3910  209.3410  154.6150 C   0  0  0  0  0  0  0  0  0  0  0  0
  160.2110  211.6160  155.4510 C   0  0  0  0  0  3  0  0  0  0  0  0
  1  4  1  6  0  0  0
  1  3  1  0  0  0  0
  2  8  1  6  0  0  0
  2  6  1  0  0  0  0
  3  7  1  0  0  0  0
  5  1  1  0  0  0  0
  5  2  1  0  0  0  0
  6  7  1  0  0  0  0
  6 19  1  1  0  0  0
  8 10  1  0  0  0  0
  9  8  2  0  0  0  0
 10 12  1  0  0  0  0
 12 11  2  0  0  0  0
 13 11  1  0  0  0  0
 14 13  2  0  0  0  0
 15 14  1  0  0  0  0
 15 10  2  0  0  0  0
 16 18  1  0  0  0  0
 17 18  1  0  0  0  0
 18 15  1  0  0  0  0
 19 20  1  0  0  0  0
 20 21  1  0  0  0  0
 21 27  1  0  0  0  0
 22 31  2  0  0  0  0
 23 30  1  0  0  0  0
 25 24  1  0  0  0  0
 26 22  1  0  0  0  0
 27 25  1  0  0  0  0
 28 23  2  0  0  0  0
 28 22  1  0  0  0  0
 29 24  2  0  0  0  0
 30 27  2  0  0  0  0
 30 29  1  0  0  0  0
 31 29  1  0  0  0  0
M  END
>  <MODEL>
7

>  <REMARK>
 VINA RESULT:      -8.2      3.405      8.451
  Name = 
  7 active torsions:
  status: ('A' for Active; 'I' for Inactive)
    1  A    between atoms: C_4  and  C_5
    2  A    between atoms: C_4  and  C_12
    3  A    between atoms: C_9  and  N_23
    4  A    between atoms: C_15  and  C_20
    5  A    between atoms: C_15  and  N_23
    6  A    between atoms: C_20  and  C_27
    7  A    between atoms: C_30  and  C_31
                            x       y       z     vdW  Elec       q    Type
                         _______ _______ _______ _____ _____    ______ ____

>  <TORSDO>
F 7

$$$$
=
 OpenBabel11052422353D

 31 34  0  0  1  0  0  0  0  0999 V2000
  162.3310  209.9060  149.0790 C   0  0  2  0  0  3  0  0  0  0  0  0
  161.8220  207.4850  149.5280 C   0  0  1  0  0  3  0  0  0  0  0  0
  162.2320  210.1970  150.5700 C   0  0  0  0  0  2  0  0  0  0  0  0
  161.8940  211.1260  148.2960 C   0  0  0  0  0  1  0  0  0  0  0  0
  161.4370  208.7260  148.7190 C   0  0  0  0  0  2  0  0  0  0  0  0
  161.8180  207.7670  151.0450 C   0  0  2  0  0  3  0  0  0  0  0  0
  162.6900  208.9790  151.3630 C   0  0  0  0  0  2  0  0  0  0  0  0
  160.9470  206.3220  149.1420 C   0  0  0  0  0  0  0  0  0  0  0  0
  159.8590  206.1860  149.7600 O   0  0  0  0  0  0  0  0  0  0  0  0
  161.3410  205.3410  148.0890 C   0  0  0  0  0  0  0  0  0  0  0  0
  162.2430  204.9530  145.8560 C   0  0  0  0  0  3  0  0  0  0  0  0
  161.8580  205.8240  146.8750 C   0  0  0  0  0  3  0  0  0  0  0  0
  162.1110  203.5780  146.0300 C   0  0  0  0  0  3  0  0  0  0  0  0
  161.5920  203.0740  147.2220 C   0  0  0  0  0  3  0  0  0  0  0  0
  161.2030  203.9380  148.2610 C   0  0  0  0  0  0  0  0  0  0  0  0
  161.5810  203.3530  150.6600 C   0  0  0  0  0  1  0  0  0  0  0  0
  160.0810  201.9440  149.2530 C   0  0  0  0  0  1  0  0  0  0  0  0
  160.5970  203.3490  149.5050 C   0  0  0  0  0  3  0  0  0  0  0  0
  162.3590  206.5800  151.8240 C   0  0  0  0  0  2  0  0  0  0  0  0
  161.5480  206.3720  153.0920 C   0  0  0  0  0  2  0  0  0  0  0  0
  160.6530  207.5000  153.3020 N   0  0  0  0  0  2  0  0  0  0  0  0
  159.9490  212.1830  155.4470 C   0  0  0  0  0  0  0  0  0  0  0  0
  160.2240  210.4710  153.7340 C   0  0  0  0  0  3  0  0  0  0  0  0
  160.3800  208.8360  157.0090 C   0  0  0  0  0  3  0  0  0  0  0  0
  160.5960  207.4360  156.0820 S   0  0  0  0  0  0  0  0  0  0  0  0
  159.7060  213.8630  155.8730 Cl  0  0  0  0  0  0  0  0  0  0  0  0
  160.5250  208.1590  154.5640 C   0  0  0  0  0  0  0  0  0  0  0  0
  160.0300  211.8120  154.0940 C   0  0  0  0  0  3  0  0  0  0  0  0
  160.2540  209.8840  156.1000 C   0  0  0  0  0  0  0  0  0  0  0  0
  160.3340  209.5150  154.7460 C   0  0  0  0  0  0  0  0  0  0  0  0
  160.0600  211.2180  156.4590 C   0  0  0  0  0  3  0  0  0  0  0  0
  1  4  1  6  0  0  0
  1  3  1  0  0  0  0
  2  8  1  1  0  0  0
  2  6  1  0  0  0  0
  3  7  1  0  0  0  0
  5  1  1  0  0  0  0
  5  2  1  0  0  0  0
  6  7  1  0  0  0  0
  6 19  1  1  0  0  0
  8  9  2  0  0  0  0
 10 15  1  0  0  0  0
 10  8  1  0  0  0  0
 11 13  2  0  0  0  0
 11 12  1  0  0  0  0
 12 10  2  0  0  0  0
 13 14  1  0  0  0  0
 14 15  2  0  0  0  0
 15 18  1  0  0  0  0
 17 18  1  0  0  0  0
 18 16  1  0  0  0  0
 19 20  1  0  0  0  0
 20 21  1  0  0  0  0
 21 27  1  0  0  0  0
 22 26  1  0  0  0  0
 22 31  2  0  0  0  0
 23 28  2  0  0  0  0
 23 30  1  0  0  0  0
 25 24  1  0  0  0  0
 27 30  2  0  0  0  0
 27 25  1  0  0  0  0
 28 22  1  0  0  0  0
 29 31  1  0  0  0  0
 29 24  2  0  0  0  0
 30 29  1  0  0  0  0
M  END
>  <MODEL>
8

>  <REMARK>
 VINA RESULT:      -8.1      3.464      8.584
  Name = 
  7 active torsions:
  status: ('A' for Active; 'I' for Inactive)
    1  A    between atoms: C_4  and  C_5
    2  A    between atoms: C_4  and  C_12
    3  A    between atoms: C_9  and  N_23
    4  A    between atoms: C_15  and  C_20
    5  A    between atoms: C_15  and  N_23
    6  A    between atoms: C_20  and  C_27
    7  A    between atoms: C_30  and  C_31
                            x       y       z     vdW  Elec       q    Type
                         _______ _______ _______ _____ _____    ______ ____

>  <TORSDO>
F 7

$$$$
=
 OpenBabel11052422353D

 31 34  0  0  1  0  0  0  0  0999 V2000
  160.8270  208.1710  152.6500 C   0  0  2  0  0  3  0  0  0  0  0  0
  161.3970  207.9340  150.2120 C   0  0  1  0  0  3  0  0  0  0  0  0
  161.5960  209.4850  152.6950 C   0  0  0  0  0  2  0  0  0  0  0  0
  160.9090  207.4910  153.9990 C   0  0  0  0  0  1  0  0  0  0  0  0
  161.4220  207.2570  151.5850 C   0  0  0  0  0  2  0  0  0  0  0  0
  162.0920  209.3110  150.2400 C   0  0  2  0  0  3  0  0  0  0  0  0
  161.5000  210.1830  151.3440 C   0  0  0  0  0  2  0  0  0  0  0  0
  161.9640  207.0090  149.1680 C   0  0  0  0  0  0  0  0  0  0  0  0
  162.7770  207.4980  148.3410 O   0  0  0  0  0  0  0  0  0  0  0  0
  161.5750  205.5710  149.0790 C   0  0  0  0  0  0  0  0  0  0  0  0
  160.8450  203.5500  150.2340 C   0  0  0  0  0  3  0  0  0  0  0  0
  161.2170  204.8940  150.2570 C   0  0  0  0  0  3  0  0  0  0  0  0
  160.8290  202.8540  149.0290 C   0  0  0  0  0  3  0  0  0  0  0  0
  161.1890  203.5010  147.8470 C   0  0  0  0  0  3  0  0  0  0  0  0
  161.5630  204.8560  147.8520 C   0  0  0  0  0  0  0  0  0  0  0  0
  160.8060  205.8900  145.7080 C   0  0  0  0  0  1  0  0  0  0  0  0
  162.9250  204.5800  145.7820 C   0  0  0  0  0  1  0  0  0  0  0  0
  161.9970  205.4940  146.5610 C   0  0  0  0  0  3  0  0  0  0  0  0
  161.9170  210.0410  148.9180 C   0  0  0  0  0  2  0  0  0  0  0  0
  161.9660  211.5430  149.1390 C   0  0  0  0  0  2  0  0  0  0  0  0
  162.3890  212.2130  147.9190 N   0  0  0  0  0  2  0  0  0  0  0  0
  161.9850  213.9510  143.0350 C   0  0  0  0  0  0  0  0  0  0  0  0
  162.9690  212.9800  145.0430 C   0  0  0  0  0  3  0  0  0  0  0  0
  159.4800  213.8150  145.7810 C   0  0  0  0  0  3  0  0  0  0  0  0
  159.8580  213.1920  147.3080 S   0  0  0  0  0  0  0  0  0  0  0  0
  162.1500  214.4530  141.3670 Cl  0  0  0  0  0  0  0  0  0  0  0  0
  161.4640  212.7950  146.9980 C   0  0  0  0  0  0  0  0  0  0  0  0
  163.0840  213.3880  143.7060 C   0  0  0  0  0  3  0  0  0  0  0  0
  160.6430  213.7060  145.0210 C   0  0  0  0  0  0  0  0  0  0  0  0
  161.7430  213.1430  145.6900 C   0  0  0  0  0  0  0  0  0  0  0  0
  160.7560  214.1120  143.6920 C   0  0  0  0  0  3  0  0  0  0  0  0
  1  3  1  0  0  0  0
  1  4  1  1  0  0  0
  2  8  1  6  0  0  0
  2  6  1  0  0  0  0
  2  5  1  0  0  0  0
  5  1  1  0  0  0  0
  6 19  1  6  0  0  0
  6  7  1  0  0  0  0
  7  3  1  0  0  0  0
  9  8  2  0  0  0  0
 10  8  1  0  0  0  0
 10 12  1  0  0  0  0
 11 12  2  0  0  0  0
 13 11  1  0  0  0  0
 14 15  1  0  0  0  0
 14 13  2  0  0  0  0
 15 10  2  0  0  0  0
 16 18  1  0  0  0  0
 17 18  1  0  0  0  0
 18 15  1  0  0  0  0
 19 20  1  0  0  0  0
 21 20  1  0  0  0  0
 22 31  2  0  0  0  0
 22 28  1  0  0  0  0
 23 30  1  0  0  0  0
 24 25  1  0  0  0  0
 26 22  1  0  0  0  0
 27 25  1  0  0  0  0
 27 21  1  0  0  0  0
 28 23  2  0  0  0  0
 29 30  1  0  0  0  0
 29 24  2  0  0  0  0
 30 27  2  0  0  0  0
 31 29  1  0  0  0  0
M  END
>  <MODEL>
9

>  <REMARK>
 VINA RESULT:      -8.0      5.080      8.853
  Name = 
  7 active torsions:
  status: ('A' for Active; 'I' for Inactive)
    1  A    between atoms: C_4  and  C_5
    2  A    between atoms: C_4  and  C_12
    3  A    between atoms: C_9  and  N_23
    4  A    between atoms: C_15  and  C_20
    5  A    between atoms: C_15  and  N_23
    6  A    between atoms: C_20  and  C_27
    7  A    between atoms: C_30  and  C_31
                            x       y       z     vdW  Elec       q    Type
                         _______ _______ _______ _____ _____    ______ ____

>  <TORSDO>
F 7

$$$$
