=
 OpenBabel11062408313D

 32 34  0  0  1  0  0  0  0  0999 V2000
  161.5760  206.4180  149.2250 C   0  0  1  0  0  3  0  0  0  0  0  0
  162.7160  206.7780  151.9050 O   0  0  0  0  0  1  0  0  0  0  0  0
  161.0030  205.9000  150.4800 C   0  0  1  0  0  3  0  0  0  0  0  0
  160.9570  205.6130  148.0850 C   0  0  2  0  0  3  0  0  0  0  0  0
  161.2320  207.8800  149.3630 C   0  0  1  0  0  3  0  0  0  0  0  0
  161.2360  204.0970  148.3110 C   0  0  0  0  0  0  0  0  0  0  0  0
  161.4380  204.4390  150.6270 C   0  0  2  0  0  3  0  0  0  0  0  0
  160.8040  203.6820  149.6040 O   0  0  0  0  0  0  0  0  0  0  0  0
  161.3420  208.2070  150.7390 O   0  0  0  0  0  0  0  0  0  0  0  0
  160.5230  203.3710  147.3570 O   0  0  0  0  0  1  0  0  0  0  0  0
  161.4080  206.9850  151.4550 C   0  0  2  0  0  0  0  0  0  0  0  0
  162.5970  203.8060  148.1630 O   0  0  0  0  0  1  0  0  0  0  0  0
  163.2140  208.2750  148.1610 O   0  0  0  0  0  0  0  0  0  0  0  0
  162.1580  208.7390  148.5580 C   0  0  0  0  0  0  0  0  0  0  0  0
  161.8110  210.1640  148.2580 C   0  0  0  0  0  2  0  0  0  0  0  0
  162.1610  211.0150  149.3840 N   0  0  0  0  0  2  0  0  0  0  0  0
  161.8220  212.2820  149.0440 O   0  0  0  0  0  1  0  0  0  0  0  0
  160.0490  206.3490  146.0940 C   0  0  0  0  0  1  0  0  0  0  0  0
  161.2450  206.0870  146.7820 O   0  0  0  0  0  0  0  0  0  0  0  0
  161.0180  203.8670  151.9720 C   0  0  0  0  0  2  0  0  0  0  0  0
  161.0120  202.4740  151.9190 O   0  0  0  0  0  1  0  0  0  0  0  0
  160.4290  207.0110  152.6300 C   0  0  0  0  0  2  0  0  0  0  0  0
  161.7490  210.2480  157.1260 F   0  0  0  0  0  0  0  0  0  0  0  0
  161.7190  208.1970  156.0300 C   0  0  0  0  0  3  0  0  0  0  0  0
  160.8640  207.9130  153.7520 C   0  0  0  0  0  0  0  0  0  0  0  0
  160.5180  210.0740  154.9870 C   0  0  0  0  0  2  0  0  0  0  0  0
  161.3400  207.3630  154.8780 C   0  0  0  0  0  3  0  0  0  0  0  0
  160.7710  209.4260  153.6020 C   0  0  1  0  0  0  0  0  0  0  0  0
  162.1120  209.9160  153.0460 C   0  0  0  0  0  1  0  0  0  0  0  0
  161.3870  209.4870  156.0650 C   0  0  0  0  0  0  0  0  0  0  0  0
  159.3470  211.0790  152.8060 C   0  0  0  0  0  1  0  0  0  0  0  0
  159.7090  209.7220  152.7070 O   0  0  0  0  0  0  0  0  0  0  0  0
  1  5  1  0  0  0  0
  1  3  1  0  0  0  0
  3  7  1  0  0  0  0
  3 11  1  0  0  0  0
  4  6  1  0  0  0  0
  4  1  1  0  0  0  0
  5  9  1  0  0  0  0
  6  8  1  0  0  0  0
  7 20  1  0  0  0  0
  8  7  1  0  0  0  0
  9 11  1  0  0  0  0
 10  6  1  0  0  0  0
 11  2  1  0  0  0  0
 11 22  1  0  0  0  0
 12  6  1  0  0  0  0
 13 14  2  0  0  0  0
 14  5  1  0  0  0  0
 15 14  1  0  0  0  0
 15 16  1  0  0  0  0
 17 16  1  0  0  0  0
 18 19  1  0  0  0  0
 19  4  1  0  0  0  0
 21 20  1  0  0  0  0
 22 25  1  0  0  0  0
 24 30  2  0  0  0  0
 25 27  2  0  0  0  0
 26 30  1  0  0  0  0
 27 24  1  0  0  0  0
 28 25  1  0  0  0  0
 28 26  1  0  0  0  0
 29 28  1  0  0  0  0
 30 23  1  0  0  0  0
 32 31  1  0  0  0  0
 32 28  1  0  0  0  0
M  END
>  <MODEL>
1

>  <REMARK>
 VINA RESULT:      -5.7      0.000      0.000
  Name = 
  8 active torsions:
  status: ('A' for Active; 'I' for Inactive)
    1  A    between atoms: C_1  and  C_16
    2  A    between atoms: C_1  and  C_27
    3  A    between atoms: C_6  and  O_17
    4  A    between atoms: O_8  and  C_22
    5  A    between atoms: N_9  and  C_32
    6  A    between atoms: C_10  and  C_28
    7  A    between atoms: C_14  and  C_21
    8  A    between atoms: C_28  and  C_32
                            x       y       z     vdW  Elec       q    Type
                         _______ _______ _______ _____ _____    ______ ____

>  <TORSDO>
F 8

$$$$
=
 OpenBabel11062408313D

 32 34  0  0  1  0  0  0  0  0999 V2000
  161.2600  205.3160  149.0440 C   0  0  1  0  0  3  0  0  0  0  0  0
  160.0500  207.0800  151.0530 O   0  0  0  0  0  1  0  0  0  0  0  0
  161.8390  206.5760  149.5410 C   0  0  1  0  0  3  0  0  0  0  0  0
  161.9470  205.0020  147.7170 C   0  0  2  0  0  3  0  0  0  0  0  0
  161.5150  204.4230  150.2320 C   0  0  1  0  0  3  0  0  0  0  0  0
  161.7540  206.1990  146.7380 C   0  0  0  0  0  0  0  0  0  0  0  0
  161.4880  207.6820  148.5410 C   0  0  2  0  0  3  0  0  0  0  0  0
  162.1850  207.4220  147.3300 O   0  0  0  0  0  0  0  0  0  0  0  0
  161.3600  205.2190  151.3950 O   0  0  0  0  0  0  0  0  0  0  0  0
  162.5260  205.9670  145.6000 O   0  0  0  0  0  1  0  0  0  0  0  0
  161.3520  206.5740  150.9750 C   0  0  2  0  0  0  0  0  0  0  0  0
  160.4150  206.3210  146.3480 O   0  0  0  0  0  1  0  0  0  0  0  0
  159.3620  203.4920  150.3950 O   0  0  0  0  0  0  0  0  0  0  0  0
  160.5560  203.2740  150.2690 C   0  0  0  0  0  0  0  0  0  0  0  0
  161.0490  201.8630  150.1750 C   0  0  0  0  0  2  0  0  0  0  0  0
  160.4390  201.1910  149.0390 N   0  0  0  0  0  2  0  0  0  0  0  0
  161.4390  200.5850  148.3540 O   0  0  0  0  0  1  0  0  0  0  0  0
  162.2960  203.5860  145.9270 C   0  0  0  0  0  1  0  0  0  0  0  0
  161.6570  203.7290  147.1700 O   0  0  0  0  0  0  0  0  0  0  0  0
  161.9150  209.0490  149.0520 C   0  0  0  0  0  2  0  0  0  0  0  0
  161.5940  210.0320  148.1170 O   0  0  0  0  0  1  0  0  0  0  0  0
  162.3060  207.3980  151.8430 C   0  0  0  0  0  2  0  0  0  0  0  0
  159.5720  209.0420  156.5600 F   0  0  0  0  0  0  0  0  0  0  0  0
  160.7590  207.4580  155.3400 C   0  0  0  0  0  3  0  0  0  0  0  0
  161.6770  207.9010  153.1120 C   0  0  0  0  0  0  0  0  0  0  0  0
  160.1010  209.5330  154.1930 C   0  0  0  0  0  2  0  0  0  0  0  0
  161.4300  207.0310  154.1020 C   0  0  0  0  0  3  0  0  0  0  0  0
  161.3350  209.3770  153.2690 C   0  0  1  0  0  0  0  0  0  0  0  0
  162.5460  210.0630  153.9130 C   0  0  0  0  0  1  0  0  0  0  0  0
  160.1790  208.6560  155.4130 C   0  0  0  0  0  0  0  0  0  0  0  0
  160.5410  211.2140  152.0910 C   0  0  0  0  0  1  0  0  0  0  0  0
  161.0700  209.9140  151.9820 O   0  0  0  0  0  0  0  0  0  0  0  0
  1  3  1  0  0  0  0
  1  5  1  0  0  0  0
  3 11  1  0  0  0  0
  4  1  1  0  0  0  0
  5 14  1  0  0  0  0
  5  9  1  0  0  0  0
  6  8  1  0  0  0  0
  6  4  1  0  0  0  0
  7 20  1  0  0  0  0
  7  3  1  0  0  0  0
  8  7  1  0  0  0  0
 10  6  1  0  0  0  0
 11  2  1  0  0  0  0
 11  9  1  0  0  0  0
 11 22  1  0  0  0  0
 12  6  1  0  0  0  0
 14 13  2  0  0  0  0
 15 14  1  0  0  0  0
 16 15  1  0  0  0  0
 17 16  1  0  0  0  0
 18 19  1  0  0  0  0
 19  4  1  0  0  0  0
 21 20  1  0  0  0  0
 22 25  1  0  0  0  0
 24 30  2  0  0  0  0
 25 28  1  0  0  0  0
 25 27  2  0  0  0  0
 26 30  1  0  0  0  0
 27 24  1  0  0  0  0
 28 29  1  0  0  0  0
 28 26  1  0  0  0  0
 30 23  1  0  0  0  0
 32 31  1  0  0  0  0
 32 28  1  0  0  0  0
M  END
>  <MODEL>
2

>  <REMARK>
 VINA RESULT:      -5.5      2.343      4.492
  Name = 
  8 active torsions:
  status: ('A' for Active; 'I' for Inactive)
    1  A    between atoms: C_1  and  C_16
    2  A    between atoms: C_1  and  C_27
    3  A    between atoms: C_6  and  O_17
    4  A    between atoms: O_8  and  C_22
    5  A    between atoms: N_9  and  C_32
    6  A    between atoms: C_10  and  C_28
    7  A    between atoms: C_14  and  C_21
    8  A    between atoms: C_28  and  C_32
                            x       y       z     vdW  Elec       q    Type
                         _______ _______ _______ _____ _____    ______ ____

>  <TORSDO>
F 8

$$$$
=
 OpenBabel11062408313D

 32 34  0  0  1  0  0  0  0  0999 V2000
  160.6830  208.7620  153.5220 C   0  0  1  0  0  3  0  0  0  0  0  0
  160.0510  207.1740  151.1350 O   0  0  0  0  0  1  0  0  0  0  0  0
  161.4400  207.5920  153.0420 C   0  0  1  0  0  3  0  0  0  0  0  0
  161.0500  208.9590  154.9900 C   0  0  2  0  0  3  0  0  0  0  0  0
  161.1200  209.7900  152.5100 C   0  0  1  0  0  3  0  0  0  0  0  0
  160.7370  207.6540  155.7830 C   0  0  0  0  0  0  0  0  0  0  0  0
  160.9630  206.3680  153.8290 C   0  0  2  0  0  3  0  0  0  0  0  0
  161.3680  206.5260  155.1830 O   0  0  0  0  0  0  0  0  0  0  0  0
  161.2710  209.1200  151.2700 O   0  0  0  0  0  0  0  0  0  0  0  0
  161.2330  207.7970  157.0790 O   0  0  0  0  0  1  0  0  0  0  0  0
  161.2690  207.7290  151.5440 C   0  0  2  0  0  0  0  0  0  0  0  0
  159.3580  207.4280  155.8580 O   0  0  0  0  0  1  0  0  0  0  0  0
  158.9840  210.7250  152.8080 O   0  0  0  0  0  0  0  0  0  0  0  0
  160.1130  210.8910  152.3770 C   0  0  0  0  0  0  0  0  0  0  0  0
  160.4720  212.1790  151.7030 C   0  0  0  0  0  2  0  0  0  0  0  0
  159.4240  213.1640  151.9100 N   0  0  0  0  0  2  0  0  0  0  0  0
  158.8120  213.3490  150.7150 O   0  0  0  0  0  1  0  0  0  0  0  0
  161.6270  211.0320  155.8280 C   0  0  0  0  0  1  0  0  0  0  0  0
  160.5620  210.1500  155.5820 O   0  0  0  0  0  0  0  0  0  0  0  0
  161.5830  205.0870  153.2940 C   0  0  0  0  0  2  0  0  0  0  0  0
  160.5860  204.2320  152.8250 O   0  0  0  0  0  1  0  0  0  0  0  0
  162.4390  207.0510  150.8290 C   0  0  0  0  0  2  0  0  0  0  0  0
  161.1910  203.4980  146.5570 F   0  0  0  0  0  0  0  0  0  0  0  0
  161.3120  203.9940  148.8260 C   0  0  0  0  0  3  0  0  0  0  0  0
  162.0150  206.1800  149.6790 C   0  0  0  0  0  0  0  0  0  0  0  0
  162.2690  205.6170  147.2430 C   0  0  0  0  0  2  0  0  0  0  0  0
  161.6730  204.9070  149.9220 C   0  0  0  0  0  3  0  0  0  0  0  0
  161.9690  206.7430  148.2650 C   0  0  1  0  0  0  0  0  0  0  0  0
  160.5530  207.2810  148.0310 C   0  0  0  0  0  1  0  0  0  0  0  0
  161.5360  204.3420  147.5590 C   0  0  0  0  0  0  0  0  0  0  0  0
  162.3050  209.0410  148.2300 C   0  0  0  0  0  1  0  0  0  0  0  0
  162.9320  207.7810  148.1650 O   0  0  0  0  0  0  0  0  0  0  0  0
  1  4  1  0  0  0  0
  2 11  1  0  0  0  0
  3  1  1  0  0  0  0
  3  7  1  0  0  0  0
  4 19  1  0  0  0  0
  4  6  1  0  0  0  0
  5  1  1  0  0  0  0
  6 12  1  0  0  0  0
  6 10  1  0  0  0  0
  7  8  1  0  0  0  0
  8  6  1  0  0  0  0
  9 11  1  0  0  0  0
  9  5  1  0  0  0  0
 11  3  1  0  0  0  0
 14  5  1  0  0  0  0
 14 13  2  0  0  0  0
 15 16  1  0  0  0  0
 15 14  1  0  0  0  0
 17 16  1  0  0  0  0
 19 18  1  0  0  0  0
 20  7  1  0  0  0  0
 21 20  1  0  0  0  0
 22 11  1  0  0  0  0
 23 30  1  0  0  0  0
 24 27  1  0  0  0  0
 25 27  2  0  0  0  0
 25 22  1  0  0  0  0
 26 30  1  0  0  0  0
 26 28  1  0  0  0  0
 28 25  1  0  0  0  0
 29 28  1  0  0  0  0
 30 24  2  0  0  0  0
 32 31  1  0  0  0  0
 32 28  1  0  0  0  0
M  END
>  <MODEL>
3

>  <REMARK>
 VINA RESULT:      -5.4      3.029      6.576
  Name = 
  8 active torsions:
  status: ('A' for Active; 'I' for Inactive)
    1  A    between atoms: C_1  and  C_16
    2  A    between atoms: C_1  and  C_27
    3  A    between atoms: C_6  and  O_17
    4  A    between atoms: O_8  and  C_22
    5  A    between atoms: N_9  and  C_32
    6  A    between atoms: C_10  and  C_28
    7  A    between atoms: C_14  and  C_21
    8  A    between atoms: C_28  and  C_32
                            x       y       z     vdW  Elec       q    Type
                         _______ _______ _______ _____ _____    ______ ____

>  <TORSDO>
F 8

$$$$
=
 OpenBabel11062408313D

 32 34  0  0  1  0  0  0  0  0999 V2000
  161.1800  204.4130  148.0510 C   0  0  1  0  0  3  0  0  0  0  0  0
  159.9610  206.0560  150.1560 O   0  0  0  0  0  1  0  0  0  0  0  0
  161.7050  205.6950  148.5540 C   0  0  1  0  0  3  0  0  0  0  0  0
  161.8230  204.1710  146.6880 C   0  0  2  0  0  3  0  0  0  0  0  0
  161.5410  203.5110  149.2050 C   0  0  1  0  0  3  0  0  0  0  0  0
  161.5150  205.3750  145.7480 C   0  0  0  0  0  0  0  0  0  0  0  0
  161.2440  206.8000  147.5980 C   0  0  2  0  0  3  0  0  0  0  0  0
  161.9000  206.6080  146.3510 O   0  0  0  0  0  0  0  0  0  0  0  0
  161.3920  204.2710  150.3930 O   0  0  0  0  0  0  0  0  0  0  0  0
  162.2470  205.2150  144.5720 O   0  0  0  0  0  1  0  0  0  0  0  0
  161.2860  205.6320  150.0070 C   0  0  2  0  0  0  0  0  0  0  0  0
  160.1550  205.4250  145.4210 O   0  0  0  0  0  1  0  0  0  0  0  0
  159.4640  202.4260  149.0140 O   0  0  0  0  0  0  0  0  0  0  0  0
  160.6540  202.3060  149.2550 C   0  0  0  0  0  0  0  0  0  0  0  0
  161.2080  200.9630  149.6200 C   0  0  0  0  0  2  0  0  0  0  0  0
  162.0130  200.4380  148.5290 N   0  0  0  0  0  2  0  0  0  0  0  0
  161.1700  200.1950  147.4960 O   0  0  0  0  0  1  0  0  0  0  0  0
  160.3280  202.8780  145.4950 C   0  0  0  0  0  1  0  0  0  0  0  0
  161.5840  202.8950  146.1230 O   0  0  0  0  0  0  0  0  0  0  0  0
  161.6130  208.1780  148.1230 C   0  0  0  0  0  2  0  0  0  0  0  0
  162.9970  208.2830  148.2630 O   0  0  0  0  0  1  0  0  0  0  0  0
  162.2270  206.4920  150.8520 C   0  0  0  0  0  2  0  0  0  0  0  0
  159.7280  207.6270  155.8410 F   0  0  0  0  0  0  0  0  0  0  0  0
  160.9040  206.2030  154.4290 C   0  0  0  0  0  3  0  0  0  0  0  0
  161.6580  206.8630  152.1930 C   0  0  0  0  0  0  0  0  0  0  0  0
  160.0830  208.3260  153.4950 C   0  0  0  0  0  2  0  0  0  0  0  0
  161.5140  205.9080  153.1230 C   0  0  0  0  0  3  0  0  0  0  0  0
  161.2620  208.3040  152.4890 C   0  0  1  0  0  0  0  0  0  0  0  0
  162.4800  208.9960  153.1130 C   0  0  0  0  0  1  0  0  0  0  0  0
  160.2770  207.3620  154.6320 C   0  0  0  0  0  0  0  0  0  0  0  0
  161.5690  210.1510  151.1150 C   0  0  0  0  0  1  0  0  0  0  0  0
  160.8930  208.9260  151.2670 O   0  0  0  0  0  0  0  0  0  0  0  0
  1  3  1  0  0  0  0
  1  5  1  0  0  0  0
  3 11  1  0  0  0  0
  4  1  1  0  0  0  0
  5 14  1  0  0  0  0
  5  9  1  0  0  0  0
  6  8  1  0  0  0  0
  6  4  1  0  0  0  0
  7 20  1  0  0  0  0
  7  3  1  0  0  0  0
  8  7  1  0  0  0  0
 10  6  1  0  0  0  0
 11  2  1  0  0  0  0
 11  9  1  0  0  0  0
 11 22  1  0  0  0  0
 12  6  1  0  0  0  0
 13 14  2  0  0  0  0
 14 15  1  0  0  0  0
 16 15  1  0  0  0  0
 17 16  1  0  0  0  0
 18 19  1  0  0  0  0
 19  4  1  0  0  0  0
 20 21  1  0  0  0  0
 22 25  1  0  0  0  0
 24 30  2  0  0  0  0
 25 28  1  0  0  0  0
 25 27  2  0  0  0  0
 26 30  1  0  0  0  0
 27 24  1  0  0  0  0
 28 29  1  0  0  0  0
 28 26  1  0  0  0  0
 30 23  1  0  0  0  0
 31 32  1  0  0  0  0
 32 28  1  0  0  0  0
M  END
>  <MODEL>
4

>  <REMARK>
 VINA RESULT:      -5.2      2.657      4.852
  Name = 
  8 active torsions:
  status: ('A' for Active; 'I' for Inactive)
    1  A    between atoms: C_1  and  C_16
    2  A    between atoms: C_1  and  C_27
    3  A    between atoms: C_6  and  O_17
    4  A    between atoms: O_8  and  C_22
    5  A    between atoms: N_9  and  C_32
    6  A    between atoms: C_10  and  C_28
    7  A    between atoms: C_14  and  C_21
    8  A    between atoms: C_28  and  C_32
                            x       y       z     vdW  Elec       q    Type
                         _______ _______ _______ _____ _____    ______ ____

>  <TORSDO>
F 8

$$$$
=
 OpenBabel11062408313D

 32 34  0  0  1  0  0  0  0  0999 V2000
  161.2780  208.1980  152.2520 C   0  0  1  0  0  3  0  0  0  0  0  0
  162.8090  206.5020  150.4100 O   0  0  0  0  0  1  0  0  0  0  0  0
  161.1820  208.2200  150.7820 C   0  0  1  0  0  3  0  0  0  0  0  0
  160.7030  209.5180  152.7560 C   0  0  2  0  0  3  0  0  0  0  0  0
  160.5390  206.9160  152.5440 C   0  0  1  0  0  3  0  0  0  0  0  0
  161.4780  210.7040  152.1050 C   0  0  0  0  0  0  0  0  0  0  0  0
  162.0670  209.3600  150.2690 C   0  0  2  0  0  3  0  0  0  0  0  0
  161.4880  210.5900  150.6840 O   0  0  0  0  0  0  0  0  0  0  0  0
  160.8410  206.0100  151.4950 O   0  0  0  0  0  0  0  0  0  0  0  0
  160.8320  211.8930  152.4450 O   0  0  0  0  0  1  0  0  0  0  0  0
  161.4360  206.7640  150.4510 C   0  0  2  0  0  0  0  0  0  0  0  0
  162.7950  210.7640  152.5740 O   0  0  0  0  0  1  0  0  0  0  0  0
  161.9540  205.6320  153.9150 O   0  0  0  0  0  0  0  0  0  0  0  0
  160.9560  206.3320  153.8580 C   0  0  0  0  0  0  0  0  0  0  0  0
  160.1480  206.5790  155.0950 C   0  0  0  0  0  2  0  0  0  0  0  0
  160.9430  207.2920  156.0810 N   0  0  0  0  0  2  0  0  0  0  0  0
  160.0910  207.7170  157.0450 O   0  0  0  0  0  1  0  0  0  0  0  0
  159.3350  210.2730  154.4570 C   0  0  0  0  0  1  0  0  0  0  0  0
  160.5380  209.6120  154.1600 O   0  0  0  0  0  0  0  0  0  0  0  0
  162.1480  209.3610  148.7510 C   0  0  0  0  0  2  0  0  0  0  0  0
  161.9760  210.6550  148.2630 O   0  0  0  0  0  1  0  0  0  0  0  0
  160.7790  206.4180  149.1140 C   0  0  0  0  0  2  0  0  0  0  0  0
  161.5610  200.8810  148.0400 F   0  0  0  0  0  0  0  0  0  0  0  0
  160.6220  202.6010  149.2910 C   0  0  0  0  0  3  0  0  0  0  0  0
  160.9150  204.9700  148.7360 C   0  0  0  0  0  0  0  0  0  0  0  0
  162.2620  203.2050  147.5590 C   0  0  0  0  0  2  0  0  0  0  0  0
  160.4570  204.0340  149.5810 C   0  0  0  0  0  3  0  0  0  0  0  0
  161.5550  204.5760  147.4120 C   0  0  1  0  0  0  0  0  0  0  0  0
  160.4330  204.4650  146.3740 C   0  0  0  0  0  1  0  0  0  0  0  0
  161.4250  202.2020  148.3040 C   0  0  0  0  0  0  0  0  0  0  0  0
  162.4320  205.8280  145.6630 C   0  0  0  0  0  1  0  0  0  0  0  0
  162.4860  205.5850  147.0490 O   0  0  0  0  0  0  0  0  0  0  0  0
  1  5  1  0  0  0  0
  1  4  1  0  0  0  0
  2 11  1  0  0  0  0
  3  1  1  0  0  0  0
  4 19  1  0  0  0  0
  5 14  1  0  0  0  0
  6 10  1  0  0  0  0
  6 12  1  0  0  0  0
  6  4  1  0  0  0  0
  7  8  1  0  0  0  0
  7  3  1  0  0  0  0
  8  6  1  0  0  0  0
  9  5  1  0  0  0  0
 11  3  1  0  0  0  0
 11  9  1  0  0  0  0
 14 13  2  0  0  0  0
 14 15  1  0  0  0  0
 15 16  1  0  0  0  0
 16 17  1  0  0  0  0
 19 18  1  0  0  0  0
 20  7  1  0  0  0  0
 21 20  1  0  0  0  0
 22 11  1  0  0  0  0
 23 30  1  0  0  0  0
 24 27  1  0  0  0  0
 25 22  1  0  0  0  0
 25 27  2  0  0  0  0
 26 30  1  0  0  0  0
 28 26  1  0  0  0  0
 28 25  1  0  0  0  0
 29 28  1  0  0  0  0
 30 24  2  0  0  0  0
 31 32  1  0  0  0  0
 32 28  1  0  0  0  0
M  END
>  <MODEL>
5

>  <REMARK>
 VINA RESULT:      -5.2      3.251      7.450
  Name = 
  8 active torsions:
  status: ('A' for Active; 'I' for Inactive)
    1  A    between atoms: C_1  and  C_16
    2  A    between atoms: C_1  and  C_27
    3  A    between atoms: C_6  and  O_17
    4  A    between atoms: O_8  and  C_22
    5  A    between atoms: N_9  and  C_32
    6  A    between atoms: C_10  and  C_28
    7  A    between atoms: C_14  and  C_21
    8  A    between atoms: C_28  and  C_32
                            x       y       z     vdW  Elec       q    Type
                         _______ _______ _______ _____ _____    ______ ____

>  <TORSDO>
F 8

$$$$
=
 OpenBabel11062408313D

 32 34  0  0  1  0  0  0  0  0999 V2000
  159.6400  212.1060  153.7270 C   0  0  1  0  0  3  0  0  0  0  0  0
  159.4220  209.4250  152.5520 O   0  0  0  0  0  1  0  0  0  0  0  0
  160.5480  210.9750  153.9890 C   0  0  1  0  0  3  0  0  0  0  0  0
  159.8230  213.1010  154.8690 C   0  0  2  0  0  3  0  0  0  0  0  0
  160.0910  212.4880  152.3400 C   0  0  1  0  0  3  0  0  0  0  0  0
  159.5450  212.3880  156.2270 C   0  0  0  0  0  0  0  0  0  0  0  0
  160.1000  210.3050  155.2920 C   0  0  2  0  0  3  0  0  0  0  0  0
  160.3380  211.2110  156.3610 O   0  0  0  0  0  0  0  0  0  0  0  0
  160.4370  211.2890  151.6660 O   0  0  0  0  0  0  0  0  0  0  0  0
  159.8800  213.2630  157.2610 O   0  0  0  0  0  1  0  0  0  0  0  0
  160.5310  210.2710  152.6490 C   0  0  2  0  0  0  0  0  0  0  0  0
  158.1920  212.0510  156.3520 O   0  0  0  0  0  1  0  0  0  0  0  0
  157.8780  212.7440  151.5880 O   0  0  0  0  0  0  0  0  0  0  0  0
  159.0090  213.2010  151.5890 C   0  0  0  0  0  0  0  0  0  0  0  0
  159.3070  214.4530  150.8230 C   0  0  0  0  0  2  0  0  0  0  0  0
  160.1260  214.1490  149.6610 N   0  0  0  0  0  2  0  0  0  0  0  0
  159.2830  213.7650  148.6720 O   0  0  0  0  0  1  0  0  0  0  0  0
  157.7770  214.1510  154.6620 C   0  0  0  0  0  1  0  0  0  0  0  0
  159.1680  214.3450  154.7020 O   0  0  0  0  0  0  0  0  0  0  0  0
  160.8890  209.0330  155.5610 C   0  0  0  0  0  2  0  0  0  0  0  0
  160.0190  207.9750  155.8200 O   0  0  0  0  0  1  0  0  0  0  0  0
  161.8300  209.4830  152.4670 C   0  0  0  0  0  2  0  0  0  0  0  0
  161.3940  206.2130  147.8250 F   0  0  0  0  0  0  0  0  0  0  0  0
  161.9420  208.2230  148.8570 C   0  0  0  0  0  3  0  0  0  0  0  0
  161.8090  208.5600  151.2800 C   0  0  0  0  0  0  0  0  0  0  0  0
  160.8490  206.4920  150.2220 C   0  0  0  0  0  2  0  0  0  0  0  0
  162.0160  209.0700  150.0580 C   0  0  0  0  0  3  0  0  0  0  0  0
  161.5640  207.0690  151.4700 C   0  0  1  0  0  0  0  0  0  0  0  0
  162.9320  206.3960  151.6320 C   0  0  0  0  0  1  0  0  0  0  0  0
  161.4470  206.9870  148.9340 C   0  0  0  0  0  0  0  0  0  0  0  0
  161.3070  205.8750  153.4460 C   0  0  0  0  0  1  0  0  0  0  0  0
  160.7680  206.8910  152.6330 O   0  0  0  0  0  0  0  0  0  0  0  0
  1  3  1  0  0  0  0
  1  4  1  0  0  0  0
  2 11  1  0  0  0  0
  3  7  1  0  0  0  0
  4  6  1  0  0  0  0
  5  1  1  0  0  0  0
  6 12  1  0  0  0  0
  6  8  1  0  0  0  0
  6 10  1  0  0  0  0
  7 20  1  0  0  0  0
  7  8  1  0  0  0  0
  9  5  1  0  0  0  0
  9 11  1  0  0  0  0
 11  3  1  0  0  0  0
 13 14  2  0  0  0  0
 14  5  1  0  0  0  0
 15 14  1  0  0  0  0
 16 15  1  0  0  0  0
 17 16  1  0  0  0  0
 18 19  1  0  0  0  0
 19  4  1  0  0  0  0
 20 21  1  0  0  0  0
 22 11  1  0  0  0  0
 23 30  1  0  0  0  0
 24 30  2  0  0  0  0
 24 27  1  0  0  0  0
 25 28  1  0  0  0  0
 25 22  1  0  0  0  0
 26 28  1  0  0  0  0
 27 25  2  0  0  0  0
 28 29  1  0  0  0  0
 28 32  1  0  0  0  0
 30 26  1  0  0  0  0
 32 31  1  0  0  0  0
M  END
>  <MODEL>
6

>  <REMARK>
 VINA RESULT:      -5.0      3.393      7.473
  Name = 
  8 active torsions:
  status: ('A' for Active; 'I' for Inactive)
    1  A    between atoms: C_1  and  C_16
    2  A    between atoms: C_1  and  C_27
    3  A    between atoms: C_6  and  O_17
    4  A    between atoms: O_8  and  C_22
    5  A    between atoms: N_9  and  C_32
    6  A    between atoms: C_10  and  C_28
    7  A    between atoms: C_14  and  C_21
    8  A    between atoms: C_28  and  C_32
                            x       y       z     vdW  Elec       q    Type
                         _______ _______ _______ _____ _____    ______ ____

>  <TORSDO>
F 8

$$$$
=
 OpenBabel11062408313D

 32 34  0  0  1  0  0  0  0  0999 V2000
  161.5230  207.9050  151.8390 C   0  0  1  0  0  3  0  0  0  0  0  0
  163.1930  206.8860  149.6510 O   0  0  0  0  0  1  0  0  0  0  0  0
  161.4010  208.2780  150.4190 C   0  0  1  0  0  3  0  0  0  0  0  0
  160.8220  208.9930  152.6480 C   0  0  2  0  0  3  0  0  0  0  0  0
  160.9270  206.5210  151.7980 C   0  0  1  0  0  3  0  0  0  0  0  0
  161.4580  210.3770  152.3170 C   0  0  0  0  0  0  0  0  0  0  0  0
  162.1540  209.5960  150.2120 C   0  0  2  0  0  3  0  0  0  0  0  0
  161.4580  210.6190  150.9120 O   0  0  0  0  0  0  0  0  0  0  0  0
  161.3040  205.9380  150.5620 O   0  0  0  0  0  0  0  0  0  0  0  0
  160.6980  211.3710  152.9330 O   0  0  0  0  0  1  0  0  0  0  0  0
  161.8000  206.9840  149.7420 C   0  0  2  0  0  0  0  0  0  0  0  0
  162.7690  210.4580  152.7990 O   0  0  0  0  0  1  0  0  0  0  0  0
  162.1640  206.1710  153.7670 O   0  0  0  0  0  0  0  0  0  0  0  0
  161.4230  205.6780  152.9320 C   0  0  0  0  0  0  0  0  0  0  0  0
  161.0380  204.2350  153.0380 C   0  0  0  0  0  2  0  0  0  0  0  0
  161.7070  203.4590  152.0070 N   0  0  0  0  0  2  0  0  0  0  0  0
  160.8260  202.5210  151.5820 O   0  0  0  0  0  1  0  0  0  0  0  0
  159.7940  209.6520  154.6080 C   0  0  0  0  0  1  0  0  0  0  0  0
  160.6710  208.7200  154.0300 O   0  0  0  0  0  0  0  0  0  0  0  0
  162.2100  209.9790  148.7420 C   0  0  0  0  0  2  0  0  0  0  0  0
  162.0520  211.3570  148.5990 O   0  0  0  0  0  1  0  0  0  0  0  0
  161.1610  206.9110  148.3540 C   0  0  0  0  0  2  0  0  0  0  0  0
  161.1660  201.5080  146.5550 F   0  0  0  0  0  0  0  0  0  0  0  0
  160.7110  203.1170  148.1710 C   0  0  0  0  0  3  0  0  0  0  0  0
  161.0730  205.5130  147.8080 C   0  0  0  0  0  0  0  0  0  0  0  0
  161.9340  203.8260  146.1570 C   0  0  0  0  0  2  0  0  0  0  0  0
  160.7500  204.5120  148.6390 C   0  0  0  0  0  3  0  0  0  0  0  0
  161.3380  205.2460  146.3320 C   0  0  1  0  0  0  0  0  0  0  0  0
  159.9940  205.3300  145.6010 C   0  0  0  0  0  1  0  0  0  0  0  0
  161.2150  202.7930  146.9800 C   0  0  0  0  0  0  0  0  0  0  0  0
  162.8780  205.7880  144.6800 C   0  0  0  0  0  1  0  0  0  0  0  0
  162.2410  206.2320  145.8550 O   0  0  0  0  0  0  0  0  0  0  0  0
  1  4  1  0  0  0  0
  2 11  1  0  0  0  0
  3  1  1  0  0  0  0
  4 19  1  0  0  0  0
  5  1  1  0  0  0  0
  5 14  1  0  0  0  0
  6  4  1  0  0  0  0
  6 12  1  0  0  0  0
  6 10  1  0  0  0  0
  7  3  1  0  0  0  0
  7  8  1  0  0  0  0
  8  6  1  0  0  0  0
  9  5  1  0  0  0  0
 11  3  1  0  0  0  0
 11  9  1  0  0  0  0
 14 15  1  0  0  0  0
 14 13  2  0  0  0  0
 16 15  1  0  0  0  0
 17 16  1  0  0  0  0
 19 18  1  0  0  0  0
 20  7  1  0  0  0  0
 21 20  1  0  0  0  0
 22 11  1  0  0  0  0
 23 30  1  0  0  0  0
 24 27  1  0  0  0  0
 25 22  1  0  0  0  0
 25 27  2  0  0  0  0
 26 28  1  0  0  0  0
 26 30  1  0  0  0  0
 28 25  1  0  0  0  0
 29 28  1  0  0  0  0
 30 24  2  0  0  0  0
 31 32  1  0  0  0  0
 32 28  1  0  0  0  0
M  END
>  <MODEL>
7

>  <REMARK>
 VINA RESULT:      -5.0      3.299      7.689
  Name = 
  8 active torsions:
  status: ('A' for Active; 'I' for Inactive)
    1  A    between atoms: C_1  and  C_16
    2  A    between atoms: C_1  and  C_27
    3  A    between atoms: C_6  and  O_17
    4  A    between atoms: O_8  and  C_22
    5  A    between atoms: N_9  and  C_32
    6  A    between atoms: C_10  and  C_28
    7  A    between atoms: C_14  and  C_21
    8  A    between atoms: C_28  and  C_32
                            x       y       z     vdW  Elec       q    Type
                         _______ _______ _______ _____ _____    ______ ____

>  <TORSDO>
F 8

$$$$
=
 OpenBabel11062408313D

 32 34  0  0  1  0  0  0  0  0999 V2000
  161.4540  208.1350  151.9830 C   0  0  1  0  0  3  0  0  0  0  0  0
  162.4740  205.6830  150.7320 O   0  0  0  0  0  1  0  0  0  0  0  0
  161.0950  207.6400  150.6430 C   0  0  1  0  0  3  0  0  0  0  0  0
  161.0970  209.6180  152.0220 C   0  0  2  0  0  3  0  0  0  0  0  0
  160.6740  207.1690  152.8380 C   0  0  1  0  0  3  0  0  0  0  0  0
  161.8390  210.3610  150.8700 C   0  0  0  0  0  0  0  0  0  0  0  0
  161.9670  208.3750  149.6200 C   0  0  2  0  0  3  0  0  0  0  0  0
  161.5820  209.7430  149.6110 O   0  0  0  0  0  0  0  0  0  0  0  0
  160.7010  205.9120  152.1810 O   0  0  0  0  0  0  0  0  0  0  0  0
  161.3710  211.6740  150.8180 O   0  0  0  0  0  1  0  0  0  0  0  0
  161.1580  206.1430  150.8580 C   0  0  2  0  0  0  0  0  0  0  0  0
  163.2200  210.3910  151.0960 O   0  0  0  0  0  1  0  0  0  0  0  0
  162.3300  206.4550  154.3460 O   0  0  0  0  0  0  0  0  0  0  0  0
  161.2700  207.0420  154.2050 C   0  0  0  0  0  0  0  0  0  0  0  0
  160.5690  207.6090  155.4010 C   0  0  0  0  0  2  0  0  0  0  0  0
  161.5250  207.8890  156.4590 N   0  0  0  0  0  2  0  0  0  0  0  0
  161.9220  209.1760  156.3040 O   0  0  0  0  0  1  0  0  0  0  0  0
  159.9510  210.7560  153.6730 C   0  0  0  0  0  1  0  0  0  0  0  0
  161.1980  210.2340  153.2930 O   0  0  0  0  0  0  0  0  0  0  0  0
  161.7700  207.8170  148.2190 C   0  0  0  0  0  2  0  0  0  0  0  0
  162.8330  206.9780  147.8850 O   0  0  0  0  0  1  0  0  0  0  0  0
  160.2420  205.4400  149.8550 C   0  0  0  0  0  2  0  0  0  0  0  0
  161.7030  200.2210  148.1060 F   0  0  0  0  0  0  0  0  0  0  0  0
  161.5820  202.5200  147.7790 C   0  0  0  0  0  3  0  0  0  0  0  0
  160.7150  204.0650  149.4720 C   0  0  0  0  0  0  0  0  0  0  0  0
  160.4660  201.5810  149.7610 C   0  0  0  0  0  2  0  0  0  0  0  0
  161.1660  203.8590  148.2260 C   0  0  0  0  0  3  0  0  0  0  0  0
  160.6900  202.9320  150.4880 C   0  0  1  0  0  0  0  0  0  0  0  0
  162.0530  202.9140  151.1910 C   0  0  0  0  0  1  0  0  0  0  0  0
  161.3070  201.4470  148.5220 C   0  0  0  0  0  0  0  0  0  0  0  0
  160.0830  202.9480  152.7300 C   0  0  0  0  0  1  0  0  0  0  0  0
  159.6430  203.1840  151.4130 O   0  0  0  0  0  0  0  0  0  0  0  0
  1  4  1  0  0  0  0
  1  5  1  0  0  0  0
  2 11  1  0  0  0  0
  3 11  1  0  0  0  0
  3  1  1  0  0  0  0
  4 19  1  0  0  0  0
  5 14  1  0  0  0  0
  6 12  1  0  0  0  0
  6  4  1  0  0  0  0
  7  3  1  0  0  0  0
  8  7  1  0  0  0  0
  8  6  1  0  0  0  0
  9  5  1  0  0  0  0
 10  6  1  0  0  0  0
 11  9  1  0  0  0  0
 14 13  2  0  0  0  0
 14 15  1  0  0  0  0
 15 16  1  0  0  0  0
 17 16  1  0  0  0  0
 19 18  1  0  0  0  0
 20  7  1  0  0  0  0
 21 20  1  0  0  0  0
 22 11  1  0  0  0  0
 23 30  1  0  0  0  0
 24 27  1  0  0  0  0
 24 30  2  0  0  0  0
 25 22  1  0  0  0  0
 25 28  1  0  0  0  0
 26 28  1  0  0  0  0
 27 25  2  0  0  0  0
 28 29  1  0  0  0  0
 28 32  1  0  0  0  0
 30 26  1  0  0  0  0
 32 31  1  0  0  0  0
M  END
>  <MODEL>
8

>  <REMARK>
 VINA RESULT:      -4.9      3.268      7.046
  Name = 
  8 active torsions:
  status: ('A' for Active; 'I' for Inactive)
    1  A    between atoms: C_1  and  C_16
    2  A    between atoms: C_1  and  C_27
    3  A    between atoms: C_6  and  O_17
    4  A    between atoms: O_8  and  C_22
    5  A    between atoms: N_9  and  C_32
    6  A    between atoms: C_10  and  C_28
    7  A    between atoms: C_14  and  C_21
    8  A    between atoms: C_28  and  C_32
                            x       y       z     vdW  Elec       q    Type
                         _______ _______ _______ _____ _____    ______ ____

>  <TORSDO>
F 8

$$$$
=
 OpenBabel11062408313D

 32 34  0  0  1  0  0  0  0  0999 V2000
  161.5420  208.3280  152.3510 C   0  0  1  0  0  3  0  0  0  0  0  0
  161.9970  210.0740  154.6660 O   0  0  0  0  0  1  0  0  0  0  0  0
  160.7120  208.3770  153.5670 C   0  0  1  0  0  3  0  0  0  0  0  0
  161.2480  206.9990  151.6620 C   0  0  2  0  0  3  0  0  0  0  0  0
  161.1090  209.6110  151.6870 C   0  0  1  0  0  3  0  0  0  0  0  0
  161.5350  205.8280  152.6510 C   0  0  0  0  0  0  0  0  0  0  0  0
  161.1660  207.2420  154.4910 C   0  0  2  0  0  3  0  0  0  0  0  0
  160.8270  206.0070  153.8760 O   0  0  0  0  0  0  0  0  0  0  0  0
  160.8750  210.5580  152.7160 O   0  0  0  0  0  0  0  0  0  0  0  0
  161.1020  204.6390  152.0640 O   0  0  0  0  0  1  0  0  0  0  0  0
  160.8250  209.8400  153.9380 C   0  0  2  0  0  0  0  0  0  0  0  0
  162.9040  205.7180  152.9190 O   0  0  0  0  0  1  0  0  0  0  0  0
  163.2100  210.5490  151.2020 O   0  0  0  0  0  0  0  0  0  0  0  0
  162.1590  210.1250  150.7500 C   0  0  0  0  0  0  0  0  0  0  0  0
  161.9220  210.1440  149.2720 C   0  0  0  0  0  2  0  0  0  0  0  0
  162.3510  211.4140  148.7100 N   0  0  0  0  0  2  0  0  0  0  0  0
  161.3150  212.2760  148.8440 O   0  0  0  0  0  1  0  0  0  0  0  0
  160.8010  206.6090  149.4300 C   0  0  0  0  0  1  0  0  0  0  0  0
  161.8150  206.8440  150.3730 O   0  0  0  0  0  0  0  0  0  0  0  0
  160.4650  207.3110  155.8390 C   0  0  0  0  0  2  0  0  0  0  0  0
  161.3660  207.7050  156.8280 O   0  0  0  0  0  1  0  0  0  0  0  0
  159.5950  210.2620  154.7450 C   0  0  0  0  0  2  0  0  0  0  0  0
  156.8270  214.4530  152.0620 F   0  0  0  0  0  0  0  0  0  0  0  0
  158.1510  212.5420  152.0350 C   0  0  0  0  0  3  0  0  0  0  0  0
  158.7630  211.3130  154.0640 C   0  0  0  0  0  0  0  0  0  0  0  0
  157.6490  213.5600  154.2180 C   0  0  0  0  0  2  0  0  0  0  0  0
  158.8930  211.4850  152.7410 C   0  0  0  0  0  3  0  0  0  0  0  0
  157.7850  212.1590  154.8670 C   0  0  1  0  0  0  0  0  0  0  0  0
  156.4280  211.4470  154.8360 C   0  0  0  0  0  1  0  0  0  0  0  0
  157.5140  213.4910  152.7220 C   0  0  0  0  0  0  0  0  0  0  0  0
  158.8260  213.5440  156.4150 C   0  0  0  0  0  1  0  0  0  0  0  0
  158.2730  212.2670  156.1960 O   0  0  0  0  0  0  0  0  0  0  0  0
  1  3  1  0  0  0  0
  3 11  1  0  0  0  0
  3  7  1  0  0  0  0
  4  1  1  0  0  0  0
  4  6  1  0  0  0  0
  5  1  1  0  0  0  0
  5  9  1  0  0  0  0
  6 12  1  0  0  0  0
  6  8  1  0  0  0  0
  7 20  1  0  0  0  0
  8  7  1  0  0  0  0
  9 11  1  0  0  0  0
 10  6  1  0  0  0  0
 11  2  1  0  0  0  0
 11 22  1  0  0  0  0
 14 13  2  0  0  0  0
 14  5  1  0  0  0  0
 15 14  1  0  0  0  0
 16 17  1  0  0  0  0
 16 15  1  0  0  0  0
 18 19  1  0  0  0  0
 19  4  1  0  0  0  0
 20 21  1  0  0  0  0
 23 30  1  0  0  0  0
 24 30  2  0  0  0  0
 24 27  1  0  0  0  0
 25 22  1  0  0  0  0
 25 28  1  0  0  0  0
 26 28  1  0  0  0  0
 27 25  2  0  0  0  0
 28 32  1  0  0  0  0
 29 28  1  0  0  0  0
 30 26  1  0  0  0  0
 32 31  1  0  0  0  0
M  END
>  <MODEL>
9

>  <REMARK>
 VINA RESULT:      -4.9      2.702      4.595
  Name = 
  8 active torsions:
  status: ('A' for Active; 'I' for Inactive)
    1  A    between atoms: C_1  and  C_16
    2  A    between atoms: C_1  and  C_27
    3  A    between atoms: C_6  and  O_17
    4  A    between atoms: O_8  and  C_22
    5  A    between atoms: N_9  and  C_32
    6  A    between atoms: C_10  and  C_28
    7  A    between atoms: C_14  and  C_21
    8  A    between atoms: C_28  and  C_32
                            x       y       z     vdW  Elec       q    Type
                         _______ _______ _______ _____ _____    ______ ____

>  <TORSDO>
F 8

$$$$
