=
 OpenBabel11062409573D

 43 48  0  0  1  0  0  0  0  0999 V2000
  161.1670  203.4230  147.5020 C   0  0  0  0  0  0  0  0  0  0  0  0
  161.1920  205.9960  151.8530 C   0  0  0  0  0  0  0  0  0  0  0  0
  161.4380  208.7330  151.1600 C   0  0  0  0  0  0  0  0  0  0  0  0
  161.1230  204.0460  149.8240 C   0  0  0  0  0  0  0  0  0  0  0  0
  161.3030  204.6800  147.0770 C   0  0  0  0  0  3  0  0  0  0  0  0
  161.1010  202.3150  146.5130 C   0  0  0  0  0  1  0  0  0  0  0  0
  161.2610  205.4100  149.4830 C   0  0  0  0  0  0  0  0  0  0  0  0
  161.0810  203.1280  148.9030 N   0  0  0  0  0  0  0  0  0  0  0  0
  161.3760  205.8340  148.0390 C   0  0  0  0  0  2  0  0  0  0  0  0
  161.4220  207.7390  150.1710 O   0  0  0  0  0  0  0  0  0  0  0  0
  161.2920  206.3800  150.4980 C   0  0  0  0  0  0  0  0  0  0  0  0
  161.0640  204.6350  152.1730 C   0  0  0  0  0  3  0  0  0  0  0  0
  161.2210  206.9460  152.8140 C   0  0  0  0  0  0  0  0  0  0  0  0
  161.3440  208.3720  152.4460 C   0  0  0  0  0  3  0  0  0  0  0  0
  161.0270  203.6700  151.1650 C   0  0  0  0  0  3  0  0  0  0  0  0
  161.5510  210.1180  150.7840 N   0  0  0  0  0  0  0  0  0  0  0  0
  161.0140  211.1680  151.6450 C   0  0  0  0  0  1  0  0  0  0  0  0
  162.3850  210.5050  149.6470 C   0  0  2  0  0  3  0  0  0  0  0  0
  161.5450  211.2070  148.5910 C   0  0  2  0  0  3  0  0  0  0  0  0
  161.9510  209.7660  148.3930 C   0  0  0  0  0  2  0  0  0  0  0  0
  162.4480  212.1050  147.7680 C   0  0  0  0  0  2  0  0  0  0  0  0
  161.6690  213.3070  147.2590 C   0  0  2  0  0  3  0  0  0  0  0  0
  159.4850  213.7820  145.8060 S   0  0  0  0  0  0  0  0  0  0  0  0
  160.5410  213.5810  148.1320 N   0  0  0  0  0  2  0  0  0  0  0  0
  161.1220  213.0160  145.8830 C   0  0  1  0  0  3  0  0  0  0  0  0
  159.6950  214.4530  147.4290 N   0  0  0  0  0  2  0  0  0  0  0  0
  161.9350  213.1080  143.4650 N   0  0  0  0  0  0  0  0  0  0  0  0
  162.0250  213.5710  144.8230 C   0  0  0  0  0  0  0  0  0  0  0  0
  162.9150  213.5420  142.4830 C   0  0  0  0  0  1  0  0  0  0  0  0
  162.8830  214.4430  145.1340 O   0  0  0  0  0  0  0  0  0  0  0  0
  160.9580  212.1030  143.0590 C   0  0  0  0  0  2  0  0  0  0  0  0
  161.1250  211.7420  141.5880 C   0  0  0  0  0  2  0  0  0  0  0  0
  158.9210  212.6700  141.5540 O   0  0  0  0  0  1  0  0  0  0  0  0
  160.0070  212.3310  140.7430 C   0  0  0  0  0  2  0  0  0  0  0  0
  161.1660  206.5990  154.2730 C   0  0  0  0  0  2  0  0  0  0  0  0
  159.1550  209.2260  156.1230 C   0  0  0  0  0  3  0  0  0  0  0  0
  160.1590  210.1080  156.5410 C   0  0  0  0  0  0  0  0  0  0  0  0
  161.8290  208.6830  155.5010 C   0  0  0  0  0  3  0  0  0  0  0  0
  159.4850  208.0790  155.3950 C   0  0  0  0  0  3  0  0  0  0  0  0
  160.8220  207.8040  155.0860 C   0  0  0  0  0  0  0  0  0  0  0  0
  161.4990  209.8300  156.2290 C   0  0  0  0  0  3  0  0  0  0  0  0
  160.2350  212.4620  156.8780 O   0  0  0  0  0  1  0  0  0  0  0  0
  159.8130  211.2500  157.2610 O   0  0  0  0  0  0  0  0  0  0  0  0
  1  8  1  0  0  0  0
  2 12  1  0  0  0  0
  2 13  2  0  0  0  0
  3 14  2  0  0  0  0
  4 15  1  0  0  0  0
  5  1  2  0  0  0  0
  5  9  1  0  0  0  0
  6  1  1  0  0  0  0
  7  4  1  0  0  0  0
  7 11  2  0  0  0  0
  8  4  2  0  0  0  0
  9  7  1  0  0  0  0
 10 11  1  0  0  0  0
 10  3  1  0  0  0  0
 11  2  1  0  0  0  0
 13 35  1  0  0  0  0
 14 13  1  0  0  0  0
 15 12  2  0  0  0  0
 16  3  1  0  0  0  0
 16 17  1  0  0  0  0
 18 16  1  1  0  0  0
 19 21  1  6  0  0  0
 19 18  1  0  0  0  0
 20 19  1  0  0  0  0
 20 18  1  0  0  0  0
 22 21  1  1  0  0  0
 22 24  1  0  0  0  0
 23 25  1  0  0  0  0
 23 26  1  0  0  0  0
 25 28  1  6  0  0  0
 25 22  1  0  0  0  0
 26 24  1  0  0  0  0
 27 28  1  0  0  0  0
 28 30  2  0  0  0  0
 29 27  1  0  0  0  0
 31 27  1  0  0  0  0
 32 31  1  0  0  0  0
 34 33  1  0  0  0  0
 34 32  1  0  0  0  0
 35 40  1  0  0  0  0
 36 37  1  0  0  0  0
 37 43  1  0  0  0  0
 38 41  1  0  0  0  0
 39 36  2  0  0  0  0
 40 39  1  0  0  0  0
 40 38  2  0  0  0  0
 41 37  2  0  0  0  0
 42 43  1  0  0  0  0
M  END
>  <MODEL>
1

>  <REMARK>
 VINA RESULT:      -7.9      0.000      0.000
  Name = 
  11 active torsions:
  status: ('A' for Active; 'I' for Inactive)
    1  A    between atoms: C_1  and  C_34
    2  A    between atoms: C_1  and  C_35
    3  A    between atoms: N_2  and  C_6
    4  A    between atoms: N_2  and  C_13
    5  A    between atoms: C_3  and  C_4
    6  A    between atoms: C_3  and  C_12
    7  A    between atoms: N_11  and  C_36
    8  A    between atoms: C_14  and  C_22
    9  A    between atoms: C_19  and  O_37
   10  A    between atoms: C_29  and  C_31
   11  A    between atoms: C_29  and  C_36
                            x       y       z     vdW  Elec       q    Type
                         _______ _______ _______ _____ _____    ______ ____

>  <TORSDO>
F 11

$$$$
=
 OpenBabel11062409573D

 43 48  0  0  1  0  0  0  0  0999 V2000
  161.3460  204.2950  148.2530 C   0  0  0  0  0  0  0  0  0  0  0  0
  161.8020  208.5320  150.9730 C   0  0  0  0  0  0  0  0  0  0  0  0
  161.8740  210.6700  149.1150 C   0  0  0  0  0  0  0  0  0  0  0  0
  161.5570  205.8850  150.0440 C   0  0  0  0  0  0  0  0  0  0  0  0
  161.3900  205.2300  147.3020 C   0  0  0  0  0  3  0  0  0  0  0  0
  161.2000  202.8660  147.8730 C   0  0  0  0  0  1  0  0  0  0  0  0
  161.6090  206.9530  149.1200 C   0  0  0  0  0  0  0  0  0  0  0  0
  161.4360  204.6560  149.6380 N   0  0  0  0  0  0  0  0  0  0  0  0
  161.5380  206.6880  147.6360 C   0  0  0  0  0  2  0  0  0  0  0  0
  161.7740  209.3410  148.6790 O   0  0  0  0  0  0  0  0  0  0  0  0
  161.7280  208.2720  149.5870 C   0  0  0  0  0  0  0  0  0  0  0  0
  161.7560  207.4570  151.8760 C   0  0  0  0  0  3  0  0  0  0  0  0
  161.9130  209.8080  151.4020 C   0  0  0  0  0  0  0  0  0  0  0  0
  161.9450  210.9190  150.4290 C   0  0  0  0  0  3  0  0  0  0  0  0
  161.6330  206.1470  151.4130 C   0  0  0  0  0  3  0  0  0  0  0  0
  161.8970  211.7400  148.1530 N   0  0  0  0  0  0  0  0  0  0  0  0
  163.0100  212.6860  148.1190 C   0  0  0  0  0  1  0  0  0  0  0  0
  160.9190  211.7740  147.0670 C   0  0  2  0  0  3  0  0  0  0  0  0
  161.1590  212.9840  146.1770 C   0  0  2  0  0  3  0  0  0  0  0  0
  160.0360  213.0050  147.1850 C   0  0  0  0  0  2  0  0  0  0  0  0
  160.5980  212.6940  144.7980 C   0  0  0  0  0  2  0  0  0  0  0  0
  161.6910  212.8190  143.7500 C   0  0  2  0  0  3  0  0  0  0  0  0
  162.3380  214.4530  141.7470 S   0  0  0  0  0  0  0  0  0  0  0  0
  162.7020  213.7640  144.1870 N   0  0  0  0  0  2  0  0  0  0  0  0
  161.1050  213.3380  142.4600 C   0  0  1  0  0  3  0  0  0  0  0  0
  163.4690  214.0820  143.0550 N   0  0  0  0  0  2  0  0  0  0  0  0
  159.6310  212.2510  140.6830 N   0  0  0  0  0  0  0  0  0  0  0  0
  160.7960  212.2100  141.5230 C   0  0  0  0  0  0  0  0  0  0  0  0
  159.2610  211.0880  139.8930 C   0  0  0  0  0  1  0  0  0  0  0  0
  161.5610  211.2070  141.4870 O   0  0  0  0  0  0  0  0  0  0  0  0
  158.7190  213.3900  140.6900 C   0  0  0  0  0  2  0  0  0  0  0  0
  158.5370  213.9540  139.2850 C   0  0  0  0  0  2  0  0  0  0  0  0
  156.3790  212.9990  139.6800 O   0  0  0  0  0  1  0  0  0  0  0  0
  157.0890  213.8530  138.8330 C   0  0  0  0  0  2  0  0  0  0  0  0
  162.0420  210.1470  152.8590 C   0  0  0  0  0  2  0  0  0  0  0  0
  159.0280  210.5710  155.1180 C   0  0  0  0  0  3  0  0  0  0  0  0
  158.2550  211.4810  154.3880 C   0  0  0  0  0  0  0  0  0  0  0  0
  159.9680  211.5450  152.6690 C   0  0  0  0  0  3  0  0  0  0  0  0
  160.2650  210.1460  154.6240 C   0  0  0  0  0  3  0  0  0  0  0  0
  160.7380  210.6340  153.4020 C   0  0  0  0  0  0  0  0  0  0  0  0
  158.7310  211.9690  153.1620 C   0  0  0  0  0  3  0  0  0  0  0  0
  155.9110  211.1750  154.6660 O   0  0  0  0  0  1  0  0  0  0  0  0
  157.0210  211.8900  154.8910 O   0  0  0  0  0  0  0  0  0  0  0  0
  1  8  1  0  0  0  0
  2 13  2  0  0  0  0
  2 12  1  0  0  0  0
  3 14  2  0  0  0  0
  4 15  1  0  0  0  0
  5  9  1  0  0  0  0
  5  1  2  0  0  0  0
  6  1  1  0  0  0  0
  7 11  2  0  0  0  0
  7  4  1  0  0  0  0
  8  4  2  0  0  0  0
  9  7  1  0  0  0  0
 10  3  1  0  0  0  0
 10 11  1  0  0  0  0
 11  2  1  0  0  0  0
 13 35  1  0  0  0  0
 14 13  1  0  0  0  0
 15 12  2  0  0  0  0
 16  3  1  0  0  0  0
 17 16  1  0  0  0  0
 18 20  1  0  0  0  0
 18 16  1  1  0  0  0
 19 21  1  6  0  0  0
 19 18  1  0  0  0  0
 19 20  1  0  0  0  0
 22 24  1  0  0  0  0
 22 21  1  1  0  0  0
 23 25  1  0  0  0  0
 23 26  1  0  0  0  0
 25 28  1  6  0  0  0
 25 22  1  0  0  0  0
 26 24  1  0  0  0  0
 27 31  1  0  0  0  0
 27 28  1  0  0  0  0
 29 27  1  0  0  0  0
 30 28  2  0  0  0  0
 32 31  1  0  0  0  0
 34 32  1  0  0  0  0
 34 33  1  0  0  0  0
 35 40  1  0  0  0  0
 37 43  1  0  0  0  0
 37 36  2  0  0  0  0
 38 41  2  0  0  0  0
 38 40  1  0  0  0  0
 39 36  1  0  0  0  0
 40 39  2  0  0  0  0
 41 37  1  0  0  0  0
 42 43  1  0  0  0  0
M  END
>  <MODEL>
2

>  <REMARK>
 VINA RESULT:      -7.8      2.143      3.457
  Name = 
  11 active torsions:
  status: ('A' for Active; 'I' for Inactive)
    1  A    between atoms: C_1  and  C_34
    2  A    between atoms: C_1  and  C_35
    3  A    between atoms: N_2  and  C_6
    4  A    between atoms: N_2  and  C_13
    5  A    between atoms: C_3  and  C_4
    6  A    between atoms: C_3  and  C_12
    7  A    between atoms: N_11  and  C_36
    8  A    between atoms: C_14  and  C_22
    9  A    between atoms: C_19  and  O_37
   10  A    between atoms: C_29  and  C_31
   11  A    between atoms: C_29  and  C_36
                            x       y       z     vdW  Elec       q    Type
                         _______ _______ _______ _____ _____    ______ ____

>  <TORSDO>
F 11

$$$$
=
 OpenBabel11062409573D

 43 48  0  0  1  0  0  0  0  0999 V2000
  161.0190  204.0360  148.9070 C   0  0  0  0  0  0  0  0  0  0  0  0
  161.6950  208.4000  151.3660 C   0  0  0  0  0  0  0  0  0  0  0  0
  161.9410  210.4060  149.3790 C   0  0  0  0  0  0  0  0  0  0  0  0
  161.2980  205.7200  150.6000 C   0  0  0  0  0  0  0  0  0  0  0  0
  161.1420  204.9030  147.9010 C   0  0  0  0  0  3  0  0  0  0  0  0
  160.7890  202.5970  148.6150 C   0  0  0  0  0  1  0  0  0  0  0  0
  161.4370  206.7210  149.6120 C   0  0  0  0  0  0  0  0  0  0  0  0
  161.1060  204.4780  150.2690 N   0  0  0  0  0  0  0  0  0  0  0  0
  161.3770  206.3670  148.1460 C   0  0  0  0  0  2  0  0  0  0  0  0
  161.7630  209.0610  149.0260 O   0  0  0  0  0  0  0  0  0  0  0  0
  161.6310  208.0570  149.9980 C   0  0  0  0  0  0  0  0  0  0  0  0
  161.5630  207.3910  152.3340 C   0  0  0  0  0  3  0  0  0  0  0  0
  161.8800  209.6920  151.7170 C   0  0  0  0  0  0  0  0  0  0  0  0
  162.0020  210.7340  150.6760 C   0  0  0  0  0  3  0  0  0  0  0  0
  161.3640  206.0640  151.9510 C   0  0  0  0  0  3  0  0  0  0  0  0
  162.0510  211.4090  148.3530 N   0  0  0  0  0  0  0  0  0  0  0  0
  163.3610  211.8540  147.8860 C   0  0  0  0  0  1  0  0  0  0  0  0
  160.8630  211.8440  147.6190 C   0  0  2  0  0  3  0  0  0  0  0  0
  161.1690  213.0960  146.8130 C   0  0  2  0  0  3  0  0  0  0  0  0
  160.4040  213.2060  148.1100 C   0  0  0  0  0  2  0  0  0  0  0  0
  160.2030  213.1730  145.6460 C   0  0  0  0  0  2  0  0  0  0  0  0
  160.9450  212.9630  144.3370 C   0  0  2  0  0  3  0  0  0  0  0  0
  162.1650  214.4490  142.4900 S   0  0  0  0  0  0  0  0  0  0  0  0
  162.3790  212.9610  144.5650 N   0  0  0  0  0  2  0  0  0  0  0  0
  160.6340  214.0940  143.3870 C   0  0  1  0  0  3  0  0  0  0  0  0
  162.9840  213.1110  143.3080 N   0  0  0  0  0  2  0  0  0  0  0  0
  159.7940  212.8290  141.3360 N   0  0  0  0  0  0  0  0  0  0  0  0
  159.5360  213.7090  142.4420 C   0  0  0  0  0  0  0  0  0  0  0  0
  158.7600  212.5860  140.3430 C   0  0  0  0  0  1  0  0  0  0  0  0
  158.3770  214.1790  142.6140 O   0  0  0  0  0  0  0  0  0  0  0  0
  161.1160  212.2600  141.0980 C   0  0  0  0  0  2  0  0  0  0  0  0
  161.0440  210.7440  140.9650 C   0  0  0  0  0  2  0  0  0  0  0  0
  163.2250  211.0410  140.0300 O   0  0  0  0  0  1  0  0  0  0  0  0
  162.0930  210.2220  139.9970 C   0  0  0  0  0  2  0  0  0  0  0  0
  162.0030  210.1150  153.1520 C   0  0  0  0  0  2  0  0  0  0  0  0
  158.4820  211.5170  153.2010 C   0  0  0  0  0  3  0  0  0  0  0  0
  158.3020  211.7810  154.5640 C   0  0  0  0  0  0  0  0  0  0  0  0
  160.5320  210.9310  155.0120 C   0  0  0  0  0  3  0  0  0  0  0  0
  159.6830  210.9650  152.7440 C   0  0  0  0  0  3  0  0  0  0  0  0
  160.7070  210.6670  153.6490 C   0  0  0  0  0  0  0  0  0  0  0  0
  159.3320  211.4830  155.4690 C   0  0  0  0  0  3  0  0  0  0  0  0
  155.9250  211.9000  154.5330 O   0  0  0  0  0  1  0  0  0  0  0  0
  157.1020  212.3370  155.0020 O   0  0  0  0  0  0  0  0  0  0  0  0
  1  8  1  0  0  0  0
  2 13  2  0  0  0  0
  2 12  1  0  0  0  0
  3 14  2  0  0  0  0
  4 15  1  0  0  0  0
  5  9  1  0  0  0  0
  5  1  2  0  0  0  0
  6  1  1  0  0  0  0
  7 11  2  0  0  0  0
  7  4  1  0  0  0  0
  8  4  2  0  0  0  0
  9  7  1  0  0  0  0
 10  3  1  0  0  0  0
 10 11  1  0  0  0  0
 11  2  1  0  0  0  0
 13 35  1  0  0  0  0
 14 13  1  0  0  0  0
 15 12  2  0  0  0  0
 16  3  1  0  0  0  0
 17 16  1  0  0  0  0
 18 20  1  0  0  0  0
 18 16  1  1  0  0  0
 19 21  1  6  0  0  0
 19 18  1  0  0  0  0
 19 20  1  0  0  0  0
 22 24  1  0  0  0  0
 22 21  1  1  0  0  0
 23 26  1  0  0  0  0
 23 25  1  0  0  0  0
 25 28  1  6  0  0  0
 25 22  1  0  0  0  0
 26 24  1  0  0  0  0
 27 28  1  0  0  0  0
 28 30  2  0  0  0  0
 29 27  1  0  0  0  0
 31 27  1  0  0  0  0
 32 31  1  0  0  0  0
 34 33  1  0  0  0  0
 34 32  1  0  0  0  0
 35 40  1  0  0  0  0
 36 37  1  0  0  0  0
 37 43  1  0  0  0  0
 37 41  2  0  0  0  0
 38 41  1  0  0  0  0
 39 36  2  0  0  0  0
 39 40  1  0  0  0  0
 40 38  2  0  0  0  0
 42 43  1  0  0  0  0
M  END
>  <MODEL>
3

>  <REMARK>
 VINA RESULT:      -7.3      2.129      3.213
  Name = 
  11 active torsions:
  status: ('A' for Active; 'I' for Inactive)
    1  A    between atoms: C_1  and  C_34
    2  A    between atoms: C_1  and  C_35
    3  A    between atoms: N_2  and  C_6
    4  A    between atoms: N_2  and  C_13
    5  A    between atoms: C_3  and  C_4
    6  A    between atoms: C_3  and  C_12
    7  A    between atoms: N_11  and  C_36
    8  A    between atoms: C_14  and  C_22
    9  A    between atoms: C_19  and  O_37
   10  A    between atoms: C_29  and  C_31
   11  A    between atoms: C_29  and  C_36
                            x       y       z     vdW  Elec       q    Type
                         _______ _______ _______ _____ _____    ______ ____

>  <TORSDO>
F 11

$$$$
=
 OpenBabel11062409573D

 43 48  0  0  1  0  0  0  0  0999 V2000
  161.9200  212.8140  147.5720 C   0  0  0  0  0  0  0  0  0  0  0  0
  160.0150  212.7790  152.2540 C   0  0  0  0  0  0  0  0  0  0  0  0
  160.5850  210.2200  153.3290 C   0  0  0  0  0  0  0  0  0  0  0  0
  160.8380  213.4060  149.6350 C   0  0  0  0  0  0  0  0  0  0  0  0
  162.2180  211.5790  147.9810 C   0  0  0  0  0  3  0  0  0  0  0  0
  162.3250  213.2550  146.2110 C   0  0  0  0  0  1  0  0  0  0  0  0
  161.1070  212.1250  150.1690 C   0  0  0  0  0  0  0  0  0  0  0  0
  161.2160  213.7200  148.4310 N   0  0  0  0  0  0  0  0  0  0  0  0
  161.8290  211.0860  149.3470 C   0  0  0  0  0  2  0  0  0  0  0  0
  160.9650  210.5510  152.0200 O   0  0  0  0  0  0  0  0  0  0  0  0
  160.6980  211.8180  151.4770 C   0  0  0  0  0  0  0  0  0  0  0  0
  159.7500  214.0440  151.7040 C   0  0  0  0  0  3  0  0  0  0  0  0
  159.6320  212.4640  153.5110 C   0  0  0  0  0  0  0  0  0  0  0  0
  159.9370  211.1300  154.0680 C   0  0  0  0  0  3  0  0  0  0  0  0
  160.1610  214.3530  150.4060 C   0  0  0  0  0  3  0  0  0  0  0  0
  160.8960  208.9180  153.8580 N   0  0  0  0  0  0  0  0  0  0  0  0
  160.1730  208.3930  155.0140 C   0  0  0  0  0  1  0  0  0  0  0  0
  161.7870  208.0190  153.1250 C   0  0  2  0  0  3  0  0  0  0  0  0
  161.0160  206.8140  152.6100 C   0  0  2  0  0  3  0  0  0  0  0  0
  161.8910  206.6800  153.8340 C   0  0  0  0  0  2  0  0  0  0  0  0
  161.7420  206.2500  151.4040 C   0  0  0  0  0  2  0  0  0  0  0  0
  160.8780  205.2090  150.7130 C   0  0  2  0  0  3  0  0  0  0  0  0
  161.2150  203.0820  149.1410 S   0  0  0  0  0  0  0  0  0  0  0  0
  160.8260  203.9930  151.5040 N   0  0  0  0  0  2  0  0  0  0  0  0
  161.4760  204.8570  149.3720 C   0  0  1  0  0  3  0  0  0  0  0  0
  160.3190  202.9900  150.6630 N   0  0  0  0  0  2  0  0  0  0  0  0
  161.0970  205.3460  146.8960 N   0  0  0  0  0  0  0  0  0  0  0  0
  160.8230  205.6430  148.2750 C   0  0  0  0  0  0  0  0  0  0  0  0
  160.5780  206.2110  145.8490 C   0  0  0  0  0  1  0  0  0  0  0  0
  160.0390  206.5870  148.5710 O   0  0  0  0  0  0  0  0  0  0  0  0
  161.9950  204.2650  146.5070 C   0  0  0  0  0  2  0  0  0  0  0  0
  161.4760  203.5410  145.2690 C   0  0  0  0  0  2  0  0  0  0  0  0
  159.7660  201.9450  144.7710 O   0  0  0  0  0  1  0  0  0  0  0  0
  160.8310  202.2140  145.6340 C   0  0  0  0  0  2  0  0  0  0  0  0
  158.8640  213.4250  154.3710 C   0  0  0  0  0  2  0  0  0  0  0  0
  155.5950  211.5900  154.9310 C   0  0  0  0  0  3  0  0  0  0  0  0
  155.5610  211.4960  156.3270 C   0  0  0  0  0  0  0  0  0  0  0  0
  157.7000  212.6380  156.4480 C   0  0  0  0  0  3  0  0  0  0  0  0
  156.6760  212.2080  154.2960 C   0  0  0  0  0  3  0  0  0  0  0  0
  157.7310  212.7290  155.0520 C   0  0  0  0  0  0  0  0  0  0  0  0
  156.6190  212.0200  157.0840 C   0  0  0  0  0  3  0  0  0  0  0  0
  154.1410  209.6150  156.6630 O   0  0  0  0  0  1  0  0  0  0  0  0
  154.4730  210.8820  156.9460 O   0  0  0  0  0  0  0  0  0  0  0  0
  1  5  2  0  0  0  0
  1  8  1  0  0  0  0
  2 13  2  0  0  0  0
  3 16  1  0  0  0  0
  3 14  2  0  0  0  0
  4  7  1  0  0  0  0
  4 15  1  0  0  0  0
  5  9  1  0  0  0  0
  6  1  1  0  0  0  0
  7 11  2  0  0  0  0
  8  4  2  0  0  0  0
  9  7  1  0  0  0  0
 10  3  1  0  0  0  0
 11 10  1  0  0  0  0
 11  2  1  0  0  0  0
 12  2  1  0  0  0  0
 13 14  1  0  0  0  0
 13 35  1  0  0  0  0
 15 12  2  0  0  0  0
 16 17  1  0  0  0  0
 18 20  1  0  0  0  0
 18 16  1  1  0  0  0
 19 21  1  6  0  0  0
 19 18  1  0  0  0  0
 19 20  1  0  0  0  0
 22 21  1  1  0  0  0
 22 24  1  0  0  0  0
 23 25  1  0  0  0  0
 23 26  1  0  0  0  0
 25 28  1  6  0  0  0
 25 22  1  0  0  0  0
 26 24  1  0  0  0  0
 27 28  1  0  0  0  0
 28 30  2  0  0  0  0
 29 27  1  0  0  0  0
 31 27  1  0  0  0  0
 32 34  1  0  0  0  0
 32 31  1  0  0  0  0
 33 34  1  0  0  0  0
 35 40  1  0  0  0  0
 36 37  1  0  0  0  0
 37 43  1  0  0  0  0
 37 41  2  0  0  0  0
 38 41  1  0  0  0  0
 39 36  2  0  0  0  0
 39 40  1  0  0  0  0
 40 38  2  0  0  0  0
 42 43  1  0  0  0  0
M  END
>  <MODEL>
4

>  <REMARK>
 VINA RESULT:      -6.8      3.492      7.759
  Name = 
  11 active torsions:
  status: ('A' for Active; 'I' for Inactive)
    1  A    between atoms: C_1  and  C_34
    2  A    between atoms: C_1  and  C_35
    3  A    between atoms: N_2  and  C_6
    4  A    between atoms: N_2  and  C_13
    5  A    between atoms: C_3  and  C_4
    6  A    between atoms: C_3  and  C_12
    7  A    between atoms: N_11  and  C_36
    8  A    between atoms: C_14  and  C_22
    9  A    between atoms: C_19  and  O_37
   10  A    between atoms: C_29  and  C_31
   11  A    between atoms: C_29  and  C_36
                            x       y       z     vdW  Elec       q    Type
                         _______ _______ _______ _____ _____    ______ ____

>  <TORSDO>
F 11

$$$$
=
 OpenBabel11062409573D

 43 48  0  0  1  0  0  0  0  0999 V2000
  160.9820  202.6760  146.7520 C   0  0  0  0  0  0  0  0  0  0  0  0
  161.1070  204.8940  151.2930 C   0  0  0  0  0  0  0  0  0  0  0  0
  161.6870  207.6290  150.8300 C   0  0  0  0  0  0  0  0  0  0  0  0
  160.9080  203.1230  149.1130 C   0  0  0  0  0  0  0  0  0  0  0  0
  161.2770  203.9380  146.4340 C   0  0  0  0  0  3  0  0  0  0  0  0
  160.8360  201.6620  145.6750 C   0  0  0  0  0  1  0  0  0  0  0  0
  161.2130  204.4850  148.8870 C   0  0  0  0  0  0  0  0  0  0  0  0
  160.8030  202.2890  148.1210 N   0  0  0  0  0  0  0  0  0  0  0  0
  161.4360  205.0000  147.4870 C   0  0  0  0  0  2  0  0  0  0  0  0
  161.6030  206.7210  149.7640 O   0  0  0  0  0  0  0  0  0  0  0  0
  161.3070  205.3650  149.9770 C   0  0  0  0  0  0  0  0  0  0  0  0
  160.8130  203.5360  151.4980 C   0  0  0  0  0  3  0  0  0  0  0  0
  161.2000  205.7580  152.3270 C   0  0  0  0  0  0  0  0  0  0  0  0
  161.4970  207.1840  152.0790 C   0  0  0  0  0  3  0  0  0  0  0  0
  160.7130  202.6610  150.4160 C   0  0  0  0  0  3  0  0  0  0  0  0
  161.9710  209.0160  150.5700 N   0  0  0  0  0  0  0  0  0  0  0  0
  161.9190  210.0000  151.6480 C   0  0  0  0  0  1  0  0  0  0  0  0
  162.5160  209.4250  149.2760 C   0  0  2  0  0  3  0  0  0  0  0  0
  161.6710  210.5370  148.6750 C   0  0  2  0  0  3  0  0  0  0  0  0
  161.5270  209.1240  148.1630 C   0  0  0  0  0  2  0  0  0  0  0  0
  162.5300  211.3380  147.7160 C   0  0  0  0  0  2  0  0  0  0  0  0
  162.1370  212.8050  147.7600 C   0  0  2  0  0  3  0  0  0  0  0  0
  159.9030  214.2550  147.8600 S   0  0  0  0  0  0  0  0  0  0  0  0
  161.8700  213.2140  149.1280 N   0  0  0  0  0  2  0  0  0  0  0  0
  160.8730  213.0190  146.9640 C   0  0  1  0  0  3  0  0  0  0  0  0
  161.1940  214.4420  149.0540 N   0  0  0  0  0  2  0  0  0  0  0  0
  160.2690  213.2670  144.4970 N   0  0  0  0  0  0  0  0  0  0  0  0
  161.1910  213.4900  145.5760 C   0  0  0  0  0  0  0  0  0  0  0  0
  160.6540  213.5910  143.1330 C   0  0  0  0  0  1  0  0  0  0  0  0
  162.2890  214.0710  145.3550 O   0  0  0  0  0  0  0  0  0  0  0  0
  158.9880  212.6010  144.7050 C   0  0  0  0  0  2  0  0  0  0  0  0
  157.8500  213.6130  144.7770 C   0  0  0  0  0  2  0  0  0  0  0  0
  157.0740  211.9630  146.3250 O   0  0  0  0  0  1  0  0  0  0  0  0
  156.8850  213.2810  145.9040 C   0  0  0  0  0  2  0  0  0  0  0  0
  161.0430  205.3110  153.7510 C   0  0  0  0  0  2  0  0  0  0  0  0
  159.8860  207.6390  156.5100 C   0  0  0  0  0  3  0  0  0  0  0  0
  160.7400  208.7330  156.3320 C   0  0  0  0  0  0  0  0  0  0  0  0
  161.8140  207.5830  154.4830 C   0  0  0  0  0  3  0  0  0  0  0  0
  159.9930  206.5210  155.6760 C   0  0  0  0  0  3  0  0  0  0  0  0
  160.9590  206.4900  154.6650 C   0  0  0  0  0  0  0  0  0  0  0  0
  161.7070  208.7000  155.3160 C   0  0  0  0  0  3  0  0  0  0  0  0
  159.5080  210.5960  157.1570 O   0  0  0  0  0  1  0  0  0  0  0  0
  160.6160  209.8420  157.1670 O   0  0  0  0  0  0  0  0  0  0  0  0
  1  8  1  0  0  0  0
  2 12  1  0  0  0  0
  2 13  2  0  0  0  0
  3 14  2  0  0  0  0
  4 15  1  0  0  0  0
  5  1  2  0  0  0  0
  5  9  1  0  0  0  0
  6  1  1  0  0  0  0
  7  4  1  0  0  0  0
  7 11  2  0  0  0  0
  8  4  2  0  0  0  0
  9  7  1  0  0  0  0
 10 11  1  0  0  0  0
 10  3  1  0  0  0  0
 11  2  1  0  0  0  0
 13 35  1  0  0  0  0
 14 13  1  0  0  0  0
 15 12  2  0  0  0  0
 16  3  1  0  0  0  0
 16 17  1  0  0  0  0
 18 16  1  1  0  0  0
 19 21  1  6  0  0  0
 19 18  1  0  0  0  0
 20 19  1  0  0  0  0
 20 18  1  0  0  0  0
 22 21  1  1  0  0  0
 22 24  1  0  0  0  0
 23 26  1  0  0  0  0
 25 28  1  6  0  0  0
 25 22  1  0  0  0  0
 25 23  1  0  0  0  0
 26 24  1  0  0  0  0
 27 31  1  0  0  0  0
 27 28  1  0  0  0  0
 29 27  1  0  0  0  0
 30 28  2  0  0  0  0
 31 32  1  0  0  0  0
 32 34  1  0  0  0  0
 34 33  1  0  0  0  0
 35 40  1  0  0  0  0
 37 36  1  0  0  0  0
 37 43  1  0  0  0  0
 38 40  2  0  0  0  0
 38 41  1  0  0  0  0
 39 36  2  0  0  0  0
 40 39  1  0  0  0  0
 41 37  2  0  0  0  0
 42 43  1  0  0  0  0
M  END
>  <MODEL>
5

>  <REMARK>
 VINA RESULT:      -6.7      1.624      1.995
  Name = 
  11 active torsions:
  status: ('A' for Active; 'I' for Inactive)
    1  A    between atoms: C_1  and  C_34
    2  A    between atoms: C_1  and  C_35
    3  A    between atoms: N_2  and  C_6
    4  A    between atoms: N_2  and  C_13
    5  A    between atoms: C_3  and  C_4
    6  A    between atoms: C_3  and  C_12
    7  A    between atoms: N_11  and  C_36
    8  A    between atoms: C_14  and  C_22
    9  A    between atoms: C_19  and  O_37
   10  A    between atoms: C_29  and  C_31
   11  A    between atoms: C_29  and  C_36
                            x       y       z     vdW  Elec       q    Type
                         _______ _______ _______ _____ _____    ______ ____

>  <TORSDO>
F 11

$$$$
=
 OpenBabel11062409573D

 43 48  0  0  1  0  0  0  0  0999 V2000
  160.8370  203.8340  149.2320 C   0  0  0  0  0  0  0  0  0  0  0  0
  161.9860  208.7450  149.5730 C   0  0  0  0  0  0  0  0  0  0  0  0
  161.6020  209.4670  152.2860 C   0  0  0  0  0  0  0  0  0  0  0  0
  161.4950  206.0960  148.7530 C   0  0  0  0  0  0  0  0  0  0  0  0
  160.6100  204.0800  150.5230 C   0  0  0  0  0  3  0  0  0  0  0  0
  160.6260  202.4630  148.6970 C   0  0  0  0  0  1  0  0  0  0  0  0
  161.2900  206.4640  150.1020 C   0  0  0  0  0  0  0  0  0  0  0  0
  161.2830  204.8770  148.3540 N   0  0  0  0  0  0  0  0  0  0  0  0
  160.8070  205.4500  151.1100 C   0  0  0  0  0  3  0  0  0  0  0  0
  161.3460  208.1610  151.8460 O   0  0  0  0  0  0  0  0  0  0  0  0
  161.5390  207.7850  150.5080 C   0  0  0  0  0  0  0  0  0  0  0  0
  162.1760  208.3620  148.2350 C   0  0  0  0  0  2  0  0  0  0  0  0
  162.2220  210.0100  149.9840 C   0  0  0  0  0  0  0  0  0  0  0  0
  162.0260  210.3790  151.4010 C   0  0  0  0  0  3  0  0  0  0  0  0
  161.9350  207.0480  147.8320 C   0  0  0  0  0  3  0  0  0  0  0  0
  161.4120  209.8080  153.6710 N   0  0  0  0  0  0  0  0  0  0  0  0
  162.4990  210.4010  154.4460 C   0  0  0  0  0  1  0  0  0  0  0  0
  160.0760  209.7630  154.2640 C   0  0  2  0  0  3  0  0  0  0  0  0
  160.1290  210.2000  155.7190 C   0  0  2  0  0  3  0  0  0  0  0  0
  160.0250  208.7330  155.3790 C   0  0  0  0  0  2  0  0  0  0  0  0
  158.7640  210.7260  156.1200 C   0  0  0  0  0  2  0  0  0  0  0  0
  158.6770  212.2190  155.8480 C   0  0  2  0  0  3  0  0  0  0  0  0
  158.1670  214.4530  157.2090 S   0  0  0  0  0  0  0  0  0  0  0  0
  159.9200  212.8700  156.2170 N   0  0  0  0  0  2  0  0  0  0  0  0
  157.5760  212.8260  156.6830 C   0  0  1  0  0  3  0  0  0  0  0  0
  159.6500  214.2470  156.2680 N   0  0  0  0  0  2  0  0  0  0  0  0
  156.3290  213.4610  154.5490 N   0  0  0  0  0  0  0  0  0  0  0  0
  156.3100  212.9450  155.8900 C   0  0  0  0  0  0  0  0  0  0  0  0
  155.0810  213.7140  153.8480 C   0  0  0  0  0  1  0  0  0  0  0  0
  155.2140  212.6040  156.4150 O   0  0  0  0  0  0  0  0  0  0  0  0
  157.5710  213.8680  153.9000 C   0  0  0  0  0  2  0  0  0  0  0  0
  157.5650  213.4920  152.4230 C   0  0  0  0  0  2  0  0  0  0  0  0
  159.8500  212.8260  152.6610 O   0  0  0  0  0  1  0  0  0  0  0  0
  158.6230  212.4450  152.1130 C   0  0  0  0  0  2  0  0  0  0  0  0
  162.6540  211.0860  149.0310 C   0  0  0  0  0  2  0  0  0  0  0  0
  159.9270  213.7160  148.9260 C   0  0  0  0  0  3  0  0  0  0  0  0
  159.2220  213.3460  147.7740 C   0  0  0  0  0  0  0  0  0  0  0  0
  160.7760  211.5140  147.4240 C   0  0  0  0  0  3  0  0  0  0  0  0
  161.0490  212.9860  149.3280 C   0  0  0  0  0  3  0  0  0  0  0  0
  161.4780  211.8870  148.5760 C   0  0  0  0  0  0  0  0  0  0  0  0
  159.6530  212.2430  147.0230 C   0  0  0  0  0  3  0  0  0  0  0  0
  156.9030  213.8520  147.9430 O   0  0  0  0  0  1  0  0  0  0  0  0
  158.1020  214.0810  147.3900 O   0  0  0  0  0  0  0  0  0  0  0  0
  1  5  1  0  0  0  0
  2 13  2  0  0  0  0
  2 11  1  0  0  0  0
  3 16  1  0  0  0  0
  4  7  1  0  0  0  0
  5  9  2  0  0  0  0
  6  1  1  0  0  0  0
  7 11  2  0  0  0  0
  7  9  1  0  0  0  0
  8  4  1  0  0  0  0
  8  1  2  0  0  0  0
 10  3  1  0  0  0  0
 11 10  1  0  0  0  0
 12  2  1  0  0  0  0
 13 14  1  0  0  0  0
 14  3  2  0  0  0  0
 15 12  1  0  0  0  0
 15  4  2  0  0  0  0
 16 17  1  0  0  0  0
 18 16  1  6  0  0  0
 18 20  1  0  0  0  0
 18 19  1  0  0  0  0
 19 21  1  1  0  0  0
 20 19  1  0  0  0  0
 22 21  1  1  0  0  0
 22 24  1  0  0  0  0
 22 25  1  0  0  0  0
 24 26  1  0  0  0  0
 25 28  1  6  0  0  0
 25 23  1  0  0  0  0
 26 23  1  0  0  0  0
 27 28  1  0  0  0  0
 28 30  2  0  0  0  0
 29 27  1  0  0  0  0
 31 27  1  0  0  0  0
 32 31  1  0  0  0  0
 34 32  1  0  0  0  0
 34 33  1  0  0  0  0
 35 13  1  0  0  0  0
 36 39  1  0  0  0  0
 37 36  2  0  0  0  0
 38 40  1  0  0  0  0
 40 35  1  0  0  0  0
 40 39  2  0  0  0  0
 41 38  2  0  0  0  0
 41 37  1  0  0  0  0
 43 37  1  0  0  0  0
 43 42  1  0  0  0  0
M  END
>  <MODEL>
6

>  <REMARK>
 VINA RESULT:      -6.7      3.876      8.043
  Name = 
  11 active torsions:
  status: ('A' for Active; 'I' for Inactive)
    1  A    between atoms: C_1  and  C_34
    2  A    between atoms: C_1  and  C_35
    3  A    between atoms: N_2  and  C_6
    4  A    between atoms: N_2  and  C_13
    5  A    between atoms: C_3  and  C_4
    6  A    between atoms: C_3  and  C_12
    7  A    between atoms: N_11  and  C_36
    8  A    between atoms: C_14  and  C_22
    9  A    between atoms: C_19  and  O_37
   10  A    between atoms: C_29  and  C_31
   11  A    between atoms: C_29  and  C_36
                            x       y       z     vdW  Elec       q    Type
                         _______ _______ _______ _____ _____    ______ ____

>  <TORSDO>
F 11

$$$$
=
 OpenBabel11062409573D

 43 48  0  0  1  0  0  0  0  0999 V2000
  161.5780  212.9530  147.2450 C   0  0  0  0  0  0  0  0  0  0  0  0
  159.6850  213.1350  151.9280 C   0  0  0  0  0  0  0  0  0  0  0  0
  160.7590  210.9060  153.3100 C   0  0  0  0  0  0  0  0  0  0  0  0
  160.3820  213.5730  149.2360 C   0  0  0  0  0  0  0  0  0  0  0  0
  162.1190  211.8680  147.8030 C   0  0  0  0  0  3  0  0  0  0  0  0
  161.8940  213.2880  145.8310 C   0  0  0  0  0  1  0  0  0  0  0  0
  160.9030  212.4540  149.9240 C   0  0  0  0  0  0  0  0  0  0  0  0
  160.6960  213.7990  147.9950 N   0  0  0  0  0  0  0  0  0  0  0  0
  161.8300  211.4870  149.2280 C   0  0  0  0  0  3  0  0  0  0  0  0
  161.0730  211.1360  151.9630 O   0  0  0  0  0  0  0  0  0  0  0  0
  160.5560  212.2410  151.2680 C   0  0  0  0  0  0  0  0  0  0  0  0
  159.1710  214.2370  151.2260 C   0  0  0  0  0  2  0  0  0  0  0  0
  159.3650  212.9130  153.2220 C   0  0  0  0  0  0  0  0  0  0  0  0
  159.9330  211.7530  153.9400 C   0  0  0  0  0  3  0  0  0  0  0  0
  159.5200  214.4530  149.8920 C   0  0  0  0  0  3  0  0  0  0  0  0
  161.3260  209.7750  153.9960 N   0  0  0  0  0  0  0  0  0  0  0  0
  161.9140  209.9280  155.3240 C   0  0  0  0  0  1  0  0  0  0  0  0
  161.1370  208.4240  153.4680 C   0  0  2  0  0  3  0  0  0  0  0  0
  161.8300  208.2800  152.1230 C   0  0  2  0  0  3  0  0  0  0  0  0
  160.3330  208.4650  152.1800 C   0  0  0  0  0  2  0  0  0  0  0  0
  162.1520  206.8160  151.8940 C   0  0  0  0  0  2  0  0  0  0  0  0
  162.2800  206.5340  150.4070 C   0  0  2  0  0  3  0  0  0  0  0  0
  160.8070  206.8120  148.2030 S   0  0  0  0  0  0  0  0  0  0  0  0
  162.6700  207.7390  149.6970 N   0  0  0  0  0  2  0  0  0  0  0  0
  160.9480  206.0880  149.8550 C   0  0  1  0  0  3  0  0  0  0  0  0
  162.4330  207.4950  148.3350 N   0  0  0  0  0  2  0  0  0  0  0  0
  161.2700  203.8840  148.6090 N   0  0  0  0  0  0  0  0  0  0  0  0
  160.8700  204.5920  149.7940 C   0  0  0  0  0  0  0  0  0  0  0  0
  161.0470  202.4510  148.5080 C   0  0  0  0  0  1  0  0  0  0  0  0
  160.4320  203.9530  150.7900 O   0  0  0  0  0  0  0  0  0  0  0  0
  161.7830  204.5800  147.4340 C   0  0  0  0  0  2  0  0  0  0  0  0
  161.8100  203.6580  146.2210 C   0  0  0  0  0  2  0  0  0  0  0  0
  160.2910  205.3030  145.3810 O   0  0  0  0  0  1  0  0  0  0  0  0
  161.2260  204.3400  144.9940 C   0  0  0  0  0  2  0  0  0  0  0  0
  158.4100  213.8000  153.9670 C   0  0  0  0  0  2  0  0  0  0  0  0
  155.8430  211.2200  155.0250 C   0  0  0  0  0  3  0  0  0  0  0  0
  155.7030  211.5040  156.3890 C   0  0  0  0  0  0  0  0  0  0  0  0
  157.3540  213.2730  156.1800 C   0  0  0  0  0  3  0  0  0  0  0  0
  156.7330  211.9610  154.2410 C   0  0  0  0  0  3  0  0  0  0  0  0
  157.4910  212.9850  154.8170 C   0  0  0  0  0  0  0  0  0  0  0  0
  156.4640  212.5330  156.9640 C   0  0  0  0  0  3  0  0  0  0  0  0
  153.9650  209.8910  156.5840 O   0  0  0  0  0  1  0  0  0  0  0  0
  154.8080  210.7610  157.1550 O   0  0  0  0  0  0  0  0  0  0  0  0
  1  5  1  0  0  0  0
  1  8  2  0  0  0  0
  2 13  2  0  0  0  0
  3 14  2  0  0  0  0
  3 16  1  0  0  0  0
  4 15  2  0  0  0  0
  4  7  1  0  0  0  0
  5  9  2  0  0  0  0
  6  1  1  0  0  0  0
  7 11  2  0  0  0  0
  8  4  1  0  0  0  0
  9  7  1  0  0  0  0
 10  3  1  0  0  0  0
 11  2  1  0  0  0  0
 11 10  1  0  0  0  0
 12  2  1  0  0  0  0
 13 14  1  0  0  0  0
 13 35  1  0  0  0  0
 15 12  1  0  0  0  0
 16 17  1  0  0  0  0
 18 16  1  6  0  0  0
 19 21  1  1  0  0  0
 19 20  1  0  0  0  0
 19 18  1  0  0  0  0
 20 18  1  0  0  0  0
 22 21  1  1  0  0  0
 23 26  1  0  0  0  0
 23 25  1  0  0  0  0
 24 22  1  0  0  0  0
 25 28  1  6  0  0  0
 25 22  1  0  0  0  0
 26 24  1  0  0  0  0
 27 28  1  0  0  0  0
 28 30  2  0  0  0  0
 29 27  1  0  0  0  0
 31 27  1  0  0  0  0
 32 31  1  0  0  0  0
 34 33  1  0  0  0  0
 34 32  1  0  0  0  0
 35 40  1  0  0  0  0
 36 37  1  0  0  0  0
 37 41  2  0  0  0  0
 37 43  1  0  0  0  0
 38 41  1  0  0  0  0
 39 40  1  0  0  0  0
 39 36  2  0  0  0  0
 40 38  2  0  0  0  0
 42 43  1  0  0  0  0
M  END
>  <MODEL>
7

>  <REMARK>
 VINA RESULT:      -6.1      3.132      7.624
  Name = 
  11 active torsions:
  status: ('A' for Active; 'I' for Inactive)
    1  A    between atoms: C_1  and  C_34
    2  A    between atoms: C_1  and  C_35
    3  A    between atoms: N_2  and  C_6
    4  A    between atoms: N_2  and  C_13
    5  A    between atoms: C_3  and  C_4
    6  A    between atoms: C_3  and  C_12
    7  A    between atoms: N_11  and  C_36
    8  A    between atoms: C_14  and  C_22
    9  A    between atoms: C_19  and  O_37
   10  A    between atoms: C_29  and  C_31
   11  A    between atoms: C_29  and  C_36
                            x       y       z     vdW  Elec       q    Type
                         _______ _______ _______ _____ _____    ______ ____

>  <TORSDO>
F 11

$$$$
=
 OpenBabel11062409573D

 43 48  0  0  1  0  0  0  0  0999 V2000
  161.4520  212.6750  148.2290 C   0  0  0  0  0  0  0  0  0  0  0  0
  160.4860  210.8820  152.8550 C   0  0  0  0  0  0  0  0  0  0  0  0
  161.1090  208.1180  152.7860 C   0  0  0  0  0  0  0  0  0  0  0  0
  160.8220  212.4450  150.5380 C   0  0  0  0  0  0  0  0  0  0  0  0
  161.7530  211.3830  148.0920 C   0  0  0  0  0  3  0  0  0  0  0  0
  161.6100  213.5940  147.0710 C   0  0  0  0  0  1  0  0  0  0  0  0
  161.1170  211.0630  150.5030 C   0  0  0  0  0  0  0  0  0  0  0  0
  160.9770  213.1870  149.4820 N   0  0  0  0  0  0  0  0  0  0  0  0
  161.6090  210.4140  149.2320 C   0  0  0  0  0  2  0  0  0  0  0  0
  161.2470  208.9160  151.6410 O   0  0  0  0  0  0  0  0  0  0  0  0
  160.9510  210.2880  151.6620 C   0  0  0  0  0  0  0  0  0  0  0  0
  160.1900  212.2540  152.8690 C   0  0  0  0  0  3  0  0  0  0  0  0
  160.3360  210.1180  153.9600 C   0  0  0  0  0  0  0  0  0  0  0  0
  160.6680  208.6790  153.9200 C   0  0  0  0  0  3  0  0  0  0  0  0
  160.3600  213.0280  151.7190 C   0  0  0  0  0  3  0  0  0  0  0  0
  161.4440  206.7190  152.7310 N   0  0  0  0  0  0  0  0  0  0  0  0
  161.2060  205.8520  153.8820 C   0  0  0  0  0  1  0  0  0  0  0  0
  161.8290  206.1050  151.4610 C   0  0  2  0  0  3  0  0  0  0  0  0
  160.9080  204.9380  151.1390 C   0  0  2  0  0  3  0  0  0  0  0  0
  162.2920  204.6750  151.6820 C   0  0  0  0  0  2  0  0  0  0  0  0
  160.9030  204.7210  149.6380 C   0  0  0  0  0  2  0  0  0  0  0  0
  160.4610  203.3040  149.3140 C   0  0  2  0  0  3  0  0  0  0  0  0
  161.5810  200.9130  148.9480 S   0  0  0  0  0  0  0  0  0  0  0  0
  160.3620  202.5180  150.5300 N   0  0  0  0  0  2  0  0  0  0  0  0
  161.4820  202.6410  148.4220 C   0  0  1  0  0  3  0  0  0  0  0  0
  160.2930  201.1730  150.1330 N   0  0  0  0  0  2  0  0  0  0  0  0
  161.5830  203.7960  146.1490 N   0  0  0  0  0  0  0  0  0  0  0  0
  161.0760  202.7410  146.9820 C   0  0  0  0  0  0  0  0  0  0  0  0
  161.0660  203.9710  144.8020 C   0  0  0  0  0  1  0  0  0  0  0  0
  160.2680  201.8980  146.5060 O   0  0  0  0  0  0  0  0  0  0  0  0
  162.5210  204.7930  146.6560 C   0  0  0  0  0  2  0  0  0  0  0  0
  162.0650  206.2030  146.2990 C   0  0  0  0  0  2  0  0  0  0  0  0
  162.7090  207.4310  148.2480 O   0  0  0  0  0  1  0  0  0  0  0  0
  161.6040  206.9640  147.5320 C   0  0  0  0  0  2  0  0  0  0  0  0
  159.8020  210.6800  155.2460 C   0  0  0  0  0  2  0  0  0  0  0  0
  156.2350  211.5020  154.2630 C   0  0  0  0  0  3  0  0  0  0  0  0
  156.1990  212.8860  154.4640 C   0  0  0  0  0  0  0  0  0  0  0  0
  158.5110  212.8290  155.2040 C   0  0  0  0  0  3  0  0  0  0  0  0
  157.4050  210.7830  154.5280 C   0  0  0  0  0  3  0  0  0  0  0  0
  158.5430  211.4450  155.0020 C   0  0  0  0  0  0  0  0  0  0  0  0
  157.3420  213.5480  154.9380 C   0  0  0  0  0  3  0  0  0  0  0  0
  154.5820  213.7260  152.9330 O   0  0  0  0  0  1  0  0  0  0  0  0
  155.0270  213.5890  154.1890 O   0  0  0  0  0  0  0  0  0  0  0  0
  1  8  1  0  0  0  0
  2 12  1  0  0  0  0
  2 13  2  0  0  0  0
  3 14  2  0  0  0  0
  4 15  1  0  0  0  0
  5  1  2  0  0  0  0
  5  9  1  0  0  0  0
  6  1  1  0  0  0  0
  7  4  1  0  0  0  0
  7 11  2  0  0  0  0
  8  4  2  0  0  0  0
  9  7  1  0  0  0  0
 10 11  1  0  0  0  0
 10  3  1  0  0  0  0
 11  2  1  0  0  0  0
 13 35  1  0  0  0  0
 14 13  1  0  0  0  0
 15 12  2  0  0  0  0
 16  3  1  0  0  0  0
 16 17  1  0  0  0  0
 18 20  1  0  0  0  0
 18 16  1  1  0  0  0
 19 21  1  6  0  0  0
 19 18  1  0  0  0  0
 19 20  1  0  0  0  0
 22 21  1  1  0  0  0
 22 24  1  0  0  0  0
 23 26  1  0  0  0  0
 25 28  1  6  0  0  0
 25 23  1  0  0  0  0
 25 22  1  0  0  0  0
 26 24  1  0  0  0  0
 27 31  1  0  0  0  0
 27 28  1  0  0  0  0
 29 27  1  0  0  0  0
 30 28  2  0  0  0  0
 32 31  1  0  0  0  0
 32 34  1  0  0  0  0
 34 33  1  0  0  0  0
 36 37  2  0  0  0  0
 36 39  1  0  0  0  0
 37 41  1  0  0  0  0
 39 40  2  0  0  0  0
 40 38  1  0  0  0  0
 40 35  1  0  0  0  0
 41 38  2  0  0  0  0
 42 43  1  0  0  0  0
 43 37  1  0  0  0  0
M  END
>  <MODEL>
8

>  <REMARK>
 VINA RESULT:      -6.0      3.829      7.835
  Name = 
  11 active torsions:
  status: ('A' for Active; 'I' for Inactive)
    1  A    between atoms: C_1  and  C_34
    2  A    between atoms: C_1  and  C_35
    3  A    between atoms: N_2  and  C_6
    4  A    between atoms: N_2  and  C_13
    5  A    between atoms: C_3  and  C_4
    6  A    between atoms: C_3  and  C_12
    7  A    between atoms: N_11  and  C_36
    8  A    between atoms: C_14  and  C_22
    9  A    between atoms: C_19  and  O_37
   10  A    between atoms: C_29  and  C_31
   11  A    between atoms: C_29  and  C_36
                            x       y       z     vdW  Elec       q    Type
                         _______ _______ _______ _____ _____    ______ ____

>  <TORSDO>
F 11

$$$$
=
 OpenBabel11062409573D

 43 48  0  0  1  0  0  0  0  0999 V2000
  160.8380  201.8400  146.8900 C   0  0  0  0  0  0  0  0  0  0  0  0
  161.9630  206.5400  148.3710 C   0  0  0  0  0  0  0  0  0  0  0  0
  161.5690  206.6090  151.1760 C   0  0  0  0  0  0  0  0  0  0  0  0
  161.4870  204.1540  146.9550 C   0  0  0  0  0  0  0  0  0  0  0  0
  160.6060  201.7780  148.2030 C   0  0  0  0  0  3  0  0  0  0  0  0
  160.6350  200.6300  146.0500 C   0  0  0  0  0  1  0  0  0  0  0  0
  161.2770  204.1970  148.3520 C   0  0  0  0  0  0  0  0  0  0  0  0
  161.2820  203.0600  146.2820 N   0  0  0  0  0  0  0  0  0  0  0  0
  160.7950  202.9740  149.0940 C   0  0  0  0  0  3  0  0  0  0  0  0
  161.3190  205.4400  150.4430 O   0  0  0  0  0  0  0  0  0  0  0  0
  161.5190  205.3870  149.0550 C   0  0  0  0  0  0  0  0  0  0  0  0
  162.1590  206.4810  146.9810 C   0  0  0  0  0  2  0  0  0  0  0  0
  162.1930  207.6760  149.0660 C   0  0  0  0  0  0  0  0  0  0  0  0
  161.9910  207.7040  150.5300 C   0  0  0  0  0  3  0  0  0  0  0  0
  161.9250  205.2960  146.2820 C   0  0  0  0  0  3  0  0  0  0  0  0
  161.3730  206.6180  152.6020 N   0  0  0  0  0  0  0  0  0  0  0  0
  162.2940  205.9030  153.4830 C   0  0  0  0  0  1  0  0  0  0  0  0
  160.3810  207.5070  153.2030 C   0  0  2  0  0  3  0  0  0  0  0  0
  161.0670  208.6770  153.8910 C   0  0  2  0  0  3  0  0  0  0  0  0
  160.5340  207.5300  154.7150 C   0  0  0  0  0  2  0  0  0  0  0  0
  160.0980  209.8420  153.9560 C   0  0  0  0  0  2  0  0  0  0  0  0
  160.6850  210.9660  154.7920 C   0  0  2  0  0  3  0  0  0  0  0  0
  160.4190  211.9510  157.2550 S   0  0  0  0  0  0  0  0  0  0  0  0
  161.7430  210.4580  155.6470 N   0  0  0  0  0  2  0  0  0  0  0  0
  159.6170  211.5510  155.6840 C   0  0  1  0  0  3  0  0  0  0  0  0
  161.9880  211.4490  156.6110 N   0  0  0  0  0  2  0  0  0  0  0  0
  157.7700  212.7000  154.3480 N   0  0  0  0  0  0  0  0  0  0  0  0
  159.0150  212.7750  155.0620 C   0  0  0  0  0  0  0  0  0  0  0  0
  157.2760  213.8580  153.6220 C   0  0  0  0  0  1  0  0  0  0  0  0
  159.6210  213.8790  155.1530 O   0  0  0  0  0  0  0  0  0  0  0  0
  157.0340  211.4460  154.2180 C   0  0  0  0  0  2  0  0  0  0  0  0
  156.2920  211.1120  155.5060 C   0  0  0  0  0  2  0  0  0  0  0  0
  154.7710  209.2900  155.2070 O   0  0  0  0  0  1  0  0  0  0  0  0
  154.8600  210.6840  155.2250 C   0  0  0  0  0  2  0  0  0  0  0  0
  162.6220  208.9460  148.3920 C   0  0  0  0  0  2  0  0  0  0  0  0
  161.0060  212.3420  148.8650 C   0  0  0  0  0  3  0  0  0  0  0  0
  160.8400  212.3840  150.2540 C   0  0  0  0  0  0  0  0  0  0  0  0
  161.8130  210.1660  150.4280 C   0  0  0  0  0  3  0  0  0  0  0  0
  161.5760  211.2180  148.2590 C   0  0  0  0  0  3  0  0  0  0  0  0
  161.9770  210.1280  149.0390 C   0  0  0  0  0  0  0  0  0  0  0  0
  161.2440  211.2900  151.0340 C   0  0  0  0  0  3  0  0  0  0  0  0
  158.9920  213.8360  150.6330 O   0  0  0  0  0  1  0  0  0  0  0  0
  160.2760  213.5140  150.8430 O   0  0  0  0  0  0  0  0  0  0  0  0
  1  5  1  0  0  0  0
  2 11  1  0  0  0  0
  2 13  2  0  0  0  0
  3 16  1  0  0  0  0
  4  7  1  0  0  0  0
  5  9  2  0  0  0  0
  6  1  1  0  0  0  0
  7 11  2  0  0  0  0
  7  9  1  0  0  0  0
  8  1  2  0  0  0  0
  8  4  1  0  0  0  0
 10  3  1  0  0  0  0
 11 10  1  0  0  0  0
 12  2  1  0  0  0  0
 13 14  1  0  0  0  0
 14  3  2  0  0  0  0
 15  4  2  0  0  0  0
 15 12  1  0  0  0  0
 16 17  1  0  0  0  0
 18 16  1  6  0  0  0
 18 19  1  0  0  0  0
 18 20  1  0  0  0  0
 19 21  1  1  0  0  0
 19 20  1  0  0  0  0
 22 21  1  1  0  0  0
 22 24  1  0  0  0  0
 22 25  1  0  0  0  0
 24 26  1  0  0  0  0
 25 28  1  6  0  0  0
 25 23  1  0  0  0  0
 26 23  1  0  0  0  0
 27 28  1  0  0  0  0
 28 30  2  0  0  0  0
 29 27  1  0  0  0  0
 31 27  1  0  0  0  0
 31 32  1  0  0  0  0
 33 34  1  0  0  0  0
 34 32  1  0  0  0  0
 35 40  1  0  0  0  0
 35 13  1  0  0  0  0
 36 37  1  0  0  0  0
 37 43  1  0  0  0  0
 37 41  2  0  0  0  0
 38 41  1  0  0  0  0
 39 36  2  0  0  0  0
 39 40  1  0  0  0  0
 40 38  2  0  0  0  0
 42 43  1  0  0  0  0
M  END
>  <MODEL>
9

>  <REMARK>
 VINA RESULT:      -6.0      4.215      7.710
  Name = 
  11 active torsions:
  status: ('A' for Active; 'I' for Inactive)
    1  A    between atoms: C_1  and  C_34
    2  A    between atoms: C_1  and  C_35
    3  A    between atoms: N_2  and  C_6
    4  A    between atoms: N_2  and  C_13
    5  A    between atoms: C_3  and  C_4
    6  A    between atoms: C_3  and  C_12
    7  A    between atoms: N_11  and  C_36
    8  A    between atoms: C_14  and  C_22
    9  A    between atoms: C_19  and  O_37
   10  A    between atoms: C_29  and  C_31
   11  A    between atoms: C_29  and  C_36
                            x       y       z     vdW  Elec       q    Type
                         _______ _______ _______ _____ _____    ______ ____

>  <TORSDO>
F 11

$$$$
