=
 OpenBabel11062410363D

 32 36  0  0  0  0  0  0  0  0999 V2000
  161.1380  206.9160  152.3740 C   0  0  0  0  0  0  0  0  0  0  0  0
  162.0950  210.8690  149.6530 C   0  0  0  0  0  3  0  0  0  0  0  0
  162.1460  210.0710  148.5100 C   0  0  0  0  0  3  0  0  0  0  0  0
  160.9910  204.6720  151.2140 C   0  0  0  0  0  0  0  0  0  0  0  0
  161.0690  204.0140  150.0290 N   0  0  0  0  0  0  0  0  0  0  0  0
  160.8120  207.1900  154.7850 C   0  0  0  0  0  0  0  0  0  0  0  0
  161.3090  209.1160  153.4230 C   0  0  0  0  0  3  0  0  0  0  0  0
  161.3380  203.7040  147.8650 C   0  0  0  0  0  0  0  0  0  0  0  0
  161.8330  210.2880  150.8950 C   0  0  0  0  0  3  0  0  0  0  0  0
  161.3550  208.3180  152.2670 C   0  0  0  0  0  0  0  0  0  0  0  0
  161.6180  208.9020  151.0150 C   0  0  0  0  0  0  0  0  0  0  0  0
  161.4630  206.7110  149.9430 C   0  0  0  0  0  0  0  0  0  0  0  0
  161.0770  202.4890  148.4900 C   0  0  0  0  0  3  0  0  0  0  0  0
  161.0610  208.5670  154.6790 C   0  0  0  0  0  0  0  0  0  0  0  0
  160.9170  202.7150  149.8200 N   0  0  0  0  0  0  0  0  0  0  0  0
  160.4810  206.6120  156.0040 O   0  0  0  0  0  1  0  0  0  0  0  0
  161.9360  208.6950  148.6110 C   0  0  0  0  0  3  0  0  0  0  0  0
  161.6710  208.0970  149.8550 C   0  0  0  0  0  0  0  0  0  0  0  0
  161.5200  205.9580  148.8040 N   0  0  0  0  0  0  0  0  0  0  0  0
  160.8620  206.3880  153.6460 C   0  0  0  0  0  3  0  0  0  0  0  0
  160.7050  203.8690  152.4460 C   0  0  0  0  0  1  0  0  0  0  0  0
  161.5800  203.9390  146.4150 C   0  0  0  0  0  1  0  0  0  0  0  0
  161.1920  206.0920  151.2100 C   0  0  0  0  0  0  0  0  0  0  0  0
  161.3220  204.6260  148.8760 C   0  0  0  0  0  0  0  0  0  0  0  0
  161.0310  209.4240  155.7870 O   0  0  0  0  0  0  0  0  0  0  0  0
  162.8870  210.7400  156.0650 O   0  0  0  0  0  0  0  0  0  0  0  0
  161.6520  210.6760  155.8240 C   0  0  0  0  0  0  0  0  0  0  0  0
  160.9040  211.8430  155.6450 O   0  0  0  0  0  0  0  0  0  0  0  0
  159.4860  211.8230  155.5790 C   0  0  0  0  0  2  0  0  0  0  0  0
  159.0550  211.9090  154.1580 C   0  0  0  0  0  0  0  0  0  0  0  0
  159.9270  212.4020  153.1970 O   0  0  0  0  0  0  0  0  0  0  0  0
  157.9150  211.4980  153.8210 O   0  0  0  0  0  1  0  0  0  0  0  0
  1 20  1  0  0  0  0
  2  9  1  0  0  0  0
  3 17  1  0  0  0  0
  3  2  2  0  0  0  0
  4 21  1  0  0  0  0
  5  4  1  0  0  0  0
  6 16  1  0  0  0  0
  7 14  2  0  0  0  0
  8 13  1  0  0  0  0
  8 24  2  0  0  0  0
  9 11  2  0  0  0  0
 10  1  2  0  0  0  0
 10  7  1  0  0  0  0
 11 10  1  0  0  0  0
 12 23  1  0  0  0  0
 13 15  2  0  0  0  0
 14  6  1  0  0  0  0
 14 25  1  0  0  0  0
 15  5  1  0  0  0  0
 17 18  2  0  0  0  0
 18 12  1  0  0  0  0
 18 11  1  0  0  0  0
 19 24  1  0  0  0  0
 19 12  2  0  0  0  0
 20  6  2  0  0  0  0
 22  8  1  0  0  0  0
 23  4  2  0  0  0  0
 23  1  1  0  0  0  0
 24  5  1  0  0  0  0
 25 27  1  0  0  0  0
 27 26  2  0  0  0  0
 28 27  1  0  0  0  0
 29 28  1  0  0  0  0
 30 29  1  0  0  0  0
 31 30  2  0  0  0  0
 32 30  1  0  0  0  0
M  END
>  <MODEL>
1

>  <REMARK>
 VINA RESULT:      -9.8      0.000      0.000
  Name = 
  5 active torsions:
  status: ('A' for Active; 'I' for Inactive)
    1  A    between atoms: C_1  and  C_10
    2  A    between atoms: C_10  and  O_24
    3  A    between atoms: O_12  and  C_19
    4  A    between atoms: O_12  and  C_21
    5  A    between atoms: C_19  and  O_24
                            x       y       z     vdW  Elec       q    Type
                         _______ _______ _______ _____ _____    ______ ____

>  <TORSDO>
F 5

$$$$
=
 OpenBabel11062410363D

 32 36  0  0  0  0  0  0  0  0999 V2000
  161.4650  206.0170  148.6260 C   0  0  0  0  0  0  0  0  0  0  0  0
  160.7700  202.1520  151.5460 C   0  0  0  0  0  3  0  0  0  0  0  0
  160.7780  202.9910  152.6600 C   0  0  0  0  0  3  0  0  0  0  0  0
  161.6540  208.3040  149.6930 C   0  0  0  0  0  0  0  0  0  0  0  0
  161.6430  209.0040  150.8560 N   0  0  0  0  0  0  0  0  0  0  0  0
  161.6040  205.6620  146.2070 C   0  0  0  0  0  0  0  0  0  0  0  0
  161.2860  203.7740  147.6730 C   0  0  0  0  0  3  0  0  0  0  0  0
  161.5120  209.3900  153.0210 C   0  0  0  0  0  0  0  0  0  0  0  0
  160.9380  202.6900  150.2690 C   0  0  0  0  0  3  0  0  0  0  0  0
  161.2880  204.6160  148.7980 C   0  0  0  0  0  0  0  0  0  0  0  0
  161.1170  204.0750  150.0850 C   0  0  0  0  0  0  0  0  0  0  0  0
  161.3030  206.3060  151.0650 C   0  0  0  0  0  0  0  0  0  0  0  0
  161.7120  210.5840  152.3360 C   0  0  0  0  0  3  0  0  0  0  0  0
  161.4630  204.2770  146.3850 C   0  0  0  0  0  0  0  0  0  0  0  0
  161.7880  210.3110  151.0080 N   0  0  0  0  0  0  0  0  0  0  0  0
  161.7020  206.2170  144.9370 O   0  0  0  0  0  1  0  0  0  0  0  0
  160.9550  204.3650  152.4950 C   0  0  0  0  0  3  0  0  0  0  0  0
  161.1250  204.9210  151.2160 C   0  0  0  0  0  0  0  0  0  0  0  0
  161.3070  207.1000  152.1770 N   0  0  0  0  0  0  0  0  0  0  0  0
  161.6130  206.5060  147.3180 C   0  0  0  0  0  3  0  0  0  0  0  0
  161.8550  209.0630  148.4180 C   0  0  0  0  0  1  0  0  0  0  0  0
  161.3700  209.2040  154.4910 C   0  0  0  0  0  1  0  0  0  0  0  0
  161.4780  206.8820  149.7620 C   0  0  0  0  0  0  0  0  0  0  0  0
  161.4770  208.4310  152.0440 C   0  0  0  0  0  0  0  0  0  0  0  0
  161.4520  203.3790  145.3110 O   0  0  0  0  0  0  0  0  0  0  0  0
  159.5640  203.0810  144.0450 O   0  0  0  0  0  0  0  0  0  0  0  0
  160.3360  202.6270  144.9320 C   0  0  0  0  0  0  0  0  0  0  0  0
  160.0520  201.4130  145.5640 O   0  0  0  0  0  0  0  0  0  0  0  0
  160.2430  200.1650  144.9130 C   0  0  0  0  0  2  0  0  0  0  0  0
  161.1430  199.3120  145.7330 C   0  0  0  0  0  0  0  0  0  0  0  0
  161.5820  199.7570  146.9720 O   0  0  0  0  0  1  0  0  0  0  0  0
  161.4750  198.1710  145.3210 O   0  0  0  0  0  0  0  0  0  0  0  0
  1 10  1  0  0  0  0
  1 23  1  0  0  0  0
  2  3  1  0  0  0  0
  4 23  2  0  0  0  0
  4  5  1  0  0  0  0
  5 15  1  0  0  0  0
  5 24  1  0  0  0  0
  6 14  2  0  0  0  0
  6 20  1  0  0  0  0
  7 10  2  0  0  0  0
  8 22  1  0  0  0  0
  9  2  2  0  0  0  0
 10 11  1  0  0  0  0
 11  9  1  0  0  0  0
 11 18  2  0  0  0  0
 12 18  1  0  0  0  0
 12 19  2  0  0  0  0
 13  8  1  0  0  0  0
 14  7  1  0  0  0  0
 15 13  2  0  0  0  0
 16  6  1  0  0  0  0
 17  3  2  0  0  0  0
 18 17  1  0  0  0  0
 20  1  2  0  0  0  0
 21  4  1  0  0  0  0
 23 12  1  0  0  0  0
 24 19  1  0  0  0  0
 24  8  2  0  0  0  0
 25 14  1  0  0  0  0
 26 27  2  0  0  0  0
 27 25  1  0  0  0  0
 27 28  1  0  0  0  0
 29 28  1  0  0  0  0
 29 30  1  0  0  0  0
 30 31  1  0  0  0  0
 32 30  2  0  0  0  0
M  END
>  <MODEL>
2

>  <REMARK>
 VINA RESULT:      -9.1      5.478      9.416
  Name = 
  5 active torsions:
  status: ('A' for Active; 'I' for Inactive)
    1  A    between atoms: C_1  and  C_10
    2  A    between atoms: C_10  and  O_24
    3  A    between atoms: O_12  and  C_19
    4  A    between atoms: O_12  and  C_21
    5  A    between atoms: C_19  and  O_24
                            x       y       z     vdW  Elec       q    Type
                         _______ _______ _______ _____ _____    ______ ____

>  <TORSDO>
F 5

$$$$
=
 OpenBabel11062410363D

 32 36  0  0  0  0  0  0  0  0999 V2000
  161.3960  207.3540  150.6820 C   0  0  0  0  0  0  0  0  0  0  0  0
  160.9440  202.4920  150.9920 C   0  0  0  0  0  3  0  0  0  0  0  0
  160.7460  202.5970  152.3680 C   0  0  0  0  0  3  0  0  0  0  0  0
  161.1960  208.7120  152.8080 C   0  0  0  0  0  0  0  0  0  0  0  0
  160.9920  208.6730  154.1490 N   0  0  0  0  0  0  0  0  0  0  0  0
  161.7930  208.3680  148.4890 C   0  0  0  0  0  0  0  0  0  0  0  0
  161.5900  205.9730  148.6760 C   0  0  0  0  0  3  0  0  0  0  0  0
  160.6220  207.8230  156.1480 C   0  0  0  0  0  0  0  0  0  0  0  0
  161.1540  203.6420  150.2300 C   0  0  0  0  0  3  0  0  0  0  0  0
  161.3840  206.0740  150.0630 C   0  0  0  0  0  0  0  0  0  0  0  0
  161.1710  204.9150  150.8310 C   0  0  0  0  0  0  0  0  0  0  0  0
  160.9830  206.2740  152.8540 C   0  0  0  0  0  0  0  0  0  0  0  0
  160.7280  209.2070  156.2320 C   0  0  0  0  0  3  0  0  0  0  0  0
  161.8150  207.1000  147.8880 C   0  0  0  0  0  0  0  0  0  0  0  0
  160.9560  209.6980  154.9870 N   0  0  0  0  0  0  0  0  0  0  0  0
  161.9320  209.5240  147.7310 O   0  0  0  0  0  1  0  0  0  0  0  0
  160.7590  203.8500  152.9800 C   0  0  0  0  0  3  0  0  0  0  0  0
  160.9710  205.0170  152.2250 C   0  0  0  0  0  0  0  0  0  0  0  0
  160.7860  206.3410  154.2040 N   0  0  0  0  0  0  0  0  0  0  0  0
  161.5960  208.4790  149.8650 C   0  0  0  0  0  3  0  0  0  0  0  0
  161.4110  210.0490  152.1690 C   0  0  0  0  0  1  0  0  0  0  0  0
  160.3740  206.8660  157.2610 C   0  0  0  0  0  1  0  0  0  0  0  0
  161.1980  207.4690  152.0910 C   0  0  0  0  0  0  0  0  0  0  0  0
  160.7960  207.5410  154.8190 C   0  0  0  0  0  0  0  0  0  0  0  0
  162.0140  206.9230  146.5130 O   0  0  0  0  0  0  0  0  0  0  0  0
  160.1370  206.4240  145.2960 O   0  0  0  0  0  0  0  0  0  0  0  0
  161.2630  206.0510  145.7200 C   0  0  0  0  0  0  0  0  0  0  0  0
  161.7330  204.7640  145.4430 O   0  0  0  0  0  0  0  0  0  0  0  0
  160.8960  203.7640  144.8800 C   0  0  0  0  0  2  0  0  0  0  0  0
  160.8780  202.5740  145.7710 C   0  0  0  0  0  0  0  0  0  0  0  0
  160.4740  201.3420  145.2750 O   0  0  0  0  0  0  0  0  0  0  0  0
  161.2660  202.6750  146.9630 O   0  0  0  0  0  1  0  0  0  0  0  0
  1 23  1  0  0  0  0
  2  3  1  0  0  0  0
  3 17  2  0  0  0  0
  4  5  1  0  0  0  0
  5 24  1  0  0  0  0
  5 15  1  0  0  0  0
  6 20  1  0  0  0  0
  7 10  2  0  0  0  0
  8 13  1  0  0  0  0
  8 22  1  0  0  0  0
  9 11  1  0  0  0  0
  9  2  2  0  0  0  0
 10  1  1  0  0  0  0
 10 11  1  0  0  0  0
 11 18  2  0  0  0  0
 12 19  2  0  0  0  0
 14  6  2  0  0  0  0
 14  7  1  0  0  0  0
 15 13  2  0  0  0  0
 16  6  1  0  0  0  0
 18 12  1  0  0  0  0
 18 17  1  0  0  0  0
 19 24  1  0  0  0  0
 20  1  2  0  0  0  0
 21  4  1  0  0  0  0
 23  4  2  0  0  0  0
 23 12  1  0  0  0  0
 24  8  2  0  0  0  0
 25 14  1  0  0  0  0
 26 27  2  0  0  0  0
 27 25  1  0  0  0  0
 28 27  1  0  0  0  0
 29 28  1  0  0  0  0
 29 30  1  0  0  0  0
 30 32  1  0  0  0  0
 31 30  2  0  0  0  0
M  END
>  <MODEL>
3

>  <REMARK>
 VINA RESULT:      -9.1      4.777      8.395
  Name = 
  5 active torsions:
  status: ('A' for Active; 'I' for Inactive)
    1  A    between atoms: C_1  and  C_10
    2  A    between atoms: C_10  and  O_24
    3  A    between atoms: O_12  and  C_19
    4  A    between atoms: O_12  and  C_21
    5  A    between atoms: C_19  and  O_24
                            x       y       z     vdW  Elec       q    Type
                         _______ _______ _______ _____ _____    ______ ____

>  <TORSDO>
F 5

$$$$
=
 OpenBabel11062410363D

 32 36  0  0  0  0  0  0  0  0999 V2000
  161.2550  206.4540  151.3120 C   0  0  0  0  0  0  0  0  0  0  0  0
  162.0520  210.2960  148.3890 C   0  0  0  0  0  3  0  0  0  0  0  0
  162.0770  211.1380  149.5000 C   0  0  0  0  0  3  0  0  0  0  0  0
  161.0950  206.8600  153.8050 C   0  0  0  0  0  0  0  0  0  0  0  0
  161.1420  207.7860  154.7960 N   0  0  0  0  0  0  0  0  0  0  0  0
  161.0400  204.2300  150.3110 C   0  0  0  0  0  0  0  0  0  0  0  0
  161.4080  206.1450  148.8930 C   0  0  0  0  0  3  0  0  0  0  0  0
  161.3410  209.7580  155.7590 C   0  0  0  0  0  0  0  0  0  0  0  0
  161.8420  208.9270  148.5580 C   0  0  0  0  0  3  0  0  0  0  0  0
  161.4410  206.9970  150.0110 C   0  0  0  0  0  0  0  0  0  0  0  0
  161.6540  208.3770  149.8410 C   0  0  0  0  0  0  0  0  0  0  0  0
  161.4940  208.7140  152.2560 C   0  0  0  0  0  0  0  0  0  0  0  0
  161.1170  208.7800  156.7210 C   0  0  0  0  0  3  0  0  0  0  0  0
  161.1890  204.7750  149.0270 C   0  0  0  0  0  0  0  0  0  0  0  0
  160.9990  207.5800  156.0960 N   0  0  0  0  0  0  0  0  0  0  0  0
  160.9000  202.8600  150.4980 O   0  0  0  0  0  1  0  0  0  0  0  0
  161.8930  210.6090  150.7780 C   0  0  0  0  0  3  0  0  0  0  0  0
  161.6800  209.2330  150.9650 C   0  0  0  0  0  0  0  0  0  0  0  0
  161.5250  209.5670  153.3240 N   0  0  0  0  0  0  0  0  0  0  0  0
  161.0640  205.0670  151.4260 C   0  0  0  0  0  3  0  0  0  0  0  0
  160.8520  205.4330  154.1880 C   0  0  0  0  0  1  0  0  0  0  0  0
  161.5310  211.2170  155.9810 C   0  0  0  0  0  1  0  0  0  0  0  0
  161.2770  207.3090  152.4550 C   0  0  0  0  0  0  0  0  0  0  0  0
  161.3470  209.0800  154.5690 C   0  0  0  0  0  0  0  0  0  0  0  0
  161.1680  203.9880  147.8680 O   0  0  0  0  0  0  0  0  0  0  0  0
  163.1580  204.7500  147.0240 O   0  0  0  0  0  0  0  0  0  0  0  0
  162.0950  204.1020  146.8290 C   0  0  0  0  0  0  0  0  0  0  0  0
  161.8250  203.5470  145.5750 O   0  0  0  0  0  0  0  0  0  0  0  0
  160.6950  203.9380  144.8080 C   0  0  0  0  0  2  0  0  0  0  0  0
  160.7850  205.3910  144.5020 C   0  0  0  0  0  0  0  0  0  0  0  0
  160.0670  206.3050  145.2610 O   0  0  0  0  0  1  0  0  0  0  0  0
  161.5400  205.7940  143.5810 O   0  0  0  0  0  0  0  0  0  0  0  0
  1 20  1  0  0  0  0
  1 23  1  0  0  0  0
  2  9  2  0  0  0  0
  2  3  1  0  0  0  0
  3 17  2  0  0  0  0
  4 21  1  0  0  0  0
  4  5  1  0  0  0  0
  5 15  1  0  0  0  0
  6 16  1  0  0  0  0
  6 20  2  0  0  0  0
  7 14  2  0  0  0  0
  7 10  1  0  0  0  0
  8 22  1  0  0  0  0
  8 13  1  0  0  0  0
  9 11  1  0  0  0  0
 10  1  2  0  0  0  0
 11 10  1  0  0  0  0
 11 18  2  0  0  0  0
 12 23  1  0  0  0  0
 12 19  2  0  0  0  0
 14  6  1  0  0  0  0
 15 13  2  0  0  0  0
 17 18  1  0  0  0  0
 18 12  1  0  0  0  0
 19 24  1  0  0  0  0
 23  4  2  0  0  0  0
 24  5  1  0  0  0  0
 24  8  2  0  0  0  0
 25 14  1  0  0  0  0
 27 26  2  0  0  0  0
 27 25  1  0  0  0  0
 28 27  1  0  0  0  0
 29 28  1  0  0  0  0
 30 29  1  0  0  0  0
 30 31  1  0  0  0  0
 32 30  2  0  0  0  0
M  END
>  <MODEL>
4

>  <REMARK>
 VINA RESULT:      -8.8      4.709      7.559
  Name = 
  5 active torsions:
  status: ('A' for Active; 'I' for Inactive)
    1  A    between atoms: C_1  and  C_10
    2  A    between atoms: C_10  and  O_24
    3  A    between atoms: O_12  and  C_19
    4  A    between atoms: O_12  and  C_21
    5  A    between atoms: C_19  and  O_24
                            x       y       z     vdW  Elec       q    Type
                         _______ _______ _______ _____ _____    ______ ____

>  <TORSDO>
F 5

$$$$
=
 OpenBabel11062410363D

 32 36  0  0  0  0  0  0  0  0999 V2000
  161.5770  206.8040  149.2030 C   0  0  0  0  0  0  0  0  0  0  0  0
  160.9710  204.4900  153.4720 C   0  0  0  0  0  3  0  0  0  0  0  0
  160.8310  203.2780  152.7960 C   0  0  0  0  0  3  0  0  0  0  0  0
  161.4960  205.4340  147.0770 C   0  0  0  0  0  0  0  0  0  0  0  0
  161.3410  204.1940  146.5470 N   0  0  0  0  0  0  0  0  0  0  0  0
  161.9560  209.2230  149.2120 C   0  0  0  0  0  0  0  0  0  0  0  0
  161.6300  208.0600  151.2980 C   0  0  0  0  0  3  0  0  0  0  0  0
  161.0190  202.0160  146.4730 C   0  0  0  0  0  0  0  0  0  0  0  0
  161.1910  205.6660  152.7520 C   0  0  0  0  0  3  0  0  0  0  0  0
  161.4930  206.8350  150.6220 C   0  0  0  0  0  0  0  0  0  0  0  0
  161.2730  205.6490  151.3470 C   0  0  0  0  0  0  0  0  0  0  0  0
  161.2060  204.3720  149.2640 C   0  0  0  0  0  0  0  0  0  0  0  0
  161.1690  202.5180  145.1850 C   0  0  0  0  0  3  0  0  0  0  0  0
  161.8380  209.2540  150.6100 C   0  0  0  0  0  0  0  0  0  0  0  0
  161.3650  203.8590  145.2650 N   0  0  0  0  0  0  0  0  0  0  0  0
  162.2440  210.3750  148.4900 O   0  0  0  0  0  1  0  0  0  0  0  0
  160.9090  203.2450  151.4030 C   0  0  0  0  0  3  0  0  0  0  0  0
  161.1300  204.4200  150.6660 C   0  0  0  0  0  0  0  0  0  0  0  0
  161.0640  203.1680  148.6340 N   0  0  0  0  0  0  0  0  0  0  0  0
  161.8160  208.0140  148.5310 C   0  0  0  0  0  3  0  0  0  0  0  0
  161.7170  206.5780  146.1360 C   0  0  0  0  0  1  0  0  0  0  0  0
  160.7830  200.6010  146.8690 C   0  0  0  0  0  1  0  0  0  0  0  0
  161.4310  205.5680  148.5040 C   0  0  0  0  0  0  0  0  0  0  0  0
  161.1350  203.1100  147.2880 C   0  0  0  0  0  0  0  0  0  0  0  0
  161.9630  210.4370  151.3490 O   0  0  0  0  0  0  0  0  0  0  0  0
  160.0410  211.0420  152.4420 O   0  0  0  0  0  0  0  0  0  0  0  0
  161.2520  210.7030  152.5230 C   0  0  0  0  0  0  0  0  0  0  0  0
  161.8880  210.6430  153.7650 O   0  0  0  0  0  0  0  0  0  0  0  0
  161.1580  210.5430  154.9800 C   0  0  0  0  0  2  0  0  0  0  0  0
  161.1880  209.1370  155.4610 C   0  0  0  0  0  0  0  0  0  0  0  0
  161.9840  208.7910  156.5450 O   0  0  0  0  0  1  0  0  0  0  0  0
  160.4630  208.2690  154.9110 O   0  0  0  0  0  0  0  0  0  0  0  0
  1 10  1  0  0  0  0
  3  2  1  0  0  0  0
  4 23  2  0  0  0  0
  5  4  1  0  0  0  0
  5 24  1  0  0  0  0
  6 14  2  0  0  0  0
  8 22  1  0  0  0  0
  8 24  2  0  0  0  0
  9  2  2  0  0  0  0
 10  7  2  0  0  0  0
 10 11  1  0  0  0  0
 11  9  1  0  0  0  0
 12 18  1  0  0  0  0
 13 15  2  0  0  0  0
 13  8  1  0  0  0  0
 14  7  1  0  0  0  0
 14 25  1  0  0  0  0
 15  5  1  0  0  0  0
 16  6  1  0  0  0  0
 17  3  2  0  0  0  0
 18 11  2  0  0  0  0
 18 17  1  0  0  0  0
 19 12  2  0  0  0  0
 20  1  2  0  0  0  0
 20  6  1  0  0  0  0
 21  4  1  0  0  0  0
 23  1  1  0  0  0  0
 23 12  1  0  0  0  0
 24 19  1  0  0  0  0
 25 27  1  0  0  0  0
 26 27  2  0  0  0  0
 27 28  1  0  0  0  0
 28 29  1  0  0  0  0
 29 30  1  0  0  0  0
 30 31  1  0  0  0  0
 32 30  2  0  0  0  0
M  END
>  <MODEL>
5

>  <REMARK>
 VINA RESULT:      -8.8      1.954      4.577
  Name = 
  5 active torsions:
  status: ('A' for Active; 'I' for Inactive)
    1  A    between atoms: C_1  and  C_10
    2  A    between atoms: C_10  and  O_24
    3  A    between atoms: O_12  and  C_19
    4  A    between atoms: O_12  and  C_21
    5  A    between atoms: C_19  and  O_24
                            x       y       z     vdW  Elec       q    Type
                         _______ _______ _______ _____ _____    ______ ____

>  <TORSDO>
F 5

$$$$
=
 OpenBabel11062410363D

 32 36  0  0  0  0  0  0  0  0999 V2000
  161.1370  206.9030  152.3300 C   0  0  0  0  0  0  0  0  0  0  0  0
  162.0520  210.9260  149.6990 C   0  0  0  0  0  3  0  0  0  0  0  0
  162.1320  210.1520  148.5420 C   0  0  0  0  0  3  0  0  0  0  0  0
  161.0460  204.6800  151.1260 C   0  0  0  0  0  0  0  0  0  0  0  0
  161.1520  204.0470  149.9290 N   0  0  0  0  0  0  0  0  0  0  0  0
  160.7760  207.1240  154.7420 C   0  0  0  0  0  0  0  0  0  0  0  0
  161.2530  209.0850  153.4240 C   0  0  0  0  0  3  0  0  0  0  0  0
  161.4530  203.7840  147.7620 C   0  0  0  0  0  0  0  0  0  0  0  0
  161.7860  210.3160  150.9260 C   0  0  0  0  0  3  0  0  0  0  0  0
  161.3290  208.3100  152.2530 C   0  0  0  0  0  0  0  0  0  0  0  0
  161.5960  208.9240  151.0160 C   0  0  0  0  0  0  0  0  0  0  0  0
  161.4950  206.7520  149.9010 C   0  0  0  0  0  0  0  0  0  0  0  0
  161.2080  202.5530  148.3610 C   0  0  0  0  0  3  0  0  0  0  0  0
  161.0010  208.5070  154.6660 C   0  0  0  0  0  0  0  0  0  0  0  0
  161.0270  202.7500  149.6920 N   0  0  0  0  0  0  0  0  0  0  0  0
  160.4420  206.5150  155.9460 O   0  0  0  0  0  1  0  0  0  0  0  0
  161.9470  208.7710  148.6140 C   0  0  0  0  0  3  0  0  0  0  0  0
  161.6780  208.1430  149.8420 C   0  0  0  0  0  0  0  0  0  0  0  0
  161.5810  206.0230  148.7480 N   0  0  0  0  0  0  0  0  0  0  0  0
  160.8550  206.3450  153.5880 C   0  0  0  0  0  3  0  0  0  0  0  0
  160.7610  203.8480  152.3380 C   0  0  0  0  0  1  0  0  0  0  0  0
  161.7080  204.0530  146.3210 C   0  0  0  0  0  1  0  0  0  0  0  0
  161.2210  206.1040  151.1510 C   0  0  0  0  0  0  0  0  0  0  0  0
  161.4070  204.6870  148.7910 C   0  0  0  0  0  0  0  0  0  0  0  0
  160.9410  209.3410  155.7900 O   0  0  0  0  0  0  0  0  0  0  0  0
  161.3650  211.5900  155.6560 O   0  0  0  0  0  0  0  0  0  0  0  0
  161.7740  210.4460  155.9880 C   0  0  0  0  0  0  0  0  0  0  0  0
  163.0630  210.2770  156.5020 O   0  0  0  0  0  0  0  0  0  0  0  0
  163.7080  211.2900  157.2610 C   0  0  0  0  0  2  0  0  0  0  0  0
  164.8890  211.7930  156.5110 C   0  0  0  0  0  0  0  0  0  0  0  0
  165.8200  212.6040  157.1460 O   0  0  0  0  0  1  0  0  0  0  0  0
  165.0640  211.4530  155.3130 O   0  0  0  0  0  0  0  0  0  0  0  0
  1 20  1  0  0  0  0
  2  9  1  0  0  0  0
  3 17  1  0  0  0  0
  3  2  2  0  0  0  0
  4 23  2  0  0  0  0
  4 21  1  0  0  0  0
  5  4  1  0  0  0  0
  6 16  1  0  0  0  0
  7 14  2  0  0  0  0
  8 13  1  0  0  0  0
  8 24  2  0  0  0  0
  9 11  2  0  0  0  0
 10  1  2  0  0  0  0
 10  7  1  0  0  0  0
 11 10  1  0  0  0  0
 12 23  1  0  0  0  0
 13 15  2  0  0  0  0
 14  6  1  0  0  0  0
 14 25  1  0  0  0  0
 15  5  1  0  0  0  0
 17 18  2  0  0  0  0
 18 12  1  0  0  0  0
 18 11  1  0  0  0  0
 19 24  1  0  0  0  0
 19 12  2  0  0  0  0
 20  6  2  0  0  0  0
 22  8  1  0  0  0  0
 23  1  1  0  0  0  0
 24  5  1  0  0  0  0
 25 27  1  0  0  0  0
 26 27  2  0  0  0  0
 27 28  1  0  0  0  0
 28 29  1  0  0  0  0
 30 31  1  0  0  0  0
 30 29  1  0  0  0  0
 32 30  2  0  0  0  0
M  END
>  <MODEL>
6

>  <REMARK>
 VINA RESULT:      -8.7      1.190      2.343
  Name = 
  5 active torsions:
  status: ('A' for Active; 'I' for Inactive)
    1  A    between atoms: C_1  and  C_10
    2  A    between atoms: C_10  and  O_24
    3  A    between atoms: O_12  and  C_19
    4  A    between atoms: O_12  and  C_21
    5  A    between atoms: C_19  and  O_24
                            x       y       z     vdW  Elec       q    Type
                         _______ _______ _______ _____ _____    ______ ____

>  <TORSDO>
F 5

$$$$
=
 OpenBabel11062410363D

 32 36  0  0  0  0  0  0  0  0999 V2000
  161.5430  206.9060  149.1730 C   0  0  0  0  0  0  0  0  0  0  0  0
  161.0170  204.6450  153.4800 C   0  0  0  0  0  3  0  0  0  0  0  0
  160.8790  203.4230  152.8230 C   0  0  0  0  0  3  0  0  0  0  0  0
  161.4450  205.5060  147.0670 C   0  0  0  0  0  0  0  0  0  0  0  0
  161.2960  204.2580  146.5560 N   0  0  0  0  0  0  0  0  0  0  0  0
  161.8980  209.3290  149.1430 C   0  0  0  0  0  0  0  0  0  0  0  0
  161.6120  208.1910  151.2500 C   0  0  0  0  0  3  0  0  0  0  0  0
  160.9930  202.0760  146.5160 C   0  0  0  0  0  0  0  0  0  0  0  0
  161.2150  205.8130  152.7420 C   0  0  0  0  0  3  0  0  0  0  0  0
  161.4780  206.9560  150.5930 C   0  0  0  0  0  0  0  0  0  0  0  0
  161.2790  205.7780  151.3360 C   0  0  0  0  0  0  0  0  0  0  0  0
  161.1960  204.4720  149.2720 C   0  0  0  0  0  0  0  0  0  0  0  0
  161.1210  202.5620  145.2190 C   0  0  0  0  0  3  0  0  0  0  0  0
  161.7990  209.3770  150.5430 C   0  0  0  0  0  0  0  0  0  0  0  0
  161.3060  203.9060  145.2790 N   0  0  0  0  0  0  0  0  0  0  0  0
  162.1660  210.4730  148.4020 O   0  0  0  0  0  1  0  0  0  0  0  0
  160.9390  203.3710  151.4300 C   0  0  0  0  0  3  0  0  0  0  0  0
  161.1380  204.5380  150.6740 C   0  0  0  0  0  0  0  0  0  0  0  0
  161.0560  203.2580  148.6600 N   0  0  0  0  0  0  0  0  0  0  0  0
  161.7610  208.1090  148.4820 C   0  0  0  0  0  3  0  0  0  0  0  0
  161.6430  206.6390  146.1080 C   0  0  0  0  0  1  0  0  0  0  0  0
  160.7770  200.6640  146.9340 C   0  0  0  0  0  1  0  0  0  0  0  0
  161.3990  205.6600  148.4930 C   0  0  0  0  0  0  0  0  0  0  0  0
  161.1100  203.1820  147.3150 C   0  0  0  0  0  0  0  0  0  0  0  0
  161.9230  210.5710  151.2640 O   0  0  0  0  0  0  0  0  0  0  0  0
  161.5490  210.6380  153.5250 O   0  0  0  0  0  0  0  0  0  0  0  0
  161.1300  210.9030  152.3670 C   0  0  0  0  0  0  0  0  0  0  0  0
  159.8690  211.4770  152.1840 O   0  0  0  0  0  0  0  0  0  0  0  0
  159.6860  212.8840  152.1200 C   0  0  0  0  0  2  0  0  0  0  0  0
  159.4250  213.2860  150.7130 C   0  0  0  0  0  0  0  0  0  0  0  0
  160.4310  213.1790  149.7620 O   0  0  0  0  0  0  0  0  0  0  0  0
  158.2810  213.6860  150.3750 O   0  0  0  0  0  1  0  0  0  0  0  0
  1 10  1  0  0  0  0
  3  2  1  0  0  0  0
  4 23  2  0  0  0  0
  5  4  1  0  0  0  0
  5 24  1  0  0  0  0
  6 14  2  0  0  0  0
  8 22  1  0  0  0  0
  8 24  2  0  0  0  0
  9  2  2  0  0  0  0
 10  7  2  0  0  0  0
 10 11  1  0  0  0  0
 11  9  1  0  0  0  0
 12 18  1  0  0  0  0
 13 15  2  0  0  0  0
 13  8  1  0  0  0  0
 14  7  1  0  0  0  0
 14 25  1  0  0  0  0
 15  5  1  0  0  0  0
 16  6  1  0  0  0  0
 17  3  2  0  0  0  0
 18 11  2  0  0  0  0
 18 17  1  0  0  0  0
 19 12  2  0  0  0  0
 20  6  1  0  0  0  0
 20  1  2  0  0  0  0
 21  4  1  0  0  0  0
 23  1  1  0  0  0  0
 23 12  1  0  0  0  0
 24 19  1  0  0  0  0
 25 27  1  0  0  0  0
 27 26  2  0  0  0  0
 28 27  1  0  0  0  0
 29 28  1  0  0  0  0
 30 29  1  0  0  0  0
 31 30  2  0  0  0  0
 32 30  1  0  0  0  0
M  END
>  <MODEL>
7

>  <REMARK>
 VINA RESULT:      -8.4      2.224      4.515
  Name = 
  5 active torsions:
  status: ('A' for Active; 'I' for Inactive)
    1  A    between atoms: C_1  and  C_10
    2  A    between atoms: C_10  and  O_24
    3  A    between atoms: O_12  and  C_19
    4  A    between atoms: O_12  and  C_21
    5  A    between atoms: C_19  and  O_24
                            x       y       z     vdW  Elec       q    Type
                         _______ _______ _______ _____ _____    ______ ____

>  <TORSDO>
F 5

$$$$
=
 OpenBabel11062410363D

 32 36  0  0  0  0  0  0  0  0999 V2000
  161.2950  206.4690  151.3840 C   0  0  0  0  0  0  0  0  0  0  0  0
  162.1250  210.3080  148.4660 C   0  0  0  0  0  3  0  0  0  0  0  0
  162.1140  211.1540  149.5740 C   0  0  0  0  0  3  0  0  0  0  0  0
  161.0690  206.8820  153.8700 C   0  0  0  0  0  0  0  0  0  0  0  0
  161.0820  207.8130  154.8580 N   0  0  0  0  0  0  0  0  0  0  0  0
  161.1280  204.2390  150.3860 C   0  0  0  0  0  0  0  0  0  0  0  0
  161.5120  206.1520  148.9710 C   0  0  0  0  0  3  0  0  0  0  0  0
  161.2360  209.7900  155.8180 C   0  0  0  0  0  0  0  0  0  0  0  0
  161.9250  208.9380  148.6350 C   0  0  0  0  0  3  0  0  0  0  0  0
  161.5080  207.0090  150.0850 C   0  0  0  0  0  0  0  0  0  0  0  0
  161.7110  208.3910  149.9150 C   0  0  0  0  0  0  0  0  0  0  0  0
  161.4870  208.7350  152.3250 C   0  0  0  0  0  0  0  0  0  0  0  0
  160.9980  208.8130  156.7780 C   0  0  0  0  0  3  0  0  0  0  0  0
  161.3040  204.7810  149.1040 C   0  0  0  0  0  0  0  0  0  0  0  0
  160.9080  207.6100  156.1560 N   0  0  0  0  0  0  0  0  0  0  0  0
  160.9980  202.8690  150.5750 O   0  0  0  0  0  1  0  0  0  0  0  0
  161.9030  210.6290  150.8490 C   0  0  0  0  0  3  0  0  0  0  0  0
  161.7000  209.2510  151.0360 C   0  0  0  0  0  0  0  0  0  0  0  0
  161.4830  209.5920  153.3890 N   0  0  0  0  0  0  0  0  0  0  0  0
  161.1160  205.0810  151.4980 C   0  0  0  0  0  3  0  0  0  0  0  0
  160.8310  205.4540  154.2530 C   0  0  0  0  0  1  0  0  0  0  0  0
  161.4050  211.2520  156.0390 C   0  0  0  0  0  1  0  0  0  0  0  0
  161.2790  207.3290  152.5230 C   0  0  0  0  0  0  0  0  0  0  0  0
  161.2790  209.1090  154.6310 C   0  0  0  0  0  0  0  0  0  0  0  0
  161.3190  203.9890  147.9490 O   0  0  0  0  0  0  0  0  0  0  0  0
  162.7070  205.3720  146.7580 O   0  0  0  0  0  0  0  0  0  0  0  0
  161.9880  204.3380  146.7710 C   0  0  0  0  0  0  0  0  0  0  0  0
  161.8200  203.5770  145.6110 O   0  0  0  0  0  0  0  0  0  0  0  0
  160.5400  203.1440  145.1740 C   0  0  0  0  0  2  0  0  0  0  0  0
  160.4070  201.6810  145.4030 C   0  0  0  0  0  0  0  0  0  0  0  0
  160.8310  201.1250  146.6020 O   0  0  0  0  0  1  0  0  0  0  0  0
  159.8760  200.9540  144.5260 O   0  0  0  0  0  0  0  0  0  0  0  0
  1 20  1  0  0  0  0
  1 23  1  0  0  0  0
  2  9  2  0  0  0  0
  2  3  1  0  0  0  0
  3 17  2  0  0  0  0
  4 21  1  0  0  0  0
  4  5  1  0  0  0  0
  5 15  1  0  0  0  0
  6 16  1  0  0  0  0
  6 20  2  0  0  0  0
  7 14  2  0  0  0  0
  7 10  1  0  0  0  0
  8 22  1  0  0  0  0
  8 13  1  0  0  0  0
  9 11  1  0  0  0  0
 10  1  2  0  0  0  0
 11 10  1  0  0  0  0
 11 18  2  0  0  0  0
 12 23  1  0  0  0  0
 12 19  2  0  0  0  0
 14  6  1  0  0  0  0
 15 13  2  0  0  0  0
 17 18  1  0  0  0  0
 18 12  1  0  0  0  0
 19 24  1  0  0  0  0
 23  4  2  0  0  0  0
 24  5  1  0  0  0  0
 24  8  2  0  0  0  0
 25 14  1  0  0  0  0
 26 27  2  0  0  0  0
 27 25  1  0  0  0  0
 28 27  1  0  0  0  0
 29 30  1  0  0  0  0
 29 28  1  0  0  0  0
 30 31  1  0  0  0  0
 32 30  2  0  0  0  0
M  END
>  <MODEL>
8

>  <REMARK>
 VINA RESULT:      -8.4      4.858      7.903
  Name = 
  5 active torsions:
  status: ('A' for Active; 'I' for Inactive)
    1  A    between atoms: C_1  and  C_10
    2  A    between atoms: C_10  and  O_24
    3  A    between atoms: O_12  and  C_19
    4  A    between atoms: O_12  and  C_21
    5  A    between atoms: C_19  and  O_24
                            x       y       z     vdW  Elec       q    Type
                         _______ _______ _______ _____ _____    ______ ____

>  <TORSDO>
F 5

$$$$
=
 OpenBabel11062410363D

 32 36  0  0  0  0  0  0  0  0999 V2000
  161.5050  207.8380  149.6530 C   0  0  0  0  0  0  0  0  0  0  0  0
  161.0470  207.1910  154.4820 C   0  0  0  0  0  3  0  0  0  0  0  0
  160.9480  205.8130  154.2890 C   0  0  0  0  0  3  0  0  0  0  0  0
  161.4540  205.7950  148.1610 C   0  0  0  0  0  0  0  0  0  0  0  0
  161.3440  204.4430  148.1150 N   0  0  0  0  0  0  0  0  0  0  0  0
  161.7830  210.1110  148.7850 C   0  0  0  0  0  0  0  0  0  0  0  0
  161.5310  209.7640  151.1580 C   0  0  0  0  0  3  0  0  0  0  0  0
  161.1120  202.3730  148.8340 C   0  0  0  0  0  0  0  0  0  0  0  0
  161.2090  208.0370  153.3840 C   0  0  0  0  0  3  0  0  0  0  0  0
  161.4370  208.3740  150.9690 C   0  0  0  0  0  0  0  0  0  0  0  0
  161.2750  207.5200  152.0760 C   0  0  0  0  0  0  0  0  0  0  0  0
  161.2350  205.5790  150.5910 C   0  0  0  0  0  0  0  0  0  0  0  0
  161.2250  202.3850  147.4480 C   0  0  0  0  0  3  0  0  0  0  0  0
  161.6810  210.6370  150.0820 C   0  0  0  0  0  0  0  0  0  0  0  0
  161.3670  203.6710  147.0380 N   0  0  0  0  0  0  0  0  0  0  0  0
  162.0140  210.9360  147.6920 O   0  0  0  0  0  1  0  0  0  0  0  0
  161.0120  205.2850  152.9990 C   0  0  0  0  0  3  0  0  0  0  0  0
  161.1740  206.1240  151.8840 C   0  0  0  0  0  0  0  0  0  0  0  0
  161.1350  204.2250  150.4370 N   0  0  0  0  0  0  0  0  0  0  0  0
  161.6850  208.7340  148.5870 C   0  0  0  0  0  3  0  0  0  0  0  0
  161.6160  206.5320  146.8680 C   0  0  0  0  0  1  0  0  0  0  0  0
  160.9400  201.1870  149.7160 C   0  0  0  0  0  1  0  0  0  0  0  0
  161.4010  206.4300  149.4470 C   0  0  0  0  0  0  0  0  0  0  0  0
  161.1920  203.6900  149.2010 C   0  0  0  0  0  0  0  0  0  0  0  0
  161.7660  212.0100  150.3460 O   0  0  0  0  0  0  0  0  0  0  0  0
  160.3330  213.3890  149.2060 O   0  0  0  0  0  0  0  0  0  0  0  0
  160.6740  212.8820  150.3070 C   0  0  0  0  0  0  0  0  0  0  0  0
  160.0000  213.2240  151.4830 O   0  0  0  0  0  0  0  0  0  0  0  0
  158.8750  212.4910  151.9450 C   0  0  0  0  0  2  0  0  0  0  0  0
  159.1640  211.9400  153.2960 C   0  0  0  0  0  0  0  0  0  0  0  0
  158.1290  211.4490  154.0800 O   0  0  0  0  0  1  0  0  0  0  0  0
  160.3490  211.8850  153.7110 O   0  0  0  0  0  0  0  0  0  0  0  0
  1 10  1  0  0  0  0
  3  2  1  0  0  0  0
  4 23  2  0  0  0  0
  5  4  1  0  0  0  0
  5 24  1  0  0  0  0
  6 14  2  0  0  0  0
  8 24  2  0  0  0  0
  8 22  1  0  0  0  0
  9  2  2  0  0  0  0
 10  7  2  0  0  0  0
 10 11  1  0  0  0  0
 11  9  1  0  0  0  0
 12 18  1  0  0  0  0
 13  8  1  0  0  0  0
 14 25  1  0  0  0  0
 14  7  1  0  0  0  0
 15 13  2  0  0  0  0
 15  5  1  0  0  0  0
 16  6  1  0  0  0  0
 17  3  2  0  0  0  0
 18 11  2  0  0  0  0
 18 17  1  0  0  0  0
 19 12  2  0  0  0  0
 20  6  1  0  0  0  0
 20  1  2  0  0  0  0
 21  4  1  0  0  0  0
 23  1  1  0  0  0  0
 23 12  1  0  0  0  0
 24 19  1  0  0  0  0
 26 27  2  0  0  0  0
 27 25  1  0  0  0  0
 27 28  1  0  0  0  0
 28 29  1  0  0  0  0
 29 30  1  0  0  0  0
 30 32  2  0  0  0  0
 30 31  1  0  0  0  0
M  END
>  <MODEL>
9

>  <REMARK>
 VINA RESULT:      -8.3      1.899      4.442
  Name = 
  5 active torsions:
  status: ('A' for Active; 'I' for Inactive)
    1  A    between atoms: C_1  and  C_10
    2  A    between atoms: C_10  and  O_24
    3  A    between atoms: O_12  and  C_19
    4  A    between atoms: O_12  and  C_21
    5  A    between atoms: C_19  and  O_24
                            x       y       z     vdW  Elec       q    Type
                         _______ _______ _______ _____ _____    ______ ____

>  <TORSDO>
F 5

$$$$
