=
 OpenBabel11052423083D

 27 28  0  0  1  0  0  0  0  0999 V2000
  161.3180  207.8580  150.4520 C   0  0  2  0  0  3  0  0  0  0  0  0
  160.8460  205.4060  150.2570 C   0  0  0  0  0  0  0  0  0  0  0  0
  159.8140  205.6770  149.5850 O   0  0  0  0  0  0  0  0  0  0  0  0
  161.6530  206.4690  150.7930 N   0  0  0  0  0  0  0  0  0  0  0  0
  160.5390  203.4220  151.7140 C   0  0  0  0  0  1  0  0  0  0  0  0
  160.8600  203.1320  149.2680 C   0  0  0  0  0  1  0  0  0  0  0  0
  161.2240  203.9710  150.4780 C   0  0  0  0  0  3  0  0  0  0  0  0
  162.8350  206.1760  151.6030 C   0  0  0  0  0  2  0  0  0  0  0  0
  162.4660  205.9480  152.9290 O   0  0  0  0  0  1  0  0  0  0  0  0
  161.4380  208.1610  148.9470 C   0  0  1  0  0  3  0  0  0  0  0  0
  161.8380  209.6080  148.6970 C   0  0  0  0  0  1  0  0  0  0  0  0
  163.5890  207.2150  148.6350 O   0  0  0  0  0  0  0  0  0  0  0  0
  162.3910  207.2330  148.2450 C   0  0  0  0  0  0  0  0  0  0  0  0
  161.1600  204.6860  145.0160 C   0  0  0  0  0  3  0  0  0  0  0  0
  161.9760  206.3470  147.1300 C   0  0  0  0  0  0  0  0  0  0  0  0
  160.7920  206.6180  146.4260 C   0  0  0  0  0  3  0  0  0  0  0  0
  160.3860  205.7920  145.3740 C   0  0  0  0  0  3  0  0  0  0  0  0
  162.3400  204.4050  145.7100 C   0  0  0  0  0  3  0  0  0  0  0  0
  162.7450  205.2320  146.7610 C   0  0  0  0  0  3  0  0  0  0  0  0
  162.0310  208.8690  151.3640 C   0  0  0  0  0  2  0  0  0  0  0  0
  159.5960  211.1690  153.1310 C   0  0  0  0  0  3  0  0  0  0  0  0
  159.5360  210.5930  154.4040 C   0  0  0  0  0  0  0  0  0  0  0  0
  161.1050  208.8880  153.7050 C   0  0  0  0  0  3  0  0  0  0  0  0
  160.4070  210.6030  152.1440 C   0  0  0  0  0  3  0  0  0  0  0  0
  158.6720  211.1950  155.4520 C   0  0  0  0  0  1  0  0  0  0  0  0
  160.2930  209.4540  154.6910 C   0  0  0  0  0  3  0  0  0  0  0  0
  161.1580  209.4550  152.4260 C   0  0  0  0  0  0  0  0  0  0  0  0
  1  4  1  0  0  0  0
  1 20  1  1  0  0  0
  2  7  1  0  0  0  0
  2  4  1  0  0  0  0
  3  2  2  0  0  0  0
  4  8  1  0  0  0  0
  6  7  1  0  0  0  0
  7  5  1  0  0  0  0
  8  9  1  0  0  0  0
 10 11  1  1  0  0  0
 10  1  1  0  0  0  0
 13 12  2  0  0  0  0
 13 10  1  0  0  0  0
 14 17  2  0  0  0  0
 14 18  1  0  0  0  0
 15 13  1  0  0  0  0
 16 15  2  0  0  0  0
 17 16  1  0  0  0  0
 18 19  2  0  0  0  0
 19 15  1  0  0  0  0
 20 27  1  0  0  0  0
 21 22  1  0  0  0  0
 22 26  2  0  0  0  0
 22 25  1  0  0  0  0
 23 26  1  0  0  0  0
 24 27  1  0  0  0  0
 24 21  2  0  0  0  0
 27 23  2  0  0  0  0
M  END
>  <MODEL>
1

>  <REMARK>
 VINA RESULT:      -6.8      0.000      0.000
  Name = 
  8 active torsions:
  status: ('A' for Active; 'I' for Inactive)
    1  A    between atoms: C_2  and  C_15
    2  A    between atoms: C_2  and  C_19
    3  A    between atoms: C_3  and  C_19
    4  A    between atoms: C_3  and  C_26
    5  A    between atoms: C_8  and  C_16
    6  A    between atoms: C_9  and  C_15
    7  A    between atoms: N_14  and  C_17
    8  A    between atoms: N_14  and  C_19
                            x       y       z     vdW  Elec       q    Type
                         _______ _______ _______ _____ _____    ______ ____

>  <TORSDO>
F 8

$$$$
=
 OpenBabel11052423083D

 27 28  0  0  1  0  0  0  0  0999 V2000
  161.0160  206.8080  151.0560 C   0  0  2  0  0  3  0  0  0  0  0  0
  161.0880  208.9750  152.3090 C   0  0  0  0  0  0  0  0  0  0  0  0
  161.4940  209.5470  151.2600 O   0  0  0  0  0  0  0  0  0  0  0  0
  160.8680  207.5530  152.3120 N   0  0  0  0  0  0  0  0  0  0  0  0
  162.0980  210.4870  153.9960 C   0  0  0  0  0  1  0  0  0  0  0  0
  159.7430  210.8190  153.2790 C   0  0  0  0  0  1  0  0  0  0  0  0
  160.8300  209.7940  153.5390 C   0  0  0  0  0  3  0  0  0  0  0  0
  160.4300  206.8670  153.5280 C   0  0  0  0  0  2  0  0  0  0  0  0
  161.3760  207.0300  154.5400 O   0  0  0  0  0  1  0  0  0  0  0  0
  161.9960  205.6240  151.1620 C   0  0  1  0  0  3  0  0  0  0  0  0
  163.0560  205.8680  152.2260 C   0  0  0  0  0  1  0  0  0  0  0  0
  160.8020  204.1290  152.5620 O   0  0  0  0  0  0  0  0  0  0  0  0
  161.2980  204.3160  151.4180 C   0  0  0  0  0  0  0  0  0  0  0  0
  160.9250  201.2320  148.4560 C   0  0  0  0  0  3  0  0  0  0  0  0
  161.1690  203.2590  150.3870 C   0  0  0  0  0  0  0  0  0  0  0  0
  161.0060  201.9200  150.7750 C   0  0  0  0  0  3  0  0  0  0  0  0
  160.8850  200.9110  149.8150 C   0  0  0  0  0  3  0  0  0  0  0  0
  161.0870  202.5610  148.0570 C   0  0  0  0  0  3  0  0  0  0  0  0
  161.2080  203.5690  149.0170 C   0  0  0  0  0  3  0  0  0  0  0  0
  161.2640  207.7340  149.8550 C   0  0  0  0  0  2  0  0  0  0  0  0
  162.6530  206.1170  146.7240 C   0  0  0  0  0  3  0  0  0  0  0  0
  161.4840  205.7260  146.0660 C   0  0  0  0  0  0  0  0  0  0  0  0
  160.1600  206.6430  147.8730 C   0  0  0  0  0  3  0  0  0  0  0  0
  162.5770  206.7680  147.9590 C   0  0  0  0  0  3  0  0  0  0  0  0
  161.5660  205.0320  144.7540 C   0  0  0  0  0  1  0  0  0  0  0  0
  160.2370  205.9920  146.6390 C   0  0  0  0  0  3  0  0  0  0  0  0
  161.3300  207.0250  148.5410 C   0  0  0  0  0  0  0  0  0  0  0  0
  1 20  1  6  0  0  0
  1 10  1  0  0  0  0
  1  4  1  0  0  0  0
  2  4  1  0  0  0  0
  2  7  1  0  0  0  0
  3  2  2  0  0  0  0
  4  8  1  0  0  0  0
  6  7  1  0  0  0  0
  7  5  1  0  0  0  0
  8  9  1  0  0  0  0
 10 13  1  0  0  0  0
 10 11  1  1  0  0  0
 13 12  2  0  0  0  0
 14 17  1  0  0  0  0
 15 16  1  0  0  0  0
 15 13  1  0  0  0  0
 17 16  2  0  0  0  0
 18 14  2  0  0  0  0
 18 19  1  0  0  0  0
 19 15  2  0  0  0  0
 21 24  1  0  0  0  0
 22 26  1  0  0  0  0
 22 21  2  0  0  0  0
 23 27  1  0  0  0  0
 24 27  2  0  0  0  0
 25 22  1  0  0  0  0
 26 23  2  0  0  0  0
 27 20  1  0  0  0  0
M  END
>  <MODEL>
2

>  <REMARK>
 VINA RESULT:      -6.5      1.612      6.057
  Name = 
  8 active torsions:
  status: ('A' for Active; 'I' for Inactive)
    1  A    between atoms: C_2  and  C_15
    2  A    between atoms: C_2  and  C_19
    3  A    between atoms: C_3  and  C_19
    4  A    between atoms: C_3  and  C_26
    5  A    between atoms: C_8  and  C_16
    6  A    between atoms: C_9  and  C_15
    7  A    between atoms: N_14  and  C_17
    8  A    between atoms: N_14  and  C_19
                            x       y       z     vdW  Elec       q    Type
                         _______ _______ _______ _____ _____    ______ ____

>  <TORSDO>
F 8

$$$$
=
 OpenBabel11052423083D

 27 28  0  0  1  0  0  0  0  0999 V2000
  160.3710  208.6450  154.1280 C   0  0  2  0  0  3  0  0  0  0  0  0
  159.6770  210.9010  153.2910 C   0  0  0  0  0  0  0  0  0  0  0  0
  158.4710  210.5350  153.3590 O   0  0  0  0  0  0  0  0  0  0  0  0
  160.7280  209.9740  153.6150 N   0  0  0  0  0  0  0  0  0  0  0  0
  159.9180  212.4580  151.3740 C   0  0  0  0  0  1  0  0  0  0  0  0
  159.0460  213.2860  153.5480 C   0  0  0  0  0  1  0  0  0  0  0  0
  159.9950  212.3090  152.8810 C   0  0  0  0  0  3  0  0  0  0  0  0
  162.1320  210.3690  153.5100 C   0  0  0  0  0  2  0  0  0  0  0  0
  162.5900  210.1810  152.2050 O   0  0  0  0  0  1  0  0  0  0  0  0
  159.7420  208.6840  155.5330 C   0  0  1  0  0  3  0  0  0  0  0  0
  159.6950  207.3000  156.1650 C   0  0  0  0  0  1  0  0  0  0  0  0
  161.5110  209.2670  156.9990 O   0  0  0  0  0  0  0  0  0  0  0  0
  160.4410  209.6480  156.4530 C   0  0  0  0  0  0  0  0  0  0  0  0
  158.9830  213.6030  157.2610 C   0  0  0  0  0  3  0  0  0  0  0  0
  159.9270  211.0100  156.7310 C   0  0  0  0  0  0  0  0  0  0  0  0
  160.8250  212.0760  156.8970 C   0  0  0  0  0  3  0  0  0  0  0  0
  160.3550  213.3660  157.1610 C   0  0  0  0  0  3  0  0  0  0  0  0
  158.0790  212.5500  157.0970 C   0  0  0  0  0  3  0  0  0  0  0  0
  158.5490  211.2610  156.8340 C   0  0  0  0  0  3  0  0  0  0  0  0
  161.5180  207.6340  153.9720 C   0  0  0  0  0  2  0  0  0  0  0  0
  161.1120  204.3440  152.1410 C   0  0  0  0  0  3  0  0  0  0  0  0
  160.9690  204.7730  150.8180 C   0  0  0  0  0  0  0  0  0  0  0  0
  161.1850  207.0730  151.5400 C   0  0  0  0  0  3  0  0  0  0  0  0
  161.2870  205.2790  153.1640 C   0  0  0  0  0  3  0  0  0  0  0  0
  160.7800  203.7780  149.7300 C   0  0  0  0  0  1  0  0  0  0  0  0
  161.0080  206.1370  150.5170 C   0  0  0  0  0  3  0  0  0  0  0  0
  161.3160  206.6470  152.8680 C   0  0  0  0  0  0  0  0  0  0  0  0
  1 20  1  1  0  0  0
  1 10  1  0  0  0  0
  2  3  2  0  0  0  0
  2  4  1  0  0  0  0
  4  1  1  0  0  0  0
  5  7  1  0  0  0  0
  7  2  1  0  0  0  0
  7  6  1  0  0  0  0
  8  4  1  0  0  0  0
  9  8  1  0  0  0  0
 10 11  1  1  0  0  0
 10 13  1  0  0  0  0
 13 15  1  0  0  0  0
 13 12  2  0  0  0  0
 15 19  2  0  0  0  0
 15 16  1  0  0  0  0
 16 17  2  0  0  0  0
 17 14  1  0  0  0  0
 18 14  2  0  0  0  0
 19 18  1  0  0  0  0
 21 24  1  0  0  0  0
 22 21  2  0  0  0  0
 23 27  1  0  0  0  0
 25 22  1  0  0  0  0
 26 22  1  0  0  0  0
 26 23  2  0  0  0  0
 27 24  2  0  0  0  0
 27 20  1  0  0  0  0
M  END
>  <MODEL>
3

>  <REMARK>
 VINA RESULT:      -6.4      3.099      8.693
  Name = 
  8 active torsions:
  status: ('A' for Active; 'I' for Inactive)
    1  A    between atoms: C_2  and  C_15
    2  A    between atoms: C_2  and  C_19
    3  A    between atoms: C_3  and  C_19
    4  A    between atoms: C_3  and  C_26
    5  A    between atoms: C_8  and  C_16
    6  A    between atoms: C_9  and  C_15
    7  A    between atoms: N_14  and  C_17
    8  A    between atoms: N_14  and  C_19
                            x       y       z     vdW  Elec       q    Type
                         _______ _______ _______ _____ _____    ______ ____

>  <TORSDO>
F 8

$$$$
=
 OpenBabel11052423083D

 27 28  0  0  1  0  0  0  0  0999 V2000
  160.8850  207.0470  151.5380 C   0  0  2  0  0  3  0  0  0  0  0  0
  160.9500  207.7460  153.9430 C   0  0  0  0  0  0  0  0  0  0  0  0
  160.1880  206.7810  154.2240 O   0  0  0  0  0  0  0  0  0  0  0  0
  161.3170  207.9940  152.5740 N   0  0  0  0  0  0  0  0  0  0  0  0
  160.5400  209.7890  155.2890 C   0  0  0  0  0  1  0  0  0  0  0  0
  161.6390  207.8160  156.3230 C   0  0  0  0  0  1  0  0  0  0  0  0
  161.4710  208.6170  155.0470 C   0  0  0  0  0  3  0  0  0  0  0  0
  162.1730  209.1280  152.2230 C   0  0  0  0  0  2  0  0  0  0  0  0
  161.3990  210.2700  152.0190 O   0  0  0  0  0  1  0  0  0  0  0  0
  161.8730  205.8850  151.3260 C   0  0  1  0  0  3  0  0  0  0  0  0
  163.1560  206.0870  152.1190 C   0  0  0  0  0  1  0  0  0  0  0  0
  160.8320  204.3680  152.8220 O   0  0  0  0  0  0  0  0  0  0  0  0
  161.2690  204.5460  151.6530 C   0  0  0  0  0  0  0  0  0  0  0  0
  160.9700  201.3440  148.8100 C   0  0  0  0  0  3  0  0  0  0  0  0
  161.1650  203.4480  150.6630 C   0  0  0  0  0  0  0  0  0  0  0  0
  161.0500  202.1190  151.1020 C   0  0  0  0  0  3  0  0  0  0  0  0
  160.9530  201.0730  150.1800 C   0  0  0  0  0  3  0  0  0  0  0  0
  161.0850  202.6620  148.3610 C   0  0  0  0  0  3  0  0  0  0  0  0
  161.1810  203.7080  149.2830 C   0  0  0  0  0  3  0  0  0  0  0  0
  160.4510  207.7570  150.2460 C   0  0  0  0  0  2  0  0  0  0  0  0
  162.8940  206.6800  147.5600 C   0  0  0  0  0  3  0  0  0  0  0  0
  162.0510  206.0280  146.6560 C   0  0  0  0  0  0  0  0  0  0  0  0
  160.1550  206.5000  148.0850 C   0  0  0  0  0  3  0  0  0  0  0  0
  162.3690  207.2380  148.7290 C   0  0  0  0  0  3  0  0  0  0  0  0
  162.6100  205.4330  145.4140 C   0  0  0  0  0  1  0  0  0  0  0  0
  160.6800  205.9410  146.9160 C   0  0  0  0  0  3  0  0  0  0  0  0
  160.9990  207.1430  148.9980 C   0  0  0  0  0  0  0  0  0  0  0  0
  1 20  1  6  0  0  0
  1  4  1  0  0  0  0
  2  3  2  0  0  0  0
  2  7  1  0  0  0  0
  4  2  1  0  0  0  0
  7  5  1  0  0  0  0
  7  6  1  0  0  0  0
  8  4  1  0  0  0  0
  9  8  1  0  0  0  0
 10  1  1  0  0  0  0
 10 13  1  0  0  0  0
 10 11  1  1  0  0  0
 13 12  2  0  0  0  0
 14 17  1  0  0  0  0
 15 16  1  0  0  0  0
 15 13  1  0  0  0  0
 17 16  2  0  0  0  0
 18 14  2  0  0  0  0
 18 19  1  0  0  0  0
 19 15  2  0  0  0  0
 21 24  1  0  0  0  0
 22 26  1  0  0  0  0
 22 21  2  0  0  0  0
 23 27  1  0  0  0  0
 24 27  2  0  0  0  0
 25 22  1  0  0  0  0
 26 23  2  0  0  0  0
 27 20  1  0  0  0  0
M  END
>  <MODEL>
4

>  <REMARK>
 VINA RESULT:      -6.3      1.887      5.947
  Name = 
  8 active torsions:
  status: ('A' for Active; 'I' for Inactive)
    1  A    between atoms: C_2  and  C_15
    2  A    between atoms: C_2  and  C_19
    3  A    between atoms: C_3  and  C_19
    4  A    between atoms: C_3  and  C_26
    5  A    between atoms: C_8  and  C_16
    6  A    between atoms: C_9  and  C_15
    7  A    between atoms: N_14  and  C_17
    8  A    between atoms: N_14  and  C_19
                            x       y       z     vdW  Elec       q    Type
                         _______ _______ _______ _____ _____    ______ ____

>  <TORSDO>
F 8

$$$$
=
 OpenBabel11052423083D

 27 28  0  0  1  0  0  0  0  0999 V2000
  161.4030  205.4330  149.9310 C   0  0  2  0  0  3  0  0  0  0  0  0
  161.1050  203.0520  149.2130 C   0  0  0  0  0  0  0  0  0  0  0  0
  161.6940  203.3250  148.1310 O   0  0  0  0  0  0  0  0  0  0  0  0
  160.8610  204.0910  150.1780 N   0  0  0  0  0  0  0  0  0  0  0  0
  159.1990  201.4660  149.2000 C   0  0  0  0  0  1  0  0  0  0  0  0
  161.4840  200.6700  148.6400 C   0  0  0  0  0  1  0  0  0  0  0  0
  160.6780  201.6400  149.4820 C   0  0  0  0  0  3  0  0  0  0  0  0
  160.1520  203.8020  151.4250 C   0  0  0  0  0  2  0  0  0  0  0  0
  160.9610  203.0510  152.2770 O   0  0  0  0  0  1  0  0  0  0  0  0
  161.8230  206.1670  151.2190 C   0  0  1  0  0  3  0  0  0  0  0  0
  163.1280  205.6180  151.7770 C   0  0  0  0  0  1  0  0  0  0  0  0
  162.4950  208.0750  149.9830 O   0  0  0  0  0  0  0  0  0  0  0  0
  161.9280  207.6560  151.0280 C   0  0  0  0  0  0  0  0  0  0  0  0
  160.3820  210.5050  153.8410 C   0  0  0  0  0  3  0  0  0  0  0  0
  161.3920  208.6310  152.0070 C   0  0  0  0  0  0  0  0  0  0  0  0
  161.2560  209.9810  151.6460 C   0  0  0  0  0  3  0  0  0  0  0  0
  160.7530  210.9130  152.5580 C   0  0  0  0  0  3  0  0  0  0  0  0
  160.5130  209.1640  154.2120 C   0  0  0  0  0  3  0  0  0  0  0  0
  161.0160  208.2330  153.3000 C   0  0  0  0  0  3  0  0  0  0  0  0
  160.5080  206.2580  148.9920 C   0  0  0  0  0  2  0  0  0  0  0  0
  160.1120  205.9490  145.2380 C   0  0  0  0  0  3  0  0  0  0  0  0
  161.4400  205.8050  144.8250 C   0  0  0  0  0  0  0  0  0  0  0  0
  162.1720  205.9530  147.1270 C   0  0  0  0  0  3  0  0  0  0  0  0
  159.8140  206.1000  146.5950 C   0  0  0  0  0  3  0  0  0  0  0  0
  161.7560  205.6470  143.3810 C   0  0  0  0  0  1  0  0  0  0  0  0
  162.4700  205.8040  145.7700 C   0  0  0  0  0  3  0  0  0  0  0  0
  160.8440  206.1100  147.5430 C   0  0  0  0  0  0  0  0  0  0  0  0
  1 20  1  1  0  0  0
  1  4  1  0  0  0  0
  1 10  1  0  0  0  0
  2  7  1  0  0  0  0
  2  4  1  0  0  0  0
  3  2  2  0  0  0  0
  4  8  1  0  0  0  0
  5  7  1  0  0  0  0
  6  7  1  0  0  0  0
  8  9  1  0  0  0  0
 10 11  1  6  0  0  0
 12 13  2  0  0  0  0
 13 10  1  0  0  0  0
 13 15  1  0  0  0  0
 14 18  1  0  0  0  0
 15 19  1  0  0  0  0
 16 15  2  0  0  0  0
 16 17  1  0  0  0  0
 17 14  2  0  0  0  0
 19 18  2  0  0  0  0
 21 24  1  0  0  0  0
 22 21  2  0  0  0  0
 22 26  1  0  0  0  0
 23 27  1  0  0  0  0
 24 27  2  0  0  0  0
 25 22  1  0  0  0  0
 26 23  2  0  0  0  0
 27 20  1  0  0  0  0
M  END
>  <MODEL>
5

>  <REMARK>
 VINA RESULT:      -6.2      1.622      6.628
  Name = 
  8 active torsions:
  status: ('A' for Active; 'I' for Inactive)
    1  A    between atoms: C_2  and  C_15
    2  A    between atoms: C_2  and  C_19
    3  A    between atoms: C_3  and  C_19
    4  A    between atoms: C_3  and  C_26
    5  A    between atoms: C_8  and  C_16
    6  A    between atoms: C_9  and  C_15
    7  A    between atoms: N_14  and  C_17
    8  A    between atoms: N_14  and  C_19
                            x       y       z     vdW  Elec       q    Type
                         _______ _______ _______ _____ _____    ______ ____

>  <TORSDO>
F 8

$$$$
=
 OpenBabel11052423083D

 27 28  0  0  1  0  0  0  0  0999 V2000
  162.0530  208.1060  150.7620 C   0  0  2  0  0  3  0  0  0  0  0  0
  161.9580  210.2460  149.4640 C   0  0  0  0  0  0  0  0  0  0  0  0
  161.6840  210.8600  150.5310 O   0  0  0  0  0  0  0  0  0  0  0  0
  162.1100  208.8150  149.4780 N   0  0  0  0  0  0  0  0  0  0  0  0
  160.8750  211.8070  147.8700 C   0  0  0  0  0  1  0  0  0  0  0  0
  163.3160  211.9640  148.3010 C   0  0  0  0  0  1  0  0  0  0  0  0
  162.1310  211.0230  148.1930 C   0  0  0  0  0  3  0  0  0  0  0  0
  162.3950  208.0820  148.2440 C   0  0  0  0  0  2  0  0  0  0  0  0
  161.2050  207.6820  147.6360 O   0  0  0  0  0  1  0  0  0  0  0  0
  162.2820  206.5890  150.6310 C   0  0  1  0  0  3  0  0  0  0  0  0
  162.8840  206.0010  151.8990 C   0  0  0  0  0  1  0  0  0  0  0  0
  159.9440  206.4880  150.2510 O   0  0  0  0  0  0  0  0  0  0  0  0
  161.0280  205.8450  150.2610 C   0  0  0  0  0  0  0  0  0  0  0  0
  161.0150  201.6850  149.2030 C   0  0  0  0  0  3  0  0  0  0  0  0
  161.0230  204.4050  149.9070 C   0  0  0  0  0  0  0  0  0  0  0  0
  161.2100  204.0130  148.5720 C   0  0  0  0  0  3  0  0  0  0  0  0
  161.2060  202.6600  148.2220 C   0  0  0  0  0  3  0  0  0  0  0  0
  160.8270  202.0630  150.5350 C   0  0  0  0  0  3  0  0  0  0  0  0
  160.8310  203.4150  150.8840 C   0  0  0  0  0  3  0  0  0  0  0  0
  160.8150  208.4930  151.5860 C   0  0  0  0  0  2  0  0  0  0  0  0
  161.0610  207.6870  155.2790 C   0  0  0  0  0  3  0  0  0  0  0  0
  161.5320  208.8960  155.8010 C   0  0  0  0  0  0  0  0  0  0  0  0
  161.5370  209.8540  153.5780 C   0  0  0  0  0  3  0  0  0  0  0  0
  160.8320  207.5600  153.9060 C   0  0  0  0  0  3  0  0  0  0  0  0
  161.7770  209.0300  157.2600 C   0  0  0  0  0  1  0  0  0  0  0  0
  161.7670  209.9800  154.9510 C   0  0  0  0  0  3  0  0  0  0  0  0
  161.0770  208.6400  153.0500 C   0  0  0  0  0  0  0  0  0  0  0  0
  1 20  1  6  0  0  0
  2  4  1  0  0  0  0
  2  3  2  0  0  0  0
  4  1  1  0  0  0  0
  5  7  1  0  0  0  0
  7  6  1  0  0  0  0
  7  2  1  0  0  0  0
  8  4  1  0  0  0  0
  9  8  1  0  0  0  0
 10  1  1  0  0  0  0
 10 11  1  1  0  0  0
 12 13  2  0  0  0  0
 13 10  1  0  0  0  0
 14 18  1  0  0  0  0
 15 13  1  0  0  0  0
 15 19  1  0  0  0  0
 16 15  2  0  0  0  0
 17 16  1  0  0  0  0
 17 14  2  0  0  0  0
 18 19  2  0  0  0  0
 20 27  1  0  0  0  0
 21 22  1  0  0  0  0
 22 25  1  0  0  0  0
 23 26  1  0  0  0  0
 24 21  2  0  0  0  0
 26 22  2  0  0  0  0
 27 23  2  0  0  0  0
 27 24  1  0  0  0  0
M  END
>  <MODEL>
6

>  <REMARK>
 VINA RESULT:      -5.9      2.140      4.640
  Name = 
  8 active torsions:
  status: ('A' for Active; 'I' for Inactive)
    1  A    between atoms: C_2  and  C_15
    2  A    between atoms: C_2  and  C_19
    3  A    between atoms: C_3  and  C_19
    4  A    between atoms: C_3  and  C_26
    5  A    between atoms: C_8  and  C_16
    6  A    between atoms: C_9  and  C_15
    7  A    between atoms: N_14  and  C_17
    8  A    between atoms: N_14  and  C_19
                            x       y       z     vdW  Elec       q    Type
                         _______ _______ _______ _____ _____    ______ ____

>  <TORSDO>
F 8

$$$$
=
 OpenBabel11052423083D

 27 28  0  0  1  0  0  0  0  0999 V2000
  161.4680  206.8070  151.3270 C   0  0  2  0  0  3  0  0  0  0  0  0
  160.8780  207.2000  153.7290 C   0  0  0  0  0  0  0  0  0  0  0  0
  161.1860  206.0030  153.9810 O   0  0  0  0  0  0  0  0  0  0  0  0
  160.9400  207.6870  152.3770 N   0  0  0  0  0  0  0  0  0  0  0  0
  159.6620  207.3360  155.8870 C   0  0  0  0  0  1  0  0  0  0  0  0
  161.6750  208.7400  155.5020 C   0  0  0  0  0  1  0  0  0  0  0  0
  160.4620  208.1030  154.8520 C   0  0  0  0  0  3  0  0  0  0  0  0
  160.5560  209.0630  152.0600 C   0  0  0  0  0  2  0  0  0  0  0  0
  161.6330  209.9240  152.2670 O   0  0  0  0  0  1  0  0  0  0  0  0
  162.5260  207.4880  150.4380 C   0  0  1  0  0  3  0  0  0  0  0  0
  163.7290  206.5850  150.2070 C   0  0  0  0  0  1  0  0  0  0  0  0
  161.6100  209.1520  149.0190 O   0  0  0  0  0  0  0  0  0  0  0  0
  161.9640  207.9460  149.1190 C   0  0  0  0  0  0  0  0  0  0  0  0
  161.5150  205.3470  145.7330 C   0  0  0  0  0  3  0  0  0  0  0  0
  161.8200  207.0460  147.9510 C   0  0  0  0  0  0  0  0  0  0  0  0
  160.6280  207.0480  147.2090 C   0  0  0  0  0  3  0  0  0  0  0  0
  160.4770  206.2040  146.1050 C   0  0  0  0  0  3  0  0  0  0  0  0
  162.7060  205.3350  146.4640 C   0  0  0  0  0  3  0  0  0  0  0  0
  162.8570  206.1800  147.5670 C   0  0  0  0  0  3  0  0  0  0  0  0
  160.3510  206.0900  150.5520 C   0  0  0  0  0  2  0  0  0  0  0  0
  160.7180  202.7140  148.8760 C   0  0  0  0  0  3  0  0  0  0  0  0
  160.9900  201.8840  149.9680 C   0  0  0  0  0  0  0  0  0  0  0  0
  160.8460  203.7910  151.4520 C   0  0  0  0  0  3  0  0  0  0  0  0
  160.5140  204.0830  149.0700 C   0  0  0  0  0  3  0  0  0  0  0  0
  161.2090  200.4290  149.7600 C   0  0  0  0  0  1  0  0  0  0  0  0
  161.0500  202.4230  151.2560 C   0  0  0  0  0  3  0  0  0  0  0  0
  160.5850  204.6270  150.3580 C   0  0  0  0  0  0  0  0  0  0  0  0
  1 20  1  6  0  0  0
  1  4  1  0  0  0  0
  2  3  2  0  0  0  0
  2  7  1  0  0  0  0
  4  2  1  0  0  0  0
  7  6  1  0  0  0  0
  7  5  1  0  0  0  0
  8  9  1  0  0  0  0
  8  4  1  0  0  0  0
 10 11  1  6  0  0  0
 10  1  1  0  0  0  0
 12 13  2  0  0  0  0
 13 10  1  0  0  0  0
 14 17  2  0  0  0  0
 14 18  1  0  0  0  0
 15 13  1  0  0  0  0
 16 15  2  0  0  0  0
 17 16  1  0  0  0  0
 18 19  2  0  0  0  0
 19 15  1  0  0  0  0
 21 24  2  0  0  0  0
 21 22  1  0  0  0  0
 22 26  2  0  0  0  0
 24 27  1  0  0  0  0
 25 22  1  0  0  0  0
 26 23  1  0  0  0  0
 27 20  1  0  0  0  0
 27 23  2  0  0  0  0
M  END
>  <MODEL>
7

>  <REMARK>
 VINA RESULT:      -5.7      1.745      5.365
  Name = 
  8 active torsions:
  status: ('A' for Active; 'I' for Inactive)
    1  A    between atoms: C_2  and  C_15
    2  A    between atoms: C_2  and  C_19
    3  A    between atoms: C_3  and  C_19
    4  A    between atoms: C_3  and  C_26
    5  A    between atoms: C_8  and  C_16
    6  A    between atoms: C_9  and  C_15
    7  A    between atoms: N_14  and  C_17
    8  A    between atoms: N_14  and  C_19
                            x       y       z     vdW  Elec       q    Type
                         _______ _______ _______ _____ _____    ______ ____

>  <TORSDO>
F 8

$$$$
=
 OpenBabel11052423083D

 27 28  0  0  1  0  0  0  0  0999 V2000
  161.5670  206.3080  150.1860 C   0  0  2  0  0  3  0  0  0  0  0  0
  161.0630  207.5400  152.3080 C   0  0  0  0  0  0  0  0  0  0  0  0
  160.0790  208.0840  151.7370 O   0  0  0  0  0  0  0  0  0  0  0  0
  161.9200  206.6520  151.5690 N   0  0  0  0  0  0  0  0  0  0  0  0
  161.0460  209.2780  154.0770 C   0  0  0  0  0  1  0  0  0  0  0  0
  160.4570  206.9300  154.6340 C   0  0  0  0  0  1  0  0  0  0  0  0
  161.3170  207.8200  153.7590 C   0  0  0  0  0  3  0  0  0  0  0  0
  163.0860  206.0360  152.2050 C   0  0  0  0  0  2  0  0  0  0  0  0
  162.8960  204.6600  152.3290 O   0  0  0  0  0  1  0  0  0  0  0  0
  161.5030  207.5320  149.2520 C   0  0  1  0  0  3  0  0  0  0  0  0
  161.9550  208.8010  149.9600 C   0  0  0  0  0  1  0  0  0  0  0  0
  163.4040  207.9250  147.8920 O   0  0  0  0  0  0  0  0  0  0  0  0
  162.2940  207.3360  147.9880 C   0  0  0  0  0  0  0  0  0  0  0  0
  160.9640  204.8540  144.7480 C   0  0  0  0  0  3  0  0  0  0  0  0
  161.8240  206.4830  146.8700 C   0  0  0  0  0  0  0  0  0  0  0  0
  162.6960  205.5490  146.2890 C   0  0  0  0  0  3  0  0  0  0  0  0
  162.2680  204.7380  145.2330 C   0  0  0  0  0  3  0  0  0  0  0  0
  160.0860  205.7800  145.3180 C   0  0  0  0  0  3  0  0  0  0  0  0
  160.5150  206.5900  146.3730 C   0  0  0  0  0  3  0  0  0  0  0  0
  160.3400  205.3860  150.1110 C   0  0  0  0  0  2  0  0  0  0  0  0
  161.2010  202.4730  147.8480 C   0  0  0  0  0  3  0  0  0  0  0  0
  161.1960  201.4050  148.7490 C   0  0  0  0  0  0  0  0  0  0  0  0
  160.6310  202.9240  150.5470 C   0  0  0  0  0  3  0  0  0  0  0  0
  160.9240  203.7680  148.2960 C   0  0  0  0  0  3  0  0  0  0  0  0
  161.4920  200.0290  148.2720 C   0  0  0  0  0  1  0  0  0  0  0  0
  160.9080  201.6290  150.0980 C   0  0  0  0  0  3  0  0  0  0  0  0
  160.6470  203.9980  149.6490 C   0  0  0  0  0  0  0  0  0  0  0  0
  1 20  1  1  0  0  0
  1  4  1  0  0  0  0
  2  7  1  0  0  0  0
  3  2  2  0  0  0  0
  4  8  1  0  0  0  0
  4  2  1  0  0  0  0
  7  5  1  0  0  0  0
  7  6  1  0  0  0  0
  8  9  1  0  0  0  0
 10 11  1  1  0  0  0
 10  1  1  0  0  0  0
 12 13  2  0  0  0  0
 13 10  1  0  0  0  0
 14 17  2  0  0  0  0
 14 18  1  0  0  0  0
 15 13  1  0  0  0  0
 16 15  2  0  0  0  0
 17 16  1  0  0  0  0
 18 19  2  0  0  0  0
 19 15  1  0  0  0  0
 21 24  2  0  0  0  0
 21 22  1  0  0  0  0
 22 26  2  0  0  0  0
 24 27  1  0  0  0  0
 25 22  1  0  0  0  0
 26 23  1  0  0  0  0
 27 20  1  0  0  0  0
 27 23  2  0  0  0  0
M  END
>  <MODEL>
8

>  <REMARK>
 VINA RESULT:      -5.7      1.467      5.498
  Name = 
  8 active torsions:
  status: ('A' for Active; 'I' for Inactive)
    1  A    between atoms: C_2  and  C_15
    2  A    between atoms: C_2  and  C_19
    3  A    between atoms: C_3  and  C_19
    4  A    between atoms: C_3  and  C_26
    5  A    between atoms: C_8  and  C_16
    6  A    between atoms: C_9  and  C_15
    7  A    between atoms: N_14  and  C_17
    8  A    between atoms: N_14  and  C_19
                            x       y       z     vdW  Elec       q    Type
                         _______ _______ _______ _____ _____    ______ ____

>  <TORSDO>
F 8

$$$$
=
 OpenBabel11052423083D

 27 28  0  0  1  0  0  0  0  0999 V2000
  161.2440  209.2800  152.2810 C   0  0  2  0  0  3  0  0  0  0  0  0
  159.6700  210.6510  153.6650 C   0  0  0  0  0  0  0  0  0  0  0  0
  158.9640  210.8440  152.6380 O   0  0  0  0  0  0  0  0  0  0  0  0
  160.8940  209.9020  153.5640 N   0  0  0  0  0  0  0  0  0  0  0  0
  159.6460  212.6410  155.1440 C   0  0  0  0  0  1  0  0  0  0  0  0
  157.7050  211.0920  155.1120 C   0  0  0  0  0  1  0  0  0  0  0  0
  159.2120  211.1970  154.9850 C   0  0  0  0  0  3  0  0  0  0  0  0
  161.7430  209.6950  154.7380 C   0  0  0  0  0  2  0  0  0  0  0  0
  162.6280  210.7620  154.8860 O   0  0  0  0  0  1  0  0  0  0  0  0
  161.4630  207.7590  152.3800 C   0  0  1  0  0  3  0  0  0  0  0  0
  160.6690  207.1530  153.5290 C   0  0  0  0  0  1  0  0  0  0  0  0
  160.9100  207.7450  150.0750 O   0  0  0  0  0  0  0  0  0  0  0  0
  161.1420  207.0430  151.0960 C   0  0  0  0  0  0  0  0  0  0  0  0
  160.9970  202.7670  150.7580 C   0  0  0  0  0  3  0  0  0  0  0  0
  161.0950  205.5650  150.9910 C   0  0  0  0  0  0  0  0  0  0  0  0
  160.8900  204.9600  149.7410 C   0  0  0  0  0  3  0  0  0  0  0  0
  160.8410  203.5680  149.6250 C   0  0  0  0  0  3  0  0  0  0  0  0
  161.2010  203.3580  152.0080 C   0  0  0  0  0  3  0  0  0  0  0  0
  161.2490  204.7490  152.1230 C   0  0  0  0  0  3  0  0  0  0  0  0
  162.3670  210.0380  151.5540 C   0  0  0  0  0  2  0  0  0  0  0  0
  161.8030  211.5270  148.1180 C   0  0  0  0  0  3  0  0  0  0  0  0
  161.0280  212.6510  148.4210 C   0  0  0  0  0  0  0  0  0  0  0  0
  161.1210  212.0810  150.7720 C   0  0  0  0  0  3  0  0  0  0  0  0
  162.2340  210.6780  149.1410 C   0  0  0  0  0  3  0  0  0  0  0  0
  160.5690  213.5530  147.3330 C   0  0  0  0  0  1  0  0  0  0  0  0
  160.6900  212.9300  149.7480 C   0  0  0  0  0  3  0  0  0  0  0  0
  161.8870  210.9480  150.4700 C   0  0  0  0  0  0  0  0  0  0  0  0
  1 20  1  1  0  0  0
  1 10  1  0  0  0  0
  1  4  1  0  0  0  0
  2  7  1  0  0  0  0
  3  2  2  0  0  0  0
  4  2  1  0  0  0  0
  4  8  1  0  0  0  0
  7  6  1  0  0  0  0
  7  5  1  0  0  0  0
  8  9  1  0  0  0  0
 10 11  1  1  0  0  0
 12 13  2  0  0  0  0
 13 10  1  0  0  0  0
 14 18  1  0  0  0  0
 15 13  1  0  0  0  0
 15 19  1  0  0  0  0
 16 15  2  0  0  0  0
 17 16  1  0  0  0  0
 17 14  2  0  0  0  0
 18 19  2  0  0  0  0
 21 22  2  0  0  0  0
 21 24  1  0  0  0  0
 22 26  1  0  0  0  0
 24 27  2  0  0  0  0
 25 22  1  0  0  0  0
 26 23  2  0  0  0  0
 27 23  1  0  0  0  0
 27 20  1  0  0  0  0
M  END
>  <MODEL>
9

>  <REMARK>
 VINA RESULT:      -5.7      2.584      5.720
  Name = 
  8 active torsions:
  status: ('A' for Active; 'I' for Inactive)
    1  A    between atoms: C_2  and  C_15
    2  A    between atoms: C_2  and  C_19
    3  A    between atoms: C_3  and  C_19
    4  A    between atoms: C_3  and  C_26
    5  A    between atoms: C_8  and  C_16
    6  A    between atoms: C_9  and  C_15
    7  A    between atoms: N_14  and  C_17
    8  A    between atoms: N_14  and  C_19
                            x       y       z     vdW  Elec       q    Type
                         _______ _______ _______ _____ _____    ______ ____

>  <TORSDO>
F 8

$$$$
