=
 OpenBabel11062408093D

 34 38  0  0  1  0  0  0  0  0999 V2000
  156.9050  213.6540  150.8810 C   0  0  2  0  0  3  0  0  0  0  0  0
  159.3040  213.3830  150.2040 C   0  0  1  0  0  3  0  0  0  0  0  0
  158.3050  212.4360  152.4400 C   0  0  2  0  0  3  0  0  0  0  0  0
  157.3070  213.6300  148.6580 C   0  0  0  0  0  2  0  0  0  0  0  0
  157.1820  211.8270  154.6680 C   0  0  1  0  0  3  0  0  0  0  0  0
  156.7430  211.4370  157.0090 O   0  0  0  0  0  1  0  0  0  0  0  0
  158.6340  212.8670  148.9310 C   0  0  0  0  0  2  0  0  0  0  0  0
  160.4430  211.5480  151.5200 C   0  0  0  0  0  2  0  0  0  0  0  0
  159.0070  212.7130  157.2570 O   0  0  0  0  0  1  0  0  0  0  0  0
  158.3240  213.5350  151.3790 C   0  0  2  0  0  3  0  0  0  0  0  0
  157.5660  214.4520  157.1350 F   0  0  0  0  0  0  0  0  0  0  0  0
  156.8710  214.4530  149.7310 O   0  0  0  0  0  0  0  0  0  0  0  0
  157.3740  212.9510  153.6000 C   0  0  1  0  0  0  0  0  0  0  0  0
  156.9330  212.4350  156.0470 C   0  0  1  0  0  3  0  0  0  0  0  0
  156.1080  214.2090  152.0450 C   0  0  0  0  0  2  0  0  0  0  0  0
  160.6280  212.7090  150.5560 C   0  0  0  0  0  2  0  0  0  0  0  0
  158.8180  213.8860  155.1990 C   0  0  0  0  0  2  0  0  0  0  0  0
  158.0870  213.3750  156.4430 C   0  0  2  0  0  0  0  0  0  0  0  0
  157.9030  214.1570  154.1630 O   0  0  0  0  0  0  0  0  0  0  0  0
  156.1200  210.8010  154.2850 C   0  0  0  0  0  1  0  0  0  0  0  0
  159.7440  212.0110  152.7980 C   0  0  2  0  0  3  0  0  0  0  0  0
  156.0690  213.2440  153.0830 O   0  0  0  0  0  0  0  0  0  0  0  0
  159.7740  210.8500  153.7880 C   0  0  0  0  0  2  0  0  0  0  0  0
  160.7380  207.9250  151.9210 C   0  0  0  0  0  3  0  0  0  0  0  0
  160.8450  208.9370  152.7350 C   0  0  0  0  0  0  0  0  0  0  0  0
  160.9450  209.9530  153.5480 C   0  0  0  0  0  0  0  0  0  0  0  0
  162.2630  210.2900  154.1450 C   0  0  0  0  0  1  0  0  0  0  0  0
  161.9180  208.6150  149.2250 C   0  0  0  0  0  1  0  0  0  0  0  0
  161.9670  207.2720  151.3650 C   0  0  2  0  0  3  0  0  0  0  0  0
  161.9750  207.2230  149.8300 C   0  0  1  0  0  3  0  0  0  0  0  0
  161.1400  204.6130  149.7190 S   0  0  0  0  0  0  0  0  0  0  0  0
  161.0430  204.9190  151.5120 C   0  0  0  0  0  2  0  0  0  0  0  0
  162.1480  205.8730  151.9560 C   0  0  0  0  0  2  0  0  0  0  0  0
  160.8480  206.3570  149.2820 C   0  0  0  0  0  2  0  0  0  0  0  0
  1 10  1  0  0  0  0
  1 15  1  1  0  0  0
  2  7  1  6  0  0  0
  2 16  1  0  0  0  0
  2 10  1  0  0  0  0
  3 21  1  0  0  0  0
  3 13  1  0  0  0  0
  4  7  1  0  0  0  0
  4 12  1  0  0  0  0
  5 14  1  0  0  0  0
  8 21  1  0  0  0  0
 10  3  1  0  0  0  0
 12  1  1  0  0  0  0
 13 19  1  0  0  0  0
 13  5  1  0  0  0  0
 14 18  1  0  0  0  0
 14  6  1  0  0  0  0
 15 22  1  0  0  0  0
 16  8  1  0  0  0  0
 17 18  1  0  0  0  0
 18 11  1  0  0  0  0
 18  9  1  0  0  0  0
 19 17  1  0  0  0  0
 20  5  1  0  0  0  0
 21 23  1  0  0  0  0
 22 13  1  0  0  0  0
 24 25  2  0  0  0  0
 25 26  2  0  0  0  0
 26 23  1  0  0  0  0
 26 27  1  0  0  0  0
 28 30  1  0  0  0  0
 29 24  1  0  0  0  0
 29 33  1  0  0  0  0
 30 29  1  0  0  0  0
 31 32  1  0  0  0  0
 32 33  1  0  0  0  0
 34 31  1  0  0  0  0
 34 30  1  0  0  0  0
M  END
>  <MODEL>
1

>  <REMARK>
 VINA RESULT:      -5.7      0.000      0.000
  Name = 
  3 active torsions:
  status: ('A' for Active; 'I' for Inactive)
    1  A    between atoms: C_3  and  C_13
    2  A    between atoms: C_5  and  C_18
    3  A    between atoms: C_5  and  C_31
                            x       y       z     vdW  Elec       q    Type
                         _______ _______ _______ _____ _____    ______ ____

>  <TORSDO>
F 3

$$$$
=
 OpenBabel11062408093D

 34 38  0  0  1  0  0  0  0  0999 V2000
  161.3040  206.3510  153.4370 C   0  0  2  0  0  3  0  0  0  0  0  0
  161.0990  206.4990  150.9420 C   0  0  1  0  0  3  0  0  0  0  0  0
  161.3630  208.5890  152.5090 C   0  0  2  0  0  3  0  0  0  0  0  0
  162.0590  204.5660  152.2760 C   0  0  0  0  0  2  0  0  0  0  0  0
  161.3700  210.4870  154.2390 C   0  0  1  0  0  3  0  0  0  0  0  0
  160.9430  212.5530  155.4120 O   0  0  0  0  0  1  0  0  0  0  0  0
  162.2350  205.4800  151.0310 C   0  0  0  0  0  2  0  0  0  0  0  0
  161.8690  208.7470  150.0750 C   0  0  0  0  0  2  0  0  0  0  0  0
  159.0680  212.7490  153.6060 O   0  0  0  0  0  1  0  0  0  0  0  0
  160.8020  207.1860  152.2850 C   0  0  2  0  0  3  0  0  0  0  0  0
  158.0120  211.4890  155.1590 F   0  0  0  0  0  0  0  0  0  0  0  0
  161.0540  204.9960  153.1840 O   0  0  0  0  0  0  0  0  0  0  0  0
  160.7390  209.1110  153.8570 C   0  0  1  0  0  0  0  0  0  0  0  0
  160.3820  211.3240  155.0490 C   0  0  1  0  0  3  0  0  0  0  0  0
  160.6030  206.8900  154.6680 C   0  0  0  0  0  2  0  0  0  0  0  0
  161.1670  207.4390  149.7410 C   0  0  0  0  0  2  0  0  0  0  0  0
  158.8850  210.4090  153.2320 C   0  0  0  0  0  2  0  0  0  0  0  0
  159.0690  211.5210  154.2690 C   0  0  2  0  0  0  0  0  0  0  0  0
  159.3120  209.1710  153.7520 O   0  0  0  0  0  0  0  0  0  0  0  0
  162.7260  210.3630  154.9270 C   0  0  0  0  0  1  0  0  0  0  0  0
  161.1780  209.4510  151.2420 C   0  0  2  0  0  3  0  0  0  0  0  0
  161.0620  208.2080  154.9230 O   0  0  0  0  0  0  0  0  0  0  0  0
  161.8060  210.8330  151.3860 C   0  0  0  0  0  2  0  0  0  0  0  0
  159.1000  212.9780  150.3640 C   0  0  0  0  0  3  0  0  0  0  0  0
  160.2470  212.3620  150.3150 C   0  0  0  0  0  0  0  0  0  0  0  0
  161.3950  211.7420  150.2740 C   0  0  0  0  0  0  0  0  0  0  0  0
  162.3490  212.0360  149.1730 C   0  0  0  0  0  1  0  0  0  0  0  0
  156.4630  214.4520  150.2830 C   0  0  0  0  0  1  0  0  0  0  0  0
  158.8460  214.1690  149.4920 C   0  0  2  0  0  3  0  0  0  0  0  0
  157.3740  214.3030  149.0770 C   0  0  1  0  0  3  0  0  0  0  0  0
  157.7730  213.1980  146.5990 S   0  0  0  0  0  0  0  0  0  0  0  0
  159.4270  212.9830  147.3330 C   0  0  0  0  0  2  0  0  0  0  0  0
  159.7580  214.1450  148.2650 C   0  0  0  0  0  2  0  0  0  0  0  0
  156.9190  213.1380  148.2070 C   0  0  0  0  0  2  0  0  0  0  0  0
  1 15  1  1  0  0  0
  2 16  1  6  0  0  0
  2  7  1  0  0  0  0
  2 10  1  0  0  0  0
  3 13  1  0  0  0  0
  4 12  1  0  0  0  0
  5 20  1  0  0  0  0
  5 14  1  0  0  0  0
  7  4  1  0  0  0  0
  8 21  1  0  0  0  0
  9 18  1  0  0  0  0
 10  3  1  0  0  0  0
 10  1  1  0  0  0  0
 12  1  1  0  0  0  0
 13  5  1  0  0  0  0
 13 22  1  0  0  0  0
 14  6  1  0  0  0  0
 15 22  1  0  0  0  0
 16  8  1  0  0  0  0
 17 19  1  0  0  0  0
 17 18  1  0  0  0  0
 18 14  1  0  0  0  0
 18 11  1  0  0  0  0
 19 13  1  0  0  0  0
 21 23  1  0  0  0  0
 21  3  1  0  0  0  0
 25 24  2  0  0  0  0
 26 25  2  0  0  0  0
 26 23  1  0  0  0  0
 27 26  1  0  0  0  0
 29 24  1  0  0  0  0
 30 29  1  0  0  0  0
 30 28  1  0  0  0  0
 31 32  1  0  0  0  0
 31 34  1  0  0  0  0
 32 33  1  0  0  0  0
 33 29  1  0  0  0  0
 34 30  1  0  0  0  0
M  END
>  <MODEL>
2

>  <REMARK>
 VINA RESULT:      -3.9      2.938      6.705
  Name = 
  3 active torsions:
  status: ('A' for Active; 'I' for Inactive)
    1  A    between atoms: C_3  and  C_13
    2  A    between atoms: C_5  and  C_18
    3  A    between atoms: C_5  and  C_31
                            x       y       z     vdW  Elec       q    Type
                         _______ _______ _______ _____ _____    ______ ____

>  <TORSDO>
F 3

$$$$
=
 OpenBabel11062408093D

 34 38  0  0  1  0  0  0  0  0999 V2000
  160.9480  210.8970  156.2010 C   0  0  2  0  0  3  0  0  0  0  0  0
  161.2790  209.9980  153.8840 C   0  0  1  0  0  3  0  0  0  0  0  0
  159.3840  211.6950  154.5310 C   0  0  2  0  0  3  0  0  0  0  0  0
  163.0630  210.3120  155.6610 C   0  0  0  0  0  2  0  0  0  0  0  0
  157.4670  213.1430  155.4370 C   0  0  1  0  0  3  0  0  0  0  0  0
  155.3010  214.1330  155.8360 O   0  0  0  0  0  1  0  0  0  0  0  0
  162.7020  210.4860  154.1590 C   0  0  0  0  0  2  0  0  0  0  0  0
  160.0820  211.4060  152.1570 C   0  0  0  0  0  2  0  0  0  0  0  0
  154.5260  212.1010  154.3900 O   0  0  0  0  0  1  0  0  0  0  0  0
  160.2600  210.5040  154.9170 C   0  0  2  0  0  3  0  0  0  0  0  0
  154.6170  211.1400  156.4360 F   0  0  0  0  0  0  0  0  0  0  0  0
  161.9630  209.9760  156.4950 O   0  0  0  0  0  0  0  0  0  0  0  0
  158.3190  211.8570  155.6780 C   0  0  1  0  0  0  0  0  0  0  0  0
  156.0690  212.9800  156.0320 C   0  0  1  0  0  3  0  0  0  0  0  0
  159.8530  210.9670  157.2460 C   0  0  0  0  0  2  0  0  0  0  0  0
  160.8290  210.1090  152.4290 C   0  0  0  0  0  2  0  0  0  0  0  0
  156.3990  210.7370  154.9190 C   0  0  0  0  0  2  0  0  0  0  0  0
  155.3690  211.7410  155.4430 C   0  0  2  0  0  0  0  0  0  0  0  0
  157.5140  210.6770  155.7790 O   0  0  0  0  0  0  0  0  0  0  0  0
  158.1510  214.4230  155.9060 C   0  0  0  0  0  1  0  0  0  0  0  0
  158.8730  211.5390  153.0830 C   0  0  2  0  0  3  0  0  0  0  0  0
  158.9830  212.0420  156.9350 O   0  0  0  0  0  0  0  0  0  0  0  0
  158.0680  212.7500  152.6200 C   0  0  0  0  0  2  0  0  0  0  0  0
  157.9260  213.1500  149.0440 C   0  0  0  0  0  3  0  0  0  0  0  0
  158.3400  213.3100  150.2690 C   0  0  0  0  0  0  0  0  0  0  0  0
  158.7480  213.4660  151.4990 C   0  0  0  0  0  0  0  0  0  0  0  0
  159.8170  214.4530  151.7980 C   0  0  0  0  0  1  0  0  0  0  0  0
  155.9530  214.3710  147.1080 C   0  0  0  0  0  1  0  0  0  0  0  0
  158.3120  214.1340  147.9830 C   0  0  2  0  0  3  0  0  0  0  0  0
  157.3980  214.0730  146.7500 C   0  0  1  0  0  3  0  0  0  0  0  0
  159.1570  212.5610  145.2860 S   0  0  0  0  0  0  0  0  0  0  0  0
  160.0180  212.6160  146.8910 C   0  0  0  0  0  2  0  0  0  0  0  0
  159.7770  213.9540  147.5860 C   0  0  0  0  0  2  0  0  0  0  0  0
  157.5030  212.7340  146.0300 C   0  0  0  0  0  2  0  0  0  0  0  0
  1 12  1  0  0  0  0
  1 15  1  1  0  0  0
  2 16  1  6  0  0  0
  2  7  1  0  0  0  0
  2 10  1  0  0  0  0
  3 10  1  0  0  0  0
  3 13  1  0  0  0  0
  4 12  1  0  0  0  0
  5 13  1  0  0  0  0
  5 20  1  0  0  0  0
  5 14  1  0  0  0  0
  6 14  1  0  0  0  0
  7  4  1  0  0  0  0
  8 16  1  0  0  0  0
  8 21  1  0  0  0  0
  9 18  1  0  0  0  0
 10  1  1  0  0  0  0
 13 19  1  0  0  0  0
 13 22  1  0  0  0  0
 17 18  1  0  0  0  0
 17 19  1  0  0  0  0
 18 14  1  0  0  0  0
 18 11  1  0  0  0  0
 21  3  1  0  0  0  0
 22 15  1  0  0  0  0
 23 21  1  0  0  0  0
 24 25  2  0  0  0  0
 25 26  2  0  0  0  0
 26 27  1  0  0  0  0
 26 23  1  0  0  0  0
 29 24  1  0  0  0  0
 30 28  1  0  0  0  0
 30 29  1  0  0  0  0
 31 34  1  0  0  0  0
 31 32  1  0  0  0  0
 32 33  1  0  0  0  0
 33 29  1  0  0  0  0
 34 30  1  0  0  0  0
M  END
>  <MODEL>
3

>  <REMARK>
 VINA RESULT:      -3.1      2.988      6.046
  Name = 
  3 active torsions:
  status: ('A' for Active; 'I' for Inactive)
    1  A    between atoms: C_3  and  C_13
    2  A    between atoms: C_5  and  C_18
    3  A    between atoms: C_5  and  C_31
                            x       y       z     vdW  Elec       q    Type
                         _______ _______ _______ _____ _____    ______ ____

>  <TORSDO>
F 3

$$$$
=
 OpenBabel11062408093D

 34 38  0  0  1  0  0  0  0  0999 V2000
  159.5190  213.5480  150.9410 C   0  0  2  0  0  3  0  0  0  0  0  0
  161.4010  212.1340  150.0770 C   0  0  1  0  0  3  0  0  0  0  0  0
  159.8820  211.4550  152.1080 C   0  0  2  0  0  3  0  0  0  0  0  0
  160.0030  213.7800  148.7470 C   0  0  0  0  0  2  0  0  0  0  0  0
  158.4500  211.1170  154.2130 C   0  0  1  0  0  3  0  0  0  0  0  0
  157.6960  210.5470  156.4350 O   0  0  0  0  0  1  0  0  0  0  0  0
  160.6530  212.3690  148.7650 C   0  0  0  0  0  2  0  0  0  0  0  0
  161.2210  209.7450  150.8880 C   0  0  0  0  0  2  0  0  0  0  0  0
  160.2610  210.2490  156.8180 O   0  0  0  0  0  1  0  0  0  0  0  0
  160.5900  212.5520  151.3140 C   0  0  2  0  0  3  0  0  0  0  0  0
  160.0500  212.4740  157.1670 F   0  0  0  0  0  0  0  0  0  0  0  0
  160.0230  214.4530  149.9980 O   0  0  0  0  0  0  0  0  0  0  0  0
  159.3140  212.1380  153.4070 C   0  0  1  0  0  0  0  0  0  0  0  0
  158.4810  211.4460  155.7040 C   0  0  1  0  0  3  0  0  0  0  0  0
  159.0850  214.1880  152.2450 C   0  0  0  0  0  2  0  0  0  0  0  0
  162.0940  210.7780  150.1920 C   0  0  0  0  0  2  0  0  0  0  0  0
  160.9120  211.7350  155.0820 C   0  0  0  0  0  2  0  0  0  0  0  0
  159.9300  211.4690  156.2250 C   0  0  2  0  0  0  0  0  0  0  0  0
  160.3830  212.6870  154.1870 O   0  0  0  0  0  0  0  0  0  0  0  0
  157.0280  210.9720  153.6800 C   0  0  0  0  0  1  0  0  0  0  0  0
  160.8080  210.2320  152.2770 C   0  0  2  0  0  3  0  0  0  0  0  0
  158.4380  213.2140  153.0470 O   0  0  0  0  0  0  0  0  0  0  0  0
  160.1120  209.0730  152.9850 C   0  0  0  0  0  2  0  0  0  0  0  0
  160.7730  206.2040  150.9110 C   0  0  0  0  0  3  0  0  0  0  0  0
  160.8580  207.0130  151.9290 C   0  0  0  0  0  0  0  0  0  0  0  0
  160.9380  207.8290  152.9440 C   0  0  0  0  0  0  0  0  0  0  0  0
  161.9440  207.5790  154.0090 C   0  0  0  0  0  1  0  0  0  0  0  0
  162.2740  205.9830  148.2970 C   0  0  0  0  0  1  0  0  0  0  0  0
  161.8500  205.1930  150.6600 C   0  0  2  0  0  3  0  0  0  0  0  0
  161.9580  204.7910  149.1820 C   0  0  1  0  0  3  0  0  0  0  0  0
  160.5420  202.4650  149.5150 S   0  0  0  0  0  0  0  0  0  0  0  0
  160.3900  203.1910  151.1790 C   0  0  0  0  0  2  0  0  0  0  0  0
  161.6540  203.9630  151.5470 C   0  0  0  0  0  2  0  0  0  0  0  0
  160.7010  204.0820  148.6910 C   0  0  0  0  0  2  0  0  0  0  0  0
  1 10  1  0  0  0  0
  1 15  1  1  0  0  0
  2  7  1  6  0  0  0
  2 16  1  0  0  0  0
  2 10  1  0  0  0  0
  3 21  1  0  0  0  0
  3 13  1  0  0  0  0
  4  7  1  0  0  0  0
  4 12  1  0  0  0  0
  5 14  1  0  0  0  0
  8 21  1  0  0  0  0
 10  3  1  0  0  0  0
 12  1  1  0  0  0  0
 13 19  1  0  0  0  0
 13  5  1  0  0  0  0
 14 18  1  0  0  0  0
 14  6  1  0  0  0  0
 15 22  1  0  0  0  0
 16  8  1  0  0  0  0
 17 18  1  0  0  0  0
 18  9  1  0  0  0  0
 18 11  1  0  0  0  0
 19 17  1  0  0  0  0
 20  5  1  0  0  0  0
 21 23  1  0  0  0  0
 22 13  1  0  0  0  0
 24 25  2  0  0  0  0
 25 26  2  0  0  0  0
 26 23  1  0  0  0  0
 26 27  1  0  0  0  0
 28 30  1  0  0  0  0
 29 24  1  0  0  0  0
 29 33  1  0  0  0  0
 30 29  1  0  0  0  0
 31 32  1  0  0  0  0
 32 33  1  0  0  0  0
 34 30  1  0  0  0  0
 34 31  1  0  0  0  0
M  END
>  <MODEL>
4

>  <REMARK>
 VINA RESULT:      -3.0      1.889      2.371
  Name = 
  3 active torsions:
  status: ('A' for Active; 'I' for Inactive)
    1  A    between atoms: C_3  and  C_13
    2  A    between atoms: C_5  and  C_18
    3  A    between atoms: C_5  and  C_31
                            x       y       z     vdW  Elec       q    Type
                         _______ _______ _______ _____ _____    ______ ____

>  <TORSDO>
F 3

$$$$
