=
 OpenBabel11062407463D

 34 39  0  0  1  0  0  0  0  0999 V2000
  161.1210  205.1970  151.6760 C   0  0  0  0  0  0  0  0  0  0  0  0
  161.6090  206.9420  150.0680 C   0  0  0  0  0  0  0  0  0  0  0  0
  161.1490  207.5450  152.4070 C   0  0  0  0  0  0  0  0  0  0  0  0
  160.8070  210.1560  152.5730 C   0  0  2  0  0  0  0  0  0  0  0  0
  161.5970  204.6670  149.3770 C   0  0  0  0  0  3  0  0  0  0  0  0
  161.7080  209.9650  155.8800 C   0  0  1  0  0  3  0  0  0  0  0  0
  161.7440  205.9910  149.1050 N   0  0  0  0  0  0  0  0  0  0  0  0
  162.2260  209.2130  150.8610 C   0  0  1  0  0  3  0  0  0  0  0  0
  162.2870  207.7180  156.4950 O   0  0  0  0  0  1  0  0  0  0  0  0
  161.2920  206.5690  151.3890 C   0  0  0  0  0  0  0  0  0  0  0  0
  160.9610  210.7450  154.9620 O   0  0  0  0  0  0  0  0  0  0  0  0
  160.8980  211.1490  151.4290 C   0  0  0  0  0  2  0  0  0  0  0  0
  161.2810  204.2460  150.6680 C   0  0  0  0  0  3  0  0  0  0  0  0
  160.7900  207.1010  153.7120 C   0  0  0  0  0  0  0  0  0  0  0  0
  161.8900  208.5160  155.4200 C   0  0  1  0  0  3  0  0  0  0  0  0
  160.7840  204.7900  152.9620 C   0  0  0  0  0  3  0  0  0  0  0  0
  161.6990  208.3840  149.6870 C   0  0  0  0  0  2  0  0  0  0  0  0
  159.3290  209.9540  152.8890 C   0  0  0  0  0  1  0  0  0  0  0  0
  161.6320  210.7580  153.7250 C   0  0  0  0  0  2  0  0  0  0  0  0
  160.5730  208.0090  154.8690 C   0  0  0  0  0  2  0  0  0  0  0  0
  162.1050  210.7170  150.6240 C   0  0  2  0  0  3  0  0  0  0  0  0
  161.4420  208.9320  152.0640 N   0  0  0  0  0  0  0  0  0  0  0  0
  160.6170  205.7370  153.9680 C   0  0  0  0  0  3  0  0  0  0  0  0
  163.0370  210.6140  156.2640 C   0  0  0  0  0  2  0  0  0  0  0  0
  162.8050  211.7370  157.2570 C   0  0  0  0  0  1  0  0  0  0  0  0
  161.9410  211.0510  149.2760 O   0  0  0  0  0  0  0  0  0  0  0  0
  161.3760  212.2680  149.2940 O   0  0  0  0  0  0  0  0  0  0  0  0
  163.4330  213.5280  147.8980 F   0  0  0  0  0  0  0  0  0  0  0  0
  161.1390  212.9780  148.1160 C   0  0  0  0  0  0  0  0  0  0  0  0
  162.2930  213.2340  147.1740 C   0  0  1  0  0  3  0  0  0  0  0  0
  160.7570  214.0450  145.5540 C   0  0  0  0  0  2  0  0  0  0  0  0
  159.6040  214.1510  146.5470 C   0  0  0  0  0  2  0  0  0  0  0  0
  159.8960  213.3630  147.7910 C   0  0  0  0  0  3  0  0  0  0  0  0
  162.0110  214.3320  146.2450 N   0  0  0  0  0  2  0  0  0  0  0  0
  1 16  1  0  0  0  0
  2 10  1  0  0  0  0
  3 14  2  0  0  0  0
  4 18  1  1  0  0  0
  4 19  1  0  0  0  0
  5 13  2  0  0  0  0
  6 24  1  6  0  0  0
  7  5  1  0  0  0  0
  7  2  2  0  0  0  0
  8 17  1  6  0  0  0
  8 22  1  0  0  0  0
 10  1  2  0  0  0  0
 10  3  1  0  0  0  0
 11  6  1  0  0  0  0
 12  4  1  0  0  0  0
 13  1  1  0  0  0  0
 14 23  1  0  0  0  0
 14 20  1  0  0  0  0
 15  6  1  0  0  0  0
 15  9  1  1  0  0  0
 16 23  2  0  0  0  0
 17  2  1  0  0  0  0
 19 11  1  0  0  0  0
 20 15  1  0  0  0  0
 21 26  1  6  0  0  0
 21  8  1  0  0  0  0
 21 12  1  0  0  0  0
 22  3  1  0  0  0  0
 22  4  1  0  0  0  0
 24 25  1  0  0  0  0
 26 27  1  0  0  0  0
 29 27  1  0  0  0  0
 30 28  1  1  0  0  0
 30 29  1  0  0  0  0
 31 34  1  0  0  0  0
 31 32  1  0  0  0  0
 32 33  1  0  0  0  0
 33 29  2  0  0  0  0
 34 30  1  0  0  0  0
M  END
>  <MODEL>
1

>  <REMARK>
 VINA RESULT:      -7.0      0.000      0.000
  Name = 
  4 active torsions:
  status: ('A' for Active; 'I' for Inactive)
    1  A    between atoms: O_3  and  C_13
    2  A    between atoms: O_3  and  O_17
    3  A    between atoms: C_7  and  C_8
    4  A    between atoms: O_17  and  C_29
                            x       y       z     vdW  Elec       q    Type
                         _______ _______ _______ _____ _____    ______ ____

>  <TORSDO>
F 4

$$$$
=
 OpenBabel11062407463D

 34 39  0  0  1  0  0  0  0  0999 V2000
  160.7450  212.9470  150.0590 C   0  0  0  0  0  0  0  0  0  0  0  0
  161.5170  210.6720  150.3740 C   0  0  0  0  0  0  0  0  0  0  0  0
  160.2220  211.7680  152.1540 C   0  0  0  0  0  0  0  0  0  0  0  0
  160.3590  210.3070  154.3460 C   0  0  2  0  0  0  0  0  0  0  0  0
  162.0010  211.8140  148.3450 C   0  0  0  0  0  3  0  0  0  0  0  0
  157.4110  211.7390  155.3670 C   0  0  1  0  0  3  0  0  0  0  0  0
  162.0870  210.7150  149.1400 N   0  0  0  0  0  0  0  0  0  0  0  0
  160.5280  209.2710  152.1700 C   0  0  1  0  0  3  0  0  0  0  0  0
  156.5620  213.2550  153.7120 O   0  0  0  0  0  1  0  0  0  0  0  0
  160.8250  211.7940  150.8710 C   0  0  0  0  0  0  0  0  0  0  0  0
  158.5880  211.1180  155.8570 O   0  0  0  0  0  0  0  0  0  0  0  0
  161.0920  208.9860  154.5020 C   0  0  0  0  0  2  0  0  0  0  0  0
  161.3290  212.9520  148.7920 C   0  0  0  0  0  3  0  0  0  0  0  0
  159.5720  212.9510  152.6090 C   0  0  0  0  0  0  0  0  0  0  0  0
  157.5970  212.3570  153.9790 C   0  0  1  0  0  3  0  0  0  0  0  0
  160.0910  214.0820  150.5230 C   0  0  0  0  0  3  0  0  0  0  0  0
  161.7210  209.4650  151.2310 C   0  0  0  0  0  2  0  0  0  0  0  0
  161.2010  211.3820  155.0250 C   0  0  0  0  0  1  0  0  0  0  0  0
  158.9670  210.0950  154.9670 C   0  0  0  0  0  2  0  0  0  0  0  0
  158.9250  213.0840  153.9410 C   0  0  0  0  0  2  0  0  0  0  0  0
  160.7840  208.2100  153.2390 C   0  0  2  0  0  3  0  0  0  0  0  0
  160.2540  210.5120  152.8940 N   0  0  0  0  0  0  0  0  0  0  0  0
  159.5150  214.0830  151.7890 C   0  0  0  0  0  3  0  0  0  0  0  0
  156.1910  210.8210  155.4260 C   0  0  0  0  0  2  0  0  0  0  0  0
  155.2680  211.2470  156.5520 C   0  0  0  0  0  1  0  0  0  0  0  0
  161.8400  207.3510  152.9220 O   0  0  0  0  0  0  0  0  0  0  0  0
  161.2650  206.1470  152.7730 O   0  0  0  0  0  0  0  0  0  0  0  0
  161.2470  203.3690  152.5450 F   0  0  0  0  0  0  0  0  0  0  0  0
  161.2210  205.5100  151.5320 C   0  0  0  0  0  0  0  0  0  0  0  0
  160.7520  204.0760  151.4650 C   0  0  1  0  0  3  0  0  0  0  0  0
  160.7140  204.2240  149.0950 C   0  0  0  0  0  2  0  0  0  0  0  0
  161.5070  205.5270  149.0600 C   0  0  0  0  0  2  0  0  0  0  0  0
  161.5180  206.1830  150.4110 C   0  0  0  0  0  3  0  0  0  0  0  0
  161.1700  203.4180  150.2230 N   0  0  0  0  0  2  0  0  0  0  0  0
  1 16  2  0  0  0  0
  1 10  1  0  0  0  0
  2 10  1  0  0  0  0
  2 17  1  0  0  0  0
  3 14  1  0  0  0  0
  3 22  1  0  0  0  0
  4 12  1  0  0  0  0
  4 19  1  0  0  0  0
  4 18  1  1  0  0  0
  5 13  2  0  0  0  0
  5  7  1  0  0  0  0
  6 24  1  6  0  0  0
  6 11  1  0  0  0  0
  7  2  2  0  0  0  0
  8 17  1  6  0  0  0
  8 22  1  0  0  0  0
  8 21  1  0  0  0  0
 10  3  2  0  0  0  0
 13  1  1  0  0  0  0
 14 20  1  0  0  0  0
 15  9  1  1  0  0  0
 15  6  1  0  0  0  0
 16 23  1  0  0  0  0
 19 11  1  0  0  0  0
 20 15  1  0  0  0  0
 21 26  1  6  0  0  0
 21 12  1  0  0  0  0
 22  4  1  0  0  0  0
 23 14  2  0  0  0  0
 24 25  1  0  0  0  0
 27 26  1  0  0  0  0
 29 27  1  0  0  0  0
 30 29  1  0  0  0  0
 30 28  1  1  0  0  0
 31 34  1  0  0  0  0
 32 31  1  0  0  0  0
 32 33  1  0  0  0  0
 33 29  2  0  0  0  0
 34 30  1  0  0  0  0
M  END
>  <MODEL>
2

>  <REMARK>
 VINA RESULT:      -6.9      3.219      6.827
  Name = 
  4 active torsions:
  status: ('A' for Active; 'I' for Inactive)
    1  A    between atoms: O_3  and  C_13
    2  A    between atoms: O_3  and  O_17
    3  A    between atoms: C_7  and  C_8
    4  A    between atoms: O_17  and  C_29
                            x       y       z     vdW  Elec       q    Type
                         _______ _______ _______ _____ _____    ______ ____

>  <TORSDO>
F 4

$$$$
=
 OpenBabel11062407463D

 34 39  0  0  1  0  0  0  0  0999 V2000
  161.6100  211.1160  149.8110 C   0  0  0  0  0  0  0  0  0  0  0  0
  161.9110  208.7950  150.4350 C   0  0  0  0  0  0  0  0  0  0  0  0
  160.9440  210.3690  152.0580 C   0  0  0  0  0  0  0  0  0  0  0  0
  160.8700  209.2220  154.4330 C   0  0  2  0  0  0  0  0  0  0  0  0
  162.5330  209.5250  148.2590 C   0  0  0  0  0  3  0  0  0  0  0  0
  158.3240  211.3640  155.2790 C   0  0  1  0  0  3  0  0  0  0  0  0
  162.4250  208.5490  149.2000 N   0  0  0  0  0  0  0  0  0  0  0  0
  160.7310  207.8880  152.4230 C   0  0  1  0  0  3  0  0  0  0  0  0
  157.7360  212.7860  153.4360 O   0  0  0  0  0  1  0  0  0  0  0  0
  161.4850  210.0940  150.7770 C   0  0  0  0  0  0  0  0  0  0  0  0
  159.3690  210.5840  155.8360 O   0  0  0  0  0  0  0  0  0  0  0  0
  161.3230  207.8120  154.7650 C   0  0  0  0  0  2  0  0  0  0  0  0
  162.1280  210.8270  148.5490 C   0  0  0  0  0  3  0  0  0  0  0  0
  160.5700  211.7120  152.3500 C   0  0  0  0  0  0  0  0  0  0  0  0
  158.5740  211.7360  153.8150 C   0  0  1  0  0  3  0  0  0  0  0  0
  161.2230  212.4160  150.1180 C   0  0  0  0  0  3  0  0  0  0  0  0
  161.8980  207.7000  151.4510 C   0  0  0  0  0  2  0  0  0  0  0  0
  161.9420  210.1800  154.9420 C   0  0  0  0  0  1  0  0  0  0  0  0
  159.4910  209.3930  155.0960 C   0  0  0  0  0  2  0  0  0  0  0  0
  160.0220  212.1570  153.6580 C   0  0  0  0  0  2  0  0  0  0  0  0
  160.8090  206.9530  153.6290 C   0  0  2  0  0  3  0  0  0  0  0  0
  160.7490  209.2460  152.9690 N   0  0  0  0  0  0  0  0  0  0  0  0
  160.7130  212.7080  151.3790 C   0  0  0  0  0  3  0  0  0  0  0  0
  156.9450  210.7390  155.4830 C   0  0  0  0  0  2  0  0  0  0  0  0
  156.1860  211.4830  156.5640 C   0  0  0  0  0  1  0  0  0  0  0  0
  161.6510  205.8570  153.4230 O   0  0  0  0  0  0  0  0  0  0  0  0
  160.8360  204.8750  153.0080 O   0  0  0  0  0  0  0  0  0  0  0  0
  161.6280  202.2190  152.7080 F   0  0  0  0  0  0  0  0  0  0  0  0
  160.9850  204.2890  151.7500 C   0  0  0  0  0  0  0  0  0  0  0  0
  160.9550  202.7820  151.6400 C   0  0  1  0  0  3  0  0  0  0  0  0
  160.8870  202.9810  149.2740 C   0  0  0  0  0  2  0  0  0  0  0  0
  161.2680  204.4590  149.2830 C   0  0  0  0  0  2  0  0  0  0  0  0
  161.0800  205.0500  150.6510 C   0  0  0  0  0  3  0  0  0  0  0  0
  161.5520  202.3100  150.3870 N   0  0  0  0  0  2  0  0  0  0  0  0
  1 16  2  0  0  0  0
  1 10  1  0  0  0  0
  2 10  1  0  0  0  0
  2 17  1  0  0  0  0
  3 14  1  0  0  0  0
  3 22  1  0  0  0  0
  4 12  1  0  0  0  0
  4 18  1  1  0  0  0
  4 19  1  0  0  0  0
  5 13  2  0  0  0  0
  5  7  1  0  0  0  0
  6 24  1  6  0  0  0
  6 11  1  0  0  0  0
  7  2  2  0  0  0  0
  8 17  1  6  0  0  0
  8 22  1  0  0  0  0
  8 21  1  0  0  0  0
 10  3  2  0  0  0  0
 13  1  1  0  0  0  0
 14 20  1  0  0  0  0
 15  9  1  1  0  0  0
 15  6  1  0  0  0  0
 16 23  1  0  0  0  0
 19 11  1  0  0  0  0
 20 15  1  0  0  0  0
 21 26  1  6  0  0  0
 21 12  1  0  0  0  0
 22  4  1  0  0  0  0
 23 14  2  0  0  0  0
 24 25  1  0  0  0  0
 27 26  1  0  0  0  0
 29 27  1  0  0  0  0
 30 29  1  0  0  0  0
 30 28  1  1  0  0  0
 31 32  1  0  0  0  0
 31 34  1  0  0  0  0
 32 33  1  0  0  0  0
 33 29  2  0  0  0  0
 34 30  1  0  0  0  0
M  END
>  <MODEL>
3

>  <REMARK>
 VINA RESULT:      -5.3      3.356      6.726
  Name = 
  4 active torsions:
  status: ('A' for Active; 'I' for Inactive)
    1  A    between atoms: O_3  and  C_13
    2  A    between atoms: O_3  and  O_17
    3  A    between atoms: C_7  and  C_8
    4  A    between atoms: O_17  and  C_29
                            x       y       z     vdW  Elec       q    Type
                         _______ _______ _______ _____ _____    ______ ____

>  <TORSDO>
F 4

$$$$
=
 OpenBabel11062407463D

 34 39  0  0  1  0  0  0  0  0999 V2000
  159.9980  209.2720  156.1710 C   0  0  0  0  0  0  0  0  0  0  0  0
  159.5460  211.2440  154.8400 C   0  0  0  0  0  0  0  0  0  0  0  0
  160.6950  209.3290  153.8130 C   0  0  0  0  0  0  0  0  0  0  0  0
  161.6630  210.0590  151.4690 C   0  0  2  0  0  0  0  0  0  0  0  0
  158.8600  211.1710  157.1150 C   0  0  0  0  0  3  0  0  0  0  0  0
  161.5870  206.7600  150.5220 C   0  0  1  0  0  3  0  0  0  0  0  0
  158.9610  211.8190  155.9250 N   0  0  0  0  0  0  0  0  0  0  0  0
  159.6860  211.1210  152.3640 C   0  0  1  0  0  3  0  0  0  0  0  0
  160.6740  205.3770  152.2590 O   0  0  0  0  0  1  0  0  0  0  0  0
  160.0840  209.9460  154.9330 C   0  0  0  0  0  0  0  0  0  0  0  0
  162.2440  207.9890  150.2620 O   0  0  0  0  0  0  0  0  0  0  0  0
  161.5250  211.4270  150.8260 C   0  0  0  0  0  2  0  0  0  0  0  0
  159.3790  209.8850  157.2600 C   0  0  0  0  0  3  0  0  0  0  0  0
  161.2530  208.0300  153.9880 C   0  0  0  0  0  0  0  0  0  0  0  0
  160.9670  206.7000  151.9200 C   0  0  1  0  0  3  0  0  0  0  0  0
  160.5380  207.9980  156.3100 C   0  0  0  0  0  3  0  0  0  0  0  0
  159.7010  212.0420  153.5860 C   0  0  0  0  0  2  0  0  0  0  0  0
  163.0850  209.9460  152.0080 C   0  0  0  0  0  1  0  0  0  0  0  0
  161.3090  209.0360  150.3740 C   0  0  0  0  0  2  0  0  0  0  0  0
  161.9530  207.2740  152.9170 C   0  0  0  0  0  2  0  0  0  0  0  0
  160.0900  211.8400  151.0770 C   0  0  2  0  0  3  0  0  0  0  0  0
  160.6560  210.0400  152.5400 N   0  0  0  0  0  0  0  0  0  0  0  0
  161.1630  207.3880  155.2280 C   0  0  0  0  0  3  0  0  0  0  0  0
  160.5820  206.3850  149.4340 C   0  0  0  0  0  2  0  0  0  0  0  0
  161.0010  205.0970  148.7520 C   0  0  0  0  0  1  0  0  0  0  0  0
  159.9890  213.2310  151.1680 O   0  0  0  0  0  0  0  0  0  0  0  0
  160.2690  213.6730  149.9320 O   0  0  0  0  0  0  0  0  0  0  0  0
  161.1710  213.4290  147.3060 F   0  0  0  0  0  0  0  0  0  0  0  0
  159.3900  213.4650  148.8680 C   0  0  0  0  0  0  0  0  0  0  0  0
  159.9280  212.8880  147.5800 C   0  0  1  0  0  3  0  0  0  0  0  0
  157.7030  212.6390  146.7910 C   0  0  0  0  0  2  0  0  0  0  0  0
  157.1050  213.5190  147.8840 C   0  0  0  0  0  2  0  0  0  0  0  0
  158.0790  213.7050  149.0120 C   0  0  0  0  0  3  0  0  0  0  0  0
  159.0310  213.1380  146.4480 N   0  0  0  0  0  2  0  0  0  0  0  0
  1 16  1  0  0  0  0
  1 13  2  0  0  0  0
  2 10  2  0  0  0  0
  2  7  1  0  0  0  0
  3 14  2  0  0  0  0
  3 10  1  0  0  0  0
  4 18  1  1  0  0  0
  4 22  1  0  0  0  0
  5 13  1  0  0  0  0
  6 24  1  6  0  0  0
  6 15  1  0  0  0  0
  7  5  2  0  0  0  0
  8 22  1  0  0  0  0
  8 17  1  1  0  0  0
 10  1  1  0  0  0  0
 11 19  1  0  0  0  0
 11  6  1  0  0  0  0
 12 21  1  0  0  0  0
 12  4  1  0  0  0  0
 14 23  1  0  0  0  0
 15  9  1  1  0  0  0
 15 20  1  0  0  0  0
 17  2  1  0  0  0  0
 19  4  1  0  0  0  0
 20 14  1  0  0  0  0
 21 26  1  1  0  0  0
 21  8  1  0  0  0  0
 22  3  1  0  0  0  0
 23 16  2  0  0  0  0
 25 24  1  0  0  0  0
 27 26  1  0  0  0  0
 29 33  2  0  0  0  0
 29 27  1  0  0  0  0
 30 28  1  6  0  0  0
 30 29  1  0  0  0  0
 31 32  1  0  0  0  0
 32 33  1  0  0  0  0
 34 31  1  0  0  0  0
 34 30  1  0  0  0  0
M  END
>  <MODEL>
4

>  <REMARK>
 VINA RESULT:      -5.2      2.352      5.087
  Name = 
  4 active torsions:
  status: ('A' for Active; 'I' for Inactive)
    1  A    between atoms: O_3  and  C_13
    2  A    between atoms: O_3  and  O_17
    3  A    between atoms: C_7  and  C_8
    4  A    between atoms: O_17  and  C_29
                            x       y       z     vdW  Elec       q    Type
                         _______ _______ _______ _____ _____    ______ ____

>  <TORSDO>
F 4

$$$$
=
 OpenBabel11062407463D

 34 39  0  0  1  0  0  0  0  0999 V2000
  159.9080  209.2710  155.8160 C   0  0  0  0  0  0  0  0  0  0  0  0
  159.6230  211.2640  154.4680 C   0  0  0  0  0  0  0  0  0  0  0  0
  160.7260  209.2930  153.4970 C   0  0  0  0  0  0  0  0  0  0  0  0
  161.8470  209.9730  151.2070 C   0  0  2  0  0  0  0  0  0  0  0  0
  158.8200  211.2250  156.7060 C   0  0  0  0  0  3  0  0  0  0  0  0
  161.6540  206.6820  150.2490 C   0  0  1  0  0  3  0  0  0  0  0  0
  159.0130  211.8680  155.5240 N   0  0  0  0  0  0  0  0  0  0  0  0
  159.8830  211.1340  152.0020 C   0  0  1  0  0  3  0  0  0  0  0  0
  160.5860  205.3470  151.9340 O   0  0  0  0  0  1  0  0  0  0  0  0
  160.0900  209.9400  154.5860 C   0  0  0  0  0  0  0  0  0  0  0  0
  162.3840  207.8770  150.0250 O   0  0  0  0  0  0  0  0  0  0  0  0
  161.8100  211.3460  150.5610 C   0  0  0  0  0  2  0  0  0  0  0  0
  159.2660  209.9150  156.8740 C   0  0  0  0  0  3  0  0  0  0  0  0
  161.2080  207.9680  153.6970 C   0  0  0  0  0  0  0  0  0  0  0  0
  160.9620  206.6530  151.6130 C   0  0  1  0  0  3  0  0  0  0  0  0
  160.3760  207.9720  155.9790 C   0  0  0  0  0  3  0  0  0  0  0  0
  159.8810  212.0530  153.2260 C   0  0  0  0  0  2  0  0  0  0  0  0
  163.2330  209.7900  151.8160 C   0  0  0  0  0  1  0  0  0  0  0  0
  161.4990  208.9700  150.0920 C   0  0  0  0  0  2  0  0  0  0  0  0
  161.9230  207.1780  152.6610 C   0  0  0  0  0  2  0  0  0  0  0  0
  160.3870  211.8310  150.7400 C   0  0  2  0  0  3  0  0  0  0  0  0
  160.7870  210.0060  152.2250 N   0  0  0  0  0  0  0  0  0  0  0  0
  161.0240  207.3310  154.9280 C   0  0  0  0  0  3  0  0  0  0  0  0
  160.6880  206.3580  149.1100 C   0  0  0  0  0  2  0  0  0  0  0  0
  161.1880  205.1630  148.3210 C   0  0  0  0  0  1  0  0  0  0  0  0
  160.3520  213.2260  150.8280 O   0  0  0  0  0  0  0  0  0  0  0  0
  159.8160  213.6260  149.6650 O   0  0  0  0  0  0  0  0  0  0  0  0
  159.2300  212.2650  147.3050 F   0  0  0  0  0  0  0  0  0  0  0  0
  160.5960  213.7740  148.5170 C   0  0  0  0  0  0  0  0  0  0  0  0
  159.9990  213.4060  147.1790 C   0  0  1  0  0  3  0  0  0  0  0  0
  161.8860  214.3670  146.1020 C   0  0  0  0  0  2  0  0  0  0  0  0
  162.7060  214.4510  147.3860 C   0  0  0  0  0  2  0  0  0  0  0  0
  161.8260  214.3010  148.5930 C   0  0  0  0  0  3  0  0  0  0  0  0
  161.0290  213.1860  146.1600 N   0  0  0  0  0  2  0  0  0  0  0  0
  1 16  1  0  0  0  0
  1 13  2  0  0  0  0
  2 10  2  0  0  0  0
  2  7  1  0  0  0  0
  3 14  2  0  0  0  0
  3 10  1  0  0  0  0
  4 18  1  1  0  0  0
  4 22  1  0  0  0  0
  5 13  1  0  0  0  0
  6 24  1  6  0  0  0
  6 15  1  0  0  0  0
  7  5  2  0  0  0  0
  8 22  1  0  0  0  0
  8 17  1  1  0  0  0
 10  1  1  0  0  0  0
 11 19  1  0  0  0  0
 11  6  1  0  0  0  0
 12 21  1  0  0  0  0
 12  4  1  0  0  0  0
 14 23  1  0  0  0  0
 15  9  1  1  0  0  0
 15 20  1  0  0  0  0
 17  2  1  0  0  0  0
 19  4  1  0  0  0  0
 20 14  1  0  0  0  0
 21 26  1  1  0  0  0
 21  8  1  0  0  0  0
 22  3  1  0  0  0  0
 23 16  2  0  0  0  0
 25 24  1  0  0  0  0
 27 26  1  0  0  0  0
 29 33  2  0  0  0  0
 29 27  1  0  0  0  0
 30 28  1  1  0  0  0
 30 29  1  0  0  0  0
 31 34  1  0  0  0  0
 31 32  1  0  0  0  0
 32 33  1  0  0  0  0
 34 30  1  0  0  0  0
M  END
>  <MODEL>
5

>  <REMARK>
 VINA RESULT:      -5.2      2.356      5.049
  Name = 
  4 active torsions:
  status: ('A' for Active; 'I' for Inactive)
    1  A    between atoms: O_3  and  C_13
    2  A    between atoms: O_3  and  O_17
    3  A    between atoms: C_7  and  C_8
    4  A    between atoms: O_17  and  C_29
                            x       y       z     vdW  Elec       q    Type
                         _______ _______ _______ _____ _____    ______ ____

>  <TORSDO>
F 4

$$$$
=
 OpenBabel11062407463D

 34 39  0  0  1  0  0  0  0  0999 V2000
  160.9900  202.3360  150.6340 C   0  0  0  0  0  0  0  0  0  0  0  0
  161.0600  204.7450  150.8790 C   0  0  0  0  0  0  0  0  0  0  0  0
  161.2850  203.7490  148.6430 C   0  0  0  0  0  0  0  0  0  0  0  0
  162.0690  205.6100  146.9440 C   0  0  2  0  0  0  0  0  0  0  0  0
  160.7570  203.3710  152.7950 C   0  0  0  0  0  3  0  0  0  0  0  0
  160.6880  203.7430  144.4150 C   0  0  1  0  0  3  0  0  0  0  0  0
  160.8920  204.5950  152.2200 N   0  0  0  0  0  0  0  0  0  0  0  0
  160.7590  206.1970  148.8870 C   0  0  1  0  0  3  0  0  0  0  0  0
  159.6300  201.7660  145.2720 O   0  0  0  0  0  1  0  0  0  0  0  0
  161.1130  203.6120  150.0430 C   0  0  0  0  0  0  0  0  0  0  0  0
  161.6870  204.7150  144.6790 O   0  0  0  0  0  0  0  0  0  0  0  0
  162.3230  207.0710  147.2660 C   0  0  0  0  0  2  0  0  0  0  0  0
  160.8050  202.2180  152.0120 C   0  0  0  0  0  3  0  0  0  0  0  0
  161.3690  202.5610  147.8620 C   0  0  0  0  0  0  0  0  0  0  0  0
  160.3130  202.9230  145.6520 C   0  0  1  0  0  3  0  0  0  0  0  0
  161.0620  201.1930  149.8460 C   0  0  0  0  0  3  0  0  0  0  0  0
  161.2880  206.1130  150.3210 C   0  0  0  0  0  2  0  0  0  0  0  0
  163.4260  204.9280  146.8040 C   0  0  0  0  0  1  0  0  0  0  0  0
  161.2110  205.5990  145.6650 C   0  0  0  0  0  2  0  0  0  0  0  0
  161.5810  202.5450  146.3910 C   0  0  0  0  0  2  0  0  0  0  0  0
  161.1840  207.4810  148.1750 C   0  0  2  0  0  3  0  0  0  0  0  0
  161.3000  205.0980  148.0880 N   0  0  0  0  0  0  0  0  0  0  0  0
  161.2540  201.3080  148.4730 C   0  0  0  0  0  3  0  0  0  0  0  0
  159.4580  204.3320  143.7250 C   0  0  0  0  0  2  0  0  0  0  0  0
  158.2100  203.5780  144.1420 C   0  0  0  0  0  1  0  0  0  0  0  0
  161.5950  208.4880  149.0530 O   0  0  0  0  0  0  0  0  0  0  0  0
  162.1120  209.4400  148.2610 O   0  0  0  0  0  0  0  0  0  0  0  0
  161.7000  210.6450  150.7400 F   0  0  0  0  0  0  0  0  0  0  0  0
  161.7180  210.7740  148.3740 C   0  0  0  0  0  0  0  0  0  0  0  0
  161.9560  211.4950  149.6800 C   0  0  1  0  0  3  0  0  0  0  0  0
  161.3390  213.5370  148.6360 C   0  0  0  0  0  2  0  0  0  0  0  0
  160.7470  212.8510  147.4090 C   0  0  0  0  0  2  0  0  0  0  0  0
  161.2060  211.4240  147.3200 C   0  0  0  0  0  3  0  0  0  0  0  0
  161.1210  212.6930  149.8070 N   0  0  0  0  0  2  0  0  0  0  0  0
  1 13  2  0  0  0  0
  2  7  1  0  0  0  0
  3 10  1  0  0  0  0
  4 18  1  6  0  0  0
  4 12  1  0  0  0  0
  4 22  1  0  0  0  0
  6 24  1  1  0  0  0
  6 11  1  0  0  0  0
  6 15  1  0  0  0  0
  7  5  2  0  0  0  0
  8 17  1  1  0  0  0
 10  1  1  0  0  0  0
 10  2  2  0  0  0  0
 11 19  1  0  0  0  0
 12 21  1  0  0  0  0
 13  5  1  0  0  0  0
 14 23  1  0  0  0  0
 14  3  2  0  0  0  0
 15  9  1  6  0  0  0
 15 20  1  0  0  0  0
 16  1  1  0  0  0  0
 17  2  1  0  0  0  0
 19  4  1  0  0  0  0
 20 14  1  0  0  0  0
 21  8  1  0  0  0  0
 21 26  1  1  0  0  0
 22  3  1  0  0  0  0
 22  8  1  0  0  0  0
 23 16  2  0  0  0  0
 24 25  1  0  0  0  0
 27 29  1  0  0  0  0
 27 26  1  0  0  0  0
 29 30  1  0  0  0  0
 30 34  1  0  0  0  0
 30 28  1  1  0  0  0
 31 34  1  0  0  0  0
 32 31  1  0  0  0  0
 33 32  1  0  0  0  0
 33 29  2  0  0  0  0
M  END
>  <MODEL>
6

>  <REMARK>
 VINA RESULT:      -5.1      3.750      7.304
  Name = 
  4 active torsions:
  status: ('A' for Active; 'I' for Inactive)
    1  A    between atoms: O_3  and  C_13
    2  A    between atoms: O_3  and  O_17
    3  A    between atoms: C_7  and  C_8
    4  A    between atoms: O_17  and  C_29
                            x       y       z     vdW  Elec       q    Type
                         _______ _______ _______ _____ _____    ______ ____

>  <TORSDO>
F 4

$$$$
=
 OpenBabel11062407463D

 34 39  0  0  1  0  0  0  0  0999 V2000
  161.1080  206.4310  153.3740 C   0  0  0  0  0  0  0  0  0  0  0  0
  161.2840  208.6840  152.5010 C   0  0  0  0  0  0  0  0  0  0  0  0
  161.6220  206.7720  150.9930 C   0  0  0  0  0  0  0  0  0  0  0  0
  162.6240  207.6390  148.7110 C   0  0  2  0  0  0  0  0  0  0  0  0
  160.7690  208.3430  154.7970 C   0  0  0  0  0  3  0  0  0  0  0  0
  161.3400  204.8400  147.1960 C   0  0  1  0  0  3  0  0  0  0  0  0
  161.0100  209.1670  153.7430 N   0  0  0  0  0  0  0  0  0  0  0  0
  161.2060  209.0670  150.0490 C   0  0  1  0  0  3  0  0  0  0  0  0
  160.1210  203.4870  148.7600 O   0  0  0  0  0  1  0  0  0  0  0  0
  161.3410  207.2940  152.2800 C   0  0  0  0  0  0  0  0  0  0  0  0
  162.3650  205.8120  147.0770 O   0  0  0  0  0  0  0  0  0  0  0  0
  162.9290  209.0830  148.3540 C   0  0  0  0  0  2  0  0  0  0  0  0
  160.8160  206.9590  154.6310 C   0  0  0  0  0  3  0  0  0  0  0  0
  161.7020  205.3570  150.8490 C   0  0  0  0  0  0  0  0  0  0  0  0
  160.8330  204.6810  148.6320 C   0  0  1  0  0  3  0  0  0  0  0  0
  161.1780  205.0540  153.2020 C   0  0  0  0  0  3  0  0  0  0  0  0
  161.6230  209.6410  151.4050 C   0  0  0  0  0  2  0  0  0  0  0  0
  163.9510  206.9530  149.0190 C   0  0  0  0  0  1  0  0  0  0  0  0
  161.8640  207.0550  147.5070 C   0  0  0  0  0  2  0  0  0  0  0  0
  162.0220  204.6680  149.5720 C   0  0  0  0  0  2  0  0  0  0  0  0
  161.7490  209.8770  148.8720 C   0  0  2  0  0  3  0  0  0  0  0  0
  161.7480  207.7180  149.8890 N   0  0  0  0  0  0  0  0  0  0  0  0
  161.4780  204.5250  151.9500 C   0  0  0  0  0  3  0  0  0  0  0  0
  160.1970  205.0620  146.2070 C   0  0  0  0  0  2  0  0  0  0  0  0
  160.7010  204.9260  144.7830 C   0  0  0  0  0  1  0  0  0  0  0  0
  162.1450  211.1700  149.2290 O   0  0  0  0  0  0  0  0  0  0  0  0
  161.1890  211.9680  148.7300 O   0  0  0  0  0  0  0  0  0  0  0  0
  163.0790  213.8040  147.8210 F   0  0  0  0  0  0  0  0  0  0  0  0
  161.2190  212.3980  147.4020 C   0  0  0  0  0  0  0  0  0  0  0  0
  162.4940  213.0020  146.8610 C   0  0  1  0  0  3  0  0  0  0  0  0
  161.5590  212.9530  144.6780 C   0  0  0  0  0  2  0  0  0  0  0  0
  160.1430  212.6840  145.1770 C   0  0  0  0  0  2  0  0  0  0  0  0
  160.1600  212.2120  146.6030 C   0  0  0  0  0  3  0  0  0  0  0  0
  162.2560  213.7910  145.6490 N   0  0  0  0  0  2  0  0  0  0  0  0
  1 13  2  0  0  0  0
  2  7  1  0  0  0  0
  3 10  1  0  0  0  0
  4 18  1  1  0  0  0
  4 22  1  0  0  0  0
  6 24  1  6  0  0  0
  6 15  1  0  0  0  0
  7  5  2  0  0  0  0
  8 17  1  1  0  0  0
 10  2  2  0  0  0  0
 10  1  1  0  0  0  0
 11  6  1  0  0  0  0
 11 19  1  0  0  0  0
 12  4  1  0  0  0  0
 12 21  1  0  0  0  0
 13  5  1  0  0  0  0
 14  3  2  0  0  0  0
 14 23  1  0  0  0  0
 15  9  1  6  0  0  0
 15 20  1  0  0  0  0
 16  1  1  0  0  0  0
 17  2  1  0  0  0  0
 19  4  1  0  0  0  0
 20 14  1  0  0  0  0
 21 26  1  1  0  0  0
 21  8  1  0  0  0  0
 22  8  1  0  0  0  0
 22  3  1  0  0  0  0
 23 16  2  0  0  0  0
 25 24  1  0  0  0  0
 27 26  1  0  0  0  0
 29 27  1  0  0  0  0
 30 29  1  0  0  0  0
 30 28  1  1  0  0  0
 31 32  1  0  0  0  0
 31 34  1  0  0  0  0
 32 33  1  0  0  0  0
 33 29  2  0  0  0  0
 34 30  1  0  0  0  0
M  END
>  <MODEL>
7

>  <REMARK>
 VINA RESULT:      -4.8      2.327      5.494
  Name = 
  4 active torsions:
  status: ('A' for Active; 'I' for Inactive)
    1  A    between atoms: O_3  and  C_13
    2  A    between atoms: O_3  and  O_17
    3  A    between atoms: C_7  and  C_8
    4  A    between atoms: O_17  and  C_29
                            x       y       z     vdW  Elec       q    Type
                         _______ _______ _______ _____ _____    ______ ____

>  <TORSDO>
F 4

$$$$
=
 OpenBabel11062407463D

 34 39  0  0  1  0  0  0  0  0999 V2000
  160.7640  213.2870  143.2760 C   0  0  0  0  0  0  0  0  0  0  0  0
  158.6580  213.7950  142.1930 C   0  0  0  0  0  0  0  0  0  0  0  0
  160.3980  212.5840  140.9480 C   0  0  0  0  0  0  0  0  0  0  0  0
  159.7340  212.5020  138.3950 C   0  0  2  0  0  0  0  0  0  0  0  0
  159.0160  214.4530  144.4500 C   0  0  0  0  0  3  0  0  0  0  0  0
  161.6980  209.7050  138.0760 C   0  0  1  0  0  3  0  0  0  0  0  0
  158.2370  214.3970  143.3370 N   0  0  0  0  0  0  0  0  0  0  0  0
  158.0280  212.6110  140.1030 C   0  0  1  0  0  3  0  0  0  0  0  0
  162.6590  209.0710  140.1820 O   0  0  0  0  0  1  0  0  0  0  0  0
  159.9420  213.2180  142.1310 C   0  0  0  0  0  0  0  0  0  0  0  0
  161.1640  210.7940  137.3400 O   0  0  0  0  0  0  0  0  0  0  0  0
  158.4760  213.0810  137.7750 C   0  0  0  0  0  2  0  0  0  0  0  0
  160.2960  213.9000  144.4380 C   0  0  0  0  0  3  0  0  0  0  0  0
  161.7210  212.0560  140.9420 C   0  0  0  0  0  0  0  0  0  0  0  0
  161.8040  209.9930  139.5750 C   0  0  1  0  0  3  0  0  0  0  0  0
  162.0470  212.7510  143.2470 C   0  0  0  0  0  3  0  0  0  0  0  0
  157.7870  213.8420  140.9800 C   0  0  0  0  0  2  0  0  0  0  0  0
  160.8870  213.4400  138.0530 C   0  0  0  0  0  1  0  0  0  0  0  0
  159.8740  211.0790  137.8250 C   0  0  0  0  0  2  0  0  0  0  0  0
  162.3470  211.3950  139.7670 C   0  0  0  0  0  2  0  0  0  0  0  0
  157.3600  212.7210  138.7330 C   0  0  2  0  0  3  0  0  0  0  0  0
  159.4590  212.4580  139.8390 N   0  0  0  0  0  0  0  0  0  0  0  0
  162.5190  212.1450  142.0870 C   0  0  0  0  0  3  0  0  0  0  0  0
  160.9730  208.3900  137.7950 C   0  0  0  0  0  2  0  0  0  0  0  0
  161.9580  207.3350  137.3290 C   0  0  0  0  0  1  0  0  0  0  0  0
  156.3470  213.6840  138.6900 O   0  0  0  0  0  0  0  0  0  0  0  0
  155.2520  213.0080  138.3080 O   0  0  0  0  0  0  0  0  0  0  0  0
  154.3540  210.3810  138.5550 F   0  0  0  0  0  0  0  0  0  0  0  0
  154.2610  212.6520  139.2240 C   0  0  0  0  0  0  0  0  0  0  0  0
  154.1430  211.2050  139.6440 C   0  0  1  0  0  3  0  0  0  0  0  0
  152.5890  211.8450  141.3220 C   0  0  0  0  0  2  0  0  0  0  0  0
  152.3810  213.2420  140.7440 C   0  0  0  0  0  2  0  0  0  0  0  0
  153.4760  213.5880  139.7760 C   0  0  0  0  0  3  0  0  0  0  0  0
  152.8330  210.9080  140.2300 N   0  0  0  0  0  2  0  0  0  0  0  0
  1 13  2  0  0  0  0
  2  7  1  0  0  0  0
  3 10  1  0  0  0  0
  4 18  1  6  0  0  0
  4 22  1  0  0  0  0
  6 24  1  1  0  0  0
  6 15  1  0  0  0  0
  7  5  2  0  0  0  0
  8 17  1  1  0  0  0
 10  2  2  0  0  0  0
 10  1  1  0  0  0  0
 11 19  1  0  0  0  0
 11  6  1  0  0  0  0
 12  4  1  0  0  0  0
 12 21  1  0  0  0  0
 13  5  1  0  0  0  0
 14  3  2  0  0  0  0
 14 23  1  0  0  0  0
 15 20  1  0  0  0  0
 15  9  1  1  0  0  0
 16  1  1  0  0  0  0
 17  2  1  0  0  0  0
 19  4  1  0  0  0  0
 20 14  1  0  0  0  0
 21 26  1  1  0  0  0
 21  8  1  0  0  0  0
 22  8  1  0  0  0  0
 22  3  1  0  0  0  0
 23 16  2  0  0  0  0
 25 24  1  0  0  0  0
 27 26  1  0  0  0  0
 27 29  1  0  0  0  0
 29 30  1  0  0  0  0
 29 33  2  0  0  0  0
 30 28  1  6  0  0  0
 30 34  1  0  0  0  0
 32 31  1  0  0  0  0
 33 32  1  0  0  0  0
 34 31  1  0  0  0  0
M  END
>  <MODEL>
8

>  <REMARK>
 VINA RESULT:      -4.6     10.185     13.571
  Name = 
  4 active torsions:
  status: ('A' for Active; 'I' for Inactive)
    1  A    between atoms: O_3  and  C_13
    2  A    between atoms: O_3  and  O_17
    3  A    between atoms: C_7  and  C_8
    4  A    between atoms: O_17  and  C_29
                            x       y       z     vdW  Elec       q    Type
                         _______ _______ _______ _____ _____    ______ ____

>  <TORSDO>
F 4

$$$$
=
 OpenBabel11062407463D

 34 39  0  0  1  0  0  0  0  0999 V2000
  160.9890  202.0770  150.5680 C   0  0  0  0  0  0  0  0  0  0  0  0
  161.1530  204.4740  150.8830 C   0  0  0  0  0  0  0  0  0  0  0  0
  161.2890  203.5380  148.6130 C   0  0  0  0  0  0  0  0  0  0  0  0
  162.1010  205.4200  146.9510 C   0  0  2  0  0  0  0  0  0  0  0  0
  160.8440  203.0530  152.7640 C   0  0  0  0  0  3  0  0  0  0  0  0
  160.5930  203.6840  144.4030 C   0  0  1  0  0  3  0  0  0  0  0  0
  161.0110  204.2890  152.2230 N   0  0  0  0  0  0  0  0  0  0  0  0
  160.8600  205.9960  148.9430 C   0  0  1  0  0  3  0  0  0  0  0  0
  159.4830  201.7210  145.2260 O   0  0  0  0  0  1  0  0  0  0  0  0
  161.1450  203.3660  150.0120 C   0  0  0  0  0  0  0  0  0  0  0  0
  161.6340  204.6090  144.6710 O   0  0  0  0  0  0  0  0  0  0  0  0
  162.4170  206.8610  147.3100 C   0  0  0  0  0  2  0  0  0  0  0  0
  160.8310  201.9240  151.9460 C   0  0  0  0  0  3  0  0  0  0  0  0
  161.3110  202.3720  147.7950 C   0  0  0  0  0  0  0  0  0  0  0  0
  160.2180  202.8400  145.6230 C   0  0  1  0  0  3  0  0  0  0  0  0
  160.9990  200.9570  149.7450 C   0  0  0  0  0  3  0  0  0  0  0  0
  161.4190  205.8480  150.3600 C   0  0  0  0  0  2  0  0  0  0  0  0
  163.4280  204.6950  146.7580 C   0  0  0  0  0  1  0  0  0  0  0  0
  161.2140  205.4800  145.6950 C   0  0  0  0  0  2  0  0  0  0  0  0
  161.4880  202.3940  146.3200 C   0  0  0  0  0  2  0  0  0  0  0  0
  161.3150  207.2840  148.2590 C   0  0  2  0  0  3  0  0  0  0  0  0
  161.3410  204.9030  148.0980 N   0  0  0  0  0  0  0  0  0  0  0  0
  161.1630  201.1060  148.3720 C   0  0  0  0  0  3  0  0  0  0  0  0
  159.3710  204.3370  143.7610 C   0  0  0  0  0  2  0  0  0  0  0  0
  158.1120  203.5800  144.1360 C   0  0  0  0  0  1  0  0  0  0  0  0
  161.7840  208.2480  149.1560 O   0  0  0  0  0  0  0  0  0  0  0  0
  160.8310  208.3290  150.0970 O   0  0  0  0  0  0  0  0  0  0  0  0
  162.5890  210.4410  150.5660 F   0  0  0  0  0  0  0  0  0  0  0  0
  161.1180  208.7750  151.3880 C   0  0  0  0  0  0  0  0  0  0  0  0
  161.6800  210.1660  151.5700 C   0  0  1  0  0  3  0  0  0  0  0  0
  161.3860  209.9490  153.9170 C   0  0  0  0  0  2  0  0  0  0  0  0
  161.1490  208.4440  153.8540 C   0  0  0  0  0  2  0  0  0  0  0  0
  160.8310  208.0110  152.4510 C   0  0  0  0  0  3  0  0  0  0  0  0
  162.3320  210.3280  152.8730 N   0  0  0  0  0  2  0  0  0  0  0  0
  1 13  2  0  0  0  0
  2  7  1  0  0  0  0
  3 10  1  0  0  0  0
  4 18  1  6  0  0  0
  4 12  1  0  0  0  0
  4 22  1  0  0  0  0
  6 24  1  1  0  0  0
  6 11  1  0  0  0  0
  6 15  1  0  0  0  0
  7  5  2  0  0  0  0
  8 17  1  1  0  0  0
 10  1  1  0  0  0  0
 10  2  2  0  0  0  0
 11 19  1  0  0  0  0
 12 21  1  0  0  0  0
 13  5  1  0  0  0  0
 14 23  1  0  0  0  0
 14  3  2  0  0  0  0
 15  9  1  6  0  0  0
 15 20  1  0  0  0  0
 16  1  1  0  0  0  0
 17  2  1  0  0  0  0
 19  4  1  0  0  0  0
 20 14  1  0  0  0  0
 21  8  1  0  0  0  0
 21 26  1  1  0  0  0
 22  3  1  0  0  0  0
 22  8  1  0  0  0  0
 23 16  2  0  0  0  0
 24 25  1  0  0  0  0
 26 27  1  0  0  0  0
 27 29  1  0  0  0  0
 29 30  1  0  0  0  0
 29 33  2  0  0  0  0
 30 28  1  6  0  0  0
 30 34  1  0  0  0  0
 32 31  1  0  0  0  0
 33 32  1  0  0  0  0
 34 31  1  0  0  0  0
M  END
>  <MODEL>
9

>  <REMARK>
 VINA RESULT:      -4.2      3.710      7.955
  Name = 
  4 active torsions:
  status: ('A' for Active; 'I' for Inactive)
    1  A    between atoms: O_3  and  C_13
    2  A    between atoms: O_3  and  O_17
    3  A    between atoms: C_7  and  C_8
    4  A    between atoms: O_17  and  C_29
                            x       y       z     vdW  Elec       q    Type
                         _______ _______ _______ _____ _____    ______ ____

>  <TORSDO>
F 4

$$$$
