=
 OpenBabel11062409173D

 37 44  0  0  1  0  0  0  0  0999 V2000
  160.0050  212.4500  153.2360 O   0  0  0  0  0  0  0  0  0  0  0  0
  161.6180  208.3840  156.9880 C   0  0  0  0  0  2  0  0  0  0  0  0
  161.3540  207.9090  152.5060 C   0  0  1  0  0  3  0  0  0  0  0  0
  158.8490  213.2350  153.0160 C   0  0  0  0  0  0  0  0  0  0  0  0
  162.4170  210.7320  150.5380 C   0  0  0  0  0  2  0  0  0  0  0  0
  161.3360  207.1310  154.8600 C   0  0  2  0  0  3  0  0  0  0  0  0
  160.8310  209.0900  151.7210 C   0  0  2  0  0  3  0  0  0  0  0  0
  158.7070  214.4500  153.8950 C   0  0  0  0  0  2  0  0  0  0  0  0
  160.6860  208.0770  153.8510 C   0  0  1  0  0  3  0  0  0  0  0  0
  161.6820  209.3920  150.4750 C   0  0  0  0  0  2  0  0  0  0  0  0
  161.0340  205.7030  154.3970 C   0  0  0  0  0  2  0  0  0  0  0  0
  158.2940  213.3430  151.7120 O   0  0  0  0  0  0  0  0  0  0  0  0
  160.5800  209.5800  154.1240 C   0  0  2  0  0  0  0  0  0  0  0  0
  161.6180  210.1000  155.1260 C   0  0  0  0  0  2  0  0  0  0  0  0
  157.8400  213.2160  154.1360 C   0  0  0  0  0  2  0  0  0  0  0  0
  161.5290  205.4640  152.9610 C   0  0  0  0  0  2  0  0  0  0  0  0
  159.2830  209.8690  154.5660 O   0  0  0  0  0  1  0  0  0  0  0  0
  159.3190  213.2010  150.7450 C   0  0  2  0  0  3  0  0  0  0  0  0
  161.5050  211.9480  150.3320 C   0  0  0  0  0  2  0  0  0  0  0  0
  160.9900  206.5190  151.9770 C   0  0  2  0  0  3  0  0  0  0  0  0
  160.8460  210.2220  152.7520 C   0  0  2  0  0  3  0  0  0  0  0  0
  160.7880  207.3380  156.2600 C   0  0  0  0  0  2  0  0  0  0  0  0
  161.2390  209.8000  156.5740 C   0  0  0  0  0  2  0  0  0  0  0  0
  160.0680  211.8560  150.8930 C   0  0  1  0  0  3  0  0  0  0  0  0
  159.9150  211.3680  152.3490 C   0  0  2  0  0  3  0  0  0  0  0  0
  160.1840  214.3020  150.7900 O   0  0  0  0  0  0  0  0  0  0  0  0
  160.5960  214.4530  149.5490 O   0  0  0  0  0  1  0  0  0  0  0  0
  161.6050  206.2770  150.6090 C   0  0  0  0  0  2  0  0  0  0  0  0
  160.8680  204.0980  147.6480 C   0  0  0  0  0  2  0  0  0  0  0  0
  161.3240  203.8590  150.1700 C   0  0  1  0  0  3  0  0  0  0  0  0
  160.1920  202.8410  150.0520 C   0  0  0  0  0  2  0  0  0  0  0  0
  160.6350  200.5090  149.9680 O   0  0  0  0  0  0  0  0  0  0  0  0
  161.1590  201.6290  147.9620 C   0  0  0  0  0  3  0  0  0  0  0  0
  160.6650  201.6050  149.3520 C   0  0  0  0  0  0  0  0  0  0  0  0
  161.6960  204.5470  148.8500 C   0  0  2  0  0  3  0  0  0  0  0  0
  161.2630  202.7230  147.1990 C   0  0  0  0  0  3  0  0  0  0  0  0
  160.7950  205.2430  149.8520 C   0  0  2  0  0  3  0  0  0  0  0  0
  3  9  1  0  0  0  0
  4  1  1  0  0  0  0
  4  8  1  0  0  0  0
  4 15  1  0  0  0  0
  6 22  1  0  0  0  0
  7  3  1  0  0  0  0
  7 21  1  0  0  0  0
  8 15  1  0  0  0  0
  9 13  1  0  0  0  0
  9  6  1  0  0  0  0
 10  5  1  0  0  0  0
 10  7  1  0  0  0  0
 11  6  1  0  0  0  0
 12  4  1  0  0  0  0
 13 17  1  0  0  0  0
 13 14  1  0  0  0  0
 14 23  1  0  0  0  0
 16 11  1  0  0  0  0
 18 26  1  0  0  0  0
 18 24  1  0  0  0  0
 18 12  1  0  0  0  0
 19  5  1  0  0  0  0
 19 24  1  0  0  0  0
 20  3  1  0  0  0  0
 20 16  1  0  0  0  0
 21 13  1  0  0  0  0
 22  2  1  0  0  0  0
 23  2  1  0  0  0  0
 24 25  1  0  0  0  0
 25 21  1  0  0  0  0
 25  1  1  0  0  0  0
 27 26  1  0  0  0  0
 28 20  1  0  0  0  0
 29 35  1  0  0  0  0
 31 30  1  0  0  0  0
 33 34  1  0  0  0  0
 34 32  2  0  0  0  0
 34 31  1  0  0  0  0
 35 37  1  0  0  0  0
 35 30  1  0  0  0  0
 36 29  1  0  0  0  0
 36 33  2  0  0  0  0
 37 30  1  0  0  0  0
 37 28  1  0  0  0  0
M  END
>  <MODEL>
1

>  <REMARK>
 VINA RESULT:      -8.1      0.000      0.000
  Name = 
  3 active torsions:
  status: ('A' for Active; 'I' for Inactive)
    1  A    between atoms: O_11  and  C_26
    2  A    between atoms: C_22  and  C_28
    3  A    between atoms: C_22  and  C_37
                            x       y       z     vdW  Elec       q    Type
                         _______ _______ _______ _____ _____    ______ ____

>  <TORSDO>
F 3

$$$$
=
 OpenBabel11062409173D

 37 44  0  0  1  0  0  0  0  0999 V2000
  159.9820  212.4620  152.7860 O   0  0  0  0  0  0  0  0  0  0  0  0
  161.1830  208.5470  156.8400 C   0  0  0  0  0  2  0  0  0  0  0  0
  161.4900  207.9300  152.3790 C   0  0  1  0  0  3  0  0  0  0  0  0
  158.8500  213.2150  152.3980 C   0  0  0  0  0  0  0  0  0  0  0  0
  162.7420  210.7130  150.4670 C   0  0  0  0  0  2  0  0  0  0  0  0
  161.1910  207.2240  154.7370 C   0  0  2  0  0  3  0  0  0  0  0  0
  161.0480  209.0750  151.4960 C   0  0  2  0  0  3  0  0  0  0  0  0
  158.5780  214.4530  153.2120 C   0  0  0  0  0  2  0  0  0  0  0  0
  160.6560  208.1240  153.6250 C   0  0  1  0  0  3  0  0  0  0  0  0
  162.0430  209.3570  150.3560 C   0  0  0  0  0  2  0  0  0  0  0  0
  160.9740  205.7760  154.2860 C   0  0  0  0  0  2  0  0  0  0  0  0
  158.4600  213.2710  151.0330 O   0  0  0  0  0  0  0  0  0  0  0  0
  160.4910  209.6330  153.8320 C   0  0  2  0  0  0  0  0  0  0  0  0
  161.3870  210.2050  154.9380 C   0  0  0  0  0  2  0  0  0  0  0  0
  157.7090  213.2090  153.3840 C   0  0  0  0  0  2  0  0  0  0  0  0
  161.6480  205.5040  152.9320 C   0  0  0  0  0  2  0  0  0  0  0  0
  159.1440  209.9070  154.0990 O   0  0  0  0  0  1  0  0  0  0  0  0
  159.6000  213.1210  150.2050 C   0  0  2  0  0  3  0  0  0  0  0  0
  161.8420  211.9030  150.1090 C   0  0  0  0  0  2  0  0  0  0  0  0
  161.2190  206.5170  151.8540 C   0  0  2  0  0  3  0  0  0  0  0  0
  160.9150  210.2380  152.4840 C   0  0  2  0  0  3  0  0  0  0  0  0
  160.4690  207.4620  156.0500 C   0  0  0  0  0  2  0  0  0  0  0  0
  160.8350  209.9410  156.3370 C   0  0  0  0  0  2  0  0  0  0  0  0
  160.3480  211.7980  150.4890 C   0  0  1  0  0  3  0  0  0  0  0  0
  160.0230  211.3510  151.9310 C   0  0  2  0  0  3  0  0  0  0  0  0
  160.4340  214.2420  150.3220 O   0  0  0  0  0  0  0  0  0  0  0  0
  161.0000  214.3590  149.1390 O   0  0  0  0  0  1  0  0  0  0  0  0
  162.0030  206.2460  150.5820 C   0  0  0  0  0  2  0  0  0  0  0  0
  160.3780  206.5410  147.2160 C   0  0  0  0  0  2  0  0  0  0  0  0
  161.8090  204.8610  148.5420 C   0  0  1  0  0  3  0  0  0  0  0  0
  160.8270  203.8720  147.9200 C   0  0  0  0  0  2  0  0  0  0  0  0
  161.4260  202.5630  146.0300 O   0  0  0  0  0  0  0  0  0  0  0  0
  161.0080  204.8230  145.5040 C   0  0  0  0  0  3  0  0  0  0  0  0
  161.1040  203.7020  146.4590 C   0  0  0  0  0  0  0  0  0  0  0  0
  161.5640  206.3250  148.1540 C   0  0  2  0  0  3  0  0  0  0  0  0
  160.6970  206.0840  145.8240 C   0  0  0  0  0  3  0  0  0  0  0  0
  161.0660  205.7890  149.4820 C   0  0  2  0  0  3  0  0  0  0  0  0
  3  9  1  0  0  0  0
  4  1  1  0  0  0  0
  4  8  1  0  0  0  0
  4 15  1  0  0  0  0
  6 22  1  0  0  0  0
  7  3  1  0  0  0  0
  7 21  1  0  0  0  0
  8 15  1  0  0  0  0
  9 13  1  0  0  0  0
  9  6  1  0  0  0  0
 10  5  1  0  0  0  0
 10  7  1  0  0  0  0
 11  6  1  0  0  0  0
 12  4  1  0  0  0  0
 13 17  1  0  0  0  0
 13 14  1  0  0  0  0
 14 23  1  0  0  0  0
 16 11  1  0  0  0  0
 18 26  1  0  0  0  0
 18 24  1  0  0  0  0
 18 12  1  0  0  0  0
 19  5  1  0  0  0  0
 19 24  1  0  0  0  0
 20  3  1  0  0  0  0
 20 16  1  0  0  0  0
 21 13  1  0  0  0  0
 22  2  1  0  0  0  0
 23  2  1  0  0  0  0
 24 25  1  0  0  0  0
 25 21  1  0  0  0  0
 25  1  1  0  0  0  0
 27 26  1  0  0  0  0
 28 20  1  0  0  0  0
 29 35  1  0  0  0  0
 30 37  1  0  0  0  0
 31 30  1  0  0  0  0
 32 34  2  0  0  0  0
 33 36  2  0  0  0  0
 33 34  1  0  0  0  0
 34 31  1  0  0  0  0
 35 30  1  0  0  0  0
 35 37  1  0  0  0  0
 36 29  1  0  0  0  0
 37 28  1  0  0  0  0
M  END
>  <MODEL>
2

>  <REMARK>
 VINA RESULT:      -7.3      1.173      1.553
  Name = 
  3 active torsions:
  status: ('A' for Active; 'I' for Inactive)
    1  A    between atoms: O_11  and  C_26
    2  A    between atoms: C_22  and  C_28
    3  A    between atoms: C_22  and  C_37
                            x       y       z     vdW  Elec       q    Type
                         _______ _______ _______ _____ _____    ______ ____

>  <TORSDO>
F 3

$$$$
=
 OpenBabel11062409173D

 37 44  0  0  1  0  0  0  0  0999 V2000
  159.1910  212.2820  154.6420 O   0  0  0  0  0  0  0  0  0  0  0  0
  157.5280  214.0920  149.4310 C   0  0  0  0  0  2  0  0  0  0  0  0
  160.9150  211.2360  150.2940 C   0  0  1  0  0  3  0  0  0  0  0  0
  159.6700  212.8850  155.8280 C   0  0  0  0  0  0  0  0  0  0  0  0
  160.3550  208.8500  152.9330 C   0  0  0  0  0  2  0  0  0  0  0  0
  159.6860  212.9450  148.9840 C   0  0  2  0  0  3  0  0  0  0  0  0
  161.2250  210.9590  151.7470 C   0  0  2  0  0  3  0  0  0  0  0  0
  158.6190  213.4800  156.7290 C   0  0  0  0  0  2  0  0  0  0  0  0
  160.3270  212.6270  150.3340 C   0  0  1  0  0  3  0  0  0  0  0  0
  161.4290  209.4600  152.0310 C   0  0  0  0  0  2  0  0  0  0  0  0
  160.8140  212.9760  147.9480 C   0  0  0  0  0  2  0  0  0  0  0  0
  160.8270  212.3750  156.4760 O   0  0  0  0  0  0  0  0  0  0  0  0
  159.5350  212.7510  151.6400 C   0  0  2  0  0  0  0  0  0  0  0  0
  158.0160  212.6470  151.4510 C   0  0  0  0  0  2  0  0  0  0  0  0
  159.5180  214.3840  155.8890 C   0  0  0  0  0  2  0  0  0  0  0  0
  161.5970  211.6530  147.9330 C   0  0  0  0  0  2  0  0  0  0  0  0
  159.8720  213.9590  152.2600 O   0  0  0  0  0  1  0  0  0  0  0  0
  160.9390  210.9850  156.2250 C   0  0  2  0  0  3  0  0  0  0  0  0
  160.4880  209.2480  154.4090 C   0  0  0  0  0  2  0  0  0  0  0  0
  162.1060  211.2620  149.3320 C   0  0  2  0  0  3  0  0  0  0  0  0
  160.0160  211.5530  152.4750 C   0  0  2  0  0  3  0  0  0  0  0  0
  158.9730  214.2840  149.0000 C   0  0  0  0  0  2  0  0  0  0  0  0
  157.3980  213.9460  150.9410 C   0  0  0  0  0  2  0  0  0  0  0  0
  160.9980  210.6760  154.7120 C   0  0  1  0  0  3  0  0  0  0  0  0
  160.3240  211.8360  153.9470 C   0  0  2  0  0  3  0  0  0  0  0  0
  159.9070  210.2920  156.8730 O   0  0  0  0  0  0  0  0  0  0  0  0
  160.4580  209.1610  157.2610 O   0  0  0  0  0  1  0  0  0  0  0  0
  162.7740  209.9000  149.2510 C   0  0  0  0  0  2  0  0  0  0  0  0
  161.6320  207.0300  147.1280 C   0  0  0  0  0  2  0  0  0  0  0  0
  161.9710  207.5900  149.6170 C   0  0  1  0  0  3  0  0  0  0  0  0
  160.6440  206.8460  149.7370 C   0  0  0  0  0  2  0  0  0  0  0  0
  160.5570  204.5900  150.4770 O   0  0  0  0  0  0  0  0  0  0  0  0
  161.3600  204.8170  148.2730 C   0  0  0  0  0  3  0  0  0  0  0  0
  160.8430  205.3760  149.5370 C   0  0  0  0  0  0  0  0  0  0  0  0
  162.5150  207.6890  148.1860 C   0  0  2  0  0  3  0  0  0  0  0  0
  161.7200  205.5350  147.2030 C   0  0  0  0  0  3  0  0  0  0  0  0
  161.7710  208.8550  148.8080 C   0  0  2  0  0  3  0  0  0  0  0  0
  1  4  1  0  0  0  0
  2 23  1  0  0  0  0
  3  9  1  0  0  0  0
  3  7  1  0  0  0  0
  4 15  1  0  0  0  0
  4 12  1  0  0  0  0
  4  8  1  0  0  0  0
  5 19  1  0  0  0  0
  6 22  1  0  0  0  0
  6  9  1  0  0  0  0
  7 10  1  0  0  0  0
  7 21  1  0  0  0  0
  9 13  1  0  0  0  0
 10  5  1  0  0  0  0
 11  6  1  0  0  0  0
 13 17  1  0  0  0  0
 13 21  1  0  0  0  0
 14 13  1  0  0  0  0
 15  8  1  0  0  0  0
 16 11  1  0  0  0  0
 16 20  1  0  0  0  0
 18 12  1  0  0  0  0
 18 26  1  0  0  0  0
 19 24  1  0  0  0  0
 20  3  1  0  0  0  0
 21 25  1  0  0  0  0
 22  2  1  0  0  0  0
 23 14  1  0  0  0  0
 24 18  1  0  0  0  0
 25  1  1  0  0  0  0
 25 24  1  0  0  0  0
 26 27  1  0  0  0  0
 28 20  1  0  0  0  0
 29 36  1  0  0  0  0
 29 35  1  0  0  0  0
 30 31  1  0  0  0  0
 33 34  1  0  0  0  0
 34 31  1  0  0  0  0
 34 32  2  0  0  0  0
 35 37  1  0  0  0  0
 35 30  1  0  0  0  0
 36 33  2  0  0  0  0
 37 28  1  0  0  0  0
 37 30  1  0  0  0  0
M  END
>  <MODEL>
3

>  <REMARK>
 VINA RESULT:      -6.4      2.081      5.432
  Name = 
  3 active torsions:
  status: ('A' for Active; 'I' for Inactive)
    1  A    between atoms: O_11  and  C_26
    2  A    between atoms: C_22  and  C_28
    3  A    between atoms: C_22  and  C_37
                            x       y       z     vdW  Elec       q    Type
                         _______ _______ _______ _____ _____    ______ ____

>  <TORSDO>
F 3

$$$$
