=
 OpenBabel11052422403D

 31 34  0  0  1  0  0  0  0  0999 V2000
  157.1600  212.6340  153.6660 C   0  0  0  0  0  0  0  0  0  0  0  0
  159.8140  209.9530  153.2760 C   0  0  1  0  0  3  0  0  0  0  0  0
  160.5920  209.9800  154.5700 C   0  0  0  0  0  0  0  0  0  0  0  0
  161.6360  210.6690  156.5270 N   0  0  0  0  0  0  0  0  0  0  0  0
  159.0320  211.2190  153.0500 C   0  0  0  0  0  0  0  0  0  0  0  0
  157.6040  213.6140  152.7760 C   0  0  0  0  0  3  0  0  0  0  0  0
  160.8530  211.1940  155.4150 C   0  0  0  0  0  2  0  0  0  0  0  0
  161.5310  210.7930  151.6220 C   0  0  1  0  0  3  0  0  0  0  0  0
  155.9850  212.8520  154.4370 N   0  0  0  0  0  1  0  0  0  0  0  0
  160.8710  207.3060  153.1630 C   0  0  0  0  0  2  0  0  0  0  0  0
  161.8040  209.4040  156.3470 C   0  0  0  0  0  0  0  0  0  0  0  0
  160.6620  212.0000  151.2470 C   0  0  0  0  0  2  0  0  0  0  0  0
  160.6880  209.5830  152.0580 C   0  0  1  0  0  3  0  0  0  0  0  0
  157.8710  211.4410  153.8020 C   0  0  0  0  0  3  0  0  0  0  0  0
  162.5280  208.5860  157.2610 N   0  0  0  0  0  1  0  0  0  0  0  0
  159.4850  212.2150  152.1570 C   0  0  0  0  0  0  0  0  0  0  0  0
  158.7580  213.4010  152.0200 C   0  0  0  0  0  3  0  0  0  0  0  0
  161.5640  208.3390  152.2830 C   0  0  0  0  0  2  0  0  0  0  0  0
  161.2270  207.5030  154.6400 C   0  0  0  0  0  2  0  0  0  0  0  0
  161.1760  208.9280  155.1350 C   0  0  0  0  0  0  0  0  0  0  0  0
  162.4780  210.4780  150.5440 N   0  0  0  0  0  2  0  0  0  0  0  0
  161.8640  210.6780  149.2320 C   0  0  2  0  0  3  0  0  0  0  0  0
  162.4780  208.4490  148.7510 O   0  0  0  0  0  0  0  0  0  0  0  0
  161.6700  209.3470  148.5810 C   0  0  0  0  0  3  0  0  0  0  0  0
  162.7710  211.5620  148.3790 C   0  0  0  0  0  2  0  0  0  0  0  0
  161.8420  213.7610  148.7140 O   0  0  0  0  0  1  0  0  0  0  0  0
  162.0400  212.7570  147.7650 C   0  0  2  0  0  3  0  0  0  0  0  0
  160.7100  212.3590  147.1410 C   0  0  0  0  0  2  0  0  0  0  0  0
  160.4740  213.1320  145.9310 N   0  0  0  0  0  0  0  0  0  0  0  0
  159.7440  212.2720  145.0150 C   0  0  0  0  0  1  0  0  0  0  0  0
  161.7710  213.3670  145.3250 C   0  0  0  0  0  1  0  0  0  0  0  0
  1 14  1  0  0  0  0
  1  9  1  0  0  0  0
  2  5  1  6  0  0  0
  2  3  1  0  0  0  0
  3 20  2  0  0  0  0
  3  7  1  0  0  0  0
  5 14  2  0  0  0  0
  6  1  2  0  0  0  0
  7  4  1  0  0  0  0
  8 21  1  6  0  0  0
  8 13  1  0  0  0  0
 10 19  1  0  0  0  0
 11  4  2  0  0  0  0
 11 15  1  0  0  0  0
 12  8  1  0  0  0  0
 12 16  1  0  0  0  0
 13 18  1  1  0  0  0
 13  2  1  0  0  0  0
 16  5  1  0  0  0  0
 17 16  2  0  0  0  0
 17  6  1  0  0  0  0
 18 10  1  0  0  0  0
 19 20  1  0  0  0  0
 20 11  1  0  0  0  0
 22 25  1  6  0  0  0
 22 21  1  0  0  0  0
 24 23  2  0  0  0  0
 24 22  1  0  0  0  0
 27 25  1  0  0  0  0
 27 26  1  1  0  0  0
 28 27  1  0  0  0  0
 29 28  1  0  0  0  0
 30 29  1  0  0  0  0
 31 29  1  0  0  0  0
M  END
>  <MODEL>
1

>  <REMARK>
 VINA RESULT:      -5.3      0.000      0.000
  Name = 
  7 active torsions:
  status: ('A' for Active; 'I' for Inactive)
    1  A    between atoms: N_1  and  C_24
    2  A    between atoms: C_7  and  CA_9
    3  A    between atoms: C_7  and  C_19
    4  A    between atoms: CA_9  and  C_22
    5  A    between atoms: CA_9  and  N_23
    6  A    between atoms: C_15  and  N_23
    7  A    between atoms: C_19  and  C_24
                            x       y       z     vdW  Elec       q    Type
                         _______ _______ _______ _____ _____    ______ ____

>  <TORSDO>
F 7

$$$$
=
 OpenBabel11052422403D

 31 34  0  0  1  0  0  0  0  0999 V2000
  161.6260  210.1830  156.1320 C   0  0  0  0  0  0  0  0  0  0  0  0
  161.5680  210.5010  152.3540 C   0  0  1  0  0  3  0  0  0  0  0  0
  160.3060  211.2710  152.0440 C   0  0  0  0  0  0  0  0  0  0  0  0
  158.1490  212.1310  152.1070 N   0  0  0  0  0  0  0  0  0  0  0  0
  161.5410  209.8840  153.7260 C   0  0  0  0  0  0  0  0  0  0  0  0
  161.3680  208.8230  156.3140 C   0  0  0  0  0  3  0  0  0  0  0  0
  159.0240  211.2100  152.8240 C   0  0  0  0  0  2  0  0  0  0  0  0
  161.0340  208.2250  151.3900 C   0  0  1  0  0  3  0  0  0  0  0  0
  161.7970  211.0320  157.2610 N   0  0  0  0  0  1  0  0  0  0  0  0
  162.3290  211.5030  149.7940 C   0  0  0  0  0  2  0  0  0  0  0  0
  158.7980  212.6130  151.1030 C   0  0  0  0  0  0  0  0  0  0  0  0
  161.1790  207.5490  152.7590 C   0  0  0  0  0  2  0  0  0  0  0  0
  161.9260  209.4710  151.2600 C   0  0  1  0  0  3  0  0  0  0  0  0
  161.7130  210.7110  154.8430 C   0  0  0  0  0  3  0  0  0  0  0  0
  158.2280  213.5500  150.1960 N   0  0  0  0  0  1  0  0  0  0  0  0
  161.2720  208.5100  153.9120 C   0  0  0  0  0  0  0  0  0  0  0  0
  161.1990  207.9900  155.2070 C   0  0  0  0  0  3  0  0  0  0  0  0
  161.8820  210.0470  149.8340 C   0  0  0  0  0  2  0  0  0  0  0  0
  161.1370  212.4550  149.9340 C   0  0  0  0  0  2  0  0  0  0  0  0
  160.1480  212.1010  151.0170 C   0  0  0  0  0  0  0  0  0  0  0  0
  161.2360  207.2550  150.3060 N   0  0  0  0  0  2  0  0  0  0  0  0
  160.7420  205.9320  150.6860 C   0  0  2  0  0  3  0  0  0  0  0  0
  161.5830  204.1380  151.9700 O   0  0  0  0  0  0  0  0  0  0  0  0
  161.8060  205.2230  151.4600 C   0  0  0  0  0  3  0  0  0  0  0  0
  160.3830  205.1460  149.4270 C   0  0  0  0  0  2  0  0  0  0  0  0
  160.4090  206.2540  147.2860 O   0  0  0  0  0  1  0  0  0  0  0  0
  161.2020  205.5650  148.2050 C   0  0  2  0  0  3  0  0  0  0  0  0
  161.8750  204.3800  147.5280 C   0  0  0  0  0  2  0  0  0  0  0  0
  161.5060  204.3290  146.1230 N   0  0  0  0  0  0  0  0  0  0  0  0
  161.1340  202.9550  145.8310 C   0  0  0  0  0  1  0  0  0  0  0  0
  162.7130  204.5970  145.3630 C   0  0  0  0  0  1  0  0  0  0  0  0
  1  6  1  0  0  0  0
  1  9  1  0  0  0  0
  2  3  1  6  0  0  0
  2  5  1  0  0  0  0
  3  7  1  0  0  0  0
  4  7  1  0  0  0  0
  5 16  2  0  0  0  0
  5 14  1  0  0  0  0
  8 21  1  6  0  0  0
  8 12  1  0  0  0  0
 10 18  1  0  0  0  0
 10 19  1  0  0  0  0
 11  4  2  0  0  0  0
 12 16  1  0  0  0  0
 13 18  1  6  0  0  0
 13  8  1  0  0  0  0
 13  2  1  0  0  0  0
 14  1  2  0  0  0  0
 15 11  1  0  0  0  0
 16 17  1  0  0  0  0
 17  6  2  0  0  0  0
 19 20  1  0  0  0  0
 20 11  1  0  0  0  0
 20  3  2  0  0  0  0
 21 22  1  0  0  0  0
 22 25  1  6  0  0  0
 22 24  1  0  0  0  0
 24 23  2  0  0  0  0
 27 26  1  6  0  0  0
 27 25  1  0  0  0  0
 28 27  1  0  0  0  0
 29 28  1  0  0  0  0
 30 29  1  0  0  0  0
 31 29  1  0  0  0  0
M  END
>  <MODEL>
2

>  <REMARK>
 VINA RESULT:      -5.3      3.222      6.023
  Name = 
  7 active torsions:
  status: ('A' for Active; 'I' for Inactive)
    1  A    between atoms: N_1  and  C_24
    2  A    between atoms: C_7  and  CA_9
    3  A    between atoms: C_7  and  C_19
    4  A    between atoms: CA_9  and  C_22
    5  A    between atoms: CA_9  and  N_23
    6  A    between atoms: C_15  and  N_23
    7  A    between atoms: C_19  and  C_24
                            x       y       z     vdW  Elec       q    Type
                         _______ _______ _______ _____ _____    ______ ____

>  <TORSDO>
F 7

$$$$
=
 OpenBabel11052422403D

 31 34  0  0  1  0  0  0  0  0999 V2000
  161.0850  211.6260  149.9460 C   0  0  0  0  0  0  0  0  0  0  0  0
  160.8890  209.0530  152.7250 C   0  0  1  0  0  3  0  0  0  0  0  0
  161.7350  209.6160  153.8420 C   0  0  0  0  0  0  0  0  0  0  0  0
  163.3810  210.7280  155.0460 N   0  0  0  0  0  0  0  0  0  0  0  0
  161.2020  209.6830  151.3940 C   0  0  0  0  0  0  0  0  0  0  0  0
  161.8630  210.9660  148.9920 C   0  0  0  0  0  3  0  0  0  0  0  0
  162.9630  210.4650  153.6740 C   0  0  0  0  0  3  0  0  0  0  0  0
  162.2430  207.0380  152.0160 C   0  0  1  0  0  3  0  0  0  0  0  0
  160.6320  212.9520  149.7010 N   0  0  0  0  0  1  0  0  0  0  0  0
  159.7110  207.6110  154.8850 C   0  0  0  0  0  2  0  0  0  0  0  0
  162.5620  210.1340  155.8430 C   0  0  0  0  0  0  0  0  0  0  0  0
  162.4200  207.5880  150.5950 C   0  0  0  0  0  2  0  0  0  0  0  0
  160.9290  207.5110  152.6610 C   0  0  1  0  0  3  0  0  0  0  0  0
  160.7560  210.9870  151.1420 C   0  0  0  0  0  3  0  0  0  0  0  0
  162.6880  210.1940  157.2600 N   0  0  0  0  0  1  0  0  0  0  0  0
  161.9950  209.0200  150.4330 C   0  0  0  0  0  0  0  0  0  0  0  0
  162.3090  209.6660  149.2330 C   0  0  0  0  0  3  0  0  0  0  0  0
  160.6950  206.8320  154.0210 C   0  0  0  0  0  2  0  0  0  0  0  0
  160.4370  208.6040  155.7990 C   0  0  0  0  0  2  0  0  0  0  0  0
  161.5210  209.4200  155.1390 C   0  0  2  0  0  3  0  0  0  0  0  0
  162.4020  205.5780  152.0340 N   0  0  0  0  0  2  0  0  0  0  0  0
  161.3550  204.9270  151.2480 C   0  0  2  0  0  3  0  0  0  0  0  0
  161.4480  202.6010  151.6480 O   0  0  0  0  0  0  0  0  0  0  0  0
  160.9410  203.6700  151.9430 C   0  0  0  0  0  3  0  0  0  0  0  0
  161.8930  204.6130  149.8530 C   0  0  0  0  0  2  0  0  0  0  0  0
  160.7270  203.4350  148.1020 O   0  0  0  0  0  1  0  0  0  0  0  0
  160.8120  204.6570  148.7710 C   0  0  2  0  0  3  0  0  0  0  0  0
  161.0410  205.7840  147.7740 C   0  0  0  0  0  2  0  0  0  0  0  0
  161.1560  205.2460  146.4280 N   0  0  0  0  0  0  0  0  0  0  0  0
  162.5470  205.3890  146.0320 C   0  0  0  0  0  1  0  0  0  0  0  0
  160.3910  206.1220  145.5600 C   0  0  0  0  0  1  0  0  0  0  0  0
  1 14  1  0  0  0  0
  2  5  1  6  0  0  0
  2  3  1  0  0  0  0
  3 20  1  0  0  0  0
  4 11  2  0  0  0  0
  6 17  1  0  0  0  0
  6  1  2  0  0  0  0
  7  3  2  0  0  0  0
  7  4  1  0  0  0  0
  8 21  1  6  0  0  0
  8 13  1  0  0  0  0
  9  1  1  0  0  0  0
 10 19  1  0  0  0  0
 11 15  1  0  0  0  0
 12  8  1  0  0  0  0
 13  2  1  0  0  0  0
 13 18  1  1  0  0  0
 14  5  2  0  0  0  0
 16 12  1  0  0  0  0
 16  5  1  0  0  0  0
 17 16  2  0  0  0  0
 18 10  1  0  0  0  0
 20 19  1  6  0  0  0
 20 11  1  0  0  0  0
 22 25  1  6  0  0  0
 22 24  1  0  0  0  0
 22 21  1  0  0  0  0
 23 24  2  0  0  0  0
 27 26  1  6  0  0  0
 27 25  1  0  0  0  0
 28 27  1  0  0  0  0
 29 28  1  0  0  0  0
 30 29  1  0  0  0  0
 31 29  1  0  0  0  0
M  END
>  <MODEL>
3

>  <REMARK>
 VINA RESULT:      -5.0      3.399      5.289
  Name = 
  7 active torsions:
  status: ('A' for Active; 'I' for Inactive)
    1  A    between atoms: N_1  and  C_24
    2  A    between atoms: C_7  and  CA_9
    3  A    between atoms: C_7  and  C_19
    4  A    between atoms: CA_9  and  C_22
    5  A    between atoms: CA_9  and  N_23
    6  A    between atoms: C_15  and  N_23
    7  A    between atoms: C_19  and  C_24
                            x       y       z     vdW  Elec       q    Type
                         _______ _______ _______ _____ _____    ______ ____

>  <TORSDO>
F 7

$$$$
=
 OpenBabel11052422403D

 31 34  0  0  1  0  0  0  0  0999 V2000
  160.4290  201.6990  150.4390 C   0  0  0  0  0  0  0  0  0  0  0  0
  160.8300  205.0990  148.8080 C   0  0  1  0  0  3  0  0  0  0  0  0
  161.7560  204.8660  147.6370 C   0  0  0  0  0  0  0  0  0  0  0  0
  163.4320  204.0510  146.2510 N   0  0  0  0  0  0  0  0  0  0  0  0
  160.9100  203.9980  149.8300 C   0  0  0  0  0  0  0  0  0  0  0  0
  161.1360  201.8630  151.6310 C   0  0  0  0  0  3  0  0  0  0  0  0
  162.8680  203.8580  147.5820 C   0  0  0  0  0  2  0  0  0  0  0  0
  162.2640  206.5260  150.3260 C   0  0  1  0  0  3  0  0  0  0  0  0
  159.8270  200.4470  150.1350 N   0  0  0  0  0  1  0  0  0  0  0  0
  160.0780  207.3630  147.2450 C   0  0  0  0  0  2  0  0  0  0  0  0
  162.7810  204.9950  145.6650 C   0  0  0  0  0  0  0  0  0  0  0  0
  162.2050  205.4850  151.4510 C   0  0  0  0  0  2  0  0  0  0  0  0
  161.0050  206.4960  149.4420 C   0  0  1  0  0  3  0  0  0  0  0  0
  160.3160  202.7630  149.5420 C   0  0  0  0  0  3  0  0  0  0  0  0
  163.0810  205.4310  144.3420 N   0  0  0  0  0  1  0  0  0  0  0  0
  161.6320  204.1600  151.0330 C   0  0  0  0  0  0  0  0  0  0  0  0
  161.7290  203.0920  151.9290 C   0  0  0  0  0  3  0  0  0  0  0  0
  161.0110  207.6420  148.4160 C   0  0  0  0  0  2  0  0  0  0  0  0
  160.8190  206.6770  146.0930 C   0  0  0  0  0  2  0  0  0  0  0  0
  161.7280  205.5410  146.4930 C   0  0  0  0  0  0  0  0  0  0  0  0
  162.5590  207.8600  150.8640 N   0  0  0  0  0  2  0  0  0  0  0  0
  161.3970  208.4150  151.5570 C   0  0  2  0  0  3  0  0  0  0  0  0
  162.0360  210.3750  150.4060 O   0  0  0  0  0  0  0  0  0  0  0  0
  161.2630  209.8580  151.1950 C   0  0  0  0  0  3  0  0  0  0  0  0
  161.5850  208.2570  153.0650 C   0  0  0  0  0  2  0  0  0  0  0  0
  162.2360  210.3380  154.0930 O   0  0  0  0  0  1  0  0  0  0  0  0
  161.1520  209.4930  153.8550 C   0  0  2  0  0  3  0  0  0  0  0  0
  160.4750  209.1290  155.1680 C   0  0  0  0  0  2  0  0  0  0  0  0
  161.1190  207.9660  155.7580 N   0  0  0  0  0  0  0  0  0  0  0  0
  160.0720  207.1640  156.3670 C   0  0  0  0  0  1  0  0  0  0  0  0
  161.9470  208.4530  156.8460 C   0  0  0  0  0  1  0  0  0  0  0  0
  1  6  1  0  0  0  0
  2  3  1  6  0  0  0
  2 13  1  0  0  0  0
  2  5  1  0  0  0  0
  4  7  1  0  0  0  0
  5 16  2  0  0  0  0
  6 17  2  0  0  0  0
  7  3  1  0  0  0  0
  8 21  1  1  0  0  0
  8 12  1  0  0  0  0
  9  1  1  0  0  0  0
 10 18  1  0  0  0  0
 11  4  2  0  0  0  0
 11 20  1  0  0  0  0
 13 18  1  6  0  0  0
 13  8  1  0  0  0  0
 14  5  1  0  0  0  0
 14  1  2  0  0  0  0
 15 11  1  0  0  0  0
 16 12  1  0  0  0  0
 16 17  1  0  0  0  0
 19 20  1  0  0  0  0
 19 10  1  0  0  0  0
 20  3  2  0  0  0  0
 21 22  1  0  0  0  0
 22 24  1  1  0  0  0
 22 25  1  0  0  0  0
 23 24  2  0  0  0  0
 25 27  1  0  0  0  0
 27 26  1  1  0  0  0
 27 28  1  0  0  0  0
 28 29  1  0  0  0  0
 29 30  1  0  0  0  0
 29 31  1  0  0  0  0
M  END
>  <MODEL>
4

>  <REMARK>
 VINA RESULT:      -3.0      4.492      8.970
  Name = 
  7 active torsions:
  status: ('A' for Active; 'I' for Inactive)
    1  A    between atoms: N_1  and  C_24
    2  A    between atoms: C_7  and  CA_9
    3  A    between atoms: C_7  and  C_19
    4  A    between atoms: CA_9  and  C_22
    5  A    between atoms: CA_9  and  N_23
    6  A    between atoms: C_15  and  N_23
    7  A    between atoms: C_19  and  C_24
                            x       y       z     vdW  Elec       q    Type
                         _______ _______ _______ _____ _____    ______ ____

>  <TORSDO>
F 7

$$$$
=
 OpenBabel11052422403D

 31 34  0  0  1  0  0  0  0  0999 V2000
  160.2330  201.7350  150.4380 C   0  0  0  0  0  0  0  0  0  0  0  0
  160.7920  205.1230  148.8280 C   0  0  1  0  0  3  0  0  0  0  0  0
  161.6810  204.8490  147.6370 C   0  0  0  0  0  0  0  0  0  0  0  0
  163.2820  203.9550  146.2120 N   0  0  0  0  0  0  0  0  0  0  0  0
  160.8300  204.0090  149.8400 C   0  0  0  0  0  0  0  0  0  0  0  0
  160.9710  201.8480  151.6180 C   0  0  0  0  0  3  0  0  0  0  0  0
  162.7340  203.7820  147.5520 C   0  0  0  0  0  2  0  0  0  0  0  0
  162.3320  206.4530  150.3290 C   0  0  1  0  0  3  0  0  0  0  0  0
  159.5560  200.5210  150.1360 N   0  0  0  0  0  1  0  0  0  0  0  0
  160.1380  207.4390  147.2990 C   0  0  0  0  0  2  0  0  0  0  0  0
  162.6740  204.9390  145.6460 C   0  0  0  0  0  0  0  0  0  0  0  0
  162.2370  205.4060  151.4460 C   0  0  0  0  0  2  0  0  0  0  0  0
  161.0570  206.5020  149.4700 C   0  0  1  0  0  3  0  0  0  0  0  0
  160.1630  202.8120  149.5530 C   0  0  0  0  0  3  0  0  0  0  0  0
  162.9720  205.3700  144.3220 N   0  0  0  0  0  1  0  0  0  0  0  0
  161.5830  204.1190  151.0290 C   0  0  0  0  0  0  0  0  0  0  0  0
  161.6370  203.0390  151.9140 C   0  0  0  0  0  3  0  0  0  0  0  0
  161.1080  207.6550  148.4540 C   0  0  0  0  0  2  0  0  0  0  0  0
  160.8170  206.7240  146.1270 C   0  0  0  0  0  2  0  0  0  0  0  0
  161.6700  205.5360  146.4990 C   0  0  0  0  0  0  0  0  0  0  0  0
  162.7120  207.7630  150.8720 N   0  0  0  0  0  2  0  0  0  0  0  0
  161.5290  208.5740  151.1620 C   0  0  2  0  0  3  0  0  0  0  0  0
  161.9650  210.5970  150.0240 O   0  0  0  0  0  0  0  0  0  0  0  0
  161.9070  210.0180  151.0960 C   0  0  0  0  0  3  0  0  0  0  0  0
  161.0040  208.2220  152.5520 C   0  0  0  0  0  2  0  0  0  0  0  0
  161.5800  208.7980  154.8210 O   0  0  0  0  0  1  0  0  0  0  0  0
  161.2340  209.3320  153.5790 C   0  0  2  0  0  3  0  0  0  0  0  0
  160.0250  210.2450  153.7210 C   0  0  0  0  0  2  0  0  0  0  0  0
  160.4540  211.6290  153.8410 N   0  0  0  0  0  0  0  0  0  0  0  0
  160.0820  212.0750  155.1720 C   0  0  0  0  0  1  0  0  0  0  0  0
  159.6470  212.3990  152.9110 C   0  0  0  0  0  1  0  0  0  0  0  0
  1  6  1  0  0  0  0
  2  3  1  6  0  0  0
  2 13  1  0  0  0  0
  2  5  1  0  0  0  0
  4  7  1  0  0  0  0
  5 16  2  0  0  0  0
  6 17  2  0  0  0  0
  7  3  1  0  0  0  0
  8 21  1  1  0  0  0
  8 12  1  0  0  0  0
  9  1  1  0  0  0  0
 10 18  1  0  0  0  0
 11  4  2  0  0  0  0
 11 20  1  0  0  0  0
 13 18  1  6  0  0  0
 13  8  1  0  0  0  0
 14  5  1  0  0  0  0
 14  1  2  0  0  0  0
 15 11  1  0  0  0  0
 16 12  1  0  0  0  0
 16 17  1  0  0  0  0
 19 20  1  0  0  0  0
 19 10  1  0  0  0  0
 20  3  2  0  0  0  0
 21 22  1  0  0  0  0
 22 24  1  1  0  0  0
 22 25  1  0  0  0  0
 23 24  2  0  0  0  0
 25 27  1  0  0  0  0
 27 28  1  0  0  0  0
 27 26  1  1  0  0  0
 28 29  1  0  0  0  0
 29 30  1  0  0  0  0
 31 29  1  0  0  0  0
M  END
>  <MODEL>
5

>  <REMARK>
 VINA RESULT:      -2.7      4.531      8.561
  Name = 
  7 active torsions:
  status: ('A' for Active; 'I' for Inactive)
    1  A    between atoms: N_1  and  C_24
    2  A    between atoms: C_7  and  CA_9
    3  A    between atoms: C_7  and  C_19
    4  A    between atoms: CA_9  and  C_22
    5  A    between atoms: CA_9  and  N_23
    6  A    between atoms: C_15  and  N_23
    7  A    between atoms: C_19  and  C_24
                            x       y       z     vdW  Elec       q    Type
                         _______ _______ _______ _____ _____    ______ ____

>  <TORSDO>
F 7

$$$$
=
 OpenBabel11052422403D

 31 34  0  0  1  0  0  0  0  0999 V2000
  162.2030  210.1650  156.2360 C   0  0  0  0  0  0  0  0  0  0  0  0
  161.6940  210.2650  152.4790 C   0  0  1  0  0  3  0  0  0  0  0  0
  160.5620  211.2410  152.2630 C   0  0  0  0  0  0  0  0  0  0  0  0
  158.6240  212.4960  152.5160 N   0  0  0  0  0  0  0  0  0  0  0  0
  161.7420  209.7460  153.8910 C   0  0  0  0  0  0  0  0  0  0  0  0
  161.7310  208.8920  156.5600 C   0  0  0  0  0  3  0  0  0  0  0  0
  159.4070  211.4700  153.1950 C   0  0  0  0  0  2  0  0  0  0  0  0
  160.6330  208.0790  151.7800 C   0  0  1  0  0  3  0  0  0  0  0  0
  162.6750  211.0310  157.2610 N   0  0  0  0  0  1  0  0  0  0  0  0
  162.2710  210.9530  149.7720 C   0  0  0  0  0  2  0  0  0  0  0  0
  159.2070  212.7860  151.4050 C   0  0  0  0  0  0  0  0  0  0  0  0
  160.8380  207.4700  153.1720 C   0  0  0  0  0  2  0  0  0  0  0  0
  161.7090  209.1240  151.4390 C   0  0  1  0  0  3  0  0  0  0  0  0
  162.2090  210.5900  154.9070 C   0  0  0  0  0  3  0  0  0  0  0  0
  158.6980  213.7600  150.4990 N   0  0  0  0  0  1  0  0  0  0  0  0
  161.2570  208.4620  154.2210 C   0  0  0  0  0  0  0  0  0  0  0  0
  161.2670  208.0420  155.5540 C   0  0  0  0  0  3  0  0  0  0  0  0
  161.5790  209.6120  149.9870 C   0  0  0  0  0  2  0  0  0  0  0  0
  161.3000  212.1200  149.9770 C   0  0  0  0  0  2  0  0  0  0  0  0
  160.4190  212.0240  151.1980 C   0  0  0  0  0  0  0  0  0  0  0  0
  160.5100  207.0260  150.7630 N   0  0  0  0  0  2  0  0  0  0  0  0
  161.8240  206.5190  150.3710 C   0  0  2  0  0  3  0  0  0  0  0  0
  160.7720  206.1440  148.2900 O   0  0  0  0  0  0  0  0  0  0  0  0
  161.8220  206.2620  148.8980 C   0  0  0  0  0  3  0  0  0  0  0  0
  162.1180  205.2310  151.1370 C   0  0  0  0  0  2  0  0  0  0  0  0
  160.4870  204.0810  152.4900 O   0  0  0  0  0  1  0  0  0  0  0  0
  160.9260  204.2730  151.1790 C   0  0  2  0  0  3  0  0  0  0  0  0
  161.2410  202.9330  150.5320 C   0  0  0  0  0  2  0  0  0  0  0  0
  160.4160  202.7410  149.3500 N   0  0  0  0  0  0  0  0  0  0  0  0
  159.9730  201.3580  149.3620 C   0  0  0  0  0  1  0  0  0  0  0  0
  161.2910  202.8800  148.2010 C   0  0  0  0  0  1  0  0  0  0  0  0
  1  6  1  0  0  0  0
  1  9  1  0  0  0  0
  2  3  1  1  0  0  0
  2  5  1  0  0  0  0
  3  7  1  0  0  0  0
  4  7  1  0  0  0  0
  5 16  2  0  0  0  0
  5 14  1  0  0  0  0
  8 21  1  6  0  0  0
  8 12  1  0  0  0  0
 10 19  1  0  0  0  0
 10 18  1  0  0  0  0
 11  4  2  0  0  0  0
 12 16  1  0  0  0  0
 13 18  1  6  0  0  0
 13  8  1  0  0  0  0
 13  2  1  0  0  0  0
 14  1  2  0  0  0  0
 15 11  1  0  0  0  0
 16 17  1  0  0  0  0
 17  6  2  0  0  0  0
 19 20  1  0  0  0  0
 20 11  1  0  0  0  0
 20  3  2  0  0  0  0
 22 24  1  6  0  0  0
 22 21  1  0  0  0  0
 22 25  1  0  0  0  0
 23 24  2  0  0  0  0
 25 27  1  0  0  0  0
 27 26  1  1  0  0  0
 28 27  1  0  0  0  0
 29 30  1  0  0  0  0
 29 28  1  0  0  0  0
 31 29  1  0  0  0  0
M  END
>  <MODEL>
6

>  <REMARK>
 VINA RESULT:      -2.7      3.311      6.557
  Name = 
  7 active torsions:
  status: ('A' for Active; 'I' for Inactive)
    1  A    between atoms: N_1  and  C_24
    2  A    between atoms: C_7  and  CA_9
    3  A    between atoms: C_7  and  C_19
    4  A    between atoms: CA_9  and  C_22
    5  A    between atoms: CA_9  and  N_23
    6  A    between atoms: C_15  and  N_23
    7  A    between atoms: C_19  and  C_24
                            x       y       z     vdW  Elec       q    Type
                         _______ _______ _______ _____ _____    ______ ____

>  <TORSDO>
F 7

$$$$
