=
 OpenBabel11062408293D

 32 37  0  0  1  0  0  0  0  0999 V2000
  161.2530  204.4590  149.9000 C   0  0  0  0  0  0  0  0  0  0  0  0
  161.6970  206.6280  150.9870 C   0  0  0  0  0  0  0  0  0  0  0  0
  161.0770  203.0080  150.1270 C   0  0  0  0  0  3  0  0  0  0  0  0
  161.3860  205.3250  151.1000 C   0  0  0  0  0  0  0  0  0  0  0  0
  161.7090  207.4990  152.2050 C   0  0  0  0  0  0  0  0  0  0  0  0
  161.8310  212.0310  148.2560 C   0  0  0  0  0  1  0  0  0  0  0  0
  162.0790  207.1750  149.6230 C   0  0  1  0  0  3  0  0  0  0  0  0
  161.9450  210.7220  150.3490 O   0  0  0  0  0  0  0  0  0  0  0  0
  161.9860  209.4630  150.7000 C   0  0  0  0  0  0  0  0  0  0  0  0
  161.3300  204.6870  152.4650 C   0  0  1  0  0  3  0  0  0  0  0  0
  162.1140  208.9550  152.0990 C   0  0  0  0  0  2  0  0  0  0  0  0
  160.9370  205.6310  153.4600 O   0  0  0  0  0  0  0  0  0  0  0  0
  160.4000  203.4740  152.4680 C   0  0  0  0  0  2  0  0  0  0  0  0
  161.2640  206.5030  148.5150 C   0  0  0  0  0  2  0  0  0  0  0  0
  161.2720  205.0050  148.6620 C   0  0  0  0  0  0  0  0  0  0  0  0
  161.9440  208.6650  149.5840 C   0  0  0  0  0  0  0  0  0  0  0  0
  161.3070  206.9820  153.3830 C   0  0  0  0  0  0  0  0  0  0  0  0
  160.7240  202.5420  151.3290 C   0  0  0  0  0  3  0  0  0  0  0  0
  161.8890  210.7670  149.0350 C   0  0  0  0  0  0  0  0  0  0  0  0
  161.9020  209.4960  148.4780 C   0  0  0  0  0  3  0  0  0  0  0  0
  161.8370  204.3900  144.8490 C   0  0  2  0  0  3  0  0  0  0  0  0
  159.3170  201.7180  145.0260 O   0  0  0  0  0  0  0  0  0  0  0  0
  161.7430  205.5820  144.1540 F   0  0  0  0  0  0  0  0  0  0  0  0
  161.2960  201.8480  146.3480 C   0  0  0  0  0  2  0  0  0  0  0  0
  161.2100  204.1980  147.3920 C   0  0  2  0  0  3  0  0  0  0  0  0
  160.6020  203.6260  144.6690 N   0  0  0  0  0  2  0  0  0  0  0  0
  161.2300  202.6800  147.6330 C   0  0  0  0  0  2  0  0  0  0  0  0
  162.1450  204.6670  146.2990 C   0  0  0  0  0  0  0  0  0  0  0  0
  163.1920  205.2310  146.5810 O   0  0  0  0  0  0  0  0  0  0  0  0
  160.3560  202.3680  145.3070 C   0  0  0  0  0  0  0  0  0  0  0  0
  161.2180  207.8120  154.5930 C   0  0  0  0  0  3  0  0  0  0  0  0
  160.4600  207.4650  155.5790 N   0  0  0  0  0  2  0  0  0  0  0  0
  1  3  1  0  0  0  0
  1  4  1  0  0  0  0
  2  4  2  0  0  0  0
  2  5  1  0  0  0  0
  3 18  2  0  0  0  0
  4 10  1  0  0  0  0
  5 17  2  0  0  0  0
  6 19  1  0  0  0  0
  7 14  1  6  0  0  0
  7  2  1  0  0  0  0
  8  9  1  0  0  0  0
  9 11  1  0  0  0  0
 10 13  1  6  0  0  0
 10 12  1  0  0  0  0
 11  5  1  0  0  0  0
 14 15  1  0  0  0  0
 15  1  2  0  0  0  0
 16  7  1  0  0  0  0
 16  9  2  0  0  0  0
 17 12  1  0  0  0  0
 17 31  1  0  0  0  0
 18 13  1  0  0  0  0
 19  8  1  0  0  0  0
 20 19  2  0  0  0  0
 20 16  1  0  0  0  0
 21 23  1  6  0  0  0
 21 28  1  0  0  0  0
 22 30  2  0  0  0  0
 24 27  1  0  0  0  0
 25 27  1  0  0  0  0
 25 15  1  1  0  0  0
 26 21  1  0  0  0  0
 26 30  1  0  0  0  0
 28 29  2  0  0  0  0
 28 25  1  0  0  0  0
 30 24  1  0  0  0  0
 31 32  2  0  0  0  0
M  END
>  <MODEL>
1

>  <REMARK>
 VINA RESULT:     -12.1      0.000      0.000
  Name = 
  2 active torsions:
  status: ('A' for Active; 'I' for Inactive)
    1  A    between atoms: C_13  and  C_29
    2  A    between atoms: C_16  and  C_27
                            x       y       z     vdW  Elec       q    Type
                         _______ _______ _______ _____ _____    ______ ____

>  <TORSDO>
F 2

$$$$
=
 OpenBabel11062408293D

 32 37  0  0  1  0  0  0  0  0999 V2000
  161.7370  208.1480  150.9150 C   0  0  0  0  0  0  0  0  0  0  0  0
  161.7570  206.1950  149.4090 C   0  0  0  0  0  0  0  0  0  0  0  0
  162.0650  209.5840  151.0330 C   0  0  0  0  0  3  0  0  0  0  0  0
  161.8890  207.5220  149.5760 C   0  0  0  0  0  0  0  0  0  0  0  0
  161.8000  205.6080  148.0310 C   0  0  0  0  0  0  0  0  0  0  0  0
  159.6000  200.6800  150.6800 C   0  0  0  0  0  1  0  0  0  0  0  0
  161.6160  205.3110  150.6360 C   0  0  1  0  0  3  0  0  0  0  0  0
  160.6020  202.2240  149.0320 O   0  0  0  0  0  0  0  0  0  0  0  0
  161.1030  203.4330  149.0200 C   0  0  0  0  0  0  0  0  0  0  0  0
  162.3570  208.3760  148.4250 C   0  0  1  0  0  3  0  0  0  0  0  0
  161.7100  204.1090  147.8350 C   0  0  0  0  0  2  0  0  0  0  0  0
  161.9510  207.8230  147.1740 O   0  0  0  0  0  0  0  0  0  0  0  0
  161.8640  209.8150  148.5710 C   0  0  0  0  0  2  0  0  0  0  0  0
  160.7990  206.0120  151.7240 C   0  0  0  0  0  2  0  0  0  0  0  0
  161.2930  207.4140  151.9610 C   0  0  0  0  0  0  0  0  0  0  0  0
  161.0350  203.9790  150.2770 C   0  0  0  0  0  0  0  0  0  0  0  0
  161.8680  206.4380  146.9700 C   0  0  0  0  0  0  0  0  0  0  0  0
  162.1690  210.3540  149.9440 C   0  0  0  0  0  3  0  0  0  0  0  0
  160.2200  201.9650  150.2640 C   0  0  0  0  0  0  0  0  0  0  0  0
  160.4800  203.0290  151.1160 C   0  0  0  0  0  3  0  0  0  0  0  0
  160.7570  210.2100  154.6330 C   0  0  2  0  0  3  0  0  0  0  0  0
  162.3460  207.9930  157.1000 O   0  0  0  0  0  0  0  0  0  0  0  0
  161.2400  211.4170  154.1620 F   0  0  0  0  0  0  0  0  0  0  0  0
  160.4340  207.4570  155.7800 C   0  0  0  0  0  2  0  0  0  0  0  0
  161.1710  207.9470  153.3650 C   0  0  2  0  0  3  0  0  0  0  0  0
  161.7130  209.6440  155.5870 N   0  0  0  0  0  2  0  0  0  0  0  0
  160.6850  206.8960  154.3760 C   0  0  0  0  0  2  0  0  0  0  0  0
  160.4760  209.2860  153.4740 C   0  0  0  0  0  0  0  0  0  0  0  0
  159.6350  209.6150  152.6500 O   0  0  0  0  0  0  0  0  0  0  0  0
  161.5370  208.3690  156.2130 C   0  0  0  0  0  0  0  0  0  0  0  0
  161.8280  205.9240  145.5940 C   0  0  0  0  0  3  0  0  0  0  0  0
  160.7270  205.9240  144.9190 N   0  0  0  0  0  2  0  0  0  0  0  0
  1  3  1  0  0  0  0
  1 15  2  0  0  0  0
  2  4  2  0  0  0  0
  2  7  1  0  0  0  0
  4  1  1  0  0  0  0
  5  2  1  0  0  0  0
  7 14  1  1  0  0  0
  8 19  1  0  0  0  0
  9  8  1  0  0  0  0
  9 16  2  0  0  0  0
 10 13  1  1  0  0  0
 10  4  1  0  0  0  0
 11  5  1  0  0  0  0
 11  9  1  0  0  0  0
 12 10  1  0  0  0  0
 13 18  1  0  0  0  0
 14 15  1  0  0  0  0
 16  7  1  0  0  0  0
 16 20  1  0  0  0  0
 17 12  1  0  0  0  0
 17  5  2  0  0  0  0
 18  3  2  0  0  0  0
 19  6  1  0  0  0  0
 19 20  2  0  0  0  0
 21 23  1  6  0  0  0
 21 26  1  0  0  0  0
 24 30  1  0  0  0  0
 25 15  1  6  0  0  0
 25 28  1  0  0  0  0
 25 27  1  0  0  0  0
 26 30  1  0  0  0  0
 27 24  1  0  0  0  0
 28 21  1  0  0  0  0
 29 28  2  0  0  0  0
 30 22  2  0  0  0  0
 31 17  1  0  0  0  0
 32 31  2  0  0  0  0
M  END
>  <MODEL>
2

>  <REMARK>
 VINA RESULT:      -9.8      2.804      8.233
  Name = 
  2 active torsions:
  status: ('A' for Active; 'I' for Inactive)
    1  A    between atoms: C_13  and  C_29
    2  A    between atoms: C_16  and  C_27
                            x       y       z     vdW  Elec       q    Type
                         _______ _______ _______ _____ _____    ______ ____

>  <TORSDO>
F 2

$$$$
