=
 OpenBabel11062408283D

 32 37  0  0  1  0  0  0  0  0999 V2000
  161.6770  207.6020  152.3410 C   0  0  0  0  0  0  0  0  0  0  0  0
  161.4890  210.0840  152.2400 C   0  0  2  0  0  3  0  0  0  0  0  0
  161.5330  206.4090  152.9830 N   0  0  0  0  0  0  0  0  0  0  0  0
  161.3300  208.7920  152.9900 C   0  0  0  0  0  0  0  0  0  0  0  0
  160.6400  211.2820  152.7590 C   0  0  1  0  0  3  0  0  0  0  0  0
  162.3230  212.3960  148.0900 C   0  0  0  0  0  3  0  0  0  0  0  0
  161.4050  209.8010  150.7290 C   0  0  2  0  0  3  0  0  0  0  0  0
  160.8250  213.3980  149.7120 C   0  0  0  0  0  3  0  0  0  0  0  0
  160.7860  212.1940  150.4200 C   0  0  0  0  0  0  0  0  0  0  0  0
  160.8100  208.7470  154.2850 C   0  0  0  0  0  0  0  0  0  0  0  0
  159.9210  212.0570  151.6400 C   0  0  0  0  0  2  0  0  0  0  0  0
  160.3580  210.0100  154.9460 C   0  0  0  0  0  2  0  0  0  0  0  0
  160.6950  207.5170  154.9370 C   0  0  0  0  0  3  0  0  0  0  0  0
  162.4180  208.8740  150.4060 O   0  0  0  0  0  0  0  0  0  0  0  0
  162.0300  207.6750  150.9460 N   0  0  0  0  0  0  0  0  0  0  0  0
  161.5190  211.0840  149.9630 C   0  0  0  0  0  0  0  0  0  0  0  0
  159.6880  210.9280  153.9180 C   0  0  1  0  0  3  0  0  0  0  0  0
  161.0710  206.3480  154.2630 C   0  0  0  0  0  3  0  0  0  0  0  0
  161.5980  213.5000  148.5510 C   0  0  0  0  0  3  0  0  0  0  0  0
  162.2790  211.1870  148.7900 C   0  0  0  0  0  3  0  0  0  0  0  0
  160.5760  206.2260  147.8010 C   0  0  1  0  0  3  0  0  0  0  0  0
  161.4750  202.6480  148.5830 O   0  0  0  0  0  1  0  0  0  0  0  0
  160.3520  206.8450  146.5710 O   0  0  0  0  0  1  0  0  0  0  0  0
  160.5810  204.2690  150.0980 C   0  0  0  0  0  2  0  0  0  0  0  0
  161.7830  206.5340  150.0720 C   0  0  1  0  0  3  0  0  0  0  0  0
  160.8840  204.7390  147.5910 C   0  0  0  0  0  2  0  0  0  0  0  0
  160.5840  205.7270  150.5850 C   0  0  0  0  0  2  0  0  0  0  0  0
  161.6240  207.0070  148.6160 C   0  0  1  0  0  3  0  0  0  0  0  0
  162.9780  207.0370  147.9260 C   0  0  0  0  0  1  0  0  0  0  0  0
  161.4110  204.0170  148.8340 C   0  0  2  0  0  3  0  0  0  0  0  0
  159.1510  212.1800  154.6060 C   0  0  0  0  0  2  0  0  0  0  0  0
  160.0430  212.6310  155.5830 O   0  0  0  0  0  1  0  0  0  0  0  0
  1  3  2  0  0  0  0
  1  4  1  0  0  0  0
  2  5  1  0  0  0  0
  2  4  1  1  0  0  0
  3 18  1  0  0  0  0
  4 10  2  0  0  0  0
  5 11  1  6  0  0  0
  5 17  1  0  0  0  0
  6 19  2  0  0  0  0
  6 20  1  0  0  0  0
  7 16  1  6  0  0  0
  7  2  1  0  0  0  0
  8  9  2  0  0  0  0
  9 11  1  0  0  0  0
 10 13  1  0  0  0  0
 10 12  1  0  0  0  0
 14  7  1  0  0  0  0
 14 15  1  0  0  0  0
 15  1  1  0  0  0  0
 16  9  1  0  0  0  0
 17 31  1  1  0  0  0
 17 12  1  0  0  0  0
 18 13  2  0  0  0  0
 19  8  1  0  0  0  0
 20 16  2  0  0  0  0
 21 23  1  6  0  0  0
 21 28  1  0  0  0  0
 24 27  1  0  0  0  0
 25 27  1  1  0  0  0
 25 15  1  0  0  0  0
 26 21  1  0  0  0  0
 26 30  1  0  0  0  0
 28 29  1  6  0  0  0
 28 25  1  0  0  0  0
 30 22  1  6  0  0  0
 30 24  1  0  0  0  0
 31 32  1  0  0  0  0
M  END
>  <MODEL>
1

>  <REMARK>
 VINA RESULT:      -8.2      0.000      0.000
  Name = 
  2 active torsions:
  status: ('A' for Active; 'I' for Inactive)
    1  A    between atoms: C_13  and  C_29
    2  A    between atoms: C_16  and  N_27
                            x       y       z     vdW  Elec       q    Type
                         _______ _______ _______ _____ _____    ______ ____

>  <TORSDO>
F 2

$$$$
=
 OpenBabel11062408283D

 32 37  0  0  1  0  0  0  0  0999 V2000
  161.8700  209.9520  150.9510 C   0  0  0  0  0  0  0  0  0  0  0  0
  161.9410  207.5670  150.2340 C   0  0  2  0  0  3  0  0  0  0  0  0
  161.8960  211.2890  150.6900 N   0  0  0  0  0  0  0  0  0  0  0  0
  161.9910  209.0330  149.9040 C   0  0  0  0  0  0  0  0  0  0  0  0
  161.5610  206.6170  149.0600 C   0  0  1  0  0  3  0  0  0  0  0  0
  161.0710  204.0630  153.4310 C   0  0  0  0  0  3  0  0  0  0  0  0
  161.1530  207.3740  151.5420 C   0  0  2  0  0  3  0  0  0  0  0  0
  160.5920  203.6610  151.0890 C   0  0  0  0  0  3  0  0  0  0  0  0
  160.7390  205.0250  150.8240 C   0  0  0  0  0  0  0  0  0  0  0  0
  162.1110  209.4920  148.5900 C   0  0  0  0  0  0  0  0  0  0  0  0
  160.5080  205.5600  149.4400 C   0  0  0  0  0  2  0  0  0  0  0  0
  162.1530  208.5090  147.4640 C   0  0  0  0  0  2  0  0  0  0  0  0
  162.1630  210.8660  148.3450 C   0  0  0  0  0  3  0  0  0  0  0  0
  161.7970  208.1220  152.5500 O   0  0  0  0  0  0  0  0  0  0  0  0
  161.5610  209.4410  152.2620 N   0  0  0  0  0  0  0  0  0  0  0  0
  161.0540  205.9150  151.8670 C   0  0  0  0  0  0  0  0  0  0  0  0
  161.2010  207.3430  147.7490 C   0  0  1  0  0  3  0  0  0  0  0  0
  162.0570  211.7570  149.4210 C   0  0  0  0  0  3  0  0  0  0  0  0
  160.7640  203.1800  152.3910 C   0  0  0  0  0  3  0  0  0  0  0  0
  161.2090  205.4300  153.1730 C   0  0  0  0  0  3  0  0  0  0  0  0
  159.7490  209.8350  155.5290 C   0  0  1  0  0  3  0  0  0  0  0  0
  158.6620  213.3960  154.9290 O   0  0  0  0  0  1  0  0  0  0  0  0
  159.9390  209.1470  156.7270 O   0  0  0  0  0  1  0  0  0  0  0  0
  158.6320  211.6000  153.3500 C   0  0  0  0  0  2  0  0  0  0  0  0
  160.8170  210.2650  153.2080 C   0  0  1  0  0  3  0  0  0  0  0  0
  159.2700  211.2640  155.8150 C   0  0  0  0  0  2  0  0  0  0  0  0
  159.3480  210.3650  152.7790 C   0  0  0  0  0  2  0  0  0  0  0  0
  161.0010  209.7270  154.6380 C   0  0  1  0  0  3  0  0  0  0  0  0
  162.2190  210.3680  155.2850 C   0  0  0  0  0  1  0  0  0  0  0  0
  159.2880  212.1960  154.6010 C   0  0  2  0  0  3  0  0  0  0  0  0
  161.1800  206.3820  146.5630 C   0  0  0  0  0  2  0  0  0  0  0  0
  162.4440  205.8250  146.3530 O   0  0  0  0  0  1  0  0  0  0  0  0
  1 15  1  0  0  0  0
  2  4  1  6  0  0  0
  2  7  1  0  0  0  0
  3  1  1  0  0  0  0
  4  1  2  0  0  0  0
  5 11  1  1  0  0  0
  5  2  1  0  0  0  0
  7 16  1  1  0  0  0
  7 14  1  0  0  0  0
  8 19  1  0  0  0  0
  9  8  2  0  0  0  0
  9 16  1  0  0  0  0
 10  4  1  0  0  0  0
 11  9  1  0  0  0  0
 12 17  1  0  0  0  0
 12 10  1  0  0  0  0
 13 10  2  0  0  0  0
 13 18  1  0  0  0  0
 15 14  1  0  0  0  0
 16 20  2  0  0  0  0
 17 31  1  6  0  0  0
 17  5  1  0  0  0  0
 18  3  2  0  0  0  0
 19  6  2  0  0  0  0
 20  6  1  0  0  0  0
 21 26  1  0  0  0  0
 21 23  1  1  0  0  0
 24 30  1  0  0  0  0
 25 15  1  6  0  0  0
 25 28  1  0  0  0  0
 27 25  1  0  0  0  0
 27 24  1  0  0  0  0
 28 29  1  1  0  0  0
 28 21  1  0  0  0  0
 30 22  1  1  0  0  0
 30 26  1  0  0  0  0
 32 31  1  0  0  0  0
M  END
>  <MODEL>
2

>  <REMARK>
 VINA RESULT:      -8.1      1.734      7.716
  Name = 
  2 active torsions:
  status: ('A' for Active; 'I' for Inactive)
    1  A    between atoms: C_13  and  C_29
    2  A    between atoms: C_16  and  N_27
                            x       y       z     vdW  Elec       q    Type
                         _______ _______ _______ _____ _____    ______ ____

>  <TORSDO>
F 2

$$$$
=
 OpenBabel11062408283D

 32 37  0  0  1  0  0  0  0  0999 V2000
  161.3080  208.3350  153.7820 C   0  0  0  0  0  0  0  0  0  0  0  0
  161.0190  210.7150  153.1060 C   0  0  2  0  0  3  0  0  0  0  0  0
  161.1560  207.3060  154.6610 N   0  0  0  0  0  0  0  0  0  0  0  0
  160.8460  209.6130  154.1130 C   0  0  0  0  0  0  0  0  0  0  0  0
  160.0700  211.9400  153.2670 C   0  0  1  0  0  3  0  0  0  0  0  0
  162.1490  212.1040  148.6280 C   0  0  0  0  0  3  0  0  0  0  0  0
  161.0950  210.1010  151.6970 C   0  0  2  0  0  3  0  0  0  0  0  0
  160.4560  213.3380  149.8490 C   0  0  0  0  0  3  0  0  0  0  0  0
  160.4030  212.3210  150.8040 C   0  0  0  0  0  0  0  0  0  0  0  0
  160.2040  209.8210  155.3360 C   0  0  0  0  0  0  0  0  0  0  0  0
  159.4290  212.4000  151.9450 C   0  0  0  0  0  2  0  0  0  0  0  0
  159.6340  211.1660  155.6530 C   0  0  0  0  0  2  0  0  0  0  0  0
  160.0820  208.7600  156.2360 C   0  0  0  0  0  3  0  0  0  0  0  0
  162.1760  209.1940  151.6790 O   0  0  0  0  0  0  0  0  0  0  0  0
  161.7920  208.1210  152.4410 N   0  0  0  0  0  0  0  0  0  0  0  0
  161.2250  211.1880  150.6740 C   0  0  0  0  0  0  0  0  0  0  0  0
  159.0260  211.7890  154.3910 C   0  0  1  0  0  3  0  0  0  0  0  0
  160.5740  207.4990  155.8780 C   0  0  0  0  0  3  0  0  0  0  0  0
  161.3340  213.2330  148.7640 C   0  0  0  0  0  3  0  0  0  0  0  0
  162.0910  211.0780  149.5760 C   0  0  0  0  0  3  0  0  0  0  0  0
  160.4470  205.8700  149.7520 C   0  0  1  0  0  3  0  0  0  0  0  0
  161.8960  202.6880  151.1660 O   0  0  0  0  0  1  0  0  0  0  0  0
  160.0870  206.1850  148.4420 O   0  0  0  0  0  1  0  0  0  0  0  0
  160.8310  204.4480  152.3860 C   0  0  0  0  0  2  0  0  0  0  0  0
  161.6830  206.8020  151.8300 C   0  0  1  0  0  3  0  0  0  0  0  0
  160.9640  204.4270  149.8210 C   0  0  0  0  0  2  0  0  0  0  0  0
  160.6370  205.9610  152.5720 C   0  0  0  0  0  2  0  0  0  0  0  0
  161.3990  206.9380  150.3230 C   0  0  1  0  0  3  0  0  0  0  0  0
  162.7060  207.0100  149.5500 C   0  0  0  0  0  1  0  0  0  0  0  0
  161.6400  204.0570  151.1440 C   0  0  2  0  0  3  0  0  0  0  0  0
  158.3690  213.1240  154.7300 C   0  0  0  0  0  2  0  0  0  0  0  0
  156.9900  213.0680  154.5150 O   0  0  0  0  0  1  0  0  0  0  0  0
  1  4  2  0  0  0  0
  1  3  1  0  0  0  0
  2  5  1  0  0  0  0
  2  4  1  1  0  0  0
  3 18  2  0  0  0  0
  4 10  1  0  0  0  0
  5 11  1  6  0  0  0
  5 17  1  0  0  0  0
  6 19  2  0  0  0  0
  6 20  1  0  0  0  0
  7 16  1  6  0  0  0
  7  2  1  0  0  0  0
  8  9  2  0  0  0  0
  9 11  1  0  0  0  0
 10 12  1  0  0  0  0
 10 13  2  0  0  0  0
 14  7  1  0  0  0  0
 14 15  1  0  0  0  0
 15  1  1  0  0  0  0
 16  9  1  0  0  0  0
 17 31  1  1  0  0  0
 17 12  1  0  0  0  0
 18 13  1  0  0  0  0
 19  8  1  0  0  0  0
 20 16  2  0  0  0  0
 21 23  1  6  0  0  0
 21 26  1  0  0  0  0
 21 28  1  0  0  0  0
 24 27  1  0  0  0  0
 25 15  1  1  0  0  0
 25 27  1  0  0  0  0
 26 30  1  0  0  0  0
 28 29  1  6  0  0  0
 28 25  1  0  0  0  0
 30 22  1  6  0  0  0
 30 24  1  0  0  0  0
 32 31  1  0  0  0  0
M  END
>  <MODEL>
3

>  <REMARK>
 VINA RESULT:      -7.5      1.354      1.668
  Name = 
  2 active torsions:
  status: ('A' for Active; 'I' for Inactive)
    1  A    between atoms: C_13  and  C_29
    2  A    between atoms: C_16  and  N_27
                            x       y       z     vdW  Elec       q    Type
                         _______ _______ _______ _____ _____    ______ ____

>  <TORSDO>
F 2

$$$$
=
 OpenBabel11062408283D

 32 37  0  0  1  0  0  0  0  0999 V2000
  161.9220  208.6960  151.2550 C   0  0  0  0  0  0  0  0  0  0  0  0
  161.9510  206.5590  149.9760 C   0  0  2  0  0  3  0  0  0  0  0  0
  161.9120  210.0570  151.3270 N   0  0  0  0  0  0  0  0  0  0  0  0
  161.9590  208.0620  150.0100 C   0  0  0  0  0  0  0  0  0  0  0  0
  161.4770  205.9090  148.6420 C   0  0  1  0  0  3  0  0  0  0  0  0
  161.4010  202.3610  152.2850 C   0  0  0  0  0  3  0  0  0  0  0  0
  161.2840  206.0320  151.2590 C   0  0  2  0  0  3  0  0  0  0  0  0
  160.7190  202.5230  149.9640 C   0  0  0  0  0  3  0  0  0  0  0  0
  160.8300  203.9140  150.0280 C   0  0  0  0  0  0  0  0  0  0  0  0
  161.9560  208.8280  148.8420 C   0  0  0  0  0  0  0  0  0  0  0  0
  160.4720  204.7610  148.8410 C   0  0  0  0  0  2  0  0  0  0  0  0
  161.9080  208.1490  147.5110 C   0  0  0  0  0  2  0  0  0  0  0  0
  161.9740  210.2220  148.9360 C   0  0  0  0  0  3  0  0  0  0  0  0
  162.0090  206.5320  152.3610 O   0  0  0  0  0  0  0  0  0  0  0  0
  161.7360  207.8740  152.4240 N   0  0  0  0  0  0  0  0  0  0  0  0
  161.2280  204.5340  151.2250 C   0  0  0  0  0  0  0  0  0  0  0  0
  160.9950  206.9200  147.5830 C   0  0  1  0  0  3  0  0  0  0  0  0
  161.9560  210.8220  150.2010 C   0  0  0  0  0  3  0  0  0  0  0  0
  161.0110  201.7460  151.0900 C   0  0  0  0  0  3  0  0  0  0  0  0
  161.5030  203.7530  152.3560 C   0  0  0  0  0  3  0  0  0  0  0  0
  161.8910  209.2510  155.9150 C   0  0  1  0  0  3  0  0  0  0  0  0
  158.1600  209.5850  156.3550 O   0  0  0  0  0  1  0  0  0  0  0  0
  162.9320  209.9350  156.5440 O   0  0  0  0  0  1  0  0  0  0  0  0
  159.3310  207.7520  155.3610 C   0  0  0  0  0  2  0  0  0  0  0  0
  161.0720  208.4220  153.6010 C   0  0  1  0  0  3  0  0  0  0  0  0
  160.5410  209.7300  156.4640 C   0  0  0  0  0  2  0  0  0  0  0  0
  160.4780  207.2890  154.4470 C   0  0  0  0  0  2  0  0  0  0  0  0
  162.0430  209.3240  154.3840 C   0  0  1  0  0  3  0  0  0  0  0  0
  161.9570  210.7530  153.8690 C   0  0  0  0  0  1  0  0  0  0  0  0
  159.3250  209.2540  155.6660 C   0  0  2  0  0  3  0  0  0  0  0  0
  160.8770  206.2750  146.2040 C   0  0  0  0  0  2  0  0  0  0  0  0
  162.1230  205.8280  145.7570 O   0  0  0  0  0  1  0  0  0  0  0  0
  1  3  1  0  0  0  0
  1 15  1  0  0  0  0
  2  4  1  6  0  0  0
  2  7  1  0  0  0  0
  4  1  2  0  0  0  0
  5 11  1  1  0  0  0
  5  2  1  0  0  0  0
  6 20  1  0  0  0  0
  7 16  1  6  0  0  0
  7 14  1  0  0  0  0
  8  9  2  0  0  0  0
  8 19  1  0  0  0  0
  9 16  1  0  0  0  0
 10 13  2  0  0  0  0
 10  4  1  0  0  0  0
 11  9  1  0  0  0  0
 12 17  1  0  0  0  0
 12 10  1  0  0  0  0
 13 18  1  0  0  0  0
 14 15  1  0  0  0  0
 16 20  2  0  0  0  0
 17 31  1  6  0  0  0
 17  5  1  0  0  0  0
 18  3  2  0  0  0  0
 19  6  2  0  0  0  0
 21 26  1  0  0  0  0
 21 23  1  1  0  0  0
 24 30  1  0  0  0  0
 25 15  1  6  0  0  0
 25 28  1  0  0  0  0
 25 27  1  0  0  0  0
 27 24  1  0  0  0  0
 28 29  1  6  0  0  0
 28 21  1  0  0  0  0
 30 22  1  1  0  0  0
 30 26  1  0  0  0  0
 32 31  1  0  0  0  0
M  END
>  <MODEL>
4

>  <REMARK>
 VINA RESULT:      -6.8      1.987      7.687
  Name = 
  2 active torsions:
  status: ('A' for Active; 'I' for Inactive)
    1  A    between atoms: C_13  and  C_29
    2  A    between atoms: C_16  and  N_27
                            x       y       z     vdW  Elec       q    Type
                         _______ _______ _______ _____ _____    ______ ____

>  <TORSDO>
F 2

$$$$
=
 OpenBabel11062408283D

 32 37  0  0  1  0  0  0  0  0999 V2000
  161.9040  209.4240  151.1860 C   0  0  0  0  0  0  0  0  0  0  0  0
  161.9220  207.1800  150.1040 C   0  0  2  0  0  3  0  0  0  0  0  0
  161.9230  210.7850  151.1350 N   0  0  0  0  0  0  0  0  0  0  0  0
  161.9630  208.6780  150.0040 C   0  0  0  0  0  0  0  0  0  0  0  0
  161.4730  206.4210  148.8200 C   0  0  1  0  0  3  0  0  0  0  0  0
  161.2080  203.2190  152.7620 C   0  0  0  0  0  3  0  0  0  0  0  0
  161.2060  206.7830  151.4080 C   0  0  2  0  0  3  0  0  0  0  0  0
  160.5990  203.1840  150.4160 C   0  0  0  0  0  3  0  0  0  0  0  0
  160.7400  204.5730  150.3590 C   0  0  0  0  0  0  0  0  0  0  0  0
  162.0130  209.3360  148.7730 C   0  0  0  0  0  0  0  0  0  0  0  0
  160.4370  205.3160  149.0890 C   0  0  0  0  0  2  0  0  0  0  0  0
  161.9880  208.5410  147.5070 C   0  0  0  0  0  2  0  0  0  0  0  0
  162.0600  210.7320  148.7420 C   0  0  0  0  0  3  0  0  0  0  0  0
  161.9090  207.3670  152.4830 O   0  0  0  0  0  0  0  0  0  0  0  0
  161.6650  208.7140  152.4170 N   0  0  0  0  0  0  0  0  0  0  0  0
  161.1170  205.2910  151.5070 C   0  0  0  0  0  0  0  0  0  0  0  0
  161.0460  207.3410  147.6600 C   0  0  1  0  0  3  0  0  0  0  0  0
  162.0180  211.4440  149.9460 C   0  0  0  0  0  3  0  0  0  0  0  0
  160.8400  202.5070  151.6160 C   0  0  0  0  0  3  0  0  0  0  0  0
  161.3400  204.6100  152.7120 C   0  0  0  0  0  3  0  0  0  0  0  0
  160.2820  211.8280  153.9960 C   0  0  1  0  0  3  0  0  0  0  0  0
  159.2320  210.1820  157.2220 O   0  0  0  0  0  1  0  0  0  0  0  0
  159.8000  212.9840  153.3820 O   0  0  0  0  0  1  0  0  0  0  0  0
  161.2730  209.8280  156.0260 C   0  0  0  0  0  2  0  0  0  0  0  0
  160.9790  209.3790  153.5190 C   0  0  1  0  0  3  0  0  0  0  0  0
  159.5440  211.5900  155.3190 C   0  0  0  0  0  2  0  0  0  0  0  0
  161.9620  209.6530  154.6640 C   0  0  0  0  0  2  0  0  0  0  0  0
  160.2660  210.6450  153.0100 C   0  0  1  0  0  3  0  0  0  0  0  0
  158.8570  210.3020  152.5530 C   0  0  0  0  0  1  0  0  0  0  0  0
  159.7920  210.2160  155.9470 C   0  0  2  0  0  3  0  0  0  0  0  0
  160.9550  206.5770  146.3420 C   0  0  0  0  0  2  0  0  0  0  0  0
  162.1780  205.9800  146.0280 O   0  0  0  0  0  1  0  0  0  0  0  0
  1 15  1  0  0  0  0
  2  4  1  6  0  0  0
  2  7  1  0  0  0  0
  3  1  1  0  0  0  0
  4  1  2  0  0  0  0
  5 11  1  1  0  0  0
  5  2  1  0  0  0  0
  7 16  1  1  0  0  0
  7 14  1  0  0  0  0
  8 19  1  0  0  0  0
  9  8  2  0  0  0  0
  9 16  1  0  0  0  0
 10  4  1  0  0  0  0
 11  9  1  0  0  0  0
 12 17  1  0  0  0  0
 12 10  1  0  0  0  0
 13 10  2  0  0  0  0
 13 18  1  0  0  0  0
 15 14  1  0  0  0  0
 16 20  2  0  0  0  0
 17 31  1  6  0  0  0
 17  5  1  0  0  0  0
 18  3  2  0  0  0  0
 19  6  2  0  0  0  0
 20  6  1  0  0  0  0
 21 23  1  6  0  0  0
 21 26  1  0  0  0  0
 25 15  1  6  0  0  0
 25 27  1  0  0  0  0
 26 30  1  0  0  0  0
 27 24  1  0  0  0  0
 28 29  1  1  0  0  0
 28 25  1  0  0  0  0
 28 21  1  0  0  0  0
 30 24  1  0  0  0  0
 30 22  1  1  0  0  0
 32 31  1  0  0  0  0
M  END
>  <MODEL>
5

>  <REMARK>
 VINA RESULT:      -6.1      1.759      7.581
  Name = 
  2 active torsions:
  status: ('A' for Active; 'I' for Inactive)
    1  A    between atoms: C_13  and  C_29
    2  A    between atoms: C_16  and  N_27
                            x       y       z     vdW  Elec       q    Type
                         _______ _______ _______ _____ _____    ______ ____

>  <TORSDO>
F 2

$$$$
=
 OpenBabel11062408283D

 32 37  0  0  1  0  0  0  0  0999 V2000
  161.9240  207.5380  151.1770 C   0  0  0  0  0  0  0  0  0  0  0  0
  161.7180  209.9880  151.5800 C   0  0  2  0  0  3  0  0  0  0  0  0
  161.8480  206.2400  151.5840 N   0  0  0  0  0  0  0  0  0  0  0  0
  161.6380  208.5710  152.0750 C   0  0  0  0  0  0  0  0  0  0  0  0
  160.9200  211.0430  152.4020 C   0  0  1  0  0  3  0  0  0  0  0  0
  162.1300  213.0780  147.9000 C   0  0  0  0  0  3  0  0  0  0  0  0
  161.4860  210.0010  150.0580 C   0  0  2  0  0  3  0  0  0  0  0  0
  160.7960  213.7120  149.8230 C   0  0  0  0  0  3  0  0  0  0  0  0
  160.8310  212.3940  150.2830 C   0  0  0  0  0  0  0  0  0  0  0  0
  161.2490  208.2650  153.3810 C   0  0  0  0  0  0  0  0  0  0  0  0
  160.0910  212.0040  151.5300 C   0  0  0  0  0  2  0  0  0  0  0  0
  160.8600  209.3650  154.3150 C   0  0  0  0  0  2  0  0  0  0  0  0
  161.2040  206.9290  153.7880 C   0  0  0  0  0  3  0  0  0  0  0  0
  162.4660  209.1770  149.4640 O   0  0  0  0  0  0  0  0  0  0  0  0
  162.1370  207.8890  149.7950 N   0  0  0  0  0  0  0  0  0  0  0  0
  161.5190  211.4100  149.5500 C   0  0  0  0  0  0  0  0  0  0  0  0
  160.0880  210.4500  153.5550 C   0  0  1  0  0  3  0  0  0  0  0  0
  161.5150  205.9220  152.8660 C   0  0  0  0  0  3  0  0  0  0  0  0
  161.4500  214.0560  148.6350 C   0  0  0  0  0  3  0  0  0  0  0  0
  162.1600  211.7560  148.3520 C   0  0  0  0  0  3  0  0  0  0  0  0
  161.5800  204.3540  148.6530 C   0  0  1  0  0  3  0  0  0  0  0  0
  161.0470  205.2110  145.0200 O   0  0  0  0  0  1  0  0  0  0  0  0
  161.1390  203.2530  149.3880 O   0  0  0  0  0  1  0  0  0  0  0  0
  162.7060  206.1220  146.4820 C   0  0  0  0  0  2  0  0  0  0  0  0
  161.8090  206.9330  148.7430 C   0  0  1  0  0  3  0  0  0  0  0  0
  161.1250  204.2280  147.1940 C   0  0  0  0  0  2  0  0  0  0  0  0
  163.0480  206.6470  147.8860 C   0  0  0  0  0  2  0  0  0  0  0  0
  161.1840  205.6670  149.3550 C   0  0  1  0  0  3  0  0  0  0  0  0
  159.6750  205.8270  149.4570 C   0  0  0  0  0  1  0  0  0  0  0  0
  161.3130  205.4950  146.3570 C   0  0  2  0  0  3  0  0  0  0  0  0
  159.6180  211.5320  154.5230 C   0  0  0  0  0  2  0  0  0  0  0  0
  160.6270  211.8580  155.4320 O   0  0  0  0  0  1  0  0  0  0  0  0
  1  3  2  0  0  0  0
  1  4  1  0  0  0  0
  2  4  1  1  0  0  0
  2  5  1  0  0  0  0
  3 18  1  0  0  0  0
  4 10  2  0  0  0  0
  5 11  1  6  0  0  0
  5 17  1  0  0  0  0
  6 20  2  0  0  0  0
  6 19  1  0  0  0  0
  7 14  1  6  0  0  0
  7  2  1  0  0  0  0
  8  9  1  0  0  0  0
  9 11  1  0  0  0  0
 10 13  1  0  0  0  0
 10 12  1  0  0  0  0
 14 15  1  0  0  0  0
 15  1  1  0  0  0  0
 16  7  1  0  0  0  0
 16  9  2  0  0  0  0
 17 12  1  0  0  0  0
 17 31  1  1  0  0  0
 18 13  2  0  0  0  0
 19  8  2  0  0  0  0
 20 16  1  0  0  0  0
 21 28  1  0  0  0  0
 21 23  1  1  0  0  0
 24 27  1  0  0  0  0
 25 27  1  1  0  0  0
 25 28  1  0  0  0  0
 25 15  1  0  0  0  0
 26 21  1  0  0  0  0
 28 29  1  6  0  0  0
 30 22  1  6  0  0  0
 30 24  1  0  0  0  0
 30 26  1  0  0  0  0
 31 32  1  0  0  0  0
M  END
>  <MODEL>
6

>  <REMARK>
 VINA RESULT:      -6.0      1.006      2.000
  Name = 
  2 active torsions:
  status: ('A' for Active; 'I' for Inactive)
    1  A    between atoms: C_13  and  C_29
    2  A    between atoms: C_16  and  N_27
                            x       y       z     vdW  Elec       q    Type
                         _______ _______ _______ _____ _____    ______ ____

>  <TORSDO>
F 2

$$$$
=
 OpenBabel11062408283D

 32 37  0  0  1  0  0  0  0  0999 V2000
  160.5220  211.8520  151.5530 C   0  0  0  0  0  0  0  0  0  0  0  0
  161.5740  209.6020  151.3640 C   0  0  2  0  0  3  0  0  0  0  0  0
  160.1950  213.0740  151.0480 N   0  0  0  0  0  0  0  0  0  0  0  0
  161.2490  210.9450  150.7750 C   0  0  0  0  0  0  0  0  0  0  0  0
  161.9020  208.4710  150.3450 C   0  0  1  0  0  3  0  0  0  0  0  0
  160.9360  206.3430  154.8610 C   0  0  0  0  0  3  0  0  0  0  0  0
  160.5270  209.2590  152.4390 C   0  0  2  0  0  3  0  0  0  0  0  0
  161.3590  205.5730  152.6020 C   0  0  0  0  0  3  0  0  0  0  0  0
  161.1340  206.8640  152.1190 C   0  0  0  0  0  0  0  0  0  0  0  0
  161.6130  211.2890  149.4710 C   0  0  0  0  0  0  0  0  0  0  0  0
  161.1820  207.1440  150.6450 C   0  0  0  0  0  2  0  0  0  0  0  0
  162.3150  210.2880  148.6100 C   0  0  0  0  0  2  0  0  0  0  0  0
  161.2940  212.5570  148.9810 C   0  0  0  0  0  3  0  0  0  0  0  0
  160.5520  210.2830  153.4100 O   0  0  0  0  0  0  0  0  0  0  0  0
  160.0050  211.3900  152.8160 N   0  0  0  0  0  0  0  0  0  0  0  0
  160.8080  207.9020  153.0100 C   0  0  0  0  0  0  0  0  0  0  0  0
  161.7500  208.8870  148.8680 C   0  0  1  0  0  3  0  0  0  0  0  0
  160.5810  213.4460  149.7950 C   0  0  0  0  0  3  0  0  0  0  0  0
  161.2660  205.3140  153.9730 C   0  0  0  0  0  3  0  0  0  0  0  0
  160.7000  207.6340  154.3820 C   0  0  0  0  0  3  0  0  0  0  0  0
  158.2270  213.3650  155.4710 C   0  0  1  0  0  3  0  0  0  0  0  0
  154.7710  212.9050  154.0330 O   0  0  0  0  0  1  0  0  0  0  0  0
  158.7260  214.3710  156.2990 O   0  0  0  0  0  1  0  0  0  0  0  0
  156.4810  211.2430  154.2240 C   0  0  0  0  0  2  0  0  0  0  0  0
  158.7820  211.9710  153.3590 C   0  0  1  0  0  3  0  0  0  0  0  0
  156.7410  213.6110  155.1840 C   0  0  0  0  0  2  0  0  0  0  0  0
  157.9750  210.9020  154.1040 C   0  0  0  0  0  2  0  0  0  0  0  0
  159.1190  213.1980  154.2260 C   0  0  1  0  0  3  0  0  0  0  0  0
  159.1440  214.4530  153.3680 C   0  0  0  0  0  1  0  0  0  0  0  0
  156.1530  212.7330  154.0760 C   0  0  2  0  0  3  0  0  0  0  0  0
  162.4060  207.8780  147.9300 C   0  0  0  0  0  2  0  0  0  0  0  0
  161.4510  207.0260  147.3700 O   0  0  0  0  0  1  0  0  0  0  0  0
  1 15  1  0  0  0  0
  2  4  1  6  0  0  0
  2  7  1  0  0  0  0
  3  1  1  0  0  0  0
  4  1  2  0  0  0  0
  5 11  1  1  0  0  0
  5  2  1  0  0  0  0
  7 16  1  1  0  0  0
  7 14  1  0  0  0  0
  8 19  1  0  0  0  0
  9  8  2  0  0  0  0
  9 16  1  0  0  0  0
 10  4  1  0  0  0  0
 11  9  1  0  0  0  0
 12 17  1  0  0  0  0
 12 10  1  0  0  0  0
 13 10  2  0  0  0  0
 13 18  1  0  0  0  0
 15 14  1  0  0  0  0
 16 20  2  0  0  0  0
 17 31  1  6  0  0  0
 17  5  1  0  0  0  0
 18  3  2  0  0  0  0
 19  6  2  0  0  0  0
 20  6  1  0  0  0  0
 21 23  1  6  0  0  0
 25 15  1  1  0  0  0
 25 27  1  0  0  0  0
 25 28  1  0  0  0  0
 26 21  1  0  0  0  0
 27 24  1  0  0  0  0
 28 29  1  6  0  0  0
 28 21  1  0  0  0  0
 30 22  1  1  0  0  0
 30 24  1  0  0  0  0
 30 26  1  0  0  0  0
 32 31  1  0  0  0  0
M  END
>  <MODEL>
7

>  <REMARK>
 VINA RESULT:      -5.7      2.262      7.930
  Name = 
  2 active torsions:
  status: ('A' for Active; 'I' for Inactive)
    1  A    between atoms: C_13  and  C_29
    2  A    between atoms: C_16  and  N_27
                            x       y       z     vdW  Elec       q    Type
                         _______ _______ _______ _____ _____    ______ ____

>  <TORSDO>
F 2

$$$$
=
 OpenBabel11062408283D

 32 37  0  0  1  0  0  0  0  0999 V2000
  157.9120  212.7100  153.6630 C   0  0  0  0  0  0  0  0  0  0  0  0
  157.8280  213.8390  151.4440 C   0  0  2  0  0  3  0  0  0  0  0  0
  157.3330  212.2870  154.8210 N   0  0  0  0  0  0  0  0  0  0  0  0
  157.1550  213.4050  152.7150 C   0  0  0  0  0  0  0  0  0  0  0  0
  156.8880  214.1240  150.2360 C   0  0  1  0  0  3  0  0  0  0  0  0
  161.6450  213.6550  148.5010 C   0  0  0  0  0  3  0  0  0  0  0  0
  159.0210  212.9070  151.1650 C   0  0  2  0  0  3  0  0  0  0  0  0
  159.4340  213.9100  147.5410 C   0  0  0  0  0  3  0  0  0  0  0  0
  158.8610  213.5870  148.7740 C   0  0  0  0  0  0  0  0  0  0  0  0
  155.7970  213.6370  152.9490 C   0  0  0  0  0  0  0  0  0  0  0  0
  157.3690  213.4930  148.9170 C   0  0  0  0  0  2  0  0  0  0  0  0
  154.9680  214.3030  151.8990 C   0  0  0  0  0  2  0  0  0  0  0  0
  155.2280  213.2200  154.1540 C   0  0  0  0  0  3  0  0  0  0  0  0
  159.8910  212.9730  152.2740 O   0  0  0  0  0  0  0  0  0  0  0  0
  159.2540  212.3280  153.3020 N   0  0  0  0  0  0  0  0  0  0  0  0
  159.6830  213.2960  149.8780 C   0  0  0  0  0  0  0  0  0  0  0  0
  155.4000  213.8250  150.5080 C   0  0  1  0  0  3  0  0  0  0  0  0
  156.0220  212.5440  155.0880 C   0  0  0  0  0  3  0  0  0  0  0  0
  160.8260  213.9510  147.4070 C   0  0  0  0  0  3  0  0  0  0  0  0
  161.0770  213.3220  149.7340 C   0  0  0  0  0  3  0  0  0  0  0  0
  162.0360  210.6660  155.2000 C   0  0  1  0  0  3  0  0  0  0  0  0
  160.6710  207.1650  154.8830 O   0  0  0  0  0  1  0  0  0  0  0  0
  162.8940  211.2100  156.1570 O   0  0  0  0  0  1  0  0  0  0  0  0
  160.7460  208.8380  153.1750 C   0  0  0  0  0  2  0  0  0  0  0  0
  159.8530  211.1340  153.8870 C   0  0  1  0  0  3  0  0  0  0  0  0
  161.8000  209.1790  155.4920 C   0  0  0  0  0  2  0  0  0  0  0  0
  160.5730  210.3200  152.8050 C   0  0  0  0  0  2  0  0  0  0  0  0
  160.7630  211.5220  155.0660 C   0  0  1  0  0  3  0  0  0  0  0  0
  159.9590  211.5550  156.3570 C   0  0  0  0  0  1  0  0  0  0  0  0
  160.6710  208.5430  154.6770 C   0  0  2  0  0  3  0  0  0  0  0  0
  154.4990  214.4390  149.4400 C   0  0  0  0  0  2  0  0  0  0  0  0
  153.1590  214.3880  149.8310 O   0  0  0  0  0  1  0  0  0  0  0  0
  1  3  1  0  0  0  0
  2  4  1  1  0  0  0
  3 18  2  0  0  0  0
  4 10  1  0  0  0  0
  4  1  2  0  0  0  0
  5 11  1  6  0  0  0
  5 17  1  0  0  0  0
  5  2  1  0  0  0  0
  6 20  1  0  0  0  0
  7 16  1  6  0  0  0
  7  2  1  0  0  0  0
  7 14  1  0  0  0  0
  8  9  2  0  0  0  0
  9 11  1  0  0  0  0
  9 16  1  0  0  0  0
 10 13  2  0  0  0  0
 12 10  1  0  0  0  0
 13 18  1  0  0  0  0
 14 15  1  0  0  0  0
 15  1  1  0  0  0  0
 15 25  1  0  0  0  0
 17 31  1  6  0  0  0
 17 12  1  0  0  0  0
 19  8  1  0  0  0  0
 19  6  2  0  0  0  0
 20 16  2  0  0  0  0
 21 26  1  0  0  0  0
 21 23  1  1  0  0  0
 24 30  1  0  0  0  0
 25 27  1  6  0  0  0
 25 28  1  0  0  0  0
 27 24  1  0  0  0  0
 28 21  1  0  0  0  0
 28 29  1  1  0  0  0
 30 22  1  6  0  0  0
 30 26  1  0  0  0  0
 31 32  1  0  0  0  0
M  END
>  <MODEL>
8

>  <REMARK>
 VINA RESULT:      -5.7      4.074      6.575
  Name = 
  2 active torsions:
  status: ('A' for Active; 'I' for Inactive)
    1  A    between atoms: C_13  and  C_29
    2  A    between atoms: C_16  and  N_27
                            x       y       z     vdW  Elec       q    Type
                         _______ _______ _______ _____ _____    ______ ____

>  <TORSDO>
F 2

$$$$
=
 OpenBabel11062408283D

 32 37  0  0  1  0  0  0  0  0999 V2000
  161.7010  205.2410  150.0530 C   0  0  0  0  0  0  0  0  0  0  0  0
  161.8740  207.4340  151.2220 C   0  0  2  0  0  3  0  0  0  0  0  0
  161.4760  203.8980  150.0400 N   0  0  0  0  0  0  0  0  0  0  0  0
  161.6360  205.9510  151.2560 C   0  0  0  0  0  0  0  0  0  0  0  0
  161.3000  208.2450  152.4210 C   0  0  1  0  0  3  0  0  0  0  0  0
  162.4250  211.4890  148.6700 C   0  0  0  0  0  3  0  0  0  0  0  0
  161.5270  207.9660  149.8190 C   0  0  2  0  0  3  0  0  0  0  0  0
  161.3490  211.6040  150.8390 C   0  0  0  0  0  3  0  0  0  0  0  0
  161.2350  210.2120  150.8570 C   0  0  0  0  0  0  0  0  0  0  0  0
  161.3110  205.2810  152.4370 C   0  0  0  0  0  0  0  0  0  0  0  0
  160.5480  209.5200  151.9990 C   0  0  0  0  0  2  0  0  0  0  0  0
  161.1550  206.0530  153.7080 C   0  0  0  0  0  2  0  0  0  0  0  0
  161.1110  203.8990  152.4100 C   0  0  0  0  0  3  0  0  0  0  0  0
  162.3320  207.2790  148.8850 O   0  0  0  0  0  0  0  0  0  0  0  0
  161.8520  205.9970  148.8340 N   0  0  0  0  0  0  0  0  0  0  0  0
  161.7180  209.4520  149.7770 C   0  0  0  0  0  0  0  0  0  0  0  0
  160.4860  207.4020  153.4230 C   0  0  1  0  0  3  0  0  0  0  0  0
  161.2040  203.2180  151.1890 C   0  0  0  0  0  3  0  0  0  0  0  0
  161.9500  212.2420  149.7480 C   0  0  0  0  0  3  0  0  0  0  0  0
  162.3040  210.0970  148.6780 C   0  0  0  0  0  3  0  0  0  0  0  0
  162.3640  204.6530  145.3640 C   0  0  1  0  0  3  0  0  0  0  0  0
  158.6990  204.4070  144.5110 O   0  0  0  0  0  1  0  0  0  0  0  0
  163.4540  203.9530  144.8450 O   0  0  0  0  0  1  0  0  0  0  0  0
  159.7910  206.2030  145.6520 C   0  0  0  0  0  2  0  0  0  0  0  0
  161.3120  205.4760  147.5840 C   0  0  1  0  0  3  0  0  0  0  0  0
  161.0740  204.2100  144.6630 C   0  0  0  0  0  2  0  0  0  0  0  0
  160.8390  206.6300  146.6920 C   0  0  0  0  0  2  0  0  0  0  0  0
  162.3440  204.5600  146.9020 C   0  0  1  0  0  3  0  0  0  0  0  0
  162.1720  203.1290  147.3850 C   0  0  0  0  0  1  0  0  0  0  0  0
  159.7870  204.7050  145.3280 C   0  0  2  0  0  3  0  0  0  0  0  0
  160.2500  208.1560  154.7290 C   0  0  0  0  0  2  0  0  0  0  0  0
  159.8010  207.2890  155.7280 O   0  0  0  0  0  1  0  0  0  0  0  0
  1  4  1  0  0  0  0
  2  4  1  6  0  0  0
  2  5  1  0  0  0  0
  3  1  2  0  0  0  0
  3 18  1  0  0  0  0
  4 10  2  0  0  0  0
  5 11  1  6  0  0  0
  5 17  1  0  0  0  0
  6 20  2  0  0  0  0
  6 19  1  0  0  0  0
  7 14  1  6  0  0  0
  7  2  1  0  0  0  0
  8  9  1  0  0  0  0
  9 11  1  0  0  0  0
 10 12  1  0  0  0  0
 13 10  1  0  0  0  0
 15 14  1  0  0  0  0
 15  1  1  0  0  0  0
 16  7  1  0  0  0  0
 16  9  2  0  0  0  0
 17 12  1  0  0  0  0
 17 31  1  1  0  0  0
 18 13  2  0  0  0  0
 19  8  2  0  0  0  0
 20 16  1  0  0  0  0
 21 23  1  6  0  0  0
 21 28  1  0  0  0  0
 24 27  1  0  0  0  0
 25 27  1  6  0  0  0
 25 15  1  0  0  0  0
 26 30  1  0  0  0  0
 26 21  1  0  0  0  0
 28 29  1  6  0  0  0
 28 25  1  0  0  0  0
 30 22  1  6  0  0  0
 30 24  1  0  0  0  0
 31 32  1  0  0  0  0
M  END
>  <MODEL>
9

>  <REMARK>
 VINA RESULT:      -5.6      2.191      3.468
  Name = 
  2 active torsions:
  status: ('A' for Active; 'I' for Inactive)
    1  A    between atoms: C_13  and  C_29
    2  A    between atoms: C_16  and  N_27
                            x       y       z     vdW  Elec       q    Type
                         _______ _______ _______ _____ _____    ______ ____

>  <TORSDO>
F 2

$$$$
