=
 OpenBabel11062407533D

 34 39  0  0  1  0  0  0  0  0999 V2000
  160.8890  206.9940  153.3000 C   0  0  0  0  0  0  0  0  0  0  0  0
  161.6210  209.2750  153.6960 C   0  0  0  0  0  0  0  0  0  0  0  0
  161.6490  208.2930  151.3620 C   0  0  0  0  0  0  0  0  0  0  0  0
  162.1570  209.4530  149.2950 C   0  0  0  0  0  0  0  0  0  0  0  0
  160.5970  207.9910  155.4820 C   0  0  0  0  0  3  0  0  0  0  0  0
  161.1900  209.1620  155.0230 C   0  0  0  0  0  3  0  0  0  0  0  0
  161.3920  210.8720  150.9840 C   0  0  0  0  0  2  0  0  0  0  0  0
  161.3690  208.2260  152.7680 C   0  0  0  0  0  0  0  0  0  0  0  0
  162.1760  210.7810  148.6500 C   0  0  0  0  0  2  0  0  0  0  0  0
  160.4760  206.8990  154.6290 C   0  0  0  0  0  3  0  0  0  0  0  0
  161.6980  207.0780  150.6130 C   0  0  0  0  0  0  0  0  0  0  0  0
  160.8670  205.8410  152.5220 C   0  0  0  0  0  3  0  0  0  0  0  0
  162.3840  210.3860  153.3730 O   0  0  0  0  0  1  0  0  0  0  0  0
  162.2990  208.2860  148.6270 N   0  0  0  0  0  0  0  0  0  0  0  0
  162.0820  207.0970  149.2510 C   0  0  0  0  0  0  0  0  0  0  0  0
  161.7910  211.7350  149.7840 C   0  0  1  0  0  3  0  0  0  0  0  0
  161.8130  209.4920  150.6230 C   0  0  0  0  0  0  0  0  0  0  0  0
  161.3000  205.8760  151.2050 C   0  0  0  0  0  3  0  0  0  0  0  0
  162.1870  204.8110  146.1700 C   0  0  2  0  0  3  0  0  0  0  0  0
  161.1330  203.8060  146.6250 C   0  0  0  0  0  2  0  0  0  0  0  0
  162.1980  205.8260  148.4600 C   0  0  2  0  0  3  0  0  0  0  0  0
  161.2880  203.5190  148.1160 C   0  0  0  0  0  2  0  0  0  0  0  0
  162.0590  206.1080  146.9640 C   0  0  0  0  0  2  0  0  0  0  0  0
  161.1530  204.8090  148.9180 C   0  0  0  0  0  2  0  0  0  0  0  0
  162.0070  205.1020  144.6950 C   0  0  0  0  0  1  0  0  0  0  0  0
  160.4920  212.9880  148.1160 C   0  0  0  0  0  3  0  0  0  0  0  0
  160.6420  212.5990  149.3810 C   0  0  0  0  0  3  0  0  0  0  0  0
  157.8380  213.5030  149.5360 O   0  0  0  0  0  0  0  0  0  0  0  0
  159.3400  213.8550  147.7100 C   0  0  2  0  0  3  0  0  0  0  0  0
  158.0680  213.3260  148.3110 C   0  0  0  0  0  0  0  0  0  0  0  0
  157.2020  212.5540  146.0660 C   0  0  0  0  0  2  0  0  0  0  0  0
  158.6380  212.6940  145.5770 C   0  0  0  0  0  2  0  0  0  0  0  0
  159.2450  213.9560  146.1820 C   0  0  0  0  0  2  0  0  0  0  0  0
  157.1530  212.5570  147.5240 N   0  0  0  0  0  2  0  0  0  0  0  0
  1 10  2  0  0  0  0
  2  6  1  0  0  0  0
  3  8  1  0  0  0  0
  4 17  2  0  0  0  0
  6  5  2  0  0  0  0
  8  1  1  0  0  0  0
  8  2  2  0  0  0  0
  9  4  1  0  0  0  0
  9 16  1  0  0  0  0
 10  5  1  0  0  0  0
 11 18  1  0  0  0  0
 11  3  2  0  0  0  0
 12  1  1  0  0  0  0
 13  2  1  0  0  0  0
 14 15  2  0  0  0  0
 14  4  1  0  0  0  0
 15 11  1  0  0  0  0
 16 27  1  6  0  0  0
 16  7  1  0  0  0  0
 17  7  1  0  0  0  0
 17  3  1  0  0  0  0
 18 12  2  0  0  0  0
 19 25  1  6  0  0  0
 19 20  1  0  0  0  0
 19 23  1  0  0  0  0
 20 22  1  0  0  0  0
 21 24  1  0  0  0  0
 21 15  1  1  0  0  0
 22 24  1  0  0  0  0
 23 21  1  0  0  0  0
 26 27  2  0  0  0  0
 29 26  1  6  0  0  0
 29 30  1  0  0  0  0
 30 28  2  0  0  0  0
 31 34  1  0  0  0  0
 32 31  1  0  0  0  0
 32 33  1  0  0  0  0
 33 29  1  0  0  0  0
 34 30  1  0  0  0  0
M  END
>  <MODEL>
1

>  <REMARK>
 VINA RESULT:      -9.8      0.000      0.000
  Name = 
  3 active torsions:
  status: ('A' for Active; 'I' for Inactive)
    1  A    between atoms: C_3  and  C_13
    2  A    between atoms: C_12  and  C_28
    3  A    between atoms: C_17  and  C_29
                            x       y       z     vdW  Elec       q    Type
                         _______ _______ _______ _____ _____    ______ ____

>  <TORSDO>
F 3

$$$$
=
 OpenBabel11062407533D

 34 39  0  0  1  0  0  0  0  0999 V2000
  161.1910  205.9430  149.2200 C   0  0  0  0  0  0  0  0  0  0  0  0
  161.7750  205.5020  151.5350 C   0  0  0  0  0  0  0  0  0  0  0  0
  161.6210  207.8760  150.6680 C   0  0  0  0  0  0  0  0  0  0  0  0
  161.7980  209.9190  151.9610 C   0  0  0  0  0  0  0  0  0  0  0  0
  161.0650  203.6900  150.0870 C   0  0  0  0  0  3  0  0  0  0  0  0
  161.5060  204.1450  151.3250 C   0  0  0  0  0  3  0  0  0  0  0  0
  161.1140  208.0820  153.2290 C   0  0  0  0  0  2  0  0  0  0  0  0
  161.5070  206.4550  150.5120 C   0  0  0  0  0  0  0  0  0  0  0  0
  161.6360  210.4890  153.3130 C   0  0  0  0  0  2  0  0  0  0  0  0
  160.9390  204.5830  149.0290 C   0  0  0  0  0  3  0  0  0  0  0  0
  161.6850  208.6920  149.4970 C   0  0  0  0  0  0  0  0  0  0  0  0
  161.1770  206.7750  148.1070 C   0  0  0  0  0  3  0  0  0  0  0  0
  162.4030  205.8440  152.7230 O   0  0  0  0  0  1  0  0  0  0  0  0
  161.9590  210.6620  150.8430 N   0  0  0  0  0  0  0  0  0  0  0  0
  161.9120  210.0840  149.6110 C   0  0  0  0  0  0  0  0  0  0  0  0
  161.3040  209.2690  154.1770 C   0  0  1  0  0  3  0  0  0  0  0  0
  161.6030  208.5620  151.9090 C   0  0  0  0  0  0  0  0  0  0  0  0
  161.4550  208.1280  148.2390 C   0  0  0  0  0  3  0  0  0  0  0  0
  162.8710  213.1380  147.4940 C   0  0  2  0  0  3  0  0  0  0  0  0
  161.4970  213.4020  146.8830 C   0  0  0  0  0  2  0  0  0  0  0  0
  162.0410  210.9520  148.3930 C   0  0  2  0  0  3  0  0  0  0  0  0
  160.8170  212.0840  146.5260 C   0  0  0  0  0  2  0  0  0  0  0  0
  162.7360  212.2690  148.7400 C   0  0  0  0  0  2  0  0  0  0  0  0
  160.6710  211.2120  147.7690 C   0  0  0  0  0  2  0  0  0  0  0  0
  163.5230  214.4530  147.8630 C   0  0  0  0  0  1  0  0  0  0  0  0
  159.5310  210.7190  155.0680 C   0  0  0  0  0  3  0  0  0  0  0  0
  160.0510  209.4970  154.9550 C   0  0  0  0  0  3  0  0  0  0  0  0
  156.7430  211.5020  154.0970 O   0  0  0  0  0  0  0  0  0  0  0  0
  158.2730  210.9500  155.8480 C   0  0  2  0  0  3  0  0  0  0  0  0
  157.3800  211.9040  155.1050 C   0  0  0  0  0  0  0  0  0  0  0  0
  157.7760  213.7500  156.7850 C   0  0  0  0  0  2  0  0  0  0  0  0
  158.9750  212.9340  157.2490 C   0  0  0  0  0  2  0  0  0  0  0  0
  158.5920  211.4570  157.2610 C   0  0  0  0  0  2  0  0  0  0  0  0
  157.3070  213.2820  155.4850 N   0  0  0  0  0  2  0  0  0  0  0  0
  1  8  1  0  0  0  0
  2 13  1  0  0  0  0
  3 17  1  0  0  0  0
  4  9  1  0  0  0  0
  5  6  2  0  0  0  0
  6  2  1  0  0  0  0
  7 16  1  0  0  0  0
  8  3  1  0  0  0  0
  8  2  2  0  0  0  0
  9 16  1  0  0  0  0
 10  1  2  0  0  0  0
 10  5  1  0  0  0  0
 11 15  1  0  0  0  0
 11  3  2  0  0  0  0
 12 18  2  0  0  0  0
 12  1  1  0  0  0  0
 14  4  1  0  0  0  0
 15 14  2  0  0  0  0
 16 27  1  6  0  0  0
 17  4  2  0  0  0  0
 17  7  1  0  0  0  0
 18 11  1  0  0  0  0
 19 25  1  1  0  0  0
 19 23  1  0  0  0  0
 20 19  1  0  0  0  0
 21 23  1  0  0  0  0
 21 15  1  1  0  0  0
 22 20  1  0  0  0  0
 22 24  1  0  0  0  0
 24 21  1  0  0  0  0
 27 26  2  0  0  0  0
 28 30  2  0  0  0  0
 29 26  1  6  0  0  0
 29 33  1  0  0  0  0
 30 34  1  0  0  0  0
 30 29  1  0  0  0  0
 31 32  1  0  0  0  0
 32 33  1  0  0  0  0
 34 31  1  0  0  0  0
M  END
>  <MODEL>
2

>  <REMARK>
 VINA RESULT:      -9.3      2.911      6.556
  Name = 
  3 active torsions:
  status: ('A' for Active; 'I' for Inactive)
    1  A    between atoms: C_3  and  C_13
    2  A    between atoms: C_12  and  C_28
    3  A    between atoms: C_17  and  C_29
                            x       y       z     vdW  Elec       q    Type
                         _______ _______ _______ _____ _____    ______ ____

>  <TORSDO>
F 3

$$$$
=
 OpenBabel11062407533D

 34 39  0  0  1  0  0  0  0  0999 V2000
  160.9180  208.1450  154.4320 C   0  0  0  0  0  0  0  0  0  0  0  0
  162.2740  210.0510  153.7820 C   0  0  0  0  0  0  0  0  0  0  0  0
  161.5530  208.3300  152.0690 C   0  0  0  0  0  0  0  0  0  0  0  0
  161.8860  208.4270  149.6700 C   0  0  0  0  0  0  0  0  0  0  0  0
  161.3620  209.9070  156.0250 C   0  0  0  0  0  3  0  0  0  0  0  0
  162.1220  210.5750  155.0700 C   0  0  0  0  0  3  0  0  0  0  0  0
  161.8870  210.5290  150.6860 C   0  0  0  0  0  2  0  0  0  0  0  0
  161.5710  208.8740  153.3970 C   0  0  0  0  0  0  0  0  0  0  0  0
  162.1040  209.3460  148.5360 C   0  0  0  0  0  2  0  0  0  0  0  0
  160.7880  208.6790  155.7150 C   0  0  0  0  0  3  0  0  0  0  0  0
  161.1300  206.9780  151.8880 C   0  0  0  0  0  0  0  0  0  0  0  0
  160.4390  206.8590  154.2060 C   0  0  0  0  0  3  0  0  0  0  0  0
  163.2080  210.6620  152.9590 O   0  0  0  0  0  1  0  0  0  0  0  0
  161.5800  207.1170  149.5330 N   0  0  0  0  0  0  0  0  0  0  0  0
  161.2060  206.3740  150.6100 C   0  0  0  0  0  0  0  0  0  0  0  0
  162.2260  210.7170  149.2050 C   0  0  1  0  0  3  0  0  0  0  0  0
  161.8550  209.0560  150.8890 C   0  0  0  0  0  0  0  0  0  0  0  0
  160.5740  206.2700  152.9580 C   0  0  0  0  0  3  0  0  0  0  0  0
  161.2380  202.5690  151.1150 C   0  0  2  0  0  3  0  0  0  0  0  0
  161.4290  202.1710  149.6540 C   0  0  0  0  0  2  0  0  0  0  0  0
  160.8230  204.9370  150.4080 C   0  0  2  0  0  3  0  0  0  0  0  0
  160.5970  203.0750  148.7490 C   0  0  0  0  0  2  0  0  0  0  0  0
  161.6420  204.0260  151.3230 C   0  0  0  0  0  2  0  0  0  0  0  0
  161.0000  204.5330  148.9440 C   0  0  0  0  0  2  0  0  0  0  0  0
  162.0860  201.6790  151.9970 C   0  0  0  0  0  1  0  0  0  0  0  0
  161.7240  212.7040  147.8490 C   0  0  0  0  0  3  0  0  0  0  0  0
  161.2770  211.6920  148.5910 C   0  0  0  0  0  3  0  0  0  0  0  0
  159.2370  214.0260  149.0320 O   0  0  0  0  0  0  0  0  0  0  0  0
  160.7730  213.6830  147.2320 C   0  0  2  0  0  3  0  0  0  0  0  0
  159.4210  213.5580  147.8780 C   0  0  0  0  0  0  0  0  0  0  0  0
  158.4070  212.5300  145.8040 C   0  0  0  0  0  2  0  0  0  0  0  0
  159.8390  212.2730  145.3530 C   0  0  0  0  0  2  0  0  0  0  0  0
  160.6940  213.4840  145.7130 C   0  0  0  0  0  2  0  0  0  0  0  0
  158.3640  212.8430  147.2290 N   0  0  0  0  0  2  0  0  0  0  0  0
  1 10  2  0  0  0  0
  2  6  1  0  0  0  0
  3  8  1  0  0  0  0
  4 17  1  0  0  0  0
  6  5  2  0  0  0  0
  7 17  1  0  0  0  0
  8  2  2  0  0  0  0
  8  1  1  0  0  0  0
  9 16  1  0  0  0  0
  9  4  1  0  0  0  0
 10  5  1  0  0  0  0
 11  3  1  0  0  0  0
 11 18  1  0  0  0  0
 12  1  1  0  0  0  0
 13  2  1  0  0  0  0
 14  4  2  0  0  0  0
 14 15  1  0  0  0  0
 15 11  2  0  0  0  0
 16 27  1  6  0  0  0
 16  7  1  0  0  0  0
 17  3  2  0  0  0  0
 18 12  2  0  0  0  0
 19 23  1  0  0  0  0
 19 25  1  1  0  0  0
 20 19  1  0  0  0  0
 21 15  1  6  0  0  0
 21 23  1  0  0  0  0
 22 24  1  0  0  0  0
 22 20  1  0  0  0  0
 24 21  1  0  0  0  0
 26 27  2  0  0  0  0
 29 26  1  1  0  0  0
 29 30  1  0  0  0  0
 30 28  2  0  0  0  0
 31 34  1  0  0  0  0
 32 33  1  0  0  0  0
 32 31  1  0  0  0  0
 33 29  1  0  0  0  0
 34 30  1  0  0  0  0
M  END
>  <MODEL>
3

>  <REMARK>
 VINA RESULT:      -9.0      1.474      2.397
  Name = 
  3 active torsions:
  status: ('A' for Active; 'I' for Inactive)
    1  A    between atoms: C_3  and  C_13
    2  A    between atoms: C_12  and  C_28
    3  A    between atoms: C_17  and  C_29
                            x       y       z     vdW  Elec       q    Type
                         _______ _______ _______ _____ _____    ______ ____

>  <TORSDO>
F 3

$$$$
=
 OpenBabel11062407533D

 34 39  0  0  1  0  0  0  0  0999 V2000
  160.6400  213.7280  148.7570 C   0  0  0  0  0  0  0  0  0  0  0  0
  162.4260  212.2690  147.9970 C   0  0  0  0  0  0  0  0  0  0  0  0
  161.1690  211.7710  150.1390 C   0  0  0  0  0  0  0  0  0  0  0  0
  161.3830  209.7990  151.5340 C   0  0  0  0  0  0  0  0  0  0  0  0
  161.6350  214.0730  146.5810 C   0  0  0  0  0  3  0  0  0  0  0  0
  162.4930  213.0020  146.8070 C   0  0  0  0  0  3  0  0  0  0  0  0
  162.0120  209.4310  149.3160 C   0  0  0  0  0  2  0  0  0  0  0  0
  161.4090  212.5440  148.9540 C   0  0  0  0  0  0  0  0  0  0  0  0
  161.7800  208.3780  151.5310 C   0  0  0  0  0  2  0  0  0  0  0  0
  160.7320  214.4530  147.5680 C   0  0  0  0  0  3  0  0  0  0  0  0
  160.3840  212.3440  151.1850 C   0  0  0  0  0  0  0  0  0  0  0  0
  159.8170  214.2200  149.7630 C   0  0  0  0  0  3  0  0  0  0  0  0
  163.4430  211.3570  148.2350 O   0  0  0  0  0  1  0  0  0  0  0  0
  160.7240  210.3990  152.5510 N   0  0  0  0  0  0  0  0  0  0  0  0
  160.2230  211.6560  152.4120 C   0  0  0  0  0  0  0  0  0  0  0  0
  162.3070  208.1570  150.1110 C   0  0  1  0  0  3  0  0  0  0  0  0
  161.5910  210.4310  150.3330 C   0  0  0  0  0  0  0  0  0  0  0  0
  159.7170  213.5540  150.9760 C   0  0  0  0  0  3  0  0  0  0  0  0
  159.4800  212.8490  155.9820 C   0  0  2  0  0  3  0  0  0  0  0  0
  158.1490  212.1260  156.1670 C   0  0  0  0  0  2  0  0  0  0  0  0
  159.4520  212.2640  153.5470 C   0  0  2  0  0  3  0  0  0  0  0  0
  157.3330  212.1880  154.8790 C   0  0  0  0  0  2  0  0  0  0  0  0
  160.2690  212.2200  154.8380 C   0  0  0  0  0  2  0  0  0  0  0  0
  158.1120  211.5530  153.7310 C   0  0  0  0  0  2  0  0  0  0  0  0
  160.2860  212.7600  157.2610 C   0  0  0  0  0  1  0  0  0  0  0  0
  161.4410  206.9550  148.1500 C   0  0  0  0  0  3  0  0  0  0  0  0
  161.6270  206.9940  149.4690 C   0  0  0  0  0  3  0  0  0  0  0  0
  161.3690  204.0200  148.9920 O   0  0  0  0  0  0  0  0  0  0  0  0
  160.7590  205.7880  147.5040 C   0  0  2  0  0  3  0  0  0  0  0  0
  161.4890  204.5190  147.8430 C   0  0  0  0  0  0  0  0  0  0  0  0
  162.3520  204.2600  145.4820 C   0  0  0  0  0  2  0  0  0  0  0  0
  161.9820  205.7250  145.2930 C   0  0  0  0  0  2  0  0  0  0  0  0
  160.6490  205.9910  145.9870 C   0  0  0  0  0  2  0  0  0  0  0  0
  162.3800  203.9150  146.8990 N   0  0  0  0  0  2  0  0  0  0  0  0
  1  8  2  0  0  0  0
  1 12  1  0  0  0  0
  2 13  1  0  0  0  0
  2  8  1  0  0  0  0
  3 17  2  0  0  0  0
  3 11  1  0  0  0  0
  4 14  2  0  0  0  0
  5  6  1  0  0  0  0
  5 10  2  0  0  0  0
  6  2  2  0  0  0  0
  7 16  1  0  0  0  0
  7 17  1  0  0  0  0
  8  3  1  0  0  0  0
  9  4  1  0  0  0  0
 10  1  1  0  0  0  0
 11 15  2  0  0  0  0
 12 18  2  0  0  0  0
 15 14  1  0  0  0  0
 16 27  1  6  0  0  0
 16  9  1  0  0  0  0
 17  4  1  0  0  0  0
 18 11  1  0  0  0  0
 19 20  1  0  0  0  0
 19 25  1  1  0  0  0
 21 15  1  6  0  0  0
 21 24  1  0  0  0  0
 21 23  1  0  0  0  0
 22 20  1  0  0  0  0
 23 19  1  0  0  0  0
 24 22  1  0  0  0  0
 26 27  2  0  0  0  0
 29 30  1  0  0  0  0
 29 26  1  1  0  0  0
 30 28  2  0  0  0  0
 31 34  1  0  0  0  0
 32 31  1  0  0  0  0
 32 33  1  0  0  0  0
 33 29  1  0  0  0  0
 34 30  1  0  0  0  0
M  END
>  <MODEL>
4

>  <REMARK>
 VINA RESULT:      -9.0      2.964      8.330
  Name = 
  3 active torsions:
  status: ('A' for Active; 'I' for Inactive)
    1  A    between atoms: C_3  and  C_13
    2  A    between atoms: C_12  and  C_28
    3  A    between atoms: C_17  and  C_29
                            x       y       z     vdW  Elec       q    Type
                         _______ _______ _______ _____ _____    ______ ____

>  <TORSDO>
F 3

$$$$
=
 OpenBabel11062407533D

 34 39  0  0  1  0  0  0  0  0999 V2000
  160.7360  206.8550  153.0170 C   0  0  0  0  0  0  0  0  0  0  0  0
  161.8510  208.9930  153.3080 C   0  0  0  0  0  0  0  0  0  0  0  0
  161.4660  208.0370  150.9940 C   0  0  0  0  0  0  0  0  0  0  0  0
  161.9120  209.1220  148.8720 C   0  0  0  0  0  0  0  0  0  0  0  0
  160.8480  207.8680  155.2080 C   0  0  0  0  0  3  0  0  0  0  0  0
  161.5590  208.9370  154.6750 C   0  0  0  0  0  3  0  0  0  0  0  0
  161.5690  210.6280  150.6230 C   0  0  0  0  0  2  0  0  0  0  0  0
  161.3380  208.0020  152.4230 C   0  0  0  0  0  0  0  0  0  0  0  0
  162.0630  210.4360  148.2170 C   0  0  0  0  0  2  0  0  0  0  0  0
  160.4650  206.8140  154.3850 C   0  0  0  0  0  3  0  0  0  0  0  0
  161.2430  206.8350  150.2560 C   0  0  0  0  0  0  0  0  0  0  0  0
  160.4510  205.7260  152.2570 C   0  0  0  0  0  3  0  0  0  0  0  0
  162.7350  209.9760  152.8910 O   0  0  0  0  0  1  0  0  0  0  0  0
  161.7970  207.9520  148.2040 N   0  0  0  0  0  0  0  0  0  0  0  0
  161.4710  206.8050  148.8590 C   0  0  0  0  0  0  0  0  0  0  0  0
  161.9590  211.4280  149.3780 C   0  0  1  0  0  3  0  0  0  0  0  0
  161.7290  209.2020  150.2300 C   0  0  0  0  0  0  0  0  0  0  0  0
  160.7330  205.7040  150.9000 C   0  0  0  0  0  3  0  0  0  0  0  0
  161.2030  203.0380  148.1810 C   0  0  2  0  0  3  0  0  0  0  0  0
  162.2540  202.9530  147.0780 C   0  0  0  0  0  2  0  0  0  0  0  0
  161.3000  205.5390  148.0720 C   0  0  2  0  0  3  0  0  0  0  0  0
  162.1510  204.1670  146.1580 C   0  0  0  0  0  2  0  0  0  0  0  0
  161.3870  204.3180  148.9900 C   0  0  0  0  0  2  0  0  0  0  0  0
  162.3420  205.4520  146.9580 C   0  0  0  0  0  2  0  0  0  0  0  0
  161.3320  201.8390  149.0970 C   0  0  0  0  0  1  0  0  0  0  0  0
  160.3180  213.1120  150.0940 C   0  0  0  0  0  3  0  0  0  0  0  0
  160.9200  212.4620  149.0980 C   0  0  0  0  0  3  0  0  0  0  0  0
  157.8880  213.9370  151.7500 O   0  0  0  0  0  0  0  0  0  0  0  0
  159.2760  214.1500  149.8150 C   0  0  2  0  0  3  0  0  0  0  0  0
  157.9920  213.7820  150.5050 C   0  0  0  0  0  0  0  0  0  0  0  0
  156.8480  213.2380  148.3190 C   0  0  0  0  0  2  0  0  0  0  0  0
  158.2450  213.1940  147.7140 C   0  0  0  0  0  2  0  0  0  0  0  0
  159.0750  214.3300  148.3050 C   0  0  0  0  0  2  0  0  0  0  0  0
  156.9150  213.1850  149.7750 N   0  0  0  0  0  2  0  0  0  0  0  0
  1 10  2  0  0  0  0
  2  6  1  0  0  0  0
  3  8  1  0  0  0  0
  4 17  1  0  0  0  0
  6  5  2  0  0  0  0
  8  1  1  0  0  0  0
  8  2  2  0  0  0  0
  9  4  1  0  0  0  0
  9 16  1  0  0  0  0
 10  5  1  0  0  0  0
 11 18  1  0  0  0  0
 11  3  1  0  0  0  0
 12  1  1  0  0  0  0
 13  2  1  0  0  0  0
 14 15  1  0  0  0  0
 14  4  2  0  0  0  0
 15 11  2  0  0  0  0
 16 27  1  6  0  0  0
 16  7  1  0  0  0  0
 17  7  1  0  0  0  0
 17  3  2  0  0  0  0
 18 12  2  0  0  0  0
 19 23  1  0  0  0  0
 19 25  1  1  0  0  0
 20 19  1  0  0  0  0
 21 15  1  1  0  0  0
 21 23  1  0  0  0  0
 22 24  1  0  0  0  0
 22 20  1  0  0  0  0
 24 21  1  0  0  0  0
 27 26  2  0  0  0  0
 29 26  1  6  0  0  0
 29 30  1  0  0  0  0
 30 28  2  0  0  0  0
 31 34  1  0  0  0  0
 32 33  1  0  0  0  0
 32 31  1  0  0  0  0
 33 29  1  0  0  0  0
 34 30  1  0  0  0  0
M  END
>  <MODEL>
5

>  <REMARK>
 VINA RESULT:      -8.5      1.069      1.761
  Name = 
  3 active torsions:
  status: ('A' for Active; 'I' for Inactive)
    1  A    between atoms: C_3  and  C_13
    2  A    between atoms: C_12  and  C_28
    3  A    between atoms: C_17  and  C_29
                            x       y       z     vdW  Elec       q    Type
                         _______ _______ _______ _____ _____    ______ ____

>  <TORSDO>
F 3

$$$$
=
 OpenBabel11062407533D

 34 39  0  0  1  0  0  0  0  0999 V2000
  160.1840  212.5730  150.2680 C   0  0  0  0  0  0  0  0  0  0  0  0
  161.9330  211.9460  148.7040 C   0  0  0  0  0  0  0  0  0  0  0  0
  161.3240  210.4320  150.6410 C   0  0  0  0  0  0  0  0  0  0  0  0
  162.1660  208.1990  151.0720 C   0  0  0  0  0  0  0  0  0  0  0  0
  160.5580  213.8990  148.2830 C   0  0  0  0  0  3  0  0  0  0  0  0
  161.5990  213.0520  147.9160 C   0  0  0  0  0  3  0  0  0  0  0  0
  162.2880  208.8120  148.8220 C   0  0  0  0  0  2  0  0  0  0  0  0
  161.1490  211.6120  149.8450 C   0  0  0  0  0  0  0  0  0  0  0  0
  162.7620  207.0090  150.4340 C   0  0  0  0  0  2  0  0  0  0  0  0
  159.8740  213.6770  149.4730 C   0  0  0  0  0  3  0  0  0  0  0  0
  160.7380  210.3890  151.9430 C   0  0  0  0  0  0  0  0  0  0  0  0
  159.5650  212.4620  151.5080 C   0  0  0  0  0  3  0  0  0  0  0  0
  163.1040  211.2760  148.3860 O   0  0  0  0  0  1  0  0  0  0  0  0
  161.6910  208.2200  152.3370 N   0  0  0  0  0  0  0  0  0  0  0  0
  160.9850  209.2890  152.7980 C   0  0  0  0  0  0  0  0  0  0  0  0
  162.9570  207.4440  148.9790 C   0  0  1  0  0  3  0  0  0  0  0  0
  161.9790  209.2510  150.2090 C   0  0  0  0  0  0  0  0  0  0  0  0
  159.8640  211.4010  152.3490 C   0  0  0  0  0  3  0  0  0  0  0  0
  160.2640  210.4520  156.3830 C   0  0  2  0  0  3  0  0  0  0  0  0
  160.7320  209.1920  157.1050 C   0  0  0  0  0  2  0  0  0  0  0  0
  160.4290  209.2500  154.1920 C   0  0  2  0  0  3  0  0  0  0  0  0
  160.3030  207.9500  156.3280 C   0  0  0  0  0  2  0  0  0  0  0  0
  160.8420  210.4980  154.9720 C   0  0  0  0  0  2  0  0  0  0  0  0
  160.8840  207.9840  154.9180 C   0  0  0  0  0  2  0  0  0  0  0  0
  160.7150  211.6750  157.1540 C   0  0  0  0  0  1  0  0  0  0  0  0
  161.0020  206.4010  147.9170 C   0  0  0  0  0  3  0  0  0  0  0  0
  162.3260  206.4650  148.0450 C   0  0  0  0  0  3  0  0  0  0  0  0
  161.2050  203.3540  147.8440 O   0  0  0  0  0  0  0  0  0  0  0  0
  160.3670  205.4190  146.9800 C   0  0  2  0  0  3  0  0  0  0  0  0
  161.2110  204.1780  146.8930 C   0  0  0  0  0  0  0  0  0  0  0  0
  161.9330  204.7050  144.5300 C   0  0  0  0  0  2  0  0  0  0  0  0
  161.4430  206.1210  144.8030 C   0  0  0  0  0  2  0  0  0  0  0  0
  160.1430  206.0490  145.5990 C   0  0  0  0  0  2  0  0  0  0  0  0
  162.0800  203.9630  145.7760 N   0  0  0  0  0  2  0  0  0  0  0  0
  1 12  1  0  0  0  0
  2  8  1  0  0  0  0
  3 11  1  0  0  0  0
  4 14  2  0  0  0  0
  5 10  2  0  0  0  0
  6  5  1  0  0  0  0
  6  2  2  0  0  0  0
  7 16  1  0  0  0  0
  7 17  1  0  0  0  0
  8  1  2  0  0  0  0
  8  3  1  0  0  0  0
  9  4  1  0  0  0  0
 10  1  1  0  0  0  0
 11 18  1  0  0  0  0
 11 15  2  0  0  0  0
 12 18  2  0  0  0  0
 13  2  1  0  0  0  0
 14 15  1  0  0  0  0
 16 27  1  6  0  0  0
 16  9  1  0  0  0  0
 17  3  2  0  0  0  0
 17  4  1  0  0  0  0
 19 20  1  0  0  0  0
 19 25  1  1  0  0  0
 21 15  1  6  0  0  0
 21 24  1  0  0  0  0
 21 23  1  0  0  0  0
 22 20  1  0  0  0  0
 23 19  1  0  0  0  0
 24 22  1  0  0  0  0
 26 27  2  0  0  0  0
 29 26  1  1  0  0  0
 30 29  1  0  0  0  0
 30 28  2  0  0  0  0
 31 32  1  0  0  0  0
 31 34  1  0  0  0  0
 32 33  1  0  0  0  0
 33 29  1  0  0  0  0
 34 30  1  0  0  0  0
M  END
>  <MODEL>
6

>  <REMARK>
 VINA RESULT:      -7.1      2.542      7.572
  Name = 
  3 active torsions:
  status: ('A' for Active; 'I' for Inactive)
    1  A    between atoms: C_3  and  C_13
    2  A    between atoms: C_12  and  C_28
    3  A    between atoms: C_17  and  C_29
                            x       y       z     vdW  Elec       q    Type
                         _______ _______ _______ _____ _____    ______ ____

>  <TORSDO>
F 3

$$$$
=
 OpenBabel11062407533D

 34 39  0  0  1  0  0  0  0  0999 V2000
  160.8610  204.5970  151.3610 C   0  0  0  0  0  0  0  0  0  0  0  0
  161.5700  206.2900  152.9500 C   0  0  0  0  0  0  0  0  0  0  0  0
  161.5400  206.7780  150.4650 C   0  0  0  0  0  0  0  0  0  0  0  0
  161.9640  208.9090  149.3900 C   0  0  0  0  0  0  0  0  0  0  0  0
  160.6230  204.1980  153.7330 C   0  0  0  0  0  3  0  0  0  0  0  0
  161.1840  205.4440  153.9950 C   0  0  0  0  0  3  0  0  0  0  0  0
  161.2310  209.1210  151.5970 C   0  0  0  0  0  2  0  0  0  0  0  0
  161.3060  205.9300  151.5990 C   0  0  0  0  0  0  0  0  0  0  0  0
  161.9410  210.3700  149.5960 C   0  0  0  0  0  2  0  0  0  0  0  0
  160.4920  203.7640  152.4180 C   0  0  0  0  0  3  0  0  0  0  0  0
  161.5830  206.1900  149.1650 C   0  0  0  0  0  0  0  0  0  0  0  0
  160.8330  204.0740  150.0730 C   0  0  0  0  0  3  0  0  0  0  0  0
  162.3050  207.4150  153.2900 O   0  0  0  0  0  1  0  0  0  0  0  0
  162.1020  208.3180  148.1820 N   0  0  0  0  0  0  0  0  0  0  0  0
  161.9240  206.9760  148.0390 C   0  0  0  0  0  0  0  0  0  0  0  0
  161.5780  210.5180  151.0750 C   0  0  1  0  0  3  0  0  0  0  0  0
  161.6610  208.1900  150.5190 C   0  0  0  0  0  0  0  0  0  0  0  0
  161.2220  204.8500  148.9920 C   0  0  0  0  0  3  0  0  0  0  0  0
  160.8110  205.1800  144.8350 C   0  0  2  0  0  3  0  0  0  0  0  0
  161.8890  204.0990  144.8220 C   0  0  0  0  0  2  0  0  0  0  0  0
  162.0340  206.3670  146.6720 C   0  0  2  0  0  3  0  0  0  0  0  0
  163.2300  204.6880  145.2500 C   0  0  0  0  0  2  0  0  0  0  0  0
  160.6900  205.7880  146.2290 C   0  0  0  0  0  2  0  0  0  0  0  0
  163.1200  205.2910  146.6470 C   0  0  0  0  0  2  0  0  0  0  0  0
  159.4830  204.5760  144.4310 C   0  0  0  0  0  1  0  0  0  0  0  0
  159.6960  211.4190  152.3730 C   0  0  0  0  0  3  0  0  0  0  0  0
  160.4040  211.4240  151.2440 C   0  0  0  0  0  3  0  0  0  0  0  0
  159.4670  214.4310  151.9180 O   0  0  0  0  0  0  0  0  0  0  0  0
  158.5180  212.3280  152.5440 C   0  0  2  0  0  3  0  0  0  0  0  0
  158.9900  213.7230  152.8430 C   0  0  0  0  0  0  0  0  0  0  0  0
  158.1880  213.5960  155.2360 C   0  0  0  0  0  2  0  0  0  0  0  0
  158.1270  212.0880  155.0300 C   0  0  0  0  0  2  0  0  0  0  0  0
  157.5770  211.8020  153.6360 C   0  0  0  0  0  2  0  0  0  0  0  0
  158.9750  214.2280  154.1830 N   0  0  0  0  0  2  0  0  0  0  0  0
  1  8  1  0  0  0  0
  1 10  2  0  0  0  0
  2 13  1  0  0  0  0
  2  6  1  0  0  0  0
  3 17  1  0  0  0  0
  3  8  1  0  0  0  0
  4  9  1  0  0  0  0
  4 17  2  0  0  0  0
  5  6  2  0  0  0  0
  8  2  2  0  0  0  0
  9 16  1  0  0  0  0
 10  5  1  0  0  0  0
 11  3  2  0  0  0  0
 12  1  1  0  0  0  0
 14  4  1  0  0  0  0
 15 14  2  0  0  0  0
 15 11  1  0  0  0  0
 16 27  1  6  0  0  0
 16  7  1  0  0  0  0
 17  7  1  0  0  0  0
 18 11  1  0  0  0  0
 18 12  2  0  0  0  0
 19 25  1  1  0  0  0
 19 23  1  0  0  0  0
 20 19  1  0  0  0  0
 20 22  1  0  0  0  0
 21 15  1  1  0  0  0
 22 24  1  0  0  0  0
 23 21  1  0  0  0  0
 24 21  1  0  0  0  0
 27 26  2  0  0  0  0
 28 30  2  0  0  0  0
 29 26  1  1  0  0  0
 29 30  1  0  0  0  0
 29 33  1  0  0  0  0
 30 34  1  0  0  0  0
 32 31  1  0  0  0  0
 33 32  1  0  0  0  0
 34 31  1  0  0  0  0
M  END
>  <MODEL>
7

>  <REMARK>
 VINA RESULT:      -7.0      2.800      3.948
  Name = 
  3 active torsions:
  status: ('A' for Active; 'I' for Inactive)
    1  A    between atoms: C_3  and  C_13
    2  A    between atoms: C_12  and  C_28
    3  A    between atoms: C_17  and  C_29
                            x       y       z     vdW  Elec       q    Type
                         _______ _______ _______ _____ _____    ______ ____

>  <TORSDO>
F 3

$$$$
