=
 OpenBabel11062410383D

 32 38  0  0  1  0  0  0  0  0999 V2000
  162.7010  206.1190  151.5710 O   0  0  0  0  0  0  0  0  0  0  0  0
  160.7530  210.2120  152.6690 C   0  0  0  0  0  0  0  0  0  0  0  0
  161.1830  213.6080  149.1430 C   0  0  0  0  0  3  0  0  0  0  0  0
  160.4300  214.4530  149.8630 C   0  0  0  0  0  3  0  0  0  0  0  0
  159.4900  211.0740  154.8010 C   0  0  2  0  0  3  0  0  0  0  0  0
  160.5130  210.8490  155.9500 C   0  0  2  0  0  3  0  0  0  0  0  0
  161.3910  207.8640  152.1610 C   0  0  1  0  0  3  0  0  0  0  0  0
  161.8600  209.5120  150.4620 C   0  0  0  0  0  2  0  0  0  0  0  0
  158.8490  213.3220  156.0580 C   0  0  2  0  0  3  0  0  0  0  0  0
  162.9240  207.1880  150.6670 C   0  0  0  0  0  2  0  0  0  0  0  0
  161.0680  212.1170  149.3330 C   0  0  0  0  0  2  0  0  0  0  0  0
  161.1380  210.5350  151.3270 C   0  0  0  0  0  0  0  0  0  0  0  0
  160.7490  211.7740  150.7670 C   0  0  0  0  0  0  0  0  0  0  0  0
  159.6260  212.3380  152.8310 C   0  0  0  0  0  0  0  0  0  0  0  0
  159.5010  212.6740  157.2590 C   0  0  0  0  0  2  0  0  0  0  0  0
  162.4670  208.4350  151.3430 C   0  0  2  0  0  3  0  0  0  0  0  0
  160.8050  212.0710  156.8010 C   0  0  0  0  0  2  0  0  0  0  0  0
  161.9420  206.6050  152.6100 N   0  0  0  0  0  0  0  0  0  0  0  0
  159.4510  213.9360  150.8840 C   0  0  0  0  0  2  0  0  0  0  0  0
  159.9640  212.6740  151.5210 C   0  0  0  0  0  0  0  0  0  0  0  0
  158.7280  213.0600  153.6510 N   0  0  0  0  0  2  0  0  0  0  0  0
  161.0710  208.8540  153.2710 C   0  0  0  0  0  2  0  0  0  0  0  0
  161.7050  210.3000  155.5220 F   0  0  0  0  0  0  0  0  0  0  0  0
  157.5600  213.9980  156.4790 C   0  0  0  0  0  1  0  0  0  0  0  0
  160.0690  211.1830  153.4210 C   0  0  0  0  0  0  0  0  0  0  0  0
  158.5710  212.3410  154.9120 C   0  0  1  0  0  3  0  0  0  0  0  0
  160.8250  205.6860  152.7850 C   0  0  0  0  0  2  0  0  0  0  0  0
  161.2000  204.2970  152.2880 C   0  0  0  0  0  2  0  0  0  0  0  0
  160.4130  203.9220  151.0400 C   0  0  0  0  0  2  0  0  0  0  0  0
  161.2110  202.9600  150.1790 C   0  0  0  0  0  3  0  0  0  0  0  0
  161.1250  203.4050  148.7320 C   0  0  0  0  0  2  0  0  0  0  0  0
  160.2670  202.2590  149.2230 C   0  0  0  0  0  2  0  0  0  0  0  0
  1 18  1  0  0  0  0
  2 22  1  0  0  0  0
  2 25  1  0  0  0  0
  3 11  1  0  0  0  0
  3  4  2  0  0  0  0
  4 19  1  0  0  0  0
  5 25  1  6  0  0  0
  5 26  1  0  0  0  0
  5  6  1  0  0  0  0
  6 23  1  6  0  0  0
  6 17  1  0  0  0  0
  7 18  1  0  0  0  0
  7 22  1  1  0  0  0
  8 12  1  0  0  0  0
  9 24  1  1  0  0  0
  9 15  1  0  0  0  0
 10 16  1  0  0  0  0
 10  1  1  0  0  0  0
 11 13  1  0  0  0  0
 12  2  2  0  0  0  0
 13 12  1  0  0  0  0
 13 20  2  0  0  0  0
 14 25  2  0  0  0  0
 14 21  1  0  0  0  0
 16  8  1  6  0  0  0
 16  7  1  0  0  0  0
 17 15  1  0  0  0  0
 18 27  1  0  0  0  0
 19 20  1  0  0  0  0
 20 14  1  0  0  0  0
 26 21  1  6  0  0  0
 26  9  1  0  0  0  0
 28 27  1  0  0  0  0
 29 28  1  0  0  0  0
 30 29  1  0  0  0  0
 31 32  1  0  0  0  0
 31 30  1  0  0  0  0
 32 30  1  0  0  0  0
M  END
>  <MODEL>
1

>  <REMARK>
 VINA RESULT:      -6.8      0.000      0.000
  Name = 
  4 active torsions:
  status: ('A' for Active; 'I' for Inactive)
    1  A    between atoms: C_1  and  C_10
    2  A    between atoms: C_10  and  C_19
    3  A    between atoms: C_19  and  C_24
    4  A    between atoms: N_23  and  C_24
                            x       y       z     vdW  Elec       q    Type
                         _______ _______ _______ _____ _____    ______ ____

>  <TORSDO>
F 4

$$$$
=
 OpenBabel11062410383D

 32 38  0  0  1  0  0  0  0  0999 V2000
  162.2260  211.8680  149.3610 O   0  0  0  0  0  0  0  0  0  0  0  0
  161.5260  207.2680  149.0320 C   0  0  0  0  0  0  0  0  0  0  0  0
  161.3080  204.9920  153.3820 C   0  0  0  0  0  3  0  0  0  0  0  0
  161.0100  203.8390  152.7650 C   0  0  0  0  0  3  0  0  0  0  0  0
  161.2450  205.6470  146.9890 C   0  0  2  0  0  3  0  0  0  0  0  0
  162.5440  205.8670  146.1630 C   0  0  2  0  0  3  0  0  0  0  0  0
  161.5270  209.7540  148.9740 C   0  0  1  0  0  3  0  0  0  0  0  0
  161.6660  208.7150  151.1480 C   0  0  0  0  0  2  0  0  0  0  0  0
  161.4810  203.0860  146.3330 C   0  0  2  0  0  3  0  0  0  0  0  0
  162.3090  211.1290  150.5680 C   0  0  0  0  0  2  0  0  0  0  0  0
  161.0050  206.3190  152.7310 C   0  0  0  0  0  2  0  0  0  0  0  0
  161.4770  207.3710  150.4610 C   0  0  0  0  0  0  0  0  0  0  0  0
  161.1440  206.2330  151.2310 C   0  0  0  0  0  0  0  0  0  0  0  0
  160.9160  204.9420  149.2000 C   0  0  0  0  0  0  0  0  0  0  0  0
  162.3820  203.5940  145.2290 C   0  0  0  0  0  2  0  0  0  0  0  0
  162.3380  209.6860  150.1940 C   0  0  2  0  0  3  0  0  0  0  0  0
  163.3210  204.6060  145.8360 C   0  0  0  0  0  2  0  0  0  0  0  0
  161.9670  210.9790  148.3450 N   0  0  0  0  0  0  0  0  0  0  0  0
  160.3660  203.8360  151.4040 C   0  0  0  0  0  2  0  0  0  0  0  0
  160.8370  205.0120  150.5910 C   0  0  0  0  0  0  0  0  0  0  0  0
  160.4970  203.8440  148.4150 N   0  0  0  0  0  2  0  0  0  0  0  0
  161.7870  208.4910  148.1680 C   0  0  0  0  0  2  0  0  0  0  0  0
  163.4000  206.7920  146.7270 F   0  0  0  0  0  0  0  0  0  0  0  0
  160.5560  202.0170  145.7880 C   0  0  0  0  0  1  0  0  0  0  0  0
  161.3240  206.0080  148.4430 C   0  0  0  0  0  0  0  0  0  0  0  0
  160.6590  204.1920  147.0070 C   0  0  1  0  0  3  0  0  0  0  0  0
  160.8360  211.5070  147.5950 C   0  0  0  0  0  2  0  0  0  0  0  0
  160.9900  213.0080  147.3940 C   0  0  0  0  0  2  0  0  0  0  0  0
  161.0640  213.3670  145.9160 C   0  0  0  0  0  2  0  0  0  0  0  0
  162.5070  213.3960  145.4480 C   0  0  0  0  0  3  0  0  0  0  0  0
  162.6560  214.4530  144.3730 C   0  0  0  0  0  2  0  0  0  0  0  0
  162.5600  212.9930  143.9890 C   0  0  0  0  0  2  0  0  0  0  0  0
  1 10  1  0  0  0  0
  2 12  1  0  0  0  0
  4  3  2  0  0  0  0
  5 26  1  0  0  0  0
  5 25  1  1  0  0  0
  6 23  1  1  0  0  0
  6  5  1  0  0  0  0
  7 22  1  6  0  0  0
  7 16  1  0  0  0  0
  9 24  1  6  0  0  0
  9 26  1  0  0  0  0
 11  3  1  0  0  0  0
 12  8  1  0  0  0  0
 12 13  2  0  0  0  0
 13 11  1  0  0  0  0
 14 20  2  0  0  0  0
 15 17  1  0  0  0  0
 15  9  1  0  0  0  0
 16 10  1  1  0  0  0
 16  8  1  0  0  0  0
 17  6  1  0  0  0  0
 18  7  1  0  0  0  0
 18  1  1  0  0  0  0
 19  4  1  0  0  0  0
 20 13  1  0  0  0  0
 20 19  1  0  0  0  0
 21 14  1  0  0  0  0
 22  2  1  0  0  0  0
 25  2  2  0  0  0  0
 25 14  1  0  0  0  0
 26 21  1  1  0  0  0
 27 18  1  0  0  0  0
 28 27  1  0  0  0  0
 29 28  1  0  0  0  0
 30 29  1  0  0  0  0
 31 30  1  0  0  0  0
 32 31  1  0  0  0  0
 32 30  1  0  0  0  0
M  END
>  <MODEL>
2

>  <REMARK>
 VINA RESULT:      -6.6      4.325      9.514
  Name = 
  4 active torsions:
  status: ('A' for Active; 'I' for Inactive)
    1  A    between atoms: C_1  and  C_10
    2  A    between atoms: C_10  and  C_19
    3  A    between atoms: C_19  and  C_24
    4  A    between atoms: N_23  and  C_24
                            x       y       z     vdW  Elec       q    Type
                         _______ _______ _______ _____ _____    ______ ____

>  <TORSDO>
F 4

$$$$
=
 OpenBabel11062410383D

 32 38  0  0  1  0  0  0  0  0999 V2000
  162.2840  205.6940  148.8970 O   0  0  0  0  0  0  0  0  0  0  0  0
  161.1730  209.7050  151.0020 C   0  0  0  0  0  0  0  0  0  0  0  0
  161.9690  213.6770  148.2200 C   0  0  0  0  0  3  0  0  0  0  0  0
  161.4280  214.4530  149.1710 C   0  0  0  0  0  3  0  0  0  0  0  0
  160.2270  210.2700  153.3830 C   0  0  2  0  0  3  0  0  0  0  0  0
  161.2670  209.6380  154.3510 C   0  0  2  0  0  3  0  0  0  0  0  0
  161.3480  207.4540  149.9620 C   0  0  1  0  0  3  0  0  0  0  0  0
  161.9900  209.3370  148.5970 C   0  0  0  0  0  2  0  0  0  0  0  0
  160.0810  212.2600  155.1320 C   0  0  2  0  0  3  0  0  0  0  0  0
  162.6340  206.8850  148.2120 C   0  0  0  0  0  2  0  0  0  0  0  0
  161.6030  212.2180  148.1110 C   0  0  0  0  0  2  0  0  0  0  0  0
  161.5210  210.2480  149.7220 C   0  0  0  0  0  0  0  0  0  0  0  0
  161.3230  211.6250  149.4700 C   0  0  0  0  0  0  0  0  0  0  0  0
  160.4570  211.8960  151.7100 C   0  0  0  0  0  0  0  0  0  0  0  0
  160.6840  211.2700  156.1020 C   0  0  0  0  0  2  0  0  0  0  0  0
  162.4520  208.0100  149.1730 C   0  0  2  0  0  3  0  0  0  0  0  0
  161.8270  210.5810  155.3990 C   0  0  0  0  0  2  0  0  0  0  0  0
  161.6930  206.0550  150.0850 N   0  0  0  0  0  0  0  0  0  0  0  0
  160.4410  213.8890  150.1590 C   0  0  0  0  0  2  0  0  0  0  0  0
  160.7630  212.4520  150.4680 C   0  0  0  0  0  0  0  0  0  0  0  0
  159.7580  212.5550  152.7480 N   0  0  0  0  0  2  0  0  0  0  0  0
  161.2820  208.2150  151.2780 C   0  0  0  0  0  2  0  0  0  0  0  0
  162.3110  209.0120  153.7000 F   0  0  0  0  0  0  0  0  0  0  0  0
  158.9640  213.0260  155.8120 C   0  0  0  0  0  1  0  0  0  0  0  0
  160.7240  210.5840  152.0030 C   0  0  0  0  0  0  0  0  0  0  0  0
  159.5580  211.6110  153.8440 C   0  0  1  0  0  3  0  0  0  0  0  0
  160.4440  205.3110  150.1820 C   0  0  0  0  0  2  0  0  0  0  0  0
  160.5570  204.2260  151.2430 C   0  0  0  0  0  2  0  0  0  0  0  0
  161.1600  202.9500  150.6720 C   0  0  0  0  0  2  0  0  0  0  0  0
  160.3210  202.4380  149.5150 C   0  0  0  0  0  3  0  0  0  0  0  0
  160.8990  201.1240  149.0300 C   0  0  0  0  0  2  0  0  0  0  0  0
  161.1770  202.4000  148.2660 C   0  0  0  0  0  2  0  0  0  0  0  0
  1 18  1  0  0  0  0
  2 22  1  0  0  0  0
  2 25  1  0  0  0  0
  3  4  2  0  0  0  0
  4 19  1  0  0  0  0
  5 25  1  6  0  0  0
  5 26  1  0  0  0  0
  5  6  1  0  0  0  0
  6 23  1  6  0  0  0
  6 17  1  0  0  0  0
  7 18  1  0  0  0  0
  7 22  1  1  0  0  0
  8 16  1  0  0  0  0
  8 12  1  0  0  0  0
  9 24  1  1  0  0  0
  9 15  1  0  0  0  0
 10  1  1  0  0  0  0
 11  3  1  0  0  0  0
 11 13  1  0  0  0  0
 12  2  2  0  0  0  0
 13 12  1  0  0  0  0
 13 20  2  0  0  0  0
 14 25  2  0  0  0  0
 14 21  1  0  0  0  0
 16 10  1  6  0  0  0
 16  7  1  0  0  0  0
 17 15  1  0  0  0  0
 18 27  1  0  0  0  0
 19 20  1  0  0  0  0
 20 14  1  0  0  0  0
 26 21  1  6  0  0  0
 26  9  1  0  0  0  0
 27 28  1  0  0  0  0
 29 28  1  0  0  0  0
 30 29  1  0  0  0  0
 31 30  1  0  0  0  0
 32 31  1  0  0  0  0
 32 30  1  0  0  0  0
M  END
>  <MODEL>
3

>  <REMARK>
 VINA RESULT:      -6.5      1.381      1.878
  Name = 
  4 active torsions:
  status: ('A' for Active; 'I' for Inactive)
    1  A    between atoms: C_1  and  C_10
    2  A    between atoms: C_10  and  C_19
    3  A    between atoms: C_19  and  C_24
    4  A    between atoms: N_23  and  C_24
                            x       y       z     vdW  Elec       q    Type
                         _______ _______ _______ _____ _____    ______ ____

>  <TORSDO>
F 4

$$$$
=
 OpenBabel11062410383D

 32 38  0  0  1  0  0  0  0  0999 V2000
  162.3220  209.2050  148.5420 O   0  0  0  0  0  0  0  0  0  0  0  0
  160.5900  210.3630  152.7150 C   0  0  0  0  0  0  0  0  0  0  0  0
  160.4450  206.6190  155.8960 C   0  0  0  0  0  3  0  0  0  0  0  0
  160.0180  207.4510  156.8570 C   0  0  0  0  0  3  0  0  0  0  0  0
  159.6560  212.6080  153.7000 C   0  0  2  0  0  3  0  0  0  0  0  0
  158.5100  212.9900  152.7220 C   0  0  2  0  0  3  0  0  0  0  0  0
  161.8040  210.0670  150.5650 C   0  0  1  0  0  3  0  0  0  0  0  0
  161.5700  208.1130  151.9610 C   0  0  0  0  0  2  0  0  0  0  0  0
  158.0730  213.5220  155.6240 C   0  0  2  0  0  3  0  0  0  0  0  0
  162.1070  208.1400  149.4540 C   0  0  0  0  0  2  0  0  0  0  0  0
  161.2380  207.1370  154.7220 C   0  0  0  0  0  2  0  0  0  0  0  0
  160.9420  209.0070  153.0200 C   0  0  0  0  0  0  0  0  0  0  0  0
  160.8040  208.5320  154.3440 C   0  0  0  0  0  0  0  0  0  0  0  0
  159.9920  210.7030  155.0260 C   0  0  0  0  0  0  0  0  0  0  0  0
  157.3570  214.2420  154.5030 C   0  0  0  0  0  2  0  0  0  0  0  0
  161.3020  208.6890  150.5820 C   0  0  2  0  0  3  0  0  0  0  0  0
  157.1670  213.2570  153.3770 C   0  0  0  0  0  2  0  0  0  0  0  0
  161.9180  210.3670  149.1560 N   0  0  0  0  0  0  0  0  0  0  0  0
  160.3160  208.9260  156.7900 C   0  0  0  0  0  2  0  0  0  0  0  0
  160.3470  209.3970  155.3620 C   0  0  0  0  0  0  0  0  0  0  0  0
  159.6640  211.7220  155.9490 N   0  0  0  0  0  2  0  0  0  0  0  0
  160.8130  210.9360  151.3250 C   0  0  0  0  0  2  0  0  0  0  0  0
  158.3400  212.0820  151.6960 F   0  0  0  0  0  0  0  0  0  0  0  0
  158.2340  214.4530  156.8080 C   0  0  0  0  0  1  0  0  0  0  0  0
  160.0330  211.1550  153.7330 C   0  0  0  0  0  0  0  0  0  0  0  0
  159.4410  212.9620  155.2120 C   0  0  1  0  0  3  0  0  0  0  0  0
  163.0050  211.3250  149.0070 C   0  0  0  0  0  2  0  0  0  0  0  0
  162.6720  212.3380  147.9200 C   0  0  0  0  0  2  0  0  0  0  0  0
  161.1680  212.5230  147.7740 C   0  0  0  0  0  2  0  0  0  0  0  0
  160.7370  213.8530  148.3640 C   0  0  0  0  0  3  0  0  0  0  0  0
  159.3950  213.6800  149.0450 C   0  0  0  0  0  2  0  0  0  0  0  0
  159.4700  214.3100  147.6720 C   0  0  0  0  0  2  0  0  0  0  0  0
  1 18  1  0  0  0  0
  1 10  1  0  0  0  0
  2 12  2  0  0  0  0
  2 25  1  0  0  0  0
  3  4  2  0  0  0  0
  5 25  1  1  0  0  0
  5 26  1  0  0  0  0
  6 23  1  6  0  0  0
  6 17  1  0  0  0  0
  6  5  1  0  0  0  0
  7 16  1  0  0  0  0
  7 22  1  6  0  0  0
  8 12  1  0  0  0  0
  9 24  1  1  0  0  0
 11  3  1  0  0  0  0
 12 13  1  0  0  0  0
 13 11  1  0  0  0  0
 13 20  2  0  0  0  0
 14 20  1  0  0  0  0
 14 21  1  0  0  0  0
 15  9  1  0  0  0  0
 16 10  1  6  0  0  0
 16  8  1  0  0  0  0
 17 15  1  0  0  0  0
 18  7  1  0  0  0  0
 19  4  1  0  0  0  0
 20 19  1  0  0  0  0
 22  2  1  0  0  0  0
 25 14  2  0  0  0  0
 26  9  1  0  0  0  0
 26 21  1  1  0  0  0
 27 18  1  0  0  0  0
 28 27  1  0  0  0  0
 29 28  1  0  0  0  0
 29 30  1  0  0  0  0
 30 31  1  0  0  0  0
 32 30  1  0  0  0  0
 32 31  1  0  0  0  0
M  END
>  <MODEL>
4

>  <REMARK>
 VINA RESULT:      -6.5      2.772      5.980
  Name = 
  4 active torsions:
  status: ('A' for Active; 'I' for Inactive)
    1  A    between atoms: C_1  and  C_10
    2  A    between atoms: C_10  and  C_19
    3  A    between atoms: C_19  and  C_24
    4  A    between atoms: N_23  and  C_24
                            x       y       z     vdW  Elec       q    Type
                         _______ _______ _______ _____ _____    ______ ____

>  <TORSDO>
F 4

$$$$
=
 OpenBabel11062410383D

 32 38  0  0  1  0  0  0  0  0999 V2000
  161.3600  209.1330  153.9760 O   0  0  0  0  0  0  0  0  0  0  0  0
  161.1590  206.0300  150.5000 C   0  0  0  0  0  0  0  0  0  0  0  0
  161.4040  201.3600  152.0110 C   0  0  0  0  0  3  0  0  0  0  0  0
  161.2060  200.9410  150.7530 C   0  0  0  0  0  3  0  0  0  0  0  0
  160.9610  206.2760  147.8960 C   0  0  2  0  0  3  0  0  0  0  0  0
  162.1860  207.1550  147.5150 C   0  0  2  0  0  3  0  0  0  0  0  0
  160.8820  207.8280  152.1940 C   0  0  1  0  0  3  0  0  0  0  0  0
  161.2390  205.5930  153.0280 C   0  0  0  0  0  2  0  0  0  0  0  0
  161.4470  204.9490  145.6490 C   0  0  2  0  0  3  0  0  0  0  0  0
  161.5830  207.7770  154.3260 C   0  0  0  0  0  2  0  0  0  0  0  0
  160.9250  202.7180  152.4580 C   0  0  0  0  0  2  0  0  0  0  0  0
  161.1680  205.0990  151.5900 C   0  0  0  0  0  0  0  0  0  0  0  0
  161.0000  203.7200  151.3320 C   0  0  0  0  0  0  0  0  0  0  0  0
  160.8190  204.1970  148.9700 C   0  0  0  0  0  0  0  0  0  0  0  0
  162.2310  206.1800  145.2530 C   0  0  0  0  0  2  0  0  0  0  0  0
  161.7540  207.0200  153.0530 C   0  0  2  0  0  3  0  0  0  0  0  0
  163.0810  206.5780  146.4340 C   0  0  0  0  0  2  0  0  0  0  0  0
  161.1530  209.1840  152.6180 N   0  0  0  0  0  0  0  0  0  0  0  0
  160.5020  201.8160  149.7490 C   0  0  0  0  0  2  0  0  0  0  0  0
  160.8000  203.2680  150.0090 C   0  0  0  0  0  0  0  0  0  0  0  0
  160.4870  203.9210  147.6240 N   0  0  0  0  0  2  0  0  0  0  0  0
  161.2410  207.5270  150.7460 C   0  0  0  0  0  2  0  0  0  0  0  0
  162.9610  207.5130  148.6000 F   0  0  0  0  0  0  0  0  0  0  0  0
  160.6210  204.4690  144.4740 C   0  0  0  0  0  1  0  0  0  0  0  0
  161.0690  205.5260  149.1910 C   0  0  0  0  0  0  0  0  0  0  0  0
  160.5410  205.1690  146.8680 C   0  0  1  0  0  3  0  0  0  0  0  0
  159.9360  209.9530  152.4020 C   0  0  0  0  0  2  0  0  0  0  0  0
  160.2450  211.4440  152.4010 C   0  0  0  0  0  2  0  0  0  0  0  0
  159.4070  212.1860  153.4320 C   0  0  0  0  0  2  0  0  0  0  0  0
  158.2090  211.3510  153.8430 C   0  0  0  0  0  3  0  0  0  0  0  0
  157.2040  212.2410  154.5470 C   0  0  0  0  0  2  0  0  0  0  0  0
  158.1120  211.3400  155.3550 C   0  0  0  0  0  2  0  0  0  0  0  0
  1 10  1  0  0  0  0
  2 22  1  0  0  0  0
  2 12  1  0  0  0  0
  3 11  1  0  0  0  0
  4  3  2  0  0  0  0
  5 25  1  1  0  0  0
  6  5  1  0  0  0  0
  6 23  1  1  0  0  0
  7 22  1  6  0  0  0
  7 18  1  0  0  0  0
  7 16  1  0  0  0  0
  9 24  1  6  0  0  0
  9 26  1  0  0  0  0
 12  8  1  0  0  0  0
 13 12  2  0  0  0  0
 13 11  1  0  0  0  0
 14 25  1  0  0  0  0
 14 20  2  0  0  0  0
 15  9  1  0  0  0  0
 15 17  1  0  0  0  0
 16  8  1  1  0  0  0
 16 10  1  0  0  0  0
 17  6  1  0  0  0  0
 18  1  1  0  0  0  0
 19 20  1  0  0  0  0
 19  4  1  0  0  0  0
 20 13  1  0  0  0  0
 21 14  1  0  0  0  0
 25  2  2  0  0  0  0
 26 21  1  1  0  0  0
 26  5  1  0  0  0  0
 27 18  1  0  0  0  0
 28 27  1  0  0  0  0
 28 29  1  0  0  0  0
 29 30  1  0  0  0  0
 30 31  1  0  0  0  0
 30 32  1  0  0  0  0
 31 32  1  0  0  0  0
M  END
>  <MODEL>
5

>  <REMARK>
 VINA RESULT:      -5.9      2.811      9.229
  Name = 
  4 active torsions:
  status: ('A' for Active; 'I' for Inactive)
    1  A    between atoms: C_1  and  C_10
    2  A    between atoms: C_10  and  C_19
    3  A    between atoms: C_19  and  C_24
    4  A    between atoms: N_23  and  C_24
                            x       y       z     vdW  Elec       q    Type
                         _______ _______ _______ _____ _____    ______ ____

>  <TORSDO>
F 4

$$$$
=
 OpenBabel11062410383D

 32 38  0  0  1  0  0  0  0  0999 V2000
  161.3200  209.1430  153.9620 O   0  0  0  0  0  0  0  0  0  0  0  0
  161.1430  206.0330  150.4900 C   0  0  0  0  0  0  0  0  0  0  0  0
  161.3980  201.3660  152.0110 C   0  0  0  0  0  3  0  0  0  0  0  0
  161.2060  200.9440  150.7520 C   0  0  0  0  0  3  0  0  0  0  0  0
  160.9570  206.2740  147.8850 C   0  0  2  0  0  3  0  0  0  0  0  0
  162.1810  207.1550  147.5080 C   0  0  2  0  0  3  0  0  0  0  0  0
  160.8540  207.8330  152.1800 C   0  0  1  0  0  3  0  0  0  0  0  0
  161.2140  205.6000  153.0200 C   0  0  0  0  0  2  0  0  0  0  0  0
  161.4570  204.9440  145.6430 C   0  0  2  0  0  3  0  0  0  0  0  0
  161.5450  207.7880  154.3150 C   0  0  0  0  0  2  0  0  0  0  0  0
  160.9120  202.7240  152.4540 C   0  0  0  0  0  2  0  0  0  0  0  0
  161.1510  205.1040  151.5830 C   0  0  0  0  0  0  0  0  0  0  0  0
  160.9890  203.7240  151.3260 C   0  0  0  0  0  0  0  0  0  0  0  0
  160.8170  204.1960  148.9620 C   0  0  0  0  0  0  0  0  0  0  0  0
  162.2390  206.1770  145.2480 C   0  0  0  0  0  2  0  0  0  0  0  0
  161.7240  207.0300  153.0440 C   0  0  2  0  0  3  0  0  0  0  0  0
  163.0820  206.5800  146.4320 C   0  0  0  0  0  2  0  0  0  0  0  0
  161.1190  209.1900  152.6020 N   0  0  0  0  0  0  0  0  0  0  0  0
  160.5040  201.8160  149.7450 C   0  0  0  0  0  2  0  0  0  0  0  0
  160.7960  203.2690  150.0030 C   0  0  0  0  0  0  0  0  0  0  0  0
  160.4910  203.9170  147.6150 N   0  0  0  0  0  2  0  0  0  0  0  0
  161.2200  207.5300  150.7350 C   0  0  0  0  0  2  0  0  0  0  0  0
  162.9490  207.5180  148.5960 F   0  0  0  0  0  0  0  0  0  0  0  0
  160.6370  204.4600  144.4650 C   0  0  0  0  0  1  0  0  0  0  0  0
  161.0620  205.5270  149.1820 C   0  0  0  0  0  0  0  0  0  0  0  0
  160.5450  205.1630  146.8570 C   0  0  1  0  0  3  0  0  0  0  0  0
  159.8990  209.9560  152.3800 C   0  0  0  0  0  2  0  0  0  0  0  0
  159.5830  210.8130  153.5980 C   0  0  0  0  0  2  0  0  0  0  0  0
  159.7010  212.2960  153.2790 C   0  0  0  0  0  2  0  0  0  0  0  0
  158.9240  212.6320  152.0190 C   0  0  0  0  0  3  0  0  0  0  0  0
  159.7160  213.6330  151.2020 C   0  0  0  0  0  2  0  0  0  0  0  0
  158.5520  214.1000  152.0480 C   0  0  0  0  0  2  0  0  0  0  0  0
  1 10  1  0  0  0  0
  2 22  1  0  0  0  0
  2 12  1  0  0  0  0
  3 11  1  0  0  0  0
  4  3  2  0  0  0  0
  5 25  1  1  0  0  0
  6  5  1  0  0  0  0
  6 23  1  1  0  0  0
  7 22  1  6  0  0  0
  7 18  1  0  0  0  0
  7 16  1  0  0  0  0
  9 24  1  6  0  0  0
  9 26  1  0  0  0  0
 12  8  1  0  0  0  0
 13 12  2  0  0  0  0
 13 11  1  0  0  0  0
 14 25  1  0  0  0  0
 14 20  2  0  0  0  0
 15  9  1  0  0  0  0
 15 17  1  0  0  0  0
 16  8  1  1  0  0  0
 16 10  1  0  0  0  0
 17  6  1  0  0  0  0
 18  1  1  0  0  0  0
 19 20  1  0  0  0  0
 19  4  1  0  0  0  0
 20 13  1  0  0  0  0
 21 14  1  0  0  0  0
 25  2  2  0  0  0  0
 26 21  1  1  0  0  0
 26  5  1  0  0  0  0
 27 18  1  0  0  0  0
 27 28  1  0  0  0  0
 29 28  1  0  0  0  0
 30 32  1  0  0  0  0
 30 29  1  0  0  0  0
 31 30  1  0  0  0  0
 31 32  1  0  0  0  0
M  END
>  <MODEL>
6

>  <REMARK>
 VINA RESULT:      -5.7      2.797      9.259
  Name = 
  4 active torsions:
  status: ('A' for Active; 'I' for Inactive)
    1  A    between atoms: C_1  and  C_10
    2  A    between atoms: C_10  and  C_19
    3  A    between atoms: C_19  and  C_24
    4  A    between atoms: N_23  and  C_24
                            x       y       z     vdW  Elec       q    Type
                         _______ _______ _______ _____ _____    ______ ____

>  <TORSDO>
F 4

$$$$
=
 OpenBabel11062410383D

 32 38  0  0  1  0  0  0  0  0999 V2000
  162.2980  205.6770  148.6690 O   0  0  0  0  0  0  0  0  0  0  0  0
  161.2480  209.7280  150.7300 C   0  0  0  0  0  0  0  0  0  0  0  0
  162.1430  213.6580  147.9190 C   0  0  0  0  0  3  0  0  0  0  0  0
  161.6090  214.4530  148.8580 C   0  0  0  0  0  3  0  0  0  0  0  0
  160.2950  210.3320  153.0980 C   0  0  2  0  0  3  0  0  0  0  0  0
  161.3140  209.6890  154.0800 C   0  0  2  0  0  3  0  0  0  0  0  0
  161.3880  207.4640  149.7110 C   0  0  1  0  0  3  0  0  0  0  0  0
  162.0770  209.3220  148.3340 C   0  0  0  0  0  2  0  0  0  0  0  0
  160.1730  212.3410  154.8280 C   0  0  2  0  0  3  0  0  0  0  0  0
  162.6760  206.8550  147.9760 C   0  0  0  0  0  2  0  0  0  0  0  0
  161.7490  212.2060  147.8200 C   0  0  0  0  0  2  0  0  0  0  0  0
  161.6160  210.2520  149.4470 C   0  0  0  0  0  0  0  0  0  0  0  0
  161.4470  211.6300  149.1820 C   0  0  0  0  0  0  0  0  0  0  0  0
  160.5690  211.9380  151.4120 C   0  0  0  0  0  0  0  0  0  0  0  0
  160.7500  211.3470  155.8120 C   0  0  0  0  0  2  0  0  0  0  0  0
  162.5080  207.9920  148.9250 C   0  0  2  0  0  3  0  0  0  0  0  0
  161.8840  210.6300  155.1240 C   0  0  0  0  0  2  0  0  0  0  0  0
  161.7050  206.0610  149.8480 N   0  0  0  0  0  0  0  0  0  0  0  0
  160.6040  213.9170  149.8430 C   0  0  0  0  0  2  0  0  0  0  0  0
  160.8950  212.4770  150.1680 C   0  0  0  0  0  0  0  0  0  0  0  0
  159.8750  212.6190  152.4380 N   0  0  0  0  0  2  0  0  0  0  0  0
  161.3270  208.2380  151.0190 C   0  0  0  0  0  2  0  0  0  0  0  0
  162.3510  209.0370  153.4430 F   0  0  0  0  0  0  0  0  0  0  0  0
  159.0660  213.1330  155.4920 C   0  0  0  0  0  1  0  0  0  0  0  0
  160.8080  210.6240  151.7180 C   0  0  0  0  0  0  0  0  0  0  0  0
  159.6480  211.6900  153.5410 C   0  0  1  0  0  3  0  0  0  0  0  0
  160.4410  205.3420  149.9420 C   0  0  0  0  0  2  0  0  0  0  0  0
  160.6610  203.9640  150.5510 C   0  0  0  0  0  2  0  0  0  0  0  0
  161.0390  204.0600  152.0220 C   0  0  0  0  0  2  0  0  0  0  0  0
  160.8680  205.4830  152.5220 C   0  0  0  0  0  3  0  0  0  0  0  0
  162.1190  205.8960  153.2720 C   0  0  0  0  0  2  0  0  0  0  0  0
  160.8830  205.4760  154.0370 C   0  0  0  0  0  2  0  0  0  0  0  0
  1 18  1  0  0  0  0
  2 22  1  0  0  0  0
  2 25  1  0  0  0  0
  3  4  2  0  0  0  0
  4 19  1  0  0  0  0
  5 25  1  6  0  0  0
  5 26  1  0  0  0  0
  5  6  1  0  0  0  0
  6 23  1  6  0  0  0
  6 17  1  0  0  0  0
  7 18  1  0  0  0  0
  7 22  1  1  0  0  0
  8 16  1  0  0  0  0
  8 12  1  0  0  0  0
  9 24  1  1  0  0  0
  9 15  1  0  0  0  0
 10  1  1  0  0  0  0
 11  3  1  0  0  0  0
 11 13  1  0  0  0  0
 12  2  2  0  0  0  0
 13 12  1  0  0  0  0
 13 20  2  0  0  0  0
 14 25  2  0  0  0  0
 14 21  1  0  0  0  0
 16 10  1  6  0  0  0
 16  7  1  0  0  0  0
 17 15  1  0  0  0  0
 18 27  1  0  0  0  0
 19 20  1  0  0  0  0
 20 14  1  0  0  0  0
 26 21  1  6  0  0  0
 26  9  1  0  0  0  0
 27 28  1  0  0  0  0
 28 29  1  0  0  0  0
 29 30  1  0  0  0  0
 30 31  1  0  0  0  0
 30 32  1  0  0  0  0
 31 32  1  0  0  0  0
M  END
>  <MODEL>
7

>  <REMARK>
 VINA RESULT:      -5.0      1.504      2.538
  Name = 
  4 active torsions:
  status: ('A' for Active; 'I' for Inactive)
    1  A    between atoms: C_1  and  C_10
    2  A    between atoms: C_10  and  C_19
    3  A    between atoms: C_19  and  C_24
    4  A    between atoms: N_23  and  C_24
                            x       y       z     vdW  Elec       q    Type
                         _______ _______ _______ _____ _____    ______ ____

>  <TORSDO>
F 4

$$$$
=
 OpenBabel11062410383D

 32 38  0  0  1  0  0  0  0  0999 V2000
  162.3000  204.0610  146.7250 O   0  0  0  0  0  0  0  0  0  0  0  0
  161.5920  207.3580  149.9480 C   0  0  0  0  0  0  0  0  0  0  0  0
  162.6570  211.8960  148.3920 C   0  0  0  0  0  3  0  0  0  0  0  0
  162.2090  212.4000  149.5510 C   0  0  0  0  0  3  0  0  0  0  0  0
  160.7590  207.2750  152.4340 C   0  0  2  0  0  3  0  0  0  0  0  0
  161.7640  206.3120  153.1270 C   0  0  2  0  0  3  0  0  0  0  0  0
  161.5460  205.5000  148.2960 C   0  0  1  0  0  3  0  0  0  0  0  0
  162.3140  207.6450  147.5010 C   0  0  0  0  0  2  0  0  0  0  0  0
  160.8290  208.6760  154.6870 C   0  0  2  0  0  3  0  0  0  0  0  0
  162.7340  205.3700  146.3960 C   0  0  0  0  0  2  0  0  0  0  0  0
  162.1640  210.5640  147.8860 C   0  0  0  0  0  2  0  0  0  0  0  0
  161.9530  208.2220  148.8630 C   0  0  0  0  0  0  0  0  0  0  0  0
  161.8680  209.6230  149.0280 C   0  0  0  0  0  0  0  0  0  0  0  0
  161.0850  209.2950  151.2910 C   0  0  0  0  0  0  0  0  0  0  0  0
  161.3690  207.4030  155.3000 C   0  0  0  0  0  2  0  0  0  0  0  0
  162.6730  206.1780  147.6480 C   0  0  2  0  0  3  0  0  0  0  0  0
  162.4300  206.8650  154.3730 C   0  0  0  0  0  2  0  0  0  0  0  0
  161.7720  204.1050  147.9940 N   0  0  0  0  0  0  0  0  0  0  0  0
  161.2030  211.6490  150.3820 C   0  0  0  0  0  2  0  0  0  0  0  0
  161.4070  210.1640  150.2490 C   0  0  0  0  0  0  0  0  0  0  0  0
  160.4720  209.6740  152.5070 N   0  0  0  0  0  2  0  0  0  0  0  0
  161.5800  205.8480  149.7770 C   0  0  0  0  0  2  0  0  0  0  0  0
  162.7340  205.8260  152.2730 F   0  0  0  0  0  0  0  0  0  0  0  0
  159.7990  209.2920  155.6120 C   0  0  0  0  0  1  0  0  0  0  0  0
  161.2460  207.9390  151.1800 C   0  0  0  0  0  0  0  0  0  0  0  0
  160.2200  208.4710  153.2940 C   0  0  1  0  0  3  0  0  0  0  0  0
  160.4670  203.4610  147.9340 C   0  0  0  0  0  2  0  0  0  0  0  0
  160.5650  202.0220  148.4210 C   0  0  0  0  0  2  0  0  0  0  0  0
  160.2600  201.9160  149.9090 C   0  0  0  0  0  2  0  0  0  0  0  0
  161.1520  202.8530  150.7020 C   0  0  0  0  0  3  0  0  0  0  0  0
  161.5770  202.1650  151.9830 C   0  0  0  0  0  2  0  0  0  0  0  0
  160.4680  203.1940  152.0090 C   0  0  0  0  0  2  0  0  0  0  0  0
  1 18  1  0  0  0  0
  2 25  1  0  0  0  0
  3  4  2  0  0  0  0
  4 19  1  0  0  0  0
  5 25  1  6  0  0  0
  5  6  1  0  0  0  0
  5 26  1  0  0  0  0
  6 23  1  6  0  0  0
  6 17  1  0  0  0  0
  7 22  1  1  0  0  0
  8 16  1  0  0  0  0
  8 12  1  0  0  0  0
  9 15  1  0  0  0  0
  9 24  1  1  0  0  0
 10  1  1  0  0  0  0
 11  3  1  0  0  0  0
 11 13  1  0  0  0  0
 12 13  1  0  0  0  0
 12  2  2  0  0  0  0
 13 20  2  0  0  0  0
 14 21  1  0  0  0  0
 16 10  1  6  0  0  0
 16  7  1  0  0  0  0
 17 15  1  0  0  0  0
 18  7  1  0  0  0  0
 20 19  1  0  0  0  0
 20 14  1  0  0  0  0
 22  2  1  0  0  0  0
 25 14  2  0  0  0  0
 26 21  1  6  0  0  0
 26  9  1  0  0  0  0
 27 18  1  0  0  0  0
 27 28  1  0  0  0  0
 28 29  1  0  0  0  0
 29 30  1  0  0  0  0
 30 31  1  0  0  0  0
 30 32  1  0  0  0  0
 31 32  1  0  0  0  0
M  END
>  <MODEL>
8

>  <REMARK>
 VINA RESULT:      -4.3      2.697      4.246
  Name = 
  4 active torsions:
  status: ('A' for Active; 'I' for Inactive)
    1  A    between atoms: C_1  and  C_10
    2  A    between atoms: C_10  and  C_19
    3  A    between atoms: C_19  and  C_24
    4  A    between atoms: N_23  and  C_24
                            x       y       z     vdW  Elec       q    Type
                         _______ _______ _______ _____ _____    ______ ____

>  <TORSDO>
F 4

$$$$
