=
 OpenBabel11062408483D

 55 59  0  0  1  0  0  0  0  0999 V2000
  160.9410  203.9700  144.5430 O   0  0  0  0  0  1  0  0  0  0  0  0
  161.4800  205.2570  144.4680 C   0  0  1  0  0  3  0  0  0  0  0  0
  161.4570  205.6950  143.0350 C   0  0  0  0  0  3  0  0  0  0  0  0
  162.2140  206.7010  142.6000 C   0  0  0  0  0  3  0  0  0  0  0  0
  162.1560  207.1020  141.1660 C   0  0  0  0  0  2  0  0  0  0  0  0
  161.1030  208.0160  140.9710 O   0  0  0  0  0  0  0  0  0  0  0  0
  161.2350  207.6720  137.4390 C   0  0  0  0  0  3  0  0  0  0  0  0
  160.0840  209.7990  137.9070 N   0  0  1  0  0  0  0  0  0  0  0  0
  161.7020  207.6640  138.6930 C   0  0  0  0  0  3  0  0  0  0  0  0
  159.9420  209.2930  139.2710 C   0  0  0  0  0  2  0  0  0  0  0  0
  160.1620  208.6420  137.0130 C   0  0  0  0  0  2  0  0  0  0  0  0
  161.2810  208.6880  139.7370 C   0  0  1  0  0  0  0  0  0  0  0  0
  158.8560  210.5070  137.5720 C   0  0  0  0  0  3  0  0  0  0  0  0
  158.5870  211.5980  138.5970 C   0  0  0  0  0  2  0  0  0  0  0  0
  159.1840  211.9570  137.2480 C   0  0  0  0  0  2  0  0  0  0  0  0
  162.2210  209.7650  139.8540 O   0  0  0  0  0  0  0  0  0  0  0  0
  161.4760  213.9040  140.4760 C   0  0  0  0  0  3  0  0  0  0  0  0
  161.0230  213.0320  141.3930 C   0  0  0  0  0  3  0  0  0  0  0  0
  162.5010  211.7350  137.8590 O   0  0  0  0  0  0  0  0  0  0  0  0
  161.6630  211.0700  139.9790 C   0  0  1  0  0  3  0  0  0  0  0  0
  161.5280  211.6170  141.4110 C   0  0  0  0  0  2  0  0  0  0  0  0
  162.2490  212.0700  139.0080 C   0  0  0  0  0  0  0  0  0  0  0  0
  162.4970  213.4950  139.4430 C   0  0  2  0  0  3  0  0  0  0  0  0
  163.7860  213.6140  139.9940 O   0  0  0  0  0  0  0  0  0  0  0  0
  165.0000  212.1640  138.7410 F   0  0  0  0  0  0  0  0  0  0  0  0
  165.9250  214.1350  139.2870 F   0  0  0  0  0  0  0  0  0  0  0  0
  164.2360  214.0390  137.7780 F   0  0  0  0  0  0  0  0  0  0  0  0
  164.7340  213.5040  138.9530 C   0  0  0  0  0  0  0  0  0  0  0  0
  160.6770  206.2150  145.3540 C   0  0  1  0  0  3  0  0  0  0  0  0
  159.3190  205.9030  145.2960 O   0  0  0  0  0  1  0  0  0  0  0  0
  161.1470  206.1050  146.7950 C   0  0  0  0  0  2  0  0  0  0  0  0
  162.1790  207.1770  147.1030 C   0  0  0  0  0  2  0  0  0  0  0  0
  161.7610  207.9540  148.3380 C   0  0  0  0  0  2  0  0  0  0  0  0
  161.7790  207.0400  150.6130 C   0  0  0  0  0  3  0  0  0  0  0  0
  162.4640  207.4140  149.5350 C   0  0  0  0  0  3  0  0  0  0  0  0
  162.4890  206.4780  151.8030 C   0  0  0  0  0  2  0  0  0  0  0  0
  161.5300  205.6940  152.7000 C   0  0  2  0  0  3  0  0  0  0  0  0
  159.9270  203.0120  150.7550 O   0  0  0  0  0  0  0  0  0  0  0  0
  160.5800  204.9320  151.8960 N   0  0  0  0  0  2  0  0  0  0  0  0
  160.7980  203.5890  151.4560 C   0  0  0  0  0  0  0  0  0  0  0  0
  161.9600  202.9120  151.8000 O   0  0  0  0  0  1  0  0  0  0  0  0
  160.7990  206.6060  153.6820 C   0  0  0  0  0  2  0  0  0  0  0  0
  160.8450  208.1680  156.5360 C   0  0  2  0  0  3  0  0  0  0  0  0
  160.2810  209.2540  152.2510 O   0  0  0  0  0  0  0  0  0  0  0  0
  161.6770  207.7830  154.0820 C   0  0  1  0  0  3  0  0  0  0  0  0
  159.4030  211.5110  156.9720 C   0  0  0  0  0  2  0  0  0  0  0  0
  161.9840  210.4230  153.5810 O   0  0  0  0  0  0  0  0  0  0  0  0
  160.9370  209.3470  153.6020 S   0  0  0  0  0  0  0  0  0  0  0  0
  159.6960  207.1670  156.5540 C   0  0  0  0  0  1  0  0  0  0  0  0
  159.4980  211.9320  155.4810 C   0  0  0  0  0  2  0  0  0  0  0  0
  159.0280  210.9140  154.6170 O   0  0  0  0  0  0  0  0  0  0  0  0
  160.3830  209.5930  156.2250 C   0  0  1  0  0  3  0  0  0  0  0  0
  159.7210  209.6940  154.8460 C   0  0  2  0  0  3  0  0  0  0  0  0
  159.5060  210.1120  157.1910 O   0  0  0  0  0  0  0  0  0  0  0  0
  161.9880  207.7390  155.5930 C   0  0  0  0  0  2  0  0  0  0  0  0
  2  1  1  6  0  0  0
  2 29  1  0  0  0  0
  3  2  1  0  0  0  0
  4  3  2  0  0  0  0
  5  4  1  0  0  0  0
  6  5  1  0  0  0  0
  7  9  2  0  0  0  0
  8 13  1  6  0  0  0
  8 10  1  0  0  0  0
  9 12  1  0  0  0  0
 10 12  1  0  0  0  0
 11  7  1  0  0  0  0
 11  8  1  0  0  0  0
 12 16  1  1  0  0  0
 12  6  1  0  0  0  0
 13 14  1  0  0  0  0
 15 13  1  0  0  0  0
 15 14  1  0  0  0  0
 17 18  2  0  0  0  0
 18 21  1  0  0  0  0
 19 22  2  0  0  0  0
 20 16  1  1  0  0  0
 20 21  1  0  0  0  0
 22 23  1  0  0  0  0
 22 20  1  0  0  0  0
 23 24  1  1  0  0  0
 23 17  1  0  0  0  0
 25 28  1  0  0  0  0
 27 28  1  0  0  0  0
 28 26  1  0  0  0  0
 28 24  1  0  0  0  0
 29 30  1  1  0  0  0
 29 31  1  0  0  0  0
 31 32  1  0  0  0  0
 32 33  1  0  0  0  0
 33 35  1  0  0  0  0
 34 36  1  0  0  0  0
 35 34  2  0  0  0  0
 37 36  1  6  0  0  0
 37 42  1  0  0  0  0
 38 40  2  0  0  0  0
 39 37  1  0  0  0  0
 40 41  1  0  0  0  0
 40 39  1  0  0  0  0
 43 49  1  6  0  0  0
 44 48  2  0  0  0  0
 45 42  1  1  0  0  0
 45 55  1  0  0  0  0
 46 54  1  0  0  0  0
 47 48  2  0  0  0  0
 48 45  1  0  0  0  0
 48 53  1  0  0  0  0
 50 46  1  0  0  0  0
 51 50  1  0  0  0  0
 52 43  1  0  0  0  0
 52 54  1  1  0  0  0
 53 51  1  6  0  0  0
 53 52  1  0  0  0  0
 55 43  1  0  0  0  0
M  END
>  <MODEL>
1

>  <REMARK>
 VINA RESULT:      -4.4      0.000      0.000
  Name = 
  19 active torsions:
  status: ('A' for Active; 'I' for Inactive)
    1  A    between atoms: C_2  and  C_44
    2  A    between atoms: C_6  and  C_46
    3  A    between atoms: N_8  and  C_22
    4  A    between atoms: C_10  and  N_32
    5  A    between atoms: C_17  and  O_36
    6  A    between atoms: O_19  and  C_40
    7  A    between atoms: O_19  and  C_45
    8  A    between atoms: C_22  and  C_35
    9  A    between atoms: C_22  and  C_46
   10  A    between atoms: C_24  and  C_31
   11  A    between atoms: C_24  and  C_44
   12  A    between atoms: C_27  and  C_31
   13  A    between atoms: C_27  and  C_54
   14  A    between atoms: C_28  and  C_49
   15  A    between atoms: O_33  and  C_49
   16  A    between atoms: O_33  and  C_52
   17  A    between atoms: C_35  and  C_43
   18  A    between atoms: O_36  and  C_52
   19  A    between atoms: C_51  and  C_54
                            x       y       z     vdW  Elec       q    Type
                         _______ _______ _______ _____ _____    ______ ____

>  <TORSDO>
F 19

$$$$
=
 OpenBabel11062408483D

 55 59  0  0  1  0  0  0  0  0999 V2000
  161.0100  203.6700  144.6720 O   0  0  0  0  0  1  0  0  0  0  0  0
  161.6710  204.8840  144.4740 C   0  0  1  0  0  3  0  0  0  0  0  0
  161.3700  205.3650  143.0880 C   0  0  0  0  0  3  0  0  0  0  0  0
  162.1820  206.2060  142.4480 C   0  0  0  0  0  3  0  0  0  0  0  0
  161.8390  206.6590  141.0710 C   0  0  0  0  0  2  0  0  0  0  0  0
  161.7100  208.0610  141.0500 O   0  0  0  0  0  0  0  0  0  0  0  0
  161.8840  207.1250  137.6290 C   0  0  0  0  0  3  0  0  0  0  0  0
  160.4480  209.1220  137.7510 N   0  0  1  0  0  0  0  0  0  0  0  0
  162.3500  207.4010  138.8530 C   0  0  0  0  0  3  0  0  0  0  0  0
  160.3800  208.8480  139.1850 C   0  0  0  0  0  2  0  0  0  0  0  0
  160.6850  207.8490  137.0690 C   0  0  0  0  0  2  0  0  0  0  0  0
  161.7920  208.5240  139.7130 C   0  0  1  0  0  0  0  0  0  0  0  0
  159.1330  209.5860  137.3300 C   0  0  0  0  0  3  0  0  0  0  0  0
  158.5960  210.6050  138.3240 C   0  0  0  0  0  2  0  0  0  0  0  0
  159.2010  211.0720  137.0120 C   0  0  0  0  0  2  0  0  0  0  0  0
  162.5710  209.7240  139.6190 O   0  0  0  0  0  0  0  0  0  0  0  0
  161.2260  213.7500  139.8360 C   0  0  0  0  0  3  0  0  0  0  0  0
  160.7810  212.8810  140.7590 C   0  0  0  0  0  3  0  0  0  0  0  0
  162.8360  211.5900  137.5240 O   0  0  0  0  0  0  0  0  0  0  0  0
  161.8380  210.9450  139.5800 C   0  0  1  0  0  3  0  0  0  0  0  0
  161.4590  211.5530  140.9420 C   0  0  0  0  0  2  0  0  0  0  0  0
  162.4040  211.9560  138.6080 C   0  0  0  0  0  0  0  0  0  0  0  0
  162.4100  213.4250  138.9590 C   0  0  2  0  0  3  0  0  0  0  0  0
  163.5960  213.7530  139.6410 O   0  0  0  0  0  0  0  0  0  0  0  0
  164.3600  214.0780  137.5300 F   0  0  0  0  0  0  0  0  0  0  0  0
  164.9710  212.2070  138.6100 F   0  0  0  0  0  0  0  0  0  0  0  0
  165.8110  214.2190  139.2340 F   0  0  0  0  0  0  0  0  0  0  0  0
  164.6880  213.5580  138.7680 C   0  0  0  0  0  0  0  0  0  0  0  0
  161.2230  205.9040  145.5250 C   0  0  1  0  0  3  0  0  0  0  0  0
  159.9500  206.3850  145.2190 O   0  0  0  0  0  1  0  0  0  0  0  0
  161.1850  205.2520  146.8980 C   0  0  0  0  0  2  0  0  0  0  0  0
  160.6240  206.2160  147.9300 C   0  0  0  0  0  2  0  0  0  0  0  0
  160.7590  205.6180  149.3190 C   0  0  0  0  0  2  0  0  0  0  0  0
  161.0310  206.8810  151.4020 C   0  0  0  0  0  3  0  0  0  0  0  0
  161.5040  206.5580  150.2020 C   0  0  0  0  0  3  0  0  0  0  0  0
  161.7950  207.8080  152.2930 C   0  0  0  0  0  2  0  0  0  0  0  0
  161.0710  209.1460  152.4510 C   0  0  2  0  0  3  0  0  0  0  0  0
  162.7860  211.1950  149.9210 O   0  0  0  0  0  1  0  0  0  0  0  0
  161.8150  210.2150  151.7950 N   0  0  0  0  0  2  0  0  0  0  0  0
  162.1280  210.2360  150.4000 C   0  0  0  0  0  0  0  0  0  0  0  0
  161.7080  209.2090  149.5650 O   0  0  0  0  0  0  0  0  0  0  0  0
  160.8160  209.4830  153.9180 C   0  0  0  0  0  2  0  0  0  0  0  0
  159.9440  211.0820  156.6140 C   0  0  2  0  0  3  0  0  0  0  0  0
  158.6610  210.9730  152.3480 O   0  0  0  0  0  0  0  0  0  0  0  0
  160.7410  210.9890  154.1200 C   0  0  1  0  0  3  0  0  0  0  0  0
  156.7020  212.7620  156.9440 C   0  0  0  0  0  2  0  0  0  0  0  0
  159.2530  213.1230  153.3780 O   0  0  0  0  0  0  0  0  0  0  0  0
  159.1500  211.6420  153.6050 S   0  0  0  0  0  0  0  0  0  0  0  0
  159.7150  209.5930  156.8430 C   0  0  0  0  0  1  0  0  0  0  0  0
  156.4500  212.9420  155.4220 C   0  0  0  0  0  2  0  0  0  0  0  0
  156.7180  211.7540  154.7010 O   0  0  0  0  0  0  0  0  0  0  0  0
  158.6620  211.8290  156.2460 C   0  0  1  0  0  3  0  0  0  0  0  0
  158.0420  211.2990  154.9460 C   0  0  2  0  0  3  0  0  0  0  0  0
  157.6920  211.7950  157.2600 O   0  0  0  0  0  0  0  0  0  0  0  0
  161.0600  211.3570  155.5850 C   0  0  0  0  0  2  0  0  0  0  0  0
  2  1  1  1  0  0  0
  2 29  1  0  0  0  0
  3  2  1  0  0  0  0
  4  3  2  0  0  0  0
  5  4  1  0  0  0  0
  6  5  1  0  0  0  0
  7  9  2  0  0  0  0
  8 13  1  6  0  0  0
  8 10  1  0  0  0  0
  9 12  1  0  0  0  0
 10 12  1  0  0  0  0
 11  7  1  0  0  0  0
 11  8  1  0  0  0  0
 12 16  1  6  0  0  0
 12  6  1  0  0  0  0
 13 14  1  0  0  0  0
 15 13  1  0  0  0  0
 15 14  1  0  0  0  0
 17 18  2  0  0  0  0
 18 21  1  0  0  0  0
 19 22  2  0  0  0  0
 20 16  1  1  0  0  0
 20 21  1  0  0  0  0
 22 23  1  0  0  0  0
 22 20  1  0  0  0  0
 23 24  1  1  0  0  0
 23 17  1  0  0  0  0
 25 28  1  0  0  0  0
 26 28  1  0  0  0  0
 28 27  1  0  0  0  0
 28 24  1  0  0  0  0
 29 30  1  6  0  0  0
 29 31  1  0  0  0  0
 31 32  1  0  0  0  0
 32 33  1  0  0  0  0
 33 35  1  0  0  0  0
 34 36  1  0  0  0  0
 35 34  2  0  0  0  0
 37 36  1  1  0  0  0
 37 42  1  0  0  0  0
 38 40  1  0  0  0  0
 39 37  1  0  0  0  0
 40 39  1  0  0  0  0
 41 40  2  0  0  0  0
 43 49  1  6  0  0  0
 44 48  2  0  0  0  0
 45 42  1  1  0  0  0
 45 55  1  0  0  0  0
 46 54  1  0  0  0  0
 47 48  2  0  0  0  0
 48 45  1  0  0  0  0
 48 53  1  0  0  0  0
 50 46  1  0  0  0  0
 51 50  1  0  0  0  0
 52 43  1  0  0  0  0
 52 54  1  1  0  0  0
 53 51  1  6  0  0  0
 53 52  1  0  0  0  0
 55 43  1  0  0  0  0
M  END
>  <MODEL>
2

>  <REMARK>
 VINA RESULT:      -4.4      1.987      2.615
  Name = 
  19 active torsions:
  status: ('A' for Active; 'I' for Inactive)
    1  A    between atoms: C_2  and  C_44
    2  A    between atoms: C_6  and  C_46
    3  A    between atoms: N_8  and  C_22
    4  A    between atoms: C_10  and  N_32
    5  A    between atoms: C_17  and  O_36
    6  A    between atoms: O_19  and  C_40
    7  A    between atoms: O_19  and  C_45
    8  A    between atoms: C_22  and  C_35
    9  A    between atoms: C_22  and  C_46
   10  A    between atoms: C_24  and  C_31
   11  A    between atoms: C_24  and  C_44
   12  A    between atoms: C_27  and  C_31
   13  A    between atoms: C_27  and  C_54
   14  A    between atoms: C_28  and  C_49
   15  A    between atoms: O_33  and  C_49
   16  A    between atoms: O_33  and  C_52
   17  A    between atoms: C_35  and  C_43
   18  A    between atoms: O_36  and  C_52
   19  A    between atoms: C_51  and  C_54
                            x       y       z     vdW  Elec       q    Type
                         _______ _______ _______ _____ _____    ______ ____

>  <TORSDO>
F 19

$$$$
=
 OpenBabel11062408483D

 55 59  0  0  1  0  0  0  0  0999 V2000
  160.6670  203.8240  144.5500 O   0  0  0  0  0  1  0  0  0  0  0  0
  161.1810  205.1200  144.4840 C   0  0  1  0  0  3  0  0  0  0  0  0
  161.1430  205.5710  143.0560 C   0  0  0  0  0  3  0  0  0  0  0  0
  162.1110  206.3240  142.5340 C   0  0  0  0  0  3  0  0  0  0  0  0
  162.0280  206.7490  141.1090 C   0  0  0  0  0  2  0  0  0  0  0  0
  161.5630  208.0760  141.0360 O   0  0  0  0  0  0  0  0  0  0  0  0
  161.9480  207.1530  137.6280 C   0  0  0  0  0  3  0  0  0  0  0  0
  160.3790  209.0510  137.6810 N   0  0  1  0  0  0  0  0  0  0  0  0
  162.3400  207.4600  138.8710 C   0  0  0  0  0  3  0  0  0  0  0  0
  160.2660  208.7740  139.1120 C   0  0  0  0  0  2  0  0  0  0  0  0
  160.7290  207.7960  137.0150 C   0  0  0  0  0  2  0  0  0  0  0  0
  161.6720  208.5440  139.7030 C   0  0  1  0  0  0  0  0  0  0  0  0
  159.0560  209.4270  137.2020 C   0  0  0  0  0  3  0  0  0  0  0  0
  158.0390  209.3030  138.3270 C   0  0  0  0  0  2  0  0  0  0  0  0
  158.5850  210.6680  137.9460 C   0  0  0  0  0  2  0  0  0  0  0  0
  162.3740  209.7920  139.6380 O   0  0  0  0  0  0  0  0  0  0  0  0
  160.6570  213.0530  141.7560 C   0  0  0  0  0  3  0  0  0  0  0  0
  159.8810  211.9890  141.4890 C   0  0  0  0  0  3  0  0  0  0  0  0
  163.5400  212.3520  139.8060 O   0  0  0  0  0  0  0  0  0  0  0  0
  161.6470  210.9410  140.0600 C   0  0  1  0  0  3  0  0  0  0  0  0
  160.4950  210.6900  141.0510 C   0  0  0  0  0  2  0  0  0  0  0  0
  162.5320  212.1040  140.4520 C   0  0  0  0  0  0  0  0  0  0  0  0
  162.1580  212.9810  141.6230 C   0  0  2  0  0  3  0  0  0  0  0  0
  162.7030  212.4590  142.8110 O   0  0  0  0  0  0  0  0  0  0  0  0
  162.1110  214.2100  144.1260 F   0  0  0  0  0  0  0  0  0  0  0  0
  163.9290  214.4190  142.8250 F   0  0  0  0  0  0  0  0  0  0  0  0
  163.9660  213.0570  144.6380 F   0  0  0  0  0  0  0  0  0  0  0  0
  163.1900  213.5280  143.5930 C   0  0  0  0  0  0  0  0  0  0  0  0
  160.3660  206.0550  145.3830 C   0  0  1  0  0  3  0  0  0  0  0  0
  159.0170  205.7000  145.3520 O   0  0  0  0  0  1  0  0  0  0  0  0
  160.8650  205.9640  146.8150 C   0  0  0  0  0  2  0  0  0  0  0  0
  162.0450  206.8980  147.0290 C   0  0  0  0  0  2  0  0  0  0  0  0
  162.6130  206.6980  148.4220 C   0  0  0  0  0  2  0  0  0  0  0  0
  162.7070  208.3070  150.2690 C   0  0  0  0  0  3  0  0  0  0  0  0
  161.9760  207.6550  149.3690 C   0  0  0  0  0  3  0  0  0  0  0  0
  162.0640  209.2840  151.2020 C   0  0  0  0  0  2  0  0  0  0  0  0
  161.3030  208.5640  152.3170 C   0  0  2  0  0  3  0  0  0  0  0  0
  160.7610  204.9350  152.0330 O   0  0  0  0  0  0  0  0  0  0  0  0
  160.8450  207.2550  151.8660 N   0  0  0  0  0  2  0  0  0  0  0  0
  161.1940  206.0210  152.4990 C   0  0  0  0  0  0  0  0  0  0  0  0
  162.0010  206.0090  153.6280 O   0  0  0  0  0  1  0  0  0  0  0  0
  160.1340  209.3980  152.8360 C   0  0  0  0  0  2  0  0  0  0  0  0
  160.8790  210.8800  155.6350 C   0  0  2  0  0  3  0  0  0  0  0  0
  158.0140  211.5270  152.2840 O   0  0  0  0  0  0  0  0  0  0  0  0
  160.5510  210.8470  153.0360 C   0  0  1  0  0  3  0  0  0  0  0  0
  158.6200  213.2670  157.2600 C   0  0  0  0  0  2  0  0  0  0  0  0
  159.5210  213.3470  152.9550 O   0  0  0  0  0  0  0  0  0  0  0  0
  159.1250  211.9220  153.2190 S   0  0  0  0  0  0  0  0  0  0  0  0
  160.3720  209.4780  155.9530 C   0  0  0  0  0  1  0  0  0  0  0  0
  157.8370  213.6580  155.9780 C   0  0  0  0  0  2  0  0  0  0  0  0
  157.4650  212.5200  155.2220 O   0  0  0  0  0  0  0  0  0  0  0  0
  159.8080  211.9540  155.8230 C   0  0  1  0  0  3  0  0  0  0  0  0
  158.6010  211.7300  154.9020 C   0  0  2  0  0  3  0  0  0  0  0  0
  159.3560  212.0580  157.1480 O   0  0  0  0  0  0  0  0  0  0  0  0
  161.5170  210.9730  154.2330 C   0  0  0  0  0  2  0  0  0  0  0  0
  2  1  1  6  0  0  0
  2 29  1  0  0  0  0
  3  2  1  0  0  0  0
  4  3  2  0  0  0  0
  5  4  1  0  0  0  0
  6  5  1  0  0  0  0
  7  9  2  0  0  0  0
  8 13  1  6  0  0  0
  8 10  1  0  0  0  0
  9 12  1  0  0  0  0
 10 12  1  0  0  0  0
 11  7  1  0  0  0  0
 11  8  1  0  0  0  0
 12 16  1  6  0  0  0
 12  6  1  0  0  0  0
 13 15  1  0  0  0  0
 13 14  1  0  0  0  0
 15 14  1  0  0  0  0
 18 17  2  0  0  0  0
 19 22  2  0  0  0  0
 20 16  1  1  0  0  0
 20 22  1  0  0  0  0
 20 21  1  0  0  0  0
 21 18  1  0  0  0  0
 22 23  1  0  0  0  0
 23 17  1  0  0  0  0
 23 24  1  1  0  0  0
 24 28  1  0  0  0  0
 26 28  1  0  0  0  0
 28 25  1  0  0  0  0
 28 27  1  0  0  0  0
 29 30  1  1  0  0  0
 29 31  1  0  0  0  0
 31 32  1  0  0  0  0
 32 33  1  0  0  0  0
 33 35  1  0  0  0  0
 34 36  1  0  0  0  0
 35 34  2  0  0  0  0
 37 36  1  6  0  0  0
 37 42  1  0  0  0  0
 38 40  2  0  0  0  0
 39 37  1  0  0  0  0
 39 40  1  0  0  0  0
 40 41  1  0  0  0  0
 43 52  1  0  0  0  0
 43 49  1  6  0  0  0
 44 48  2  0  0  0  0
 45 42  1  1  0  0  0
 45 48  1  0  0  0  0
 45 55  1  0  0  0  0
 47 48  2  0  0  0  0
 48 53  1  0  0  0  0
 50 46  1  0  0  0  0
 51 50  1  0  0  0  0
 52 54  1  1  0  0  0
 53 51  1  1  0  0  0
 53 52  1  0  0  0  0
 54 46  1  0  0  0  0
 55 43  1  0  0  0  0
M  END
>  <MODEL>
3

>  <REMARK>
 VINA RESULT:      -4.0      2.033      2.494
  Name = 
  19 active torsions:
  status: ('A' for Active; 'I' for Inactive)
    1  A    between atoms: C_2  and  C_44
    2  A    between atoms: C_6  and  C_46
    3  A    between atoms: N_8  and  C_22
    4  A    between atoms: C_10  and  N_32
    5  A    between atoms: C_17  and  O_36
    6  A    between atoms: O_19  and  C_40
    7  A    between atoms: O_19  and  C_45
    8  A    between atoms: C_22  and  C_35
    9  A    between atoms: C_22  and  C_46
   10  A    between atoms: C_24  and  C_31
   11  A    between atoms: C_24  and  C_44
   12  A    between atoms: C_27  and  C_31
   13  A    between atoms: C_27  and  C_54
   14  A    between atoms: C_28  and  C_49
   15  A    between atoms: O_33  and  C_49
   16  A    between atoms: O_33  and  C_52
   17  A    between atoms: C_35  and  C_43
   18  A    between atoms: O_36  and  C_52
   19  A    between atoms: C_51  and  C_54
                            x       y       z     vdW  Elec       q    Type
                         _______ _______ _______ _____ _____    ______ ____

>  <TORSDO>
F 19

$$$$
=
 OpenBabel11062408483D

 55 59  0  0  1  0  0  0  0  0999 V2000
  159.5930  212.4060  154.0170 O   0  0  0  0  0  1  0  0  0  0  0  0
  159.6700  211.7100  152.8090 C   0  0  1  0  0  3  0  0  0  0  0  0
  159.8360  212.7030  151.7010 C   0  0  0  0  0  3  0  0  0  0  0  0
  158.8670  212.9300  150.8130 C   0  0  0  0  0  3  0  0  0  0  0  0
  159.0800  213.9270  149.7270 C   0  0  0  0  0  2  0  0  0  0  0  0
  158.7980  213.3370  148.4800 O   0  0  0  0  0  0  0  0  0  0  0  0
  162.1340  214.4500  147.9890 C   0  0  0  0  0  3  0  0  0  0  0  0
  162.1750  211.9910  147.8580 N   0  0  1  0  0  0  0  0  0  0  0  0
  160.8090  214.4250  147.8100 C   0  0  0  0  0  3  0  0  0  0  0  0
  160.8490  212.0480  148.4690 C   0  0  0  0  0  2  0  0  0  0  0  0
  162.9070  213.1870  148.2780 C   0  0  0  0  0  2  0  0  0  0  0  0
  160.0060  213.1330  147.7690 C   0  0  1  0  0  0  0  0  0  0  0  0
  162.8730  210.8480  148.4310 C   0  0  0  0  0  3  0  0  0  0  0  0
  162.2540  210.4770  149.7700 C   0  0  0  0  0  2  0  0  0  0  0  0
  161.9140  209.6700  148.5290 C   0  0  0  0  0  2  0  0  0  0  0  0
  159.7600  212.6860  146.4290 O   0  0  0  0  0  0  0  0  0  0  0  0
  161.2690  214.2420  142.7720 C   0  0  0  0  0  3  0  0  0  0  0  0
  162.1500  213.8030  143.6880 C   0  0  0  0  0  3  0  0  0  0  0  0
  158.2330  214.2060  144.6130 O   0  0  0  0  0  0  0  0  0  0  0  0
  160.3500  213.4650  145.3920 C   0  0  1  0  0  3  0  0  0  0  0  0
  161.6910  212.9510  144.8370 C   0  0  0  0  0  2  0  0  0  0  0  0
  159.3710  213.8720  144.3140 C   0  0  0  0  0  0  0  0  0  0  0  0
  159.8030  213.8980  142.8670 C   0  0  2  0  0  3  0  0  0  0  0  0
  159.5840  212.6400  142.2750 O   0  0  0  0  0  0  0  0  0  0  0  0
  158.2880  212.0080  140.5240 F   0  0  0  0  0  0  0  0  0  0  0  0
  160.4490  212.4790  140.1370 F   0  0  0  0  0  0  0  0  0  0  0  0
  158.9840  214.1370  140.6350 F   0  0  0  0  0  0  0  0  0  0  0  0
  159.3390  212.8250  140.8970 C   0  0  0  0  0  0  0  0  0  0  0  0
  160.8390  210.7200  152.8460 C   0  0  1  0  0  3  0  0  0  0  0  0
  161.5600  210.8690  154.0310 O   0  0  0  0  0  1  0  0  0  0  0  0
  160.3150  209.2950  152.7650 C   0  0  0  0  0  2  0  0  0  0  0  0
  161.4680  208.3060  152.7190 C   0  0  0  0  0  2  0  0  0  0  0  0
  161.2440  207.2080  153.7430 C   0  0  0  0  0  2  0  0  0  0  0  0
  161.0840  205.1290  152.4530 C   0  0  0  0  0  3  0  0  0  0  0  0
  161.8070  205.9250  153.2370 C   0  0  0  0  0  3  0  0  0  0  0  0
  161.6630  203.8530  151.9310 C   0  0  0  0  0  2  0  0  0  0  0  0
  160.7300  203.2010  150.9090 C   0  0  2  0  0  3  0  0  0  0  0  0
  161.0070  199.7670  149.6130 O   0  0  0  0  0  0  0  0  0  0  0  0
  161.2620  201.9140  150.4740 N   0  0  0  0  0  2  0  0  0  0  0  0
  160.4620  200.8490  149.9530 C   0  0  0  0  0  0  0  0  0  0  0  0
  159.0890  201.0000  149.8120 O   0  0  0  0  0  1  0  0  0  0  0  0
  160.4730  204.1130  149.7120 C   0  0  0  0  0  2  0  0  0  0  0  0
  161.1610  206.5960  147.7260 C   0  0  2  0  0  3  0  0  0  0  0  0
  161.0580  202.1500  147.4460 O   0  0  0  0  0  0  0  0  0  0  0  0
  161.7520  204.3420  148.9220 C   0  0  1  0  0  3  0  0  0  0  0  0
  161.1920  206.2470  144.0760 C   0  0  0  0  0  2  0  0  0  0  0  0
  163.0960  203.3560  146.7910 O   0  0  0  0  0  0  0  0  0  0  0  0
  161.7030  203.5050  147.3350 S   0  0  0  0  0  0  0  0  0  0  0  0
  159.7060  206.7190  148.1630 C   0  0  0  0  0  1  0  0  0  0  0  0
  161.4400  204.7140  144.0560 C   0  0  0  0  0  2  0  0  0  0  0  0
  160.5950  204.0330  144.9640 O   0  0  0  0  0  0  0  0  0  0  0  0
  161.3120  205.9750  146.3370 C   0  0  1  0  0  3  0  0  0  0  0  0
  160.7380  204.5530  146.2780 C   0  0  2  0  0  3  0  0  0  0  0  0
  160.7240  206.7450  145.3210 O   0  0  0  0  0  0  0  0  0  0  0  0
  162.0290  205.8520  148.7630 C   0  0  0  0  0  2  0  0  0  0  0  0
  2 29  1  0  0  0  0
  2  1  1  1  0  0  0
  3  2  1  0  0  0  0
  4  3  2  0  0  0  0
  5  4  1  0  0  0  0
  6  5  1  0  0  0  0
  7 11  1  0  0  0  0
  8 11  1  0  0  0  0
  8 13  1  1  0  0  0
  8 10  1  0  0  0  0
  9  7  2  0  0  0  0
 12 16  1  6  0  0  0
 12  9  1  0  0  0  0
 12 10  1  0  0  0  0
 12  6  1  0  0  0  0
 13 15  1  0  0  0  0
 13 14  1  0  0  0  0
 15 14  1  0  0  0  0
 17 23  1  0  0  0  0
 17 18  2  0  0  0  0
 18 21  1  0  0  0  0
 20 16  1  6  0  0  0
 21 20  1  0  0  0  0
 22 19  2  0  0  0  0
 22 20  1  0  0  0  0
 23 24  1  1  0  0  0
 23 22  1  0  0  0  0
 25 28  1  0  0  0  0
 26 28  1  0  0  0  0
 27 28  1  0  0  0  0
 28 24  1  0  0  0  0
 29 30  1  1  0  0  0
 31 29  1  0  0  0  0
 32 31  1  0  0  0  0
 32 33  1  0  0  0  0
 34 35  2  0  0  0  0
 35 33  1  0  0  0  0
 36 34  1  0  0  0  0
 37 42  1  6  0  0  0
 37 36  1  0  0  0  0
 38 40  2  0  0  0  0
 39 37  1  0  0  0  0
 40 39  1  0  0  0  0
 41 40  1  0  0  0  0
 43 49  1  1  0  0  0
 43 55  1  0  0  0  0
 45 42  1  6  0  0  0
 46 54  1  0  0  0  0
 47 48  2  0  0  0  0
 48 44  2  0  0  0  0
 48 45  1  0  0  0  0
 50 46  1  0  0  0  0
 50 51  1  0  0  0  0
 52 54  1  6  0  0  0
 52 43  1  0  0  0  0
 53 51  1  6  0  0  0
 53 52  1  0  0  0  0
 53 48  1  0  0  0  0
 55 45  1  0  0  0  0
M  END
>  <MODEL>
4

>  <REMARK>
 VINA RESULT:      -4.0      3.896      8.626
  Name = 
  19 active torsions:
  status: ('A' for Active; 'I' for Inactive)
    1  A    between atoms: C_2  and  C_44
    2  A    between atoms: C_6  and  C_46
    3  A    between atoms: N_8  and  C_22
    4  A    between atoms: C_10  and  N_32
    5  A    between atoms: C_17  and  O_36
    6  A    between atoms: O_19  and  C_40
    7  A    between atoms: O_19  and  C_45
    8  A    between atoms: C_22  and  C_35
    9  A    between atoms: C_22  and  C_46
   10  A    between atoms: C_24  and  C_31
   11  A    between atoms: C_24  and  C_44
   12  A    between atoms: C_27  and  C_31
   13  A    between atoms: C_27  and  C_54
   14  A    between atoms: C_28  and  C_49
   15  A    between atoms: O_33  and  C_49
   16  A    between atoms: O_33  and  C_52
   17  A    between atoms: C_35  and  C_43
   18  A    between atoms: O_36  and  C_52
   19  A    between atoms: C_51  and  C_54
                            x       y       z     vdW  Elec       q    Type
                         _______ _______ _______ _____ _____    ______ ____

>  <TORSDO>
F 19

$$$$
=
 OpenBabel11062408483D

 55 59  0  0  1  0  0  0  0  0999 V2000
  160.8700  204.8390  148.4860 O   0  0  0  0  0  1  0  0  0  0  0  0
  161.1640  206.1850  148.7130 C   0  0  1  0  0  3  0  0  0  0  0  0
  161.7530  206.3150  150.0840 C   0  0  0  0  0  3  0  0  0  0  0  0
  161.0080  206.6540  151.1360 C   0  0  0  0  0  3  0  0  0  0  0  0
  161.6400  206.7730  152.4800 C   0  0  0  0  0  2  0  0  0  0  0  0
  160.7800  206.2360  153.4570 O   0  0  0  0  0  0  0  0  0  0  0  0
  160.2030  206.9150  156.8950 C   0  0  0  0  0  3  0  0  0  0  0  0
  161.4760  208.8220  155.9940 N   0  0  1  0  0  0  0  0  0  0  0  0
  159.8940  206.5480  155.6460 C   0  0  0  0  0  3  0  0  0  0  0  0
  161.7670  207.9480  154.8590 C   0  0  0  0  0  2  0  0  0  0  0  0
  161.2490  207.9690  157.1610 C   0  0  0  0  0  2  0  0  0  0  0  0
  160.4740  207.2320  154.4170 C   0  0  1  0  0  0  0  0  0  0  0  0
  162.6770  209.5990  156.2680 C   0  0  0  0  0  3  0  0  0  0  0  0
  162.7490  210.7950  155.3290 C   0  0  0  0  0  2  0  0  0  0  0  0
  162.2790  210.9830  156.7610 C   0  0  0  0  0  2  0  0  0  0  0  0
  159.5940  208.2290  153.8800 O   0  0  0  0  0  0  0  0  0  0  0  0
  160.1880  212.4200  153.4910 C   0  0  0  0  0  3  0  0  0  0  0  0
  160.8460  211.6040  152.6500 C   0  0  0  0  0  3  0  0  0  0  0  0
  158.8510  210.1150  155.8380 O   0  0  0  0  0  0  0  0  0  0  0  0
  160.0860  209.5650  153.8850 C   0  0  1  0  0  3  0  0  0  0  0  0
  160.4370  210.1640  152.5120 C   0  0  0  0  0  2  0  0  0  0  0  0
  159.2800  210.5000  154.7590 C   0  0  0  0  0  0  0  0  0  0  0  0
  159.0280  211.9230  154.3180 C   0  0  2  0  0  3  0  0  0  0  0  0
  157.8500  211.9880  153.5500 O   0  0  0  0  0  0  0  0  0  0  0  0
  156.0920  213.4140  153.4030 F   0  0  0  0  0  0  0  0  0  0  0  0
  157.4510  213.5760  155.1830 F   0  0  0  0  0  0  0  0  0  0  0  0
  156.0480  211.8080  154.9680 F   0  0  0  0  0  0  0  0  0  0  0  0
  156.8690  212.6880  154.2870 C   0  0  0  0  0  0  0  0  0  0  0  0
  162.1320  206.7000  147.6420 C   0  0  1  0  0  3  0  0  0  0  0  0
  161.7110  206.2920  146.3760 O   0  0  0  0  0  1  0  0  0  0  0  0
  162.1840  208.2180  147.6770 C   0  0  0  0  0  2  0  0  0  0  0  0
  162.3090  208.7140  149.1080 C   0  0  0  0  0  2  0  0  0  0  0  0
  162.0710  210.2130  149.1550 C   0  0  0  0  0  2  0  0  0  0  0  0
  161.2300  211.8840  147.5710 C   0  0  0  0  0  3  0  0  0  0  0  0
  161.2240  210.6250  148.0010 C   0  0  0  0  0  3  0  0  0  0  0  0
  160.3940  212.2860  146.3970 C   0  0  0  0  0  2  0  0  0  0  0  0
  160.4140  213.8020  146.1980 C   0  0  2  0  0  3  0  0  0  0  0  0
  157.1110  214.4530  147.6870 O   0  0  0  0  0  1  0  0  0  0  0  0
  159.3040  214.4290  146.9080 N   0  0  0  0  0  2  0  0  0  0  0  0
  158.0150  213.8330  147.0680 C   0  0  0  0  0  0  0  0  0  0  0  0
  157.7500  212.5710  146.5530 O   0  0  0  0  0  0  0  0  0  0  0  0
  160.3950  214.1810  144.7200 C   0  0  0  0  0  2  0  0  0  0  0  0
  162.6530  212.7440  142.8700 C   0  0  2  0  0  3  0  0  0  0  0  0
  158.5810  214.4530  142.2770 O   0  0  0  0  0  0  0  0  0  0  0  0
  160.2310  212.9450  143.8480 C   0  0  1  0  0  3  0  0  0  0  0  0
  162.6700  213.0210  139.2140 C   0  0  0  0  0  2  0  0  0  0  0  0
  159.0450  212.1530  141.5490 O   0  0  0  0  0  0  0  0  0  0  0  0
  159.6240  213.3700  142.2130 S   0  0  0  0  0  0  0  0  0  0  0  0
  163.2410  214.0340  143.4310 C   0  0  0  0  0  1  0  0  0  0  0  0
  161.1590  213.3430  139.0620 C   0  0  0  0  0  2  0  0  0  0  0  0
  160.7370  214.3300  139.9840 O   0  0  0  0  0  0  0  0  0  0  0  0
  162.1560  212.8960  141.4320 C   0  0  1  0  0  3  0  0  0  0  0  0
  161.0420  213.9440  141.3170 C   0  0  2  0  0  3  0  0  0  0  0  0
  163.1790  213.2170  140.5250 O   0  0  0  0  0  0  0  0  0  0  0  0
  161.5540  212.1520  143.7760 C   0  0  0  0  0  2  0  0  0  0  0  0
  2  1  1  6  0  0  0
  2  3  1  0  0  0  0
  3  4  2  0  0  0  0
  4  5  1  0  0  0  0
  5  6  1  0  0  0  0
  7 11  1  0  0  0  0
  8 13  1  1  0  0  0
  8 11  1  0  0  0  0
  9  7  2  0  0  0  0
 10  8  1  0  0  0  0
 12  6  1  6  0  0  0
 12 10  1  0  0  0  0
 12  9  1  0  0  0  0
 13 15  1  0  0  0  0
 14 13  1  0  0  0  0
 14 15  1  0  0  0  0
 16 12  1  0  0  0  0
 17 23  1  0  0  0  0
 18 17  2  0  0  0  0
 20 16  1  6  0  0  0
 20 22  1  0  0  0  0
 21 18  1  0  0  0  0
 21 20  1  0  0  0  0
 22 19  2  0  0  0  0
 23 24  1  6  0  0  0
 23 22  1  0  0  0  0
 24 28  1  0  0  0  0
 25 28  1  0  0  0  0
 28 27  1  0  0  0  0
 28 26  1  0  0  0  0
 29 30  1  6  0  0  0
 29 31  1  0  0  0  0
 29  2  1  0  0  0  0
 31 32  1  0  0  0  0
 32 33  1  0  0  0  0
 34 35  2  0  0  0  0
 35 33  1  0  0  0  0
 36 34  1  0  0  0  0
 37 42  1  6  0  0  0
 37 36  1  0  0  0  0
 37 39  1  0  0  0  0
 39 40  1  0  0  0  0
 40 38  1  0  0  0  0
 41 40  2  0  0  0  0
 43 49  1  1  0  0  0
 43 55  1  0  0  0  0
 45 42  1  1  0  0  0
 46 54  1  0  0  0  0
 47 48  2  0  0  0  0
 48 44  2  0  0  0  0
 48 45  1  0  0  0  0
 50 46  1  0  0  0  0
 50 51  1  0  0  0  0
 52 54  1  6  0  0  0
 52 43  1  0  0  0  0
 53 51  1  6  0  0  0
 53 52  1  0  0  0  0
 53 48  1  0  0  0  0
 55 45  1  0  0  0  0
M  END
>  <MODEL>
5

>  <REMARK>
 VINA RESULT:      -3.2      5.531     13.631
  Name = 
  19 active torsions:
  status: ('A' for Active; 'I' for Inactive)
    1  A    between atoms: C_2  and  C_44
    2  A    between atoms: C_6  and  C_46
    3  A    between atoms: N_8  and  C_22
    4  A    between atoms: C_10  and  N_32
    5  A    between atoms: C_17  and  O_36
    6  A    between atoms: O_19  and  C_40
    7  A    between atoms: O_19  and  C_45
    8  A    between atoms: C_22  and  C_35
    9  A    between atoms: C_22  and  C_46
   10  A    between atoms: C_24  and  C_31
   11  A    between atoms: C_24  and  C_44
   12  A    between atoms: C_27  and  C_31
   13  A    between atoms: C_27  and  C_54
   14  A    between atoms: C_28  and  C_49
   15  A    between atoms: O_33  and  C_49
   16  A    between atoms: O_33  and  C_52
   17  A    between atoms: C_35  and  C_43
   18  A    between atoms: O_36  and  C_52
   19  A    between atoms: C_51  and  C_54
                            x       y       z     vdW  Elec       q    Type
                         _______ _______ _______ _____ _____    ______ ____

>  <TORSDO>
F 19

$$$$
=
 OpenBabel11062408483D

 55 59  0  0  1  0  0  0  0  0999 V2000
  160.8400  204.8670  142.8210 O   0  0  0  0  0  1  0  0  0  0  0  0
  161.8330  205.6650  143.3930 C   0  0  1  0  0  3  0  0  0  0  0  0
  162.2900  206.6570  142.3680 C   0  0  0  0  0  3  0  0  0  0  0  0
  161.4860  207.0740  141.3900 C   0  0  0  0  0  3  0  0  0  0  0  0
  161.9880  208.0600  140.3920 C   0  0  0  0  0  2  0  0  0  0  0  0
  161.9780  209.3510  140.9550 O   0  0  0  0  0  0  0  0  0  0  0  0
  162.8220  210.6540  137.7610 C   0  0  0  0  0  3  0  0  0  0  0  0
  160.3620  210.6260  137.8950 N   0  0  1  0  0  0  0  0  0  0  0  0
  162.8820  210.5270  139.0920 C   0  0  0  0  0  3  0  0  0  0  0  0
  160.5460  209.7370  139.0400 C   0  0  0  0  0  2  0  0  0  0  0  0
  161.5230  210.4630  137.0180 C   0  0  0  0  0  2  0  0  0  0  0  0
  161.6510  210.3000  139.9560 C   0  0  1  0  0  0  0  0  0  0  0  0
  159.2040  210.1500  137.1510 C   0  0  0  0  0  3  0  0  0  0  0  0
  158.0520  209.8680  138.1050 C   0  0  0  0  0  2  0  0  0  0  0  0
  158.0680  211.1520  137.2940 C   0  0  0  0  0  2  0  0  0  0  0  0
  161.1540  211.5170  140.5280 O   0  0  0  0  0  0  0  0  0  0  0  0
  162.4340  213.5670  144.0260 C   0  0  0  0  0  3  0  0  0  0  0  0
  163.2020  213.6470  142.9250 C   0  0  0  0  0  3  0  0  0  0  0  0
  160.1040  211.0530  143.1020 O   0  0  0  0  0  0  0  0  0  0  0  0
  161.8050  211.9610  141.7150 C   0  0  1  0  0  3  0  0  0  0  0  0
  162.6570  213.2360  141.5870 C   0  0  0  0  0  2  0  0  0  0  0  0
  160.9050  211.9610  142.9310 C   0  0  0  0  0  0  0  0  0  0  0  0
  161.0130  213.0670  143.9550 C   0  0  2  0  0  3  0  0  0  0  0  0
  160.1630  214.1330  143.6050 O   0  0  0  0  0  0  0  0  0  0  0  0
  158.7150  212.5030  144.2310 F   0  0  0  0  0  0  0  0  0  0  0  0
  157.8860  214.3580  143.2760 F   0  0  0  0  0  0  0  0  0  0  0  0
  158.7300  214.4290  145.3790 F   0  0  0  0  0  0  0  0  0  0  0  0
  158.8750  213.8720  144.1220 C   0  0  0  0  0  0  0  0  0  0  0  0
  161.2890  206.3680  144.6410 C   0  0  1  0  0  3  0  0  0  0  0  0
  159.9260  206.1100  144.7850 O   0  0  0  0  0  1  0  0  0  0  0  0
  162.0170  205.8660  145.8780 C   0  0  0  0  0  2  0  0  0  0  0  0
  161.8050  204.3710  146.0510 C   0  0  0  0  0  2  0  0  0  0  0  0
  161.1070  204.1010  147.3720 C   0  0  0  0  0  2  0  0  0  0  0  0
  160.9660  205.1360  149.5890 C   0  0  0  0  0  3  0  0  0  0  0  0
  161.4410  205.1750  148.3470 C   0  0  0  0  0  3  0  0  0  0  0  0
  161.3240  206.2070  150.5700 C   0  0  0  0  0  2  0  0  0  0  0  0
  161.2250  205.6950  152.0080 C   0  0  2  0  0  3  0  0  0  0  0  0
  160.5480  202.0780  151.9120 O   0  0  0  0  0  1  0  0  0  0  0  0
  160.5510  204.4020  152.0490 N   0  0  0  0  0  2  0  0  0  0  0  0
  161.2130  203.1460  151.8720 C   0  0  0  0  0  0  0  0  0  0  0  0
  162.5840  203.0920  151.6640 O   0  0  0  0  0  0  0  0  0  0  0  0
  160.5260  206.6990  152.9210 C   0  0  0  0  0  2  0  0  0  0  0  0
  160.4830  208.0670  155.8730 C   0  0  2  0  0  3  0  0  0  0  0  0
  160.6040  209.4730  151.6460 O   0  0  0  0  0  0  0  0  0  0  0  0
  161.5260  207.6900  153.4990 C   0  0  1  0  0  3  0  0  0  0  0  0
  159.5460  211.5710  156.4040 C   0  0  0  0  0  2  0  0  0  0  0  0
  162.3030  210.2670  153.2340 O   0  0  0  0  0  0  0  0  0  0  0  0
  161.1030  209.3790  153.0630 S   0  0  0  0  0  0  0  0  0  0  0  0
  159.1970  207.2700  155.6940 C   0  0  0  0  0  1  0  0  0  0  0  0
  159.8800  212.0550  154.9670 C   0  0  0  0  0  2  0  0  0  0  0  0
  159.3610  211.1800  153.9840 O   0  0  0  0  0  0  0  0  0  0  0  0
  160.2920  209.5630  155.6230 C   0  0  1  0  0  3  0  0  0  0  0  0
  159.8210  209.8520  154.1930 C   0  0  2  0  0  3  0  0  0  0  0  0
  159.4010  210.1640  156.5270 O   0  0  0  0  0  0  0  0  0  0  0  0
  161.6470  207.5080  155.0270 C   0  0  0  0  0  2  0  0  0  0  0  0
  2  1  1  6  0  0  0
  2 29  1  0  0  0  0
  3  2  1  0  0  0  0
  4  3  2  0  0  0  0
  5  6  1  0  0  0  0
  5  4  1  0  0  0  0
  7  9  2  0  0  0  0
  8 13  1  6  0  0  0
  8 10  1  0  0  0  0
  9 12  1  0  0  0  0
 10 12  1  0  0  0  0
 11  7  1  0  0  0  0
 11  8  1  0  0  0  0
 12 16  1  1  0  0  0
 12  6  1  0  0  0  0
 13 15  1  0  0  0  0
 13 14  1  0  0  0  0
 15 14  1  0  0  0  0
 18 17  2  0  0  0  0
 20 16  1  6  0  0  0
 20 22  1  0  0  0  0
 21 20  1  0  0  0  0
 21 18  1  0  0  0  0
 22 19  2  0  0  0  0
 22 23  1  0  0  0  0
 23 24  1  6  0  0  0
 23 17  1  0  0  0  0
 24 28  1  0  0  0  0
 26 28  1  0  0  0  0
 28 25  1  0  0  0  0
 28 27  1  0  0  0  0
 29 30  1  1  0  0  0
 29 31  1  0  0  0  0
 31 32  1  0  0  0  0
 32 33  1  0  0  0  0
 33 35  1  0  0  0  0
 34 36  1  0  0  0  0
 35 34  2  0  0  0  0
 37 36  1  6  0  0  0
 37 39  1  0  0  0  0
 37 42  1  0  0  0  0
 40 38  1  0  0  0  0
 40 39  1  0  0  0  0
 41 40  2  0  0  0  0
 43 49  1  6  0  0  0
 44 48  2  0  0  0  0
 45 42  1  1  0  0  0
 45 55  1  0  0  0  0
 46 54  1  0  0  0  0
 48 47  2  0  0  0  0
 48 45  1  0  0  0  0
 48 53  1  0  0  0  0
 50 46  1  0  0  0  0
 51 50  1  0  0  0  0
 52 43  1  0  0  0  0
 52 54  1  1  0  0  0
 53 51  1  1  0  0  0
 53 52  1  0  0  0  0
 55 43  1  0  0  0  0
M  END
>  <MODEL>
6

>  <REMARK>
 VINA RESULT:      -2.5      2.601      3.130
  Name = 
  19 active torsions:
  status: ('A' for Active; 'I' for Inactive)
    1  A    between atoms: C_2  and  C_44
    2  A    between atoms: C_6  and  C_46
    3  A    between atoms: N_8  and  C_22
    4  A    between atoms: C_10  and  N_32
    5  A    between atoms: C_17  and  O_36
    6  A    between atoms: O_19  and  C_40
    7  A    between atoms: O_19  and  C_45
    8  A    between atoms: C_22  and  C_35
    9  A    between atoms: C_22  and  C_46
   10  A    between atoms: C_24  and  C_31
   11  A    between atoms: C_24  and  C_44
   12  A    between atoms: C_27  and  C_31
   13  A    between atoms: C_27  and  C_54
   14  A    between atoms: C_28  and  C_49
   15  A    between atoms: O_33  and  C_49
   16  A    between atoms: O_33  and  C_52
   17  A    between atoms: C_35  and  C_43
   18  A    between atoms: O_36  and  C_52
   19  A    between atoms: C_51  and  C_54
                            x       y       z     vdW  Elec       q    Type
                         _______ _______ _______ _____ _____    ______ ____

>  <TORSDO>
F 19

$$$$
=
 OpenBabel11062408483D

 55 59  0  0  1  0  0  0  0  0999 V2000
  160.7000  203.9820  144.4960 O   0  0  0  0  0  1  0  0  0  0  0  0
  161.4590  205.1430  144.3340 C   0  0  1  0  0  3  0  0  0  0  0  0
  161.4120  205.5400  142.8900 C   0  0  0  0  0  3  0  0  0  0  0  0
  162.1490  206.5450  142.4170 C   0  0  0  0  0  3  0  0  0  0  0  0
  162.0670  206.9040  140.9740 C   0  0  0  0  0  2  0  0  0  0  0  0
  161.0790  207.8910  140.7860 O   0  0  0  0  0  0  0  0  0  0  0  0
  162.7640  208.7740  137.7870 C   0  0  0  0  0  3  0  0  0  0  0  0
  161.0880  210.5290  138.2090 N   0  0  1  0  0  0  0  0  0  0  0  0
  162.6460  208.3750  139.0590 C   0  0  0  0  0  3  0  0  0  0  0  0
  160.4970  209.5830  139.1520 C   0  0  0  0  0  2  0  0  0  0  0  0
  161.7870  209.7520  137.1840 C   0  0  0  0  0  2  0  0  0  0  0  0
  161.6110  208.9520  140.0120 C   0  0  1  0  0  0  0  0  0  0  0  0
  159.9950  211.2200  137.5390 C   0  0  0  0  0  3  0  0  0  0  0  0
  158.8520  211.4570  138.5140 C   0  0  0  0  0  2  0  0  0  0  0  0
  159.8020  212.5900  138.1730 C   0  0  0  0  0  2  0  0  0  0  0  0
  162.1510  209.9890  140.8420 O   0  0  0  0  0  0  0  0  0  0  0  0
  159.8780  213.0740  142.6820 C   0  0  0  0  0  3  0  0  0  0  0  0
  159.2470  211.9390  142.3370 C   0  0  0  0  0  3  0  0  0  0  0  0
  163.0360  212.6510  141.1160 O   0  0  0  0  0  0  0  0  0  0  0  0
  161.2700  211.0630  141.1540 C   0  0  1  0  0  3  0  0  0  0  0  0
  160.0330  210.7040  141.9970 C   0  0  0  0  0  2  0  0  0  0  0  0
  161.9830  212.3070  141.6350 C   0  0  0  0  0  0  0  0  0  0  0  0
  161.3830  213.1470  142.7380 C   0  0  2  0  0  3  0  0  0  0  0  0
  161.8230  212.6830  143.9920 O   0  0  0  0  0  0  0  0  0  0  0  0
  163.1610  214.4490  143.5050 F   0  0  0  0  0  0  0  0  0  0  0  0
  163.8470  212.9890  145.0670 F   0  0  0  0  0  0  0  0  0  0  0  0
  162.1240  214.4000  145.4930 F   0  0  0  0  0  0  0  0  0  0  0  0
  162.7340  213.6210  144.5260 C   0  0  0  0  0  0  0  0  0  0  0  0
  160.9150  206.2570  145.2340 C   0  0  1  0  0  3  0  0  0  0  0  0
  159.5330  206.1320  145.3740 O   0  0  0  0  0  1  0  0  0  0  0  0
  161.5580  206.1730  146.6090 C   0  0  0  0  0  2  0  0  0  0  0  0
  162.6760  207.1940  146.7370 C   0  0  0  0  0  2  0  0  0  0  0  0
  162.5520  207.9290  148.0600 C   0  0  0  0  0  2  0  0  0  0  0  0
  161.0650  207.1750  149.8570 C   0  0  0  0  0  3  0  0  0  0  0  0
  162.1620  206.9720  149.1330 C   0  0  0  0  0  3  0  0  0  0  0  0
  160.6670  206.1990  150.9180 C   0  0  0  0  0  2  0  0  0  0  0  0
  161.8650  205.8010  151.7810 C   0  0  2  0  0  3  0  0  0  0  0  0
  161.1940  202.1860  151.6050 O   0  0  0  0  0  1  0  0  0  0  0  0
  161.8340  204.3730  152.0780 N   0  0  0  0  0  2  0  0  0  0  0  0
  161.1790  203.3980  151.2640 C   0  0  0  0  0  0  0  0  0  0  0  0
  160.5310  203.7720  150.0940 O   0  0  0  0  0  0  0  0  0  0  0  0
  161.9370  206.6210  153.0660 C   0  0  0  0  0  2  0  0  0  0  0  0
  160.9340  209.7100  152.8700 C   0  0  2  0  0  3  0  0  0  0  0  0
  161.1740  206.5710  156.0230 O   0  0  0  0  0  0  0  0  0  0  0  0
  160.5680  207.1770  153.4290 C   0  0  1  0  0  3  0  0  0  0  0  0
  160.5030  211.8310  155.8290 C   0  0  0  0  0  2  0  0  0  0  0  0
  159.0310  207.6930  155.5940 O   0  0  0  0  0  0  0  0  0  0  0  0
  160.4690  207.5930  155.1720 S   0  0  0  0  0  0  0  0  0  0  0  0
  162.4230  209.6670  152.5490 C   0  0  0  0  0  1  0  0  0  0  0  0
  160.3130  210.6700  156.8420 C   0  0  0  0  0  2  0  0  0  0  0  0
  161.2810  209.6540  156.6640 O   0  0  0  0  0  0  0  0  0  0  0  0
  160.6510  210.1370  154.3100 C   0  0  1  0  0  3  0  0  0  0  0  0
  161.2670  209.1690  155.3280 C   0  0  2  0  0  3  0  0  0  0  0  0
  161.0900  211.4390  154.5970 O   0  0  0  0  0  0  0  0  0  0  0  0
  160.2190  208.3850  152.5340 C   0  0  0  0  0  2  0  0  0  0  0  0
  2  1  1  6  0  0  0
  2 29  1  0  0  0  0
  3  2  1  0  0  0  0
  4  3  2  0  0  0  0
  5  4  1  0  0  0  0
  6  5  1  0  0  0  0
  7  9  2  0  0  0  0
  8 13  1  6  0  0  0
  8 10  1  0  0  0  0
  9 12  1  0  0  0  0
 10 12  1  0  0  0  0
 11  7  1  0  0  0  0
 11  8  1  0  0  0  0
 12  6  1  1  0  0  0
 12 16  1  0  0  0  0
 13 15  1  0  0  0  0
 13 14  1  0  0  0  0
 15 14  1  0  0  0  0
 17 23  1  0  0  0  0
 18 17  2  0  0  0  0
 19 22  2  0  0  0  0
 20 16  1  1  0  0  0
 20 22  1  0  0  0  0
 20 21  1  0  0  0  0
 21 18  1  0  0  0  0
 22 23  1  0  0  0  0
 23 24  1  1  0  0  0
 24 28  1  0  0  0  0
 25 28  1  0  0  0  0
 28 26  1  0  0  0  0
 28 27  1  0  0  0  0
 29 30  1  1  0  0  0
 29 31  1  0  0  0  0
 31 32  1  0  0  0  0
 32 33  1  0  0  0  0
 33 35  1  0  0  0  0
 34 36  1  0  0  0  0
 35 34  2  0  0  0  0
 37 36  1  1  0  0  0
 37 39  1  0  0  0  0
 37 42  1  0  0  0  0
 40 38  1  0  0  0  0
 40 39  1  0  0  0  0
 41 40  2  0  0  0  0
 43 49  1  1  0  0  0
 43 52  1  0  0  0  0
 45 42  1  6  0  0  0
 45 48  1  0  0  0  0
 46 50  1  0  0  0  0
 48 53  1  0  0  0  0
 48 47  2  0  0  0  0
 48 44  2  0  0  0  0
 51 50  1  0  0  0  0
 52 54  1  1  0  0  0
 52 53  1  0  0  0  0
 53 51  1  1  0  0  0
 54 46  1  0  0  0  0
 55 43  1  0  0  0  0
 55 45  1  0  0  0  0
M  END
>  <MODEL>
7

>  <REMARK>
 VINA RESULT:      -1.6      2.159      2.766
  Name = 
  19 active torsions:
  status: ('A' for Active; 'I' for Inactive)
    1  A    between atoms: C_2  and  C_44
    2  A    between atoms: C_6  and  C_46
    3  A    between atoms: N_8  and  C_22
    4  A    between atoms: C_10  and  N_32
    5  A    between atoms: C_17  and  O_36
    6  A    between atoms: O_19  and  C_40
    7  A    between atoms: O_19  and  C_45
    8  A    between atoms: C_22  and  C_35
    9  A    between atoms: C_22  and  C_46
   10  A    between atoms: C_24  and  C_31
   11  A    between atoms: C_24  and  C_44
   12  A    between atoms: C_27  and  C_31
   13  A    between atoms: C_27  and  C_54
   14  A    between atoms: C_28  and  C_49
   15  A    between atoms: O_33  and  C_49
   16  A    between atoms: O_33  and  C_52
   17  A    between atoms: C_35  and  C_43
   18  A    between atoms: O_36  and  C_52
   19  A    between atoms: C_51  and  C_54
                            x       y       z     vdW  Elec       q    Type
                         _______ _______ _______ _____ _____    ______ ____

>  <TORSDO>
F 19

$$$$
