=
 OpenBabel11062409243D

 37 39  0  0  1  0  0  0  0  0999 V2000
  159.4380  210.6120  156.8110 O   0  0  0  0  0  0  0  0  0  0  0  0
  157.9210  210.4340  155.1150 O   0  0  0  0  0  1  0  0  0  0  0  0
  160.8460  208.5680  155.8390 C   0  0  1  0  0  3  0  0  0  0  0  0
  159.1100  211.0570  155.5040 C   0  0  2  0  0  0  0  0  0  0  0  0
  160.7390  210.7850  156.9810 O   0  0  0  0  0  0  0  0  0  0  0  0
  161.3330  209.5040  156.9740 C   0  0  2  0  0  3  0  0  0  0  0  0
  160.2080  210.6980  154.4780 C   0  0  0  0  0  2  0  0  0  0  0  0
  159.6640  207.7330  156.2980 C   0  0  0  0  0  1  0  0  0  0  0  0
  160.5560  209.2080  154.4670 C   0  0  1  0  0  3  0  0  0  0  0  0
  162.7200  209.6390  156.9080 O   0  0  0  0  0  0  0  0  0  0  0  0
  162.9550  211.0100  157.0220 C   0  0  0  0  0  1  0  0  0  0  0  0
  158.4700  212.9920  156.7960 O   0  0  0  0  0  1  0  0  0  0  0  0
  158.8980  212.5770  155.5260 C   0  0  2  0  0  3  0  0  0  0  0  0
  156.9710  214.1990  151.7160 O   0  0  0  0  0  1  0  0  0  0  0  0
  158.5700  212.8400  153.0170 C   0  0  2  0  0  3  0  0  0  0  0  0
  158.2870  214.0420  152.1520 C   0  0  0  0  0  0  0  0  0  0  0  0
  159.3120  214.4530  151.2990 O   0  0  0  0  0  1  0  0  0  0  0  0
  157.9660  213.0590  154.3940 C   0  0  2  0  0  3  0  0  0  0  0  0
  158.5300  214.2430  153.6250 C   0  0  1  0  0  3  0  0  0  0  0  0
  161.6950  208.9480  153.4930 C   0  0  0  0  0  2  0  0  0  0  0  0
  161.2420  208.0330  152.3990 C   0  0  0  0  0  0  0  0  0  0  0  0
  160.7150  206.9670  152.6780 O   0  0  0  0  0  0  0  0  0  0  0  0
  161.9130  209.7480  150.8950 O   0  0  0  0  0  1  0  0  0  0  0  0
  161.3990  208.4500  150.9680 C   0  0  1  0  0  3  0  0  0  0  0  0
  162.3190  207.4760  150.2460 C   0  0  0  0  0  2  0  0  0  0  0  0
  161.8780  207.2560  148.8320 C   0  0  0  0  0  0  0  0  0  0  0  0
  162.4850  207.7770  147.9100 O   0  0  0  0  0  0  0  0  0  0  0  0
  160.6720  206.4140  148.5580 C   0  0  0  0  0  2  0  0  0  0  0  0
  160.7200  205.1250  149.3670 C   0  0  0  0  0  2  0  0  0  0  0  0
  161.6450  204.1220  148.6970 C   0  0  0  0  0  2  0  0  0  0  0  0
  160.6810  201.8270  148.4080 C   0  0  0  0  0  1  0  0  0  0  0  0
  160.8730  203.1950  147.7700 C   0  0  2  0  0  3  0  0  0  0  0  0
  160.5260  202.0970  145.2750 Cl  0  0  0  0  0  0  0  0  0  0  0  0
  161.5330  203.0580  146.3910 C   0  0  1  0  0  3  0  0  0  0  0  0
  160.7770  205.4860  145.0200 S   0  0  0  0  0  1  0  0  0  0  0  0
  163.1420  204.6840  145.8080 O   0  0  0  0  0  0  0  0  0  0  0  0
  161.9620  204.3660  145.7760 C   0  0  0  0  0  0  0  0  0  0  0  0
  1  5  1  0  0  0  0
  3  8  1  1  0  0  0
  3  6  1  0  0  0  0
  4  2  1  6  0  0  0
  4 13  1  0  0  0  0
  4  1  1  0  0  0  0
  6 10  1  6  0  0  0
  6  5  1  0  0  0  0
  7  4  1  0  0  0  0
  9 20  1  6  0  0  0
  9  7  1  0  0  0  0
  9  3  1  0  0  0  0
 10 11  1  0  0  0  0
 13 12  1  1  0  0  0
 14 16  1  0  0  0  0
 15 16  1  6  0  0  0
 15 19  1  0  0  0  0
 15 18  1  0  0  0  0
 17 16  1  0  0  0  0
 18 13  1  1  0  0  0
 19 16  1  6  0  0  0
 19 18  1  0  0  0  0
 21 22  2  0  0  0  0
 21 20  1  0  0  0  0
 24 23  1  1  0  0  0
 24 21  1  0  0  0  0
 25 24  1  0  0  0  0
 26 25  1  0  0  0  0
 27 26  2  0  0  0  0
 28 26  1  0  0  0  0
 28 29  1  0  0  0  0
 30 29  1  0  0  0  0
 32 31  1  1  0  0  0
 32 30  1  0  0  0  0
 34 33  1  6  0  0  0
 34 32  1  0  0  0  0
 35 37  1  0  0  0  0
 37 36  2  0  0  0  0
 37 34  1  0  0  0  0
M  END
>  <MODEL>
1

>  <REMARK>
 VINA RESULT:      -6.8      0.000      0.000
  Name = 
  14 active torsions:
  status: ('A' for Active; 'I' for Inactive)
    1  A    between atoms: C_1  and  C_5
    2  A    between atoms: C_1  and  C_36
    3  A    between atoms: O_4  and  C_28
    4  A    between atoms: C_5  and  C_17
    5  A    between atoms: C_7  and  C_27
    6  A    between atoms: C_7  and  C_33
    7  A    between atoms: C_11  and  C_26
    8  A    between atoms: C_11  and  C_33
    9  A    between atoms: C_17  and  C_26
   10  A    between atoms: C_18  and  C_19
   11  A    between atoms: C_18  and  C_35
   12  A    between atoms: C_20  and  C_24
   13  A    between atoms: C_24  and  C_30
   14  A    between atoms: C_27  and  C_35
                            x       y       z     vdW  Elec       q    Type
                         _______ _______ _______ _____ _____    ______ ____

>  <TORSDO>
F 14

$$$$
=
 OpenBabel11062409243D

 37 39  0  0  1  0  0  0  0  0999 V2000
  159.3780  210.8320  155.5960 O   0  0  0  0  0  0  0  0  0  0  0  0
  161.4640  210.8840  154.6720 O   0  0  0  0  0  1  0  0  0  0  0  0
  158.6150  212.9230  154.1290 C   0  0  1  0  0  3  0  0  0  0  0  0
  160.1850  210.3370  154.5380 C   0  0  2  0  0  0  0  0  0  0  0  0
  158.1130  210.7330  155.2170 O   0  0  0  0  0  0  0  0  0  0  0  0
  157.6510  212.0430  154.9650 C   0  0  2  0  0  3  0  0  0  0  0  0
  159.6280  210.7280  153.1520 C   0  0  0  0  0  2  0  0  0  0  0  0
  159.5530  213.7050  155.0320 C   0  0  0  0  0  1  0  0  0  0  0  0
  159.4040  212.2340  152.9980 C   0  0  1  0  0  3  0  0  0  0  0  0
  156.4070  211.9810  154.3360 O   0  0  0  0  0  0  0  0  0  0  0  0
  155.6560  213.0010  154.9200 C   0  0  0  0  0  1  0  0  0  0  0  0
  160.4330  208.4220  155.9880 O   0  0  0  0  0  1  0  0  0  0  0  0
  160.2790  208.8080  154.6480 C   0  0  2  0  0  3  0  0  0  0  0  0
  162.8980  206.3030  151.8690 O   0  0  0  0  0  1  0  0  0  0  0  0
  160.7870  207.3150  152.6520 C   0  0  2  0  0  3  0  0  0  0  0  0
  161.6660  206.1010  152.4910 C   0  0  0  0  0  0  0  0  0  0  0  0
  161.0180  204.8840  152.2790 O   0  0  0  0  0  1  0  0  0  0  0  0
  161.3680  208.2170  153.7260 C   0  0  2  0  0  3  0  0  0  0  0  0
  161.5030  206.7090  153.8600 C   0  0  1  0  0  3  0  0  0  0  0  0
  158.7810  212.5300  151.6410 C   0  0  0  0  0  2  0  0  0  0  0  0
  159.7690  213.2260  150.7590 C   0  0  0  0  0  0  0  0  0  0  0  0
  160.2710  214.2790  151.1220 O   0  0  0  0  0  0  0  0  0  0  0  0
  159.8950  213.4770  148.3980 O   0  0  0  0  0  1  0  0  0  0  0  0
  160.1680  212.6040  149.4550 C   0  0  1  0  0  3  0  0  0  0  0  0
  161.6480  212.2550  149.4830 C   0  0  0  0  0  2  0  0  0  0  0  0
  161.8630  210.8170  149.8430 C   0  0  0  0  0  0  0  0  0  0  0  0
  162.0760  210.4980  151.0010 O   0  0  0  0  0  0  0  0  0  0  0  0
  161.8420  209.7770  148.7680 C   0  0  0  0  0  2  0  0  0  0  0  0
  162.0380  208.3880  149.3590 C   0  0  0  0  0  2  0  0  0  0  0  0
  162.4930  207.4200  148.2800 C   0  0  0  0  0  2  0  0  0  0  0  0
  160.3570  206.3250  148.9990 C   0  0  0  0  0  1  0  0  0  0  0  0
  161.3660  206.4820  147.8710 C   0  0  2  0  0  3  0  0  0  0  0  0
  161.3480  203.8100  148.5150 Cl  0  0  0  0  0  0  0  0  0  0  0  0
  161.8790  205.1100  147.4130 C   0  0  1  0  0  3  0  0  0  0  0  0
  160.5400  205.8480  144.9620 S   0  0  0  0  0  1  0  0  0  0  0  0
  162.0650  203.7810  145.4710 O   0  0  0  0  0  0  0  0  0  0  0  0
  161.5770  204.7840  145.9720 C   0  0  0  0  0  0  0  0  0  0  0  0
  3  6  1  0  0  0  0
  3  8  1  1  0  0  0
  4 13  1  0  0  0  0
  4  2  1  1  0  0  0
  4  1  1  0  0  0  0
  5  1  1  0  0  0  0
  6 10  1  6  0  0  0
  6  5  1  0  0  0  0
  7  4  1  0  0  0  0
  9 20  1  6  0  0  0
  9  7  1  0  0  0  0
  9  3  1  0  0  0  0
 10 11  1  0  0  0  0
 13 12  1  1  0  0  0
 14 16  1  0  0  0  0
 15 16  1  6  0  0  0
 15 18  1  0  0  0  0
 15 19  1  0  0  0  0
 17 16  1  0  0  0  0
 18 19  1  0  0  0  0
 18 13  1  1  0  0  0
 19 16  1  6  0  0  0
 21 22  2  0  0  0  0
 21 20  1  0  0  0  0
 24 23  1  6  0  0  0
 24 25  1  0  0  0  0
 24 21  1  0  0  0  0
 25 26  1  0  0  0  0
 26 27  2  0  0  0  0
 28 29  1  0  0  0  0
 28 26  1  0  0  0  0
 30 29  1  0  0  0  0
 32 30  1  0  0  0  0
 32 31  1  1  0  0  0
 34 32  1  0  0  0  0
 34 33  1  1  0  0  0
 35 37  1  0  0  0  0
 36 37  2  0  0  0  0
 37 34  1  0  0  0  0
M  END
>  <MODEL>
2

>  <REMARK>
 VINA RESULT:      -6.7      1.964      5.182
  Name = 
  14 active torsions:
  status: ('A' for Active; 'I' for Inactive)
    1  A    between atoms: C_1  and  C_5
    2  A    between atoms: C_1  and  C_36
    3  A    between atoms: O_4  and  C_28
    4  A    between atoms: C_5  and  C_17
    5  A    between atoms: C_7  and  C_27
    6  A    between atoms: C_7  and  C_33
    7  A    between atoms: C_11  and  C_26
    8  A    between atoms: C_11  and  C_33
    9  A    between atoms: C_17  and  C_26
   10  A    between atoms: C_18  and  C_19
   11  A    between atoms: C_18  and  C_35
   12  A    between atoms: C_20  and  C_24
   13  A    between atoms: C_24  and  C_30
   14  A    between atoms: C_27  and  C_35
                            x       y       z     vdW  Elec       q    Type
                         _______ _______ _______ _____ _____    ______ ____

>  <TORSDO>
F 14

$$$$
=
 OpenBabel11062409243D

 37 39  0  0  1  0  0  0  0  0999 V2000
  159.6010  209.4370  156.0660 O   0  0  0  0  0  0  0  0  0  0  0  0
  161.8550  209.0740  156.0700 O   0  0  0  0  0  1  0  0  0  0  0  0
  159.9080  211.6750  154.6520 C   0  0  1  0  0  3  0  0  0  0  0  0
  160.6710  208.8100  155.3760 C   0  0  2  0  0  0  0  0  0  0  0  0
  158.6140  209.6140  155.2020 O   0  0  0  0  0  0  0  0  0  0  0  0
  158.5440  210.9980  154.9300 C   0  0  2  0  0  3  0  0  0  0  0  0
  160.8210  209.3410  153.9340 C   0  0  0  0  0  2  0  0  0  0  0  0
  160.5100  212.2220  155.9350 C   0  0  0  0  0  1  0  0  0  0  0  0
  160.9580  210.8640  153.8660 C   0  0  1  0  0  3  0  0  0  0  0  0
  157.6850  211.2110  153.8510 O   0  0  0  0  0  0  0  0  0  0  0  0
  157.0850  212.4450  154.1060 C   0  0  0  0  0  1  0  0  0  0  0  0
  160.4270  206.7750  156.6510 O   0  0  0  0  0  1  0  0  0  0  0  0
  160.4340  207.2930  155.3480 C   0  0  2  0  0  3  0  0  0  0  0  0
  162.5550  204.8280  152.1410 O   0  0  0  0  0  1  0  0  0  0  0  0
  160.9080  206.4580  152.9920 C   0  0  2  0  0  3  0  0  0  0  0  0
  161.2180  205.0880  152.4450 C   0  0  0  0  0  0  0  0  0  0  0  0
  160.2390  204.4970  151.6460 O   0  0  0  0  0  1  0  0  0  0  0  0
  161.4230  206.5580  154.4170 C   0  0  2  0  0  3  0  0  0  0  0  0
  160.8830  205.2330  153.9070 C   0  0  1  0  0  3  0  0  0  0  0  0
  161.0190  211.3160  152.4140 C   0  0  0  0  0  2  0  0  0  0  0  0
  162.0340  210.5110  151.6650 C   0  0  0  0  0  0  0  0  0  0  0  0
  163.1680  210.4040  152.1050 O   0  0  0  0  0  0  0  0  0  0  0  0
  161.9840  210.5820  149.2890 O   0  0  0  0  0  1  0  0  0  0  0  0
  161.6400  209.8090  150.4010 C   0  0  1  0  0  3  0  0  0  0  0  0
  162.3220  208.4510  150.3330 C   0  0  0  0  0  2  0  0  0  0  0  0
  161.9070  207.6920  149.1110 C   0  0  0  0  0  0  0  0  0  0  0  0
  162.5970  207.7250  148.1040 O   0  0  0  0  0  0  0  0  0  0  0  0
  160.6290  206.9170  149.1220 C   0  0  0  0  0  2  0  0  0  0  0  0
  160.6700  205.7960  148.0930 C   0  0  0  0  0  2  0  0  0  0  0  0
  161.3490  204.5700  148.6820 C   0  0  0  0  0  2  0  0  0  0  0  0
  162.0460  204.3660  146.2840 C   0  0  0  0  0  1  0  0  0  0  0  0
  161.8120  203.6180  147.5880 C   0  0  2  0  0  3  0  0  0  0  0  0
  160.6850  202.0350  145.6440 Cl  0  0  0  0  0  0  0  0  0  0  0  0
  160.8370  202.4520  147.3730 C   0  0  1  0  0  3  0  0  0  0  0  0
  160.9330  201.2680  150.0060 S   0  0  0  0  0  1  0  0  0  0  0  0
  161.4800  200.2010  147.6780 O   0  0  0  0  0  0  0  0  0  0  0  0
  161.1260  201.2380  148.2200 C   0  0  0  0  0  0  0  0  0  0  0  0
  3  6  1  0  0  0  0
  3  8  1  1  0  0  0
  4  1  1  0  0  0  0
  4  2  1  1  0  0  0
  5  1  1  0  0  0  0
  6 10  1  6  0  0  0
  6  5  1  0  0  0  0
  7  4  1  0  0  0  0
  9 20  1  6  0  0  0
  9  7  1  0  0  0  0
  9  3  1  0  0  0  0
 10 11  1  0  0  0  0
 13  4  1  0  0  0  0
 13 12  1  1  0  0  0
 14 16  1  0  0  0  0
 15 16  1  6  0  0  0
 15 19  1  0  0  0  0
 15 18  1  0  0  0  0
 17 16  1  0  0  0  0
 18 13  1  1  0  0  0
 19 16  1  6  0  0  0
 19 18  1  0  0  0  0
 21 22  2  0  0  0  0
 21 20  1  0  0  0  0
 24 23  1  6  0  0  0
 24 21  1  0  0  0  0
 25 24  1  0  0  0  0
 26 28  1  0  0  0  0
 26 25  1  0  0  0  0
 27 26  2  0  0  0  0
 29 30  1  0  0  0  0
 29 28  1  0  0  0  0
 32 31  1  6  0  0  0
 32 30  1  0  0  0  0
 34 33  1  6  0  0  0
 34 32  1  0  0  0  0
 34 37  1  0  0  0  0
 36 37  2  0  0  0  0
 37 35  1  0  0  0  0
M  END
>  <MODEL>
3

>  <REMARK>
 VINA RESULT:      -6.4      2.157      4.887
  Name = 
  14 active torsions:
  status: ('A' for Active; 'I' for Inactive)
    1  A    between atoms: C_1  and  C_5
    2  A    between atoms: C_1  and  C_36
    3  A    between atoms: O_4  and  C_28
    4  A    between atoms: C_5  and  C_17
    5  A    between atoms: C_7  and  C_27
    6  A    between atoms: C_7  and  C_33
    7  A    between atoms: C_11  and  C_26
    8  A    between atoms: C_11  and  C_33
    9  A    between atoms: C_17  and  C_26
   10  A    between atoms: C_18  and  C_19
   11  A    between atoms: C_18  and  C_35
   12  A    between atoms: C_20  and  C_24
   13  A    between atoms: C_24  and  C_30
   14  A    between atoms: C_27  and  C_35
                            x       y       z     vdW  Elec       q    Type
                         _______ _______ _______ _____ _____    ______ ____

>  <TORSDO>
F 14

$$$$
=
 OpenBabel11062409243D

 37 39  0  0  1  0  0  0  0  0999 V2000
  162.2800  207.0370  146.9650 O   0  0  0  0  0  0  0  0  0  0  0  0
  163.1920  206.4740  148.9800 O   0  0  0  0  0  1  0  0  0  0  0  0
  162.0290  204.4680  146.3000 C   0  0  1  0  0  3  0  0  0  0  0  0
  161.9890  206.7510  148.3260 C   0  0  2  0  0  0  0  0  0  0  0  0
  161.1790  206.8150  146.2640 O   0  0  0  0  0  0  0  0  0  0  0  0
  161.3970  205.6410  145.5090 C   0  0  2  0  0  3  0  0  0  0  0  0
  161.0580  205.5280  148.4750 C   0  0  0  0  0  2  0  0  0  0  0  0
  163.5440  204.5030  146.2010 C   0  0  0  0  0  1  0  0  0  0  0  0
  161.5870  204.2800  147.7650 C   0  0  1  0  0  3  0  0  0  0  0  0
  160.1920  205.2290  144.9390 O   0  0  0  0  0  0  0  0  0  0  0  0
  160.4360  203.9360  144.4740 C   0  0  0  0  0  1  0  0  0  0  0  0
  161.2310  209.0250  148.0400 O   0  0  0  0  0  1  0  0  0  0  0  0
  161.3370  207.9820  148.9720 C   0  0  2  0  0  3  0  0  0  0  0  0
  162.7210  209.8960  152.8810 O   0  0  0  0  0  1  0  0  0  0  0  0
  161.0760  208.9140  151.3250 C   0  0  2  0  0  3  0  0  0  0  0  0
  161.6580  210.1250  152.0070 C   0  0  0  0  0  0  0  0  0  0  0  0
  160.7710  211.1580  152.3120 O   0  0  0  0  0  1  0  0  0  0  0  0
  162.0490  208.4120  150.2720 C   0  0  2  0  0  3  0  0  0  0  0  0
  161.9400  209.9030  150.5430 C   0  0  1  0  0  3  0  0  0  0  0  0
  160.5810  203.1460  147.8890 C   0  0  0  0  0  2  0  0  0  0  0  0
  160.9900  202.2090  148.9820 C   0  0  0  0  0  0  0  0  0  0  0  0
  161.7320  201.2720  148.7310 O   0  0  0  0  0  0  0  0  0  0  0  0
  160.1370  201.2460  150.9810 O   0  0  0  0  0  1  0  0  0  0  0  0
  160.5190  202.4510  150.3840 C   0  0  1  0  0  3  0  0  0  0  0  0
  161.6240  203.1150  151.1900 C   0  0  0  0  0  2  0  0  0  0  0  0
  161.0630  203.9780  152.2780 C   0  0  0  0  0  0  0  0  0  0  0  0
  160.3290  203.4980  153.1270 O   0  0  0  0  0  0  0  0  0  0  0  0
  161.3860  205.4380  152.3020 C   0  0  0  0  0  2  0  0  0  0  0  0
  161.5850  205.9220  153.7310 C   0  0  0  0  0  2  0  0  0  0  0  0
  160.6650  207.0980  154.0180 C   0  0  0  0  0  2  0  0  0  0  0  0
  160.0710  207.0170  156.4500 C   0  0  0  0  0  1  0  0  0  0  0  0
  160.9380  207.6870  155.3950 C   0  0  2  0  0  3  0  0  0  0  0  0
  159.0320  209.6540  155.6160 Cl  0  0  0  0  0  0  0  0  0  0  0  0
  160.7510  209.2100  155.4300 C   0  0  1  0  0  3  0  0  0  0  0  0
  161.0850  211.4200  157.2600 S   0  0  0  0  0  1  0  0  0  0  0  0
  162.7230  209.4540  156.7030 O   0  0  0  0  0  0  0  0  0  0  0  0
  161.6260  209.9200  156.4320 C   0  0  0  0  0  0  0  0  0  0  0  0
  1  4  1  0  0  0  0
  3  8  1  1  0  0  0
  3  9  1  0  0  0  0
  4  7  1  0  0  0  0
  4 13  1  0  0  0  0
  4  2  1  1  0  0  0
  5  1  1  0  0  0  0
  6 10  1  1  0  0  0
  6  5  1  0  0  0  0
  6  3  1  0  0  0  0
  9 20  1  6  0  0  0
  9  7  1  0  0  0  0
 11 10  1  0  0  0  0
 13 12  1  6  0  0  0
 15 16  1  1  0  0  0
 16 17  1  0  0  0  0
 16 14  1  0  0  0  0
 18 13  1  6  0  0  0
 18 19  1  0  0  0  0
 18 15  1  0  0  0  0
 19 15  1  0  0  0  0
 19 16  1  1  0  0  0
 20 21  1  0  0  0  0
 21 24  1  0  0  0  0
 22 21  2  0  0  0  0
 24 23  1  1  0  0  0
 24 25  1  0  0  0  0
 25 26  1  0  0  0  0
 26 28  1  0  0  0  0
 26 27  2  0  0  0  0
 28 29  1  0  0  0  0
 29 30  1  0  0  0  0
 30 32  1  0  0  0  0
 32 34  1  0  0  0  0
 32 31  1  1  0  0  0
 34 33  1  1  0  0  0
 34 37  1  0  0  0  0
 37 36  2  0  0  0  0
 37 35  1  0  0  0  0
M  END
>  <MODEL>
4

>  <REMARK>
 VINA RESULT:      -6.1      4.095      9.095
  Name = 
  14 active torsions:
  status: ('A' for Active; 'I' for Inactive)
    1  A    between atoms: C_1  and  C_5
    2  A    between atoms: C_1  and  C_36
    3  A    between atoms: O_4  and  C_28
    4  A    between atoms: C_5  and  C_17
    5  A    between atoms: C_7  and  C_27
    6  A    between atoms: C_7  and  C_33
    7  A    between atoms: C_11  and  C_26
    8  A    between atoms: C_11  and  C_33
    9  A    between atoms: C_17  and  C_26
   10  A    between atoms: C_18  and  C_19
   11  A    between atoms: C_18  and  C_35
   12  A    between atoms: C_20  and  C_24
   13  A    between atoms: C_24  and  C_30
   14  A    between atoms: C_27  and  C_35
                            x       y       z     vdW  Elec       q    Type
                         _______ _______ _______ _____ _____    ______ ____

>  <TORSDO>
F 14

$$$$
=
 OpenBabel11062409243D

 37 39  0  0  1  0  0  0  0  0999 V2000
  161.6470  207.5580  154.4610 O   0  0  0  0  0  0  0  0  0  0  0  0
  162.4610  207.6490  152.3310 O   0  0  0  0  0  1  0  0  0  0  0  0
  161.0630  210.1580  154.4090 C   0  0  1  0  0  3  0  0  0  0  0  0
  161.3110  207.4160  153.0890 C   0  0  2  0  0  0  0  0  0  0  0  0
  160.5330  207.8260  155.1240 O   0  0  0  0  0  0  0  0  0  0  0  0
  160.5990  209.1810  155.5170 C   0  0  2  0  0  3  0  0  0  0  0  0
  160.2240  208.4230  152.6530 C   0  0  0  0  0  2  0  0  0  0  0  0
  162.5700  210.3420  154.4460 C   0  0  0  0  0  1  0  0  0  0  0  0
  160.5880  209.8750  152.9690 C   0  0  1  0  0  3  0  0  0  0  0  0
  159.3550  209.5800  156.0060 O   0  0  0  0  0  0  0  0  0  0  0  0
  159.5630  210.8600  156.5220 C   0  0  0  0  0  1  0  0  0  0  0  0
  161.2580  205.1290  153.8600 O   0  0  0  0  0  1  0  0  0  0  0  0
  160.8230  205.9820  152.8350 C   0  0  2  0  0  3  0  0  0  0  0  0
  161.6050  203.6250  149.0020 O   0  0  0  0  0  1  0  0  0  0  0  0
  160.2760  204.3690  150.9460 C   0  0  2  0  0  3  0  0  0  0  0  0
  161.0880  203.3020  150.2570 C   0  0  0  0  0  0  0  0  0  0  0  0
  160.7050  201.9800  150.4850 O   0  0  0  0  0  1  0  0  0  0  0  0
  161.2030  205.4720  151.4290 C   0  0  2  0  0  3  0  0  0  0  0  0
  161.6860  204.0310  151.4330 C   0  0  1  0  0  3  0  0  0  0  0  0
  159.4390  210.7950  152.5840 C   0  0  0  0  0  2  0  0  0  0  0  0
  159.9640  212.0300  151.9230 C   0  0  0  0  0  0  0  0  0  0  0  0
  160.0500  213.0690  152.5580 O   0  0  0  0  0  0  0  0  0  0  0  0
  160.5150  213.2620  149.9650 O   0  0  0  0  0  1  0  0  0  0  0  0
  160.4200  211.9730  150.4960 C   0  0  1  0  0  3  0  0  0  0  0  0
  161.7650  211.2660  150.4140 C   0  0  0  0  0  2  0  0  0  0  0  0
  162.1550  211.0000  148.9930 C   0  0  0  0  0  0  0  0  0  0  0  0
  162.7230  211.8600  148.3390 O   0  0  0  0  0  0  0  0  0  0  0  0
  161.8210  209.6820  148.3710 C   0  0  0  0  0  2  0  0  0  0  0  0
  162.2290  208.5360  149.2860 C   0  0  0  0  0  2  0  0  0  0  0  0
  162.6000  207.3140  148.4600 C   0  0  0  0  0  2  0  0  0  0  0  0
  160.3330  206.3330  148.0430 C   0  0  0  0  0  1  0  0  0  0  0  0
  161.5370  207.0150  147.4130 C   0  0  2  0  0  3  0  0  0  0  0  0
  163.3230  205.0200  146.7940 Cl  0  0  0  0  0  0  0  0  0  0  0  0
  162.0810  206.1790  146.2460 C   0  0  1  0  0  3  0  0  0  0  0  0
  160.9550  203.7240  145.2210 S   0  0  0  0  0  1  0  0  0  0  0  0
  160.1630  206.1950  144.8710 O   0  0  0  0  0  0  0  0  0  0  0  0
  161.0170  205.5090  145.4130 C   0  0  0  0  0  0  0  0  0  0  0  0
  1  5  1  0  0  0  0
  3  8  1  6  0  0  0
  3  6  1  0  0  0  0
  4  2  1  6  0  0  0
  4  1  1  0  0  0  0
  5  6  1  0  0  0  0
  6 10  1  6  0  0  0
  7  9  1  0  0  0  0
  7  4  1  0  0  0  0
  9 20  1  1  0  0  0
  9  3  1  0  0  0  0
 10 11  1  0  0  0  0
 13  4  1  0  0  0  0
 13 12  1  1  0  0  0
 14 16  1  0  0  0  0
 15 16  1  6  0  0  0
 15 18  1  0  0  0  0
 15 19  1  0  0  0  0
 16 17  1  0  0  0  0
 18 19  1  0  0  0  0
 18 13  1  1  0  0  0
 19 16  1  6  0  0  0
 21 22  2  0  0  0  0
 21 20  1  0  0  0  0
 24 23  1  1  0  0  0
 24 21  1  0  0  0  0
 25 24  1  0  0  0  0
 26 25  1  0  0  0  0
 27 26  2  0  0  0  0
 28 26  1  0  0  0  0
 28 29  1  0  0  0  0
 30 29  1  0  0  0  0
 32 31  1  1  0  0  0
 32 30  1  0  0  0  0
 34 33  1  1  0  0  0
 34 32  1  0  0  0  0
 35 37  1  0  0  0  0
 36 37  2  0  0  0  0
 37 34  1  0  0  0  0
M  END
>  <MODEL>
5

>  <REMARK>
 VINA RESULT:      -5.8      2.368      5.800
  Name = 
  14 active torsions:
  status: ('A' for Active; 'I' for Inactive)
    1  A    between atoms: C_1  and  C_5
    2  A    between atoms: C_1  and  C_36
    3  A    between atoms: O_4  and  C_28
    4  A    between atoms: C_5  and  C_17
    5  A    between atoms: C_7  and  C_27
    6  A    between atoms: C_7  and  C_33
    7  A    between atoms: C_11  and  C_26
    8  A    between atoms: C_11  and  C_33
    9  A    between atoms: C_17  and  C_26
   10  A    between atoms: C_18  and  C_19
   11  A    between atoms: C_18  and  C_35
   12  A    between atoms: C_20  and  C_24
   13  A    between atoms: C_24  and  C_30
   14  A    between atoms: C_27  and  C_35
                            x       y       z     vdW  Elec       q    Type
                         _______ _______ _______ _____ _____    ______ ____

>  <TORSDO>
F 14

$$$$
=
 OpenBabel11062409243D

 37 39  0  0  1  0  0  0  0  0999 V2000
  160.4640  202.1140  150.6000 O   0  0  0  0  0  0  0  0  0  0  0  0
  159.5960  204.2130  150.3680 O   0  0  0  0  0  1  0  0  0  0  0  0
  160.3980  201.7350  147.9630 C   0  0  1  0  0  3  0  0  0  0  0  0
  160.7890  203.4860  150.4330 C   0  0  2  0  0  0  0  0  0  0  0  0
  161.4980  201.4020  150.1780 O   0  0  0  0  0  0  0  0  0  0  0  0
  161.1150  200.7950  148.9630 C   0  0  2  0  0  3  0  0  0  0  0  0
  161.5860  203.7390  149.1350 C   0  0  0  0  0  2  0  0  0  0  0  0
  158.8930  201.6890  148.1600 C   0  0  0  0  0  1  0  0  0  0  0  0
  160.8890  203.1950  147.8850 C   0  0  1  0  0  3  0  0  0  0  0  0
  162.2370  200.2300  148.3560 O   0  0  0  0  0  0  0  0  0  0  0  0
  161.7730  199.7170  147.1440 C   0  0  0  0  0  1  0  0  0  0  0  0
  160.8970  203.7260  152.8320 O   0  0  0  0  0  1  0  0  0  0  0  0
  161.6030  203.9640  151.6440 C   0  0  2  0  0  3  0  0  0  0  0  0
  162.3230  208.4640  151.9450 O   0  0  0  0  0  1  0  0  0  0  0  0
  162.0160  206.1790  152.8260 C   0  0  2  0  0  3  0  0  0  0  0  0
  161.4760  207.5670  152.5960 C   0  0  0  0  0  0  0  0  0  0  0  0
  160.6140  208.0710  153.5700 O   0  0  0  0  0  1  0  0  0  0  0  0
  162.0610  205.4320  151.5040 C   0  0  2  0  0  3  0  0  0  0  0  0
  160.9440  206.4290  151.7650 C   0  0  1  0  0  3  0  0  0  0  0  0
  161.7690  203.4100  146.6640 C   0  0  0  0  0  2  0  0  0  0  0  0
  161.0610  204.2640  145.6590 C   0  0  0  0  0  0  0  0  0  0  0  0
  160.3270  203.7460  144.8320 O   0  0  0  0  0  0  0  0  0  0  0  0
  160.5700  206.3440  144.6180 O   0  0  0  0  0  1  0  0  0  0  0  0
  161.2250  205.7530  145.7020 C   0  0  1  0  0  3  0  0  0  0  0  0
  160.6740  206.2940  147.0130 C   0  0  0  0  0  2  0  0  0  0  0  0
  161.7240  207.0350  147.7820 C   0  0  0  0  0  0  0  0  0  0  0  0
  162.8850  206.6570  147.7590 O   0  0  0  0  0  0  0  0  0  0  0  0
  161.3370  208.2250  148.6000 C   0  0  0  0  0  2  0  0  0  0  0  0
  162.4150  209.2970  148.5340 C   0  0  0  0  0  2  0  0  0  0  0  0
  161.9050  210.5900  149.1480 C   0  0  0  0  0  2  0  0  0  0  0  0
  163.1950  212.3430  147.9070 C   0  0  0  0  0  1  0  0  0  0  0  0
  161.8310  211.7010  148.1100 C   0  0  2  0  0  3  0  0  0  0  0  0
  161.5460  214.3020  148.9510 Cl  0  0  0  0  0  0  0  0  0  0  0  0
  160.7820  212.7650  148.4620 C   0  0  1  0  0  3  0  0  0  0  0  0
  159.9690  212.4090  145.7130 S   0  0  0  0  0  1  0  0  0  0  0  0
  158.6800  213.5220  147.7010 O   0  0  0  0  0  0  0  0  0  0  0  0
  159.7300  212.9740  147.4020 C   0  0  0  0  0  0  0  0  0  0  0  0
  3  8  1  1  0  0  0
  3  6  1  0  0  0  0
  4  2  1  6  0  0  0
  4  1  1  0  0  0  0
  4 13  1  0  0  0  0
  5  1  1  0  0  0  0
  6 10  1  6  0  0  0
  6  5  1  0  0  0  0
  7  4  1  0  0  0  0
  9 20  1  6  0  0  0
  9  3  1  0  0  0  0
  9  7  1  0  0  0  0
 11 10  1  0  0  0  0
 13 12  1  1  0  0  0
 14 16  1  0  0  0  0
 15 16  1  6  0  0  0
 16 17  1  0  0  0  0
 18 13  1  1  0  0  0
 18 19  1  0  0  0  0
 18 15  1  0  0  0  0
 19 16  1  6  0  0  0
 19 15  1  0  0  0  0
 21 24  1  0  0  0  0
 21 20  1  0  0  0  0
 22 21  2  0  0  0  0
 24 23  1  6  0  0  0
 24 25  1  0  0  0  0
 25 26  1  0  0  0  0
 26 28  1  0  0  0  0
 27 26  2  0  0  0  0
 29 28  1  0  0  0  0
 29 30  1  0  0  0  0
 32 31  1  1  0  0  0
 32 34  1  0  0  0  0
 32 30  1  0  0  0  0
 34 33  1  6  0  0  0
 35 37  1  0  0  0  0
 37 36  2  0  0  0  0
 37 34  1  0  0  0  0
M  END
>  <MODEL>
6

>  <REMARK>
 VINA RESULT:      -5.6      4.309      8.910
  Name = 
  14 active torsions:
  status: ('A' for Active; 'I' for Inactive)
    1  A    between atoms: C_1  and  C_5
    2  A    between atoms: C_1  and  C_36
    3  A    between atoms: O_4  and  C_28
    4  A    between atoms: C_5  and  C_17
    5  A    between atoms: C_7  and  C_27
    6  A    between atoms: C_7  and  C_33
    7  A    between atoms: C_11  and  C_26
    8  A    between atoms: C_11  and  C_33
    9  A    between atoms: C_17  and  C_26
   10  A    between atoms: C_18  and  C_19
   11  A    between atoms: C_18  and  C_35
   12  A    between atoms: C_20  and  C_24
   13  A    between atoms: C_24  and  C_30
   14  A    between atoms: C_27  and  C_35
                            x       y       z     vdW  Elec       q    Type
                         _______ _______ _______ _____ _____    ______ ____

>  <TORSDO>
F 14

$$$$
=
 OpenBabel11062409243D

 37 39  0  0  1  0  0  0  0  0999 V2000
  160.6320  211.8250  152.7480 O   0  0  0  0  0  0  0  0  0  0  0  0
  159.9940  210.9090  154.7390 O   0  0  0  0  0  1  0  0  0  0  0  0
  162.2350  209.7560  152.2460 C   0  0  1  0  0  3  0  0  0  0  0  0
  159.6800  210.9820  153.3800 C   0  0  2  0  0  0  0  0  0  0  0  0
  160.6510  211.5170  151.4610 O   0  0  0  0  0  0  0  0  0  0  0  0
  161.8700  210.8490  151.2120 C   0  0  2  0  0  3  0  0  0  0  0  0
  159.6950  209.5520  152.7960 C   0  0  0  0  0  2  0  0  0  0  0  0
  163.0800  210.3350  153.3680 C   0  0  0  0  0  1  0  0  0  0  0  0
  161.0830  208.9080  152.8210 C   0  0  1  0  0  3  0  0  0  0  0  0
  161.8370  210.2930  149.9320 O   0  0  0  0  0  0  0  0  0  0  0  0
  161.9500  211.3790  149.0640 C   0  0  0  0  0  1  0  0  0  0  0  0
  158.3480  212.7870  152.4860 O   0  0  0  0  0  1  0  0  0  0  0  0
  158.2800  211.5930  153.2200 C   0  0  2  0  0  3  0  0  0  0  0  0
  155.6350  212.7820  156.7480 O   0  0  0  0  0  1  0  0  0  0  0  0
  156.1050  212.1880  154.3990 C   0  0  2  0  0  3  0  0  0  0  0  0
  155.7650  213.2300  155.4330 C   0  0  0  0  0  0  0  0  0  0  0  0
  154.9470  214.2810  155.0170 O   0  0  0  0  0  1  0  0  0  0  0  0
  157.5530  211.7630  154.5720 C   0  0  2  0  0  3  0  0  0  0  0  0
  157.1560  213.2020  154.8540 C   0  0  1  0  0  3  0  0  0  0  0  0
  161.0320  207.5390  152.1590 C   0  0  0  0  0  2  0  0  0  0  0  0
  161.4090  206.4750  153.1420 C   0  0  0  0  0  0  0  0  0  0  0  0
  161.5130  206.7530  154.3270 O   0  0  0  0  0  0  0  0  0  0  0  0
  160.4530  204.3180  152.8560 O   0  0  0  0  0  1  0  0  0  0  0  0
  161.6170  205.0680  152.6710 C   0  0  1  0  0  3  0  0  0  0  0  0
  162.0170  205.0710  151.2030 C   0  0  0  0  0  2  0  0  0  0  0  0
  161.0070  204.3550  150.3610 C   0  0  0  0  0  0  0  0  0  0  0  0
  160.0930  204.9740  149.8390 O   0  0  0  0  0  0  0  0  0  0  0  0
  161.1080  202.8740  150.1860 C   0  0  0  0  0  2  0  0  0  0  0  0
  160.5070  202.4470  148.8540 C   0  0  0  0  0  2  0  0  0  0  0  0
  161.5270  202.6230  147.7400 C   0  0  0  0  0  2  0  0  0  0  0  0
  160.4630  201.7660  145.6400 C   0  0  0  0  0  1  0  0  0  0  0  0
  160.8510  203.0060  146.4310 C   0  0  2  0  0  3  0  0  0  0  0  0
  160.7480  204.7580  144.3160 Cl  0  0  0  0  0  0  0  0  0  0  0  0
  161.7150  203.9420  145.5750 C   0  0  1  0  0  3  0  0  0  0  0  0
  161.8110  206.3740  147.1320 S   0  0  0  0  0  1  0  0  0  0  0  0
  163.7390  204.7130  146.5150 O   0  0  0  0  0  0  0  0  0  0  0  0
  162.5440  204.9210  146.3690 C   0  0  0  0  0  0  0  0  0  0  0  0
  1  4  1  0  0  0  0
  3  9  1  0  0  0  0
  3  8  1  1  0  0  0
  4  2  1  1  0  0  0
  5  1  1  0  0  0  0
  6 10  1  6  0  0  0
  6  5  1  0  0  0  0
  6  3  1  0  0  0  0
  7  9  1  0  0  0  0
  7  4  1  0  0  0  0
  9 20  1  6  0  0  0
 11 10  1  0  0  0  0
 13 12  1  1  0  0  0
 13  4  1  0  0  0  0
 15 18  1  0  0  0  0
 15 19  1  0  0  0  0
 15 16  1  1  0  0  0
 16 14  1  0  0  0  0
 17 16  1  0  0  0  0
 18 13  1  6  0  0  0
 18 19  1  0  0  0  0
 19 16  1  1  0  0  0
 20 21  1  0  0  0  0
 21 22  2  0  0  0  0
 24 23  1  6  0  0  0
 24 21  1  0  0  0  0
 25 24  1  0  0  0  0
 26 25  1  0  0  0  0
 27 26  2  0  0  0  0
 28 26  1  0  0  0  0
 29 28  1  0  0  0  0
 30 29  1  0  0  0  0
 32 31  1  6  0  0  0
 32 30  1  0  0  0  0
 34 33  1  6  0  0  0
 34 37  1  0  0  0  0
 34 32  1  0  0  0  0
 37 36  2  0  0  0  0
 37 35  1  0  0  0  0
M  END
>  <MODEL>
7

>  <REMARK>
 VINA RESULT:      -5.4      2.274      3.783
  Name = 
  14 active torsions:
  status: ('A' for Active; 'I' for Inactive)
    1  A    between atoms: C_1  and  C_5
    2  A    between atoms: C_1  and  C_36
    3  A    between atoms: O_4  and  C_28
    4  A    between atoms: C_5  and  C_17
    5  A    between atoms: C_7  and  C_27
    6  A    between atoms: C_7  and  C_33
    7  A    between atoms: C_11  and  C_26
    8  A    between atoms: C_11  and  C_33
    9  A    between atoms: C_17  and  C_26
   10  A    between atoms: C_18  and  C_19
   11  A    between atoms: C_18  and  C_35
   12  A    between atoms: C_20  and  C_24
   13  A    between atoms: C_24  and  C_30
   14  A    between atoms: C_27  and  C_35
                            x       y       z     vdW  Elec       q    Type
                         _______ _______ _______ _____ _____    ______ ____

>  <TORSDO>
F 14

$$$$
=
 OpenBabel11062409243D

 37 39  0  0  1  0  0  0  0  0999 V2000
  160.8290  212.1130  152.4230 O   0  0  0  0  0  0  0  0  0  0  0  0
  160.2070  211.4730  154.5240 O   0  0  0  0  0  1  0  0  0  0  0  0
  162.2420  209.8760  152.1000 C   0  0  1  0  0  3  0  0  0  0  0  0
  159.8410  211.4250  153.1760 C   0  0  2  0  0  0  0  0  0  0  0  0
  160.7680  211.6670  151.1780 O   0  0  0  0  0  0  0  0  0  0  0  0
  161.9190  210.8780  150.9640 C   0  0  2  0  0  3  0  0  0  0  0  0
  159.7190  209.9440  152.7550 C   0  0  0  0  0  2  0  0  0  0  0  0
  163.1770  210.5000  153.1210 C   0  0  0  0  0  1  0  0  0  0  0  0
  161.0520  209.1930  152.8040 C   0  0  1  0  0  3  0  0  0  0  0  0
  161.7890  210.1910  149.7560 O   0  0  0  0  0  0  0  0  0  0  0  0
  161.8160  211.1820  148.7730 C   0  0  0  0  0  1  0  0  0  0  0  0
  158.6460  213.3120  152.2610 O   0  0  0  0  0  1  0  0  0  0  0  0
  158.4880  212.1280  152.9970 C   0  0  2  0  0  3  0  0  0  0  0  0
  155.8240  212.0020  156.7040 O   0  0  0  0  0  1  0  0  0  0  0  0
  157.2970  211.0480  154.9680 C   0  0  2  0  0  3  0  0  0  0  0  0
  155.9160  211.2340  155.5440 C   0  0  0  0  0  0  0  0  0  0  0  0
  155.0280  210.1690  155.3930 O   0  0  0  0  0  1  0  0  0  0  0  0
  157.7580  212.3510  154.3390 C   0  0  2  0  0  3  0  0  0  0  0  0
  156.2870  211.9710  154.2830 C   0  0  1  0  0  3  0  0  0  0  0  0
  160.8660  207.7700  152.3010 C   0  0  0  0  0  2  0  0  0  0  0  0
  161.0260  206.7980  153.4270 C   0  0  0  0  0  0  0  0  0  0  0  0
  160.5820  207.0710  154.5320 O   0  0  0  0  0  0  0  0  0  0  0  0
  160.8210  204.4300  153.4880 O   0  0  0  0  0  1  0  0  0  0  0  0
  161.6930  205.4780  153.1820 C   0  0  1  0  0  3  0  0  0  0  0  0
  162.1380  205.3890  151.7300 C   0  0  0  0  0  2  0  0  0  0  0  0
  161.6150  204.1490  151.0740 C   0  0  0  0  0  0  0  0  0  0  0  0
  161.7270  203.0670  151.6270 O   0  0  0  0  0  0  0  0  0  0  0  0
  160.9780  204.2410  149.7240 C   0  0  0  0  0  2  0  0  0  0  0  0
  160.3510  205.6120  149.5170 C   0  0  0  0  0  2  0  0  0  0  0  0
  160.5230  206.0530  148.0720 C   0  0  0  0  0  2  0  0  0  0  0  0
  162.5540  207.5220  148.0780 C   0  0  0  0  0  1  0  0  0  0  0  0
  161.9960  206.1570  147.7010 C   0  0  2  0  0  3  0  0  0  0  0  0
  163.5070  204.6130  146.0030 Cl  0  0  0  0  0  0  0  0  0  0  0  0
  162.2500  205.8620  146.2160 C   0  0  1  0  0  3  0  0  0  0  0  0
  160.6090  203.8720  144.9170 S   0  0  0  0  0  1  0  0  0  0  0  0
  160.2370  206.4550  145.1350 O   0  0  0  0  0  0  0  0  0  0  0  0
  161.0060  205.5490  145.4240 C   0  0  0  0  0  0  0  0  0  0  0  0
  1  4  1  0  0  0  0
  3  9  1  0  0  0  0
  3  8  1  1  0  0  0
  4  2  1  1  0  0  0
  5  1  1  0  0  0  0
  6 10  1  6  0  0  0
  6  5  1  0  0  0  0
  6  3  1  0  0  0  0
  7  9  1  0  0  0  0
  7  4  1  0  0  0  0
  9 20  1  6  0  0  0
 11 10  1  0  0  0  0
 13 12  1  1  0  0  0
 13  4  1  0  0  0  0
 15 16  1  1  0  0  0
 16 14  1  0  0  0  0
 17 16  1  0  0  0  0
 18 13  1  6  0  0  0
 18 15  1  0  0  0  0
 19 18  1  0  0  0  0
 19 15  1  0  0  0  0
 19 16  1  1  0  0  0
 20 21  1  0  0  0  0
 21 22  2  0  0  0  0
 24 21  1  0  0  0  0
 24 23  1  6  0  0  0
 25 24  1  0  0  0  0
 26 27  2  0  0  0  0
 26 25  1  0  0  0  0
 28 26  1  0  0  0  0
 29 28  1  0  0  0  0
 30 29  1  0  0  0  0
 32 30  1  0  0  0  0
 32 31  1  6  0  0  0
 34 33  1  1  0  0  0
 34 32  1  0  0  0  0
 35 37  1  0  0  0  0
 36 37  2  0  0  0  0
 37 34  1  0  0  0  0
M  END
>  <MODEL>
8

>  <REMARK>
 VINA RESULT:      -5.4      2.349      4.220
  Name = 
  14 active torsions:
  status: ('A' for Active; 'I' for Inactive)
    1  A    between atoms: C_1  and  C_5
    2  A    between atoms: C_1  and  C_36
    3  A    between atoms: O_4  and  C_28
    4  A    between atoms: C_5  and  C_17
    5  A    between atoms: C_7  and  C_27
    6  A    between atoms: C_7  and  C_33
    7  A    between atoms: C_11  and  C_26
    8  A    between atoms: C_11  and  C_33
    9  A    between atoms: C_17  and  C_26
   10  A    between atoms: C_18  and  C_19
   11  A    between atoms: C_18  and  C_35
   12  A    between atoms: C_20  and  C_24
   13  A    between atoms: C_24  and  C_30
   14  A    between atoms: C_27  and  C_35
                            x       y       z     vdW  Elec       q    Type
                         _______ _______ _______ _____ _____    ______ ____

>  <TORSDO>
F 14

$$$$
=
 OpenBabel11062409243D

 37 39  0  0  1  0  0  0  0  0999 V2000
  161.9640  207.8220  153.5760 O   0  0  0  0  0  0  0  0  0  0  0  0
  162.3480  208.8100  151.5550 O   0  0  0  0  0  1  0  0  0  0  0  0
  160.9580  210.0880  154.5550 C   0  0  1  0  0  3  0  0  0  0  0  0
  161.4110  208.0860  152.2960 C   0  0  2  0  0  0  0  0  0  0  0  0
  160.9600  207.5970  154.4100 O   0  0  0  0  0  0  0  0  0  0  0  0
  160.8730  208.7150  155.2670 C   0  0  2  0  0  3  0  0  0  0  0  0
  160.1110  208.9150  152.3860 C   0  0  0  0  0  2  0  0  0  0  0  0
  162.3950  210.5760  154.4910 C   0  0  0  0  0  1  0  0  0  0  0  0
  160.2820  210.2150  153.1750 C   0  0  1  0  0  3  0  0  0  0  0  0
  159.6900  208.6400  156.0040 O   0  0  0  0  0  0  0  0  0  0  0  0
  159.6540  207.3350  156.4960 C   0  0  0  0  0  1  0  0  0  0  0  0
  161.3750  205.6770  152.4480 O   0  0  0  0  0  1  0  0  0  0  0  0
  161.1280  206.7540  151.5840 C   0  0  2  0  0  3  0  0  0  0  0  0
  162.4710  206.3460  147.2380 O   0  0  0  0  0  1  0  0  0  0  0  0
  161.1180  207.2590  149.0910 C   0  0  2  0  0  3  0  0  0  0  0  0
  161.2310  206.3730  147.8770 C   0  0  0  0  0  0  0  0  0  0  0  0
  160.0870  206.2440  147.0880 O   0  0  0  0  0  1  0  0  0  0  0  0
  161.8840  206.6310  150.2430 C   0  0  2  0  0  3  0  0  0  0  0  0
  161.1700  205.7380  149.2420 C   0  0  1  0  0  3  0  0  0  0  0  0
  158.9450  210.9340  153.2880 C   0  0  0  0  0  2  0  0  0  0  0  0
  159.0980  212.3720  152.9040 C   0  0  0  0  0  0  0  0  0  0  0  0
  159.4850  213.1840  153.7300 O   0  0  0  0  0  0  0  0  0  0  0  0
  157.6680  213.5990  151.4530 O   0  0  0  0  0  1  0  0  0  0  0  0
  158.8140  212.8000  151.4960 C   0  0  1  0  0  3  0  0  0  0  0  0
  160.0090  213.5590  150.9380 C   0  0  0  0  0  2  0  0  0  0  0  0
  160.4850  212.9570  149.6520 C   0  0  0  0  0  0  0  0  0  0  0  0
  161.3470  212.0940  149.6590 O   0  0  0  0  0  0  0  0  0  0  0  0
  159.9160  213.4410  148.3560 C   0  0  0  0  0  2  0  0  0  0  0  0
  160.9980  214.0850  147.5000 C   0  0  0  0  0  2  0  0  0  0  0  0
  161.4020  213.1460  146.3750 C   0  0  0  0  0  2  0  0  0  0  0  0
  159.6280  212.2210  144.8670 C   0  0  0  0  0  1  0  0  0  0  0  0
  160.5660  213.3900  145.1270 C   0  0  2  0  0  3  0  0  0  0  0  0
  163.0540  212.9570  144.0440 Cl  0  0  0  0  0  0  0  0  0  0  0  0
  161.4270  213.6750  143.8890 C   0  0  1  0  0  3  0  0  0  0  0  0
  161.2260  211.8180  141.6860 S   0  0  0  0  0  1  0  0  0  0  0  0
  159.9000  214.0330  142.1250 O   0  0  0  0  0  0  0  0  0  0  0  0
  160.7740  213.3090  142.5800 C   0  0  0  0  0  0  0  0  0  0  0  0
  1  5  1  0  0  0  0
  3  8  1  6  0  0  0
  3  6  1  0  0  0  0
  4  2  1  6  0  0  0
  4  7  1  0  0  0  0
  4  1  1  0  0  0  0
  5  6  1  0  0  0  0
  6 10  1  6  0  0  0
  7  9  1  0  0  0  0
  9 20  1  1  0  0  0
  9  3  1  0  0  0  0
 10 11  1  0  0  0  0
 13  4  1  0  0  0  0
 13 12  1  1  0  0  0
 14 16  1  0  0  0  0
 15 16  1  6  0  0  0
 15 19  1  0  0  0  0
 15 18  1  0  0  0  0
 17 16  1  0  0  0  0
 18 13  1  1  0  0  0
 19 16  1  6  0  0  0
 19 18  1  0  0  0  0
 21 20  1  0  0  0  0
 21 22  2  0  0  0  0
 24 23  1  1  0  0  0
 24 21  1  0  0  0  0
 25 24  1  0  0  0  0
 26 27  2  0  0  0  0
 26 25  1  0  0  0  0
 28 26  1  0  0  0  0
 29 28  1  0  0  0  0
 30 29  1  0  0  0  0
 32 31  1  6  0  0  0
 32 30  1  0  0  0  0
 34 33  1  1  0  0  0
 34 32  1  0  0  0  0
 35 37  1  0  0  0  0
 36 37  2  0  0  0  0
 37 34  1  0  0  0  0
M  END
>  <MODEL>
9

>  <REMARK>
 VINA RESULT:      -5.3      4.239      7.364
  Name = 
  14 active torsions:
  status: ('A' for Active; 'I' for Inactive)
    1  A    between atoms: C_1  and  C_5
    2  A    between atoms: C_1  and  C_36
    3  A    between atoms: O_4  and  C_28
    4  A    between atoms: C_5  and  C_17
    5  A    between atoms: C_7  and  C_27
    6  A    between atoms: C_7  and  C_33
    7  A    between atoms: C_11  and  C_26
    8  A    between atoms: C_11  and  C_33
    9  A    between atoms: C_17  and  C_26
   10  A    between atoms: C_18  and  C_19
   11  A    between atoms: C_18  and  C_35
   12  A    between atoms: C_20  and  C_24
   13  A    between atoms: C_24  and  C_30
   14  A    between atoms: C_27  and  C_35
                            x       y       z     vdW  Elec       q    Type
                         _______ _______ _______ _____ _____    ______ ____

>  <TORSDO>
F 14

$$$$
