=
 OpenBabel11062407493D

 34 38  0  0  1  0  0  0  0  0999 V2000
  159.3120  211.6020  152.6950 C   0  0  0  0  0  0  0  0  0  0  0  0
  160.6340  209.4570  152.5000 C   0  0  0  0  0  0  0  0  0  0  0  0
  161.5000  208.0370  148.4790 C   0  0  0  0  0  0  0  0  0  0  0  0
  160.9350  211.3520  150.8870 C   0  0  0  0  0  0  0  0  0  0  0  0
  162.6590  211.4640  148.1150 C   0  0  0  0  0  2  0  0  0  0  0  0
  157.9300  213.6930  152.8380 C   0  0  0  0  0  1  0  0  0  0  0  0
  160.2130  208.9950  153.5950 O   0  0  0  0  0  0  0  0  0  0  0  0
  162.6350  209.4310  151.1020 C   0  0  0  0  0  2  0  0  0  0  0  0
  160.3210  204.9120  149.4800 C   0  0  0  0  0  1  0  0  0  0  0  0
  161.8220  206.8420  149.2100 N   0  0  0  0  0  0  0  0  0  0  0  0
  160.7820  206.2410  150.0480 C   0  0  2  0  0  3  0  0  0  0  0  0
  160.2920  210.8310  152.0430 C   0  0  0  0  0  0  0  0  0  0  0  0
  160.3480  208.1850  147.9910 O   0  0  0  0  0  0  0  0  0  0  0  0
  161.9420  210.4080  148.8330 N   0  0  1  0  0  0  0  0  0  0  0  0
  158.6810  211.1380  153.8470 O   0  0  0  0  0  1  0  0  0  0  0  0
  161.9280  207.2830  152.1450 C   0  0  0  0  0  2  0  0  0  0  0  0
  160.4730  212.5790  150.3470 C   0  0  0  0  0  0  0  0  0  0  0  0
  158.9620  212.8490  152.1730 C   0  0  0  0  0  0  0  0  0  0  0  0
  161.4540  208.6150  151.5790 C   0  0  1  0  0  3  0  0  0  0  0  0
  162.3530  212.8790  148.6410 C   0  0  0  0  0  2  0  0  0  0  0  0
  160.8720  213.1040  148.9800 C   0  0  1  0  0  3  0  0  0  0  0  0
  162.5010  209.1440  148.3410 C   0  0  0  0  0  2  0  0  0  0  0  0
  162.1360  210.6330  150.2790 C   0  0  1  0  0  3  0  0  0  0  0  0
  159.5210  213.2830  151.0160 N   0  0  0  0  0  0  0  0  0  0  0  0
  161.2060  206.0800  151.5180 C   0  0  0  0  0  2  0  0  0  0  0  0
  157.7920  213.0660  146.6190 C   0  0  1  0  0  3  0  0  0  0  0  0
  158.5140  213.3150  145.4360 O   0  0  0  0  0  0  0  0  0  0  0  0
  159.9160  212.6550  147.8580 C   0  0  1  0  0  3  0  0  0  0  0  0
  159.5720  212.3890  145.4030 C   0  0  0  0  0  2  0  0  0  0  0  0
  158.6250  213.4790  147.8320 C   0  0  0  0  0  2  0  0  0  0  0  0
  160.5960  212.7290  146.4870 C   0  0  0  0  0  2  0  0  0  0  0  0
  156.5040  213.8610  146.6010 C   0  0  0  0  0  1  0  0  0  0  0  0
  163.1140  205.4830  147.6240 C   0  0  0  0  0  1  0  0  0  0  0  0
  163.0890  206.1470  148.9870 C   0  0  0  0  0  2  0  0  0  0  0  0
  1 15  1  0  0  0  0
  2  7  2  0  0  0  0
  3 10  1  0  0  0  0
  4 12  1  0  0  0  0
  5 20  1  0  0  0  0
 10 11  1  0  0  0  0
 11  9  1  6  0  0  0
 11 25  1  0  0  0  0
 12  2  1  0  0  0  0
 12  1  2  0  0  0  0
 13  3  2  0  0  0  0
 14  5  1  6  0  0  0
 14 23  1  0  0  0  0
 17  4  2  0  0  0  0
 17 24  1  0  0  0  0
 18  1  1  0  0  0  0
 18  6  1  0  0  0  0
 19  8  1  1  0  0  0
 19 16  1  0  0  0  0
 19  2  1  0  0  0  0
 21 20  1  6  0  0  0
 21 17  1  0  0  0  0
 22  3  1  0  0  0  0
 22 14  1  0  0  0  0
 23  4  1  0  0  0  0
 23  8  1  1  0  0  0
 24 18  2  0  0  0  0
 25 16  1  0  0  0  0
 26 32  1  6  0  0  0
 26 30  1  0  0  0  0
 27 26  1  0  0  0  0
 28 31  1  6  0  0  0
 28 21  1  0  0  0  0
 29 27  1  0  0  0  0
 29 31  1  0  0  0  0
 30 28  1  0  0  0  0
 33 34  1  0  0  0  0
 34 10  1  0  0  0  0
M  END
>  <MODEL>
1

>  <REMARK>
 VINA RESULT:      -2.0      0.000      0.000
  Name = 
  2 active torsions:
  status: ('A' for Active; 'I' for Inactive)
    1  A    between atoms: C_12  and  C_28
    2  A    between atoms: N_13  and  C_33
                            x       y       z     vdW  Elec       q    Type
                         _______ _______ _______ _____ _____    ______ ____

>  <TORSDO>
F 2

$$$$
=
 OpenBabel11062407493D

 34 38  0  0  1  0  0  0  0  0999 V2000
  160.2430  212.5490  150.2330 C   0  0  0  0  0  0  0  0  0  0  0  0
  158.8700  213.4840  152.1370 C   0  0  0  0  0  0  0  0  0  0  0  0
  157.8610  210.7470  155.3660 C   0  0  0  0  0  0  0  0  0  0  0  0
  160.6700  211.7810  152.5120 C   0  0  0  0  0  0  0  0  0  0  0  0
  161.4430  210.1410  155.2300 C   0  0  0  0  0  2  0  0  0  0  0  0
  161.5410  211.5550  148.3280 C   0  0  0  0  0  1  0  0  0  0  0  0
  158.3000  214.3480  151.4180 O   0  0  0  0  0  0  0  0  0  0  0  0
  159.6710  213.1850  154.4240 C   0  0  0  0  0  2  0  0  0  0  0  0
  154.5570  211.8220  155.0560 C   0  0  0  0  0  1  0  0  0  0  0  0
  156.9380  211.8050  155.6760 N   0  0  0  0  0  0  0  0  0  0  0  0
  155.9700  212.2030  154.6510 C   0  0  2  0  0  3  0  0  0  0  0  0
  159.9520  212.6110  151.6090 C   0  0  0  0  0  0  0  0  0  0  0  0
  157.4870  209.7750  154.6580 O   0  0  0  0  0  0  0  0  0  0  0  0
  160.2000  210.6880  154.6820 N   0  0  1  0  0  0  0  0  0  0  0  0
  159.5820  213.3680  149.3200 O   0  0  0  0  0  1  0  0  0  0  0  0
  157.4540  214.2760  154.1110 C   0  0  0  0  0  2  0  0  0  0  0  0
  161.5660  210.8170  151.9840 C   0  0  0  0  0  0  0  0  0  0  0  0
  161.2060  211.6460  149.7770 C   0  0  0  0  0  0  0  0  0  0  0  0
  158.4390  213.2600  153.5500 C   0  0  1  0  0  3  0  0  0  0  0  0
  162.6020  210.1210  154.2160 C   0  0  0  0  0  2  0  0  0  0  0  0
  162.1780  209.6940  152.8020 C   0  0  1  0  0  3  0  0  0  0  0  0
  159.2860  210.8150  155.8230 C   0  0  0  0  0  2  0  0  0  0  0  0
  160.5210  211.9680  154.0200 C   0  0  1  0  0  3  0  0  0  0  0  0
  161.8090  210.7980  150.6470 N   0  0  0  0  0  0  0  0  0  0  0  0
  156.0430  213.6970  154.2960 C   0  0  0  0  0  2  0  0  0  0  0  0
  160.8220  206.2460  151.6480 C   0  0  1  0  0  3  0  0  0  0  0  0
  161.2680  205.5300  152.7750 O   0  0  0  0  0  0  0  0  0  0  0  0
  161.3330  208.4050  152.7850 C   0  0  1  0  0  3  0  0  0  0  0  0
  160.8260  206.2380  153.9070 C   0  0  0  0  0  2  0  0  0  0  0  0
  161.5890  207.5630  151.5310 C   0  0  0  0  0  2  0  0  0  0  0  0
  161.5930  207.5540  154.0320 C   0  0  0  0  0  2  0  0  0  0  0  0
  161.0520  205.4190  150.4000 C   0  0  0  0  0  1  0  0  0  0  0  0
  157.9020  213.4150  157.2610 C   0  0  0  0  0  1  0  0  0  0  0  0
  156.8490  212.3480  157.0310 C   0  0  0  0  0  2  0  0  0  0  0  0
  1 12  1  0  0  0  0
  2 19  1  0  0  0  0
  3 10  1  0  0  0  0
  3 22  1  0  0  0  0
  4 23  1  0  0  0  0
  6 18  1  0  0  0  0
  7  2  2  0  0  0  0
 10 34  1  0  0  0  0
 11  9  1  1  0  0  0
 11 10  1  0  0  0  0
 12  2  1  0  0  0  0
 12  4  2  0  0  0  0
 13  3  2  0  0  0  0
 14  5  1  1  0  0  0
 14 22  1  0  0  0  0
 15  1  1  0  0  0  0
 16 25  1  0  0  0  0
 17  4  1  0  0  0  0
 17 21  1  0  0  0  0
 18  1  2  0  0  0  0
 18 24  1  0  0  0  0
 19 16  1  1  0  0  0
 19  8  1  0  0  0  0
 20  5  1  0  0  0  0
 21 20  1  1  0  0  0
 23  8  1  6  0  0  0
 23 14  1  0  0  0  0
 24 17  2  0  0  0  0
 25 11  1  0  0  0  0
 26 32  1  6  0  0  0
 26 27  1  0  0  0  0
 27 29  1  0  0  0  0
 28 30  1  6  0  0  0
 28 21  1  0  0  0  0
 28 31  1  0  0  0  0
 29 31  1  0  0  0  0
 30 26  1  0  0  0  0
 34 33  1  0  0  0  0
M  END
>  <MODEL>
2

>  <REMARK>
 VINA RESULT:      -1.3      2.715      7.637
  Name = 
  2 active torsions:
  status: ('A' for Active; 'I' for Inactive)
    1  A    between atoms: C_12  and  C_28
    2  A    between atoms: N_13  and  C_33
                            x       y       z     vdW  Elec       q    Type
                         _______ _______ _______ _____ _____    ______ ____

>  <TORSDO>
F 2

$$$$
=
 OpenBabel11062407493D

 34 38  0  0  1  0  0  0  0  0999 V2000
  161.2560  209.0890  152.1640 C   0  0  0  0  0  0  0  0  0  0  0  0
  161.5280  210.3770  150.0080 C   0  0  0  0  0  0  0  0  0  0  0  0
  158.4690  213.3300  149.0790 C   0  0  0  0  0  0  0  0  0  0  0  0
  160.5990  211.4400  152.0790 C   0  0  0  0  0  0  0  0  0  0  0  0
  159.2420  214.3850  152.4710 C   0  0  0  0  0  2  0  0  0  0  0  0
  160.9010  207.7800  154.2770 C   0  0  0  0  0  1  0  0  0  0  0  0
  162.1500  209.4470  149.4280 O   0  0  0  0  0  0  0  0  0  0  0  0
  161.4450  212.8170  150.0750 C   0  0  0  0  0  2  0  0  0  0  0  0
  158.2540  211.9030  145.9040 C   0  0  0  0  0  1  0  0  0  0  0  0
  159.0940  213.2450  147.7870 N   0  0  0  0  0  0  0  0  0  0  0  0
  159.1500  211.9370  147.1290 C   0  0  2  0  0  3  0  0  0  0  0  0
  161.1430  210.2910  151.4420 C   0  0  0  0  0  0  0  0  0  0  0  0
  157.4600  212.6210  149.3370 O   0  0  0  0  0  0  0  0  0  0  0  0
  159.3120  213.4300  151.3640 N   0  0  1  0  0  0  0  0  0  0  0  0
  161.8110  207.9500  151.5840 O   0  0  0  0  0  1  0  0  0  0  0  0
  161.6480  211.7300  147.8440 C   0  0  0  0  0  2  0  0  0  0  0  0
  160.0610  211.3020  153.3840 C   0  0  0  0  0  0  0  0  0  0  0  0
  160.7960  209.0350  153.4820 C   0  0  0  0  0  0  0  0  0  0  0  0
  161.0960  211.5940  149.2560 C   0  0  1  0  0  3  0  0  0  0  0  0
  159.6990  213.7960  153.8190 C   0  0  0  0  0  2  0  0  0  0  0  0
  159.2090  212.3600  154.0620 C   0  0  1  0  0  3  0  0  0  0  0  0
  159.0400  214.2080  150.1510 C   0  0  0  0  0  2  0  0  0  0  0  0
  160.6490  212.8020  151.3930 C   0  0  1  0  0  3  0  0  0  0  0  0
  160.1940  210.1170  154.0360 N   0  0  0  0  0  0  0  0  0  0  0  0
  160.5790  211.5040  146.7630 C   0  0  0  0  0  2  0  0  0  0  0  0
  155.5690  211.0810  154.4830 C   0  0  1  0  0  3  0  0  0  0  0  0
  155.0140  212.3320  154.8130 O   0  0  0  0  0  0  0  0  0  0  0  0
  157.7010  212.1800  153.8010 C   0  0  1  0  0  3  0  0  0  0  0  0
  155.4450  213.2410  153.8310 C   0  0  0  0  0  2  0  0  0  0  0  0
  157.0810  211.1100  154.7050 C   0  0  0  0  0  2  0  0  0  0  0  0
  156.9450  213.5000  153.9820 C   0  0  0  0  0  2  0  0  0  0  0  0
  154.9530  210.0090  155.3560 C   0  0  0  0  0  1  0  0  0  0  0  0
  160.9850  214.4200  146.7510 C   0  0  0  0  0  1  0  0  0  0  0  0
  159.5030  214.4530  147.0730 C   0  0  0  0  0  2  0  0  0  0  0  0
  1 18  1  0  0  0  0
  2 12  1  0  0  0  0
  3 13  2  0  0  0  0
  3 22  1  0  0  0  0
  4 17  2  0  0  0  0
  5 20  1  0  0  0  0
  7  2  2  0  0  0  0
 10  3  1  0  0  0  0
 11  9  1  6  0  0  0
 11 10  1  0  0  0  0
 12  4  1  0  0  0  0
 12  1  2  0  0  0  0
 14 22  1  6  0  0  0
 14 23  1  0  0  0  0
 14  5  1  0  0  0  0
 15  1  1  0  0  0  0
 17 24  1  0  0  0  0
 17 21  1  0  0  0  0
 18 24  2  0  0  0  0
 18  6  1  0  0  0  0
 19 16  1  6  0  0  0
 19  2  1  0  0  0  0
 19  8  1  0  0  0  0
 21 20  1  6  0  0  0
 23  8  1  6  0  0  0
 23  4  1  0  0  0  0
 25 11  1  0  0  0  0
 25 16  1  0  0  0  0
 26 30  1  0  0  0  0
 26 27  1  0  0  0  0
 26 32  1  1  0  0  0
 28 31  1  1  0  0  0
 28 21  1  0  0  0  0
 28 30  1  0  0  0  0
 29 31  1  0  0  0  0
 29 27  1  0  0  0  0
 33 34  1  0  0  0  0
 34 10  1  0  0  0  0
M  END
>  <MODEL>
3

>  <REMARK>
 VINA RESULT:       0.1      2.738      6.361
  Name = 
  2 active torsions:
  status: ('A' for Active; 'I' for Inactive)
    1  A    between atoms: C_12  and  C_28
    2  A    between atoms: N_13  and  C_33
                            x       y       z     vdW  Elec       q    Type
                         _______ _______ _______ _____ _____    ______ ____

>  <TORSDO>
F 2

$$$$
=
 OpenBabel11062407493D

 34 38  0  0  1  0  0  0  0  0999 V2000
  158.6240  212.9780  147.4550 C   0  0  0  0  0  0  0  0  0  0  0  0
  158.1920  213.7430  149.8240 C   0  0  0  0  0  0  0  0  0  0  0  0
  159.3950  211.0410  153.0150 C   0  0  0  0  0  0  0  0  0  0  0  0
  160.2310  212.4220  149.2080 C   0  0  0  0  0  0  0  0  0  0  0  0
  162.5080  211.0980  151.1390 C   0  0  0  0  0  2  0  0  0  0  0  0
  159.0010  212.1410  145.1180 C   0  0  0  0  0  1  0  0  0  0  0  0
  157.1960  214.4490  149.5080 O   0  0  0  0  0  0  0  0  0  0  0  0
  160.0370  213.7180  151.4230 C   0  0  0  0  0  2  0  0  0  0  0  0
  156.2180  211.4720  154.3870 C   0  0  0  0  0  1  0  0  0  0  0  0
  158.5580  211.9260  153.7790 N   0  0  0  0  0  0  0  0  0  0  0  0
  157.1610  212.0840  153.3680 C   0  0  2  0  0  3  0  0  0  0  0  0
  159.0260  213.0570  148.8010 C   0  0  0  0  0  0  0  0  0  0  0  0
  158.9150  209.9800  152.5340 O   0  0  0  0  0  0  0  0  0  0  0  0
  161.0790  211.3770  151.2850 N   0  0  1  0  0  0  0  0  0  0  0  0
  157.4650  213.6120  147.0120 O   0  0  0  0  0  1  0  0  0  0  0  0
  157.7850  214.3640  152.2690 C   0  0  0  0  0  2  0  0  0  0  0  0
  160.9230  211.6130  148.2710 C   0  0  0  0  0  0  0  0  0  0  0  0
  159.3960  212.2440  146.5510 C   0  0  0  0  0  0  0  0  0  0  0  0
  158.5470  213.5180  151.2580 C   0  0  1  0  0  3  0  0  0  0  0  0
  163.0150  211.2380  149.6910 C   0  0  0  0  0  2  0  0  0  0  0  0
  162.0500  210.6660  148.6420 C   0  0  1  0  0  3  0  0  0  0  0  0
  160.8230  211.3940  152.7290 C   0  0  0  0  0  2  0  0  0  0  0  0
  160.7960  212.6580  150.6060 C   0  0  1  0  0  3  0  0  0  0  0  0
  160.4890  211.5690  146.9830 N   0  0  0  0  0  0  0  0  0  0  0  0
  156.7740  213.5460  153.0870 C   0  0  0  0  0  2  0  0  0  0  0  0
  161.2490  206.8940  148.2080 C   0  0  1  0  0  3  0  0  0  0  0  0
  162.1580  206.4400  149.1820 O   0  0  0  0  0  0  0  0  0  0  0  0
  161.5590  209.2450  148.9780 C   0  0  1  0  0  3  0  0  0  0  0  0
  161.9160  207.1920  150.3460 C   0  0  0  0  0  2  0  0  0  0  0  0
  161.6230  208.3090  147.7670 C   0  0  0  0  0  2  0  0  0  0  0  0
  162.3610  208.6390  150.1340 C   0  0  0  0  0  2  0  0  0  0  0  0
  161.2880  205.9680  147.0100 C   0  0  0  0  0  1  0  0  0  0  0  0
  159.4450  211.4360  156.0160 C   0  0  0  0  0  1  0  0  0  0  0  0
  159.0340  212.5130  155.0300 C   0  0  0  0  0  2  0  0  0  0  0  0
  1 12  1  0  0  0  0
  2 19  1  0  0  0  0
  3 10  1  0  0  0  0
  4 23  1  0  0  0  0
  6 18  1  0  0  0  0
  7  2  2  0  0  0  0
 10 34  1  0  0  0  0
 11 10  1  0  0  0  0
 11  9  1  1  0  0  0
 12  4  2  0  0  0  0
 12  2  1  0  0  0  0
 13  3  2  0  0  0  0
 14  5  1  1  0  0  0
 14 22  1  0  0  0  0
 15  1  1  0  0  0  0
 16 25  1  0  0  0  0
 17 21  1  0  0  0  0
 17  4  1  0  0  0  0
 18 24  1  0  0  0  0
 18  1  2  0  0  0  0
 19  8  1  6  0  0  0
 19 16  1  0  0  0  0
 20  5  1  0  0  0  0
 21 28  1  0  0  0  0
 21 20  1  1  0  0  0
 22  3  1  0  0  0  0
 23 14  1  0  0  0  0
 23  8  1  1  0  0  0
 24 17  2  0  0  0  0
 25 11  1  0  0  0  0
 26 32  1  6  0  0  0
 26 27  1  0  0  0  0
 27 29  1  0  0  0  0
 28 30  1  6  0  0  0
 28 31  1  0  0  0  0
 30 26  1  0  0  0  0
 31 29  1  0  0  0  0
 34 33  1  0  0  0  0
M  END
>  <MODEL>
4

>  <REMARK>
 VINA RESULT:       0.7      1.898      6.428
  Name = 
  2 active torsions:
  status: ('A' for Active; 'I' for Inactive)
    1  A    between atoms: C_12  and  C_28
    2  A    between atoms: N_13  and  C_33
                            x       y       z     vdW  Elec       q    Type
                         _______ _______ _______ _____ _____    ______ ____

>  <TORSDO>
F 2

$$$$
