=
 OpenBabel11062409313D

 34 39  0  0  1  0  0  0  0  0999 V2000
  158.7870  212.7150  154.1810 N   0  0  0  0  0  0  0  0  0  0  0  0
  157.0520  213.7360  150.9210 C   0  0  0  0  0  3  0  0  0  0  0  0
  159.8990  213.7750  148.4860 C   0  0  0  0  0  0  0  0  0  0  0  0
  156.3950  213.8890  153.3130 C   0  0  0  0  0  3  0  0  0  0  0  0
  157.5230  212.1170  156.2210 C   0  0  0  0  0  2  0  0  0  0  0  0
  155.2280  213.0590  156.5780 C   0  0  0  0  0  2  0  0  0  0  0  0
  161.2850  213.7320  148.4000 O   0  0  0  0  0  1  0  0  0  0  0  0
  156.5270  212.6290  157.2610 C   0  0  0  0  0  2  0  0  0  0  0  0
  156.5720  213.7500  154.6220 C   0  0  0  0  0  0  0  0  0  0  0  0
  157.8540  213.2140  155.2030 C   0  0  2  0  0  3  0  0  0  0  0  0
  155.4920  214.1710  155.5640 C   0  0  0  0  0  2  0  0  0  0  0  0
  157.8170  213.8080  149.8230 C   0  0  0  0  0  3  0  0  0  0  0  0
  159.2200  213.8830  147.4300 O   0  0  0  0  0  0  0  0  0  0  0  0
  159.2500  213.6980  149.7640 N   0  0  0  0  0  0  0  0  0  0  0  0
  160.0770  213.5790  150.9540 C   0  0  0  0  0  2  0  0  0  0  0  0
  157.4180  213.4940  152.3370 C   0  0  0  0  0  0  0  0  0  0  0  0
  159.5870  212.4230  151.7910 C   0  0  0  0  0  2  0  0  0  0  0  0
  158.5600  212.9110  152.7640 C   0  0  0  0  0  0  0  0  0  0  0  0
  160.0770  212.2150  154.6550 C   0  0  0  0  0  2  0  0  0  0  0  0
  160.5980  207.6460  153.7550 C   0  0  0  0  0  3  0  0  0  0  0  0
  161.9700  210.2460  153.7230 C   0  0  0  0  0  2  0  0  0  0  0  0
  161.5590  207.9170  150.1140 C   0  0  0  0  0  0  0  0  0  0  0  0
  159.9080  210.8360  155.2810 C   0  0  2  0  0  3  0  0  0  0  0  0
  161.0450  207.4290  151.3240 C   0  0  0  0  0  3  0  0  0  0  0  0
  161.1530  208.1790  152.4980 C   0  0  0  0  0  0  0  0  0  0  0  0
  161.1290  210.5020  156.1300 C   0  0  0  0  0  2  0  0  0  0  0  0
  162.3070  209.9250  151.2650 C   0  0  0  0  0  3  0  0  0  0  0  0
  161.7830  209.4430  152.4660 C   0  0  0  0  0  0  0  0  0  0  0  0
  162.1920  209.1690  150.0950 C   0  0  0  0  0  3  0  0  0  0  0  0
  160.9470  209.8370  154.7900 C   0  0  2  0  0  0  0  0  0  0  0  0
  160.5170  208.4050  154.8500 C   0  0  0  0  0  3  0  0  0  0  0  0
  161.4330  207.1370  148.9140 N   0  0  0  0  0  0  0  0  0  0  0  0
  160.4090  206.1120  148.7790 C   0  0  0  0  0  1  0  0  0  0  0  0
  162.2790  207.3420  147.8780 O   0  0  0  0  0  1  0  0  0  0  0  0
  1 19  1  0  0  0  0
  1 10  1  0  0  0  0
  2 16  1  0  0  0  0
  3 14  1  0  0  0  0
  4  9  2  0  0  0  0
  5  8  1  0  0  0  0
  6  8  1  0  0  0  0
  7  3  1  0  0  0  0
  9 10  1  0  0  0  0
  9 11  1  0  0  0  0
 10  5  1  1  0  0  0
 11  6  1  0  0  0  0
 12  2  2  0  0  0  0
 13  3  2  0  0  0  0
 14 12  1  0  0  0  0
 14 15  1  0  0  0  0
 15 17  1  0  0  0  0
 16 18  2  0  0  0  0
 16  4  1  0  0  0  0
 17 18  1  0  0  0  0
 18  1  1  0  0  0  0
 20 31  2  0  0  0  0
 22 24  1  0  0  0  0
 23 19  1  6  0  0  0
 23 26  1  0  0  0  0
 24 25  2  0  0  0  0
 25 20  1  0  0  0  0
 27 28  2  0  0  0  0
 28 25  1  0  0  0  0
 28 21  1  0  0  0  0
 29 22  2  0  0  0  0
 29 27  1  0  0  0  0
 30 21  1  6  0  0  0
 30 31  1  0  0  0  0
 30 23  1  0  0  0  0
 30 26  1  0  0  0  0
 32 22  1  0  0  0  0
 33 32  1  0  0  0  0
 34 32  1  0  0  0  0
M  END
>  <MODEL>
1

>  <REMARK>
 VINA RESULT:      -7.4      0.000      0.000
  Name = 
  3 active torsions:
  status: ('A' for Active; 'I' for Inactive)
    1  A    between atoms: N_1  and  C_9
    2  A    between atoms: C_7  and  N_11
    3  A    between atoms: C_8  and  C_9
                            x       y       z     vdW  Elec       q    Type
                         _______ _______ _______ _____ _____    ______ ____

>  <TORSDO>
F 3

$$$$
=
 OpenBabel11062409313D

 34 39  0  0  1  0  0  0  0  0999 V2000
  161.8980  209.3480  150.5660 N   0  0  0  0  0  0  0  0  0  0  0  0
  160.3950  207.8500  153.7560 C   0  0  0  0  0  3  0  0  0  0  0  0
  161.0150  210.5550  156.2720 C   0  0  0  0  0  0  0  0  0  0  0  0
  161.1010  206.8630  151.5880 C   0  0  0  0  0  3  0  0  0  0  0  0
  161.5780  208.3150  148.3410 C   0  0  0  0  0  2  0  0  0  0  0  0
  161.1530  205.8510  148.1690 C   0  0  0  0  0  2  0  0  0  0  0  0
  161.7100  211.7420  156.4770 O   0  0  0  0  0  0  0  0  0  0  0  0
  161.8230  207.0570  147.5090 C   0  0  0  0  0  2  0  0  0  0  0  0
  161.6180  206.8880  150.3640 C   0  0  0  0  0  0  0  0  0  0  0  0
  162.1600  208.1530  149.7500 C   0  0  2  0  0  3  0  0  0  0  0  0
  161.7110  205.6240  149.5730 C   0  0  0  0  0  2  0  0  0  0  0  0
  160.4300  208.6110  154.8590 C   0  0  0  0  0  3  0  0  0  0  0  0
  160.3000  210.0930  157.2020 O   0  0  0  0  0  1  0  0  0  0  0  0
  161.1120  209.8660  155.0170 N   0  0  0  0  0  0  0  0  0  0  0  0
  161.9530  210.4380  153.9770 C   0  0  0  0  0  2  0  0  0  0  0  0
  160.9830  208.0710  152.4140 C   0  0  0  0  0  0  0  0  0  0  0  0
  161.1690  210.5280  152.6910 C   0  0  0  0  0  2  0  0  0  0  0  0
  161.3520  209.2670  151.9060 C   0  0  0  0  0  0  0  0  0  0  0  0
  162.4270  210.6160  150.0660 C   0  0  0  0  0  2  0  0  0  0  0  0
  159.0800  212.7620  147.5870 C   0  0  0  0  0  3  0  0  0  0  0  0
  161.1270  213.1600  149.6600 C   0  0  0  0  0  2  0  0  0  0  0  0
  156.9680  213.9810  150.4690 C   0  0  0  0  0  0  0  0  0  0  0  0
  161.9520  210.8570  148.6390 C   0  0  2  0  0  3  0  0  0  0  0  0
  157.3580  213.5300  149.2000 C   0  0  0  0  0  3  0  0  0  0  0  0
  158.6980  213.2410  148.9280 C   0  0  0  0  0  0  0  0  0  0  0  0
  162.7310  212.0140  148.0230 C   0  0  0  0  0  2  0  0  0  0  0  0
  159.2850  213.8640  151.2000 C   0  0  0  0  0  3  0  0  0  0  0  0
  159.6690  213.4010  149.9400 C   0  0  0  0  0  0  0  0  0  0  0  0
  157.9430  214.1460  151.4660 C   0  0  0  0  0  3  0  0  0  0  0  0
  161.3040  212.2240  148.4590 C   0  0  2  0  0  0  0  0  0  0  0  0
  160.3090  212.3030  147.3430 C   0  0  0  0  0  3  0  0  0  0  0  0
  155.5860  214.2650  150.7360 N   0  0  0  0  0  0  0  0  0  0  0  0
  154.6270  214.4530  149.6570 C   0  0  0  0  0  1  0  0  0  0  0  0
  155.1480  214.3700  152.0120 O   0  0  0  0  0  1  0  0  0  0  0  0
  1 18  1  0  0  0  0
  2 12  2  0  0  0  0
  3  7  2  0  0  0  0
  3 13  1  0  0  0  0
  4 16  1  0  0  0  0
  6 11  1  0  0  0  0
  8  6  1  0  0  0  0
  8  5  1  0  0  0  0
  9  4  2  0  0  0  0
 10  5  1  6  0  0  0
 10  9  1  0  0  0  0
 10  1  1  0  0  0  0
 11  9  1  0  0  0  0
 12 14  1  0  0  0  0
 14  3  1  0  0  0  0
 15 14  1  0  0  0  0
 16  2  1  0  0  0  0
 17 15  1  0  0  0  0
 18 16  2  0  0  0  0
 18 17  1  0  0  0  0
 19  1  1  0  0  0  0
 20 25  1  0  0  0  0
 21 28  1  0  0  0  0
 22 32  1  0  0  0  0
 22 29  1  0  0  0  0
 23 19  1  1  0  0  0
 24 22  2  0  0  0  0
 25 24  1  0  0  0  0
 25 28  2  0  0  0  0
 26 30  1  0  0  0  0
 26 23  1  0  0  0  0
 27 29  2  0  0  0  0
 28 27  1  0  0  0  0
 30 31  1  6  0  0  0
 30 23  1  0  0  0  0
 30 21  1  0  0  0  0
 31 20  2  0  0  0  0
 32 34  1  0  0  0  0
 33 32  1  0  0  0  0
M  END
>  <MODEL>
2

>  <REMARK>
 VINA RESULT:      -7.3      3.329      8.137
  Name = 
  3 active torsions:
  status: ('A' for Active; 'I' for Inactive)
    1  A    between atoms: N_1  and  C_9
    2  A    between atoms: C_7  and  N_11
    3  A    between atoms: C_8  and  C_9
                            x       y       z     vdW  Elec       q    Type
                         _______ _______ _______ _____ _____    ______ ____

>  <TORSDO>
F 3

$$$$
=
 OpenBabel11062409313D

 34 39  0  0  1  0  0  0  0  0999 V2000
  161.4420  208.9840  153.0170 N   0  0  0  0  0  0  0  0  0  0  0  0
  161.2370  205.3590  151.7920 C   0  0  0  0  0  3  0  0  0  0  0  0
  161.6570  205.7480  148.0900 C   0  0  0  0  0  0  0  0  0  0  0  0
  160.5710  206.4750  153.9100 C   0  0  0  0  0  3  0  0  0  0  0  0
  161.6050  209.5630  155.4160 C   0  0  0  0  0  2  0  0  0  0  0  0
  160.6810  207.9910  157.1360 C   0  0  0  0  0  2  0  0  0  0  0  0
  161.6750  206.6900  147.0680 O   0  0  0  0  0  0  0  0  0  0  0  0
  160.9040  209.4590  156.7700 C   0  0  0  0  0  2  0  0  0  0  0  0
  160.4060  207.5100  154.7270 C   0  0  0  0  0  0  0  0  0  0  0  0
  160.7560  208.9160  154.3160 C   0  0  2  0  0  3  0  0  0  0  0  0
  159.8170  207.2960  156.0830 C   0  0  0  0  0  2  0  0  0  0  0  0
  161.3900  205.1530  150.4760 C   0  0  0  0  0  3  0  0  0  0  0  0
  161.8120  204.5300  147.8050 O   0  0  0  0  0  1  0  0  0  0  0  0
  161.4650  206.1590  149.4510 N   0  0  0  0  0  0  0  0  0  0  0  0
  161.2870  207.5760  149.7280 C   0  0  0  0  0  2  0  0  0  0  0  0
  161.1430  206.6200  152.5660 C   0  0  0  0  0  0  0  0  0  0  0  0
  162.2390  207.9970  150.8200 C   0  0  0  0  0  2  0  0  0  0  0  0
  161.5770  207.8300  152.1520 C   0  0  0  0  0  0  0  0  0  0  0  0
  161.7810  210.3170  152.5200 C   0  0  0  0  0  2  0  0  0  0  0  0
  157.5880  212.3930  152.2690 C   0  0  0  0  0  3  0  0  0  0  0  0
  160.3010  212.6430  153.3740 C   0  0  0  0  0  2  0  0  0  0  0  0
  156.8530  212.5800  155.9670 C   0  0  0  0  0  0  0  0  0  0  0  0
  160.7280  210.7900  151.5260 C   0  0  2  0  0  3  0  0  0  0  0  0
  156.6850  212.4930  154.5780 C   0  0  0  0  0  3  0  0  0  0  0  0
  157.7920  212.4920  153.7260 C   0  0  0  0  0  0  0  0  0  0  0  0
  161.1070  212.1660  150.9880 C   0  0  0  0  0  2  0  0  0  0  0  0
  159.2620  212.6780  155.6490 C   0  0  0  0  0  3  0  0  0  0  0  0
  159.0940  212.5770  154.2670 C   0  0  0  0  0  0  0  0  0  0  0  0
  158.1500  212.6740  156.4950 C   0  0  0  0  0  3  0  0  0  0  0  0
  159.9950  212.0400  151.9970 C   0  0  2  0  0  0  0  0  0  0  0  0
  158.6160  212.2050  151.4400 C   0  0  0  0  0  3  0  0  0  0  0  0
  155.7050  212.5700  156.8310 N   0  0  0  0  0  0  0  0  0  0  0  0
  155.0890  211.3240  157.2610 C   0  0  0  0  0  1  0  0  0  0  0  0
  155.1690  213.7360  157.2610 O   0  0  0  0  0  1  0  0  0  0  0  0
  1 10  1  0  0  0  0
  2 16  1  0  0  0  0
  3 14  1  0  0  0  0
  4  9  2  0  0  0  0
  5  8  1  0  0  0  0
  7  3  2  0  0  0  0
  8  6  1  0  0  0  0
  9 11  1  0  0  0  0
 10  9  1  0  0  0  0
 10  5  1  1  0  0  0
 11  6  1  0  0  0  0
 12  2  2  0  0  0  0
 13  3  1  0  0  0  0
 14 15  1  0  0  0  0
 14 12  1  0  0  0  0
 15 17  1  0  0  0  0
 16  4  1  0  0  0  0
 17 18  1  0  0  0  0
 18 16  2  0  0  0  0
 18  1  1  0  0  0  0
 19  1  1  0  0  0  0
 20 25  1  0  0  0  0
 21 28  1  0  0  0  0
 22 29  1  0  0  0  0
 22 32  1  0  0  0  0
 23 30  1  0  0  0  0
 23 19  1  1  0  0  0
 24 22  2  0  0  0  0
 25 28  2  0  0  0  0
 25 24  1  0  0  0  0
 26 23  1  0  0  0  0
 27 29  2  0  0  0  0
 28 27  1  0  0  0  0
 30 26  1  6  0  0  0
 30 21  1  0  0  0  0
 31 30  1  0  0  0  0
 31 20  2  0  0  0  0
 32 33  1  0  0  0  0
 32 34  1  0  0  0  0
M  END
>  <MODEL>
3

>  <REMARK>
 VINA RESULT:      -6.9      2.597      7.336
  Name = 
  3 active torsions:
  status: ('A' for Active; 'I' for Inactive)
    1  A    between atoms: N_1  and  C_9
    2  A    between atoms: C_7  and  N_11
    3  A    between atoms: C_8  and  C_9
                            x       y       z     vdW  Elec       q    Type
                         _______ _______ _______ _____ _____    ______ ____

>  <TORSDO>
F 3

$$$$
=
 OpenBabel11062409313D

 34 39  0  0  1  0  0  0  0  0999 V2000
  161.0470  210.1810  153.1360 N   0  0  0  0  0  0  0  0  0  0  0  0
  159.5560  213.1260  151.1910 C   0  0  0  0  0  3  0  0  0  0  0  0
  161.3770  212.9220  147.9240 C   0  0  0  0  0  0  0  0  0  0  0  0
  159.5970  212.5340  153.6030 C   0  0  0  0  0  3  0  0  0  0  0  0
  160.1090  209.4090  155.2910 C   0  0  0  0  0  2  0  0  0  0  0  0
  158.8560  211.0200  156.7460 C   0  0  0  0  0  2  0  0  0  0  0  0
  162.4530  212.3110  147.2900 O   0  0  0  0  0  1  0  0  0  0  0  0
  159.8020  209.8190  156.7310 C   0  0  0  0  0  2  0  0  0  0  0  0
  159.9270  211.7950  154.6570 C   0  0  0  0  0  0  0  0  0  0  0  0
  160.7800  210.5600  154.5330 C   0  0  2  0  0  3  0  0  0  0  0  0
  159.4820  212.2110  156.0220 C   0  0  0  0  0  2  0  0  0  0  0  0
  159.9900  213.3070  149.9350 C   0  0  0  0  0  3  0  0  0  0  0  0
  160.6770  213.7510  147.2840 O   0  0  0  0  0  0  0  0  0  0  0  0
  161.0710  212.6120  149.2910 N   0  0  0  0  0  0  0  0  0  0  0  0
  161.9130  211.6510  149.9870 C   0  0  0  0  0  2  0  0  0  0  0  0
  160.0030  212.1780  152.2380 C   0  0  0  0  0  0  0  0  0  0  0  0
  161.0440  210.6000  150.6340 C   0  0  0  0  0  2  0  0  0  0  0  0
  160.6850  211.0330  152.0210 C   0  0  0  0  0  0  0  0  0  0  0  0
  161.9040  209.0170  152.9220 C   0  0  0  0  0  2  0  0  0  0  0  0
  160.2930  205.2310  150.6790 C   0  0  0  0  0  3  0  0  0  0  0  0
  162.7040  206.8230  151.2260 C   0  0  0  0  0  2  0  0  0  0  0  0
  161.3430  206.1860  147.1810 C   0  0  0  0  0  0  0  0  0  0  0  0
  161.1100  207.7340  153.1390 C   0  0  2  0  0  3  0  0  0  0  0  0
  160.6390  205.6190  148.2530 C   0  0  0  0  0  3  0  0  0  0  0  0
  161.0550  205.8320  149.5700 C   0  0  0  0  0  0  0  0  0  0  0  0
  162.0260  206.6470  153.6910 C   0  0  0  0  0  2  0  0  0  0  0  0
  162.9040  207.1810  148.7580 C   0  0  0  0  0  3  0  0  0  0  0  0
  162.1940  206.6280  149.8250 C   0  0  0  0  0  0  0  0  0  0  0  0
  162.4790  206.9670  147.4450 C   0  0  0  0  0  3  0  0  0  0  0  0
  161.5860  206.5920  152.2510 C   0  0  2  0  0  0  0  0  0  0  0  0
  160.5480  205.5580  151.9480 C   0  0  0  0  0  3  0  0  0  0  0  0
  160.8970  205.9650  145.8330 N   0  0  0  0  0  0  0  0  0  0  0  0
  161.8050  205.4830  144.8030 C   0  0  0  0  0  1  0  0  0  0  0  0
  159.6100  206.2100  145.4950 O   0  0  0  0  0  1  0  0  0  0  0  0
  1 10  1  0  0  0  0
  2 16  1  0  0  0  0
  3 14  1  0  0  0  0
  4  9  2  0  0  0  0
  5  8  1  0  0  0  0
  7  3  1  0  0  0  0
  8  6  1  0  0  0  0
  9 11  1  0  0  0  0
 10  9  1  0  0  0  0
 10  5  1  6  0  0  0
 11  6  1  0  0  0  0
 12  2  2  0  0  0  0
 13  3  2  0  0  0  0
 14 12  1  0  0  0  0
 14 15  1  0  0  0  0
 15 17  1  0  0  0  0
 16  4  1  0  0  0  0
 17 18  1  0  0  0  0
 18 16  2  0  0  0  0
 18  1  1  0  0  0  0
 19  1  1  0  0  0  0
 20 31  2  0  0  0  0
 22 29  2  0  0  0  0
 22 24  1  0  0  0  0
 23 19  1  6  0  0  0
 23 26  1  0  0  0  0
 24 25  2  0  0  0  0
 25 28  1  0  0  0  0
 25 20  1  0  0  0  0
 27 28  2  0  0  0  0
 28 21  1  0  0  0  0
 29 27  1  0  0  0  0
 30 21  1  6  0  0  0
 30 23  1  0  0  0  0
 30 26  1  0  0  0  0
 31 30  1  0  0  0  0
 32 22  1  0  0  0  0
 33 32  1  0  0  0  0
 34 32  1  0  0  0  0
M  END
>  <MODEL>
4

>  <REMARK>
 VINA RESULT:      -6.8      2.216      3.557
  Name = 
  3 active torsions:
  status: ('A' for Active; 'I' for Inactive)
    1  A    between atoms: N_1  and  C_9
    2  A    between atoms: C_7  and  N_11
    3  A    between atoms: C_8  and  C_9
                            x       y       z     vdW  Elec       q    Type
                         _______ _______ _______ _____ _____    ______ ____

>  <TORSDO>
F 3

$$$$
=
 OpenBabel11062409313D

 34 39  0  0  1  0  0  0  0  0999 V2000
  160.8780  208.3900  152.5510 N   0  0  0  0  0  0  0  0  0  0  0  0
  161.5330  204.6630  151.9470 C   0  0  0  0  0  3  0  0  0  0  0  0
  161.2280  204.3980  148.2230 C   0  0  0  0  0  0  0  0  0  0  0  0
  160.9200  205.9720  153.9680 C   0  0  0  0  0  3  0  0  0  0  0  0
  161.2490  209.4580  154.7510 C   0  0  0  0  0  2  0  0  0  0  0  0
  161.1020  208.0800  156.8390 C   0  0  0  0  0  2  0  0  0  0  0  0
  160.8100  205.0900  147.0910 O   0  0  0  0  0  0  0  0  0  0  0  0
  160.8320  209.4520  156.2210 C   0  0  0  0  0  2  0  0  0  0  0  0
  160.5970  207.0730  154.6380 C   0  0  0  0  0  0  0  0  0  0  0  0
  160.4570  208.4110  153.9600 C   0  0  2  0  0  3  0  0  0  0  0  0
  160.3190  206.9920  156.1040 C   0  0  0  0  0  2  0  0  0  0  0  0
  161.5270  204.2440  150.6730 C   0  0  0  0  0  3  0  0  0  0  0  0
  161.6780  203.2280  148.0960 O   0  0  0  0  0  1  0  0  0  0  0  0
  161.1440  205.0100  149.5180 N   0  0  0  0  0  0  0  0  0  0  0  0
  160.6130  206.3600  149.6120 C   0  0  0  0  0  2  0  0  0  0  0  0
  161.2040  205.9870  152.5280 C   0  0  0  0  0  0  0  0  0  0  0  0
  161.5650  207.2190  150.4070 C   0  0  0  0  0  2  0  0  0  0  0  0
  161.2010  207.1590  151.8570 C   0  0  0  0  0  0  0  0  0  0  0  0
  160.7360  209.6380  151.8030 C   0  0  0  0  0  2  0  0  0  0  0  0
  161.8580  211.8570  147.8310 C   0  0  0  0  0  3  0  0  0  0  0  0
  160.9790  212.2540  150.6090 C   0  0  0  0  0  2  0  0  0  0  0  0
  158.6090  213.7080  147.3090 C   0  0  0  0  0  0  0  0  0  0  0  0
  161.8350  209.7490  150.7530 C   0  0  2  0  0  3  0  0  0  0  0  0
  159.8210  213.0470  147.0620 C   0  0  0  0  0  3  0  0  0  0  0  0
  160.5910  212.5530  148.1180 C   0  0  0  0  0  0  0  0  0  0  0  0
  162.9200  210.7040  151.2400 C   0  0  0  0  0  2  0  0  0  0  0  0
  158.9440  213.3870  149.6970 C   0  0  0  0  0  3  0  0  0  0  0  0
  160.1430  212.7180  149.4480 C   0  0  0  0  0  0  0  0  0  0  0  0
  158.1790  213.8750  148.6340 C   0  0  0  0  0  3  0  0  0  0  0  0
  161.9540  211.1530  150.1740 C   0  0  2  0  0  0  0  0  0  0  0  0
  162.5240  211.2140  148.7920 C   0  0  0  0  0  3  0  0  0  0  0  0
  157.8250  214.2030  146.2110 N   0  0  0  0  0  0  0  0  0  0  0  0
  158.4180  214.4530  144.9070 C   0  0  0  0  0  1  0  0  0  0  0  0
  156.5050  214.4520  146.3770 O   0  0  0  0  0  1  0  0  0  0  0  0
  1 10  1  0  0  0  0
  2 16  1  0  0  0  0
  3 14  1  0  0  0  0
  4  9  2  0  0  0  0
  5  8  1  0  0  0  0
  7  3  2  0  0  0  0
  8  6  1  0  0  0  0
  9 11  1  0  0  0  0
 10  9  1  0  0  0  0
 10  5  1  1  0  0  0
 11  6  1  0  0  0  0
 12  2  2  0  0  0  0
 13  3  1  0  0  0  0
 14 15  1  0  0  0  0
 14 12  1  0  0  0  0
 15 17  1  0  0  0  0
 16  4  1  0  0  0  0
 17 18  1  0  0  0  0
 18 16  2  0  0  0  0
 18  1  1  0  0  0  0
 19  1  1  0  0  0  0
 20 25  1  0  0  0  0
 20 31  2  0  0  0  0
 22 29  1  0  0  0  0
 23 26  1  0  0  0  0
 23 19  1  1  0  0  0
 24 22  2  0  0  0  0
 24 25  1  0  0  0  0
 25 28  2  0  0  0  0
 28 27  1  0  0  0  0
 28 21  1  0  0  0  0
 29 27  2  0  0  0  0
 30 31  1  6  0  0  0
 30 21  1  0  0  0  0
 30 23  1  0  0  0  0
 30 26  1  0  0  0  0
 32 34  1  0  0  0  0
 32 22  1  0  0  0  0
 33 32  1  0  0  0  0
M  END
>  <MODEL>
5

>  <REMARK>
 VINA RESULT:      -6.1      3.257      7.368
  Name = 
  3 active torsions:
  status: ('A' for Active; 'I' for Inactive)
    1  A    between atoms: N_1  and  C_9
    2  A    between atoms: C_7  and  N_11
    3  A    between atoms: C_8  and  C_9
                            x       y       z     vdW  Elec       q    Type
                         _______ _______ _______ _____ _____    ______ ____

>  <TORSDO>
F 3

$$$$
=
 OpenBabel11062409313D

 34 39  0  0  1  0  0  0  0  0999 V2000
  161.1910  208.0970  149.8240 N   0  0  0  0  0  0  0  0  0  0  0  0
  161.6790  204.3600  149.1360 C   0  0  0  0  0  3  0  0  0  0  0  0
  161.2040  204.1680  145.4250 C   0  0  0  0  0  0  0  0  0  0  0  0
  161.2030  205.6560  151.2010 C   0  0  0  0  0  3  0  0  0  0  0  0
  161.6950  209.1150  152.0220 C   0  0  0  0  0  2  0  0  0  0  0  0
  161.5860  207.7070  154.0930 C   0  0  0  0  0  2  0  0  0  0  0  0
  160.7640  204.8940  144.3240 O   0  0  0  0  0  0  0  0  0  0  0  0
  161.3420  209.0990  153.5090 C   0  0  0  0  0  2  0  0  0  0  0  0
  160.9500  206.7570  151.9020 C   0  0  0  0  0  0  0  0  0  0  0  0
  160.8320  208.1100  151.2510 C   0  0  2  0  0  3  0  0  0  0  0  0
  160.7320  206.6620  153.3770 C   0  0  0  0  0  2  0  0  0  0  0  0
  161.6020  203.9630  147.8580 C   0  0  0  0  0  3  0  0  0  0  0  0
  161.6050  202.9850  145.2610 O   0  0  0  0  0  1  0  0  0  0  0  0
  161.2000  204.7610  146.7320 N   0  0  0  0  0  0  0  0  0  0  0  0
  160.7230  206.1280  146.8690 C   0  0  0  0  0  2  0  0  0  0  0  0
  161.4250  205.6840  149.7510 C   0  0  0  0  0  0  0  0  0  0  0  0
  161.7410  206.9380  147.6350 C   0  0  0  0  0  2  0  0  0  0  0  0
  161.4370  206.8670  149.0990 C   0  0  0  0  0  0  0  0  0  0  0  0
  161.0630  209.3620  149.1020 C   0  0  0  0  0  2  0  0  0  0  0  0
  163.4570  212.8330  147.0590 C   0  0  0  0  0  3  0  0  0  0  0  0
  160.8500  212.0950  148.1990 C   0  0  0  0  0  2  0  0  0  0  0  0
  161.1850  213.3880  144.0960 C   0  0  0  0  0  0  0  0  0  0  0  0
  162.3560  210.1610  149.2110 C   0  0  2  0  0  3  0  0  0  0  0  0
  162.3270  213.3280  144.9060 C   0  0  0  0  0  3  0  0  0  0  0  0
  162.2390  212.8930  146.2310 C   0  0  0  0  0  0  0  0  0  0  0  0
  162.1850  211.2830  150.2300 C   0  0  0  0  0  2  0  0  0  0  0  0
  159.8460  212.5790  145.9590 C   0  0  0  0  0  3  0  0  0  0  0  0
  160.9880  212.5070  146.7600 C   0  0  0  0  0  0  0  0  0  0  0  0
  159.9440  213.0110  144.6340 C   0  0  0  0  0  3  0  0  0  0  0  0
  162.1920  211.6070  148.7580 C   0  0  2  0  0  0  0  0  0  0  0  0
  163.4460  212.2530  148.2610 C   0  0  0  0  0  3  0  0  0  0  0  0
  161.2930  213.8300  142.7330 N   0  0  0  0  0  0  0  0  0  0  0  0
  162.5760  213.8660  142.0470 C   0  0  0  0  0  1  0  0  0  0  0  0
  160.1900  214.2290  142.0580 O   0  0  0  0  0  1  0  0  0  0  0  0
  1 10  1  0  0  0  0
  2 16  1  0  0  0  0
  3 14  1  0  0  0  0
  4  9  2  0  0  0  0
  5  8  1  0  0  0  0
  7  3  2  0  0  0  0
  8  6  1  0  0  0  0
  9 11  1  0  0  0  0
 10  9  1  0  0  0  0
 10  5  1  1  0  0  0
 11  6  1  0  0  0  0
 12  2  2  0  0  0  0
 13  3  1  0  0  0  0
 14 15  1  0  0  0  0
 14 12  1  0  0  0  0
 15 17  1  0  0  0  0
 16  4  1  0  0  0  0
 17 18  1  0  0  0  0
 18 16  2  0  0  0  0
 18  1  1  0  0  0  0
 19  1  1  0  0  0  0
 20 31  2  0  0  0  0
 22 29  2  0  0  0  0
 22 24  1  0  0  0  0
 23 19  1  6  0  0  0
 23 26  1  0  0  0  0
 24 25  2  0  0  0  0
 25 28  1  0  0  0  0
 25 20  1  0  0  0  0
 27 28  2  0  0  0  0
 28 21  1  0  0  0  0
 29 27  1  0  0  0  0
 30 21  1  6  0  0  0
 30 23  1  0  0  0  0
 30 26  1  0  0  0  0
 31 30  1  0  0  0  0
 32 22  1  0  0  0  0
 33 32  1  0  0  0  0
 34 32  1  0  0  0  0
M  END
>  <MODEL>
6

>  <REMARK>
 VINA RESULT:      -5.8      4.443      8.404
  Name = 
  3 active torsions:
  status: ('A' for Active; 'I' for Inactive)
    1  A    between atoms: N_1  and  C_9
    2  A    between atoms: C_7  and  N_11
    3  A    between atoms: C_8  and  C_9
                            x       y       z     vdW  Elec       q    Type
                         _______ _______ _______ _____ _____    ______ ____

>  <TORSDO>
F 3

$$$$
=
 OpenBabel11062409313D

 34 39  0  0  1  0  0  0  0  0999 V2000
  160.1400  211.8990  152.2170 N   0  0  0  0  0  0  0  0  0  0  0  0
  158.5570  214.1020  149.5120 C   0  0  0  0  0  3  0  0  0  0  0  0
  161.0880  213.9140  146.7550 C   0  0  0  0  0  0  0  0  0  0  0  0
  158.1610  213.8660  151.9530 C   0  0  0  0  0  3  0  0  0  0  0  0
  158.9120  211.2160  154.2530 C   0  0  0  0  0  2  0  0  0  0  0  0
  157.0470  212.6520  155.1150 C   0  0  0  0  0  2  0  0  0  0  0  0
  162.3850  213.5050  146.4660 O   0  0  0  0  0  1  0  0  0  0  0  0
  158.2010  211.7270  155.5050 C   0  0  0  0  0  2  0  0  0  0  0  0
  158.3860  213.3780  153.1680 C   0  0  0  0  0  0  0  0  0  0  0  0
  159.4840  212.3840  153.4410 C   0  0  2  0  0  3  0  0  0  0  0  0
  157.5600  213.8520  154.3200 C   0  0  0  0  0  2  0  0  0  0  0  0
  159.2230  214.2130  148.3530 C   0  0  0  0  0  3  0  0  0  0  0  0
  160.3970  214.4530  145.8500 O   0  0  0  0  0  0  0  0  0  0  0  0
  160.5450  213.7240  148.0700 N   0  0  0  0  0  0  0  0  0  0  0  0
  161.3840  213.1000  149.0810 C   0  0  0  0  0  2  0  0  0  0  0  0
  158.9380  213.4410  150.7820 C   0  0  0  0  0  0  0  0  0  0  0  0
  160.6290  211.9650  149.7290 C   0  0  0  0  0  2  0  0  0  0  0  0
  159.8760  212.4790  150.9160 C   0  0  0  0  0  0  0  0  0  0  0  0
  161.2480  210.9610  152.3920 C   0  0  0  0  0  2  0  0  0  0  0  0
  160.5600  206.4350  151.3890 C   0  0  0  0  0  3  0  0  0  0  0  0
  162.5540  208.5960  151.3760 C   0  0  0  0  0  2  0  0  0  0  0  0
  161.4930  206.5420  147.7330 C   0  0  0  0  0  0  0  0  0  0  0  0
  160.7410  209.6560  152.9940 C   0  0  2  0  0  3  0  0  0  0  0  0
  160.8930  206.1720  148.9450 C   0  0  0  0  0  3  0  0  0  0  0  0
  161.2110  206.8400  150.1300 C   0  0  0  0  0  0  0  0  0  0  0  0
  161.8510  208.9980  153.8080 C   0  0  0  0  0  2  0  0  0  0  0  0
  162.7530  208.2610  148.9050 C   0  0  0  0  0  3  0  0  0  0  0  0
  162.1440  207.9000  150.1080 C   0  0  0  0  0  0  0  0  0  0  0  0
  162.4260  207.5900  147.7240 C   0  0  0  0  0  3  0  0  0  0  0  0
  161.4800  208.4360  152.4590 C   0  0  2  0  0  0  0  0  0  0  0  0
  160.6970  207.1620  152.5010 C   0  0  0  0  0  3  0  0  0  0  0  0
  161.1490  205.8510  146.5210 N   0  0  0  0  0  0  0  0  0  0  0  0
  161.9990  204.8020  145.9780 C   0  0  0  0  0  1  0  0  0  0  0  0
  160.0160  206.1720  145.8540 O   0  0  0  0  0  1  0  0  0  0  0  0
  1 19  1  0  0  0  0
  1 10  1  0  0  0  0
  2 16  1  0  0  0  0
  3 14  1  0  0  0  0
  4  9  2  0  0  0  0
  5  8  1  0  0  0  0
  6  8  1  0  0  0  0
  7  3  1  0  0  0  0
  9 10  1  0  0  0  0
  9 11  1  0  0  0  0
 10  5  1  6  0  0  0
 11  6  1  0  0  0  0
 12  2  2  0  0  0  0
 13  3  2  0  0  0  0
 14 12  1  0  0  0  0
 14 15  1  0  0  0  0
 15 17  1  0  0  0  0
 16 18  2  0  0  0  0
 16  4  1  0  0  0  0
 17 18  1  0  0  0  0
 18  1  1  0  0  0  0
 20 31  2  0  0  0  0
 22 24  1  0  0  0  0
 23 19  1  6  0  0  0
 23 26  1  0  0  0  0
 24 25  2  0  0  0  0
 25 20  1  0  0  0  0
 27 28  2  0  0  0  0
 28 25  1  0  0  0  0
 28 21  1  0  0  0  0
 29 22  2  0  0  0  0
 29 27  1  0  0  0  0
 30 21  1  6  0  0  0
 30 31  1  0  0  0  0
 30 23  1  0  0  0  0
 30 26  1  0  0  0  0
 32 22  1  0  0  0  0
 33 32  1  0  0  0  0
 34 32  1  0  0  0  0
M  END
>  <MODEL>
7

>  <REMARK>
 VINA RESULT:      -5.8      1.693      2.585
  Name = 
  3 active torsions:
  status: ('A' for Active; 'I' for Inactive)
    1  A    between atoms: N_1  and  C_9
    2  A    between atoms: C_7  and  N_11
    3  A    between atoms: C_8  and  C_9
                            x       y       z     vdW  Elec       q    Type
                         _______ _______ _______ _____ _____    ______ ____

>  <TORSDO>
F 3

$$$$
=
 OpenBabel11062409313D

 34 39  0  0  1  0  0  0  0  0999 V2000
  161.0620  208.4470  151.7910 N   0  0  0  0  0  0  0  0  0  0  0  0
  161.2290  206.1100  148.7590 C   0  0  0  0  0  3  0  0  0  0  0  0
  161.2020  202.7250  150.3640 C   0  0  0  0  0  0  0  0  0  0  0  0
  161.7270  208.5250  149.0700 C   0  0  0  0  0  3  0  0  0  0  0  0
  160.6830  210.8810  151.5660 C   0  0  0  0  0  2  0  0  0  0  0  0
  161.3590  212.0500  149.4550 C   0  0  0  0  0  2  0  0  0  0  0  0
  161.3290  202.0760  151.5870 O   0  0  0  0  0  1  0  0  0  0  0  0
  161.2390  212.1750  150.9740 C   0  0  0  0  0  2  0  0  0  0  0  0
  161.8540  209.6490  149.7670 C   0  0  0  0  0  0  0  0  0  0  0  0
  161.6100  209.7010  151.2520 C   0  0  2  0  0  3  0  0  0  0  0  0
  162.2930  210.9010  149.0790 C   0  0  0  0  0  2  0  0  0  0  0  0
  161.2010  204.7930  149.0060 C   0  0  0  0  0  3  0  0  0  0  0  0
  161.0240  202.0410  149.3210 O   0  0  0  0  0  0  0  0  0  0  0  0
  161.2740  204.1570  150.2930 N   0  0  0  0  0  0  0  0  0  0  0  0
  161.4860  204.9010  151.5250 C   0  0  0  0  0  2  0  0  0  0  0  0
  161.3000  207.2630  149.6880 C   0  0  0  0  0  0  0  0  0  0  0  0
  160.4480  205.9900  151.6370 C   0  0  0  0  0  2  0  0  0  0  0  0
  160.9640  207.2400  150.9950 C   0  0  0  0  0  0  0  0  0  0  0  0
  160.8340  208.3950  153.2340 C   0  0  0  0  0  2  0  0  0  0  0  0
  160.0810  212.4620  155.4360 C   0  0  0  0  0  3  0  0  0  0  0  0
  159.3510  209.6150  155.3890 C   0  0  0  0  0  2  0  0  0  0  0  0
  156.3480  212.6770  154.9150 C   0  0  0  0  0  0  0  0  0  0  0  0
  161.5580  209.5450  153.9220 C   0  0  2  0  0  3  0  0  0  0  0  0
  157.6900  213.0370  155.1070 C   0  0  0  0  0  3  0  0  0  0  0  0
  158.6770  212.0570  155.2420 C   0  0  0  0  0  0  0  0  0  0  0  0
  161.8740  209.1670  155.3660 C   0  0  0  0  0  2  0  0  0  0  0  0
  156.9850  210.3320  155.0060 C   0  0  0  0  0  3  0  0  0  0  0  0
  158.3220  210.6910  155.1830 C   0  0  0  0  0  0  0  0  0  0  0  0
  156.0040  211.3180  154.8680 C   0  0  0  0  0  3  0  0  0  0  0  0
  160.7580  210.1370  155.0750 C   0  0  2  0  0  0  0  0  0  0  0  0
  161.0700  211.5670  155.3850 C   0  0  0  0  0  3  0  0  0  0  0  0
  155.3460  213.6970  154.7690 N   0  0  0  0  0  0  0  0  0  0  0  0
  154.8400  214.4330  155.9170 C   0  0  0  0  0  1  0  0  0  0  0  0
  154.8470  213.9880  153.5450 O   0  0  0  0  0  1  0  0  0  0  0  0
  1 19  1  0  0  0  0
  2 12  2  0  0  0  0
  2 16  1  0  0  0  0
  3  7  1  0  0  0  0
  4 16  1  0  0  0  0
  4  9  2  0  0  0  0
  6  8  1  0  0  0  0
  8  5  1  0  0  0  0
  9 10  1  0  0  0  0
 10  5  1  6  0  0  0
 10  1  1  0  0  0  0
 11  6  1  0  0  0  0
 11  9  1  0  0  0  0
 12 14  1  0  0  0  0
 13  3  2  0  0  0  0
 14  3  1  0  0  0  0
 14 15  1  0  0  0  0
 15 17  1  0  0  0  0
 16 18  2  0  0  0  0
 18 17  1  0  0  0  0
 18  1  1  0  0  0  0
 22 24  1  0  0  0  0
 23 19  1  6  0  0  0
 23 30  1  0  0  0  0
 23 26  1  0  0  0  0
 24 25  2  0  0  0  0
 25 20  1  0  0  0  0
 27 28  2  0  0  0  0
 28 25  1  0  0  0  0
 28 21  1  0  0  0  0
 29 22  2  0  0  0  0
 29 27  1  0  0  0  0
 30 26  1  1  0  0  0
 30 31  1  0  0  0  0
 30 21  1  0  0  0  0
 31 20  2  0  0  0  0
 32 22  1  0  0  0  0
 32 33  1  0  0  0  0
 34 32  1  0  0  0  0
M  END
>  <MODEL>
8

>  <REMARK>
 VINA RESULT:      -5.7      2.988      7.985
  Name = 
  3 active torsions:
  status: ('A' for Active; 'I' for Inactive)
    1  A    between atoms: N_1  and  C_9
    2  A    between atoms: C_7  and  N_11
    3  A    between atoms: C_8  and  C_9
                            x       y       z     vdW  Elec       q    Type
                         _______ _______ _______ _____ _____    ______ ____

>  <TORSDO>
F 3

$$$$
=
 OpenBabel11062409313D

 34 39  0  0  1  0  0  0  0  0999 V2000
  161.2010  211.5680  150.5130 N   0  0  0  0  0  0  0  0  0  0  0  0
  158.5480  213.8690  152.0450 C   0  0  0  0  0  3  0  0  0  0  0  0
  157.5720  212.0030  155.1430 C   0  0  0  0  0  0  0  0  0  0  0  0
  159.5370  213.6980  149.7720 C   0  0  0  0  0  3  0  0  0  0  0  0
  162.6100  212.2620  148.6030 C   0  0  0  0  0  2  0  0  0  0  0  0
  161.7620  213.9920  147.0010 C   0  0  0  0  0  2  0  0  0  0  0  0
  157.6940  210.7750  155.7830 O   0  0  0  0  0  1  0  0  0  0  0  0
  162.5900  212.7150  147.1440 C   0  0  0  0  0  2  0  0  0  0  0  0
  160.3210  213.1740  148.8350 C   0  0  0  0  0  0  0  0  0  0  0  0
  161.1890  211.9720  149.0990 C   0  0  2  0  0  3  0  0  0  0  0  0
  160.3230  213.7590  147.4600 C   0  0  0  0  0  2  0  0  0  0  0  0
  158.0130  213.4860  153.2130 C   0  0  0  0  0  3  0  0  0  0  0  0
  156.8940  212.9150  155.6870 O   0  0  0  0  0  0  0  0  0  0  0  0
  158.2100  212.2260  153.8770 N   0  0  0  0  0  0  0  0  0  0  0  0
  158.9780  211.1400  153.2880 C   0  0  0  0  0  2  0  0  0  0  0  0
  159.4900  213.1690  151.1410 C   0  0  0  0  0  0  0  0  0  0  0  0
  160.3450  211.6460  152.9010 C   0  0  0  0  0  2  0  0  0  0  0  0
  160.3100  212.1550  151.4940 C   0  0  0  0  0  0  0  0  0  0  0  0
  161.9850  210.3820  150.8520 C   0  0  0  0  0  2  0  0  0  0  0  0
  160.2460  206.0690  150.2760 C   0  0  0  0  0  3  0  0  0  0  0  0
  162.7250  207.6500  150.2870 C   0  0  0  0  0  2  0  0  0  0  0  0
  161.5330  205.4270  146.7860 C   0  0  0  0  0  0  0  0  0  0  0  0
  161.0990  209.3400  151.5240 C   0  0  2  0  0  3  0  0  0  0  0  0
  160.7400  205.3900  147.9410 C   0  0  0  0  0  3  0  0  0  0  0  0
  161.1020  206.1200  149.0770 C   0  0  0  0  0  0  0  0  0  0  0  0
  161.9120  208.5510  152.5450 C   0  0  0  0  0  2  0  0  0  0  0  0
  163.0750  206.9320  147.9170 C   0  0  0  0  0  3  0  0  0  0  0  0
  162.2760  206.9050  149.0610 C   0  0  0  0  0  0  0  0  0  0  0  0
  162.7030  206.2020  146.7840 C   0  0  0  0  0  3  0  0  0  0  0  0
  161.5440  207.9130  151.2290 C   0  0  2  0  0  0  0  0  0  0  0  0
  160.4560  206.8890  151.3080 C   0  0  0  0  0  3  0  0  0  0  0  0
  161.1430  204.6780  145.6230 N   0  0  0  0  0  0  0  0  0  0  0  0
  161.2050  203.2250  145.6010 C   0  0  0  0  0  1  0  0  0  0  0  0
  160.7110  205.3220  144.5140 O   0  0  0  0  0  1  0  0  0  0  0  0
  1 19  1  0  0  0  0
  1 18  1  0  0  0  0
  2 12  2  0  0  0  0
  3 13  2  0  0  0  0
  3  7  1  0  0  0  0
  4 16  1  0  0  0  0
  6  8  1  0  0  0  0
  6 11  1  0  0  0  0
  8  5  1  0  0  0  0
  9 10  1  0  0  0  0
  9  4  2  0  0  0  0
 10  5  1  1  0  0  0
 10  1  1  0  0  0  0
 11  9  1  0  0  0  0
 12 14  1  0  0  0  0
 14  3  1  0  0  0  0
 15 14  1  0  0  0  0
 16 18  2  0  0  0  0
 16  2  1  0  0  0  0
 17 15  1  0  0  0  0
 18 17  1  0  0  0  0
 20 31  2  0  0  0  0
 22 24  1  0  0  0  0
 23 19  1  6  0  0  0
 23 26  1  0  0  0  0
 24 25  2  0  0  0  0
 25 20  1  0  0  0  0
 27 28  2  0  0  0  0
 28 25  1  0  0  0  0
 28 21  1  0  0  0  0
 29 22  2  0  0  0  0
 29 27  1  0  0  0  0
 30 21  1  6  0  0  0
 30 31  1  0  0  0  0
 30 23  1  0  0  0  0
 30 26  1  0  0  0  0
 32 22  1  0  0  0  0
 33 32  1  0  0  0  0
 34 32  1  0  0  0  0
M  END
>  <MODEL>
9

>  <REMARK>
 VINA RESULT:      -5.5      2.935      5.783
  Name = 
  3 active torsions:
  status: ('A' for Active; 'I' for Inactive)
    1  A    between atoms: N_1  and  C_9
    2  A    between atoms: C_7  and  N_11
    3  A    between atoms: C_8  and  C_9
                            x       y       z     vdW  Elec       q    Type
                         _______ _______ _______ _____ _____    ______ ____

>  <TORSDO>
F 3

$$$$
