=
 OpenBabel11052422573D

 28 32  0  0  1  0  0  0  0  0999 V2000
  161.5390  205.9280  151.4950 C   0  0  0  0  0  0  0  0  0  0  0  0
  160.2420  201.5940  150.0830 O   0  0  0  0  0  0  0  0  0  0  0  0
  161.7950  204.3910  148.1860 C   0  0  1  0  0  3  0  0  0  0  0  0
  161.1850  202.1210  147.5550 N   0  0  0  0  0  2  0  0  0  0  0  0
  160.8190  203.7280  150.8530 N   0  0  0  0  0  0  0  0  0  0  0  0
  161.2250  205.4960  149.0760 C   0  0  0  0  0  2  0  0  0  0  0  0
  161.0490  204.3340  153.2200 C   0  0  0  0  0  3  0  0  0  0  0  0
  160.7000  202.7380  149.8180 C   0  0  0  0  0  0  0  0  0  0  0  0
  160.4210  203.3990  152.2250 C   0  0  0  0  0  2  0  0  0  0  0  0
  161.1270  203.0610  148.4430 C   0  0  0  0  0  0  0  0  0  0  0  0
  161.5210  205.4900  152.8600 N   0  0  0  0  0  0  0  0  0  0  0  0
  161.2160  205.0710  150.5160 C   0  0  0  0  0  0  0  0  0  0  0  0
  160.5240  205.1850  146.1950 C   0  0  0  0  0  3  0  0  0  0  0  0
  162.9090  204.8300  145.9360 C   0  0  0  0  0  0  0  0  0  0  0  0
  161.5830  205.5930  144.0570 C   0  0  0  0  0  0  0  0  0  0  0  0
  161.7550  204.8110  146.7440 C   0  0  0  0  0  0  0  0  0  0  0  0
  162.8170  205.2210  144.5970 C   0  0  0  0  0  3  0  0  0  0  0  0
  164.1160  204.4710  146.4410 F   0  0  0  0  0  0  0  0  0  0  0  0
  161.4900  206.0060  142.6330 C   0  0  0  0  0  1  0  0  0  0  0  0
  160.4360  205.5750  144.8550 C   0  0  0  0  0  3  0  0  0  0  0  0
  161.9520  207.2630  151.2010 N   0  0  0  0  0  0  0  0  0  0  0  0
  162.2210  208.6560  151.5780 N   0  0  1  0  0  0  0  0  0  0  0  0
  162.3970  208.2960  150.2770 C   0  0  2  0  0  3  0  0  0  0  0  0
  161.3380  208.6540  149.4300 O   0  0  0  0  0  1  0  0  0  0  0  0
  161.1460  210.5520  152.6530 C   0  0  2  0  0  3  0  0  0  0  0  0
  160.9260  209.2650  151.8820 C   0  0  2  0  0  3  0  0  0  0  0  0
  160.7250  209.2970  153.3830 C   0  0  0  0  0  2  0  0  0  0  0  0
  159.9410  211.4490  152.4640 C   0  0  0  0  0  1  0  0  0  0  0  0
  1 11  1  0  0  0  0
  3 16  1  6  0  0  0
  3 10  1  0  0  0  0
  3  6  1  0  0  0  0
  4 10  2  0  0  0  0
  5  9  1  0  0  0  0
  6 12  1  0  0  0  0
  8  2  2  0  0  0  0
  8  5  1  0  0  0  0
  9  7  1  0  0  0  0
 10  8  1  0  0  0  0
 11  7  2  0  0  0  0
 12  5  1  0  0  0  0
 12  1  2  0  0  0  0
 13 16  1  0  0  0  0
 14 18  1  0  0  0  0
 14 16  2  0  0  0  0
 15 17  2  0  0  0  0
 15 20  1  0  0  0  0
 17 14  1  0  0  0  0
 19 15  1  0  0  0  0
 20 13  2  0  0  0  0
 21  1  1  0  0  0  0
 22 21  1  1  0  0  0
 22 26  1  0  0  0  0
 23 24  1  6  0  0  0
 23 21  1  0  0  0  0
 23 22  1  0  0  0  0
 25 28  1  6  0  0  0
 25 27  1  0  0  0  0
 26 25  1  0  0  0  0
 26 27  1  1  0  0  0
M  END
>  <MODEL>
1

>  <REMARK>
 VINA RESULT:      -7.9      0.000      0.000
  Name = 
  3 active torsions:
  status: ('A' for Active; 'I' for Inactive)
    1  A    between atoms: C_1  and  N_2
    2  A    between atoms: N_3  and  C_7
    3  A    between atoms: C_10  and  C_13
                            x       y       z     vdW  Elec       q    Type
                         _______ _______ _______ _____ _____    ______ ____

>  <TORSDO>
F 3

$$$$
=
 OpenBabel11052422573D

 28 32  0  0  1  0  0  0  0  0999 V2000
  161.8310  209.4190  151.2490 C   0  0  0  0  0  0  0  0  0  0  0  0
  160.4960  206.5270  154.7580 O   0  0  0  0  0  0  0  0  0  0  0  0
  161.6550  205.7670  151.3060 C   0  0  1  0  0  3  0  0  0  0  0  0
  161.0390  204.3410  153.1800 N   0  0  0  0  0  2  0  0  0  0  0  0
  161.1040  208.0270  153.0650 N   0  0  0  0  0  0  0  0  0  0  0  0
  161.1820  207.0920  150.7060 C   0  0  0  0  0  2  0  0  0  0  0  0
  161.6560  210.3890  153.4370 C   0  0  0  0  0  3  0  0  0  0  0  0
  160.8690  206.7000  153.5660 C   0  0  0  0  0  0  0  0  0  0  0  0
  160.9220  209.1810  153.9500 C   0  0  0  0  0  2  0  0  0  0  0  0
  161.0790  205.5360  152.6830 C   0  0  0  0  0  0  0  0  0  0  0  0
  162.0290  210.4780  152.1960 N   0  0  0  0  0  0  0  0  0  0  0  0
  161.3990  208.2220  151.6690 C   0  0  0  0  0  0  0  0  0  0  0  0
  160.9280  203.4220  150.8690 C   0  0  0  0  0  3  0  0  0  0  0  0
  161.5960  204.7660  148.9630 C   0  0  0  0  0  0  0  0  0  0  0  0
  160.8820  202.4730  148.6430 C   0  0  0  0  0  0  0  0  0  0  0  0
  161.3890  204.6380  150.3500 C   0  0  0  0  0  0  0  0  0  0  0  0
  161.3410  203.6830  148.1170 C   0  0  0  0  0  3  0  0  0  0  0  0
  162.0420  205.9320  148.4320 F   0  0  0  0  0  0  0  0  0  0  0  0
  160.6140  201.3240  147.7400 C   0  0  0  0  0  1  0  0  0  0  0  0
  160.6760  202.3420  150.0180 C   0  0  0  0  0  3  0  0  0  0  0  0
  162.1490  209.6490  149.8760 N   0  0  0  0  0  0  0  0  0  0  0  0
  162.4490  210.5260  148.7380 N   0  0  1  0  0  0  0  0  0  0  0  0
  162.3880  209.1840  148.5180 C   0  0  2  0  0  3  0  0  0  0  0  0
  161.1820  208.7450  147.9540 O   0  0  0  0  0  1  0  0  0  0  0  0
  161.5100  212.3240  147.3980 C   0  0  2  0  0  3  0  0  0  0  0  0
  161.2180  211.2580  148.4380 C   0  0  2  0  0  3  0  0  0  0  0  0
  161.3800  212.7060  148.8550 C   0  0  0  0  0  2  0  0  0  0  0  0
  160.2240  212.6670  146.6750 C   0  0  0  0  0  1  0  0  0  0  0  0
  1 12  2  0  0  0  0
  1 11  1  0  0  0  0
  3 16  1  6  0  0  0
  3 10  1  0  0  0  0
  5  8  1  0  0  0  0
  5  9  1  0  0  0  0
  6  3  1  0  0  0  0
  6 12  1  0  0  0  0
  7  9  1  0  0  0  0
  8  2  2  0  0  0  0
 10  4  2  0  0  0  0
 10  8  1  0  0  0  0
 11  7  2  0  0  0  0
 12  5  1  0  0  0  0
 14 16  2  0  0  0  0
 15 20  1  0  0  0  0
 16 13  1  0  0  0  0
 17 15  2  0  0  0  0
 17 14  1  0  0  0  0
 18 14  1  0  0  0  0
 19 15  1  0  0  0  0
 20 13  2  0  0  0  0
 21  1  1  0  0  0  0
 22 21  1  1  0  0  0
 23 24  1  6  0  0  0
 23 22  1  0  0  0  0
 23 21  1  0  0  0  0
 25 28  1  6  0  0  0
 25 26  1  0  0  0  0
 25 27  1  0  0  0  0
 26 22  1  0  0  0  0
 26 27  1  1  0  0  0
M  END
>  <MODEL>
2

>  <REMARK>
 VINA RESULT:      -7.3      2.890      4.756
  Name = 
  3 active torsions:
  status: ('A' for Active; 'I' for Inactive)
    1  A    between atoms: C_1  and  N_2
    2  A    between atoms: N_3  and  C_7
    3  A    between atoms: C_10  and  C_13
                            x       y       z     vdW  Elec       q    Type
                         _______ _______ _______ _____ _____    ______ ____

>  <TORSDO>
F 3

$$$$
=
 OpenBabel11052422573D

 28 32  0  0  1  0  0  0  0  0999 V2000
  161.7300  209.9970  151.3880 C   0  0  0  0  0  0  0  0  0  0  0  0
  160.7550  206.0860  153.8810 O   0  0  0  0  0  0  0  0  0  0  0  0
  161.9460  206.4880  150.3800 C   0  0  1  0  0  3  0  0  0  0  0  0
  161.5100  204.5230  151.7480 N   0  0  0  0  0  2  0  0  0  0  0  0
  161.1780  208.0680  152.7080 N   0  0  0  0  0  0  0  0  0  0  0  0
  161.3270  207.8720  150.1810 C   0  0  0  0  0  2  0  0  0  0  0  0
  161.4790  210.2650  153.7600 C   0  0  0  0  0  3  0  0  0  0  0  0
  161.0930  206.6360  152.7980 C   0  0  0  0  0  0  0  0  0  0  0  0
  160.8850  208.8900  153.8870 C   0  0  0  0  0  2  0  0  0  0  0  0
  161.4150  205.8080  151.6200 C   0  0  0  0  0  0  0  0  0  0  0  0
  161.8250  210.7500  152.6050 N   0  0  0  0  0  0  0  0  0  0  0  0
  161.4340  208.6910  151.4350 C   0  0  0  0  0  0  0  0  0  0  0  0
  161.2350  204.3850  149.2460 C   0  0  0  0  0  3  0  0  0  0  0  0
  162.1930  206.1360  147.8680 C   0  0  0  0  0  0  0  0  0  0  0  0
  161.4790  204.0510  146.8620 C   0  0  0  0  0  0  0  0  0  0  0  0
  161.7910  205.6640  149.1330 C   0  0  0  0  0  0  0  0  0  0  0  0
  162.0340  205.3260  146.7390 C   0  0  0  0  0  3  0  0  0  0  0  0
  162.7360  207.3710  147.7270 F   0  0  0  0  0  0  0  0  0  0  0  0
  161.3130  203.1930  145.6600 C   0  0  0  0  0  1  0  0  0  0  0  0
  161.0790  203.5790  148.1150 C   0  0  0  0  0  3  0  0  0  0  0  0
  162.0040  210.6480  150.1480 N   0  0  0  0  0  0  0  0  0  0  0  0
  162.1080  211.8400  149.2970 N   0  0  1  0  0  0  0  0  0  0  0  0
  162.3630  210.6260  148.7370 C   0  0  2  0  0  3  0  0  0  0  0  0
  161.2980  210.0990  147.9910 O   0  0  0  0  0  1  0  0  0  0  0  0
  160.7830  213.5730  148.2260 C   0  0  2  0  0  3  0  0  0  0  0  0
  160.7460  212.3370  149.1050 C   0  0  2  0  0  3  0  0  0  0  0  0
  160.6210  213.7150  149.7230 C   0  0  0  0  0  2  0  0  0  0  0  0
  159.4340  213.7400  147.5590 C   0  0  0  0  0  1  0  0  0  0  0  0
  1 12  2  0  0  0  0
  1 11  1  0  0  0  0
  3 16  1  6  0  0  0
  3 10  1  0  0  0  0
  5  8  1  0  0  0  0
  5  9  1  0  0  0  0
  6  3  1  0  0  0  0
  6 12  1  0  0  0  0
  7  9  1  0  0  0  0
  8  2  2  0  0  0  0
 10  4  2  0  0  0  0
 10  8  1  0  0  0  0
 11  7  2  0  0  0  0
 12  5  1  0  0  0  0
 14 16  2  0  0  0  0
 15 20  1  0  0  0  0
 16 13  1  0  0  0  0
 17 15  2  0  0  0  0
 17 14  1  0  0  0  0
 18 14  1  0  0  0  0
 19 15  1  0  0  0  0
 20 13  2  0  0  0  0
 21  1  1  0  0  0  0
 22 21  1  1  0  0  0
 23 24  1  6  0  0  0
 23 22  1  0  0  0  0
 23 21  1  0  0  0  0
 25 28  1  6  0  0  0
 25 26  1  0  0  0  0
 25 27  1  0  0  0  0
 26 22  1  0  0  0  0
 26 27  1  1  0  0  0
M  END
>  <MODEL>
3

>  <REMARK>
 VINA RESULT:      -6.9      2.537      4.212
  Name = 
  3 active torsions:
  status: ('A' for Active; 'I' for Inactive)
    1  A    between atoms: C_1  and  N_2
    2  A    between atoms: N_3  and  C_7
    3  A    between atoms: C_10  and  C_13
                            x       y       z     vdW  Elec       q    Type
                         _______ _______ _______ _____ _____    ______ ____

>  <TORSDO>
F 3

$$$$
=
 OpenBabel11052422573D

 28 32  0  0  1  0  0  0  0  0999 V2000
  161.9910  209.5120  149.1240 C   0  0  0  0  0  0  0  0  0  0  0  0
  161.6090  205.8160  152.0670 O   0  0  0  0  0  0  0  0  0  0  0  0
  160.7110  209.3940  152.5480 C   0  0  1  0  0  3  0  0  0  0  0  0
  160.4650  207.4350  153.9720 N   0  0  0  0  0  2  0  0  0  0  0  0
  161.8670  207.5940  150.5650 N   0  0  0  0  0  0  0  0  0  0  0  0
  161.7400  209.9300  151.5530 C   0  0  0  0  0  2  0  0  0  0  0  0
  162.2430  207.3310  148.1540 C   0  0  0  0  0  3  0  0  0  0  0  0
  161.4940  207.0520  151.8430 C   0  0  0  0  0  0  0  0  0  0  0  0
  162.3690  206.7040  149.5140 C   0  0  0  0  0  2  0  0  0  0  0  0
  160.9630  207.9440  152.8910 C   0  0  0  0  0  0  0  0  0  0  0  0
  162.1020  208.6150  148.0110 N   0  0  0  0  0  0  0  0  0  0  0  0
  161.8590  209.0210  150.3650 C   0  0  0  0  0  0  0  0  0  0  0  0
  161.7320  210.3270  154.6220 C   0  0  0  0  0  3  0  0  0  0  0  0
  159.5010  211.0740  154.0340 C   0  0  0  0  0  0  0  0  0  0  0  0
  160.5770  211.9160  156.0350 C   0  0  0  0  0  0  0  0  0  0  0  0
  160.6360  210.2880  153.7530 C   0  0  0  0  0  0  0  0  0  0  0  0
  159.4780  211.8840  155.1730 C   0  0  0  0  0  3  0  0  0  0  0  0
  158.4230  211.0560  153.2100 F   0  0  0  0  0  0  0  0  0  0  0  0
  160.5470  212.7780  157.2450 C   0  0  0  0  0  1  0  0  0  0  0  0
  161.7040  211.1380  155.7600 C   0  0  0  0  0  3  0  0  0  0  0  0
  161.9730  210.9190  148.8820 N   0  0  0  0  0  0  0  0  0  0  0  0
  161.2910  212.1730  148.5410 N   0  0  1  0  0  0  0  0  0  0  0  0
  162.6360  212.2070  148.7480 C   0  0  2  0  0  3  0  0  0  0  0  0
  163.4020  212.2210  147.5730 O   0  0  0  0  0  1  0  0  0  0  0  0
  160.5430  213.4400  146.6060 C   0  0  2  0  0  3  0  0  0  0  0  0
  160.8830  212.0610  147.1410 C   0  0  2  0  0  3  0  0  0  0  0  0
  159.4360  212.4880  147.0030 C   0  0  0  0  0  2  0  0  0  0  0  0
  160.6940  213.4310  145.1000 C   0  0  0  0  0  1  0  0  0  0  0  0
  1 12  2  0  0  0  0
  3 10  1  0  0  0  0
  3 16  1  1  0  0  0
  5  8  1  0  0  0  0
  6  3  1  0  0  0  0
  7  9  1  0  0  0  0
  8  2  2  0  0  0  0
  8 10  1  0  0  0  0
  9  5  1  0  0  0  0
 10  4  2  0  0  0  0
 11  7  2  0  0  0  0
 11  1  1  0  0  0  0
 12  5  1  0  0  0  0
 12  6  1  0  0  0  0
 13 20  1  0  0  0  0
 14 17  2  0  0  0  0
 15 19  1  0  0  0  0
 16 14  1  0  0  0  0
 16 13  2  0  0  0  0
 17 15  1  0  0  0  0
 18 14  1  0  0  0  0
 20 15  2  0  0  0  0
 21  1  1  0  0  0  0
 22 23  1  0  0  0  0
 22 21  1  1  0  0  0
 23 24  1  6  0  0  0
 23 21  1  0  0  0  0
 25 28  1  6  0  0  0
 25 27  1  0  0  0  0
 25 26  1  0  0  0  0
 26 27  1  1  0  0  0
 26 22  1  0  0  0  0
M  END
>  <MODEL>
4

>  <REMARK>
 VINA RESULT:      -6.7      4.060      8.065
  Name = 
  3 active torsions:
  status: ('A' for Active; 'I' for Inactive)
    1  A    between atoms: C_1  and  N_2
    2  A    between atoms: N_3  and  C_7
    3  A    between atoms: C_10  and  C_13
                            x       y       z     vdW  Elec       q    Type
                         _______ _______ _______ _____ _____    ______ ____

>  <TORSDO>
F 3

$$$$
=
 OpenBabel11052422573D

 28 32  0  0  1  0  0  0  0  0999 V2000
  161.9280  207.3680  150.6820 C   0  0  0  0  0  0  0  0  0  0  0  0
  160.4690  203.5750  153.1210 O   0  0  0  0  0  0  0  0  0  0  0  0
  161.5460  203.9020  149.5760 C   0  0  1  0  0  3  0  0  0  0  0  0
  160.8710  201.9850  150.9150 N   0  0  0  0  0  2  0  0  0  0  0  0
  161.1420  205.5050  151.9790 N   0  0  0  0  0  0  0  0  0  0  0  0
  161.1420  205.3710  149.4440 C   0  0  0  0  0  2  0  0  0  0  0  0
  161.8310  207.5940  153.0690 C   0  0  0  0  0  3  0  0  0  0  0  0
  160.8380  204.1020  152.0370 C   0  0  0  0  0  0  0  0  0  0  0  0
  161.0360  206.3240  153.1910 C   0  0  0  0  0  2  0  0  0  0  0  0
  160.9730  203.2730  150.8230 C   0  0  0  0  0  0  0  0  0  0  0  0
  162.1950  208.0570  151.9100 N   0  0  0  0  0  0  0  0  0  0  0  0
  161.4330  206.1220  150.7100 C   0  0  0  0  0  0  0  0  0  0  0  0
  160.4820  201.9610  148.4290 C   0  0  0  0  0  3  0  0  0  0  0  0
  161.6000  203.6090  147.0450 C   0  0  0  0  0  0  0  0  0  0  0  0
  160.5430  201.6820  146.0260 C   0  0  0  0  0  0  0  0  0  0  0  0
  161.2060  203.1530  148.3180 C   0  0  0  0  0  0  0  0  0  0  0  0
  161.2660  202.8710  145.9060 C   0  0  0  0  0  3  0  0  0  0  0  0
  162.3040  204.7610  146.9060 F   0  0  0  0  0  0  0  0  0  0  0  0
  160.1910  200.9000  144.8130 C   0  0  0  0  0  1  0  0  0  0  0  0
  160.1510  201.2260  147.2870 C   0  0  0  0  0  3  0  0  0  0  0  0
  162.2430  208.0080  149.4450 N   0  0  0  0  0  0  0  0  0  0  0  0
  162.6700  209.1660  148.6500 N   0  0  1  0  0  0  0  0  0  0  0  0
  162.3520  208.0170  147.9940 C   0  0  2  0  0  3  0  0  0  0  0  0
  161.0680  208.0100  147.4280 O   0  0  0  0  0  1  0  0  0  0  0  0
  162.1070  211.5000  148.2700 C   0  0  2  0  0  3  0  0  0  0  0  0
  161.5910  210.1500  148.7320 C   0  0  2  0  0  3  0  0  0  0  0  0
  161.9560  211.2150  149.7470 C   0  0  0  0  0  2  0  0  0  0  0  0
  160.9360  212.3380  147.8000 C   0  0  0  0  0  1  0  0  0  0  0  0
  1 12  2  0  0  0  0
  1 11  1  0  0  0  0
  3 16  1  6  0  0  0
  3 10  1  0  0  0  0
  5  8  1  0  0  0  0
  5  9  1  0  0  0  0
  6  3  1  0  0  0  0
  6 12  1  0  0  0  0
  7  9  1  0  0  0  0
  8  2  2  0  0  0  0
 10  4  2  0  0  0  0
 10  8  1  0  0  0  0
 11  7  2  0  0  0  0
 12  5  1  0  0  0  0
 14 16  2  0  0  0  0
 15 20  1  0  0  0  0
 16 13  1  0  0  0  0
 17 15  2  0  0  0  0
 17 14  1  0  0  0  0
 18 14  1  0  0  0  0
 19 15  1  0  0  0  0
 20 13  2  0  0  0  0
 21  1  1  0  0  0  0
 22 26  1  0  0  0  0
 22 21  1  1  0  0  0
 23 24  1  6  0  0  0
 23 22  1  0  0  0  0
 23 21  1  0  0  0  0
 25 28  1  6  0  0  0
 25 26  1  0  0  0  0
 25 27  1  0  0  0  0
 26 27  1  1  0  0  0
M  END
>  <MODEL>
5

>  <REMARK>
 VINA RESULT:      -6.6      2.325      3.219
  Name = 
  3 active torsions:
  status: ('A' for Active; 'I' for Inactive)
    1  A    between atoms: C_1  and  N_2
    2  A    between atoms: N_3  and  C_7
    3  A    between atoms: C_10  and  C_13
                            x       y       z     vdW  Elec       q    Type
                         _______ _______ _______ _____ _____    ______ ____

>  <TORSDO>
F 3

$$$$
=
 OpenBabel11052422573D

 28 32  0  0  1  0  0  0  0  0999 V2000
  159.9520  211.7620  153.9190 C   0  0  0  0  0  0  0  0  0  0  0  0
  160.5330  207.4260  155.7420 O   0  0  0  0  0  0  0  0  0  0  0  0
  161.3030  208.7460  152.3510 C   0  0  1  0  0  3  0  0  0  0  0  0
  161.6510  206.5690  153.3810 N   0  0  0  0  0  2  0  0  0  0  0  0
  160.1780  209.5850  154.9080 N   0  0  0  0  0  0  0  0  0  0  0  0
  160.2340  209.8400  152.3820 C   0  0  0  0  0  2  0  0  0  0  0  0
  159.7660  211.5610  156.3030 C   0  0  0  0  0  3  0  0  0  0  0  0
  160.5960  208.2170  154.7620 C   0  0  0  0  0  0  0  0  0  0  0  0
  159.6900  210.0630  156.2050 C   0  0  0  0  0  2  0  0  0  0  0  0
  161.1130  207.7430  153.4640 C   0  0  0  0  0  0  0  0  0  0  0  0
  159.8540  212.3060  155.2420 N   0  0  0  0  0  0  0  0  0  0  0  0
  160.1270  210.4430  153.7520 C   0  0  0  0  0  0  0  0  0  0  0  0
  160.8310  206.8370  150.8180 C   0  0  0  0  0  3  0  0  0  0  0  0
  161.9520  208.7760  149.8870 C   0  0  0  0  0  0  0  0  0  0  0  0
  161.4570  206.8660  148.4800 C   0  0  0  0  0  0  0  0  0  0  0  0
  161.3660  208.1190  150.9870 C   0  0  0  0  0  0  0  0  0  0  0  0
  161.9940  208.1460  148.6390 C   0  0  0  0  0  3  0  0  0  0  0  0
  162.4800  210.0190  150.0200 F   0  0  0  0  0  0  0  0  0  0  0  0
  161.5050  206.2000  147.1530 C   0  0  0  0  0  1  0  0  0  0  0  0
  160.8760  206.2110  149.5690 C   0  0  0  0  0  3  0  0  0  0  0  0
  159.9110  212.6480  152.8000 N   0  0  0  0  0  0  0  0  0  0  0  0
  159.2810  213.7010  151.9950 N   0  0  1  0  0  0  0  0  0  0  0  0
  160.4560  213.1730  151.5570 C   0  0  2  0  0  3  0  0  0  0  0  0
  160.3180  212.2140  150.5420 O   0  0  0  0  0  1  0  0  0  0  0  0
  157.4720  214.0940  150.4190 C   0  0  2  0  0  3  0  0  0  0  0  0
  158.0800  213.1120  151.4030 C   0  0  2  0  0  3  0  0  0  0  0  0
  156.8690  213.9340  151.7960 C   0  0  0  0  0  2  0  0  0  0  0  0
  156.6360  213.3280  149.4150 C   0  0  0  0  0  1  0  0  0  0  0  0
  1 11  1  0  0  0  0
  3 16  1  6  0  0  0
  3  6  1  0  0  0  0
  3 10  1  0  0  0  0
  4 10  2  0  0  0  0
  5  9  1  0  0  0  0
  6 12  1  0  0  0  0
  8  5  1  0  0  0  0
  8  2  2  0  0  0  0
  9  7  1  0  0  0  0
 10  8  1  0  0  0  0
 11  7  2  0  0  0  0
 12  1  2  0  0  0  0
 12  5  1  0  0  0  0
 13 16  1  0  0  0  0
 14 18  1  0  0  0  0
 14 16  2  0  0  0  0
 15 17  2  0  0  0  0
 15 20  1  0  0  0  0
 17 14  1  0  0  0  0
 19 15  1  0  0  0  0
 20 13  2  0  0  0  0
 21  1  1  0  0  0  0
 22 21  1  1  0  0  0
 23 24  1  6  0  0  0
 23 22  1  0  0  0  0
 23 21  1  0  0  0  0
 25 28  1  6  0  0  0
 25 26  1  0  0  0  0
 25 27  1  0  0  0  0
 26 27  1  1  0  0  0
 26 22  1  0  0  0  0
M  END
>  <MODEL>
6

>  <REMARK>
 VINA RESULT:      -6.5      3.448      6.138
  Name = 
  3 active torsions:
  status: ('A' for Active; 'I' for Inactive)
    1  A    between atoms: C_1  and  N_2
    2  A    between atoms: N_3  and  C_7
    3  A    between atoms: C_10  and  C_13
                            x       y       z     vdW  Elec       q    Type
                         _______ _______ _______ _____ _____    ______ ____

>  <TORSDO>
F 3

$$$$
=
 OpenBabel11052422573D

 28 32  0  0  1  0  0  0  0  0999 V2000
  161.0050  203.4350  150.9910 C   0  0  0  0  0  0  0  0  0  0  0  0
  162.0910  208.0480  150.9820 O   0  0  0  0  0  0  0  0  0  0  0  0
  160.9960  205.8160  148.2150 C   0  0  1  0  0  3  0  0  0  0  0  0
  161.4850  208.1990  148.3040 N   0  0  0  0  0  2  0  0  0  0  0  0
  161.6090  205.7580  151.0660 N   0  0  0  0  0  0  0  0  0  0  0  0
  161.5520  204.5360  148.8410 C   0  0  0  0  0  2  0  0  0  0  0  0
  161.1650  204.5090  153.1310 C   0  0  0  0  0  3  0  0  0  0  0  0
  161.7620  207.0010  150.3610 C   0  0  0  0  0  0  0  0  0  0  0  0
  161.8220  205.7130  152.5160 C   0  0  0  0  0  2  0  0  0  0  0  0
  161.5200  207.0530  148.9060 C   0  0  0  0  0  0  0  0  0  0  0  0
  160.8330  203.4770  152.4140 N   0  0  0  0  0  0  0  0  0  0  0  0
  161.3640  204.5440  150.3300 C   0  0  0  0  0  0  0  0  0  0  0  0
  160.1800  206.1880  145.8890 C   0  0  0  0  0  3  0  0  0  0  0  0
  162.4710  205.4450  146.1700 C   0  0  0  0  0  0  0  0  0  0  0  0
  161.5810  205.8270  143.9490 C   0  0  0  0  0  0  0  0  0  0  0  0
  161.2330  205.8150  146.7310 C   0  0  0  0  0  0  0  0  0  0  0  0
  162.6380  205.4530  144.7820 C   0  0  0  0  0  3  0  0  0  0  0  0
  163.5110  205.0780  146.9610 F   0  0  0  0  0  0  0  0  0  0  0  0
  161.7630  205.8330  142.4740 C   0  0  0  0  0  1  0  0  0  0  0  0
  160.3510  206.1940  144.5020 C   0  0  0  0  0  3  0  0  0  0  0  0
  160.7390  202.2160  150.2970 N   0  0  0  0  0  0  0  0  0  0  0  0
  161.0010  201.2390  149.2330 N   0  0  1  0  0  0  0  0  0  0  0  0
  159.9680  201.0000  150.0860 C   0  0  2  0  0  3  0  0  0  0  0  0
  158.7050  201.3290  149.5730 O   0  0  0  0  0  1  0  0  0  0  0  0
  160.9550  200.9550  146.8190 C   0  0  2  0  0  3  0  0  0  0  0  0
  160.6260  201.8830  147.9730 C   0  0  2  0  0  3  0  0  0  0  0  0
  161.8680  202.1170  147.1380 C   0  0  0  0  0  2  0  0  0  0  0  0
  160.0810  201.3160  145.6360 C   0  0  0  0  0  1  0  0  0  0  0  0
  1 11  1  0  0  0  0
  3 16  1  6  0  0  0
  3  6  1  0  0  0  0
  3 10  1  0  0  0  0
  4 10  2  0  0  0  0
  5  9  1  0  0  0  0
  6 12  1  0  0  0  0
  8  2  2  0  0  0  0
  8  5  1  0  0  0  0
  9  7  1  0  0  0  0
 10  8  1  0  0  0  0
 11  7  2  0  0  0  0
 12  1  2  0  0  0  0
 12  5  1  0  0  0  0
 13 16  1  0  0  0  0
 14 16  2  0  0  0  0
 14 18  1  0  0  0  0
 15 20  1  0  0  0  0
 15 17  2  0  0  0  0
 17 14  1  0  0  0  0
 19 15  1  0  0  0  0
 20 13  2  0  0  0  0
 21  1  1  0  0  0  0
 22 23  1  0  0  0  0
 22 21  1  1  0  0  0
 23 24  1  6  0  0  0
 23 21  1  0  0  0  0
 25 28  1  6  0  0  0
 25 27  1  0  0  0  0
 25 26  1  0  0  0  0
 26 27  1  6  0  0  0
 26 22  1  0  0  0  0
M  END
>  <MODEL>
7

>  <REMARK>
 VINA RESULT:      -6.4      1.993      5.342
  Name = 
  3 active torsions:
  status: ('A' for Active; 'I' for Inactive)
    1  A    between atoms: C_1  and  N_2
    2  A    between atoms: N_3  and  C_7
    3  A    between atoms: C_10  and  C_13
                            x       y       z     vdW  Elec       q    Type
                         _______ _______ _______ _____ _____    ______ ____

>  <TORSDO>
F 3

$$$$
=
 OpenBabel11052422573D

 28 32  0  0  1  0  0  0  0  0999 V2000
  161.6200  208.6640  151.2860 C   0  0  0  0  0  0  0  0  0  0  0  0
  160.5030  204.0720  151.6450 O   0  0  0  0  0  0  0  0  0  0  0  0
  161.8080  206.0260  148.7610 C   0  0  1  0  0  3  0  0  0  0  0  0
  161.2970  203.6630  149.0450 N   0  0  0  0  0  2  0  0  0  0  0  0
  160.9950  206.3590  151.5420 N   0  0  0  0  0  0  0  0  0  0  0  0
  161.2180  207.3600  149.2190 C   0  0  0  0  0  2  0  0  0  0  0  0
  161.3000  207.8020  153.5030 C   0  0  0  0  0  3  0  0  0  0  0  0
  160.8830  205.0540  150.9510 C   0  0  0  0  0  0  0  0  0  0  0  0
  160.6800  206.5450  152.9620 C   0  0  0  0  0  2  0  0  0  0  0  0
  161.2280  204.8620  149.5290 C   0  0  0  0  0  0  0  0  0  0  0  0
  161.6900  208.7600  152.7150 N   0  0  0  0  0  0  0  0  0  0  0  0
  161.3000  207.4960  150.7110 C   0  0  0  0  0  0  0  0  0  0  0  0
  160.4960  206.3220  146.6620 C   0  0  0  0  0  3  0  0  0  0  0  0
  162.6960  205.3160  146.4800 C   0  0  0  0  0  0  0  0  0  0  0  0
  161.3390  205.6390  144.4980 C   0  0  0  0  0  0  0  0  0  0  0  0
  161.6770  205.8830  147.2710 C   0  0  0  0  0  0  0  0  0  0  0  0
  162.5210  205.1980  145.0980 C   0  0  0  0  0  3  0  0  0  0  0  0
  163.8510  204.8810  147.0420 F   0  0  0  0  0  0  0  0  0  0  0  0
  161.1580  205.5100  143.0290 C   0  0  0  0  0  1  0  0  0  0  0  0
  160.3260  206.2010  145.2790 C   0  0  0  0  0  3  0  0  0  0  0  0
  161.9430  209.8100  150.4990 N   0  0  0  0  0  0  0  0  0  0  0  0
  162.0070  211.2590  150.2720 N   0  0  1  0  0  0  0  0  0  0  0  0
  162.4330  210.4330  149.2780 C   0  0  2  0  0  3  0  0  0  0  0  0
  161.5020  210.2400  148.2470 O   0  0  0  0  0  1  0  0  0  0  0  0
  160.6160  213.2330  149.9870 C   0  0  2  0  0  3  0  0  0  0  0  0
  160.6260  211.7230  150.1410 C   0  0  2  0  0  3  0  0  0  0  0  0
  160.2770  212.6070  151.3220 C   0  0  0  0  0  2  0  0  0  0  0  0
  159.3380  213.6460  149.2900 C   0  0  0  0  0  1  0  0  0  0  0  0
  1 11  1  0  0  0  0
  3 16  1  6  0  0  0
  3  6  1  0  0  0  0
  3 10  1  0  0  0  0
  4 10  2  0  0  0  0
  5  9  1  0  0  0  0
  6 12  1  0  0  0  0
  8  5  1  0  0  0  0
  8  2  2  0  0  0  0
  9  7  1  0  0  0  0
 10  8  1  0  0  0  0
 11  7  2  0  0  0  0
 12  1  2  0  0  0  0
 12  5  1  0  0  0  0
 13 16  1  0  0  0  0
 14 18  1  0  0  0  0
 14 16  2  0  0  0  0
 15 17  2  0  0  0  0
 15 20  1  0  0  0  0
 17 14  1  0  0  0  0
 19 15  1  0  0  0  0
 20 13  2  0  0  0  0
 21  1  1  0  0  0  0
 22 21  1  1  0  0  0
 23 24  1  6  0  0  0
 23 22  1  0  0  0  0
 23 21  1  0  0  0  0
 25 28  1  6  0  0  0
 25 26  1  0  0  0  0
 25 27  1  0  0  0  0
 26 22  1  0  0  0  0
 26 27  1  1  0  0  0
M  END
>  <MODEL>
8

>  <REMARK>
 VINA RESULT:      -6.3      1.791      2.467
  Name = 
  3 active torsions:
  status: ('A' for Active; 'I' for Inactive)
    1  A    between atoms: C_1  and  N_2
    2  A    between atoms: N_3  and  C_7
    3  A    between atoms: C_10  and  C_13
                            x       y       z     vdW  Elec       q    Type
                         _______ _______ _______ _____ _____    ______ ____

>  <TORSDO>
F 3

$$$$
=
 OpenBabel11052422573D

 28 32  0  0  1  0  0  0  0  0999 V2000
  161.4090  203.5810  146.9500 C   0  0  0  0  0  0  0  0  0  0  0  0
  160.7140  200.5780  150.5510 O   0  0  0  0  0  0  0  0  0  0  0  0
  160.5840  204.2940  150.4410 C   0  0  1  0  0  3  0  0  0  0  0  0
  160.1560  202.6900  152.2210 N   0  0  0  0  0  2  0  0  0  0  0  0
  161.1100  201.9930  148.7280 N   0  0  0  0  0  0  0  0  0  0  0  0
  161.5590  204.4330  149.2710 C   0  0  0  0  0  2  0  0  0  0  0  0
  161.1130  201.2680  146.3830 C   0  0  0  0  0  3  0  0  0  0  0  0
  160.8090  201.7570  150.1130 C   0  0  0  0  0  0  0  0  0  0  0  0
  161.2920  200.8580  147.8180 C   0  0  0  0  0  2  0  0  0  0  0  0
  160.5970  202.9000  151.0220 C   0  0  0  0  0  0  0  0  0  0  0  0
  161.2020  202.5120  146.0170 N   0  0  0  0  0  0  0  0  0  0  0  0
  161.3480  203.3380  148.2670 C   0  0  0  0  0  0  0  0  0  0  0  0
  161.3310  204.9920  152.7150 C   0  0  0  0  0  3  0  0  0  0  0  0
  160.5860  206.7290  151.1940 C   0  0  0  0  0  0  0  0  0  0  0  0
  161.3240  207.3050  153.4290 C   0  0  0  0  0  0  0  0  0  0  0  0
  160.8370  205.3680  151.4610 C   0  0  0  0  0  0  0  0  0  0  0  0
  160.8310  207.6890  152.1800 C   0  0  0  0  0  3  0  0  0  0  0  0
  160.1070  207.1240  149.9880 F   0  0  0  0  0  0  0  0  0  0  0  0
  161.5810  208.3290  154.4740 C   0  0  0  0  0  1  0  0  0  0  0  0
  161.5740  205.9560  153.6970 C   0  0  0  0  0  3  0  0  0  0  0  0
  161.6280  204.9020  146.4540 N   0  0  0  0  0  0  0  0  0  0  0  0
  162.3100  206.2010  146.4660 N   0  0  1  0  0  0  0  0  0  0  0  0
  161.3130  206.0060  145.5600 C   0  0  2  0  0  3  0  0  0  0  0  0
  160.0810  206.5680  145.9260 O   0  0  0  0  0  1  0  0  0  0  0  0
  162.7060  208.1530  147.8600 C   0  0  2  0  0  3  0  0  0  0  0  0
  161.9030  206.8760  147.6980 C   0  0  2  0  0  3  0  0  0  0  0  0
  163.0740  206.9220  148.6580 C   0  0  0  0  0  2  0  0  0  0  0  0
  161.9330  209.1090  148.7440 C   0  0  0  0  0  1  0  0  0  0  0  0
  1 12  2  0  0  0  0
  3 10  1  0  0  0  0
  3 16  1  1  0  0  0
  5  8  1  0  0  0  0
  6  3  1  0  0  0  0
  7  9  1  0  0  0  0
  8  2  2  0  0  0  0
  8 10  1  0  0  0  0
  9  5  1  0  0  0  0
 10  4  2  0  0  0  0
 11  7  2  0  0  0  0
 11  1  1  0  0  0  0
 12  5  1  0  0  0  0
 12  6  1  0  0  0  0
 13 20  1  0  0  0  0
 14 16  1  0  0  0  0
 14 17  2  0  0  0  0
 15 20  2  0  0  0  0
 15 19  1  0  0  0  0
 16 13  2  0  0  0  0
 17 15  1  0  0  0  0
 18 14  1  0  0  0  0
 21  1  1  0  0  0  0
 22 21  1  1  0  0  0
 22 26  1  0  0  0  0
 23 24  1  1  0  0  0
 23 21  1  0  0  0  0
 23 22  1  0  0  0  0
 25 27  1  0  0  0  0
 25 28  1  1  0  0  0
 26 25  1  0  0  0  0
 26 27  1  1  0  0  0
M  END
>  <MODEL>
9

>  <REMARK>
 VINA RESULT:      -6.2      2.606      5.864
  Name = 
  3 active torsions:
  status: ('A' for Active; 'I' for Inactive)
    1  A    between atoms: C_1  and  N_2
    2  A    between atoms: N_3  and  C_7
    3  A    between atoms: C_10  and  C_13
                            x       y       z     vdW  Elec       q    Type
                         _______ _______ _______ _____ _____    ______ ____

>  <TORSDO>
F 3

$$$$
