=
 OpenBabel11062410573D

 32 34  0  0  1  0  0  0  0  0999 V2000
  160.9490  207.7290  153.9410 O   0  0  0  0  0  0  0  0  0  0  0  0
  161.5840  209.9820  154.3350 C   0  0  0  0  0  0  0  0  0  0  0  0
  160.4290  210.8940  154.3500 C   0  0  0  0  0  0  0  0  0  0  0  0
  160.8250  205.5220  153.0580 C   0  0  1  0  0  3  0  0  0  0  0  0
  160.6700  206.4510  150.7250 C   0  0  0  0  0  2  0  0  0  0  0  0
  158.2070  212.5950  154.3430 C   0  0  0  0  0  3  0  0  0  0  0  0
  161.8770  207.0900  150.0640 C   0  0  0  0  0  2  0  0  0  0  0  0
  161.6220  208.5730  149.7770 C   0  0  1  0  0  3  0  0  0  0  0  0
  160.9480  209.1560  152.0240 C   0  0  2  0  0  3  0  0  0  0  0  0
  159.0240  212.5130  155.4790 C   0  0  0  0  0  3  0  0  0  0  0  0
  161.1010  205.2570  151.5690 C   0  0  2  0  0  3  0  0  0  0  0  0
  160.1350  211.6640  155.4820 C   0  0  0  0  0  3  0  0  0  0  0  0
  161.0340  204.3590  153.7990 O   0  0  0  0  0  1  0  0  0  0  0  0
  161.9590  209.3850  150.9720 N   0  0  0  0  0  0  0  0  0  0  0  0
  159.8770  210.1630  152.0700 N   0  0  0  0  0  2  0  0  0  0  0  0
  161.7290  206.6210  153.5990 C   0  0  0  0  0  2  0  0  0  0  0  0
  162.5160  210.1120  155.1730 O   0  0  0  0  0  0  0  0  0  0  0  0
  158.4960  211.8230  153.2150 C   0  0  0  0  0  3  0  0  0  0  0  0
  161.5990  208.8260  153.3760 C   0  0  2  0  0  3  0  0  0  0  0  0
  159.6050  210.9730  153.2180 C   0  0  0  0  0  0  0  0  0  0  0  0
  162.7220  207.8110  147.7900 O   0  0  0  0  0  1  0  0  0  0  0  0
  162.4610  208.9490  148.5550 C   0  0  0  0  0  2  0  0  0  0  0  0
  161.6620  211.3260  149.3920 C   0  0  0  0  0  1  0  0  0  0  0  0
  162.2230  210.8190  150.7210 C   0  0  0  0  0  2  0  0  0  0  0  0
  160.3870  204.1270  151.1490 O   0  0  0  0  0  0  0  0  0  0  0  0
  161.2970  203.3820  150.3920 C   0  0  0  0  0  2  0  0  0  0  0  0
  160.5490  202.5930  149.3370 C   0  0  0  0  0  2  0  0  0  0  0  0
  161.2390  202.7370  147.9910 C   0  0  0  0  0  2  0  0  0  0  0  0
  161.5790  204.1920  147.7090 C   0  0  0  0  0  2  0  0  0  0  0  0
  162.1190  204.3600  146.3350 C   0  0  0  0  0  0  0  0  0  0  0  0
  161.3550  203.9860  145.2410 O   0  0  0  0  0  0  0  0  0  0  0  0
  163.2750  204.8280  146.1660 O   0  0  0  0  0  1  0  0  0  0  0  0
  2  3  1  0  0  0  0
  2 17  2  0  0  0  0
  3 12  1  0  0  0  0
  4 16  1  0  0  0  0
  4 13  1  1  0  0  0
  5 11  1  0  0  0  0
  6 10  1  0  0  0  0
  7  5  1  0  0  0  0
  8 22  1  6  0  0  0
  8  7  1  0  0  0  0
  8 14  1  0  0  0  0
  9 15  1  1  0  0  0
  9 19  1  0  0  0  0
 10 12  2  0  0  0  0
 11 25  1  6  0  0  0
 11  4  1  0  0  0  0
 14  9  1  0  0  0  0
 15 20  1  0  0  0  0
 16  1  1  0  0  0  0
 18 20  1  0  0  0  0
 18  6  2  0  0  0  0
 19  1  1  1  0  0  0
 19  2  1  0  0  0  0
 20  3  2  0  0  0  0
 21 22  1  0  0  0  0
 23 24  1  0  0  0  0
 24 14  1  0  0  0  0
 26 25  1  0  0  0  0
 27 26  1  0  0  0  0
 28 27  1  0  0  0  0
 29 28  1  0  0  0  0
 30 29  1  0  0  0  0
 31 30  2  0  0  0  0
 32 30  1  0  0  0  0
M  END
>  <MODEL>
1

>  <REMARK>
 VINA RESULT:      -6.1      0.000      0.000
  Name = 
  8 active torsions:
  status: ('A' for Active; 'I' for Inactive)
    1  A    between atoms: C_1  and  C_10
    2  A    between atoms: C_2  and  C_19
    3  A    between atoms: C_2  and  C_24
    4  A    between atoms: C_10  and  C_24
    5  A    between atoms: O_12  and  C_19
    6  A    between atoms: O_12  and  C_21
    7  A    between atoms: C_13  and  C_15
    8  A    between atoms: C_25  and  N_26
                            x       y       z     vdW  Elec       q    Type
                         _______ _______ _______ _____ _____    ______ ____

>  <TORSDO>
F 8

$$$$
=
 OpenBabel11062410573D

 32 34  0  0  1  0  0  0  0  0999 V2000
  159.7540  210.2900  156.2390 O   0  0  0  0  0  0  0  0  0  0  0  0
  159.3860  212.6310  156.1100 C   0  0  0  0  0  0  0  0  0  0  0  0
  157.9730  212.9620  155.8660 C   0  0  0  0  0  0  0  0  0  0  0  0
  160.6330  208.1040  155.9020 C   0  0  1  0  0  3  0  0  0  0  0  0
  160.4300  208.3930  153.4110 C   0  0  0  0  0  2  0  0  0  0  0  0
  155.2800  213.5440  155.3740 C   0  0  0  0  0  3  0  0  0  0  0  0
  161.3600  209.3290  152.6610 C   0  0  0  0  0  2  0  0  0  0  0  0
  160.5770  210.4800  152.0220 C   0  0  1  0  0  3  0  0  0  0  0  0
  159.4390  211.1690  154.0400 C   0  0  2  0  0  3  0  0  0  0  0  0
  155.9060  214.0400  156.5260 C   0  0  0  0  0  3  0  0  0  0  0  0
  161.1840  207.6840  154.5300 C   0  0  2  0  0  3  0  0  0  0  0  0
  157.2520  213.7500  156.7710 C   0  0  0  0  0  3  0  0  0  0  0  0
  161.1870  207.3090  156.9050 O   0  0  0  0  0  1  0  0  0  0  0  0
  160.4040  211.5810  153.0010 N   0  0  0  0  0  0  0  0  0  0  0  0
  158.0600  211.6250  153.8060 N   0  0  0  0  0  2  0  0  0  0  0  0
  160.9480  209.5630  156.1990 C   0  0  0  0  0  2  0  0  0  0  0  0
  160.0710  213.3040  156.9270 O   0  0  0  0  0  0  0  0  0  0  0  0
  155.9970  212.7520  154.4740 C   0  0  0  0  0  3  0  0  0  0  0  0
  159.9840  211.4200  155.4540 C   0  0  2  0  0  3  0  0  0  0  0  0
  157.3410  212.4610  154.7180 C   0  0  0  0  0  0  0  0  0  0  0  0
  162.2760  209.9340  150.4240 O   0  0  0  0  0  1  0  0  0  0  0  0
  161.3500  210.9170  150.7770 C   0  0  0  0  0  2  0  0  0  0  0  0
  158.9810  212.9000  151.3920 C   0  0  0  0  0  1  0  0  0  0  0  0
  160.1080  212.9120  152.4260 C   0  0  0  0  0  2  0  0  0  0  0  0
  161.0400  206.3010  154.3650 O   0  0  0  0  0  0  0  0  0  0  0  0
  161.7360  205.9980  153.1900 C   0  0  0  0  0  2  0  0  0  0  0  0
  161.1600  204.7430  152.5690 C   0  0  0  0  0  2  0  0  0  0  0  0
  160.9360  204.9510  151.0810 C   0  0  0  0  0  2  0  0  0  0  0  0
  160.7660  203.6190  150.3670 C   0  0  0  0  0  2  0  0  0  0  0  0
  161.1240  203.7310  148.9290 C   0  0  0  0  0  0  0  0  0  0  0  0
  161.4200  204.9710  148.3850 O   0  0  0  0  0  1  0  0  0  0  0  0
  161.1430  202.7030  148.2040 O   0  0  0  0  0  0  0  0  0  0  0  0
  2 17  2  0  0  0  0
  3  2  1  0  0  0  0
  3 12  1  0  0  0  0
  4 16  1  0  0  0  0
  4 13  1  1  0  0  0
  5 11  1  0  0  0  0
  6 10  1  0  0  0  0
  7  5  1  0  0  0  0
  8 22  1  6  0  0  0
  8  7  1  0  0  0  0
  8 14  1  0  0  0  0
  9 15  1  6  0  0  0
  9 19  1  0  0  0  0
 10 12  2  0  0  0  0
 11 25  1  6  0  0  0
 11  4  1  0  0  0  0
 14  9  1  0  0  0  0
 15 20  1  0  0  0  0
 16  1  1  0  0  0  0
 18 20  1  0  0  0  0
 18  6  2  0  0  0  0
 19  2  1  1  0  0  0
 19  1  1  0  0  0  0
 20  3  2  0  0  0  0
 21 22  1  0  0  0  0
 23 24  1  0  0  0  0
 24 14  1  0  0  0  0
 26 25  1  0  0  0  0
 27 26  1  0  0  0  0
 28 27  1  0  0  0  0
 29 28  1  0  0  0  0
 30 29  1  0  0  0  0
 31 30  1  0  0  0  0
 32 30  2  0  0  0  0
M  END
>  <MODEL>
2

>  <REMARK>
 VINA RESULT:      -5.7      2.167      3.556
  Name = 
  8 active torsions:
  status: ('A' for Active; 'I' for Inactive)
    1  A    between atoms: C_1  and  C_10
    2  A    between atoms: C_2  and  C_19
    3  A    between atoms: C_2  and  C_24
    4  A    between atoms: C_10  and  C_24
    5  A    between atoms: O_12  and  C_19
    6  A    between atoms: O_12  and  C_21
    7  A    between atoms: C_13  and  C_15
    8  A    between atoms: C_25  and  N_26
                            x       y       z     vdW  Elec       q    Type
                         _______ _______ _______ _____ _____    ______ ____

>  <TORSDO>
F 8

$$$$
=
 OpenBabel11062410573D

 32 34  0  0  1  0  0  0  0  0999 V2000
  159.9440  210.9190  151.7690 O   0  0  0  0  0  0  0  0  0  0  0  0
  161.9790  209.7250  152.0200 C   0  0  0  0  0  0  0  0  0  0  0  0
  161.7600  208.2930  152.2770 C   0  0  0  0  0  0  0  0  0  0  0  0
  158.2160  212.5410  151.9940 C   0  0  1  0  0  3  0  0  0  0  0  0
  158.2870  212.2880  154.4960 C   0  0  0  0  0  2  0  0  0  0  0  0
  161.2920  205.5820  152.7920 C   0  0  0  0  0  3  0  0  0  0  0  0
  159.4590  212.8250  155.2960 C   0  0  0  0  0  2  0  0  0  0  0  0
  160.2110  211.6870  155.9930 C   0  0  1  0  0  3  0  0  0  0  0  0
  160.5370  210.3420  154.0110 C   0  0  2  0  0  3  0  0  0  0  0  0
  162.0400  205.9640  151.6700 C   0  0  0  0  0  3  0  0  0  0  0  0
  157.9580  213.2300  153.3440 C   0  0  2  0  0  3  0  0  0  0  0  0
  162.2740  207.3190  151.4130 C   0  0  0  0  0  3  0  0  0  0  0  0
  157.7290  213.3290  150.9510 O   0  0  0  0  0  1  0  0  0  0  0  0
  161.2210  211.1080  155.0720 N   0  0  0  0  0  0  0  0  0  0  0  0
  160.4460  208.8960  154.2640 N   0  0  0  0  0  2  0  0  0  0  0  0
  159.7020  212.2960  151.7740 C   0  0  0  0  0  2  0  0  0  0  0  0
  162.8960  210.1040  151.2410 O   0  0  0  0  0  0  0  0  0  0  0  0
  160.7740  206.5530  153.6520 C   0  0  0  0  0  3  0  0  0  0  0  0
  161.0390  210.7340  152.6130 C   0  0  2  0  0  3  0  0  0  0  0  0
  161.0060  207.9070  153.3960 C   0  0  0  0  0  0  0  0  0  0  0  0
  160.7070  213.6580  157.2610 O   0  0  0  0  0  1  0  0  0  0  0  0
  160.8380  212.2690  157.2610 C   0  0  0  0  0  2  0  0  0  0  0  0
  163.6900  211.0210  155.5690 C   0  0  0  0  0  1  0  0  0  0  0  0
  162.3210  210.3570  155.7150 C   0  0  0  0  0  2  0  0  0  0  0  0
  156.6110  213.6020  153.4350 O   0  0  0  0  0  0  0  0  0  0  0  0
  156.4970  214.2570  154.6660 C   0  0  0  0  0  2  0  0  0  0  0  0
  155.1070  214.0380  155.2280 C   0  0  0  0  0  2  0  0  0  0  0  0
  155.1920  213.6450  156.6920 C   0  0  0  0  0  2  0  0  0  0  0  0
  156.0120  212.3760  156.8660 C   0  0  0  0  0  2  0  0  0  0  0  0
  155.2130  211.1690  156.5250 C   0  0  0  0  0  0  0  0  0  0  0  0
  155.5160  210.4380  155.3870 O   0  0  0  0  0  0  0  0  0  0  0  0
  154.2530  210.8230  157.2610 O   0  0  0  0  0  1  0  0  0  0  0  0
  1 16  1  0  0  0  0
  2  3  1  0  0  0  0
  2 19  1  0  0  0  0
  3 20  1  0  0  0  0
  4 13  1  6  0  0  0
  4 11  1  0  0  0  0
  5  7  1  0  0  0  0
  6 18  1  0  0  0  0
  7  8  1  0  0  0  0
  8 22  1  1  0  0  0
  9 15  1  1  0  0  0
  9 14  1  0  0  0  0
 10  6  2  0  0  0  0
 11 25  1  6  0  0  0
 11  5  1  0  0  0  0
 12 10  1  0  0  0  0
 12  3  2  0  0  0  0
 14 24  1  0  0  0  0
 14  8  1  0  0  0  0
 16  4  1  0  0  0  0
 17  2  2  0  0  0  0
 19  1  1  6  0  0  0
 19  9  1  0  0  0  0
 20 18  2  0  0  0  0
 20 15  1  0  0  0  0
 22 21  1  0  0  0  0
 23 24  1  0  0  0  0
 25 26  1  0  0  0  0
 26 27  1  0  0  0  0
 27 28  1  0  0  0  0
 28 29  1  0  0  0  0
 30 29  1  0  0  0  0
 30 32  1  0  0  0  0
 31 30  2  0  0  0  0
M  END
>  <MODEL>
3

>  <REMARK>
 VINA RESULT:      -5.6      3.668      8.877
  Name = 
  8 active torsions:
  status: ('A' for Active; 'I' for Inactive)
    1  A    between atoms: C_1  and  C_10
    2  A    between atoms: C_2  and  C_19
    3  A    between atoms: C_2  and  C_24
    4  A    between atoms: C_10  and  C_24
    5  A    between atoms: O_12  and  C_19
    6  A    between atoms: O_12  and  C_21
    7  A    between atoms: C_13  and  C_15
    8  A    between atoms: C_25  and  N_26
                            x       y       z     vdW  Elec       q    Type
                         _______ _______ _______ _____ _____    ______ ____

>  <TORSDO>
F 8

$$$$
=
 OpenBabel11062410573D

 32 34  0  0  1  0  0  0  0  0999 V2000
  160.1780  212.4150  152.0840 O   0  0  0  0  0  0  0  0  0  0  0  0
  159.6160  210.9310  153.8490 C   0  0  0  0  0  0  0  0  0  0  0  0
  160.6020  210.9600  154.9400 C   0  0  0  0  0  0  0  0  0  0  0  0
  160.6260  213.3180  149.9280 C   0  0  1  0  0  3  0  0  0  0  0  0
  162.2130  211.4260  149.4510 C   0  0  0  0  0  2  0  0  0  0  0  0
  162.5190  211.0300  156.9780 C   0  0  0  0  0  3  0  0  0  0  0  0
  161.6940  210.0220  149.2070 C   0  0  0  0  0  2  0  0  0  0  0  0
  162.1870  209.0600  150.2930 C   0  0  1  0  0  3  0  0  0  0  0  0
  161.4340  210.3840  152.1700 C   0  0  2  0  0  3  0  0  0  0  0  0
  161.1820  211.3440  157.2610 C   0  0  0  0  0  3  0  0  0  0  0  0
  161.2710  212.4520  148.8340 C   0  0  2  0  0  3  0  0  0  0  0  0
  160.2240  211.3090  156.2420 C   0  0  0  0  0  3  0  0  0  0  0  0
  159.9240  214.3770  149.3510 O   0  0  0  0  0  1  0  0  0  0  0  0
  161.2710  209.1000  151.4590 N   0  0  0  0  0  0  0  0  0  0  0  0
  162.3430  210.3310  153.3250 N   0  0  0  0  0  2  0  0  0  0  0  0
  159.6690  212.5020  150.7850 C   0  0  0  0  0  2  0  0  0  0  0  0
  158.3810  210.8780  154.1010 O   0  0  0  0  0  0  0  0  0  0  0  0
  162.8980  210.6880  155.6780 C   0  0  0  0  0  3  0  0  0  0  0  0
  160.0820  211.0660  152.4280 C   0  0  2  0  0  3  0  0  0  0  0  0
  161.9420  210.6530  154.6590 C   0  0  0  0  0  0  0  0  0  0  0  0
  162.6210  207.7820  148.3130 O   0  0  0  0  0  1  0  0  0  0  0  0
  162.2750  207.6700  149.6610 C   0  0  0  0  0  2  0  0  0  0  0  0
  160.7730  206.6440  151.7340 C   0  0  0  0  0  1  0  0  0  0  0  0
  161.3250  207.9260  152.3580 C   0  0  0  0  0  2  0  0  0  0  0  0
  162.0010  213.2650  147.9570 O   0  0  0  0  0  0  0  0  0  0  0  0
  161.5210  212.9470  146.6820 C   0  0  0  0  0  2  0  0  0  0  0  0
  162.3470  213.6690  145.6370 C   0  0  0  0  0  2  0  0  0  0  0  0
  161.7120  213.5080  144.2660 C   0  0  0  0  0  2  0  0  0  0  0  0
  162.6660  212.8150  143.3050 C   0  0  0  0  0  2  0  0  0  0  0  0
  161.9280  212.1700  142.1880 C   0  0  0  0  0  0  0  0  0  0  0  0
  160.7130  211.5470  142.4300 O   0  0  0  0  0  1  0  0  0  0  0  0
  162.4130  212.1760  141.0270 O   0  0  0  0  0  0  0  0  0  0  0  0
  2 17  2  0  0  0  0
  2  3  1  0  0  0  0
  3 12  1  0  0  0  0
  4 13  1  6  0  0  0
  4 16  1  0  0  0  0
  6 10  1  0  0  0  0
  7  5  1  0  0  0  0
  7  8  1  0  0  0  0
  8 22  1  6  0  0  0
  8 14  1  0  0  0  0
  9 19  1  0  0  0  0
  9 15  1  1  0  0  0
 11 25  1  6  0  0  0
 11  5  1  0  0  0  0
 11  4  1  0  0  0  0
 12 10  2  0  0  0  0
 14  9  1  0  0  0  0
 14 24  1  0  0  0  0
 15 20  1  0  0  0  0
 16  1  1  0  0  0  0
 18  6  2  0  0  0  0
 19  1  1  1  0  0  0
 19  2  1  0  0  0  0
 20  3  2  0  0  0  0
 20 18  1  0  0  0  0
 21 22  1  0  0  0  0
 23 24  1  0  0  0  0
 26 25  1  0  0  0  0
 27 26  1  0  0  0  0
 28 27  1  0  0  0  0
 29 28  1  0  0  0  0
 30 31  1  0  0  0  0
 30 29  1  0  0  0  0
 32 30  2  0  0  0  0
M  END
>  <MODEL>
4

>  <REMARK>
 VINA RESULT:      -5.1      3.685      6.404
  Name = 
  8 active torsions:
  status: ('A' for Active; 'I' for Inactive)
    1  A    between atoms: C_1  and  C_10
    2  A    between atoms: C_2  and  C_19
    3  A    between atoms: C_2  and  C_24
    4  A    between atoms: C_10  and  C_24
    5  A    between atoms: O_12  and  C_19
    6  A    between atoms: O_12  and  C_21
    7  A    between atoms: C_13  and  C_15
    8  A    between atoms: C_25  and  N_26
                            x       y       z     vdW  Elec       q    Type
                         _______ _______ _______ _____ _____    ______ ____

>  <TORSDO>
F 8

$$$$
=
 OpenBabel11062410573D

 32 34  0  0  1  0  0  0  0  0999 V2000
  160.4150  208.8910  154.6050 O   0  0  0  0  0  0  0  0  0  0  0  0
  160.0030  211.0940  155.3870 C   0  0  0  0  0  0  0  0  0  0  0  0
  158.5760  211.4470  155.3400 C   0  0  0  0  0  0  0  0  0  0  0  0
  161.3120  207.0250  153.4310 C   0  0  1  0  0  3  0  0  0  0  0  0
  160.9870  208.2280  151.2460 C   0  0  0  0  0  2  0  0  0  0  0  0
  155.8530  212.0830  155.2060 C   0  0  0  0  0  3  0  0  0  0  0  0
  161.8660  209.4070  150.8730 C   0  0  0  0  0  2  0  0  0  0  0  0
  161.0360  210.6880  150.7470 C   0  0  1  0  0  3  0  0  0  0  0  0
  159.9820  210.5260  152.9170 C   0  0  2  0  0  3  0  0  0  0  0  0
  156.5250  212.1280  156.4350 C   0  0  0  0  0  3  0  0  0  0  0  0
  161.8040  207.1730  151.9830 C   0  0  2  0  0  3  0  0  0  0  0  0
  157.8860  211.8100  156.5020 C   0  0  0  0  0  3  0  0  0  0  0  0
  161.9250  205.9280  154.0370 O   0  0  0  0  0  1  0  0  0  0  0  0
  160.8920  211.3310  152.0760 N   0  0  0  0  0  0  0  0  0  0  0  0
  158.5870  210.9910  152.9250 N   0  0  0  0  0  2  0  0  0  0  0  0
  161.6160  208.2730  154.2480 C   0  0  0  0  0  2  0  0  0  0  0  0
  160.7160  211.4300  156.3710 O   0  0  0  0  0  0  0  0  0  0  0  0
  156.5400  211.7150  154.0460 C   0  0  0  0  0  3  0  0  0  0  0  0
  160.5890  210.2410  154.2990 C   0  0  2  0  0  3  0  0  0  0  0  0
  157.8990  211.3970  154.1120 C   0  0  0  0  0  0  0  0  0  0  0  0
  162.0850  210.8490  148.5990 O   0  0  0  0  0  1  0  0  0  0  0  0
  161.7430  211.5880  149.7320 C   0  0  0  0  0  2  0  0  0  0  0  0
  159.4310  213.1270  151.0780 C   0  0  0  0  0  1  0  0  0  0  0  0
  160.5470  212.7700  152.0600 C   0  0  0  0  0  2  0  0  0  0  0  0
  161.6740  205.9510  151.3110 O   0  0  0  0  0  0  0  0  0  0  0  0
  160.6020  206.1310  150.4310 C   0  0  0  0  0  2  0  0  0  0  0  0
  160.8380  205.3170  149.1750 C   0  0  0  0  0  2  0  0  0  0  0  0
  160.8890  206.2310  147.9620 C   0  0  0  0  0  2  0  0  0  0  0  0
  162.1440  205.9740  147.1430 C   0  0  0  0  0  2  0  0  0  0  0  0
  161.8490  205.1210  145.9620 C   0  0  0  0  0  0  0  0  0  0  0  0
  161.6930  203.7530  146.1190 O   0  0  0  0  0  1  0  0  0  0  0  0
  161.7570  205.6400  144.8190 O   0  0  0  0  0  0  0  0  0  0  0  0
  2 17  2  0  0  0  0
  3  2  1  0  0  0  0
  3 12  1  0  0  0  0
  4 13  1  1  0  0  0
  4 16  1  0  0  0  0
  5 11  1  0  0  0  0
  6 10  1  0  0  0  0
  7  5  1  0  0  0  0
  8 22  1  6  0  0  0
  8  7  1  0  0  0  0
  8 14  1  0  0  0  0
  9 15  1  1  0  0  0
  9 19  1  0  0  0  0
 10 12  2  0  0  0  0
 11 25  1  6  0  0  0
 11  4  1  0  0  0  0
 14  9  1  0  0  0  0
 15 20  1  0  0  0  0
 16  1  1  0  0  0  0
 18 20  1  0  0  0  0
 18  6  2  0  0  0  0
 19  1  1  1  0  0  0
 19  2  1  0  0  0  0
 20  3  2  0  0  0  0
 21 22  1  0  0  0  0
 23 24  1  0  0  0  0
 24 14  1  0  0  0  0
 26 25  1  0  0  0  0
 27 26  1  0  0  0  0
 28 27  1  0  0  0  0
 29 28  1  0  0  0  0
 30 31  1  0  0  0  0
 30 29  1  0  0  0  0
 32 30  2  0  0  0  0
M  END
>  <MODEL>
5

>  <REMARK>
 VINA RESULT:      -5.0      1.728      2.330
  Name = 
  8 active torsions:
  status: ('A' for Active; 'I' for Inactive)
    1  A    between atoms: C_1  and  C_10
    2  A    between atoms: C_2  and  C_19
    3  A    between atoms: C_2  and  C_24
    4  A    between atoms: C_10  and  C_24
    5  A    between atoms: O_12  and  C_19
    6  A    between atoms: O_12  and  C_21
    7  A    between atoms: C_13  and  C_15
    8  A    between atoms: C_25  and  N_26
                            x       y       z     vdW  Elec       q    Type
                         _______ _______ _______ _____ _____    ______ ____

>  <TORSDO>
F 8

$$$$
=
 OpenBabel11062410573D

 32 34  0  0  1  0  0  0  0  0999 V2000
  160.7200  207.7310  153.9520 O   0  0  0  0  0  0  0  0  0  0  0  0
  160.8880  209.8520  155.0040 C   0  0  0  0  0  0  0  0  0  0  0  0
  159.5820  210.5200  155.1260 C   0  0  0  0  0  0  0  0  0  0  0  0
  161.0780  205.8750  152.5050 C   0  0  1  0  0  3  0  0  0  0  0  0
  160.9060  207.3880  150.5030 C   0  0  0  0  0  2  0  0  0  0  0  0
  157.0820  211.7650  155.3120 C   0  0  0  0  0  3  0  0  0  0  0  0
  162.0110  208.3770  150.1810 C   0  0  0  0  0  2  0  0  0  0  0  0
  161.4980  209.8170  150.2720 C   0  0  1  0  0  3  0  0  0  0  0  0
  160.5770  209.6220  152.4990 C   0  0  2  0  0  3  0  0  0  0  0  0
  157.8230  211.5010  156.4720 C   0  0  0  0  0  3  0  0  0  0  0  0
  161.4980  206.0910  151.0430 C   0  0  2  0  0  3  0  0  0  0  0  0
  159.0720  210.8790  156.3790 C   0  0  0  0  0  3  0  0  0  0  0  0
  161.4540  204.6010  152.9290 O   0  0  0  0  0  1  0  0  0  0  0  0
  161.5940  210.3020  151.6710 N   0  0  0  0  0  0  0  0  0  0  0  0
  159.3330  210.3840  152.6850 N   0  0  0  0  0  2  0  0  0  0  0  0
  161.7180  206.9080  153.4220 C   0  0  0  0  0  2  0  0  0  0  0  0
  161.7200  209.8910  155.9500 O   0  0  0  0  0  0  0  0  0  0  0  0
  157.5880  211.4020  154.0610 C   0  0  0  0  0  3  0  0  0  0  0  0
  161.1870  209.0340  153.7800 C   0  0  2  0  0  3  0  0  0  0  0  0
  158.8360  210.7800  153.9670 C   0  0  0  0  0  0  0  0  0  0  0  0
  161.5570  211.0060  148.1930 O   0  0  0  0  0  1  0  0  0  0  0  0
  162.3300  210.6560  149.3020 C   0  0  0  0  0  2  0  0  0  0  0  0
  160.4120  212.4730  151.1770 C   0  0  0  0  0  1  0  0  0  0  0  0
  161.5960  211.7720  151.8430 C   0  0  0  0  0  2  0  0  0  0  0  0
  161.0430  205.0250  150.2570 O   0  0  0  0  0  0  0  0  0  0  0  0
  160.7330  205.5930  149.0160 C   0  0  0  0  0  2  0  0  0  0  0  0
  161.6330  205.0000  147.9510 C   0  0  0  0  0  2  0  0  0  0  0  0
  161.4530  203.4930  147.8950 C   0  0  0  0  0  2  0  0  0  0  0  0
  161.2020  203.0300  146.4680 C   0  0  0  0  0  2  0  0  0  0  0  0
  160.8340  201.5900  146.4270 C   0  0  0  0  0  0  0  0  0  0  0  0
  160.4360  201.0120  145.2320 O   0  0  0  0  0  0  0  0  0  0  0  0
  160.8700  200.9020  147.4800 O   0  0  0  0  0  1  0  0  0  0  0  0
  2  3  1  0  0  0  0
  2 17  2  0  0  0  0
  3 12  1  0  0  0  0
  4 13  1  1  0  0  0
  4 16  1  0  0  0  0
  5 11  1  0  0  0  0
  6 10  1  0  0  0  0
  7  8  1  0  0  0  0
  7  5  1  0  0  0  0
  8 22  1  6  0  0  0
  8 14  1  0  0  0  0
  9 15  1  1  0  0  0
  9 19  1  0  0  0  0
 11 25  1  6  0  0  0
 11  4  1  0  0  0  0
 12 10  2  0  0  0  0
 14 24  1  0  0  0  0
 14  9  1  0  0  0  0
 15 20  1  0  0  0  0
 16  1  1  0  0  0  0
 18  6  2  0  0  0  0
 19  1  1  1  0  0  0
 19  2  1  0  0  0  0
 20 18  1  0  0  0  0
 20  3  2  0  0  0  0
 21 22  1  0  0  0  0
 23 24  1  0  0  0  0
 26 25  1  0  0  0  0
 27 26  1  0  0  0  0
 28 27  1  0  0  0  0
 29 28  1  0  0  0  0
 30 29  1  0  0  0  0
 30 32  1  0  0  0  0
 31 30  2  0  0  0  0
M  END
>  <MODEL>
6

>  <REMARK>
 VINA RESULT:      -4.9      1.648      1.882
  Name = 
  8 active torsions:
  status: ('A' for Active; 'I' for Inactive)
    1  A    between atoms: C_1  and  C_10
    2  A    between atoms: C_2  and  C_19
    3  A    between atoms: C_2  and  C_24
    4  A    between atoms: C_10  and  C_24
    5  A    between atoms: O_12  and  C_19
    6  A    between atoms: O_12  and  C_21
    7  A    between atoms: C_13  and  C_15
    8  A    between atoms: C_25  and  N_26
                            x       y       z     vdW  Elec       q    Type
                         _______ _______ _______ _____ _____    ______ ____

>  <TORSDO>
F 8

$$$$
=
 OpenBabel11062410573D

 32 34  0  0  1  0  0  0  0  0999 V2000
  161.1330  210.3640  152.0320 O   0  0  0  0  0  0  0  0  0  0  0  0
  160.0610  210.4880  154.1460 C   0  0  0  0  0  0  0  0  0  0  0  0
  160.9960  210.8340  155.2280 C   0  0  0  0  0  0  0  0  0  0  0  0
  161.8680  209.6170  149.8950 C   0  0  1  0  0  3  0  0  0  0  0  0
  162.5820  207.4210  150.8950 C   0  0  0  0  0  2  0  0  0  0  0  0
  162.8160  211.4660  157.2580 C   0  0  0  0  0  3  0  0  0  0  0  0
  161.5510  206.4060  151.3510 C   0  0  0  0  0  2  0  0  0  0  0  0
  161.6450  206.1750  152.8630 C   0  0  1  0  0  3  0  0  0  0  0  0
  161.4960  208.5050  153.4890 C   0  0  2  0  0  3  0  0  0  0  0  0
  161.7130  212.2980  157.0200 C   0  0  0  0  0  3  0  0  0  0  0  0
  162.1080  208.1220  149.6270 C   0  0  2  0  0  3  0  0  0  0  0  0
  160.8040  211.9820  156.0060 C   0  0  0  0  0  3  0  0  0  0  0  0
  161.6280  210.2870  148.6960 O   0  0  0  0  0  1  0  0  0  0  0  0
  160.8340  207.1880  153.5810 N   0  0  0  0  0  0  0  0  0  0  0  0
  162.3290  208.8520  154.6510 N   0  0  0  0  0  2  0  0  0  0  0  0
  160.6800  209.8280  150.8240 C   0  0  0  0  0  2  0  0  0  0  0  0
  158.9080  210.9970  154.1070 O   0  0  0  0  0  0  0  0  0  0  0  0
  163.0120  210.3240  156.4780 C   0  0  0  0  0  3  0  0  0  0  0  0
  160.5230  209.6000  153.0270 C   0  0  2  0  0  3  0  0  0  0  0  0
  162.1050  210.0070  155.4640 C   0  0  0  0  0  0  0  0  0  0  0  0
  161.0090  204.0640  151.9250 O   0  0  0  0  0  1  0  0  0  0  0  0
  161.1720  204.7460  153.1320 C   0  0  0  0  0  2  0  0  0  0  0  0
  159.1250  207.4750  155.4120 C   0  0  0  0  0  1  0  0  0  0  0  0
  160.4370  206.8320  154.9620 C   0  0  0  0  0  2  0  0  0  0  0  0
  163.0840  207.9700  148.6350 O   0  0  0  0  0  0  0  0  0  0  0  0
  162.7300  206.8030  147.9500 C   0  0  0  0  0  2  0  0  0  0  0  0
  161.2910  206.9050  147.4880 C   0  0  0  0  0  2  0  0  0  0  0  0
  160.6010  205.5590  147.6250 C   0  0  0  0  0  2  0  0  0  0  0  0
  161.5680  204.5050  148.1410 C   0  0  0  0  0  2  0  0  0  0  0  0
  161.2070  203.1530  147.6400 C   0  0  0  0  0  0  0  0  0  0  0  0
  161.2110  202.8970  146.2770 O   0  0  0  0  0  0  0  0  0  0  0  0
  160.8830  202.2470  148.4500 O   0  0  0  0  0  1  0  0  0  0  0  0
  2  3  1  0  0  0  0
  3 20  2  0  0  0  0
  3 12  1  0  0  0  0
  4 13  1  6  0  0  0
  4 16  1  0  0  0  0
  5  7  1  0  0  0  0
  7  8  1  0  0  0  0
  8 22  1  6  0  0  0
  8 14  1  0  0  0  0
  9 14  1  0  0  0  0
  9 15  1  1  0  0  0
 10  6  1  0  0  0  0
 11 25  1  6  0  0  0
 11  4  1  0  0  0  0
 11  5  1  0  0  0  0
 12 10  2  0  0  0  0
 14 24  1  0  0  0  0
 15 20  1  0  0  0  0
 16  1  1  0  0  0  0
 17  2  2  0  0  0  0
 18  6  2  0  0  0  0
 19  1  1  6  0  0  0
 19  9  1  0  0  0  0
 19  2  1  0  0  0  0
 20 18  1  0  0  0  0
 21 22  1  0  0  0  0
 24 23  1  0  0  0  0
 26 25  1  0  0  0  0
 27 28  1  0  0  0  0
 27 26  1  0  0  0  0
 28 29  1  0  0  0  0
 30 29  1  0  0  0  0
 30 32  1  0  0  0  0
 31 30  2  0  0  0  0
M  END
>  <MODEL>
7

>  <REMARK>
 VINA RESULT:      -4.8      2.089      4.199
  Name = 
  8 active torsions:
  status: ('A' for Active; 'I' for Inactive)
    1  A    between atoms: C_1  and  C_10
    2  A    between atoms: C_2  and  C_19
    3  A    between atoms: C_2  and  C_24
    4  A    between atoms: C_10  and  C_24
    5  A    between atoms: O_12  and  C_19
    6  A    between atoms: O_12  and  C_21
    7  A    between atoms: C_13  and  C_15
    8  A    between atoms: C_25  and  N_26
                            x       y       z     vdW  Elec       q    Type
                         _______ _______ _______ _____ _____    ______ ____

>  <TORSDO>
F 8

$$$$
=
 OpenBabel11062410573D

 32 34  0  0  1  0  0  0  0  0999 V2000
  160.3560  208.7810  154.5170 O   0  0  0  0  0  0  0  0  0  0  0  0
  159.9940  210.9190  155.4800 C   0  0  0  0  0  0  0  0  0  0  0  0
  158.5690  211.2860  155.5100 C   0  0  0  0  0  0  0  0  0  0  0  0
  161.1950  207.0040  153.1730 C   0  0  1  0  0  3  0  0  0  0  0  0
  160.8100  208.3760  151.0990 C   0  0  0  0  0  2  0  0  0  0  0  0
  155.8510  211.9520  155.5180 C   0  0  0  0  0  3  0  0  0  0  0  0
  161.6880  209.5730  150.7890 C   0  0  0  0  0  2  0  0  0  0  0  0
  160.8670  210.8670  150.7910 C   0  0  1  0  0  3  0  0  0  0  0  0
  159.8850  210.5450  152.9760 C   0  0  2  0  0  3  0  0  0  0  0  0
  156.5630  211.8950  156.7240 C   0  0  0  0  0  3  0  0  0  0  0  0
  161.6400  207.2610  151.7240 C   0  0  2  0  0  3  0  0  0  0  0  0
  157.9220  211.5630  156.7190 C   0  0  0  0  0  3  0  0  0  0  0  0
  161.8160  205.8590  153.6710 O   0  0  0  0  0  1  0  0  0  0  0  0
  160.7740  211.4060  152.1700 N   0  0  0  0  0  0  0  0  0  0  0  0
  158.4960  211.0190  153.0680 N   0  0  0  0  0  2  0  0  0  0  0  0
  161.5390  208.1830  154.0730 C   0  0  0  0  0  2  0  0  0  0  0  0
  160.7420  211.1730  156.4640 O   0  0  0  0  0  0  0  0  0  0  0  0
  156.4940  211.6690  154.3100 C   0  0  0  0  0  3  0  0  0  0  0  0
  160.5350  210.1490  154.3110 C   0  0  2  0  0  3  0  0  0  0  0  0
  157.8510  211.3360  154.3050 C   0  0  0  0  0  0  0  0  0  0  0  0
  162.2120  211.1250  148.8250 O   0  0  0  0  0  1  0  0  0  0  0  0
  161.5490  211.8380  149.8260 C   0  0  0  0  0  2  0  0  0  0  0  0
  159.2810  213.2790  151.3850 C   0  0  0  0  0  1  0  0  0  0  0  0
  160.4440  212.8450  152.2770 C   0  0  0  0  0  2  0  0  0  0  0  0
  161.4750  206.0950  150.9650 O   0  0  0  0  0  0  0  0  0  0  0  0
  161.8600  206.4470  149.6680 C   0  0  0  0  0  2  0  0  0  0  0  0
  161.8560  205.2150  148.7870 C   0  0  0  0  0  2  0  0  0  0  0  0
  160.7810  204.2460  149.2490 C   0  0  0  0  0  2  0  0  0  0  0  0
  160.9620  202.8840  148.5970 C   0  0  0  0  0  2  0  0  0  0  0  0
  160.6590  201.7870  149.5530 C   0  0  0  0  0  0  0  0  0  0  0  0
  159.6020  200.9260  149.3040 O   0  0  0  0  0  0  0  0  0  0  0  0
  161.3520  201.6510  150.5940 O   0  0  0  0  0  1  0  0  0  0  0  0
  2  3  1  0  0  0  0
  2 17  2  0  0  0  0
  3 12  1  0  0  0  0
  4 13  1  1  0  0  0
  4 16  1  0  0  0  0
  5 11  1  0  0  0  0
  6 10  1  0  0  0  0
  7  8  1  0  0  0  0
  7  5  1  0  0  0  0
  8 22  1  6  0  0  0
  8 14  1  0  0  0  0
  9 15  1  1  0  0  0
  9 19  1  0  0  0  0
 11 25  1  6  0  0  0
 11  4  1  0  0  0  0
 12 10  2  0  0  0  0
 14 24  1  0  0  0  0
 14  9  1  0  0  0  0
 15 20  1  0  0  0  0
 16  1  1  0  0  0  0
 18  6  2  0  0  0  0
 19  1  1  1  0  0  0
 19  2  1  0  0  0  0
 20 18  1  0  0  0  0
 20  3  2  0  0  0  0
 21 22  1  0  0  0  0
 23 24  1  0  0  0  0
 26 25  1  0  0  0  0
 27 28  1  0  0  0  0
 27 26  1  0  0  0  0
 29 28  1  0  0  0  0
 29 30  1  0  0  0  0
 30 32  1  0  0  0  0
 31 30  2  0  0  0  0
M  END
>  <MODEL>
8

>  <REMARK>
 VINA RESULT:      -4.2      2.074      2.826
  Name = 
  8 active torsions:
  status: ('A' for Active; 'I' for Inactive)
    1  A    between atoms: C_1  and  C_10
    2  A    between atoms: C_2  and  C_19
    3  A    between atoms: C_2  and  C_24
    4  A    between atoms: C_10  and  C_24
    5  A    between atoms: O_12  and  C_19
    6  A    between atoms: O_12  and  C_21
    7  A    between atoms: C_13  and  C_15
    8  A    between atoms: C_25  and  N_26
                            x       y       z     vdW  Elec       q    Type
                         _______ _______ _______ _____ _____    ______ ____

>  <TORSDO>
F 8

$$$$
=
 OpenBabel11062410573D

 32 34  0  0  1  0  0  0  0  0999 V2000
  162.2750  211.2580  141.7600 O   0  0  0  0  0  0  0  0  0  0  0  0
  162.3430  213.2170  143.0980 C   0  0  0  0  0  0  0  0  0  0  0  0
  161.8680  212.9740  144.4700 C   0  0  0  0  0  0  0  0  0  0  0  0
  161.8690  209.7350  139.9760 C   0  0  1  0  0  3  0  0  0  0  0  0
  159.4350  210.3750  139.9680 C   0  0  0  0  0  2  0  0  0  0  0  0
  160.9300  212.4720  147.0580 C   0  0  0  0  0  3  0  0  0  0  0  0
  158.9930  211.7320  139.4560 C   0  0  0  0  0  2  0  0  0  0  0  0
  158.3480  212.5540  140.5760 C   0  0  1  0  0  3  0  0  0  0  0  0
  160.1710  212.3220  142.1470 C   0  0  2  0  0  3  0  0  0  0  0  0
  162.2300  212.9590  146.8650 C   0  0  0  0  0  3  0  0  0  0  0  0
  160.5920  209.8450  139.1270 C   0  0  2  0  0  3  0  0  0  0  0  0
  162.6980  213.2100  145.5710 C   0  0  0  0  0  3  0  0  0  0  0  0
  162.8640  209.0680  139.2620 O   0  0  0  0  0  1  0  0  0  0  0  0
  159.3940  213.2820  141.3370 N   0  0  0  0  0  0  0  0  0  0  0  0
  159.7260  212.2030  143.5440 N   0  0  0  0  0  2  0  0  0  0  0  0
  162.3860  211.1110  140.3740 C   0  0  0  0  0  2  0  0  0  0  0  0
  163.3490  213.9470  142.8870 O   0  0  0  0  0  0  0  0  0  0  0  0
  160.1020  212.2310  145.9590 C   0  0  0  0  0  3  0  0  0  0  0  0
  161.6830  212.5070  141.9520 C   0  0  2  0  0  3  0  0  0  0  0  0
  160.5690  212.4810  144.6660 C   0  0  0  0  0  0  0  0  0  0  0  0
  156.1560  212.8040  139.6430 O   0  0  0  0  0  1  0  0  0  0  0  0
  157.3360  213.4960  139.9220 C   0  0  0  0  0  2  0  0  0  0  0  0
  157.6600  214.1890  142.9260 C   0  0  0  0  0  1  0  0  0  0  0  0
  158.9270  214.4530  142.1110 C   0  0  0  0  0  2  0  0  0  0  0  0
  160.2450  208.5830  138.6280 O   0  0  0  0  0  0  0  0  0  0  0  0
  158.8540  208.6130  138.4930 C   0  0  0  0  0  2  0  0  0  0  0  0
  158.4930  208.9850  137.0690 C   0  0  0  0  0  2  0  0  0  0  0  0
  157.0680  209.5090  137.0120 C   0  0  0  0  0  2  0  0  0  0  0  0
  156.3860  209.3730  138.3640 C   0  0  0  0  0  2  0  0  0  0  0  0
  154.9250  209.6250  138.2560 C   0  0  0  0  0  0  0  0  0  0  0  0
  154.4660  210.7730  137.6280 O   0  0  0  0  0  0  0  0  0  0  0  0
  154.1080  208.8050  138.7480 O   0  0  0  0  0  1  0  0  0  0  0  0
  2  3  1  0  0  0  0
  3 20  2  0  0  0  0
  3 12  1  0  0  0  0
  4 13  1  6  0  0  0
  4 16  1  0  0  0  0
  7  5  1  0  0  0  0
  7  8  1  0  0  0  0
  8 22  1  6  0  0  0
  8 14  1  0  0  0  0
  9 15  1  1  0  0  0
 10  6  1  0  0  0  0
 11 25  1  1  0  0  0
 11  5  1  0  0  0  0
 11  4  1  0  0  0  0
 12 10  2  0  0  0  0
 14 24  1  0  0  0  0
 14  9  1  0  0  0  0
 15 20  1  0  0  0  0
 16  1  1  0  0  0  0
 17  2  2  0  0  0  0
 18  6  2  0  0  0  0
 19  1  1  1  0  0  0
 19  9  1  0  0  0  0
 19  2  1  0  0  0  0
 20 18  1  0  0  0  0
 21 22  1  0  0  0  0
 24 23  1  0  0  0  0
 26 25  1  0  0  0  0
 27 26  1  0  0  0  0
 28 27  1  0  0  0  0
 28 29  1  0  0  0  0
 30 29  1  0  0  0  0
 30 32  1  0  0  0  0
 31 30  2  0  0  0  0
M  END
>  <MODEL>
9

>  <REMARK>
 VINA RESULT:      -3.2      8.756     11.627
  Name = 
  8 active torsions:
  status: ('A' for Active; 'I' for Inactive)
    1  A    between atoms: C_1  and  C_10
    2  A    between atoms: C_2  and  C_19
    3  A    between atoms: C_2  and  C_24
    4  A    between atoms: C_10  and  C_24
    5  A    between atoms: O_12  and  C_19
    6  A    between atoms: O_12  and  C_21
    7  A    between atoms: C_13  and  C_15
    8  A    between atoms: C_25  and  N_26
                            x       y       z     vdW  Elec       q    Type
                         _______ _______ _______ _____ _____    ______ ____

>  <TORSDO>
F 8

$$$$
