=
 OpenBabel11052422033D

 30 32  0  0  1  0  0  0  0  0999 V2000
  162.4190  208.5490  151.0970 C   0  0  0  0  0  2  0  0  0  0  0  0
  162.1150  207.0410  150.9370 C   0  0  2  0  0  3  0  0  0  0  0  0
  159.5150  209.8960  153.2370 C   0  0  0  0  0  1  0  0  0  0  0  0
  161.2270  203.2760  148.8340 C   0  0  0  0  0  2  0  0  0  0  0  0
  161.6290  204.8160  152.0900 C   0  0  0  0  0  2  0  0  0  0  0  0
  159.8640  206.5510  153.3700 O   0  0  0  0  0  0  0  0  0  0  0  0
  160.9750  206.7350  149.9140 C   0  0  2  0  0  3  0  0  0  0  0  0
  160.4090  204.6320  151.1920 C   0  0  2  0  0  3  0  0  0  0  0  0
  161.0630  202.4460  150.1060 C   0  0  0  0  0  2  0  0  0  0  0  0
  161.1800  209.3630  151.4900 C   0  0  0  0  0  2  0  0  0  0  0  0
  161.3980  208.2960  153.8160 C   0  0  2  0  0  3  0  0  0  0  0  0
  160.9690  209.5280  152.9990 C   0  0  2  0  0  3  0  0  0  0  0  0
  163.2420  206.3160  152.9130 O   0  0  0  0  0  1  0  0  0  0  0  0
  160.9970  206.9810  153.2120 C   0  0  0  0  0  0  0  0  0  0  0  0
  161.9880  206.2940  152.2960 C   0  0  1  0  0  0  0  0  0  0  0  0
  160.0750  203.1470  151.0410 C   0  0  0  0  0  2  0  0  0  0  0  0
  161.7190  204.5530  149.1600 O   0  0  0  0  0  0  0  0  0  0  0  0
  160.6700  205.2370  149.8070 C   0  0  2  0  0  3  0  0  0  0  0  0
  161.1670  207.2840  148.5580 N   0  0  0  0  0  0  0  0  0  0  0  0
  162.5830  207.2750  148.2270 C   0  0  0  0  0  1  0  0  0  0  0  0
  160.4440  206.5340  147.5350 C   0  0  0  0  0  2  0  0  0  0  0  0
  161.2910  206.3520  146.3720 N   0  0  0  0  0  2  0  0  0  0  0  0
  161.1220  205.2310  145.5510 C   0  0  0  0  0  0  0  0  0  0  0  0
  160.9770  204.2650  144.8450 C   0  0  0  0  0  3  0  0  0  0  0  0
  161.3110  208.3710  155.3500 C   0  0  1  0  0  3  0  0  0  0  0  0
  160.5780  210.3910  156.4720 C   0  0  0  0  0  1  0  0  0  0  0  0
  161.7020  209.6980  155.8520 N   0  0  0  0  0  0  0  0  0  0  0  0
  162.7210  209.5190  156.8740 C   0  0  0  0  0  1  0  0  0  0  0  0
  160.3260  206.8820  157.0940 C   0  0  0  0  0  1  0  0  0  0  0  0
  160.0100  207.8200  155.9480 C   0  0  0  0  0  2  0  0  0  0  0  0
  1 10  1  0  0  0  0
  2  1  1  1  0  0  0
  2 15  1  0  0  0  0
  4 17  1  0  0  0  0
  4  9  1  0  0  0  0
  5 15  1  0  0  0  0
  7 19  1  6  0  0  0
  7  2  1  0  0  0  0
  8 16  1  6  0  0  0
  8  5  1  0  0  0  0
  9 16  1  0  0  0  0
 10 12  1  0  0  0  0
 11 25  1  1  0  0  0
 12  3  1  6  0  0  0
 12 11  1  0  0  0  0
 14  6  2  0  0  0  0
 14 11  1  0  0  0  0
 15 13  1  1  0  0  0
 15 14  1  0  0  0  0
 18 17  1  1  0  0  0
 18  7  1  0  0  0  0
 18  8  1  0  0  0  0
 20 19  1  0  0  0  0
 21 19  1  0  0  0  0
 22 21  1  0  0  0  0
 23 22  1  0  0  0  0
 24 23  3  0  0  0  0
 25 27  1  0  0  0  0
 25 30  1  6  0  0  0
 27 26  1  0  0  0  0
 27 28  1  0  0  0  0
 30 29  1  0  0  0  0
M  END
>  <MODEL>
1

>  <REMARK>
 VINA RESULT:      -5.9      0.000      0.000
  Name = 
  7 active torsions:
  status: ('A' for Active; 'I' for Inactive)
    1  A    between atoms: C_6  and  N_8
    2  A    between atoms: C_6  and  N_21
    3  A    between atoms: N_8  and  C_13
    4  A    between atoms: C_9  and  N_21
    5  A    between atoms: N_14  and  C_28
    6  A    between atoms: C_19  and  C_28
    7  A    between atoms: C_28  and  C_29
                            x       y       z     vdW  Elec       q    Type
                         _______ _______ _______ _____ _____    ______ ____

>  <TORSDO>
F 7

$$$$
=
 OpenBabel11052422033D

 30 32  0  0  1  0  0  0  0  0999 V2000
  160.3050  203.9910  150.7320 C   0  0  0  0  0  2  0  0  0  0  0  0
  160.5100  204.4000  149.2550 C   0  0  2  0  0  3  0  0  0  0  0  0
  163.4560  205.2740  152.5350 C   0  0  0  0  0  1  0  0  0  0  0  0
  161.0000  203.8440  144.9160 C   0  0  0  0  0  2  0  0  0  0  0  0
  160.9730  206.2830  147.5950 C   0  0  0  0  0  2  0  0  0  0  0  0
  162.9370  206.6940  149.5280 O   0  0  0  0  0  0  0  0  0  0  0  0
  161.5360  203.5040  148.4910 C   0  0  2  0  0  3  0  0  0  0  0  0
  162.0970  205.4510  146.9840 C   0  0  2  0  0  3  0  0  0  0  0  0
  161.2300  205.3230  144.6140 C   0  0  0  0  0  2  0  0  0  0  0  0
  161.6160  203.9670  151.5270 C   0  0  0  0  0  2  0  0  0  0  0  0
  161.5470  206.5330  151.4360 C   0  0  2  0  0  3  0  0  0  0  0  0
  161.9690  205.2840  152.2280 C   0  0  2  0  0  3  0  0  0  0  0  0
  159.5240  206.5680  149.4250 O   0  0  0  0  0  1  0  0  0  0  0  0
  161.8190  206.4530  149.9610 C   0  0  0  0  0  0  0  0  0  0  0  0
  160.7150  205.9310  149.0660 C   0  0  1  0  0  0  0  0  0  0  0  0
  162.3330  205.8580  145.5290 C   0  0  0  0  0  2  0  0  0  0  0  0
  160.6090  203.6860  146.2570 O   0  0  0  0  0  0  0  0  0  0  0  0
  161.7480  203.9590  147.0440 C   0  0  2  0  0  3  0  0  0  0  0  0
  161.2560  202.0550  148.5050 N   0  0  0  0  0  0  0  0  0  0  0  0
  159.9110  201.8260  149.0100 C   0  0  0  0  0  1  0  0  0  0  0  0
  161.3680  201.4440  147.1830 C   0  0  0  0  0  2  0  0  0  0  0  0
  161.6490  200.0280  147.3220 N   0  0  0  0  0  2  0  0  0  0  0  0
  161.4660  199.1680  146.2330 C   0  0  0  0  0  0  0  0  0  0  0  0
  161.3080  198.4280  145.2940 C   0  0  0  0  0  3  0  0  0  0  0  0
  161.7730  207.9140  152.0750 C   0  0  1  0  0  3  0  0  0  0  0  0
  160.3240  209.8540  152.2020 C   0  0  0  0  0  1  0  0  0  0  0  0
  161.0910  208.9790  151.3220 N   0  0  0  0  0  0  0  0  0  0  0  0
  162.1000  209.7960  150.6670 C   0  0  0  0  0  1  0  0  0  0  0  0
  160.5660  206.8920  154.0050 C   0  0  0  0  0  1  0  0  0  0  0  0
  161.5530  207.9640  153.5920 C   0  0  0  0  0  2  0  0  0  0  0  0
  1 10  1  0  0  0  0
  2  1  1  1  0  0  0
  4 17  1  0  0  0  0
  5 15  1  0  0  0  0
  6 14  2  0  0  0  0
  7 19  1  6  0  0  0
  7  2  1  0  0  0  0
  8 16  1  6  0  0  0
  8 18  1  0  0  0  0
  8  5  1  0  0  0  0
  9  4  1  0  0  0  0
  9 16  1  0  0  0  0
 10 12  1  0  0  0  0
 11 25  1  1  0  0  0
 11 12  1  0  0  0  0
 12  3  1  6  0  0  0
 14 11  1  0  0  0  0
 15  2  1  0  0  0  0
 15 13  1  1  0  0  0
 15 14  1  0  0  0  0
 18 17  1  6  0  0  0
 18  7  1  0  0  0  0
 19 20  1  0  0  0  0
 21 22  1  0  0  0  0
 21 19  1  0  0  0  0
 23 22  1  0  0  0  0
 24 23  3  0  0  0  0
 25 30  1  1  0  0  0
 27 25  1  0  0  0  0
 27 26  1  0  0  0  0
 28 27  1  0  0  0  0
 30 29  1  0  0  0  0
M  END
>  <MODEL>
2

>  <REMARK>
 VINA RESULT:      -5.1      2.532      4.808
  Name = 
  7 active torsions:
  status: ('A' for Active; 'I' for Inactive)
    1  A    between atoms: C_6  and  N_8
    2  A    between atoms: C_6  and  N_21
    3  A    between atoms: N_8  and  C_13
    4  A    between atoms: C_9  and  N_21
    5  A    between atoms: N_14  and  C_28
    6  A    between atoms: C_19  and  C_28
    7  A    between atoms: C_28  and  C_29
                            x       y       z     vdW  Elec       q    Type
                         _______ _______ _______ _____ _____    ______ ____

>  <TORSDO>
F 7

$$$$
=
 OpenBabel11052422033D

 30 32  0  0  1  0  0  0  0  0999 V2000
  162.4460  208.7900  150.8570 C   0  0  0  0  0  2  0  0  0  0  0  0
  162.1130  207.2800  150.8590 C   0  0  2  0  0  3  0  0  0  0  0  0
  159.5130  210.4290  152.7380 C   0  0  0  0  0  1  0  0  0  0  0  0
  161.2000  203.3190  149.1690 C   0  0  0  0  0  2  0  0  0  0  0  0
  161.5410  205.2110  152.2410 C   0  0  0  0  0  2  0  0  0  0  0  0
  159.7800  207.1150  153.2590 O   0  0  0  0  0  0  0  0  0  0  0  0
  160.9960  206.8820  149.8410 C   0  0  2  0  0  3  0  0  0  0  0  0
  160.3450  204.9490  151.3300 C   0  0  2  0  0  3  0  0  0  0  0  0
  160.9800  202.6420  150.5200 C   0  0  0  0  0  2  0  0  0  0  0  0
  161.2160  209.6680  151.1150 C   0  0  0  0  0  2  0  0  0  0  0  0
  161.3400  208.8690  153.5540 C   0  0  2  0  0  3  0  0  0  0  0  0
  160.9640  210.0070  152.5900 C   0  0  2  0  0  3  0  0  0  0  0  0
  163.1640  206.7630  152.9400 O   0  0  0  0  0  1  0  0  0  0  0  0
  160.9270  207.5010  153.0890 C   0  0  0  0  0  0  0  0  0  0  0  0
  161.9290  206.6950  152.2890 C   0  0  1  0  0  0  0  0  0  0  0  0
  159.9820  203.4640  151.3380 C   0  0  0  0  0  2  0  0  0  0  0  0
  161.7120  204.6140  149.3630 O   0  0  0  0  0  0  0  0  0  0  0  0
  160.6610  205.3880  149.8960 C   0  0  2  0  0  3  0  0  0  0  0  0
  161.2410  207.2700  148.4390 N   0  0  0  0  0  0  0  0  0  0  0  0
  162.6600  207.1520  148.1430 C   0  0  0  0  0  1  0  0  0  0  0  0
  160.4970  206.4510  147.4870 C   0  0  0  0  0  2  0  0  0  0  0  0
  161.3330  206.1520  146.3390 N   0  0  0  0  0  2  0  0  0  0  0  0
  161.3390  204.8640  145.7930 C   0  0  0  0  0  0  0  0  0  0  0  0
  161.3440  203.7540  145.3230 C   0  0  0  0  0  3  0  0  0  0  0  0
  161.2100  209.1190  155.0660 C   0  0  1  0  0  3  0  0  0  0  0  0
  162.2560  208.0850  156.9930 C   0  0  0  0  0  1  0  0  0  0  0  0
  161.3870  207.8800  155.8390 N   0  0  0  0  0  0  0  0  0  0  0  0
  160.0870  207.4630  156.3410 C   0  0  0  0  0  1  0  0  0  0  0  0
  161.0650  211.4050  156.0580 C   0  0  0  0  0  1  0  0  0  0  0  0
  162.0110  210.3190  155.5890 C   0  0  0  0  0  2  0  0  0  0  0  0
  1 10  1  0  0  0  0
  2  1  1  1  0  0  0
  2 15  1  0  0  0  0
  4 17  1  0  0  0  0
  4  9  1  0  0  0  0
  5 15  1  0  0  0  0
  7 19  1  6  0  0  0
  7 18  1  0  0  0  0
  7  2  1  0  0  0  0
  8 16  1  6  0  0  0
  8  5  1  0  0  0  0
  9 16  1  0  0  0  0
 10 12  1  0  0  0  0
 11 25  1  1  0  0  0
 12  3  1  6  0  0  0
 12 11  1  0  0  0  0
 14  6  2  0  0  0  0
 14 11  1  0  0  0  0
 15 13  1  1  0  0  0
 15 14  1  0  0  0  0
 18 17  1  1  0  0  0
 18  8  1  0  0  0  0
 20 19  1  0  0  0  0
 21 19  1  0  0  0  0
 22 21  1  0  0  0  0
 23 22  1  0  0  0  0
 24 23  3  0  0  0  0
 25 30  1  1  0  0  0
 25 27  1  0  0  0  0
 27 28  1  0  0  0  0
 27 26  1  0  0  0  0
 30 29  1  0  0  0  0
M  END
>  <MODEL>
3

>  <REMARK>
 VINA RESULT:      -4.9      0.719      1.426
  Name = 
  7 active torsions:
  status: ('A' for Active; 'I' for Inactive)
    1  A    between atoms: C_6  and  N_8
    2  A    between atoms: C_6  and  N_21
    3  A    between atoms: N_8  and  C_13
    4  A    between atoms: C_9  and  N_21
    5  A    between atoms: N_14  and  C_28
    6  A    between atoms: C_19  and  C_28
    7  A    between atoms: C_28  and  C_29
                            x       y       z     vdW  Elec       q    Type
                         _______ _______ _______ _____ _____    ______ ____

>  <TORSDO>
F 7

$$$$
=
 OpenBabel11052422033D

 30 32  0  0  1  0  0  0  0  0999 V2000
  160.4100  206.8930  148.1160 C   0  0  0  0  0  2  0  0  0  0  0  0
  160.5040  206.7850  149.6550 C   0  0  2  0  0  3  0  0  0  0  0  0
  163.3400  204.7590  146.8160 C   0  0  0  0  0  1  0  0  0  0  0  0
  160.9720  208.1780  153.8050 C   0  0  0  0  0  2  0  0  0  0  0  0
  160.5960  205.2550  151.6960 C   0  0  0  0  0  2  0  0  0  0  0  0
  162.5090  204.1240  150.0160 O   0  0  0  0  0  0  0  0  0  0  0  0
  161.6490  207.6470  150.2770 C   0  0  2  0  0  3  0  0  0  0  0  0
  161.8300  206.0070  152.1890 C   0  0  2  0  0  3  0  0  0  0  0  0
  160.9370  206.7810  154.4220 C   0  0  0  0  0  2  0  0  0  0  0  0
  161.7250  206.5330  147.4150 C   0  0  0  0  0  2  0  0  0  0  0  0
  161.2160  204.0920  148.0350 C   0  0  2  0  0  3  0  0  0  0  0  0
  161.8650  205.0560  147.0270 C   0  0  2  0  0  3  0  0  0  0  0  0
  159.1670  204.8200  149.8810 O   0  0  0  0  0  1  0  0  0  0  0  0
  161.4610  204.4440  149.4740 C   0  0  0  0  0  0  0  0  0  0  0  0
  160.4390  205.3180  150.1710 C   0  0  1  0  0  0  0  0  0  0  0  0
  161.9560  205.8900  153.7080 C   0  0  0  0  0  2  0  0  0  0  0  0
  160.6480  208.1030  152.4390 O   0  0  0  0  0  0  0  0  0  0  0  0
  161.7430  207.4870  151.7980 C   0  0  2  0  0  3  0  0  0  0  0  0
  161.6210  209.0840  149.9450 N   0  0  0  0  0  0  0  0  0  0  0  0
  162.3400  209.8320  150.9640 C   0  0  0  0  0  1  0  0  0  0  0  0
  162.2160  209.3770  148.6440 C   0  0  0  0  0  2  0  0  0  0  0  0
  162.4360  210.8050  148.5170 N   0  0  0  0  0  2  0  0  0  0  0  0
  161.4810  211.6080  147.8840 C   0  0  0  0  0  0  0  0  0  0  0  0
  160.6570  212.3000  147.3390 C   0  0  0  0  0  3  0  0  0  0  0  0
  161.2190  202.5880  147.7130 C   0  0  1  0  0  3  0  0  0  0  0  0
  159.7070  201.5460  149.2960 C   0  0  0  0  0  1  0  0  0  0  0  0
  161.1020  201.7720  148.9320 N   0  0  0  0  0  0  0  0  0  0  0  0
  161.7000  200.4730  148.6720 C   0  0  0  0  0  1  0  0  0  0  0  0
  160.8660  202.5960  145.2420 C   0  0  0  0  0  1  0  0  0  0  0  0
  160.2790  202.1740  146.5730 C   0  0  0  0  0  2  0  0  0  0  0  0
  2  1  1  6  0  0  0
  2 15  1  0  0  0  0
  2  7  1  0  0  0  0
  4  9  1  0  0  0  0
  7 19  1  1  0  0  0
  7 18  1  0  0  0  0
  8  5  1  1  0  0  0
  8 16  1  0  0  0  0
 10  1  1  0  0  0  0
 11 25  1  6  0  0  0
 11 14  1  0  0  0  0
 12  3  1  1  0  0  0
 12 10  1  0  0  0  0
 12 11  1  0  0  0  0
 14  6  2  0  0  0  0
 14 15  1  0  0  0  0
 15 13  1  6  0  0  0
 15  5  1  0  0  0  0
 16  9  1  0  0  0  0
 17  4  1  0  0  0  0
 18  8  1  0  0  0  0
 18 17  1  1  0  0  0
 19 20  1  0  0  0  0
 21 19  1  0  0  0  0
 22 21  1  0  0  0  0
 23 22  1  0  0  0  0
 24 23  3  0  0  0  0
 25 30  1  6  0  0  0
 25 27  1  0  0  0  0
 27 26  1  0  0  0  0
 28 27  1  0  0  0  0
 29 30  1  0  0  0  0
M  END
>  <MODEL>
4

>  <REMARK>
 VINA RESULT:      -4.4      2.260      6.830
  Name = 
  7 active torsions:
  status: ('A' for Active; 'I' for Inactive)
    1  A    between atoms: C_6  and  N_8
    2  A    between atoms: C_6  and  N_21
    3  A    between atoms: N_8  and  C_13
    4  A    between atoms: C_9  and  N_21
    5  A    between atoms: N_14  and  C_28
    6  A    between atoms: C_19  and  C_28
    7  A    between atoms: C_28  and  C_29
                            x       y       z     vdW  Elec       q    Type
                         _______ _______ _______ _____ _____    ______ ____

>  <TORSDO>
F 7

$$$$
=
 OpenBabel11052422033D

 30 32  0  0  1  0  0  0  0  0999 V2000
  160.1530  207.3080  153.8720 C   0  0  0  0  0  2  0  0  0  0  0  0
  160.5550  208.1850  152.6640 C   0  0  2  0  0  3  0  0  0  0  0  0
  162.3180  208.6120  156.7760 C   0  0  0  0  0  1  0  0  0  0  0  0
  162.1390  209.1080  148.6610 C   0  0  0  0  0  2  0  0  0  0  0  0
  160.8160  210.5410  151.7150 C   0  0  0  0  0  2  0  0  0  0  0  0
  162.0970  210.7440  154.1810 O   0  0  0  0  0  0  0  0  0  0  0  0
  161.9390  207.8070  152.0460 C   0  0  2  0  0  3  0  0  0  0  0  0
  162.2380  210.1950  151.2820 C   0  0  2  0  0  3  0  0  0  0  0  0
  161.9950  210.6220  148.8030 C   0  0  0  0  0  2  0  0  0  0  0  0
  161.2040  207.3190  154.9880 C   0  0  0  0  0  2  0  0  0  0  0  0
  160.4230  209.7130  155.4980 C   0  0  2  0  0  3  0  0  0  0  0  0
  160.9980  208.4000  156.0560 C   0  0  2  0  0  3  0  0  0  0  0  0
  158.9770  209.9350  153.0490 O   0  0  0  0  0  1  0  0  0  0  0  0
  161.0290  210.1500  154.1950 C   0  0  0  0  0  0  0  0  0  0  0  0
  160.3490  209.7070  152.9160 C   0  0  1  0  0  0  0  0  0  0  0  0
  162.6660  211.0710  150.1040 C   0  0  0  0  0  2  0  0  0  0  0  0
  161.5200  208.4670  149.7490 O   0  0  0  0  0  0  0  0  0  0  0  0
  162.3280  208.7190  150.8770 C   0  0  2  0  0  3  0  0  0  0  0  0
  162.0900  206.4000  151.6280 N   0  0  0  0  0  0  0  0  0  0  0  0
  162.7190  205.6410  152.6980 C   0  0  0  0  0  1  0  0  0  0  0  0
  160.8170  205.7680  151.2940 C   0  0  0  0  0  2  0  0  0  0  0  0
  161.0360  204.3720  150.9630 N   0  0  0  0  0  2  0  0  0  0  0  0
  161.1270  203.9760  149.6240 C   0  0  0  0  0  0  0  0  0  0  0  0
  161.2060  203.6340  148.4710 C   0  0  0  0  0  3  0  0  0  0  0  0
  160.0950  210.8460  156.4860 C   0  0  1  0  0  3  0  0  0  0  0  0
  160.0010  213.2420  156.1310 C   0  0  0  0  0  1  0  0  0  0  0  0
  160.8620  212.0660  156.1870 N   0  0  0  0  0  0  0  0  0  0  0  0
  161.8210  212.2780  157.2600 C   0  0  0  0  0  1  0  0  0  0  0  0
  157.8330  210.8800  155.4320 C   0  0  0  0  0  1  0  0  0  0  0  0
  158.5970  211.0750  156.7250 C   0  0  0  0  0  2  0  0  0  0  0  0
  1 10  1  0  0  0  0
  2 15  1  0  0  0  0
  2  1  1  1  0  0  0
  4  9  1  0  0  0  0
  4 17  1  0  0  0  0
  5 15  1  0  0  0  0
  6 14  2  0  0  0  0
  7 19  1  6  0  0  0
  7  2  1  0  0  0  0
  8 16  1  6  0  0  0
  8  5  1  0  0  0  0
  9 16  1  0  0  0  0
 10 12  1  0  0  0  0
 11 12  1  0  0  0  0
 11 25  1  1  0  0  0
 12  3  1  6  0  0  0
 14 11  1  0  0  0  0
 15 13  1  1  0  0  0
 15 14  1  0  0  0  0
 18 17  1  6  0  0  0
 18  8  1  0  0  0  0
 18  7  1  0  0  0  0
 19 20  1  0  0  0  0
 21 19  1  0  0  0  0
 22 21  1  0  0  0  0
 23 22  1  0  0  0  0
 24 23  3  0  0  0  0
 25 30  1  6  0  0  0
 26 27  1  0  0  0  0
 27 25  1  0  0  0  0
 27 28  1  0  0  0  0
 29 30  1  0  0  0  0
M  END
>  <MODEL>
5

>  <REMARK>
 VINA RESULT:      -4.0      2.294      4.521
  Name = 
  7 active torsions:
  status: ('A' for Active; 'I' for Inactive)
    1  A    between atoms: C_6  and  N_8
    2  A    between atoms: C_6  and  N_21
    3  A    between atoms: N_8  and  C_13
    4  A    between atoms: C_9  and  N_21
    5  A    between atoms: N_14  and  C_28
    6  A    between atoms: C_19  and  C_28
    7  A    between atoms: C_28  and  C_29
                            x       y       z     vdW  Elec       q    Type
                         _______ _______ _______ _____ _____    ______ ____

>  <TORSDO>
F 7

$$$$
=
 OpenBabel11052422033D

 30 32  0  0  1  0  0  0  0  0999 V2000
  162.7060  208.5070  151.2520 C   0  0  0  0  0  2  0  0  0  0  0  0
  162.3230  207.0250  151.0360 C   0  0  2  0  0  3  0  0  0  0  0  0
  159.7160  210.0090  153.1570 C   0  0  0  0  0  1  0  0  0  0  0  0
  161.3870  203.3550  148.7900 C   0  0  0  0  0  2  0  0  0  0  0  0
  161.5970  204.8200  152.0980 C   0  0  0  0  0  2  0  0  0  0  0  0
  159.8390  206.6470  153.2540 O   0  0  0  0  0  0  0  0  0  0  0  0
  161.2600  206.8070  149.9120 C   0  0  2  0  0  3  0  0  0  0  0  0
  160.4520  204.7270  151.0940 C   0  0  2  0  0  3  0  0  0  0  0  0
  161.0600  202.5190  150.0260 C   0  0  0  0  0  2  0  0  0  0  0  0
  161.4920  209.3940  151.5510 C   0  0  0  0  0  2  0  0  0  0  0  0
  161.4350  208.2830  153.8670 C   0  0  2  0  0  3  0  0  0  0  0  0
  161.1590  209.5500  153.0400 C   0  0  2  0  0  3  0  0  0  0  0  0
  163.2230  206.2000  153.0890 O   0  0  0  0  0  1  0  0  0  0  0  0
  161.0070  207.0050  153.2030 C   0  0  0  0  0  0  0  0  0  0  0  0
  162.0300  206.2670  152.3640 C   0  0  1  0  0  0  0  0  0  0  0  0
  160.0400  203.2690  150.8850 C   0  0  0  0  0  2  0  0  0  0  0  0
  161.9290  204.5930  149.1820 O   0  0  0  0  0  0  0  0  0  0  0  0
  160.8720  205.3340  149.7500 C   0  0  2  0  0  3  0  0  0  0  0  0
  161.6060  207.3620  148.5890 N   0  0  0  0  0  0  0  0  0  0  0  0
  160.9570  206.5790  147.5490 C   0  0  0  0  0  1  0  0  0  0  0  0
  161.2060  208.7590  148.4380 C   0  0  0  0  0  2  0  0  0  0  0  0
  162.3830  209.5880  148.2600 N   0  0  0  0  0  2  0  0  0  0  0  0
  162.3000  210.9720  148.4500 C   0  0  0  0  0  0  0  0  0  0  0  0
  162.2290  212.1640  148.6140 C   0  0  0  0  0  3  0  0  0  0  0  0
  161.2180  208.3410  155.3880 C   0  0  1  0  0  3  0  0  0  0  0  0
  160.4210  210.2710  156.6200 C   0  0  0  0  0  1  0  0  0  0  0  0
  161.5570  209.6650  155.9350 N   0  0  0  0  0  0  0  0  0  0  0  0
  162.6180  209.4980  156.9150 C   0  0  0  0  0  1  0  0  0  0  0  0
  160.0810  206.9440  157.1160 C   0  0  0  0  0  1  0  0  0  0  0  0
  159.8750  207.7770  155.8680 C   0  0  0  0  0  2  0  0  0  0  0  0
  1 10  1  0  0  0  0
  2  1  1  1  0  0  0
  2 15  1  0  0  0  0
  4 17  1  0  0  0  0
  4  9  1  0  0  0  0
  5 15  1  0  0  0  0
  7 19  1  6  0  0  0
  7  2  1  0  0  0  0
  8 16  1  6  0  0  0
  8  5  1  0  0  0  0
  9 16  1  0  0  0  0
 10 12  1  0  0  0  0
 11 25  1  1  0  0  0
 12  3  1  6  0  0  0
 12 11  1  0  0  0  0
 14  6  2  0  0  0  0
 14 11  1  0  0  0  0
 15 13  1  1  0  0  0
 15 14  1  0  0  0  0
 18 17  1  1  0  0  0
 18  7  1  0  0  0  0
 18  8  1  0  0  0  0
 20 19  1  0  0  0  0
 21 19  1  0  0  0  0
 22 21  1  0  0  0  0
 22 23  1  0  0  0  0
 23 24  3  0  0  0  0
 25 30  1  6  0  0  0
 25 27  1  0  0  0  0
 27 26  1  0  0  0  0
 27 28  1  0  0  0  0
 30 29  1  0  0  0  0
M  END
>  <MODEL>
6

>  <REMARK>
 VINA RESULT:      -3.9      1.191      2.215
  Name = 
  7 active torsions:
  status: ('A' for Active; 'I' for Inactive)
    1  A    between atoms: C_6  and  N_8
    2  A    between atoms: C_6  and  N_21
    3  A    between atoms: N_8  and  C_13
    4  A    between atoms: C_9  and  N_21
    5  A    between atoms: N_14  and  C_28
    6  A    between atoms: C_19  and  C_28
    7  A    between atoms: C_28  and  C_29
                            x       y       z     vdW  Elec       q    Type
                         _______ _______ _______ _____ _____    ______ ____

>  <TORSDO>
F 7

$$$$
=
 OpenBabel11052422033D

 30 32  0  0  1  0  0  0  0  0999 V2000
  162.1800  205.0860  152.7090 C   0  0  0  0  0  2  0  0  0  0  0  0
  161.9710  206.6130  152.5940 C   0  0  2  0  0  3  0  0  0  0  0  0
  159.3430  203.5610  150.5990 C   0  0  0  0  0  1  0  0  0  0  0  0
  161.2030  210.7240  153.9690 C   0  0  0  0  0  2  0  0  0  0  0  0
  161.7190  208.6340  151.0540 C   0  0  0  0  0  2  0  0  0  0  0  0
  159.9300  206.8090  149.9430 O   0  0  0  0  0  0  0  0  0  0  0  0
  160.7880  207.1530  153.4590 C   0  0  2  0  0  3  0  0  0  0  0  0
  160.4560  209.0370  151.8110 C   0  0  2  0  0  3  0  0  0  0  0  0
  161.1850  211.3350  152.5690 C   0  0  0  0  0  2  0  0  0  0  0  0
  160.9180  204.2870  152.3600 C   0  0  0  0  0  2  0  0  0  0  0  0
  161.3670  204.9300  149.9130 C   0  0  2  0  0  3  0  0  0  0  0  0
  160.7990  203.8820  150.8860 C   0  0  2  0  0  3  0  0  0  0  0  0
  163.2770  206.9270  150.6190 O   0  0  0  0  0  1  0  0  0  0  0  0
  161.0170  206.3490  150.2590 C   0  0  0  0  0  0  0  0  0  0  0  0
  161.9890  207.1250  151.1240 C   0  0  1  0  0  0  0  0  0  0  0  0
  160.2170  210.5420  151.6870 C   0  0  0  0  0  2  0  0  0  0  0  0
  161.6280  209.3850  153.8990 O   0  0  0  0  0  0  0  0  0  0  0  0
  160.5810  208.6620  153.2920 C   0  0  2  0  0  3  0  0  0  0  0  0
  160.8490  206.8310  154.8980 N   0  0  0  0  0  0  0  0  0  0  0  0
  162.0580  207.3990  155.4710 C   0  0  0  0  0  1  0  0  0  0  0  0
  159.6980  207.3380  155.6410 C   0  0  0  0  0  2  0  0  0  0  0  0
  160.1480  207.9750  156.8640 N   0  0  0  0  0  2  0  0  0  0  0  0
  159.9270  209.3420  157.0640 C   0  0  0  0  0  0  0  0  0  0  0  0
  159.7350  210.5200  157.2370 C   0  0  0  0  0  3  0  0  0  0  0  0
  161.3800  204.6010  148.4110 C   0  0  1  0  0  3  0  0  0  0  0  0
  163.0430  205.2360  146.7660 C   0  0  0  0  0  1  0  0  0  0  0  0
  161.9550  205.7000  147.6190 N   0  0  0  0  0  0  0  0  0  0  0  0
  160.9160  206.2310  146.7510 C   0  0  0  0  0  1  0  0  0  0  0  0
  160.8280  202.3670  147.4430 C   0  0  0  0  0  1  0  0  0  0  0  0
  161.9250  203.2090  148.0630 C   0  0  0  0  0  2  0  0  0  0  0  0
  2  1  1  6  0  0  0
  2  7  1  0  0  0  0
  5 15  1  0  0  0  0
  6 14  2  0  0  0  0
  7 19  1  1  0  0  0
  8  5  1  6  0  0  0
  8 18  1  0  0  0  0
  9  4  1  0  0  0  0
 10  1  1  0  0  0  0
 11 25  1  6  0  0  0
 11 14  1  0  0  0  0
 11 12  1  0  0  0  0
 12  3  1  6  0  0  0
 12 10  1  0  0  0  0
 14 15  1  0  0  0  0
 15 13  1  6  0  0  0
 15  2  1  0  0  0  0
 16  8  1  0  0  0  0
 16  9  1  0  0  0  0
 17  4  1  0  0  0  0
 18  7  1  0  0  0  0
 18 17  1  6  0  0  0
 19 20  1  0  0  0  0
 19 21  1  0  0  0  0
 21 22  1  0  0  0  0
 22 23  1  0  0  0  0
 23 24  3  0  0  0  0
 25 30  1  1  0  0  0
 26 27  1  0  0  0  0
 27 25  1  0  0  0  0
 28 27  1  0  0  0  0
 29 30  1  0  0  0  0
M  END
>  <MODEL>
7

>  <REMARK>
 VINA RESULT:      -3.8      1.655      7.600
  Name = 
  7 active torsions:
  status: ('A' for Active; 'I' for Inactive)
    1  A    between atoms: C_6  and  N_8
    2  A    between atoms: C_6  and  N_21
    3  A    between atoms: N_8  and  C_13
    4  A    between atoms: C_9  and  N_21
    5  A    between atoms: N_14  and  C_28
    6  A    between atoms: C_19  and  C_28
    7  A    between atoms: C_28  and  C_29
                            x       y       z     vdW  Elec       q    Type
                         _______ _______ _______ _____ _____    ______ ____

>  <TORSDO>
F 7

$$$$
=
 OpenBabel11052422033D

 30 32  0  0  1  0  0  0  0  0999 V2000
  161.1620  207.3640  147.9280 C   0  0  0  0  0  2  0  0  0  0  0  0
  160.9910  207.1320  149.4460 C   0  0  2  0  0  3  0  0  0  0  0  0
  163.5830  204.5930  146.7930 C   0  0  0  0  0  1  0  0  0  0  0  0
  161.1800  208.0610  153.7460 C   0  0  0  0  0  2  0  0  0  0  0  0
  160.3660  205.5040  151.3110 C   0  0  0  0  0  2  0  0  0  0  0  0
  162.1420  204.0020  149.7770 O   0  0  0  0  0  0  0  0  0  0  0  0
  162.2160  207.5990  150.2960 C   0  0  2  0  0  3  0  0  0  0  0  0
  161.6660  205.8500  152.0320 C   0  0  2  0  0  3  0  0  0  0  0  0
  160.6840  206.6910  154.2030 C   0  0  0  0  0  2  0  0  0  0  0  0
  162.4250  206.7010  147.3660 C   0  0  0  0  0  2  0  0  0  0  0  0
  161.2000  204.4610  147.6560 C   0  0  2  0  0  3  0  0  0  0  0  0
  162.2260  205.2720  146.8450 C   0  0  2  0  0  3  0  0  0  0  0  0
  159.1620  205.6030  149.2930 O   0  0  0  0  0  1  0  0  0  0  0  0
  161.3100  204.6350  149.1430 C   0  0  0  0  0  0  0  0  0  0  0  0
  160.4630  205.7090  149.7940 C   0  0  1  0  0  0  0  0  0  0  0  0
  161.5260  205.6020  153.5340 C   0  0  0  0  0  2  0  0  0  0  0  0
  161.0570  208.1700  152.3490 O   0  0  0  0  0  0  0  0  0  0  0  0
  162.0330  207.3190  151.7910 C   0  0  2  0  0  3  0  0  0  0  0  0
  162.6200  209.0070  150.1160 N   0  0  0  0  0  0  0  0  0  0  0  0
  161.8430  209.6000  149.0380 C   0  0  0  0  0  1  0  0  0  0  0  0
  162.4320  209.8090  151.3210 C   0  0  0  0  0  2  0  0  0  0  0  0
  161.5360  210.9140  151.0400 N   0  0  0  0  0  2  0  0  0  0  0  0
  160.7050  211.4160  152.0470 C   0  0  0  0  0  0  0  0  0  0  0  0
  159.9880  211.8480  152.9150 C   0  0  0  0  0  3  0  0  0  0  0  0
  160.8530  203.0400  147.1810 C   0  0  1  0  0  3  0  0  0  0  0  0
  160.4940  201.6470  145.2290 C   0  0  0  0  0  1  0  0  0  0  0  0
  161.0950  202.8750  145.7390 N   0  0  0  0  0  0  0  0  0  0  0  0
  160.4720  203.9880  145.0400 C   0  0  0  0  0  1  0  0  0  0  0  0
  160.3090  201.3020  148.8880 C   0  0  0  0  0  1  0  0  0  0  0  0
  161.4180  201.9140  148.0560 C   0  0  0  0  0  2  0  0  0  0  0  0
  2  1  1  6  0  0  0
  2 15  1  0  0  0  0
  2  7  1  0  0  0  0
  4  9  1  0  0  0  0
  7 19  1  1  0  0  0
  7 18  1  0  0  0  0
  8  5  1  6  0  0  0
  8 16  1  0  0  0  0
 10  1  1  0  0  0  0
 11 25  1  1  0  0  0
 11 14  1  0  0  0  0
 12  3  1  1  0  0  0
 12 10  1  0  0  0  0
 12 11  1  0  0  0  0
 14  6  2  0  0  0  0
 14 15  1  0  0  0  0
 15 13  1  6  0  0  0
 15  5  1  0  0  0  0
 16  9  1  0  0  0  0
 17  4  1  0  0  0  0
 18  8  1  0  0  0  0
 18 17  1  6  0  0  0
 19 21  1  0  0  0  0
 20 19  1  0  0  0  0
 22 21  1  0  0  0  0
 22 23  1  0  0  0  0
 23 24  3  0  0  0  0
 25 30  1  1  0  0  0
 26 27  1  0  0  0  0
 27 25  1  0  0  0  0
 28 27  1  0  0  0  0
 30 29  1  0  0  0  0
M  END
>  <MODEL>
8

>  <REMARK>
 VINA RESULT:      -3.1      2.113      7.244
  Name = 
  7 active torsions:
  status: ('A' for Active; 'I' for Inactive)
    1  A    between atoms: C_6  and  N_8
    2  A    between atoms: C_6  and  N_21
    3  A    between atoms: N_8  and  C_13
    4  A    between atoms: C_9  and  N_21
    5  A    between atoms: N_14  and  C_28
    6  A    between atoms: C_19  and  C_28
    7  A    between atoms: C_28  and  C_29
                            x       y       z     vdW  Elec       q    Type
                         _______ _______ _______ _____ _____    ______ ____

>  <TORSDO>
F 7

$$$$
=
 OpenBabel11052422033D

 30 32  0  0  1  0  0  0  0  0999 V2000
  162.6600  206.1180  151.3720 C   0  0  0  0  0  2  0  0  0  0  0  0
  162.5930  207.4420  150.5770 C   0  0  2  0  0  3  0  0  0  0  0  0
  159.4710  204.2160  150.3540 C   0  0  0  0  0  1  0  0  0  0  0  0
  162.3940  211.7940  149.9390 C   0  0  0  0  0  2  0  0  0  0  0  0
  162.3760  208.5650  148.2940 C   0  0  0  0  0  2  0  0  0  0  0  0
  160.3020  206.7040  148.2440 O   0  0  0  0  0  0  0  0  0  0  0  0
  161.5710  208.4720  151.1560 C   0  0  2  0  0  3  0  0  0  0  0  0
  161.2500  209.4370  148.8440 C   0  0  2  0  0  3  0  0  0  0  0  0
  162.2830  211.7040  148.4180 C   0  0  0  0  0  2  0  0  0  0  0  0
  161.2940  205.4320  151.4970 C   0  0  0  0  0  2  0  0  0  0  0  0
  161.5330  204.8340  149.0100 C   0  0  2  0  0  3  0  0  0  0  0  0
  160.9740  204.4260  150.3840 C   0  0  2  0  0  3  0  0  0  0  0  0
  163.6990  206.6480  148.6150 O   0  0  0  0  0  1  0  0  0  0  0  0
  161.3670  206.2890  148.6800 C   0  0  0  0  0  0  0  0  0  0  0  0
  162.5000  207.2280  149.0380 C   0  0  1  0  0  0  0  0  0  0  0  0
  161.1500  210.7420  148.0530 C   0  0  0  0  0  2  0  0  0  0  0  0
  162.6730  210.5230  150.4720 O   0  0  0  0  0  0  0  0  0  0  0  0
  161.4980  209.7560  150.3230 C   0  0  2  0  0  3  0  0  0  0  0  0
  161.7570  208.8290  152.5760 N   0  0  0  0  0  0  0  0  0  0  0  0
  161.1770  210.1390  152.8270 C   0  0  0  0  0  1  0  0  0  0  0  0
  161.1470  207.8660  153.4870 C   0  0  0  0  0  2  0  0  0  0  0  0
  160.7930  208.5240  154.7300 N   0  0  0  0  0  2  0  0  0  0  0  0
  160.3800  207.7660  155.8310 C   0  0  0  0  0  0  0  0  0  0  0  0
  160.0250  207.1120  156.7800 C   0  0  0  0  0  3  0  0  0  0  0  0
  161.3480  203.8640  147.8300 C   0  0  1  0  0  3  0  0  0  0  0  0
  163.2680  204.3090  146.4180 C   0  0  0  0  0  1  0  0  0  0  0  0
  161.8230  204.4500  146.5670 N   0  0  0  0  0  0  0  0  0  0  0  0
  161.2000  203.7320  145.4660 C   0  0  0  0  0  1  0  0  0  0  0  0
  160.6430  201.5080  148.2550 C   0  0  0  0  0  1  0  0  0  0  0  0
  161.8320  202.4330  148.0930 C   0  0  0  0  0  2  0  0  0  0  0  0
  1 10  1  0  0  0  0
  2  7  1  0  0  0  0
  2  1  1  1  0  0  0
  4 17  1  0  0  0  0
  5  8  1  0  0  0  0
  5 15  1  0  0  0  0
  6 14  2  0  0  0  0
  7 19  1  1  0  0  0
  8 16  1  6  0  0  0
  8 18  1  0  0  0  0
  9  4  1  0  0  0  0
 11 25  1  6  0  0  0
 11 12  1  0  0  0  0
 12  3  1  6  0  0  0
 12 10  1  0  0  0  0
 14 11  1  0  0  0  0
 14 15  1  0  0  0  0
 15 13  1  6  0  0  0
 15  2  1  0  0  0  0
 16  9  1  0  0  0  0
 18 17  1  6  0  0  0
 18  7  1  0  0  0  0
 19 20  1  0  0  0  0
 19 21  1  0  0  0  0
 21 22  1  0  0  0  0
 22 23  1  0  0  0  0
 23 24  3  0  0  0  0
 25 30  1  1  0  0  0
 26 27  1  0  0  0  0
 27 25  1  0  0  0  0
 28 27  1  0  0  0  0
 30 29  1  0  0  0  0
M  END
>  <MODEL>
9

>  <REMARK>
 VINA RESULT:      -3.1      2.113      7.516
  Name = 
  7 active torsions:
  status: ('A' for Active; 'I' for Inactive)
    1  A    between atoms: C_6  and  N_8
    2  A    between atoms: C_6  and  N_21
    3  A    between atoms: N_8  and  C_13
    4  A    between atoms: C_9  and  N_21
    5  A    between atoms: N_14  and  C_28
    6  A    between atoms: C_19  and  C_28
    7  A    between atoms: C_28  and  C_29
                            x       y       z     vdW  Elec       q    Type
                         _______ _______ _______ _____ _____    ______ ____

>  <TORSDO>
F 7

$$$$
