=
 OpenBabel11052422393D

 31 35  0  0  1  0  0  0  0  0999 V2000
  160.8310  202.1480  150.5450 C   0  0  0  0  0  0  0  0  0  0  0  0
  161.6420  205.3500  148.7290 C   0  0  2  0  0  3  0  0  0  0  0  0
  161.2830  204.9670  147.2880 C   0  0  2  0  0  3  0  0  0  0  0  0
  161.9030  203.3480  145.3720 C   0  0  0  0  0  2  0  0  0  0  0  0
  161.2600  204.3640  149.8050 C   0  0  0  0  0  0  0  0  0  0  0  0
  160.7870  202.5770  151.8740 C   0  0  0  0  0  3  0  0  0  0  0  0
  162.0990  203.7480  146.8380 C   0  0  0  0  0  2  0  0  0  0  0  0
  161.4030  207.1270  150.4620 C   0  0  0  0  0  0  0  0  0  0  0  0
  160.6350  200.7740  150.2350 N   0  0  0  0  0  1  0  0  0  0  0  0
  160.8280  207.3250  146.8890 O   0  0  0  0  0  0  0  0  0  0  0  0
  160.4560  203.4940  144.8860 C   0  0  0  0  0  2  0  0  0  0  0  0
  161.4210  206.2290  151.4090 N   0  0  0  0  0  0  0  0  0  0  0  0
  161.0310  206.7120  149.0600 C   0  0  1  0  0  3  0  0  0  0  0  0
  161.5750  208.5120  150.7750 N   0  0  0  0  0  2  0  0  0  0  0  0
  161.0780  203.0400  149.5460 N   0  0  0  0  0  0  0  0  0  0  0  0
  159.9770  204.9490  144.7440 C   0  0  0  0  0  2  0  0  0  0  0  0
  161.2250  204.8310  151.1320 C   0  0  0  0  0  0  0  0  0  0  0  0
  160.9880  203.9270  152.1680 C   0  0  0  0  0  3  0  0  0  0  0  0
  161.4610  207.6690  148.0460 N   0  0  0  0  0  2  0  0  0  0  0  0
  161.5100  206.2030  146.3730 C   0  0  2  0  0  3  0  0  0  0  0  0
  161.0910  205.9880  144.9100 C   0  0  0  0  0  2  0  0  0  0  0  0
  162.5560  210.2170  152.0380 O   0  0  0  0  0  1  0  0  0  0  0  0
  161.9000  208.9860  152.1140 C   0  0  1  0  0  3  0  0  0  0  0  0
  160.5150  210.6950  155.4800 C   0  0  1  0  0  3  0  0  0  0  0  0
  160.0810  210.5220  153.0420 C   0  0  0  0  0  2  0  0  0  0  0  0
  160.9710  207.2270  154.4250 O   0  0  0  0  0  0  0  0  0  0  0  0
  161.2510  211.4530  156.5640 C   0  0  0  0  0  1  0  0  0  0  0  0
  160.7830  211.3350  154.1250 C   0  0  0  0  0  2  0  0  0  0  0  0
  160.8310  208.4740  154.3200 C   0  0  0  0  0  0  0  0  0  0  0  0
  160.6280  209.0880  152.9600 C   0  0  2  0  0  3  0  0  0  0  0  0
  160.9350  209.2980  155.4840 N   0  0  0  0  0  2  0  0  0  0  0  0
  1  6  1  0  0  0  0
  2 13  1  0  0  0  0
  2  5  1  1  0  0  0
  3  7  1  6  0  0  0
  3  2  1  0  0  0  0
  4  7  1  0  0  0  0
  5 17  2  0  0  0  0
  6 18  2  0  0  0  0
  8 14  1  0  0  0  0
  8 12  2  0  0  0  0
  9  1  1  0  0  0  0
 10 19  1  0  0  0  0
 11  4  1  0  0  0  0
 13 19  1  6  0  0  0
 13  8  1  0  0  0  0
 14 23  1  0  0  0  0
 15  5  1  0  0  0  0
 15  1  2  0  0  0  0
 16 11  1  0  0  0  0
 16 21  1  0  0  0  0
 17 12  1  0  0  0  0
 17 18  1  0  0  0  0
 20 21  1  6  0  0  0
 20 10  1  0  0  0  0
 20  3  1  0  0  0  0
 23 22  1  6  0  0  0
 24 31  1  0  0  0  0
 24 27  1  1  0  0  0
 25 28  1  0  0  0  0
 28 24  1  0  0  0  0
 29 26  2  0  0  0  0
 29 31  1  0  0  0  0
 30 23  1  1  0  0  0
 30 25  1  0  0  0  0
 30 29  1  0  0  0  0
M  END
>  <MODEL>
1

>  <REMARK>
 VINA RESULT:      -9.6      0.000      0.000
  Name = 
  2 active torsions:
  status: ('A' for Active; 'I' for Inactive)
    1  A    between atoms: C_9  and  C_22
    2  A    between atoms: C_9  and  N_23
                            x       y       z     vdW  Elec       q    Type
                         _______ _______ _______ _____ _____    ______ ____

>  <TORSDO>
F 2

$$$$
=
 OpenBabel11052422393D

 31 35  0  0  1  0  0  0  0  0999 V2000
  161.8390  210.5790  149.8840 C   0  0  0  0  0  0  0  0  0  0  0  0
  161.5750  208.2110  152.8050 C   0  0  2  0  0  3  0  0  0  0  0  0
  161.0310  209.1470  153.8910 C   0  0  2  0  0  3  0  0  0  0  0  0
  161.5950  211.2700  155.2510 C   0  0  0  0  0  2  0  0  0  0  0  0
  161.6300  208.7640  151.4020 C   0  0  0  0  0  0  0  0  0  0  0  0
  161.9650  209.6940  148.8090 C   0  0  0  0  0  3  0  0  0  0  0  0
  161.9850  210.3290  154.1060 C   0  0  0  0  0  2  0  0  0  0  0  0
  161.3050  205.9620  151.7610 C   0  0  0  0  0  0  0  0  0  0  0  0
  161.8850  211.9820  149.6580 N   0  0  0  0  0  1  0  0  0  0  0  0
  160.0120  207.1880  154.9170 O   0  0  0  0  0  0  0  0  0  0  0  0
  160.0840  211.5040  155.3650 C   0  0  0  0  0  2  0  0  0  0  0  0
  161.7000  206.4310  150.6080 N   0  0  0  0  0  0  0  0  0  0  0  0
  160.7630  206.9150  152.7970 C   0  0  1  0  0  3  0  0  0  0  0  0
  161.2340  204.5510  151.9820 N   0  0  0  0  0  2  0  0  0  0  0  0
  161.6890  210.1010  151.1490 N   0  0  0  0  0  0  0  0  0  0  0  0
  159.2860  210.2820  155.8530 C   0  0  0  0  0  2  0  0  0  0  0  0
  161.7570  207.8440  150.3440 C   0  0  0  0  0  0  0  0  0  0  0  0
  161.9260  208.3180  149.0440 C   0  0  0  0  0  3  0  0  0  0  0  0
  160.7720  206.3590  154.1460 N   0  0  0  0  0  2  0  0  0  0  0  0
  160.8040  208.3240  155.1900 C   0  0  2  0  0  3  0  0  0  0  0  0
  160.1630  209.1210  156.3360 C   0  0  0  0  0  2  0  0  0  0  0  0
  162.0820  202.3950  151.6610 O   0  0  0  0  0  1  0  0  0  0  0  0
  161.7060  203.5740  151.0100 C   0  0  1  0  0  3  0  0  0  0  0  0
  160.8590  201.1090  147.9470 C   0  0  1  0  0  3  0  0  0  0  0  0
  159.9730  201.9210  150.1190 C   0  0  0  0  0  2  0  0  0  0  0  0
  161.4140  204.7110  148.1960 O   0  0  0  0  0  0  0  0  0  0  0  0
  161.7220  200.0690  147.2640 C   0  0  0  0  0  1  0  0  0  0  0  0
  160.7970  200.8290  149.4420 C   0  0  0  0  0  2  0  0  0  0  0  0
  161.1420  203.5400  148.5700 C   0  0  0  0  0  0  0  0  0  0  0  0
  160.6210  203.3060  149.9620 C   0  0  2  0  0  3  0  0  0  0  0  0
  161.3970  202.4400  147.6910 N   0  0  0  0  0  2  0  0  0  0  0  0
  1 15  1  0  0  0  0
  2  5  1  6  0  0  0
  2  3  1  0  0  0  0
  3  7  1  1  0  0  0
  3 20  1  0  0  0  0
  4 11  1  0  0  0  0
  6 18  1  0  0  0  0
  6  1  2  0  0  0  0
  7  4  1  0  0  0  0
  8 14  1  0  0  0  0
  9  1  1  0  0  0  0
 10 20  1  0  0  0  0
 11 16  1  0  0  0  0
 12  8  2  0  0  0  0
 13  8  1  6  0  0  0
 13  2  1  0  0  0  0
 13 19  1  0  0  0  0
 15  5  2  0  0  0  0
 16 21  1  0  0  0  0
 17 12  1  0  0  0  0
 17  5  1  0  0  0  0
 18 17  2  0  0  0  0
 19 10  1  0  0  0  0
 20 21  1  1  0  0  0
 23 22  1  1  0  0  0
 23 14  1  0  0  0  0
 24 27  1  6  0  0  0
 24 28  1  0  0  0  0
 26 29  2  0  0  0  0
 28 25  1  0  0  0  0
 29 30  1  0  0  0  0
 30 25  1  0  0  0  0
 30 23  1  1  0  0  0
 31 24  1  0  0  0  0
 31 29  1  0  0  0  0
M  END
>  <MODEL>
2

>  <REMARK>
 VINA RESULT:      -9.3      2.398      8.677
  Name = 
  2 active torsions:
  status: ('A' for Active; 'I' for Inactive)
    1  A    between atoms: C_9  and  C_22
    2  A    between atoms: C_9  and  N_23
                            x       y       z     vdW  Elec       q    Type
                         _______ _______ _______ _____ _____    ______ ____

>  <TORSDO>
F 2

$$$$
=
 OpenBabel11052422393D

 31 35  0  0  1  0  0  0  0  0999 V2000
  161.1000  204.9150  151.4950 C   0  0  0  0  0  0  0  0  0  0  0  0
  160.9840  208.5150  152.6050 C   0  0  2  0  0  3  0  0  0  0  0  0
  161.0460  208.3530  154.1280 C   0  0  2  0  0  3  0  0  0  0  0  0
  159.7760  207.3550  156.1460 C   0  0  0  0  0  2  0  0  0  0  0  0
  161.2090  207.2700  151.7830 C   0  0  0  0  0  0  0  0  0  0  0  0
  161.4230  205.0440  150.1400 C   0  0  0  0  0  3  0  0  0  0  0  0
  159.8770  207.4890  154.6230 C   0  0  0  0  0  2  0  0  0  0  0  0
  161.9120  209.7930  150.6750 C   0  0  0  0  0  0  0  0  0  0  0  0
  160.8720  203.6260  152.0510 N   0  0  0  0  0  1  0  0  0  0  0  0
  162.0790  210.5550  154.2140 O   0  0  0  0  0  0  0  0  0  0  0  0
  161.1360  207.2330  156.8420 C   0  0  0  0  0  2  0  0  0  0  0  0
  161.7640  208.7560  149.8960 N   0  0  0  0  0  0  0  0  0  0  0  0
  161.9820  209.5880  152.1680 C   0  0  1  0  0  3  0  0  0  0  0  0
  162.1670  211.0860  150.1180 N   0  0  0  0  0  2  0  0  0  0  0  0
  160.9880  206.0210  152.2790 N   0  0  0  0  0  0  0  0  0  0  0  0
  161.9760  208.5230  156.8280 C   0  0  0  0  0  2  0  0  0  0  0  0
  161.5330  207.4380  150.4240 C   0  0  0  0  0  0  0  0  0  0  0  0
  161.6370  206.3150  149.6030 C   0  0  0  0  0  3  0  0  0  0  0  0
  161.7100  210.8050  152.9260 N   0  0  0  0  0  2  0  0  0  0  0  0
  161.0570  209.7640  154.7800 C   0  0  2  0  0  3  0  0  0  0  0  0
  161.2190  209.7500  156.3080 C   0  0  0  0  0  2  0  0  0  0  0  0
  161.1100  210.6330  148.0820 O   0  0  0  0  0  1  0  0  0  0  0  0
  162.1500  211.3460  148.6850 C   0  0  1  0  0  3  0  0  0  0  0  0
  159.4600  214.0760  147.4670 C   0  0  1  0  0  3  0  0  0  0  0  0
  160.9850  213.5230  149.3450 C   0  0  0  0  0  2  0  0  0  0  0  0
  162.6510  212.9140  146.1180 O   0  0  0  0  0  0  0  0  0  0  0  0
  158.0720  213.8900  146.8920 C   0  0  0  0  0  1  0  0  0  0  0  0
  159.5630  213.3730  148.8130 C   0  0  0  0  0  2  0  0  0  0  0  0
  161.7460  213.1240  146.9680 C   0  0  0  0  0  0  0  0  0  0  0  0
  162.0140  212.8490  148.4240 C   0  0  2  0  0  3  0  0  0  0  0  0
  160.4540  213.5560  146.5330 N   0  0  0  0  0  2  0  0  0  0  0  0
  1  9  1  0  0  0  0
  1 15  1  0  0  0  0
  2  5  1  6  0  0  0
  2  3  1  0  0  0  0
  3  7  1  1  0  0  0
  3 20  1  0  0  0  0
  4 11  1  0  0  0  0
  5 15  2  0  0  0  0
  6  1  2  0  0  0  0
  7  4  1  0  0  0  0
 10 20  1  0  0  0  0
 12 17  1  0  0  0  0
 12  8  2  0  0  0  0
 13  8  1  6  0  0  0
 13  2  1  0  0  0  0
 13 19  1  0  0  0  0
 14  8  1  0  0  0  0
 16 11  1  0  0  0  0
 17  5  1  0  0  0  0
 18  6  1  0  0  0  0
 18 17  2  0  0  0  0
 19 10  1  0  0  0  0
 20 21  1  1  0  0  0
 21 16  1  0  0  0  0
 23 22  1  6  0  0  0
 23 14  1  0  0  0  0
 24 27  1  6  0  0  0
 24 28  1  0  0  0  0
 26 29  2  0  0  0  0
 28 25  1  0  0  0  0
 29 30  1  0  0  0  0
 30 23  1  6  0  0  0
 30 25  1  0  0  0  0
 31 29  1  0  0  0  0
 31 24  1  0  0  0  0
M  END
>  <MODEL>
3

>  <REMARK>
 VINA RESULT:      -7.9      3.533      7.324
  Name = 
  2 active torsions:
  status: ('A' for Active; 'I' for Inactive)
    1  A    between atoms: C_9  and  C_22
    2  A    between atoms: C_9  and  N_23
                            x       y       z     vdW  Elec       q    Type
                         _______ _______ _______ _____ _____    ______ ____

>  <TORSDO>
F 2

$$$$
=
 OpenBabel11052422393D

 31 35  0  0  1  0  0  0  0  0999 V2000
  160.9180  201.8460  150.3560 C   0  0  0  0  0  0  0  0  0  0  0  0
  161.5470  205.3230  149.0440 C   0  0  2  0  0  3  0  0  0  0  0  0
  161.3540  205.1060  147.5390 C   0  0  2  0  0  3  0  0  0  0  0  0
  162.2990  203.8220  145.5060 C   0  0  0  0  0  2  0  0  0  0  0  0
  161.1780  204.1710  149.9460 C   0  0  0  0  0  0  0  0  0  0  0  0
  160.7160  202.0860  151.7180 C   0  0  0  0  0  3  0  0  0  0  0  0
  162.3270  204.0380  147.0220 C   0  0  0  0  0  2  0  0  0  0  0  0
  160.9780  206.8220  150.9550 C   0  0  0  0  0  0  0  0  0  0  0  0
  160.8930  200.5140  149.8580 N   0  0  0  0  0  1  0  0  0  0  0  0
  160.6930  207.4450  147.3960 O   0  0  0  0  0  0  0  0  0  0  0  0
  160.8920  203.9000  144.9010 C   0  0  0  0  0  2  0  0  0  0  0  0
  161.0070  205.8100  151.7790 N   0  0  0  0  0  0  0  0  0  0  0  0
  160.7720  206.5660  149.4820 C   0  0  1  0  0  3  0  0  0  0  0  0
  160.9780  208.1620  151.4540 N   0  0  0  0  0  2  0  0  0  0  0  0
  161.1560  202.8820  149.5070 N   0  0  0  0  0  0  0  0  0  0  0  0
  160.2790  205.3110  144.8960 C   0  0  0  0  0  2  0  0  0  0  0  0
  160.9810  204.4500  151.3110 C   0  0  0  0  0  0  0  0  0  0  0  0
  160.7510  203.3970  152.1970 C   0  0  0  0  0  3  0  0  0  0  0  0
  161.1860  207.6860  148.6430 N   0  0  0  0  0  2  0  0  0  0  0  0
  161.5290  206.4700  146.8120 C   0  0  2  0  0  3  0  0  0  0  0  0
  161.2620  206.4160  145.3000 C   0  0  0  0  0  2  0  0  0  0  0  0
  161.9950  207.5560  153.4700 O   0  0  0  0  0  1  0  0  0  0  0  0
  161.1370  208.4790  152.8670 C   0  0  1  0  0  3  0  0  0  0  0  0
  159.8260  212.2500  153.3550 C   0  0  1  0  0  3  0  0  0  0  0  0
  161.2850  210.5280  154.3870 C   0  0  0  0  0  2  0  0  0  0  0  0
  161.7390  210.5730  150.7340 O   0  0  0  0  0  0  0  0  0  0  0  0
  158.4230  212.8130  153.2820 C   0  0  0  0  0  1  0  0  0  0  0  0
  159.8790  211.1190  154.3730 C   0  0  0  0  0  2  0  0  0  0  0  0
  161.2420  210.7750  151.8720 C   0  0  0  0  0  0  0  0  0  0  0  0
  161.6600  209.9090  153.0310 C   0  0  2  0  0  3  0  0  0  0  0  0
  160.2380  211.7800  152.0370 N   0  0  0  0  0  2  0  0  0  0  0  0
  1  6  1  0  0  0  0
  2 13  1  0  0  0  0
  2  5  1  1  0  0  0
  3  7  1  6  0  0  0
  3  2  1  0  0  0  0
  4  7  1  0  0  0  0
  5 17  2  0  0  0  0
  6 18  2  0  0  0  0
  8 14  1  0  0  0  0
  8 12  2  0  0  0  0
  9  1  1  0  0  0  0
 10 19  1  0  0  0  0
 11  4  1  0  0  0  0
 13 19  1  6  0  0  0
 13  8  1  0  0  0  0
 14 23  1  0  0  0  0
 15  5  1  0  0  0  0
 15  1  2  0  0  0  0
 16 11  1  0  0  0  0
 16 21  1  0  0  0  0
 17 12  1  0  0  0  0
 17 18  1  0  0  0  0
 20 21  1  6  0  0  0
 20 10  1  0  0  0  0
 20  3  1  0  0  0  0
 23 22  1  6  0  0  0
 24 27  1  6  0  0  0
 24 28  1  0  0  0  0
 26 29  2  0  0  0  0
 28 25  1  0  0  0  0
 29 31  1  0  0  0  0
 29 30  1  0  0  0  0
 30 23  1  6  0  0  0
 30 25  1  0  0  0  0
 31 24  1  0  0  0  0
M  END
>  <MODEL>
4

>  <REMARK>
 VINA RESULT:      -7.9      1.179      1.853
  Name = 
  2 active torsions:
  status: ('A' for Active; 'I' for Inactive)
    1  A    between atoms: C_9  and  C_22
    2  A    between atoms: C_9  and  N_23
                            x       y       z     vdW  Elec       q    Type
                         _______ _______ _______ _____ _____    ______ ____

>  <TORSDO>
F 2

$$$$
=
 OpenBabel11052422393D

 31 35  0  0  1  0  0  0  0  0999 V2000
  160.1300  211.8870  154.1200 C   0  0  0  0  0  0  0  0  0  0  0  0
  160.9810  210.3940  150.7670 C   0  0  2  0  0  3  0  0  0  0  0  0
  161.2160  211.6600  149.9340 C   0  0  2  0  0  3  0  0  0  0  0  0
  160.0480  213.7870  149.0480 C   0  0  0  0  0  2  0  0  0  0  0  0
  160.8040  210.5850  152.2520 C   0  0  0  0  0  0  0  0  0  0  0  0
  160.2810  210.7880  154.9700 C   0  0  0  0  0  3  0  0  0  0  0  0
  159.9640  212.5470  149.9440 C   0  0  0  0  0  2  0  0  0  0  0  0
  161.8950  208.1360  151.3040 C   0  0  0  0  0  0  0  0  0  0  0  0
  159.6970  213.1360  154.6450 N   0  0  0  0  0  1  0  0  0  0  0  0
  162.7200  210.3400  148.5470 O   0  0  0  0  0  0  0  0  0  0  0  0
  161.4300  214.4520  149.0500 C   0  0  0  0  0  2  0  0  0  0  0  0
  161.4110  208.2100  152.5140 N   0  0  0  0  0  0  0  0  0  0  0  0
  162.1240  209.4070  150.5240 C   0  0  1  0  0  3  0  0  0  0  0  0
  162.3540  206.8850  150.7830 N   0  0  0  0  0  2  0  0  0  0  0  0
  160.3790  211.7620  152.7880 N   0  0  0  0  0  0  0  0  0  0  0  0
  162.5270  213.6400  148.3410 C   0  0  0  0  0  2  0  0  0  0  0  0
  160.9650  209.4560  153.0780 C   0  0  0  0  0  0  0  0  0  0  0  0
  160.6990  209.5650  154.4420 C   0  0  0  0  0  3  0  0  0  0  0  0
  162.2410  209.1830  149.0870 N   0  0  0  0  0  2  0  0  0  0  0  0
  161.6350  211.2410  148.4970 C   0  0  2  0  0  3  0  0  0  0  0  0
  162.0010  212.4180  147.5800 C   0  0  0  0  0  2  0  0  0  0  0  0
  162.3080  205.8420  152.8750 O   0  0  0  0  0  1  0  0  0  0  0  0
  162.1970  205.6260  151.4990 C   0  0  1  0  0  3  0  0  0  0  0  0
  160.6620  202.2790  149.8820 C   0  0  1  0  0  3  0  0  0  0  0  0
  160.5910  203.6850  151.9260 C   0  0  0  0  0  2  0  0  0  0  0  0
  160.5920  205.8000  148.9120 O   0  0  0  0  0  0  0  0  0  0  0  0
  161.3530  201.1250  149.1860 C   0  0  0  0  0  1  0  0  0  0  0  0
  161.2600  202.4820  151.2670 C   0  0  0  0  0  2  0  0  0  0  0  0
  160.7160  204.7940  149.6580 C   0  0  0  0  0  0  0  0  0  0  0  0
  160.8530  204.9830  151.1460 C   0  0  2  0  0  3  0  0  0  0  0  0
  160.7950  203.4890  149.0780 N   0  0  0  0  0  2  0  0  0  0  0  0
  1  9  1  0  0  0  0
  1  6  1  0  0  0  0
  2  5  1  1  0  0  0
  3  7  1  6  0  0  0
  3  2  1  0  0  0  0
  4 11  1  0  0  0  0
  4  7  1  0  0  0  0
  5 15  1  0  0  0  0
  5 17  2  0  0  0  0
  8 12  2  0  0  0  0
 10 19  1  0  0  0  0
 12 17  1  0  0  0  0
 13 19  1  6  0  0  0
 13  2  1  0  0  0  0
 13  8  1  0  0  0  0
 14  8  1  0  0  0  0
 14 23  1  0  0  0  0
 15  1  2  0  0  0  0
 16 11  1  0  0  0  0
 17 18  1  0  0  0  0
 18  6  2  0  0  0  0
 20 21  1  6  0  0  0
 20 10  1  0  0  0  0
 20  3  1  0  0  0  0
 21 16  1  0  0  0  0
 23 22  1  1  0  0  0
 24 27  1  6  0  0  0
 24 28  1  0  0  0  0
 26 29  2  0  0  0  0
 28 25  1  0  0  0  0
 29 30  1  0  0  0  0
 30 23  1  6  0  0  0
 30 25  1  0  0  0  0
 31 29  1  0  0  0  0
 31 24  1  0  0  0  0
M  END
>  <MODEL>
5

>  <REMARK>
 VINA RESULT:      -7.0      2.877      7.616
  Name = 
  2 active torsions:
  status: ('A' for Active; 'I' for Inactive)
    1  A    between atoms: C_9  and  C_22
    2  A    between atoms: C_9  and  N_23
                            x       y       z     vdW  Elec       q    Type
                         _______ _______ _______ _____ _____    ______ ____

>  <TORSDO>
F 2

$$$$
=
 OpenBabel11052422393D

 31 35  0  0  1  0  0  0  0  0999 V2000
  162.0440  206.5850  147.2230 C   0  0  0  0  0  0  0  0  0  0  0  0
  160.8910  205.3470  150.5900 C   0  0  2  0  0  3  0  0  0  0  0  0
  161.0030  203.8300  150.3970 C   0  0  2  0  0  3  0  0  0  0  0  0
  160.0850  201.8590  149.0020 C   0  0  0  0  0  2  0  0  0  0  0  0
  161.4650  206.2120  149.4960 C   0  0  0  0  0  0  0  0  0  0  0  0
  162.3110  207.9320  147.4890 C   0  0  0  0  0  3  0  0  0  0  0  0
  160.1370  203.3760  149.2140 C   0  0  0  0  0  2  0  0  0  0  0  0
  161.4010  207.2240  152.1520 C   0  0  0  0  0  0  0  0  0  0  0  0
  162.2020  206.0770  145.9040 N   0  0  0  0  0  1  0  0  0  0  0  0
  161.3520  203.6580  152.8010 O   0  0  0  0  0  0  0  0  0  0  0  0
  161.4240  201.1580  149.2550 C   0  0  0  0  0  2  0  0  0  0  0  0
  161.5580  208.0410  151.1460 N   0  0  0  0  0  0  0  0  0  0  0  0
  161.5320  205.7380  151.9220 C   0  0  1  0  0  3  0  0  0  0  0  0
  161.2670  207.7320  153.4830 N   0  0  0  0  0  2  0  0  0  0  0  0
  161.6180  205.7620  148.2190 N   0  0  0  0  0  0  0  0  0  0  0  0
  161.8520  201.1200  150.7320 C   0  0  0  0  0  2  0  0  0  0  0  0
  161.7220  207.5620  149.7990 C   0  0  0  0  0  0  0  0  0  0  0  0
  162.1450  208.4210  148.7860 C   0  0  0  0  0  3  0  0  0  0  0  0
  160.9220  204.9390  152.9800 N   0  0  0  0  0  2  0  0  0  0  0  0
  160.6050  203.1280  151.7270 C   0  0  2  0  0  3  0  0  0  0  0  0
  160.7700  201.6010  151.7050 C   0  0  0  0  0  2  0  0  0  0  0  0
  160.0490  209.6990  153.1470 O   0  0  0  0  0  1  0  0  0  0  0  0
  161.1710  209.1550  153.7790 C   0  0  1  0  0  3  0  0  0  0  0  0
  159.5480  211.6070  156.5220 C   0  0  1  0  0  3  0  0  0  0  0  0
  159.6960  209.2180  155.8650 C   0  0  0  0  0  2  0  0  0  0  0  0
  162.9870  210.8410  155.5560 O   0  0  0  0  0  0  0  0  0  0  0  0
  158.7880  212.9040  156.3440 C   0  0  0  0  0  1  0  0  0  0  0  0
  158.8810  210.5000  155.7190 C   0  0  0  0  0  2  0  0  0  0  0  0
  161.7430  210.6890  155.6740 C   0  0  0  0  0  0  0  0  0  0  0  0
  161.1140  209.3750  155.2940 C   0  0  2  0  0  3  0  0  0  0  0  0
  160.9340  211.7880  156.1040 N   0  0  0  0  0  2  0  0  0  0  0  0
  1  6  2  0  0  0  0
  1 15  1  0  0  0  0
  2  5  1  6  0  0  0
  2 13  1  0  0  0  0
  3  7  1  6  0  0  0
  3  2  1  0  0  0  0
  3 20  1  0  0  0  0
  4  7  1  0  0  0  0
  4 11  1  0  0  0  0
  5 17  1  0  0  0  0
  6 18  1  0  0  0  0
  8 14  1  0  0  0  0
  9  1  1  0  0  0  0
 10 19  1  0  0  0  0
 11 16  1  0  0  0  0
 12  8  2  0  0  0  0
 13  8  1  1  0  0  0
 13 19  1  0  0  0  0
 14 23  1  0  0  0  0
 15  5  2  0  0  0  0
 16 21  1  0  0  0  0
 17 12  1  0  0  0  0
 18 17  2  0  0  0  0
 20 21  1  6  0  0  0
 20 10  1  0  0  0  0
 23 22  1  6  0  0  0
 24 27  1  6  0  0  0
 26 29  2  0  0  0  0
 28 25  1  0  0  0  0
 28 24  1  0  0  0  0
 29 31  1  0  0  0  0
 30 23  1  6  0  0  0
 30 29  1  0  0  0  0
 30 25  1  0  0  0  0
 31 24  1  0  0  0  0
M  END
>  <MODEL>
6

>  <REMARK>
 VINA RESULT:      -6.9      2.519      4.385
  Name = 
  2 active torsions:
  status: ('A' for Active; 'I' for Inactive)
    1  A    between atoms: C_9  and  C_22
    2  A    between atoms: C_9  and  N_23
                            x       y       z     vdW  Elec       q    Type
                         _______ _______ _______ _____ _____    ______ ____

>  <TORSDO>
F 2

$$$$
=
 OpenBabel11052422393D

 31 35  0  0  1  0  0  0  0  0999 V2000
  162.0390  206.5490  147.1080 C   0  0  0  0  0  0  0  0  0  0  0  0
  160.9200  205.9080  150.6500 C   0  0  2  0  0  3  0  0  0  0  0  0
  161.0260  204.3800  150.7170 C   0  0  2  0  0  3  0  0  0  0  0  0
  160.0870  202.2040  149.6880 C   0  0  0  0  0  2  0  0  0  0  0  0
  161.4840  206.5710  149.4180 C   0  0  0  0  0  0  0  0  0  0  0  0
  162.3110  207.9190  147.1380 C   0  0  0  0  0  3  0  0  0  0  0  0
  160.1460  203.7340  149.6380 C   0  0  0  0  0  2  0  0  0  0  0  0
  161.4520  208.0210  151.8630 C   0  0  0  0  0  0  0  0  0  0  0  0
  162.1800  205.8220  145.8940 N   0  0  0  0  0  1  0  0  0  0  0  0
  161.4010  204.6190  153.1110 O   0  0  0  0  0  0  0  0  0  0  0  0
  161.4270  201.5500  150.0430 C   0  0  0  0  0  2  0  0  0  0  0  0
  161.6000  208.6540  150.7310 N   0  0  0  0  0  0  0  0  0  0  0  0
  161.5770  206.5180  151.8880 C   0  0  1  0  0  3  0  0  0  0  0  0
  161.3350  208.7490  153.0880 N   0  0  0  0  0  2  0  0  0  0  0  0
  161.6210  205.9100  148.2350 N   0  0  0  0  0  0  0  0  0  0  0  0
  161.8720  201.7630  151.5010 C   0  0  0  0  0  2  0  0  0  0  0  0
  161.7480  207.9520  149.4840 C   0  0  0  0  0  0  0  0  0  0  0  0
  162.1610  208.6240  148.3340 C   0  0  0  0  0  3  0  0  0  0  0  0
  160.9760  205.9140  153.0730 N   0  0  0  0  0  2  0  0  0  0  0  0
  160.6410  203.9170  152.1510 C   0  0  2  0  0  3  0  0  0  0  0  0
  160.8020  202.4070  152.3880 C   0  0  0  0  0  2  0  0  0  0  0  0
  160.2090  210.6460  152.3120 O   0  0  0  0  0  1  0  0  0  0  0  0
  161.2450  210.2020  153.1390 C   0  0  1  0  0  3  0  0  0  0  0  0
  160.5140  208.7500  156.8170 C   0  0  1  0  0  3  0  0  0  0  0  0
  162.1210  210.1440  155.5390 C   0  0  0  0  0  2  0  0  0  0  0  0
  158.6630  210.9590  154.5730 O   0  0  0  0  0  0  0  0  0  0  0  0
  160.1590  207.3460  157.2600 C   0  0  0  0  0  1  0  0  0  0  0  0
  161.8140  208.7310  156.0250 C   0  0  0  0  0  2  0  0  0  0  0  0
  159.6470  210.3460  155.0620 C   0  0  0  0  0  0  0  0  0  0  0  0
  161.0380  210.6680  154.5830 C   0  0  2  0  0  3  0  0  0  0  0  0
  159.4280  209.3030  156.0170 N   0  0  0  0  0  2  0  0  0  0  0  0
  1  6  2  0  0  0  0
  1 15  1  0  0  0  0
  2  5  1  6  0  0  0
  2  3  1  0  0  0  0
  2 13  1  0  0  0  0
  3  7  1  6  0  0  0
  3 20  1  0  0  0  0
  4 11  1  0  0  0  0
  5 17  1  0  0  0  0
  6 18  1  0  0  0  0
  7  4  1  0  0  0  0
  8 14  1  0  0  0  0
  9  1  1  0  0  0  0
 11 16  1  0  0  0  0
 12  8  2  0  0  0  0
 13  8  1  1  0  0  0
 13 19  1  0  0  0  0
 14 23  1  0  0  0  0
 15  5  2  0  0  0  0
 16 21  1  0  0  0  0
 17 12  1  0  0  0  0
 18 17  2  0  0  0  0
 19 10  1  0  0  0  0
 20 21  1  6  0  0  0
 20 10  1  0  0  0  0
 23 22  1  6  0  0  0
 24 27  1  6  0  0  0
 25 28  1  0  0  0  0
 26 29  2  0  0  0  0
 28 24  1  0  0  0  0
 29 31  1  0  0  0  0
 30 23  1  6  0  0  0
 30 29  1  0  0  0  0
 30 25  1  0  0  0  0
 31 24  1  0  0  0  0
M  END
>  <MODEL>
7

>  <REMARK>
 VINA RESULT:      -6.7      2.450      4.525
  Name = 
  2 active torsions:
  status: ('A' for Active; 'I' for Inactive)
    1  A    between atoms: C_9  and  C_22
    2  A    between atoms: C_9  and  N_23
                            x       y       z     vdW  Elec       q    Type
                         _______ _______ _______ _____ _____    ______ ____

>  <TORSDO>
F 2

$$$$
