=
 OpenBabel11052422103D

 25 28  0  0  1  0  0  0  0  0999 V2000
  160.6720  207.7300  154.3820 C   0  0  0  0  0  0  0  0  0  0  0  0
  161.4880  208.5970  155.1960 N   0  0  0  0  0  0  0  0  0  0  0  0
  158.7730  210.3630  155.6240 C   0  0  1  0  0  3  0  0  0  0  0  0
  160.8020  211.5240  154.7640 C   0  0  2  0  0  3  0  0  0  0  0  0
  160.1740  209.0930  157.2610 C   0  0  0  0  0  2  0  0  0  0  0  0
  160.9080  211.2940  156.2310 C   0  0  0  0  0  0  0  0  0  0  0  0
  161.8180  211.7310  156.9180 O   0  0  0  0  0  0  0  0  0  0  0  0
  159.3700  211.0840  154.4270 C   0  0  2  0  0  0  0  0  0  0  0  0
  162.4840  209.5110  154.6410 C   0  0  0  0  0  2  0  0  0  0  0  0
  159.6790  207.1540  154.9070 O   0  0  0  0  0  0  0  0  0  0  0  0
  159.7700  210.4970  156.7760 C   0  0  1  0  0  3  0  0  0  0  0  0
  158.2350  211.7390  155.2260 C   0  0  1  0  0  3  0  0  0  0  0  0
  161.8490  210.7290  153.9510 C   0  0  0  0  0  2  0  0  0  0  0  0
  161.4560  208.4970  156.6540 C   0  0  0  0  0  2  0  0  0  0  0  0
  159.0490  210.4240  153.0870 C   0  0  0  0  0  1  0  0  0  0  0  0
  160.9640  207.4810  152.9480 C   0  0  0  0  0  0  0  0  0  0  0  0
  161.5800  207.0460  150.2380 C   0  0  0  0  0  3  0  0  0  0  0  0
  161.2770  206.1860  152.4840 C   0  0  0  0  0  0  0  0  0  0  0  0
  161.5760  205.9760  151.1340 C   0  0  0  0  0  3  0  0  0  0  0  0
  161.2840  208.3330  150.6900 C   0  0  0  0  0  3  0  0  0  0  0  0
  161.2710  205.1210  153.3230 F   0  0  0  0  0  0  0  0  0  0  0  0
  160.9830  208.5480  152.0360 C   0  0  0  0  0  3  0  0  0  0  0  0
  156.8860  211.6110  154.5860 C   0  0  0  0  0  0  0  0  0  0  0  0
  156.0680  210.5260  154.8760 O   0  0  0  0  0  1  0  0  0  0  0  0
  156.4710  212.5150  153.8140 O   0  0  0  0  0  0  0  0  0  0  0  0
  1 10  2  0  0  0  0
  1  2  1  0  0  0  0
  2 14  1  0  0  0  0
  3 11  1  0  0  0  0
  4  6  1  0  0  0  0
  6 11  1  0  0  0  0
  6  7  2  0  0  0  0
  8  4  1  0  0  0  0
  8 12  1  0  0  0  0
  8  3  1  0  0  0  0
  9  2  1  0  0  0  0
 11  5  1  0  0  0  0
 12  3  1  0  0  0  0
 13  9  1  0  0  0  0
 13  4  1  0  0  0  0
 14  5  1  0  0  0  0
 15  8  1  0  0  0  0
 16  1  1  0  0  0  0
 17 20  2  0  0  0  0
 17 19  1  0  0  0  0
 18 16  1  0  0  0  0
 18 21  1  0  0  0  0
 19 18  2  0  0  0  0
 20 22  1  0  0  0  0
 22 16  2  0  0  0  0
 23 24  1  0  0  0  0
 23 12  1  0  0  0  0
 25 23  2  0  0  0  0
M  END
>  <MODEL>
1

>  <REMARK>
 VINA RESULT:      -5.4      0.000      0.000
  Name = 
  2 active torsions:
  status: ('A' for Active; 'I' for Inactive)
    1  A    between atoms: C_1  and  C_5
    2  A    between atoms: C_2  and  C_21
                            x       y       z     vdW  Elec       q    Type
                         _______ _______ _______ _____ _____    ______ ____

>  <TORSDO>
F 2

$$$$
=
 OpenBabel11052422103D

 25 28  0  0  1  0  0  0  0  0999 V2000
  161.6250  213.3590  140.6010 C   0  0  0  0  0  0  0  0  0  0  0  0
  162.3920  212.3720  139.8790 N   0  0  0  0  0  0  0  0  0  0  0  0
  159.9300  212.3710  137.7320 C   0  0  1  0  0  3  0  0  0  0  0  0
  160.6220  210.1930  138.7230 C   0  0  2  0  0  3  0  0  0  0  0  0
  162.3290  213.0320  137.4710 C   0  0  0  0  0  2  0  0  0  0  0  0
  161.5750  210.6150  137.6600 C   0  0  0  0  0  0  0  0  0  0  0  0
  162.4930  209.9160  137.2620 O   0  0  0  0  0  0  0  0  0  0  0  0
  159.4930  211.2300  138.6340 C   0  0  2  0  0  0  0  0  0  0  0  0
  162.5410  210.9900  140.3280 C   0  0  0  0  0  2  0  0  0  0  0  0
  161.3460  214.4510  140.0340 O   0  0  0  0  0  0  0  0  0  0  0  0
  161.2710  211.9710  137.1150 C   0  0  1  0  0  3  0  0  0  0  0  0
  158.8280  211.4190  137.2640 C   0  0  1  0  0  3  0  0  0  0  0  0
  161.2590  210.1640  140.1300 C   0  0  0  0  0  2  0  0  0  0  0  0
  163.1900  212.7550  138.7150 C   0  0  0  0  0  2  0  0  0  0  0  0
  158.7500  211.6880  139.8890 C   0  0  0  0  0  1  0  0  0  0  0  0
  161.1610  213.1400  141.9930 C   0  0  0  0  0  0  0  0  0  0  0  0
  160.2650  212.6560  144.6150 C   0  0  0  0  0  3  0  0  0  0  0  0
  162.0710  213.1270  143.0700 C   0  0  0  0  0  0  0  0  0  0  0  0
  161.6180  212.8920  144.3720 C   0  0  0  0  0  3  0  0  0  0  0  0
  159.3580  212.6530  143.5550 C   0  0  0  0  0  3  0  0  0  0  0  0
  163.3920  213.3650  142.8730 F   0  0  0  0  0  0  0  0  0  0  0  0
  159.8040  212.8890  142.2530 C   0  0  0  0  0  3  0  0  0  0  0  0
  157.4900  212.0940  137.3230 C   0  0  0  0  0  0  0  0  0  0  0  0
  157.3980  213.4800  137.2860 O   0  0  0  0  0  0  0  0  0  0  0  0
  156.4400  211.4010  137.3620 O   0  0  0  0  0  1  0  0  0  0  0  0
  1 16  1  0  0  0  0
  2  9  1  0  0  0  0
  2  1  1  0  0  0  0
  3  8  1  0  0  0  0
  4 13  1  0  0  0  0
  5 14  1  0  0  0  0
  6  4  1  0  0  0  0
  7  6  2  0  0  0  0
  8  4  1  0  0  0  0
  8 15  1  0  0  0  0
 10  1  2  0  0  0  0
 11  5  1  0  0  0  0
 11  6  1  0  0  0  0
 11  3  1  0  0  0  0
 12 23  1  0  0  0  0
 12  3  1  0  0  0  0
 12  8  1  0  0  0  0
 13  9  1  0  0  0  0
 14  2  1  0  0  0  0
 16 22  2  0  0  0  0
 16 18  1  0  0  0  0
 18 19  2  0  0  0  0
 19 17  1  0  0  0  0
 20 17  2  0  0  0  0
 21 18  1  0  0  0  0
 22 20  1  0  0  0  0
 23 25  1  0  0  0  0
 24 23  2  0  0  0  0
M  END
>  <MODEL>
2

>  <REMARK>
 VINA RESULT:      -4.8     12.785     15.585
  Name = 
  2 active torsions:
  status: ('A' for Active; 'I' for Inactive)
    1  A    between atoms: C_1  and  C_5
    2  A    between atoms: C_2  and  C_21
                            x       y       z     vdW  Elec       q    Type
                         _______ _______ _______ _____ _____    ______ ____

>  <TORSDO>
F 2

$$$$
=
 OpenBabel11052422103D

 25 28  0  0  1  0  0  0  0  0999 V2000
  160.3470  206.1920  148.5880 C   0  0  0  0  0  0  0  0  0  0  0  0
  161.2450  206.6830  147.5710 N   0  0  0  0  0  0  0  0  0  0  0  0
  160.5430  203.9340  145.9530 C   0  0  1  0  0  3  0  0  0  0  0  0
  162.9390  204.4560  146.3910 C   0  0  2  0  0  3  0  0  0  0  0  0
  160.1110  206.3290  145.3750 C   0  0  0  0  0  2  0  0  0  0  0  0
  162.4190  205.2760  145.2640 C   0  0  0  0  0  0  0  0  0  0  0  0
  163.1190  206.0090  144.5830 O   0  0  0  0  0  0  0  0  0  0  0  0
  161.7880  203.4880  146.7010 C   0  0  2  0  0  0  0  0  0  0  0  0
  162.6980  206.7030  147.7300 C   0  0  0  0  0  2  0  0  0  0  0  0
  159.1380  205.9860  148.2880 O   0  0  0  0  0  0  0  0  0  0  0  0
  160.9550  205.0870  145.0360 C   0  0  1  0  0  3  0  0  0  0  0  0
  161.2540  202.6460  145.5350 C   0  0  1  0  0  3  0  0  0  0  0  0
  163.3210  205.3010  147.6280 C   0  0  0  0  0  2  0  0  0  0  0  0
  160.7260  207.3300  146.3670 C   0  0  0  0  0  2  0  0  0  0  0  0
  161.5140  203.0310  148.1330 C   0  0  0  0  0  1  0  0  0  0  0  0
  160.7900  205.9310  149.9790 C   0  0  0  0  0  0  0  0  0  0  0  0
  161.6880  205.4010  152.5920 C   0  0  0  0  0  3  0  0  0  0  0  0
  161.2440  206.9790  150.8070 C   0  0  0  0  0  0  0  0  0  0  0  0
  161.6830  206.7100  152.1070 C   0  0  0  0  0  3  0  0  0  0  0  0
  161.2530  204.3560  151.7770 C   0  0  0  0  0  3  0  0  0  0  0  0
  161.2410  208.2650  150.3740 F   0  0  0  0  0  0  0  0  0  0  0  0
  160.8120  204.6190  150.4790 C   0  0  0  0  0  3  0  0  0  0  0  0
  160.4620  201.4460  145.9610 C   0  0  0  0  0  0  0  0  0  0  0  0
  161.0980  200.3400  146.5100 O   0  0  0  0  0  1  0  0  0  0  0  0
  159.2070  201.4570  145.8610 O   0  0  0  0  0  0  0  0  0  0  0  0
  1 16  1  0  0  0  0
  2  9  1  0  0  0  0
  2  1  1  0  0  0  0
  3  8  1  0  0  0  0
  4  8  1  0  0  0  0
  4 13  1  0  0  0  0
  5 14  1  0  0  0  0
  6  4  1  0  0  0  0
  7  6  2  0  0  0  0
  8 15  1  0  0  0  0
 10  1  2  0  0  0  0
 11  6  1  0  0  0  0
 11  5  1  0  0  0  0
 11  3  1  0  0  0  0
 12  3  1  0  0  0  0
 12 23  1  0  0  0  0
 12  8  1  0  0  0  0
 13  9  1  0  0  0  0
 14  2  1  0  0  0  0
 16 22  2  0  0  0  0
 16 18  1  0  0  0  0
 18 19  2  0  0  0  0
 19 17  1  0  0  0  0
 20 17  2  0  0  0  0
 21 18  1  0  0  0  0
 22 20  1  0  0  0  0
 23 24  1  0  0  0  0
 25 23  2  0  0  0  0
M  END
>  <MODEL>
3

>  <REMARK>
 VINA RESULT:      -4.3      5.663      9.713
  Name = 
  2 active torsions:
  status: ('A' for Active; 'I' for Inactive)
    1  A    between atoms: C_1  and  C_5
    2  A    between atoms: C_2  and  C_21
                            x       y       z     vdW  Elec       q    Type
                         _______ _______ _______ _____ _____    ______ ____

>  <TORSDO>
F 2

$$$$
=
 OpenBabel11052422103D

 25 28  0  0  1  0  0  0  0  0999 V2000
  160.5470  213.8310  140.5450 C   0  0  0  0  0  0  0  0  0  0  0  0
  161.7200  213.5490  139.7530 N   0  0  0  0  0  0  0  0  0  0  0  0
  159.7160  211.8480  137.8150 C   0  0  1  0  0  3  0  0  0  0  0  0
  161.7260  210.6920  138.7240 C   0  0  2  0  0  3  0  0  0  0  0  0
  161.0770  213.8970  137.3660 C   0  0  0  0  0  2  0  0  0  0  0  0
  162.0980  211.5840  137.5910 C   0  0  0  0  0  0  0  0  0  0  0  0
  163.2200  211.6330  137.1120 O   0  0  0  0  0  0  0  0  0  0  0  0
  160.1920  210.7390  138.7390 C   0  0  2  0  0  0  0  0  0  0  0  0
  162.7650  212.6190  140.1760 C   0  0  0  0  0  2  0  0  0  0  0  0
  159.5850  214.4510  140.0140 O   0  0  0  0  0  0  0  0  0  0  0  0
  160.9470  212.3890  137.0860 C   0  0  1  0  0  3  0  0  0  0  0  0
  159.4730  210.3870  137.4290 C   0  0  1  0  0  3  0  0  0  0  0  0
  162.3230  211.1500  140.0750 C   0  0  0  0  0  2  0  0  0  0  0  0
  161.9930  214.3050  138.5320 C   0  0  0  0  0  2  0  0  0  0  0  0
  159.4180  210.6610  140.0540 C   0  0  0  0  0  1  0  0  0  0  0  0
  160.4350  213.4260  141.9680 C   0  0  0  0  0  0  0  0  0  0  0  0
  160.2440  212.7260  144.6860 C   0  0  0  0  0  3  0  0  0  0  0  0
  159.1770  213.1790  142.5580 C   0  0  0  0  0  0  0  0  0  0  0  0
  159.0900  212.8250  143.9080 C   0  0  0  0  0  3  0  0  0  0  0  0
  161.4920  212.9810  144.1160 C   0  0  0  0  0  3  0  0  0  0  0  0
  158.0360  213.2540  141.8280 F   0  0  0  0  0  0  0  0  0  0  0  0
  161.5850  213.3330  142.7680 C   0  0  0  0  0  3  0  0  0  0  0  0
  158.0270  210.0310  137.6040 C   0  0  0  0  0  0  0  0  0  0  0  0
  157.0710  211.0260  137.7670 O   0  0  0  0  0  1  0  0  0  0  0  0
  157.6690  208.8250  137.5590 O   0  0  0  0  0  0  0  0  0  0  0  0
  1 16  1  0  0  0  0
  2  9  1  0  0  0  0
  2  1  1  0  0  0  0
  3  8  1  0  0  0  0
  4  8  1  0  0  0  0
  4 13  1  0  0  0  0
  5 14  1  0  0  0  0
  6  4  1  0  0  0  0
  7  6  2  0  0  0  0
  8 15  1  0  0  0  0
 10  1  2  0  0  0  0
 11  5  1  0  0  0  0
 11  6  1  0  0  0  0
 11  3  1  0  0  0  0
 12 23  1  0  0  0  0
 12  3  1  0  0  0  0
 12  8  1  0  0  0  0
 13  9  1  0  0  0  0
 14  2  1  0  0  0  0
 16 18  2  0  0  0  0
 16 22  1  0  0  0  0
 18 19  1  0  0  0  0
 19 17  2  0  0  0  0
 20 17  1  0  0  0  0
 21 18  1  0  0  0  0
 22 20  2  0  0  0  0
 23 24  1  0  0  0  0
 25 23  2  0  0  0  0
M  END
>  <MODEL>
4

>  <REMARK>
 VINA RESULT:      -3.8     12.860     15.671
  Name = 
  2 active torsions:
  status: ('A' for Active; 'I' for Inactive)
    1  A    between atoms: C_1  and  C_5
    2  A    between atoms: C_2  and  C_21
                            x       y       z     vdW  Elec       q    Type
                         _______ _______ _______ _____ _____    ______ ____

>  <TORSDO>
F 2

$$$$
=
 OpenBabel11052422103D

 25 28  0  0  1  0  0  0  0  0999 V2000
  160.9340  208.2770  153.4730 C   0  0  0  0  0  0  0  0  0  0  0  0
  161.6240  208.9120  154.5710 N   0  0  0  0  0  0  0  0  0  0  0  0
  158.7020  210.1080  155.4090 C   0  0  1  0  0  3  0  0  0  0  0  0
  160.5770  211.7150  155.0900 C   0  0  2  0  0  3  0  0  0  0  0  0
  160.2330  208.5360  156.6090 C   0  0  0  0  0  2  0  0  0  0  0  0
  160.6940  211.0240  156.4030 C   0  0  0  0  0  0  0  0  0  0  0  0
  161.5320  211.3090  157.2430 O   0  0  0  0  0  0  0  0  0  0  0  0
  159.2170  211.2510  154.5500 C   0  0  2  0  0  0  0  0  0  0  0  0
  162.5030  210.0680  154.4010 C   0  0  0  0  0  2  0  0  0  0  0  0
  160.0170  207.4490  153.7250 O   0  0  0  0  0  0  0  0  0  0  0  0
  159.6590  209.9640  156.5930 C   0  0  1  0  0  3  0  0  0  0  0  0
  157.9990  211.4660  155.4580 C   0  0  1  0  0  3  0  0  0  0  0  0
  161.7260  211.3630  154.1170 C   0  0  0  0  0  2  0  0  0  0  0  0
  161.5870  208.3290  155.9110 C   0  0  0  0  0  2  0  0  0  0  0  0
  158.9990  211.0420  153.0530 C   0  0  0  0  0  1  0  0  0  0  0  0
  161.2740  208.5560  152.0560 C   0  0  0  0  0  0  0  0  0  0  0  0
  161.9840  209.1020  149.3900 C   0  0  0  0  0  3  0  0  0  0  0  0
  161.3520  207.5140  151.1080 C   0  0  0  0  0  0  0  0  0  0  0  0
  161.7000  207.7930  149.7830 C   0  0  0  0  0  3  0  0  0  0  0  0
  161.9210  210.1380  150.3220 C   0  0  0  0  0  3  0  0  0  0  0  0
  161.0710  206.2320  151.4520 F   0  0  0  0  0  0  0  0  0  0  0  0
  161.5730  209.8650  151.6470 C   0  0  0  0  0  3  0  0  0  0  0  0
  156.6840  211.4030  154.7400 C   0  0  0  0  0  0  0  0  0  0  0  0
  156.0410  212.5690  154.3440 O   0  0  0  0  0  0  0  0  0  0  0  0
  156.1790  210.2860  154.4550 O   0  0  0  0  0  1  0  0  0  0  0  0
  1 10  2  0  0  0  0
  1  2  1  0  0  0  0
  2 14  1  0  0  0  0
  3 12  1  0  0  0  0
  3 11  1  0  0  0  0
  4  6  1  0  0  0  0
  6 11  1  0  0  0  0
  6  7  2  0  0  0  0
  8  4  1  0  0  0  0
  8  3  1  0  0  0  0
  8 12  1  0  0  0  0
  9  2  1  0  0  0  0
 11  5  1  0  0  0  0
 13  9  1  0  0  0  0
 13  4  1  0  0  0  0
 14  5  1  0  0  0  0
 15  8  1  0  0  0  0
 16  1  1  0  0  0  0
 17 19  2  0  0  0  0
 17 20  1  0  0  0  0
 18 21  1  0  0  0  0
 18 16  2  0  0  0  0
 19 18  1  0  0  0  0
 20 22  2  0  0  0  0
 22 16  1  0  0  0  0
 23 12  1  0  0  0  0
 24 23  2  0  0  0  0
 25 23  1  0  0  0  0
M  END
>  <MODEL>
5

>  <REMARK>
 VINA RESULT:      -3.7      0.961      1.327
  Name = 
  2 active torsions:
  status: ('A' for Active; 'I' for Inactive)
    1  A    between atoms: C_1  and  C_5
    2  A    between atoms: C_2  and  C_21
                            x       y       z     vdW  Elec       q    Type
                         _______ _______ _______ _____ _____    ______ ____

>  <TORSDO>
F 2

$$$$
=
 OpenBabel11052422103D

 25 28  0  0  1  0  0  0  0  0999 V2000
  160.4180  206.5710  148.0240 C   0  0  0  0  0  0  0  0  0  0  0  0
  161.2140  206.4540  146.8260 N   0  0  0  0  0  0  0  0  0  0  0  0
  160.5490  203.2600  146.9760 C   0  0  1  0  0  3  0  0  0  0  0  0
  162.9380  203.9540  146.8560 C   0  0  2  0  0  3  0  0  0  0  0  0
  159.9470  204.9780  145.2610 C   0  0  0  0  0  2  0  0  0  0  0  0
  162.2950  204.0460  145.5170 C   0  0  0  0  0  0  0  0  0  0  0  0
  162.9040  204.3100  144.4930 O   0  0  0  0  0  0  0  0  0  0  0  0
  161.8670  203.2900  147.7320 C   0  0  2  0  0  0  0  0  0  0  0  0
  162.6720  206.5670  146.8200 C   0  0  0  0  0  2  0  0  0  0  0  0
  159.2050  206.2270  147.9880 O   0  0  0  0  0  0  0  0  0  0  0  0
  160.8310  203.7530  145.5560 C   0  0  1  0  0  3  0  0  0  0  0  0
  161.2970  201.9520  147.2410 C   0  0  1  0  0  3  0  0  0  0  0  0
  163.3610  205.3300  147.4190 C   0  0  0  0  0  2  0  0  0  0  0  0
  160.5760  206.3580  145.5140 C   0  0  0  0  0  2  0  0  0  0  0  0
  161.7200  203.6610  149.2070 C   0  0  0  0  0  1  0  0  0  0  0  0
  160.9740  207.0930  149.2970 C   0  0  0  0  0  0  0  0  0  0  0  0
  162.0780  208.0320  151.7080 C   0  0  0  0  0  3  0  0  0  0  0  0
  161.5810  208.3640  149.3590 C   0  0  0  0  0  0  0  0  0  0  0  0
  162.1230  208.8280  150.5620 C   0  0  0  0  0  3  0  0  0  0  0  0
  161.4910  206.7680  151.6540 C   0  0  0  0  0  3  0  0  0  0  0  0
  161.6320  209.1700  148.2690 F   0  0  0  0  0  0  0  0  0  0  0  0
  160.9470  206.3000  150.4560 C   0  0  0  0  0  3  0  0  0  0  0  0
  160.6040  201.1560  148.3050 C   0  0  0  0  0  0  0  0  0  0  0  0
  159.2850  201.4290  148.6430 O   0  0  0  0  0  0  0  0  0  0  0  0
  161.2060  200.2030  148.8670 O   0  0  0  0  0  1  0  0  0  0  0  0
  1 16  1  0  0  0  0
  2  1  1  0  0  0  0
  3 12  1  0  0  0  0
  3  8  1  0  0  0  0
  4 13  1  0  0  0  0
  4  8  1  0  0  0  0
  5 14  1  0  0  0  0
  5 11  1  0  0  0  0
  6 11  1  0  0  0  0
  6  4  1  0  0  0  0
  7  6  2  0  0  0  0
  8 15  1  0  0  0  0
  9  2  1  0  0  0  0
  9 13  1  0  0  0  0
 10  1  2  0  0  0  0
 11  3  1  0  0  0  0
 12  8  1  0  0  0  0
 12 23  1  0  0  0  0
 14  2  1  0  0  0  0
 16 18  2  0  0  0  0
 16 22  1  0  0  0  0
 18 19  1  0  0  0  0
 19 17  2  0  0  0  0
 20 17  1  0  0  0  0
 21 18  1  0  0  0  0
 22 20  2  0  0  0  0
 23 24  2  0  0  0  0
 23 25  1  0  0  0  0
M  END
>  <MODEL>
6

>  <REMARK>
 VINA RESULT:      -3.5      5.637      9.675
  Name = 
  2 active torsions:
  status: ('A' for Active; 'I' for Inactive)
    1  A    between atoms: C_1  and  C_5
    2  A    between atoms: C_2  and  C_21
                            x       y       z     vdW  Elec       q    Type
                         _______ _______ _______ _____ _____    ______ ____

>  <TORSDO>
F 2

$$$$
=
 OpenBabel11052422103D

 25 28  0  0  1  0  0  0  0  0999 V2000
  160.4230  209.9950  155.7110 C   0  0  0  0  0  0  0  0  0  0  0  0
  160.4910  211.3840  155.3260 N   0  0  0  0  0  0  0  0  0  0  0  0
  157.3730  211.5600  156.2830 C   0  0  1  0  0  3  0  0  0  0  0  0
  157.9330  212.3060  153.9740 C   0  0  2  0  0  3  0  0  0  0  0  0
  159.4210  212.6930  157.1630 C   0  0  0  0  0  2  0  0  0  0  0  0
  158.3180  213.3420  154.9710 C   0  0  0  0  0  0  0  0  0  0  0  0
  158.7380  214.4480  154.6670 O   0  0  0  0  0  0  0  0  0  0  0  0
  157.1780  211.2600  154.8060 C   0  0  2  0  0  0  0  0  0  0  0  0
  160.5150  211.8280  153.9330 C   0  0  0  0  0  2  0  0  0  0  0  0
  160.1650  209.7050  156.9110 O   0  0  0  0  0  0  0  0  0  0  0  0
  158.1120  212.8950  156.3800 C   0  0  1  0  0  3  0  0  0  0  0  0
  155.9960  211.7610  155.6470 C   0  0  1  0  0  3  0  0  0  0  0  0
  159.1470  211.6860  153.2460 C   0  0  0  0  0  2  0  0  0  0  0  0
  160.6870  212.4270  156.3320 C   0  0  0  0  0  2  0  0  0  0  0  0
  157.2670  209.7740  154.4630 C   0  0  0  0  0  1  0  0  0  0  0  0
  160.6560  208.8920  154.7460 C   0  0  0  0  0  0  0  0  0  0  0  0
  161.1690  206.8210  152.9130 C   0  0  0  0  0  3  0  0  0  0  0  0
  160.5690  207.5430  155.1470 C   0  0  0  0  0  0  0  0  0  0  0  0
  160.8190  206.5170  154.2300 C   0  0  0  0  0  3  0  0  0  0  0  0
  161.2710  208.1520  152.5090 C   0  0  0  0  0  3  0  0  0  0  0  0
  160.2200  207.2110  156.4160 F   0  0  0  0  0  0  0  0  0  0  0  0
  161.0200  209.1800  153.4200 C   0  0  0  0  0  3  0  0  0  0  0  0
  155.0530  210.6790  156.0800 C   0  0  0  0  0  0  0  0  0  0  0  0
  154.6970  209.6620  155.2040 O   0  0  0  0  0  0  0  0  0  0  0  0
  154.6140  210.6670  157.2600 O   0  0  0  0  0  1  0  0  0  0  0  0
  1 10  2  0  0  0  0
  2  1  1  0  0  0  0
  2 14  1  0  0  0  0
  3 11  1  0  0  0  0
  4  8  1  0  0  0  0
  4  6  1  0  0  0  0
  6 11  1  0  0  0  0
  7  6  2  0  0  0  0
  8 12  1  0  0  0  0
  8  3  1  0  0  0  0
  9  2  1  0  0  0  0
 11  5  1  0  0  0  0
 12 23  1  0  0  0  0
 12  3  1  0  0  0  0
 13  9  1  0  0  0  0
 13  4  1  0  0  0  0
 14  5  1  0  0  0  0
 15  8  1  0  0  0  0
 16 18  1  0  0  0  0
 16  1  1  0  0  0  0
 17 19  1  0  0  0  0
 18 21  1  0  0  0  0
 19 18  2  0  0  0  0
 20 17  2  0  0  0  0
 20 22  1  0  0  0  0
 22 16  2  0  0  0  0
 23 25  1  0  0  0  0
 24 23  2  0  0  0  0
M  END
>  <MODEL>
7

>  <REMARK>
 VINA RESULT:      -3.0      1.958      3.019
  Name = 
  2 active torsions:
  status: ('A' for Active; 'I' for Inactive)
    1  A    between atoms: C_1  and  C_5
    2  A    between atoms: C_2  and  C_21
                            x       y       z     vdW  Elec       q    Type
                         _______ _______ _______ _____ _____    ______ ____

>  <TORSDO>
F 2

$$$$
=
 OpenBabel11052422103D

 25 28  0  0  1  0  0  0  0  0999 V2000
  160.2910  213.2430  141.3340 C   0  0  0  0  0  0  0  0  0  0  0  0
  160.8730  213.9540  140.2210 N   0  0  0  0  0  0  0  0  0  0  0  0
  160.8100  211.0850  138.6600 C   0  0  1  0  0  3  0  0  0  0  0  0
  162.9830  212.2940  138.8020 C   0  0  2  0  0  3  0  0  0  0  0  0
  159.6270  213.2360  138.1790 C   0  0  0  0  0  2  0  0  0  0  0  0
  162.1090  212.9020  137.7620 C   0  0  0  0  0  0  0  0  0  0  0  0
  162.4740  213.7920  137.0110 O   0  0  0  0  0  0  0  0  0  0  0  0
  162.2150  211.0390  139.2390 C   0  0  2  0  0  0  0  0  0  0  0  0
  162.2640  214.4000  140.1960 C   0  0  0  0  0  2  0  0  0  0  0  0
  159.1690  212.6860  141.1850 O   0  0  0  0  0  0  0  0  0  0  0  0
  160.7490  212.2880  137.7170 C   0  0  1  0  0  3  0  0  0  0  0  0
  161.8100  210.0520  138.1350 C   0  0  1  0  0  3  0  0  0  0  0  0
  163.2530  213.2410  139.9940 C   0  0  0  0  0  2  0  0  0  0  0  0
  160.0410  214.3940  139.1020 C   0  0  0  0  0  2  0  0  0  0  0  0
  162.2670  210.5520  140.6860 C   0  0  0  0  0  1  0  0  0  0  0  0
  160.9610  213.1540  142.6550 C   0  0  0  0  0  0  0  0  0  0  0  0
  162.2470  213.0540  145.1550 C   0  0  0  0  0  3  0  0  0  0  0  0
  160.2210  212.9190  143.8320 C   0  0  0  0  0  0  0  0  0  0  0  0
  160.8670  212.8640  145.0720 C   0  0  0  0  0  3  0  0  0  0  0  0
  162.9870  213.3000  143.9980 C   0  0  0  0  0  3  0  0  0  0  0  0
  158.8800  212.7180  143.7870 F   0  0  0  0  0  0  0  0  0  0  0  0
  162.3480  213.3530  142.7580 C   0  0  0  0  0  3  0  0  0  0  0  0
  161.4640  208.6830  138.6380 C   0  0  0  0  0  0  0  0  0  0  0  0
  160.1390  208.2680  138.6960 O   0  0  0  0  0  0  0  0  0  0  0  0
  162.3810  207.8870  138.9690 O   0  0  0  0  0  1  0  0  0  0  0  0
  1 16  1  0  0  0  0
  2  1  1  0  0  0  0
  3  8  1  0  0  0  0
  4  8  1  0  0  0  0
  4 13  1  0  0  0  0
  5 14  1  0  0  0  0
  6  4  1  0  0  0  0
  7  6  2  0  0  0  0
  8 15  1  0  0  0  0
  9  2  1  0  0  0  0
 10  1  2  0  0  0  0
 11  6  1  0  0  0  0
 11  5  1  0  0  0  0
 11  3  1  0  0  0  0
 12 23  1  0  0  0  0
 12  3  1  0  0  0  0
 12  8  1  0  0  0  0
 13  9  1  0  0  0  0
 14  2  1  0  0  0  0
 16 22  2  0  0  0  0
 16 18  1  0  0  0  0
 18 19  2  0  0  0  0
 19 17  1  0  0  0  0
 20 17  2  0  0  0  0
 21 18  1  0  0  0  0
 22 20  1  0  0  0  0
 23 24  2  0  0  0  0
 23 25  1  0  0  0  0
M  END
>  <MODEL>
8

>  <REMARK>
 VINA RESULT:      -2.8     12.358     15.232
  Name = 
  2 active torsions:
  status: ('A' for Active; 'I' for Inactive)
    1  A    between atoms: C_1  and  C_5
    2  A    between atoms: C_2  and  C_21
                            x       y       z     vdW  Elec       q    Type
                         _______ _______ _______ _____ _____    ______ ____

>  <TORSDO>
F 2

$$$$
