=
 OpenBabel11052421513D

 30 33  0  0  1  0  0  0  0  0999 V2000
  161.7400  209.8480  150.3690 C   0  0  1  0  0  3  0  0  0  0  0  0
  161.1520  208.4520  150.3430 C   0  0  0  0  0  0  0  0  0  0  0  0
  162.6540  210.0110  151.5850 C   0  0  0  0  0  2  0  0  0  0  0  0
  160.5370  208.3150  154.2080 C   0  0  0  0  0  2  0  0  0  0  0  0
  160.5330  205.3110  150.7100 C   0  0  1  0  0  3  0  0  0  0  0  0
  161.1050  208.5430  152.8560 C   0  0  0  0  0  0  0  0  0  0  0  0
  162.0930  210.2170  154.1570 C   0  0  0  0  0  2  0  0  0  0  0  0
  161.1010  205.3670  149.3560 N   0  0  0  0  0  0  0  0  0  0  0  0
  161.9480  209.5660  152.8330 C   0  0  0  0  0  0  0  0  0  0  0  0
  160.7310  207.7470  151.6290 C   0  0  2  0  0  3  0  0  0  0  0  0
  161.4120  204.0580  148.8220 C   0  0  0  0  0  2  0  0  0  0  0  0
  160.6640  203.8610  151.1400 C   0  0  0  0  0  2  0  0  0  0  0  0
  160.0880  210.3100  155.6260 C   0  0  0  0  0  1  0  0  0  0  0  0
  161.1710  209.4070  155.0710 C   0  0  1  0  0  3  0  0  0  0  0  0
  161.2330  207.6730  149.3110 C   0  0  0  0  0  0  0  0  0  0  0  0
  161.2660  206.5890  148.6140 C   0  0  0  0  0  0  0  0  0  0  0  0
  160.9300  203.0660  149.8670 C   0  0  0  0  0  2  0  0  0  0  0  0
  162.7320  206.1350  151.7470 C   0  0  0  0  0  1  0  0  0  0  0  0
  161.2100  206.2640  151.7390 C   0  0  2  0  0  3  0  0  0  0  0  0
  161.6930  206.6110  147.1860 C   0  0  0  0  0  2  0  0  0  0  0  0
  160.5930  206.3730  146.3630 O   0  0  0  0  0  1  0  0  0  0  0  0
  162.4700  210.1250  149.1960 O   0  0  0  0  0  0  0  0  0  0  0  0
  162.0210  211.3430  148.6380 C   0  0  2  0  0  3  0  0  0  0  0  0
  163.1190  212.1230  147.9250 C   0  0  0  0  0  1  0  0  0  0  0  0
  161.2280  212.2080  149.6160 C   0  0  0  0  0  2  0  0  0  0  0  0
  160.4310  213.2660  148.8690 C   0  0  0  0  0  2  0  0  0  0  0  0
  159.3460  213.7560  149.7030 N   0  0  0  0  0  2  0  0  0  0  0  0
  159.6940  213.4580  151.0850 C   0  0  0  0  0  2  0  0  0  0  0  0
  158.8390  211.5910  152.4920 C   0  0  0  0  0  1  0  0  0  0  0  0
  158.4860  212.9030  151.8160 C   0  0  0  0  0  2  0  0  0  0  0  0
  1 22  1  6  0  0  0
  1  3  1  0  0  0  0
  2  1  1  0  0  0  0
  3  9  1  0  0  0  0
  4 14  1  0  0  0  0
  5 12  1  1  0  0  0
  5 19  1  0  0  0  0
  6  4  1  0  0  0  0
  7 14  1  0  0  0  0
  8  5  1  0  0  0  0
  9  6  2  0  0  0  0
  9  7  1  0  0  0  0
 10  2  1  6  0  0  0
 10 19  1  0  0  0  0
 10  6  1  0  0  0  0
 11  8  1  0  0  0  0
 11 17  1  0  0  0  0
 14 13  1  6  0  0  0
 15  2  2  0  0  0  0
 16 15  2  0  0  0  0
 16  8  1  0  0  0  0
 17 12  1  0  0  0  0
 19 18  1  6  0  0  0
 20 16  1  0  0  0  0
 21 20  1  0  0  0  0
 23 24  1  1  0  0  0
 23 22  1  0  0  0  0
 23 25  1  0  0  0  0
 26 25  1  0  0  0  0
 26 27  1  0  0  0  0
 27 28  1  0  0  0  0
 28 30  1  0  0  0  0
 30 29  1  0  0  0  0
M  END
>  <MODEL>
1

>  <REMARK>
 VINA RESULT:      -7.0      0.000      0.000
  Name = 
  8 active torsions:
  status: ('A' for Active; 'I' for Inactive)
    1  A    between atoms: C_1  and  O_22
    2  A    between atoms: C_2  and  C_14
    3  A    between atoms: C_2  and  O_22
    4  A    between atoms: C_11  and  C_25
    5  A    between atoms: C_14  and  C_20
    6  A    between atoms: C_19  and  C_29
    7  A    between atoms: C_20  and  N_28
    8  A    between atoms: N_28  and  C_29
                            x       y       z     vdW  Elec       q    Type
                         _______ _______ _______ _____ _____    ______ ____

>  <TORSDO>
F 8

$$$$
=
 OpenBabel11052421513D

 30 33  0  0  1  0  0  0  0  0999 V2000
  161.7490  209.8700  150.3090 C   0  0  1  0  0  3  0  0  0  0  0  0
  161.1590  208.4740  150.2830 C   0  0  0  0  0  0  0  0  0  0  0  0
  162.6420  210.0400  151.5400 C   0  0  0  0  0  2  0  0  0  0  0  0
  160.4770  208.3670  154.1380 C   0  0  0  0  0  2  0  0  0  0  0  0
  160.5290  205.3370  150.6620 C   0  0  1  0  0  3  0  0  0  0  0  0
  161.0690  208.5840  152.7940 C   0  0  0  0  0  0  0  0  0  0  0  0
  162.0360  210.2660  154.1000 C   0  0  0  0  0  2  0  0  0  0  0  0
  161.1210  205.3820  149.3180 N   0  0  0  0  0  0  0  0  0  0  0  0
  161.9130  209.6060  152.7780 C   0  0  0  0  0  0  0  0  0  0  0  0
  160.7150  207.7800  151.5670 C   0  0  2  0  0  3  0  0  0  0  0  0
  161.4390  204.0690  148.8000 C   0  0  0  0  0  2  0  0  0  0  0  0
  160.6500  203.8900  151.1050 C   0  0  0  0  0  2  0  0  0  0  0  0
  160.0070  210.3730  155.5320 C   0  0  0  0  0  1  0  0  0  0  0  0
  161.0980  209.4650  155.0030 C   0  0  1  0  0  3  0  0  0  0  0  0
  161.2570  207.6870  149.2590 C   0  0  0  0  0  0  0  0  0  0  0  0
  161.3010  206.5980  148.5700 C   0  0  0  0  0  0  0  0  0  0  0  0
  160.9370  203.0850  149.8430 C   0  0  0  0  0  2  0  0  0  0  0  0
  162.7110  206.1650  151.7310 C   0  0  0  0  0  1  0  0  0  0  0  0
  161.1890  206.2970  151.6960 C   0  0  2  0  0  3  0  0  0  0  0  0
  161.7530  206.6090  147.1490 C   0  0  0  0  0  2  0  0  0  0  0  0
  160.6620  206.3940  146.3080 O   0  0  0  0  0  1  0  0  0  0  0  0
  162.5000  210.1370  149.1470 O   0  0  0  0  0  0  0  0  0  0  0  0
  162.0290  211.3250  148.5440 C   0  0  2  0  0  3  0  0  0  0  0  0
  163.1370  212.1710  147.9270 C   0  0  0  0  0  1  0  0  0  0  0  0
  161.0990  212.1390  149.4420 C   0  0  0  0  0  2  0  0  0  0  0  0
  160.8090  213.4960  148.8200 C   0  0  0  0  0  2  0  0  0  0  0  0
  159.6010  213.4260  148.0130 N   0  0  0  0  0  2  0  0  0  0  0  0
  158.4840  213.7810  148.8760 C   0  0  0  0  0  2  0  0  0  0  0  0
  157.3630  212.5970  146.9950 C   0  0  0  0  0  1  0  0  0  0  0  0
  157.2360  213.0350  148.4420 C   0  0  0  0  0  2  0  0  0  0  0  0
  1 22  1  6  0  0  0
  1  3  1  0  0  0  0
  2  1  1  0  0  0  0
  3  9  1  0  0  0  0
  4 14  1  0  0  0  0
  5 12  1  1  0  0  0
  5 19  1  0  0  0  0
  6  4  1  0  0  0  0
  7 14  1  0  0  0  0
  8  5  1  0  0  0  0
  9  6  2  0  0  0  0
  9  7  1  0  0  0  0
 10  2  1  6  0  0  0
 10 19  1  0  0  0  0
 10  6  1  0  0  0  0
 11  8  1  0  0  0  0
 11 17  1  0  0  0  0
 14 13  1  6  0  0  0
 15  2  2  0  0  0  0
 16 15  2  0  0  0  0
 16  8  1  0  0  0  0
 17 12  1  0  0  0  0
 19 18  1  6  0  0  0
 20 16  1  0  0  0  0
 21 20  1  0  0  0  0
 23 24  1  1  0  0  0
 23 22  1  0  0  0  0
 23 25  1  0  0  0  0
 26 25  1  0  0  0  0
 27 26  1  0  0  0  0
 27 28  1  0  0  0  0
 29 30  1  0  0  0  0
 30 28  1  0  0  0  0
M  END
>  <MODEL>
2

>  <REMARK>
 VINA RESULT:      -6.8      1.021      1.369
  Name = 
  8 active torsions:
  status: ('A' for Active; 'I' for Inactive)
    1  A    between atoms: C_1  and  O_22
    2  A    between atoms: C_2  and  C_14
    3  A    between atoms: C_2  and  O_22
    4  A    between atoms: C_11  and  C_25
    5  A    between atoms: C_14  and  C_20
    6  A    between atoms: C_19  and  C_29
    7  A    between atoms: C_20  and  N_28
    8  A    between atoms: N_28  and  C_29
                            x       y       z     vdW  Elec       q    Type
                         _______ _______ _______ _____ _____    ______ ____

>  <TORSDO>
F 8

$$$$
=
 OpenBabel11052421513D

 30 33  0  0  1  0  0  0  0  0999 V2000
  161.6330  209.8740  150.4130 C   0  0  1  0  0  3  0  0  0  0  0  0
  161.0830  208.4620  150.3900 C   0  0  0  0  0  0  0  0  0  0  0  0
  162.5790  210.0500  151.6030 C   0  0  0  0  0  2  0  0  0  0  0  0
  160.5900  208.2710  154.2700 C   0  0  0  0  0  2  0  0  0  0  0  0
  160.5630  205.3010  150.7420 C   0  0  1  0  0  3  0  0  0  0  0  0
  161.1100  208.5280  152.9040 C   0  0  0  0  0  0  0  0  0  0  0  0
  162.0910  210.2160  154.1920 C   0  0  0  0  0  2  0  0  0  0  0  0
  161.0880  205.3860  149.3720 N   0  0  0  0  0  0  0  0  0  0  0  0
  161.9240  209.5740  152.8660 C   0  0  0  0  0  0  0  0  0  0  0  0
  160.7220  207.7340  151.6810 C   0  0  2  0  0  3  0  0  0  0  0  0
  161.4180  204.0920  148.8160 C   0  0  0  0  0  2  0  0  0  0  0  0
  160.7460  203.8520  151.1530 C   0  0  0  0  0  2  0  0  0  0  0  0
  160.1300  210.2390  155.7210 C   0  0  0  0  0  1  0  0  0  0  0  0
  161.2200  209.3720  155.1240 C   0  0  1  0  0  3  0  0  0  0  0  0
  161.1550  207.6950  149.3480 C   0  0  0  0  0  0  0  0  0  0  0  0
  161.1960  206.6200  148.6390 C   0  0  0  0  0  0  0  0  0  0  0  0
  160.9950  203.0760  149.8650 C   0  0  0  0  0  2  0  0  0  0  0  0
  162.7680  206.1760  151.7210 C   0  0  0  0  0  1  0  0  0  0  0  0
  161.2440  206.2630  151.7610 C   0  0  2  0  0  3  0  0  0  0  0  0
  161.5790  206.6670  147.1990 C   0  0  0  0  0  2  0  0  0  0  0  0
  160.4710  206.3680  146.4080 O   0  0  0  0  0  1  0  0  0  0  0  0
  162.3200  210.1820  149.2210 O   0  0  0  0  0  0  0  0  0  0  0  0
  162.3640  211.5840  149.0520 C   0  0  2  0  0  3  0  0  0  0  0  0
  161.0080  212.2580  149.2240 C   0  0  0  0  0  1  0  0  0  0  0  0
  163.0810  212.0240  147.7770 C   0  0  0  0  0  2  0  0  0  0  0  0
  162.4640  213.3020  147.2310 C   0  0  0  0  0  2  0  0  0  0  0  0
  162.2130  213.1660  145.8050 N   0  0  0  0  0  2  0  0  0  0  0  0
  160.8180  213.5140  145.5760 C   0  0  0  0  0  2  0  0  0  0  0  0
  158.4950  212.6310  145.7170 C   0  0  0  0  0  1  0  0  0  0  0  0
  159.9610  212.2620  145.5960 C   0  0  0  0  0  2  0  0  0  0  0  0
  1 22  1  6  0  0  0
  1  3  1  0  0  0  0
  2  1  1  0  0  0  0
  3  9  1  0  0  0  0
  4 14  1  0  0  0  0
  5 12  1  1  0  0  0
  5 19  1  0  0  0  0
  6  4  1  0  0  0  0
  7 14  1  0  0  0  0
  8  5  1  0  0  0  0
  9  6  2  0  0  0  0
  9  7  1  0  0  0  0
 10  2  1  6  0  0  0
 10 19  1  0  0  0  0
 10  6  1  0  0  0  0
 11  8  1  0  0  0  0
 11 17  1  0  0  0  0
 14 13  1  6  0  0  0
 15  2  2  0  0  0  0
 16 15  2  0  0  0  0
 16  8  1  0  0  0  0
 17 12  1  0  0  0  0
 19 18  1  6  0  0  0
 20 16  1  0  0  0  0
 21 20  1  0  0  0  0
 23 22  1  0  0  0  0
 23 24  1  6  0  0  0
 25 23  1  0  0  0  0
 26 25  1  0  0  0  0
 27 26  1  0  0  0  0
 28 30  1  0  0  0  0
 28 27  1  0  0  0  0
 30 29  1  0  0  0  0
M  END
>  <MODEL>
3

>  <REMARK>
 VINA RESULT:      -6.7      1.459      2.339
  Name = 
  8 active torsions:
  status: ('A' for Active; 'I' for Inactive)
    1  A    between atoms: C_1  and  O_22
    2  A    between atoms: C_2  and  C_14
    3  A    between atoms: C_2  and  O_22
    4  A    between atoms: C_11  and  C_25
    5  A    between atoms: C_14  and  C_20
    6  A    between atoms: C_19  and  C_29
    7  A    between atoms: C_20  and  N_28
    8  A    between atoms: N_28  and  C_29
                            x       y       z     vdW  Elec       q    Type
                         _______ _______ _______ _____ _____    ______ ____

>  <TORSDO>
F 8

$$$$
=
 OpenBabel11052421513D

 30 33  0  0  1  0  0  0  0  0999 V2000
  161.4480  208.8570  150.5110 C   0  0  1  0  0  3  0  0  0  0  0  0
  160.7830  208.8360  151.8730 C   0  0  0  0  0  0  0  0  0  0  0  0
  162.1920  210.1790  150.3100 C   0  0  0  0  0  2  0  0  0  0  0  0
  159.6290  212.5740  151.7000 C   0  0  0  0  0  2  0  0  0  0  0  0
  159.9260  209.3090  154.9430 C   0  0  1  0  0  3  0  0  0  0  0  0
  160.3930  211.3050  151.5990 C   0  0  0  0  0  0  0  0  0  0  0  0
  161.2920  212.6260  149.8910 C   0  0  0  0  0  2  0  0  0  0  0  0
  160.6790  208.0490  155.0130 N   0  0  0  0  0  0  0  0  0  0  0  0
  161.2930  211.3380  150.6260 C   0  0  0  0  0  0  0  0  0  0  0  0
  160.1450  210.0910  152.4600 C   0  0  2  0  0  3  0  0  0  0  0  0
  160.9790  207.6500  156.3710 C   0  0  0  0  0  2  0  0  0  0  0  0
  159.9050  209.8440  156.3630 C   0  0  0  0  0  2  0  0  0  0  0  0
  159.1120  213.7830  149.5880 C   0  0  0  0  0  1  0  0  0  0  0  0
  160.2040  213.4470  150.5830 C   0  0  1  0  0  3  0  0  0  0  0  0
  160.9590  207.8780  152.7270 C   0  0  0  0  0  0  0  0  0  0  0  0
  161.0220  207.2630  153.8580 C   0  0  0  0  0  0  0  0  0  0  0  0
  160.2960  208.6760  157.2600 C   0  0  0  0  0  2  0  0  0  0  0  0
  162.0060  210.5960  154.1630 C   0  0  0  0  0  1  0  0  0  0  0  0
  160.5100  210.3620  153.9550 C   0  0  2  0  0  3  0  0  0  0  0  0
  161.6440  205.9120  153.9610 C   0  0  0  0  0  2  0  0  0  0  0  0
  161.8840  205.4070  152.6830 O   0  0  0  0  0  1  0  0  0  0  0  0
  162.3500  207.7860  150.3570 O   0  0  0  0  0  0  0  0  0  0  0  0
  161.9880  207.0240  149.2240 C   0  0  2  0  0  3  0  0  0  0  0  0
  162.0850  207.8020  147.9160 C   0  0  0  0  0  1  0  0  0  0  0  0
  160.6540  206.2970  149.3760 C   0  0  0  0  0  2  0  0  0  0  0  0
  160.8630  204.7900  149.3720 C   0  0  0  0  0  2  0  0  0  0  0  0
  161.4240  204.3680  148.0990 N   0  0  0  0  0  2  0  0  0  0  0  0
  161.2480  202.9260  148.0060 C   0  0  0  0  0  2  0  0  0  0  0  0
  161.0280  201.0150  149.5870 C   0  0  0  0  0  1  0  0  0  0  0  0
  160.5370  202.4090  149.2430 C   0  0  0  0  0  2  0  0  0  0  0  0
  1 22  1  1  0  0  0
  1  2  1  0  0  0  0
  2 10  1  0  0  0  0
  2 15  2  0  0  0  0
  3  1  1  0  0  0  0
  3  9  1  0  0  0  0
  5  8  1  0  0  0  0
  5 12  1  1  0  0  0
  6  4  1  0  0  0  0
  7 14  1  0  0  0  0
  7  9  1  0  0  0  0
  8 11  1  0  0  0  0
  9  6  2  0  0  0  0
 10  6  1  6  0  0  0
 10 19  1  0  0  0  0
 11 17  1  0  0  0  0
 12 17  1  0  0  0  0
 14 13  1  6  0  0  0
 14  4  1  0  0  0  0
 15 16  2  0  0  0  0
 16 20  1  0  0  0  0
 16  8  1  0  0  0  0
 19 18  1  6  0  0  0
 19  5  1  0  0  0  0
 21 20  1  0  0  0  0
 23 24  1  6  0  0  0
 23 25  1  0  0  0  0
 23 22  1  0  0  0  0
 26 25  1  0  0  0  0
 27 26  1  0  0  0  0
 28 27  1  0  0  0  0
 28 30  1  0  0  0  0
 30 29  1  0  0  0  0
M  END
>  <MODEL>
4

>  <REMARK>
 VINA RESULT:      -6.0      2.192      6.468
  Name = 
  8 active torsions:
  status: ('A' for Active; 'I' for Inactive)
    1  A    between atoms: C_1  and  O_22
    2  A    between atoms: C_2  and  C_14
    3  A    between atoms: C_2  and  O_22
    4  A    between atoms: C_11  and  C_25
    5  A    between atoms: C_14  and  C_20
    6  A    between atoms: C_19  and  C_29
    7  A    between atoms: C_20  and  N_28
    8  A    between atoms: N_28  and  C_29
                            x       y       z     vdW  Elec       q    Type
                         _______ _______ _______ _____ _____    ______ ____

>  <TORSDO>
F 8

$$$$
=
 OpenBabel11052421513D

 30 33  0  0  1  0  0  0  0  0999 V2000
  160.9870  204.4050  149.5710 C   0  0  1  0  0  3  0  0  0  0  0  0
  160.8690  205.9160  149.5660 C   0  0  0  0  0  0  0  0  0  0  0  0
  161.9560  203.9510  148.4780 C   0  0  0  0  0  2  0  0  0  0  0  0
  160.8440  206.2010  145.6600 C   0  0  0  0  0  2  0  0  0  0  0  0
  161.3210  209.0880  149.2250 C   0  0  1  0  0  3  0  0  0  0  0  0
  161.1280  205.8190  147.0660 C   0  0  0  0  0  0  0  0  0  0  0  0
  161.7030  203.9060  145.8490 C   0  0  0  0  0  2  0  0  0  0  0  0
  161.6590  208.8690  150.6380 N   0  0  0  0  0  0  0  0  0  0  0  0
  161.5960  204.5830  147.1650 C   0  0  0  0  0  0  0  0  0  0  0  0
  160.8640  206.7040  148.2600 C   0  0  2  0  0  3  0  0  0  0  0  0
  162.2910  210.0180  151.2490 C   0  0  0  0  0  2  0  0  0  0  0  0
  161.9560  210.4180  148.8630 C   0  0  0  0  0  2  0  0  0  0  0  0
  159.9830  204.4360  144.1330 C   0  0  0  0  0  1  0  0  0  0  0  0
  161.2120  204.9560  144.8520 C   0  0  1  0  0  3  0  0  0  0  0  0
  161.0530  206.6400  150.6240 C   0  0  0  0  0  0  0  0  0  0  0  0
  161.3320  207.6650  151.3550 C   0  0  0  0  0  0  0  0  0  0  0  0
  162.2880  211.1020  150.1840 C   0  0  0  0  0  2  0  0  0  0  0  0
  163.2670  207.6030  148.4530 C   0  0  0  0  0  1  0  0  0  0  0  0
  161.7940  207.9600  148.2610 C   0  0  2  0  0  3  0  0  0  0  0  0
  161.5380  207.5230  152.8250 C   0  0  0  0  0  2  0  0  0  0  0  0
  161.8330  206.1960  153.1320 O   0  0  0  0  0  1  0  0  0  0  0  0
  161.4310  203.9230  150.8180 O   0  0  0  0  0  0  0  0  0  0  0  0
  160.8800  202.6440  151.0530 C   0  0  2  0  0  3  0  0  0  0  0  0
  161.8220  201.7080  151.8010 C   0  0  0  0  0  1  0  0  0  0  0  0
  160.2800  201.9980  149.8050 C   0  0  0  0  0  2  0  0  0  0  0  0
  160.8480  200.6030  149.6000 C   0  0  0  0  0  2  0  0  0  0  0  0
  161.5050  200.5170  148.3060 N   0  0  0  0  0  2  0  0  0  0  0  0
  160.5580  200.9900  147.3070 C   0  0  0  0  0  2  0  0  0  0  0  0
  159.9840  200.9520  144.8850 C   0  0  0  0  0  1  0  0  0  0  0  0
  160.8380  200.3260  145.9720 C   0  0  0  0  0  2  0  0  0  0  0  0
  1 22  1  1  0  0  0
  2  1  1  0  0  0  0
  2 15  2  0  0  0  0
  3  1  1  0  0  0  0
  4  6  1  0  0  0  0
  5 12  1  6  0  0  0
  5  8  1  0  0  0  0
  6  9  2  0  0  0  0
  7  9  1  0  0  0  0
  8 11  1  0  0  0  0
  8 16  1  0  0  0  0
  9  3  1  0  0  0  0
 10  6  1  6  0  0  0
 10 19  1  0  0  0  0
 10  2  1  0  0  0  0
 12 17  1  0  0  0  0
 14 13  1  1  0  0  0
 14  4  1  0  0  0  0
 14  7  1  0  0  0  0
 15 16  2  0  0  0  0
 16 20  1  0  0  0  0
 17 11  1  0  0  0  0
 19 18  1  1  0  0  0
 19  5  1  0  0  0  0
 20 21  1  0  0  0  0
 22 23  1  0  0  0  0
 23 24  1  6  0  0  0
 25 23  1  0  0  0  0
 26 25  1  0  0  0  0
 27 26  1  0  0  0  0
 28 27  1  0  0  0  0
 29 30  1  0  0  0  0
 30 28  1  0  0  0  0
M  END
>  <MODEL>
5

>  <REMARK>
 VINA RESULT:      -5.8      2.781      8.606
  Name = 
  8 active torsions:
  status: ('A' for Active; 'I' for Inactive)
    1  A    between atoms: C_1  and  O_22
    2  A    between atoms: C_2  and  C_14
    3  A    between atoms: C_2  and  O_22
    4  A    between atoms: C_11  and  C_25
    5  A    between atoms: C_14  and  C_20
    6  A    between atoms: C_19  and  C_29
    7  A    between atoms: C_20  and  N_28
    8  A    between atoms: N_28  and  C_29
                            x       y       z     vdW  Elec       q    Type
                         _______ _______ _______ _____ _____    ______ ____

>  <TORSDO>
F 8

$$$$
=
 OpenBabel11052421513D

 30 33  0  0  1  0  0  0  0  0999 V2000
  161.2370  207.8360  150.6110 C   0  0  1  0  0  3  0  0  0  0  0  0
  160.8310  208.5230  151.8990 C   0  0  0  0  0  0  0  0  0  0  0  0
  162.3450  208.6320  149.9170 C   0  0  0  0  0  2  0  0  0  0  0  0
  161.0070  212.1290  150.3840 C   0  0  0  0  0  2  0  0  0  0  0  0
  160.6870  210.2800  154.5960 C   0  0  1  0  0  3  0  0  0  0  0  0
  161.2670  210.7120  150.7410 C   0  0  0  0  0  0  0  0  0  0  0  0
  162.2770  210.9450  148.6450 C   0  0  0  0  0  2  0  0  0  0  0  0
  160.9670  208.9320  155.1090 N   0  0  0  0  0  0  0  0  0  0  0  0
  161.9570  210.0770  149.8040 C   0  0  0  0  0  0  0  0  0  0  0  0
  160.7610  210.0430  151.9960 C   0  0  2  0  0  3  0  0  0  0  0  0
  161.3260  208.9290  156.5110 C   0  0  0  0  0  2  0  0  0  0  0  0
  161.0760  211.2260  155.7180 C   0  0  0  0  0  2  0  0  0  0  0  0
  160.6030  212.6620  147.9870 C   0  0  0  0  0  1  0  0  0  0  0  0
  161.6590  212.2950  149.0100 C   0  0  1  0  0  3  0  0  0  0  0  0
  160.8030  207.9140  153.0420 C   0  0  0  0  0  0  0  0  0  0  0  0
  160.8320  207.7370  154.3190 C   0  0  0  0  0  0  0  0  0  0  0  0
  161.1830  210.3690  156.9740 C   0  0  0  0  0  2  0  0  0  0  0  0
  162.9280  210.3510  153.3470 C   0  0  0  0  0  1  0  0  0  0  0  0
  161.4300  210.6400  153.2750 C   0  0  2  0  0  3  0  0  0  0  0  0
  160.9650  206.3700  154.8990 C   0  0  0  0  0  2  0  0  0  0  0  0
  161.2040  205.4490  153.8800 O   0  0  0  0  0  1  0  0  0  0  0  0
  161.6830  206.5200  150.8420 O   0  0  0  0  0  0  0  0  0  0  0  0
  160.7540  205.6040  150.2990 C   0  0  2  0  0  3  0  0  0  0  0  0
  161.0630  204.1520  150.6450 C   0  0  0  0  0  1  0  0  0  0  0  0
  160.4940  205.8100  148.8080 C   0  0  0  0  0  2  0  0  0  0  0  0
  161.4680  204.9880  147.9780 C   0  0  0  0  0  2  0  0  0  0  0  0
  162.2090  205.8540  147.0760 N   0  0  0  0  0  2  0  0  0  0  0  0
  162.7660  205.0120  146.0280 C   0  0  0  0  0  2  0  0  0  0  0  0
  161.2060  205.4520  144.1380 C   0  0  0  0  0  1  0  0  0  0  0  0
  161.6500  204.4370  145.1760 C   0  0  0  0  0  2  0  0  0  0  0  0
  1 22  1  1  0  0  0
  1  2  1  0  0  0  0
  2 10  1  0  0  0  0
  2 15  2  0  0  0  0
  3  1  1  0  0  0  0
  4  6  1  0  0  0  0
  5  8  1  0  0  0  0
  5 12  1  1  0  0  0
  7 14  1  0  0  0  0
  7  9  1  0  0  0  0
  8 11  1  0  0  0  0
  9  3  1  0  0  0  0
  9  6  2  0  0  0  0
 10  6  1  6  0  0  0
 10 19  1  0  0  0  0
 11 17  1  0  0  0  0
 12 17  1  0  0  0  0
 14 13  1  6  0  0  0
 14  4  1  0  0  0  0
 15 16  2  0  0  0  0
 16 20  1  0  0  0  0
 16  8  1  0  0  0  0
 19 18  1  1  0  0  0
 19  5  1  0  0  0  0
 21 20  1  0  0  0  0
 23 24  1  6  0  0  0
 23 22  1  0  0  0  0
 25 23  1  0  0  0  0
 26 25  1  0  0  0  0
 27 26  1  0  0  0  0
 28 27  1  0  0  0  0
 29 30  1  0  0  0  0
 30 28  1  0  0  0  0
M  END
>  <MODEL>
6

>  <REMARK>
 VINA RESULT:      -5.6      2.369      6.893
  Name = 
  8 active torsions:
  status: ('A' for Active; 'I' for Inactive)
    1  A    between atoms: C_1  and  O_22
    2  A    between atoms: C_2  and  C_14
    3  A    between atoms: C_2  and  O_22
    4  A    between atoms: C_11  and  C_25
    5  A    between atoms: C_14  and  C_20
    6  A    between atoms: C_19  and  C_29
    7  A    between atoms: C_20  and  N_28
    8  A    between atoms: N_28  and  C_29
                            x       y       z     vdW  Elec       q    Type
                         _______ _______ _______ _____ _____    ______ ____

>  <TORSDO>
F 8

$$$$
=
 OpenBabel11052421513D

 30 33  0  0  1  0  0  0  0  0999 V2000
  160.8790  204.4540  150.6330 C   0  0  1  0  0  3  0  0  0  0  0  0
  160.6180  205.8850  151.0550 C   0  0  0  0  0  0  0  0  0  0  0  0
  161.9530  204.4140  149.5430 C   0  0  0  0  0  2  0  0  0  0  0  0
  160.8070  207.3090  147.4120 C   0  0  0  0  0  2  0  0  0  0  0  0
  160.7870  209.0410  151.6860 C   0  0  1  0  0  3  0  0  0  0  0  0
  161.0390  206.5510  148.6670 C   0  0  0  0  0  0  0  0  0  0  0  0
  161.8670  205.1300  147.0030 C   0  0  0  0  0  2  0  0  0  0  0  0
  161.0560  208.4390  153.0000 N   0  0  0  0  0  0  0  0  0  0  0  0
  161.6160  205.3780  148.4440 C   0  0  0  0  0  0  0  0  0  0  0  0
  160.6190  207.0220  150.0380 C   0  0  2  0  0  3  0  0  0  0  0  0
  161.5380  209.3990  153.9690 C   0  0  0  0  0  2  0  0  0  0  0  0
  161.3130  210.4610  151.7800 C   0  0  0  0  0  2  0  0  0  0  0  0
  160.2130  206.0160  145.3710 C   0  0  0  0  0  1  0  0  0  0  0  0
  161.3400  206.3890  146.3130 C   0  0  1  0  0  3  0  0  0  0  0  0
  160.6670  206.2760  152.2890 C   0  0  0  0  0  0  0  0  0  0  0  0
  160.8020  207.0560  153.3070 C   0  0  0  0  0  0  0  0  0  0  0  0
  161.4960  210.7460  153.2660 C   0  0  0  0  0  2  0  0  0  0  0  0
  162.9090  207.9960  150.6890 C   0  0  0  0  0  1  0  0  0  0  0  0
  161.4230  208.2850  150.4820 C   0  0  2  0  0  3  0  0  0  0  0  0
  160.9300  206.5020  154.6850 C   0  0  0  0  0  2  0  0  0  0  0  0
  159.8850  206.9710  155.4780 O   0  0  0  0  0  1  0  0  0  0  0  0
  161.2900  203.6580  151.7220 O   0  0  0  0  0  0  0  0  0  0  0  0
  161.0750  202.2960  151.4180 C   0  0  2  0  0  3  0  0  0  0  0  0
  162.2910  201.4170  151.6850 C   0  0  0  0  0  1  0  0  0  0  0  0
  160.4770  202.0650  150.0310 C   0  0  0  0  0  2  0  0  0  0  0  0
  160.9100  200.7160  149.4800 C   0  0  0  0  0  2  0  0  0  0  0  0
  161.3920  200.8640  148.1160 N   0  0  0  0  0  2  0  0  0  0  0  0
  160.4920  201.7860  147.4380 C   0  0  0  0  0  2  0  0  0  0  0  0
  159.9580  201.1840  145.0820 C   0  0  0  0  0  1  0  0  0  0  0  0
  160.9090  201.9440  145.9880 C   0  0  0  0  0  2  0  0  0  0  0  0
  1  2  1  0  0  0  0
  1 22  1  1  0  0  0
  2 15  2  0  0  0  0
  3  1  1  0  0  0  0
  4  6  1  0  0  0  0
  5 12  1  1  0  0  0
  5  8  1  0  0  0  0
  7  9  1  0  0  0  0
  8 16  1  0  0  0  0
  8 11  1  0  0  0  0
  9  6  2  0  0  0  0
  9  3  1  0  0  0  0
 10  6  1  6  0  0  0
 10 19  1  0  0  0  0
 10  2  1  0  0  0  0
 12 17  1  0  0  0  0
 14 13  1  6  0  0  0
 14  7  1  0  0  0  0
 14  4  1  0  0  0  0
 15 16  2  0  0  0  0
 16 20  1  0  0  0  0
 17 11  1  0  0  0  0
 19 18  1  1  0  0  0
 19  5  1  0  0  0  0
 20 21  1  0  0  0  0
 23 24  1  6  0  0  0
 23 22  1  0  0  0  0
 25 23  1  0  0  0  0
 26 25  1  0  0  0  0
 27 26  1  0  0  0  0
 28 27  1  0  0  0  0
 29 30  1  0  0  0  0
 30 28  1  0  0  0  0
M  END
>  <MODEL>
7

>  <REMARK>
 VINA RESULT:      -5.3      3.009      8.246
  Name = 
  8 active torsions:
  status: ('A' for Active; 'I' for Inactive)
    1  A    between atoms: C_1  and  O_22
    2  A    between atoms: C_2  and  C_14
    3  A    between atoms: C_2  and  O_22
    4  A    between atoms: C_11  and  C_25
    5  A    between atoms: C_14  and  C_20
    6  A    between atoms: C_19  and  C_29
    7  A    between atoms: C_20  and  N_28
    8  A    between atoms: N_28  and  C_29
                            x       y       z     vdW  Elec       q    Type
                         _______ _______ _______ _____ _____    ______ ____

>  <TORSDO>
F 8

$$$$
=
 OpenBabel11052421513D

 30 33  0  0  1  0  0  0  0  0999 V2000
  161.2770  207.6800  151.2640 C   0  0  1  0  0  3  0  0  0  0  0  0
  160.7050  208.5330  152.3780 C   0  0  0  0  0  0  0  0  0  0  0  0
  162.4350  208.4130  150.5830 C   0  0  0  0  0  2  0  0  0  0  0  0
  160.9540  211.8760  150.3550 C   0  0  0  0  0  2  0  0  0  0  0  0
  160.1990  210.6650  154.7400 C   0  0  1  0  0  3  0  0  0  0  0  0
  161.2100  210.5420  150.9530 C   0  0  0  0  0  0  0  0  0  0  0  0
  162.4500  210.5040  148.9700 C   0  0  0  0  0  2  0  0  0  0  0  0
  160.4560  209.4230  155.4830 N   0  0  0  0  0  0  0  0  0  0  0  0
  162.0220  209.8060  150.2060 C   0  0  0  0  0  0  0  0  0  0  0  0
  160.5810  210.0460  152.2320 C   0  0  2  0  0  3  0  0  0  0  0  0
  160.6490  209.6460  156.8990 C   0  0  0  0  0  2  0  0  0  0  0  0
  160.4290  211.7850  155.7390 C   0  0  0  0  0  2  0  0  0  0  0  0
  160.8160  212.0250  147.8750 C   0  0  0  0  0  1  0  0  0  0  0  0
  161.7560  211.8640  149.0530 C   0  0  1  0  0  3  0  0  0  0  0  0
  160.5620  208.1010  153.5910 C   0  0  0  0  0  0  0  0  0  0  0  0
  160.4470  208.1190  154.8760 C   0  0  0  0  0  0  0  0  0  0  0  0
  160.4140  211.1320  157.1160 C   0  0  0  0  0  2  0  0  0  0  0  0
  162.5670  210.6510  153.7500 C   0  0  0  0  0  1  0  0  0  0  0  0
  161.0800  210.8570  153.4700 C   0  0  2  0  0  3  0  0  0  0  0  0
  160.5510  206.8620  155.6700 C   0  0  0  0  0  2  0  0  0  0  0  0
  159.7910  206.9780  156.8330 O   0  0  0  0  0  1  0  0  0  0  0  0
  161.7300  206.4350  151.7430 O   0  0  0  0  0  0  0  0  0  0  0  0
  160.8360  205.4190  151.3370 C   0  0  2  0  0  3  0  0  0  0  0  0
  160.9420  204.1500  152.1740 C   0  0  0  0  0  1  0  0  0  0  0  0
  160.8730  205.1370  149.8360 C   0  0  0  0  0  2  0  0  0  0  0  0
  160.8640  203.6390  149.5730 C   0  0  0  0  0  2  0  0  0  0  0  0
  161.2480  203.3710  148.1970 N   0  0  0  0  0  2  0  0  0  0  0  0
  161.4990  204.6550  147.5600 C   0  0  0  0  0  2  0  0  0  0  0  0
  163.4600  204.7000  146.0270 C   0  0  0  0  0  1  0  0  0  0  0  0
  161.9680  204.4430  146.1330 C   0  0  0  0  0  2  0  0  0  0  0  0
  1 22  1  1  0  0  0
  1  2  1  0  0  0  0
  2 15  2  0  0  0  0
  3  1  1  0  0  0  0
  4  6  1  0  0  0  0
  5  8  1  0  0  0  0
  5 12  1  1  0  0  0
  7 14  1  0  0  0  0
  7  9  1  0  0  0  0
  8 11  1  0  0  0  0
  9  3  1  0  0  0  0
  9  6  2  0  0  0  0
 10  6  1  6  0  0  0
 10  2  1  0  0  0  0
 10 19  1  0  0  0  0
 11 17  1  0  0  0  0
 12 17  1  0  0  0  0
 14 13  1  6  0  0  0
 14  4  1  0  0  0  0
 15 16  2  0  0  0  0
 16  8  1  0  0  0  0
 16 20  1  0  0  0  0
 19 18  1  1  0  0  0
 19  5  1  0  0  0  0
 20 21  1  0  0  0  0
 23 22  1  0  0  0  0
 23 24  1  1  0  0  0
 25 23  1  0  0  0  0
 26 25  1  0  0  0  0
 27 26  1  0  0  0  0
 28 27  1  0  0  0  0
 29 30  1  0  0  0  0
 30 28  1  0  0  0  0
M  END
>  <MODEL>
8

>  <REMARK>
 VINA RESULT:      -5.3      2.589      7.337
  Name = 
  8 active torsions:
  status: ('A' for Active; 'I' for Inactive)
    1  A    between atoms: C_1  and  O_22
    2  A    between atoms: C_2  and  C_14
    3  A    between atoms: C_2  and  O_22
    4  A    between atoms: C_11  and  C_25
    5  A    between atoms: C_14  and  C_20
    6  A    between atoms: C_19  and  C_29
    7  A    between atoms: C_20  and  N_28
    8  A    between atoms: N_28  and  C_29
                            x       y       z     vdW  Elec       q    Type
                         _______ _______ _______ _____ _____    ______ ____

>  <TORSDO>
F 8

$$$$
=
 OpenBabel11052421513D

 30 33  0  0  1  0  0  0  0  0999 V2000
  161.7280  206.3690  148.7560 C   0  0  1  0  0  3  0  0  0  0  0  0
  162.0700  207.1500  150.0090 C   0  0  0  0  0  0  0  0  0  0  0  0
  160.5630  205.4160  149.0320 C   0  0  0  0  0  2  0  0  0  0  0  0
  161.6120  204.0850  152.4040 C   0  0  0  0  0  2  0  0  0  0  0  0
  162.0580  208.6530  152.8590 C   0  0  1  0  0  3  0  0  0  0  0  0
  161.4660  205.0930  151.3230 C   0  0  0  0  0  0  0  0  0  0  0  0
  160.4520  203.1820  150.4350 C   0  0  0  0  0  2  0  0  0  0  0  0
  161.8840  209.7640  151.9130 N   0  0  0  0  0  0  0  0  0  0  0  0
  160.8340  204.6040  150.2650 C   0  0  0  0  0  0  0  0  0  0  0  0
  162.0170  206.4960  151.3860 C   0  0  2  0  0  3  0  0  0  0  0  0
  161.5190  211.0040  152.5640 C   0  0  0  0  0  2  0  0  0  0  0  0
  161.5870  209.1900  154.1990 C   0  0  0  0  0  2  0  0  0  0  0  0
  161.9850  201.7180  151.7350 C   0  0  0  0  0  1  0  0  0  0  0  0
  160.9570  202.8270  151.8340 C   0  0  1  0  0  3  0  0  0  0  0  0
  162.1400  208.4430  150.0350 C   0  0  0  0  0  0  0  0  0  0  0  0
  162.1190  209.6460  150.4980 C   0  0  0  0  0  0  0  0  0  0  0  0
  161.5420  210.7060  154.0540 C   0  0  0  0  0  2  0  0  0  0  0  0
  159.8250  207.6030  152.1510 C   0  0  0  0  0  1  0  0  0  0  0  0
  161.2950  207.3490  152.4780 C   0  0  2  0  0  3  0  0  0  0  0  0
  162.0930  210.8190  149.5790 C   0  0  0  0  0  2  0  0  0  0  0  0
  161.8870  210.3850  148.2700 O   0  0  0  0  0  1  0  0  0  0  0  0
  161.3880  207.2240  147.6880 O   0  0  0  0  0  0  0  0  0  0  0  0
  161.6330  206.5680  146.4620 C   0  0  2  0  0  3  0  0  0  0  0  0
  160.3850  206.4120  145.6000 C   0  0  0  0  0  1  0  0  0  0  0  0
  162.4090  205.2610  146.6120 C   0  0  0  0  0  2  0  0  0  0  0  0
  162.3030  204.4280  145.3450 C   0  0  0  0  0  2  0  0  0  0  0  0
  161.4100  203.3010  145.5610 N   0  0  0  0  0  2  0  0  0  0  0  0
  161.5880  202.8660  146.9390 C   0  0  0  0  0  2  0  0  0  0  0  0
  161.5650  200.6710  148.1120 C   0  0  0  0  0  1  0  0  0  0  0  0
  160.7950  201.5970  147.1880 C   0  0  0  0  0  2  0  0  0  0  0  0
  1 22  1  6  0  0  0
  1  3  1  0  0  0  0
  1  2  1  0  0  0  0
  2 15  2  0  0  0  0
  3  9  1  0  0  0  0
  5 12  1  1  0  0  0
  6 10  1  0  0  0  0
  6  4  1  0  0  0  0
  7 14  1  0  0  0  0
  8 11  1  0  0  0  0
  8  5  1  0  0  0  0
  9  7  1  0  0  0  0
  9  6  2  0  0  0  0
 10  2  1  6  0  0  0
 10 19  1  0  0  0  0
 11 17  1  0  0  0  0
 14 13  1  6  0  0  0
 14  4  1  0  0  0  0
 15 16  2  0  0  0  0
 16  8  1  0  0  0  0
 17 12  1  0  0  0  0
 19 18  1  6  0  0  0
 19  5  1  0  0  0  0
 20 16  1  0  0  0  0
 21 20  1  0  0  0  0
 23 24  1  1  0  0  0
 23 25  1  0  0  0  0
 23 22  1  0  0  0  0
 26 27  1  0  0  0  0
 26 25  1  0  0  0  0
 27 28  1  0  0  0  0
 28 30  1  0  0  0  0
 30 29  1  0  0  0  0
M  END
>  <MODEL>
9

>  <REMARK>
 VINA RESULT:      -5.1      2.034      6.906
  Name = 
  8 active torsions:
  status: ('A' for Active; 'I' for Inactive)
    1  A    between atoms: C_1  and  O_22
    2  A    between atoms: C_2  and  C_14
    3  A    between atoms: C_2  and  O_22
    4  A    between atoms: C_11  and  C_25
    5  A    between atoms: C_14  and  C_20
    6  A    between atoms: C_19  and  C_29
    7  A    between atoms: C_20  and  N_28
    8  A    between atoms: N_28  and  C_29
                            x       y       z     vdW  Elec       q    Type
                         _______ _______ _______ _____ _____    ______ ____

>  <TORSDO>
F 8

$$$$
