=
 OpenBabel11062409453D

 34 40  0  0  1  0  0  0  0  0999 V2000
  160.0790  209.3390  153.5830 C   0  0  0  0  0  0  0  0  0  0  0  0
  158.5340  212.4040  154.9440 C   0  0  0  0  0  3  0  0  0  0  0  0
  159.6030  210.5640  156.0290 N   0  0  0  0  0  0  0  0  0  0  0  0
  161.1740  206.3740  153.2570 S   0  0  0  0  0  0  0  0  0  0  0  0
  160.5000  208.8070  152.3220 N   0  0  0  0  0  2  0  0  0  0  0  0
  160.9900  207.3140  154.7790 C   0  0  0  0  0  0  0  0  0  0  0  0
  160.8240  207.2690  157.2610 C   0  0  0  0  0  2  0  0  0  0  0  0
  161.2320  206.6870  155.9340 C   0  0  0  0  0  3  0  0  0  0  0  0
  161.5760  207.8260  152.2400 C   0  0  2  0  0  3  0  0  0  0  0  0
  160.2100  209.3480  156.0040 C   0  0  0  0  0  0  0  0  0  0  0  0
  160.4080  208.6800  154.7820 C   0  0  0  0  0  0  0  0  0  0  0  0
  160.8210  208.7980  157.2590 C   0  0  0  0  0  2  0  0  0  0  0  0
  158.1500  213.0460  153.7610 C   0  0  0  0  0  0  0  0  0  0  0  0
  158.3970  212.4120  152.5360 C   0  0  0  0  0  3  0  0  0  0  0  0
  159.1750  211.1680  154.8890 C   0  0  0  0  0  0  0  0  0  0  0  0
  159.0270  211.2080  152.4970 N   0  0  0  0  0  0  0  0  0  0  0  0
  159.4170  210.5700  153.6360 C   0  0  0  0  0  0  0  0  0  0  0  0
  162.3020  207.9740  148.4400 C   0  0  0  0  0  2  0  0  0  0  0  0
  161.6630  206.0510  150.4480 N   0  0  0  0  0  2  0  0  0  0  0  0
  161.0800  205.0030  146.4040 N   0  0  0  0  0  0  0  0  0  0  0  0
  161.8390  206.2270  146.6840 C   0  0  0  0  0  2  0  0  0  0  0  0
  161.5360  206.7000  148.1000 C   0  0  1  0  0  3  0  0  0  0  0  0
  161.2240  204.3120  148.7680 C   0  0  0  0  0  2  0  0  0  0  0  0
  161.9500  205.6100  149.0870 C   0  0  2  0  0  3  0  0  0  0  0  0
  161.5150  203.9310  147.3150 C   0  0  0  0  0  2  0  0  0  0  0  0
  161.8240  207.4280  150.8210 C   0  0  0  0  0  0  0  0  0  0  0  0
  162.0730  208.3550  149.8800 C   0  0  0  0  0  3  0  0  0  0  0  0
  161.3310  204.6280  145.0080 C   0  0  1  0  0  3  0  0  0  0  0  0
  160.4910  203.5880  144.5910 O   0  0  0  0  0  1  0  0  0  0  0  0
  161.1760  205.8280  144.0910 C   0  0  0  0  0  1  0  0  0  0  0  0
  155.9240  214.2610  153.6640 N   0  0  0  0  0  0  0  0  0  0  0  0
  156.5200  214.4530  154.9930 C   0  0  0  0  0  2  0  0  0  0  0  0
  155.3970  212.8990  153.6640 C   0  0  0  0  0  1  0  0  0  0  0  0
  157.4040  214.3580  153.8300 C   0  0  1  0  0  3  0  0  0  0  0  0
  1 17  2  0  0  0  0
  1 11  1  0  0  0  0
  4  6  1  0  0  0  0
  5  1  1  0  0  0  0
  6 11  1  0  0  0  0
  6  8  2  0  0  0  0
  8  7  1  0  0  0  0
  9 26  1  6  0  0  0
  9  5  1  0  0  0  0
  9  4  1  0  0  0  0
 10  3  1  0  0  0  0
 10 12  1  0  0  0  0
 11 10  2  0  0  0  0
 12  7  1  0  0  0  0
 13  2  2  0  0  0  0
 14 13  1  0  0  0  0
 15  2  1  0  0  0  0
 15  3  2  0  0  0  0
 16 14  2  0  0  0  0
 16 17  1  0  0  0  0
 17 15  1  0  0  0  0
 18 27  1  0  0  0  0
 19 26  1  0  0  0  0
 20 21  1  0  0  0  0
 20 25  1  0  0  0  0
 22 21  1  6  0  0  0
 22 18  1  0  0  0  0
 22 24  1  0  0  0  0
 24 23  1  6  0  0  0
 24 19  1  0  0  0  0
 25 23  1  0  0  0  0
 27 26  2  0  0  0  0
 28 30  1  6  0  0  0
 28 20  1  0  0  0  0
 29 28  1  0  0  0  0
 31 33  1  0  0  0  0
 31 34  1  0  0  0  0
 31 32  1  0  0  0  0
 34 13  1  1  0  0  0
 34 32  1  0  0  0  0
M  END
>  <MODEL>
1

>  <REMARK>
 VINA RESULT:      -8.0      0.000      0.000
  Name = 
  3 active torsions:
  status: ('A' for Active; 'I' for Inactive)
    1  A    between atoms: N_7  and  C_11
    2  A    between atoms: C_18  and  C_30
    3  A    between atoms: C_23  and  C_25
                            x       y       z     vdW  Elec       q    Type
                         _______ _______ _______ _____ _____    ______ ____

>  <TORSDO>
F 3

$$$$
=
 OpenBabel11062409453D

 34 40  0  0  1  0  0  0  0  0999 V2000
  161.4240  208.7580  150.8200 C   0  0  0  0  0  0  0  0  0  0  0  0
  160.5170  209.7320  154.2650 C   0  0  0  0  0  3  0  0  0  0  0  0
  160.8140  211.0360  152.2860 N   0  0  0  0  0  0  0  0  0  0  0  0
  162.5310  208.7980  147.8420 S   0  0  0  0  0  0  0  0  0  0  0  0
  161.5410  207.5730  150.0250 N   0  0  0  0  0  2  0  0  0  0  0  0
  161.9510  210.1950  148.8150 C   0  0  0  0  0  0  0  0  0  0  0  0
  161.9240  212.6630  149.1260 C   0  0  0  0  0  2  0  0  0  0  0  0
  162.0880  211.4180  148.2950 C   0  0  0  0  0  3  0  0  0  0  0  0
  161.3620  207.6170  148.5780 C   0  0  2  0  0  3  0  0  0  0  0  0
  161.1400  211.1620  150.9730 C   0  0  0  0  0  0  0  0  0  0  0  0
  161.5110  210.0300  150.2240 C   0  0  0  0  0  0  0  0  0  0  0  0
  160.9380  212.4770  150.2810 C   0  0  0  0  0  2  0  0  0  0  0  0
  160.4810  208.4780  154.8860 C   0  0  0  0  0  0  0  0  0  0  0  0
  160.7940  207.3390  154.1310 C   0  0  0  0  0  3  0  0  0  0  0  0
  160.8330  209.8300  152.9110 C   0  0  0  0  0  0  0  0  0  0  0  0
  161.0960  207.4490  152.8090 N   0  0  0  0  0  0  0  0  0  0  0  0
  161.1280  208.6590  152.1840 C   0  0  0  0  0  0  0  0  0  0  0  0
  162.0260  204.7480  146.0650 C   0  0  0  0  0  2  0  0  0  0  0  0
  161.2160  205.1050  148.7760 N   0  0  0  0  0  2  0  0  0  0  0  0
  160.4400  201.3980  146.9180 N   0  0  0  0  0  0  0  0  0  0  0  0
  161.3370  202.3290  146.2240 C   0  0  0  0  0  2  0  0  0  0  0  0
  161.1160  203.7390  146.7570 C   0  0  1  0  0  3  0  0  0  0  0  0
  160.5510  202.7470  148.9800 C   0  0  0  0  0  2  0  0  0  0  0  0
  161.4250  203.7590  148.2530 C   0  0  2  0  0  3  0  0  0  0  0  0
  160.7700  201.3690  148.3530 C   0  0  0  0  0  2  0  0  0  0  0  0
  161.5360  206.2570  147.9820 C   0  0  0  0  0  0  0  0  0  0  0  0
  161.8690  206.1100  146.6880 C   0  0  0  0  0  3  0  0  0  0  0  0
  160.6200  200.0710  146.3200 C   0  0  1  0  0  3  0  0  0  0  0  0
  160.5410  200.1150  144.9230 O   0  0  0  0  0  1  0  0  0  0  0  0
  161.9400  199.4590  146.7520 C   0  0  0  0  0  1  0  0  0  0  0  0
  161.2980  208.8480  157.2610 N   0  0  0  0  0  0  0  0  0  0  0  0
  160.1190  209.6920  157.0180 C   0  0  0  0  0  2  0  0  0  0  0  0
  162.4030  209.5130  156.5740 C   0  0  0  0  0  1  0  0  0  0  0  0
  160.1960  208.3840  156.3670 C   0  0  1  0  0  3  0  0  0  0  0  0
  1 17  1  0  0  0  0
  2 13  1  0  0  0  0
  3 15  1  0  0  0  0
  4  9  1  0  0  0  0
  4  6  1  0  0  0  0
  5  1  1  0  0  0  0
  6 11  1  0  0  0  0
  7 12  1  0  0  0  0
  8  6  2  0  0  0  0
  8  7  1  0  0  0  0
  9 26  1  6  0  0  0
  9  5  1  0  0  0  0
 10  3  2  0  0  0  0
 11  1  2  0  0  0  0
 11 10  1  0  0  0  0
 12 10  1  0  0  0  0
 14 13  2  0  0  0  0
 15  2  2  0  0  0  0
 16 14  1  0  0  0  0
 17 16  2  0  0  0  0
 17 15  1  0  0  0  0
 18 27  1  0  0  0  0
 20 25  1  0  0  0  0
 21 22  1  0  0  0  0
 21 20  1  0  0  0  0
 22 18  1  6  0  0  0
 22 24  1  0  0  0  0
 24 19  1  0  0  0  0
 24 23  1  1  0  0  0
 25 23  1  0  0  0  0
 26 19  1  0  0  0  0
 27 26  2  0  0  0  0
 28 30  1  6  0  0  0
 28 20  1  0  0  0  0
 29 28  1  0  0  0  0
 32 31  1  0  0  0  0
 33 31  1  0  0  0  0
 34 13  1  6  0  0  0
 34 32  1  0  0  0  0
 34 31  1  0  0  0  0
M  END
>  <MODEL>
2

>  <REMARK>
 VINA RESULT:      -6.0      2.885      5.271
  Name = 
  3 active torsions:
  status: ('A' for Active; 'I' for Inactive)
    1  A    between atoms: N_7  and  C_11
    2  A    between atoms: C_18  and  C_30
    3  A    between atoms: C_23  and  C_25
                            x       y       z     vdW  Elec       q    Type
                         _______ _______ _______ _____ _____    ______ ____

>  <TORSDO>
F 3

$$$$
=
 OpenBabel11062409453D

 34 40  0  0  1  0  0  0  0  0999 V2000
  160.2960  209.4910  153.4100 C   0  0  0  0  0  0  0  0  0  0  0  0
  159.1930  213.0050  153.6960 C   0  0  0  0  0  3  0  0  0  0  0  0
  160.5550  211.6600  155.1250 N   0  0  0  0  0  0  0  0  0  0  0  0
  161.2750  206.5480  154.0960 S   0  0  0  0  0  0  0  0  0  0  0  0
  160.3280  208.4430  152.4350 N   0  0  0  0  0  2  0  0  0  0  0  0
  161.5430  208.0450  155.0570 C   0  0  0  0  0  0  0  0  0  0  0  0
  162.1220  209.0420  157.2610 C   0  0  0  0  0  2  0  0  0  0  0  0
  162.1230  207.9230  156.2540 C   0  0  0  0  0  3  0  0  0  0  0  0
  161.3420  207.3960  152.4900 C   0  0  2  0  0  3  0  0  0  0  0  0
  161.1400  210.4790  155.4580 C   0  0  0  0  0  0  0  0  0  0  0  0
  160.9730  209.3500  154.6350 C   0  0  0  0  0  0  0  0  0  0  0  0
  162.1030  210.4250  156.6070 C   0  0  0  0  0  2  0  0  0  0  0  0
  158.4680  213.1450  152.5070 C   0  0  0  0  0  0  0  0  0  0  0  0
  158.3460  212.0390  151.6540 C   0  0  0  0  0  3  0  0  0  0  0  0
  159.8010  211.7890  154.0020 C   0  0  0  0  0  0  0  0  0  0  0  0
  158.9490  210.8600  151.9630 N   0  0  0  0  0  0  0  0  0  0  0  0
  159.6660  210.7050  153.1110 C   0  0  0  0  0  0  0  0  0  0  0  0
  161.0920  204.1070  150.4630 C   0  0  0  0  0  2  0  0  0  0  0  0
  161.0180  206.9260  150.0310 N   0  0  0  0  0  0  0  0  0  0  0  0
  161.7630  204.4060  146.7310 N   0  0  0  0  0  0  0  0  0  0  0  0
  161.3010  203.7770  147.9730 C   0  0  0  0  0  2  0  0  0  0  0  0
  161.5550  204.7180  149.1440 C   0  0  1  0  0  3  0  0  0  0  0  0
  161.1980  206.6470  147.5960 C   0  0  0  0  0  2  0  0  0  0  0  0
  160.7820  206.0150  148.9160 C   0  0  2  0  0  3  0  0  0  0  0  0
  160.9820  205.6290  146.4750 C   0  0  0  0  0  2  0  0  0  0  0  0
  161.1600  206.4240  151.3690 C   0  0  0  0  0  0  0  0  0  0  0  0
  161.2490  205.1010  151.5850 C   0  0  0  0  0  2  0  0  0  0  0  0
  161.5820  203.4400  145.6430 C   0  0  1  0  0  3  0  0  0  0  0  0
  161.1330  202.2020  146.1160 O   0  0  0  0  0  1  0  0  0  0  0  0
  160.6240  203.9810  144.5960 C   0  0  0  0  0  1  0  0  0  0  0  0
  156.9250  214.4530  150.9740 N   0  0  0  0  0  0  0  0  0  0  0  0
  156.3050  214.3420  152.3020 C   0  0  0  0  0  2  0  0  0  0  0  0
  156.7490  213.1450  150.3490 C   0  0  0  0  0  1  0  0  0  0  0  0
  157.7620  214.4470  152.2100 C   0  0  1  0  0  3  0  0  0  0  0  0
  1 11  1  0  0  0  0
  2 15  1  0  0  0  0
  3 10  1  0  0  0  0
  4  6  1  0  0  0  0
  5  9  1  0  0  0  0
  5  1  1  0  0  0  0
  6  8  2  0  0  0  0
  8  7  1  0  0  0  0
  9 26  1  6  0  0  0
  9  4  1  0  0  0  0
 10 12  1  0  0  0  0
 11  6  1  0  0  0  0
 11 10  2  0  0  0  0
 12  7  1  0  0  0  0
 13  2  2  0  0  0  0
 14 16  2  0  0  0  0
 14 13  1  0  0  0  0
 15  3  2  0  0  0  0
 16 17  1  0  0  0  0
 17  1  2  0  0  0  0
 17 15  1  0  0  0  0
 18 27  1  0  0  0  0
 19 26  2  0  0  0  0
 20 21  1  0  0  0  0
 22 21  1  6  0  0  0
 22 18  1  0  0  0  0
 24 23  1  6  0  0  0
 24 22  1  0  0  0  0
 24 19  1  0  0  0  0
 25 20  1  0  0  0  0
 25 23  1  0  0  0  0
 26 27  1  0  0  0  0
 28 30  1  6  0  0  0
 28 29  1  0  0  0  0
 28 20  1  0  0  0  0
 31 34  1  0  0  0  0
 31 32  1  0  0  0  0
 33 31  1  0  0  0  0
 34 32  1  0  0  0  0
 34 13  1  6  0  0  0
M  END
>  <MODEL>
3

>  <REMARK>
 VINA RESULT:      -5.9      1.463      1.980
  Name = 
  3 active torsions:
  status: ('A' for Active; 'I' for Inactive)
    1  A    between atoms: N_7  and  C_11
    2  A    between atoms: C_18  and  C_30
    3  A    between atoms: C_23  and  C_25
                            x       y       z     vdW  Elec       q    Type
                         _______ _______ _______ _____ _____    ______ ____

>  <TORSDO>
F 3

$$$$
=
 OpenBabel11062409453D

 34 40  0  0  1  0  0  0  0  0999 V2000
  160.7270  211.4280  151.1740 C   0  0  0  0  0  0  0  0  0  0  0  0
  160.7510  208.3620  153.2330 C   0  0  0  0  0  3  0  0  0  0  0  0
  159.5880  210.4310  153.5020 N   0  0  0  0  0  0  0  0  0  0  0  0
  160.4960  214.4520  150.2290 S   0  0  0  0  0  0  0  0  0  0  0  0
  161.1540  211.8650  149.8790 N   0  0  0  0  0  2  0  0  0  0  0  0
  159.6640  213.6710  151.6190 C   0  0  0  0  0  0  0  0  0  0  0  0
  158.4610  213.9700  153.7760 C   0  0  0  0  0  2  0  0  0  0  0  0
  158.9430  214.4470  152.4320 C   0  0  0  0  0  3  0  0  0  0  0  0
  160.4750  212.9580  149.1930 C   0  0  2  0  0  3  0  0  0  0  0  0
  159.3040  211.7030  153.1180 C   0  0  0  0  0  0  0  0  0  0  0  0
  159.9150  212.2510  151.9750 C   0  0  0  0  0  0  0  0  0  0  0  0
  158.2110  212.4610  153.8110 C   0  0  0  0  0  2  0  0  0  0  0  0
  161.6020  207.5490  152.4760 C   0  0  0  0  0  0  0  0  0  0  0  0
  162.1700  208.0700  151.3040 C   0  0  0  0  0  3  0  0  0  0  0  0
  160.4590  209.6550  152.8040 C   0  0  0  0  0  0  0  0  0  0  0  0
  161.8720  209.3320  150.8950 N   0  0  0  0  0  0  0  0  0  0  0  0
  161.0390  210.1360  151.6130 C   0  0  0  0  0  0  0  0  0  0  0  0
  162.7110  214.4450  146.4040 C   0  0  0  0  0  2  0  0  0  0  0  0
  160.5780  212.5740  146.7010 N   0  0  0  0  0  0  0  0  0  0  0  0
  161.3670  214.1290  142.8600 N   0  0  0  0  0  0  0  0  0  0  0  0
  162.3620  214.3780  143.9080 C   0  0  0  0  0  2  0  0  0  0  0  0
  161.7160  214.1950  145.2760 C   0  0  1  0  0  3  0  0  0  0  0  0
  160.2200  212.4630  144.2710 C   0  0  0  0  0  2  0  0  0  0  0  0
  161.2020  212.7620  145.3950 C   0  0  2  0  0  3  0  0  0  0  0  0
  160.9090  212.7310  142.9330 C   0  0  0  0  0  2  0  0  0  0  0  0
  161.1090  213.2250  147.8660 C   0  0  0  0  0  0  0  0  0  0  0  0
  162.0780  214.1470  147.7380 C   0  0  0  0  0  2  0  0  0  0  0  0
  162.0020  214.3980  141.5650 C   0  0  1  0  0  3  0  0  0  0  0  0
  163.3970  214.4500  141.6700 O   0  0  0  0  0  1  0  0  0  0  0  0
  161.5910  213.3580  140.5370 C   0  0  0  0  0  1  0  0  0  0  0  0
  161.3440  205.0370  152.2260 N   0  0  0  0  0  0  0  0  0  0  0  0
  162.7520  205.4000  152.0150 C   0  0  0  0  0  2  0  0  0  0  0  0
  160.6520  205.4220  150.9990 C   0  0  0  0  0  1  0  0  0  0  0  0
  161.9610  206.1700  152.9760 C   0  0  1  0  0  3  0  0  0  0  0  0
  1 17  2  0  0  0  0
  1 11  1  0  0  0  0
  4  6  1  0  0  0  0
  5  1  1  0  0  0  0
  6 11  1  0  0  0  0
  6  8  2  0  0  0  0
  7 12  1  0  0  0  0
  8  7  1  0  0  0  0
  9 26  1  6  0  0  0
  9  5  1  0  0  0  0
  9  4  1  0  0  0  0
 10  3  1  0  0  0  0
 10 12  1  0  0  0  0
 11 10  2  0  0  0  0
 13  2  2  0  0  0  0
 14 13  1  0  0  0  0
 15  2  1  0  0  0  0
 15  3  2  0  0  0  0
 16 14  2  0  0  0  0
 16 17  1  0  0  0  0
 17 15  1  0  0  0  0
 18 27  1  0  0  0  0
 19 26  2  0  0  0  0
 20 25  1  0  0  0  0
 20 21  1  0  0  0  0
 22 21  1  6  0  0  0
 22 24  1  0  0  0  0
 22 18  1  0  0  0  0
 24 23  1  6  0  0  0
 24 19  1  0  0  0  0
 25 23  1  0  0  0  0
 27 26  1  0  0  0  0
 28 30  1  6  0  0  0
 28 29  1  0  0  0  0
 28 20  1  0  0  0  0
 31 34  1  0  0  0  0
 32 31  1  0  0  0  0
 32 34  1  0  0  0  0
 33 31  1  0  0  0  0
 34 13  1  6  0  0  0
M  END
>  <MODEL>
4

>  <REMARK>
 VINA RESULT:      -5.9      5.218      7.561
  Name = 
  3 active torsions:
  status: ('A' for Active; 'I' for Inactive)
    1  A    between atoms: N_7  and  C_11
    2  A    between atoms: C_18  and  C_30
    3  A    between atoms: C_23  and  C_25
                            x       y       z     vdW  Elec       q    Type
                         _______ _______ _______ _____ _____    ______ ____

>  <TORSDO>
F 3

$$$$
=
 OpenBabel11062409453D

 34 40  0  0  1  0  0  0  0  0999 V2000
  161.3440  207.7330  151.2330 C   0  0  0  0  0  0  0  0  0  0  0  0
  162.2980  211.1550  150.2210 C   0  0  0  0  0  3  0  0  0  0  0  0
  162.0270  210.1680  152.3790 N   0  0  0  0  0  0  0  0  0  0  0  0
  160.2200  205.2480  152.8620 S   0  0  0  0  0  0  0  0  0  0  0  0
  161.1880  206.4350  150.6490 N   0  0  0  0  0  2  0  0  0  0  0  0
  160.8460  206.8000  153.5220 C   0  0  0  0  0  0  0  0  0  0  0  0
  160.9460  208.3650  155.4530 C   0  0  0  0  0  2  0  0  0  0  0  0
  160.7420  207.0070  154.8380 C   0  0  0  0  0  3  0  0  0  0  0  0
  161.3590  205.2260  151.4460 C   0  0  2  0  0  3  0  0  0  0  0  0
  161.6970  209.1260  153.1860 C   0  0  0  0  0  0  0  0  0  0  0  0
  161.2890  207.9000  152.6290 C   0  0  0  0  0  0  0  0  0  0  0  0
  161.9330  209.2280  154.6640 C   0  0  0  0  0  2  0  0  0  0  0  0
  162.3010  211.0190  148.8270 C   0  0  0  0  0  0  0  0  0  0  0  0
  161.9520  209.7830  148.2660 C   0  0  0  0  0  3  0  0  0  0  0  0
  161.9770  210.0630  151.0260 C   0  0  0  0  0  0  0  0  0  0  0  0
  161.6450  208.7250  149.0640 N   0  0  0  0  0  0  0  0  0  0  0  0
  161.6450  208.8330  150.4220 C   0  0  0  0  0  0  0  0  0  0  0  0
  161.0220  201.5370  150.3210 C   0  0  0  0  0  2  0  0  0  0  0  0
  160.9850  204.1560  149.1900 N   0  0  0  0  0  0  0  0  0  0  0  0
  161.6330  200.8680  146.6270 N   0  0  0  0  0  0  0  0  0  0  0  0
  161.1830  200.5830  147.9940 C   0  0  0  0  0  2  0  0  0  0  0  0
  161.4720  201.7850  148.8850 C   0  0  1  0  0  3  0  0  0  0  0  0
  161.1190  203.2650  146.9030 C   0  0  0  0  0  2  0  0  0  0  0  0
  160.7160  202.9970  148.3460 C   0  0  2  0  0  3  0  0  0  0  0  0
  160.8680  202.0020  146.0800 C   0  0  0  0  0  2  0  0  0  0  0  0
  161.1430  204.0060  150.6100 C   0  0  0  0  0  0  0  0  0  0  0  0
  161.2140  202.7790  151.1530 C   0  0  0  0  0  2  0  0  0  0  0  0
  161.4180  199.6620  145.8220 C   0  0  1  0  0  3  0  0  0  0  0  0
  161.4500  198.5020  146.6040 O   0  0  0  0  0  1  0  0  0  0  0  0
  160.1060  199.7480  145.0630 C   0  0  0  0  0  1  0  0  0  0  0  0
  161.4090  212.8120  147.2680 N   0  0  0  0  0  0  0  0  0  0  0  0
  161.9790  213.4520  148.4620 C   0  0  0  0  0  2  0  0  0  0  0  0
  160.1200  212.2700  147.6920 C   0  0  0  0  0  1  0  0  0  0  0  0
  162.5930  212.2220  147.9600 C   0  0  1  0  0  3  0  0  0  0  0  0
  1 11  1  0  0  0  0
  2 15  1  0  0  0  0
  3 10  1  0  0  0  0
  4  6  1  0  0  0  0
  5  1  1  0  0  0  0
  5  9  1  0  0  0  0
  6  8  2  0  0  0  0
  8  7  1  0  0  0  0
  9 26  1  6  0  0  0
  9  4  1  0  0  0  0
 10 12  1  0  0  0  0
 11 10  2  0  0  0  0
 11  6  1  0  0  0  0
 12  7  1  0  0  0  0
 13  2  2  0  0  0  0
 14 13  1  0  0  0  0
 14 16  2  0  0  0  0
 15  3  2  0  0  0  0
 16 17  1  0  0  0  0
 17 15  1  0  0  0  0
 17  1  2  0  0  0  0
 18 27  1  0  0  0  0
 19 26  2  0  0  0  0
 20 21  1  0  0  0  0
 22 21  1  6  0  0  0
 22 18  1  0  0  0  0
 24 23  1  6  0  0  0
 24 22  1  0  0  0  0
 24 19  1  0  0  0  0
 25 20  1  0  0  0  0
 25 23  1  0  0  0  0
 26 27  1  0  0  0  0
 28 30  1  1  0  0  0
 28 29  1  0  0  0  0
 28 20  1  0  0  0  0
 31 33  1  0  0  0  0
 31 34  1  0  0  0  0
 31 32  1  0  0  0  0
 34 32  1  0  0  0  0
 34 13  1  1  0  0  0
M  END
>  <MODEL>
5

>  <REMARK>
 VINA RESULT:      -5.9      3.619      4.935
  Name = 
  3 active torsions:
  status: ('A' for Active; 'I' for Inactive)
    1  A    between atoms: N_7  and  C_11
    2  A    between atoms: C_18  and  C_30
    3  A    between atoms: C_23  and  C_25
                            x       y       z     vdW  Elec       q    Type
                         _______ _______ _______ _____ _____    ______ ____

>  <TORSDO>
F 3

$$$$
=
 OpenBabel11062409453D

 34 40  0  0  1  0  0  0  0  0999 V2000
  160.9240  210.9970  150.8940 C   0  0  0  0  0  0  0  0  0  0  0  0
  159.3310  212.9680  153.5810 C   0  0  0  0  0  3  0  0  0  0  0  0
  160.1340  213.6060  151.4230 N   0  0  0  0  0  0  0  0  0  0  0  0
  162.6660  210.1370  148.3800 S   0  0  0  0  0  0  0  0  0  0  0  0
  161.1470  209.6270  150.5430 N   0  0  0  0  0  2  0  0  0  0  0  0
  161.9640  211.7570  148.7250 C   0  0  0  0  0  0  0  0  0  0  0  0
  162.0080  214.2000  148.2610 C   0  0  0  0  0  2  0  0  0  0  0  0
  162.2820  212.7630  147.9060 C   0  0  0  0  0  3  0  0  0  0  0  0
  161.2980  209.2210  149.1510 C   0  0  2  0  0  3  0  0  0  0  0  0
  160.7500  213.3270  150.2440 C   0  0  0  0  0  0  0  0  0  0  0  0
  161.2130  212.0250  149.9780 C   0  0  0  0  0  0  0  0  0  0  0  0
  160.7820  214.3630  149.1600 C   0  0  0  0  0  2  0  0  0  0  0  0
  159.0870  211.9650  154.5260 C   0  0  0  0  0  0  0  0  0  0  0  0
  159.4950  210.6540  154.2430 C   0  0  0  0  0  3  0  0  0  0  0  0
  159.9450  212.6500  152.3700 C   0  0  0  0  0  0  0  0  0  0  0  0
  160.0890  210.3570  153.0550 N   0  0  0  0  0  0  0  0  0  0  0  0
  160.3270  211.3170  152.1190 C   0  0  0  0  0  0  0  0  0  0  0  0
  161.9970  205.6850  147.7400 C   0  0  0  0  0  2  0  0  0  0  0  0
  161.3180  206.9330  150.2140 N   0  0  0  0  0  2  0  0  0  0  0  0
  160.6730  202.7830  149.8120 N   0  0  0  0  0  0  0  0  0  0  0  0
  161.4700  203.4480  148.7750 C   0  0  0  0  0  2  0  0  0  0  0  0
  161.1920  204.9460  148.8040 C   0  0  1  0  0  3  0  0  0  0  0  0
  160.8140  204.7700  151.2680 C   0  0  0  0  0  2  0  0  0  0  0  0
  161.5810  205.4980  150.1740 C   0  0  2  0  0  3  0  0  0  0  0  0
  161.0830  203.2700  151.1400 C   0  0  0  0  0  2  0  0  0  0  0  0
  161.5220  207.7470  149.0500 C   0  0  0  0  0  0  0  0  0  0  0  0
  161.7920  207.1720  147.8650 C   0  0  0  0  0  3  0  0  0  0  0  0
  160.9010  201.3390  149.6970 C   0  0  1  0  0  3  0  0  0  0  0  0
  159.8110  200.6010  150.1750 O   0  0  0  0  0  1  0  0  0  0  0  0
  161.2060  200.9530  148.2610 C   0  0  0  0  0  1  0  0  0  0  0  0
  156.9870  212.4430  155.8690 N   0  0  0  0  0  0  0  0  0  0  0  0
  157.6510  211.2540  156.4200 C   0  0  0  0  0  2  0  0  0  0  0  0
  156.3310  211.9930  154.6440 C   0  0  0  0  0  1  0  0  0  0  0  0
  158.4750  212.3260  155.8590 C   0  0  1  0  0  3  0  0  0  0  0  0
  1 17  1  0  0  0  0
  2 13  1  0  0  0  0
  3 15  1  0  0  0  0
  4  6  1  0  0  0  0
  4  9  1  0  0  0  0
  5  1  1  0  0  0  0
  6 11  1  0  0  0  0
  7 12  1  0  0  0  0
  8  7  1  0  0  0  0
  8  6  2  0  0  0  0
  9 26  1  1  0  0  0
  9  5  1  0  0  0  0
 10  3  2  0  0  0  0
 11 10  1  0  0  0  0
 11  1  2  0  0  0  0
 12 10  1  0  0  0  0
 14 13  2  0  0  0  0
 15  2  2  0  0  0  0
 16 14  1  0  0  0  0
 17 15  1  0  0  0  0
 17 16  2  0  0  0  0
 18 27  1  0  0  0  0
 20 25  1  0  0  0  0
 21 22  1  0  0  0  0
 21 20  1  0  0  0  0
 22 18  1  6  0  0  0
 22 24  1  0  0  0  0
 24 19  1  0  0  0  0
 24 23  1  1  0  0  0
 25 23  1  0  0  0  0
 26 19  1  0  0  0  0
 27 26  2  0  0  0  0
 28 30  1  6  0  0  0
 28 20  1  0  0  0  0
 28 29  1  0  0  0  0
 31 32  1  0  0  0  0
 33 31  1  0  0  0  0
 34 13  1  6  0  0  0
 34 31  1  0  0  0  0
 34 32  1  0  0  0  0
M  END
>  <MODEL>
6

>  <REMARK>
 VINA RESULT:      -5.6      2.975      4.903
  Name = 
  3 active torsions:
  status: ('A' for Active; 'I' for Inactive)
    1  A    between atoms: N_7  and  C_11
    2  A    between atoms: C_18  and  C_30
    3  A    between atoms: C_23  and  C_25
                            x       y       z     vdW  Elec       q    Type
                         _______ _______ _______ _____ _____    ______ ____

>  <TORSDO>
F 3

$$$$
=
 OpenBabel11062409453D

 34 40  0  0  1  0  0  0  0  0999 V2000
  161.1920  205.6480  150.1260 C   0  0  0  0  0  0  0  0  0  0  0  0
  160.8450  204.8580  146.5350 C   0  0  0  0  0  3  0  0  0  0  0  0
  160.8540  203.4490  148.4640 N   0  0  0  0  0  0  0  0  0  0  0  0
  161.8260  205.4540  153.2330 S   0  0  0  0  0  0  0  0  0  0  0  0
  161.1650  206.7890  150.9910 N   0  0  0  0  0  2  0  0  0  0  0  0
  161.4260  204.1070  152.1100 C   0  0  0  0  0  0  0  0  0  0  0  0
  161.4880  201.6600  151.6680 C   0  0  0  0  0  2  0  0  0  0  0  0
  161.5010  202.8590  152.5780 C   0  0  0  0  0  3  0  0  0  0  0  0
  160.7660  206.6640  152.3880 C   0  0  2  0  0  3  0  0  0  0  0  0
  160.9750  203.2540  149.8040 C   0  0  0  0  0  0  0  0  0  0  0  0
  161.2070  204.3460  150.6600 C   0  0  0  0  0  0  0  0  0  0  0  0
  160.6900  201.9010  150.3850 C   0  0  0  0  0  2  0  0  0  0  0  0
  160.8850  206.1440  145.9840 C   0  0  0  0  0  0  0  0  0  0  0  0
  161.0580  207.2420  146.8370 C   0  0  0  0  0  3  0  0  0  0  0  0
  160.9500  204.6880  147.9150 C   0  0  0  0  0  0  0  0  0  0  0  0
  161.1540  207.0610  148.1820 N   0  0  0  0  0  0  0  0  0  0  0  0
  161.1090  205.8200  148.7400 C   0  0  0  0  0  0  0  0  0  0  0  0
  161.2470  209.4090  155.0760 C   0  0  0  0  0  2  0  0  0  0  0  0
  160.3380  209.1520  152.3840 N   0  0  0  0  0  0  0  0  0  0  0  0
  159.2650  212.6120  154.5460 N   0  0  0  0  0  0  0  0  0  0  0  0
  160.2920  211.7410  155.1280 C   0  0  0  0  0  2  0  0  0  0  0  0
  160.1980  210.3550  154.5020 C   0  0  1  0  0  3  0  0  0  0  0  0
  159.4120  211.4290  152.3860 C   0  0  0  0  0  2  0  0  0  0  0  0
  160.4270  210.4730  152.9960 C   0  0  2  0  0  3  0  0  0  0  0  0
  159.5140  212.7760  153.1040 C   0  0  0  0  0  2  0  0  0  0  0  0
  160.8220  207.9900  153.0750 C   0  0  0  0  0  0  0  0  0  0  0  0
  161.2060  208.0840  154.3600 C   0  0  0  0  0  2  0  0  0  0  0  0
  159.3310  213.9060  155.2320 C   0  0  1  0  0  3  0  0  0  0  0  0
  158.0580  214.4520  155.4370 O   0  0  0  0  0  1  0  0  0  0  0  0
  160.0660  213.7780  156.5550 C   0  0  0  0  0  1  0  0  0  0  0  0
  162.0300  205.8280  143.7400 N   0  0  0  0  0  0  0  0  0  0  0  0
  160.7880  205.0430  143.7620 C   0  0  0  0  0  2  0  0  0  0  0  0
  162.9850  205.0740  144.5480 C   0  0  0  0  0  1  0  0  0  0  0  0
  160.8310  206.3160  144.4830 C   0  0  1  0  0  3  0  0  0  0  0  0
  1 11  1  0  0  0  0
  1  5  1  0  0  0  0
  2 15  1  0  0  0  0
  3 10  1  0  0  0  0
  5  9  1  0  0  0  0
  6  8  2  0  0  0  0
  6  4  1  0  0  0  0
  7  8  1  0  0  0  0
  9 26  1  1  0  0  0
  9  4  1  0  0  0  0
 10 12  1  0  0  0  0
 10 11  2  0  0  0  0
 11  6  1  0  0  0  0
 12  7  1  0  0  0  0
 13  2  2  0  0  0  0
 13 14  1  0  0  0  0
 14 16  2  0  0  0  0
 15  3  2  0  0  0  0
 15 17  1  0  0  0  0
 16 17  1  0  0  0  0
 17  1  2  0  0  0  0
 19 24  1  0  0  0  0
 19 26  2  0  0  0  0
 20 21  1  0  0  0  0
 20 28  1  0  0  0  0
 22 18  1  1  0  0  0
 22 21  1  0  0  0  0
 23 25  1  0  0  0  0
 24 23  1  6  0  0  0
 24 22  1  0  0  0  0
 25 20  1  0  0  0  0
 26 27  1  0  0  0  0
 27 18  1  0  0  0  0
 28 29  1  0  0  0  0
 28 30  1  1  0  0  0
 31 32  1  0  0  0  0
 31 34  1  0  0  0  0
 31 33  1  0  0  0  0
 32 34  1  0  0  0  0
 34 13  1  1  0  0  0
M  END
>  <MODEL>
7

>  <REMARK>
 VINA RESULT:      -5.0      3.302      9.426
  Name = 
  3 active torsions:
  status: ('A' for Active; 'I' for Inactive)
    1  A    between atoms: N_7  and  C_11
    2  A    between atoms: C_18  and  C_30
    3  A    between atoms: C_23  and  C_25
                            x       y       z     vdW  Elec       q    Type
                         _______ _______ _______ _____ _____    ______ ____

>  <TORSDO>
F 3

$$$$
