=
 OpenBabel11052422313D

 31 35  0  0  1  0  0  0  0  0999 V2000
  161.3540  209.0940  156.1790 C   0  0  0  0  0  0  0  0  0  0  0  0
  161.4090  209.4180  152.3830 C   0  0  1  0  0  3  0  0  0  0  0  0
  160.5240  210.6110  152.0990 C   0  0  0  0  0  0  0  0  0  0  0  0
  158.4830  211.8770  152.4860 C   0  0  0  0  0  3  0  0  0  0  0  0
  161.2280  208.8290  153.7680 C   0  0  0  0  0  0  0  0  0  0  0  0
  160.9390  207.7720  156.3510 C   0  0  0  0  0  3  0  0  0  0  0  0
  159.3140  210.7970  152.7890 C   0  0  0  0  0  3  0  0  0  0  0  0
  161.5280  206.9600  151.6380 C   0  0  2  0  0  3  0  0  0  0  0  0
  161.6110  209.8700  157.2610 F   0  0  0  0  0  0  0  0  0  0  0  0
  161.9600  210.0510  149.3730 C   0  0  0  0  0  2  0  0  0  0  0  0
  158.8430  212.7750  151.4780 C   0  0  0  0  0  3  0  0  0  0  0  0
  160.5680  206.6150  152.7690 C   0  0  0  0  0  2  0  0  0  0  0  0
  161.3230  208.4170  151.2090 C   0  0  2  0  0  3  0  0  0  0  0  0
  161.5010  209.6200  154.8930 C   0  0  0  0  0  3  0  0  0  0  0  0
  160.0290  212.5850  150.7660 C   0  0  0  0  0  3  0  0  0  0  0  0
  160.8380  207.4880  153.9480 C   0  0  0  0  0  0  0  0  0  0  0  0
  160.6820  206.9700  155.2360 C   0  0  0  0  0  3  0  0  0  0  0  0
  162.3550  208.7950  150.1460 C   0  0  0  0  0  2  0  0  0  0  0  0
  160.8690  211.5070  151.0640 C   0  0  0  0  0  0  0  0  0  0  0  0
  162.0960  211.3040  150.2320 C   0  0  0  0  0  2  0  0  0  0  0  0
  162.1300  204.1780  151.5690 O   0  0  0  0  0  0  0  0  0  0  0  0
  161.5990  204.6760  150.5380 C   0  0  0  0  0  0  0  0  0  0  0  0
  161.2850  206.0720  150.5080 N   0  0  0  0  0  2  0  0  0  0  0  0
  160.7700  202.2980  147.0600 C   0  0  0  0  0  0  0  0  0  0  0  0
  161.5630  204.3420  148.0790 C   0  0  0  0  0  3  0  0  0  0  0  0
  160.4830  201.9670  150.7150 O   0  0  0  0  0  1  0  0  0  0  0  0
  160.4900  201.4900  145.8450 C   0  0  0  0  0  1  0  0  0  0  0  0
  161.3000  203.5830  146.9360 C   0  0  0  0  0  3  0  0  0  0  0  0
  160.7640  202.5270  149.4740 C   0  0  0  0  0  0  0  0  0  0  0  0
  161.3010  203.8300  149.3590 C   0  0  0  0  0  0  0  0  0  0  0  0
  160.5030  201.7740  148.3260 C   0  0  0  0  0  3  0  0  0  0  0  0
  1  6  1  0  0  0  0
  1  9  1  0  0  0  0
  2  3  1  6  0  0  0
  2  5  1  0  0  0  0
  3  7  1  0  0  0  0
  4  7  2  0  0  0  0
  5 16  2  0  0  0  0
  5 14  1  0  0  0  0
  8 23  1  6  0  0  0
  8 12  1  0  0  0  0
 10 18  1  0  0  0  0
 10 20  1  0  0  0  0
 11  4  1  0  0  0  0
 12 16  1  0  0  0  0
 13 18  1  6  0  0  0
 13  8  1  0  0  0  0
 13  2  1  0  0  0  0
 14  1  2  0  0  0  0
 15 19  1  0  0  0  0
 15 11  2  0  0  0  0
 16 17  1  0  0  0  0
 17  6  2  0  0  0  0
 19  3  2  0  0  0  0
 20 19  1  0  0  0  0
 22 21  2  0  0  0  0
 23 22  1  0  0  0  0
 24 31  1  0  0  0  0
 25 30  2  0  0  0  0
 27 24  1  0  0  0  0
 28 24  2  0  0  0  0
 28 25  1  0  0  0  0
 29 26  1  0  0  0  0
 30 29  1  0  0  0  0
 30 22  1  0  0  0  0
 31 29  2  0  0  0  0
M  END
>  <MODEL>
1

>  <REMARK>
 VINA RESULT:      -9.0      0.000      0.000
  Name = 
  2 active torsions:
  status: ('A' for Active; 'I' for Inactive)
    1  A    between atoms: C_9  and  C_22
    2  A    between atoms: C_15  and  N_23
                            x       y       z     vdW  Elec       q    Type
                         _______ _______ _______ _____ _____    ______ ____

>  <TORSDO>
F 2

$$$$
=
 OpenBabel11052422313D

 31 35  0  0  1  0  0  0  0  0999 V2000
  161.4840  210.6890  156.4100 C   0  0  0  0  0  0  0  0  0  0  0  0
  161.3800  210.0800  152.6490 C   0  0  1  0  0  3  0  0  0  0  0  0
  160.5350  211.2130  152.1130 C   0  0  0  0  0  0  0  0  0  0  0  0
  158.5700  212.6410  152.2490 C   0  0  0  0  0  3  0  0  0  0  0  0
  161.2370  209.8540  154.1420 C   0  0  0  0  0  0  0  0  0  0  0  0
  161.0210  209.4710  156.9130 C   0  0  0  0  0  3  0  0  0  0  0  0
  159.3670  211.6240  152.7770 C   0  0  0  0  0  3  0  0  0  0  0  0
  161.3600  207.5120  152.5230 C   0  0  2  0  0  3  0  0  0  0  0  0
  161.8230  211.6880  157.2600 F   0  0  0  0  0  0  0  0  0  0  0  0
  161.8200  209.9360  149.5590 C   0  0  0  0  0  2  0  0  0  0  0  0
  158.9210  213.2480  151.0400 C   0  0  0  0  0  3  0  0  0  0  0  0
  160.4380  207.5020  153.7370 C   0  0  0  0  0  2  0  0  0  0  0  0
  161.1980  208.8300  151.7600 C   0  0  2  0  0  3  0  0  0  0  0  0
  161.5950  210.8790  155.0300 C   0  0  0  0  0  3  0  0  0  0  0  0
  160.0640  212.8290  150.3560 C   0  0  0  0  0  3  0  0  0  0  0  0
  160.7980  208.6190  154.6570 C   0  0  0  0  0  0  0  0  0  0  0  0
  160.6790  208.4370  156.0370 C   0  0  0  0  0  3  0  0  0  0  0  0
  162.1960  208.8850  150.6020 C   0  0  0  0  0  2  0  0  0  0  0  0
  160.8710  211.8130  150.8800 C   0  0  0  0  0  0  0  0  0  0  0  0
  162.0480  211.3500  150.0820 C   0  0  0  0  0  2  0  0  0  0  0  0
  163.0000  205.2270  152.0810 O   0  0  0  0  0  0  0  0  0  0  0  0
  161.8900  205.2620  151.4810 C   0  0  0  0  0  0  0  0  0  0  0  0
  161.0270  206.3910  151.6540 N   0  0  0  0  0  2  0  0  0  0  0  0
  160.6760  201.9730  149.0020 C   0  0  0  0  0  0  0  0  0  0  0  0
  161.1990  202.8980  151.1730 C   0  0  0  0  0  3  0  0  0  0  0  0
  161.6050  205.5090  148.5700 O   0  0  0  0  0  1  0  0  0  0  0  0
  160.2550  200.8240  148.1600 C   0  0  0  0  0  1  0  0  0  0  0  0
  160.8020  201.8170  150.3830 C   0  0  0  0  0  3  0  0  0  0  0  0
  161.3440  204.2960  149.1970 C   0  0  0  0  0  0  0  0  0  0  0  0
  161.4740  204.1480  150.5970 C   0  0  0  0  0  0  0  0  0  0  0  0
  160.9470  203.2090  148.4120 C   0  0  0  0  0  3  0  0  0  0  0  0
  1  6  1  0  0  0  0
  1  9  1  0  0  0  0
  2  3  1  6  0  0  0
  2  5  1  0  0  0  0
  3  7  1  0  0  0  0
  4  7  2  0  0  0  0
  5 16  2  0  0  0  0
  5 14  1  0  0  0  0
  8 23  1  6  0  0  0
  8 12  1  0  0  0  0
 10 20  1  0  0  0  0
 10 18  1  0  0  0  0
 11  4  1  0  0  0  0
 12 16  1  0  0  0  0
 13 18  1  6  0  0  0
 13  8  1  0  0  0  0
 13  2  1  0  0  0  0
 14  1  2  0  0  0  0
 15 19  1  0  0  0  0
 15 11  2  0  0  0  0
 16 17  1  0  0  0  0
 17  6  2  0  0  0  0
 19  3  2  0  0  0  0
 20 19  1  0  0  0  0
 22 23  1  0  0  0  0
 22 21  2  0  0  0  0
 24 28  1  0  0  0  0
 26 29  1  0  0  0  0
 27 24  1  0  0  0  0
 28 25  2  0  0  0  0
 29 30  2  0  0  0  0
 30 25  1  0  0  0  0
 30 22  1  0  0  0  0
 31 24  2  0  0  0  0
 31 29  1  0  0  0  0
M  END
>  <MODEL>
2

>  <REMARK>
 VINA RESULT:      -8.5      1.290      1.711
  Name = 
  2 active torsions:
  status: ('A' for Active; 'I' for Inactive)
    1  A    between atoms: C_9  and  C_22
    2  A    between atoms: C_15  and  N_23
                            x       y       z     vdW  Elec       q    Type
                         _______ _______ _______ _____ _____    ______ ____

>  <TORSDO>
F 2

$$$$
=
 OpenBabel11052422313D

 31 35  0  0  1  0  0  0  0  0999 V2000
  162.4390  204.5910  145.7840 C   0  0  0  0  0  0  0  0  0  0  0  0
  161.6260  204.3100  149.4970 C   0  0  1  0  0  3  0  0  0  0  0  0
  160.8820  202.9990  149.6160 C   0  0  0  0  0  0  0  0  0  0  0  0
  159.2000  201.4350  148.8130 C   0  0  0  0  0  3  0  0  0  0  0  0
  161.7000  204.8530  148.0830 C   0  0  0  0  0  0  0  0  0  0  0  0
  161.8900  205.8340  145.4610 C   0  0  0  0  0  3  0  0  0  0  0  0
  159.9140  202.6260  148.6680 C   0  0  0  0  0  3  0  0  0  0  0  0
  161.2050  206.7630  150.1400 C   0  0  2  0  0  3  0  0  0  0  0  0
  163.0590  203.8550  144.8300 F   0  0  0  0  0  0  0  0  0  0  0  0
  161.5240  203.7910  152.5770 C   0  0  0  0  0  2  0  0  0  0  0  0
  159.4330  200.6110  149.9160 C   0  0  0  0  0  3  0  0  0  0  0  0
  160.5060  206.9500  148.8000 C   0  0  0  0  0  2  0  0  0  0  0  0
  161.1170  205.2960  150.5710 C   0  0  2  0  0  3  0  0  0  0  0  0
  162.3480  204.1040  147.0910 C   0  0  0  0  0  3  0  0  0  0  0  0
  160.3730  200.9830  150.8790 C   0  0  0  0  0  3  0  0  0  0  0  0
  161.1750  206.1190  147.7580 C   0  0  0  0  0  0  0  0  0  0  0  0
  161.2590  206.5970  146.4480 C   0  0  0  0  0  3  0  0  0  0  0  0
  161.9070  205.0870  151.8640 C   0  0  0  0  0  2  0  0  0  0  0  0
  161.0950  202.1730  150.7410 C   0  0  0  0  0  0  0  0  0  0  0  0
  162.0420  202.5670  151.8300 C   0  0  0  0  0  2  0  0  0  0  0  0
  162.4390  208.9700  151.4480 O   0  0  0  0  0  0  0  0  0  0  0  0
  161.2420  208.7180  151.7550 C   0  0  0  0  0  0  0  0  0  0  0  0
  160.5710  207.6130  151.1400 N   0  0  0  0  0  2  0  0  0  0  0  0
  159.1290  211.1960  154.5550 C   0  0  0  0  0  0  0  0  0  0  0  0
  159.8050  210.6690  152.2940 C   0  0  0  0  0  3  0  0  0  0  0  0
  161.2330  208.1760  154.6400 O   0  0  0  0  0  1  0  0  0  0  0  0
  158.3930  212.0640  155.5090 C   0  0  0  0  0  1  0  0  0  0  0  0
  159.1110  211.4860  153.1900 C   0  0  0  0  0  3  0  0  0  0  0  0
  160.5370  209.2670  154.1320 C   0  0  0  0  0  0  0  0  0  0  0  0
  160.5240  209.5530  152.7470 C   0  0  0  0  0  0  0  0  0  0  0  0
  159.8410  210.0900  155.0220 C   0  0  0  0  0  3  0  0  0  0  0  0
  1 14  1  0  0  0  0
  2  5  1  6  0  0  0
  2  3  1  0  0  0  0
  2 13  1  0  0  0  0
  3 19  1  0  0  0  0
  4 11  2  0  0  0  0
  6  1  2  0  0  0  0
  6 17  1  0  0  0  0
  7  4  1  0  0  0  0
  7  3  2  0  0  0  0
  8 13  1  0  0  0  0
  8 23  1  1  0  0  0
  9  1  1  0  0  0  0
 11 15  1  0  0  0  0
 12  8  1  0  0  0  0
 13 18  1  1  0  0  0
 14  5  2  0  0  0  0
 16  5  1  0  0  0  0
 16 12  1  0  0  0  0
 17 16  2  0  0  0  0
 18 10  1  0  0  0  0
 19 15  2  0  0  0  0
 19 20  1  0  0  0  0
 20 10  1  0  0  0  0
 21 22  2  0  0  0  0
 22 30  1  0  0  0  0
 23 22  1  0  0  0  0
 24 31  1  0  0  0  0
 24 27  1  0  0  0  0
 25 30  2  0  0  0  0
 25 28  1  0  0  0  0
 28 24  2  0  0  0  0
 29 26  1  0  0  0  0
 29 31  2  0  0  0  0
 30 29  1  0  0  0  0
M  END
>  <MODEL>
3

>  <REMARK>
 VINA RESULT:      -8.1      3.409      8.793
  Name = 
  2 active torsions:
  status: ('A' for Active; 'I' for Inactive)
    1  A    between atoms: C_9  and  C_22
    2  A    between atoms: C_15  and  N_23
                            x       y       z     vdW  Elec       q    Type
                         _______ _______ _______ _____ _____    ______ ____

>  <TORSDO>
F 2

$$$$
=
 OpenBabel11052422313D

 31 35  0  0  1  0  0  0  0  0999 V2000
  160.7510  211.5770  156.2700 C   0  0  0  0  0  0  0  0  0  0  0  0
  160.7200  211.5090  152.4600 C   0  0  1  0  0  3  0  0  0  0  0  0
  159.6250  212.4780  152.0800 C   0  0  0  0  0  0  0  0  0  0  0  0
  157.3840  213.3740  152.3900 C   0  0  0  0  0  3  0  0  0  0  0  0
  160.6620  211.0440  153.9020 C   0  0  0  0  0  0  0  0  0  0  0  0
  160.5940  210.2260  156.5850 C   0  0  0  0  0  3  0  0  0  0  0  0
  158.4060  212.5060  152.7790 C   0  0  0  0  0  3  0  0  0  0  0  0
  161.2970  209.0530  151.9640 C   0  0  2  0  0  3  0  0  0  0  0  0
  160.8640  212.4950  157.2610 F   0  0  0  0  0  0  0  0  0  0  0  0
  161.1240  211.9180  149.3890 C   0  0  0  0  0  2  0  0  0  0  0  0
  157.5610  214.2130  151.2880 C   0  0  0  0  0  3  0  0  0  0  0  0
  160.4270  208.6530  153.1490 C   0  0  0  0  0  2  0  0  0  0  0  0
  160.8180  210.3930  151.3960 C   0  0  2  0  0  3  0  0  0  0  0  0
  160.7890  211.9850  154.9340 C   0  0  0  0  0  3  0  0  0  0  0  0
  158.7570  214.1760  150.5680 C   0  0  0  0  0  3  0  0  0  0  0  0
  160.5340  209.6790  154.2260 C   0  0  0  0  0  0  0  0  0  0  0  0
  160.4860  209.2780  155.5640 C   0  0  0  0  0  3  0  0  0  0  0  0
  161.7540  210.8440  150.2740 C   0  0  0  0  0  2  0  0  0  0  0  0
  159.7880  213.3110  150.9520 C   0  0  0  0  0  0  0  0  0  0  0  0
  161.0260  213.2560  150.1130 C   0  0  0  0  0  2  0  0  0  0  0  0
  162.1970  206.3670  152.2520 O   0  0  0  0  0  0  0  0  0  0  0  0
  161.6790  206.6830  151.1460 C   0  0  0  0  0  0  0  0  0  0  0  0
  161.2190  208.0220  150.9370 N   0  0  0  0  0  2  0  0  0  0  0  0
  161.2510  203.7170  148.0700 C   0  0  0  0  0  0  0  0  0  0  0  0
  161.0230  204.4170  150.3730 C   0  0  0  0  0  3  0  0  0  0  0  0
  162.4440  207.1880  148.3580 O   0  0  0  0  0  1  0  0  0  0  0  0
  161.0960  202.6790  147.0190 C   0  0  0  0  0  1  0  0  0  0  0  0
  160.8770  203.4400  149.3850 C   0  0  0  0  0  3  0  0  0  0  0  0
  161.9210  205.9540  148.7260 C   0  0  0  0  0  0  0  0  0  0  0  0
  161.5450  205.6820  150.0610 C   0  0  0  0  0  0  0  0  0  0  0  0
  161.7710  204.9710  147.7430 C   0  0  0  0  0  3  0  0  0  0  0  0
  1  6  1  0  0  0  0
  1  9  1  0  0  0  0
  2  3  1  6  0  0  0
  2  5  1  0  0  0  0
  3  7  1  0  0  0  0
  4  7  2  0  0  0  0
  5 16  2  0  0  0  0
  5 14  1  0  0  0  0
  8 23  1  6  0  0  0
  8 12  1  0  0  0  0
 10 20  1  0  0  0  0
 10 18  1  0  0  0  0
 11  4  1  0  0  0  0
 12 16  1  0  0  0  0
 13 18  1  6  0  0  0
 13  8  1  0  0  0  0
 13  2  1  0  0  0  0
 14  1  2  0  0  0  0
 15 19  1  0  0  0  0
 15 11  2  0  0  0  0
 16 17  1  0  0  0  0
 17  6  2  0  0  0  0
 19  3  2  0  0  0  0
 20 19  1  0  0  0  0
 22 21  2  0  0  0  0
 23 22  1  0  0  0  0
 24 28  1  0  0  0  0
 26 29  1  0  0  0  0
 27 24  1  0  0  0  0
 28 25  2  0  0  0  0
 29 30  2  0  0  0  0
 30 25  1  0  0  0  0
 30 22  1  0  0  0  0
 31 24  2  0  0  0  0
 31 29  1  0  0  0  0
M  END
>  <MODEL>
4

>  <REMARK>
 VINA RESULT:      -7.3      1.641      2.513
  Name = 
  2 active torsions:
  status: ('A' for Active; 'I' for Inactive)
    1  A    between atoms: C_9  and  C_22
    2  A    between atoms: C_15  and  N_23
                            x       y       z     vdW  Elec       q    Type
                         _______ _______ _______ _____ _____    ______ ____

>  <TORSDO>
F 2

$$$$
=
 OpenBabel11052422313D

 31 35  0  0  1  0  0  0  0  0999 V2000
  161.3020  210.5260  155.9380 C   0  0  0  0  0  0  0  0  0  0  0  0
  161.2320  210.9510  152.1510 C   0  0  1  0  0  3  0  0  0  0  0  0
  160.0280  211.8300  151.8980 C   0  0  0  0  0  0  0  0  0  0  0  0
  157.7040  212.4140  152.3170 C   0  0  0  0  0  3  0  0  0  0  0  0
  161.2460  210.2990  153.5200 C   0  0  0  0  0  0  0  0  0  0  0  0
  161.3040  209.1360  156.0730 C   0  0  0  0  0  3  0  0  0  0  0  0
  158.8230  211.6250  152.5910 C   0  0  0  0  0  3  0  0  0  0  0  0
  162.0800  208.6640  151.3400 C   0  0  2  0  0  3  0  0  0  0  0  0
  161.3210  211.3140  157.0400 F   0  0  0  0  0  0  0  0  0  0  0  0
  161.5490  211.8000  149.1610 C   0  0  0  0  0  2  0  0  0  0  0  0
  157.7700  213.4040  151.3340 C   0  0  0  0  0  3  0  0  0  0  0  0
  161.2760  208.0160  152.4600 C   0  0  0  0  0  2  0  0  0  0  0  0
  161.4440  210.0020  150.9510 C   0  0  2  0  0  3  0  0  0  0  0  0
  161.2760  211.1060  154.6670 C   0  0  0  0  0  3  0  0  0  0  0  0
  158.9540  213.5980  150.6190 C   0  0  0  0  0  3  0  0  0  0  0  0
  161.2780  208.8980  153.6630 C   0  0  0  0  0  0  0  0  0  0  0  0
  161.2930  208.3230  154.9360 C   0  0  0  0  0  3  0  0  0  0  0  0
  162.3080  210.7010  149.9010 C   0  0  0  0  0  2  0  0  0  0  0  0
  160.0810  212.8160  150.8890 C   0  0  0  0  0  0  0  0  0  0  0  0
  161.3070  213.0120  150.0540 C   0  0  0  0  0  2  0  0  0  0  0  0
  160.1630  206.6350  150.7780 O   0  0  0  0  0  0  0  0  0  0  0  0
  161.1060  206.7780  149.9520 C   0  0  0  0  0  0  0  0  0  0  0  0
  162.1080  207.7740  150.1870 N   0  0  0  0  0  2  0  0  0  0  0  0
  161.3430  204.3880  146.3920 C   0  0  0  0  0  0  0  0  0  0  0  0
  161.2150  206.5420  147.4830 C   0  0  0  0  0  3  0  0  0  0  0  0
  161.2140  203.8460  150.0310 O   0  0  0  0  0  1  0  0  0  0  0  0
  161.4250  203.5770  145.1500 C   0  0  0  0  0  1  0  0  0  0  0  0
  161.2920  205.7800  146.3140 C   0  0  0  0  0  3  0  0  0  0  0  0
  161.2390  204.5130  148.8120 C   0  0  0  0  0  0  0  0  0  0  0  0
  161.1880  205.9250  148.7430 C   0  0  0  0  0  0  0  0  0  0  0  0
  161.3170  203.7580  147.6380 C   0  0  0  0  0  3  0  0  0  0  0  0
  1  6  1  0  0  0  0
  1  9  1  0  0  0  0
  2  3  1  6  0  0  0
  2  5  1  0  0  0  0
  3  7  1  0  0  0  0
  4  7  2  0  0  0  0
  5 16  2  0  0  0  0
  5 14  1  0  0  0  0
  8 23  1  6  0  0  0
  8 12  1  0  0  0  0
 10 18  1  0  0  0  0
 10 20  1  0  0  0  0
 11  4  1  0  0  0  0
 12 16  1  0  0  0  0
 13 18  1  6  0  0  0
 13  8  1  0  0  0  0
 13  2  1  0  0  0  0
 14  1  2  0  0  0  0
 15 19  1  0  0  0  0
 15 11  2  0  0  0  0
 16 17  1  0  0  0  0
 17  6  2  0  0  0  0
 19  3  2  0  0  0  0
 20 19  1  0  0  0  0
 22 23  1  0  0  0  0
 22 21  2  0  0  0  0
 24 31  1  0  0  0  0
 25 30  2  0  0  0  0
 27 24  1  0  0  0  0
 28 24  2  0  0  0  0
 28 25  1  0  0  0  0
 29 26  1  0  0  0  0
 30 29  1  0  0  0  0
 30 22  1  0  0  0  0
 31 29  2  0  0  0  0
M  END
>  <MODEL>
5

>  <REMARK>
 VINA RESULT:      -6.9      1.452      1.852
  Name = 
  2 active torsions:
  status: ('A' for Active; 'I' for Inactive)
    1  A    between atoms: C_9  and  C_22
    2  A    between atoms: C_15  and  N_23
                            x       y       z     vdW  Elec       q    Type
                         _______ _______ _______ _____ _____    ______ ____

>  <TORSDO>
F 2

$$$$
