=
 OpenBabel11052422533D

 28 33  0  0  1  0  0  0  0  0999 V2000
  160.5020  211.0460  152.3870 C   0  0  0  0  0  0  0  0  0  0  0  0
  160.0810  210.6010  153.7730 C   0  0  1  0  0  3  0  0  0  0  0  0
  160.5740  208.2280  152.9380 C   0  0  2  0  0  3  0  0  0  0  0  0
  160.8630  205.7280  149.8000 C   0  0  0  0  0  3  0  0  0  0  0  0
  161.5780  212.4980  148.5570 N   0  0  0  0  0  1  0  0  0  0  0  0
  162.0110  210.5270  155.1080 C   0  0  1  0  0  3  0  0  0  0  0  0
  160.4830  209.1690  154.1390 C   0  0  1  0  0  3  0  0  0  0  0  0
  159.8890  211.5950  156.0140 C   0  0  0  0  0  1  0  0  0  0  0  0
  161.2790  204.5880  152.6040 C   0  0  0  0  0  3  0  0  0  0  0  0
  161.8630  207.7960  150.7250 C   0  0  2  0  0  3  0  0  0  0  0  0
  160.8070  211.4100  154.8090 C   0  0  2  0  0  3  0  0  0  0  0  0
  161.0660  203.3630  150.4410 C   0  0  0  0  0  0  0  0  0  0  0  0
  161.2500  206.4140  150.8860 C   0  0  0  0  0  0  0  0  0  0  0  0
  160.9930  206.8370  153.4060 C   0  0  0  0  0  2  0  0  0  0  0  0
  161.5050  203.4460  151.6960 C   0  0  0  0  0  3  0  0  0  0  0  0
  161.5480  210.6800  150.2150 C   0  0  0  0  0  0  0  0  0  0  0  0
  161.5620  208.7800  151.9030 C   0  0  1  0  0  3  0  0  0  0  0  0
  161.1050  205.8750  152.2680 C   0  0  0  0  0  0  0  0  0  0  0  0
  160.5240  212.8160  150.7250 C   0  0  0  0  0  3  0  0  0  0  0  0
  162.2750  209.7870  149.2610 C   0  0  0  0  0  2  0  0  0  0  0  0
  161.2200  211.9950  149.8410 C   0  0  0  0  0  0  0  0  0  0  0  0
  162.6180  210.7290  156.4890 C   0  0  0  0  0  1  0  0  0  0  0  0
  161.4010  202.2510  149.6810 O   0  0  0  0  0  1  0  0  0  0  0  0
  160.1810  204.4040  149.8480 C   0  0  0  0  0  2  0  0  0  0  0  0
  161.6640  208.4020  149.3270 C   0  0  0  0  0  2  0  0  0  0  0  0
  160.1650  212.3450  151.9860 C   0  0  0  0  0  3  0  0  0  0  0  0
  161.1840  210.1930  151.4890 C   0  0  0  0  0  0  0  0  0  0  0  0
  161.6760  209.1790  154.8950 O   0  0  0  0  0  0  0  0  0  0  0  0
  2  1  1  6  0  0  0
  2  7  1  0  0  0  0
  2 11  1  0  0  0  0
  3 14  1  1  0  0  0
  3  7  1  0  0  0  0
  4 24  1  0  0  0  0
  4 13  2  0  0  0  0
  5 21  1  0  0  0  0
  6 22  1  1  0  0  0
  7 28  1  6  0  0  0
 10 25  1  6  0  0  0
 10 13  1  0  0  0  0
 10 17  1  0  0  0  0
 11  6  1  0  0  0  0
 11  8  1  1  0  0  0
 12 15  2  0  0  0  0
 13 18  1  0  0  0  0
 15  9  1  0  0  0  0
 16 27  1  0  0  0  0
 17 27  1  6  0  0  0
 17  3  1  0  0  0  0
 18  9  2  0  0  0  0
 18 14  1  0  0  0  0
 19 26  2  0  0  0  0
 20 25  1  0  0  0  0
 20 16  1  0  0  0  0
 21 16  2  0  0  0  0
 21 19  1  0  0  0  0
 23 12  1  0  0  0  0
 24 12  1  0  0  0  0
 26  1  1  0  0  0  0
 27  1  2  0  0  0  0
 28  6  1  0  0  0  0
M  END
>  <MODEL>
1

>  <REMARK>
 VINA RESULT:      -8.9      0.000      0.000
  Name = 
  0 active torsions:
  status: ('A' for Active; 'I' for Inactive)
                            x       y       z     vdW  Elec       q    Type
                         _______ _______ _______ _____ _____    ______ ____

>  <TORSDO>
F 0

$$$$
=
 OpenBabel11052422533D

 28 33  0  0  1  0  0  0  0  0999 V2000
  160.6580  203.5340  148.3340 C   0  0  0  0  0  0  0  0  0  0  0  0
  160.6430  204.4810  147.1510 C   0  0  1  0  0  3  0  0  0  0  0  0
  161.1410  206.3140  148.8730 C   0  0  2  0  0  3  0  0  0  0  0  0
  160.8800  207.5390  152.6950 C   0  0  0  0  0  3  0  0  0  0  0  0
  160.5970  200.7280  151.5060 N   0  0  0  0  0  1  0  0  0  0  0  0
  162.8420  204.6440  146.3480 C   0  0  1  0  0  3  0  0  0  0  0  0
  161.2610  205.8560  147.4190 C   0  0  1  0  0  3  0  0  0  0  0  0
  160.9200  204.3360  144.7130 C   0  0  0  0  0  1  0  0  0  0  0  0
  162.0920  209.4490  150.6410 C   0  0  0  0  0  3  0  0  0  0  0  0
  161.8720  205.7500  151.3000 C   0  0  2  0  0  3  0  0  0  0  0  0
  161.5210  203.9440  146.0590 C   0  0  2  0  0  3  0  0  0  0  0  0
  161.4670  209.9060  153.0130 C   0  0  0  0  0  0  0  0  0  0  0  0
  161.4570  207.1940  151.5350 C   0  0  0  0  0  0  0  0  0  0  0  0
  161.7970  207.6820  149.0360 C   0  0  0  0  0  2  0  0  0  0  0  0
  162.1950  210.1650  151.9270 C   0  0  0  0  0  3  0  0  0  0  0  0
  161.1590  202.9660  150.6530 C   0  0  0  0  0  0  0  0  0  0  0  0
  161.7800  205.2820  149.8100 C   0  0  1  0  0  3  0  0  0  0  0  0
  161.7150  208.1770  150.4440 C   0  0  0  0  0  0  0  0  0  0  0  0
  160.0910  201.3400  149.2080 C   0  0  0  0  0  3  0  0  0  0  0  0
  161.7090  203.3470  151.9900 C   0  0  0  0  0  2  0  0  0  0  0  0
  160.6220  201.6840  150.4500 C   0  0  0  0  0  0  0  0  0  0  0  0
  163.7520  204.8050  145.1380 C   0  0  0  0  0  1  0  0  0  0  0  0
  161.7090  210.6240  154.1760 O   0  0  0  0  0  1  0  0  0  0  0  0
  160.3640  208.9050  152.9980 C   0  0  0  0  0  2  0  0  0  0  0  0
  161.2720  204.7620  152.3130 C   0  0  0  0  0  2  0  0  0  0  0  0
  160.1070  202.2590  148.1600 C   0  0  0  0  0  3  0  0  0  0  0  0
  161.1740  203.9040  149.5980 C   0  0  0  0  0  0  0  0  0  0  0  0
  162.5980  205.8830  146.9650 O   0  0  0  0  0  0  0  0  0  0  0  0
  1 27  1  0  0  0  0
  2  7  1  0  0  0  0
  2  1  1  1  0  0  0
  3 14  1  6  0  0  0
  3 17  1  0  0  0  0
  4 24  1  0  0  0  0
  6 22  1  6  0  0  0
  6 28  1  0  0  0  0
  7 28  1  1  0  0  0
  7  3  1  0  0  0  0
  9 15  1  0  0  0  0
 10 13  1  0  0  0  0
 10 25  1  1  0  0  0
 11  8  1  6  0  0  0
 11  6  1  0  0  0  0
 11  2  1  0  0  0  0
 12 23  1  0  0  0  0
 13  4  2  0  0  0  0
 14 18  1  0  0  0  0
 15 12  2  0  0  0  0
 16 20  1  0  0  0  0
 17 27  1  1  0  0  0
 17 10  1  0  0  0  0
 18  9  2  0  0  0  0
 18 13  1  0  0  0  0
 19 21  2  0  0  0  0
 20 25  1  0  0  0  0
 21 16  1  0  0  0  0
 21  5  1  0  0  0  0
 24 12  1  0  0  0  0
 26  1  2  0  0  0  0
 26 19  1  0  0  0  0
 27 16  2  0  0  0  0
M  END
>  <MODEL>
2

>  <REMARK>
 VINA RESULT:      -8.6      3.333      8.206
  Name = 
  0 active torsions:
  status: ('A' for Active; 'I' for Inactive)
                            x       y       z     vdW  Elec       q    Type
                         _______ _______ _______ _____ _____    ______ ____

>  <TORSDO>
F 0

$$$$
=
 OpenBabel11052422533D

 28 33  0  0  1  0  0  0  0  0999 V2000
  161.6400  203.5880  147.4150 C   0  0  0  0  0  0  0  0  0  0  0  0
  161.8250  202.6180  148.5650 C   0  0  1  0  0  3  0  0  0  0  0  0
  161.5810  204.6770  150.0710 C   0  0  2  0  0  3  0  0  0  0  0  0
  161.9530  208.6640  150.4550 C   0  0  0  0  0  3  0  0  0  0  0  0
  161.2060  206.1340  144.0570 N   0  0  0  0  0  1  0  0  0  0  0  0
  159.6930  201.8890  149.2230 C   0  0  1  0  0  3  0  0  0  0  0  0
  161.4210  203.1630  149.9370 C   0  0  1  0  0  3  0  0  0  0  0  0
  161.5760  200.2030  148.9540 C   0  0  0  0  0  1  0  0  0  0  0  0
  161.0910  207.0480  152.9000 C   0  0  0  0  0  3  0  0  0  0  0  0
  160.7240  206.9510  149.1560 C   0  0  2  0  0  3  0  0  0  0  0  0
  160.8950  201.4510  148.3990 C   0  0  2  0  0  3  0  0  0  0  0  0
  161.7320  209.4550  152.7730 C   0  0  0  0  0  0  0  0  0  0  0  0
  161.3530  207.4650  150.4420 C   0  0  0  0  0  0  0  0  0  0  0  0
  161.1410  205.1190  151.4640 C   0  0  0  0  0  2  0  0  0  0  0  0
  161.0740  208.4520  153.3530 C   0  0  0  0  0  3  0  0  0  0  0  0
  161.0130  205.7520  146.4800 C   0  0  0  0  0  0  0  0  0  0  0  0
  160.7720  205.3970  148.9860 C   0  0  1  0  0  3  0  0  0  0  0  0
  161.2710  206.5960  151.6500 C   0  0  0  0  0  0  0  0  0  0  0  0
  161.8450  203.9980  145.0300 C   0  0  0  0  0  3  0  0  0  0  0  0
  160.5020  207.1450  146.6670 C   0  0  0  0  0  2  0  0  0  0  0  0
  161.3490  205.2900  145.1970 C   0  0  0  0  0  0  0  0  0  0  0  0
  158.8420  200.7470  149.7610 C   0  0  0  0  0  1  0  0  0  0  0  0
  161.5810  210.7410  153.2730 O   0  0  0  0  0  1  0  0  0  0  0  0
  162.6680  209.2270  151.6360 C   0  0  0  0  0  2  0  0  0  0  0  0
  161.1460  207.7390  147.9050 C   0  0  0  0  0  2  0  0  0  0  0  0
  161.9920  203.1560  146.1300 C   0  0  0  0  0  3  0  0  0  0  0  0
  161.1630  204.9060  147.6010 C   0  0  0  0  0  0  0  0  0  0  0  0
  160.1130  202.7390  150.2610 O   0  0  0  0  0  0  0  0  0  0  0  0
  1 27  1  0  0  0  0
  2  1  1  6  0  0  0
  2  7  1  0  0  0  0
  3 14  1  1  0  0  0
  4 24  1  0  0  0  0
  5 21  1  0  0  0  0
  6 22  1  1  0  0  0
  6 28  1  0  0  0  0
  7  3  1  0  0  0  0
  7 28  1  6  0  0  0
  9 15  1  0  0  0  0
 10 25  1  6  0  0  0
 10 13  1  0  0  0  0
 11  2  1  0  0  0  0
 11  8  1  1  0  0  0
 11  6  1  0  0  0  0
 12 23  1  0  0  0  0
 12 15  2  0  0  0  0
 13  4  2  0  0  0  0
 13 18  1  0  0  0  0
 14 18  1  0  0  0  0
 16 20  1  0  0  0  0
 16 27  2  0  0  0  0
 17 27  1  6  0  0  0
 17 10  1  0  0  0  0
 17  3  1  0  0  0  0
 18  9  2  0  0  0  0
 19 21  2  0  0  0  0
 19 26  1  0  0  0  0
 20 25  1  0  0  0  0
 21 16  1  0  0  0  0
 24 12  1  0  0  0  0
 26  1  2  0  0  0  0
M  END
>  <MODEL>
3

>  <REMARK>
 VINA RESULT:      -8.5      2.847      7.596
  Name = 
  0 active torsions:
  status: ('A' for Active; 'I' for Inactive)
                            x       y       z     vdW  Elec       q    Type
                         _______ _______ _______ _____ _____    ______ ____

>  <TORSDO>
F 0

$$$$
=
 OpenBabel11052422533D

 28 33  0  0  1  0  0  0  0  0999 V2000
  160.3740  210.0320  153.0000 C   0  0  0  0  0  0  0  0  0  0  0  0
  159.9150  209.4300  154.3130 C   0  0  1  0  0  3  0  0  0  0  0  0
  160.4700  207.1710  153.2370 C   0  0  2  0  0  3  0  0  0  0  0  0
  160.8980  205.0390  149.8530 C   0  0  0  0  0  3  0  0  0  0  0  0
  161.5550  211.9130  149.3940 N   0  0  0  0  0  1  0  0  0  0  0  0
  161.8000  209.2290  155.6970 C   0  0  1  0  0  3  0  0  0  0  0  0
  160.3250  207.9710  154.5310 C   0  0  1  0  0  3  0  0  0  0  0  0
  159.6350  210.1660  156.6420 C   0  0  0  0  0  1  0  0  0  0  0  0
  161.2370  203.5980  152.5260 C   0  0  0  0  0  3  0  0  0  0  0  0
  161.8370  207.0020  151.0360 C   0  0  2  0  0  3  0  0  0  0  0  0
  160.5940  210.1270  155.4560 C   0  0  2  0  0  3  0  0  0  0  0  0
  161.1140  202.6200  150.2340 C   0  0  0  0  0  0  0  0  0  0  0  0
  161.2390  205.6040  151.0200 C   0  0  0  0  0  0  0  0  0  0  0  0
  160.8920  205.7410  153.5620 C   0  0  0  0  0  2  0  0  0  0  0  0
  161.5100  202.5680  151.5050 C   0  0  0  0  0  3  0  0  0  0  0  0
  161.4960  209.9220  150.8380 C   0  0  0  0  0  0  0  0  0  0  0  0
  161.4830  207.8460  152.3040 C   0  0  1  0  0  3  0  0  0  0  0  0
  161.0560  204.9130  152.3290 C   0  0  0  0  0  0  0  0  0  0  0  0
  160.4250  211.9760  151.5460 C   0  0  0  0  0  3  0  0  0  0  0  0
  162.2670  209.1480  149.8160 C   0  0  0  0  0  2  0  0  0  0  0  0
  161.1620  211.2660  150.6010 C   0  0  0  0  0  0  0  0  0  0  0  0
  162.3580  209.2830  157.1120 C   0  0  0  0  0  1  0  0  0  0  0  0
  161.4900  201.6030  149.3670 O   0  0  0  0  0  1  0  0  0  0  0  0
  160.2340  203.7110  149.7300 C   0  0  0  0  0  2  0  0  0  0  0  0
  161.6740  207.7570  149.7070 C   0  0  0  0  0  2  0  0  0  0  0  0
  160.0320  211.3630  152.7340 C   0  0  0  0  0  3  0  0  0  0  0  0
  161.0970  209.2920  152.0360 C   0  0  0  0  0  0  0  0  0  0  0  0
  161.4920  207.9100  155.3240 O   0  0  0  0  0  0  0  0  0  0  0  0
  2  1  1  6  0  0  0
  2  7  1  0  0  0  0
  2 11  1  0  0  0  0
  3 14  1  1  0  0  0
  3  7  1  0  0  0  0
  4 13  2  0  0  0  0
  5 21  1  0  0  0  0
  6 22  1  1  0  0  0
  7 28  1  6  0  0  0
 10 25  1  6  0  0  0
 10 17  1  0  0  0  0
 11  6  1  0  0  0  0
 11  8  1  1  0  0  0
 12 15  2  0  0  0  0
 13 10  1  0  0  0  0
 13 18  1  0  0  0  0
 15  9  1  0  0  0  0
 16 27  1  0  0  0  0
 17 27  1  6  0  0  0
 17  3  1  0  0  0  0
 18  9  2  0  0  0  0
 18 14  1  0  0  0  0
 19 26  2  0  0  0  0
 20 16  1  0  0  0  0
 21 16  2  0  0  0  0
 21 19  1  0  0  0  0
 23 12  1  0  0  0  0
 24  4  1  0  0  0  0
 24 12  1  0  0  0  0
 25 20  1  0  0  0  0
 26  1  1  0  0  0  0
 27  1  2  0  0  0  0
 28  6  1  0  0  0  0
M  END
>  <MODEL>
4

>  <REMARK>
 VINA RESULT:      -8.4      0.982      1.101
  Name = 
  0 active torsions:
  status: ('A' for Active; 'I' for Inactive)
                            x       y       z     vdW  Elec       q    Type
                         _______ _______ _______ _____ _____    ______ ____

>  <TORSDO>
F 0

$$$$
=
 OpenBabel11052422533D

 28 33  0  0  1  0  0  0  0  0999 V2000
  159.4080  212.6280  151.9940 C   0  0  0  0  0  0  0  0  0  0  0  0
  158.6190  212.3390  153.2560 C   0  0  1  0  0  3  0  0  0  0  0  0
  159.6720  210.0060  153.1350 C   0  0  2  0  0  3  0  0  0  0  0  0
  161.3070  207.1360  150.8390 C   0  0  0  0  0  3  0  0  0  0  0  0
  161.4790  213.6240  148.4360 N   0  0  0  0  0  1  0  0  0  0  0  0
  159.9950  212.8600  155.0850 C   0  0  1  0  0  3  0  0  0  0  0  0
  159.0660  211.0920  154.0230 C   0  0  1  0  0  3  0  0  0  0  0  0
  157.5710  213.6260  155.0700 C   0  0  0  0  0  1  0  0  0  0  0  0
  160.9270  206.5670  153.8170 C   0  0  0  0  0  3  0  0  0  0  0  0
  161.6620  209.4810  151.5510 C   0  0  2  0  0  3  0  0  0  0  0  0
  158.8500  213.4310  154.2600 C   0  0  2  0  0  3  0  0  0  0  0  0
  161.6030  204.9910  152.0040 C   0  0  0  0  0  0  0  0  0  0  0  0
  161.2210  208.0500  151.8160 C   0  0  0  0  0  0  0  0  0  0  0  0
  160.0950  208.8170  153.9930 C   0  0  0  0  0  2  0  0  0  0  0  0
  161.5890  205.3610  153.2840 C   0  0  0  0  0  3  0  0  0  0  0  0
  161.1490  212.1270  150.3610 C   0  0  0  0  0  0  0  0  0  0  0  0
  160.8620  210.5650  152.3460 C   0  0  1  0  0  3  0  0  0  0  0  0
  160.7030  207.7240  153.1750 C   0  0  0  0  0  0  0  0  0  0  0  0
  159.7390  214.0760  150.0730 C   0  0  0  0  0  3  0  0  0  0  0  0
  162.2620  211.2510  149.8810 C   0  0  0  0  0  2  0  0  0  0  0  0
  160.7900  213.2740  149.6330 C   0  0  0  0  0  0  0  0  0  0  0  0
  160.0820  213.3980  156.5060 C   0  0  0  0  0  1  0  0  0  0  0  0
  162.3150  203.8580  151.6360 O   0  0  0  0  0  1  0  0  0  0  0  0
  160.8310  205.7290  150.9660 C   0  0  0  0  0  2  0  0  0  0  0  0
  161.8540  209.8020  150.0600 C   0  0  0  0  0  2  0  0  0  0  0  0
  159.0520  213.7540  151.2420 C   0  0  0  0  0  3  0  0  0  0  0  0
  160.4550  211.7910  151.5440 C   0  0  0  0  0  0  0  0  0  0  0  0
  159.9320  211.4570  155.0780 O   0  0  0  0  0  0  0  0  0  0  0  0
  2  1  1  6  0  0  0
  2  7  1  0  0  0  0
  2 11  1  0  0  0  0
  3 14  1  1  0  0  0
  3  7  1  0  0  0  0
  4 24  1  0  0  0  0
  4 13  2  0  0  0  0
  5 21  1  0  0  0  0
  6 22  1  1  0  0  0
  7 28  1  1  0  0  0
 10 25  1  6  0  0  0
 10 13  1  0  0  0  0
 10 17  1  0  0  0  0
 11  8  1  1  0  0  0
 11  6  1  0  0  0  0
 12 15  2  0  0  0  0
 13 18  1  0  0  0  0
 15  9  1  0  0  0  0
 16 27  2  0  0  0  0
 17 27  1  6  0  0  0
 17  3  1  0  0  0  0
 18  9  2  0  0  0  0
 18 14  1  0  0  0  0
 19 26  1  0  0  0  0
 20 25  1  0  0  0  0
 20 16  1  0  0  0  0
 21 19  2  0  0  0  0
 21 16  1  0  0  0  0
 23 12  1  0  0  0  0
 24 12  1  0  0  0  0
 26  1  2  0  0  0  0
 27  1  1  0  0  0  0
 28  6  1  0  0  0  0
M  END
>  <MODEL>
5

>  <REMARK>
 VINA RESULT:      -6.3      1.566      2.239
  Name = 
  0 active torsions:
  status: ('A' for Active; 'I' for Inactive)
                            x       y       z     vdW  Elec       q    Type
                         _______ _______ _______ _____ _____    ______ ____

>  <TORSDO>
F 0

$$$$
