=
 OpenBabel11052422163D

 25 29  0  0  0  0  0  0  0  0999 V2000
  161.4190  205.0070  148.5870 C   0  0  0  0  0  0  0  0  0  0  0  0
  161.4710  206.2340  149.2740 C   0  0  0  0  0  0  0  0  0  0  0  0
  161.9480  206.1420  146.5080 C   0  0  0  0  0  3  0  0  0  0  0  0
  161.1460  203.7220  149.0940 C   0  0  0  0  0  0  0  0  0  0  0  0
  160.6540  201.0430  149.7220 C   0  0  0  0  0  3  0  0  0  0  0  0
  161.9970  207.3250  147.1830 N   0  0  0  0  0  0  0  0  0  0  0  0
  161.1800  202.7370  148.1090 C   0  0  0  0  0  0  0  0  0  0  0  0
  160.9390  201.3960  148.3940 C   0  0  0  0  0  3  0  0  0  0  0  0
  161.8300  208.6440  149.1800 C   0  0  0  0  0  0  0  0  0  0  0  0
  162.1210  209.8020  148.4680 O   0  0  0  0  0  1  0  0  0  0  0  0
  161.2420  206.3350  150.6520 C   0  0  0  0  0  3  0  0  0  0  0  0
  160.6160  202.0250  150.7280 C   0  0  0  0  0  3  0  0  0  0  0  0
  161.6580  204.9830  147.2160 C   0  0  0  0  0  0  0  0  0  0  0  0
  161.5420  203.4140  146.6090 S   0  0  0  0  0  0  0  0  0  0  0  0
  161.5990  208.7230  150.5560 C   0  0  0  0  0  3  0  0  0  0  0  0
  160.8620  203.3720  150.4180 C   0  0  0  0  0  3  0  0  0  0  0  0
  161.3020  207.5740  151.3060 C   0  0  0  0  0  0  0  0  0  0  0  0
  161.7700  207.4050  148.5290 C   0  0  0  0  0  0  0  0  0  0  0  0
  160.7000  209.0080  154.7660 C   0  0  0  0  0  0  0  0  0  0  0  0
  161.0570  207.6680  152.7640 C   0  0  0  0  0  0  0  0  0  0  0  0
  160.9320  208.9190  153.3900 C   0  0  0  0  0  3  0  0  0  0  0  0
  160.5750  210.2820  155.3860 N   0  0  0  0  0  1  0  0  0  0  0  0
  160.9470  206.5050  153.5480 C   0  0  0  0  0  3  0  0  0  0  0  0
  160.5930  207.8450  155.5320 C   0  0  0  0  0  3  0  0  0  0  0  0
  160.7160  206.5940  154.9230 C   0  0  0  0  0  3  0  0  0  0  0  0
  1  4  1  0  0  0  0
  1  2  1  0  0  0  0
  2 11  1  0  0  0  0
  3  6  2  0  0  0  0
  3 13  1  0  0  0  0
  4 16  1  0  0  0  0
  5 12  1  0  0  0  0
  6 18  1  0  0  0  0
  7  8  1  0  0  0  0
  7  4  2  0  0  0  0
  8  5  2  0  0  0  0
  9 15  2  0  0  0  0
 10  9  1  0  0  0  0
 11 17  2  0  0  0  0
 13  1  2  0  0  0  0
 14 13  1  0  0  0  0
 14  7  1  0  0  0  0
 15 17  1  0  0  0  0
 16 12  2  0  0  0  0
 17 20  1  0  0  0  0
 18  9  1  0  0  0  0
 18  2  2  0  0  0  0
 19 22  1  0  0  0  0
 19 24  1  0  0  0  0
 20 21  1  0  0  0  0
 20 23  2  0  0  0  0
 21 19  2  0  0  0  0
 23 25  1  0  0  0  0
 25 24  2  0  0  0  0
M  END
>  <MODEL>
1

>  <REMARK>
 VINA RESULT:     -11.4      0.000      0.000
  Name = 
  1 active torsions:
  status: ('A' for Active; 'I' for Inactive)
    1  A    between atoms: C_6  and  C_23
                            x       y       z     vdW  Elec       q    Type
                         _______ _______ _______ _____ _____    ______ ____

>  <TORSDO>
F 1

$$$$
=
 OpenBabel11052422163D

 25 29  0  0  0  0  0  0  0  0999 V2000
  161.4060  205.8360  149.5380 C   0  0  0  0  0  0  0  0  0  0  0  0
  161.4420  206.9900  150.3440 C   0  0  0  0  0  0  0  0  0  0  0  0
  161.9710  207.1690  147.5910 C   0  0  0  0  0  3  0  0  0  0  0  0
  161.1260  204.5070  149.9130 C   0  0  0  0  0  0  0  0  0  0  0  0
  160.6280  201.7790  150.2650 C   0  0  0  0  0  3  0  0  0  0  0  0
  162.0050  208.2800  148.3800 N   0  0  0  0  0  0  0  0  0  0  0  0
  161.1810  203.6230  148.8360 C   0  0  0  0  0  0  0  0  0  0  0  0
  160.9370  202.2610  148.9840 C   0  0  0  0  0  3  0  0  0  0  0  0
  161.7980  209.3970  150.4920 C   0  0  0  0  0  0  0  0  0  0  0  0
  162.1000  210.6190  149.9030 O   0  0  0  0  0  1  0  0  0  0  0  0
  161.1870  206.9550  151.7200 C   0  0  0  0  0  3  0  0  0  0  0  0
  160.5690  202.6580  151.3620 C   0  0  0  0  0  3  0  0  0  0  0  0
  161.6710  205.9460  148.1770 C   0  0  0  0  0  0  0  0  0  0  0  0
  161.5690  204.4440  147.4170 S   0  0  0  0  0  0  0  0  0  0  0  0
  161.5400  209.3410  151.8650 C   0  0  0  0  0  3  0  0  0  0  0  0
  160.8170  204.0290  151.1900 C   0  0  0  0  0  3  0  0  0  0  0  0
  161.2320  208.1240  152.4930 C   0  0  0  0  0  0  0  0  0  0  0  0
  161.7520  208.2270  149.7220 C   0  0  0  0  0  0  0  0  0  0  0  0
  160.8570  209.1750  156.1190 C   0  0  0  0  0  0  0  0  0  0  0  0
  160.9600  208.0750  153.9490 C   0  0  0  0  0  0  0  0  0  0  0  0
  161.1140  209.2220  154.7450 C   0  0  0  0  0  3  0  0  0  0  0  0
  161.0170  210.3440  156.9130 N   0  0  0  0  0  1  0  0  0  0  0  0
  160.5430  206.8780  154.5590 C   0  0  0  0  0  3  0  0  0  0  0  0
  160.4430  207.9800  156.7110 C   0  0  0  0  0  3  0  0  0  0  0  0
  160.2850  206.8320  155.9310 C   0  0  0  0  0  3  0  0  0  0  0  0
  1  4  1  0  0  0  0
  1  2  2  0  0  0  0
  2 11  1  0  0  0  0
  3 13  2  0  0  0  0
  3  6  1  0  0  0  0
  4 16  1  0  0  0  0
  5 12  1  0  0  0  0
  6 18  2  0  0  0  0
  7  8  1  0  0  0  0
  7  4  2  0  0  0  0
  8  5  2  0  0  0  0
  9 15  2  0  0  0  0
 10  9  1  0  0  0  0
 11 17  2  0  0  0  0
 13  1  1  0  0  0  0
 14 13  1  0  0  0  0
 14  7  1  0  0  0  0
 15 17  1  0  0  0  0
 16 12  2  0  0  0  0
 17 20  1  0  0  0  0
 18  2  1  0  0  0  0
 18  9  1  0  0  0  0
 19 24  1  0  0  0  0
 19 22  1  0  0  0  0
 20 23  2  0  0  0  0
 20 21  1  0  0  0  0
 21 19  2  0  0  0  0
 23 25  1  0  0  0  0
 25 24  2  0  0  0  0
M  END
>  <MODEL>
2

>  <REMARK>
 VINA RESULT:     -11.0      1.034      1.300
  Name = 
  1 active torsions:
  status: ('A' for Active; 'I' for Inactive)
    1  A    between atoms: C_6  and  C_23
                            x       y       z     vdW  Elec       q    Type
                         _______ _______ _______ _____ _____    ______ ____

>  <TORSDO>
F 1

$$$$
=
 OpenBabel11052422163D

 25 29  0  0  0  0  0  0  0  0999 V2000
  161.2030  208.7370  152.9750 C   0  0  0  0  0  0  0  0  0  0  0  0
  161.3860  208.0040  151.7870 C   0  0  0  0  0  0  0  0  0  0  0  0
  161.7740  210.7850  151.8050 C   0  0  0  0  0  3  0  0  0  0  0  0
  160.8310  208.2710  154.2510 C   0  0  0  0  0  0  0  0  0  0  0  0
  160.1180  207.7340  156.9000 C   0  0  0  0  0  3  0  0  0  0  0  0
  161.9480  210.0660  150.6610 N   0  0  0  0  0  0  0  0  0  0  0  0
  160.7490  209.2950  155.1940 C   0  0  0  0  0  0  0  0  0  0  0  0
  160.3960  209.0550  156.5180 C   0  0  0  0  0  3  0  0  0  0  0  0
  161.9580  208.0150  149.4170 C   0  0  0  0  0  0  0  0  0  0  0  0
  162.3310  208.6900  148.2610 O   0  0  0  0  0  1  0  0  0  0  0  0
  161.2050  206.6160  151.7240 C   0  0  0  0  0  3  0  0  0  0  0  0
  160.1960  206.6890  155.9610 C   0  0  0  0  0  3  0  0  0  0  0  0
  161.4010  210.1140  152.9630 C   0  0  0  0  0  0  0  0  0  0  0  0
  161.1280  210.7780  154.4890 S   0  0  0  0  0  0  0  0  0  0  0  0
  161.7720  206.6310  149.3750 C   0  0  0  0  0  3  0  0  0  0  0  0
  160.5540  206.9530  154.6290 C   0  0  0  0  0  3  0  0  0  0  0  0
  161.3950  205.9170  150.5240 C   0  0  0  0  0  0  0  0  0  0  0  0
  161.7670  208.7120  150.6180 C   0  0  0  0  0  0  0  0  0  0  0  0
  160.8310  202.4110  149.1890 C   0  0  0  0  0  0  0  0  0  0  0  0
  161.2010  204.4490  150.4700 C   0  0  0  0  0  0  0  0  0  0  0  0
  161.0140  203.7960  149.2390 C   0  0  0  0  0  3  0  0  0  0  0  0
  160.6430  201.7640  147.9360 N   0  0  0  0  0  1  0  0  0  0  0  0
  161.1990  203.6830  151.6490 C   0  0  0  0  0  3  0  0  0  0  0  0
  160.8310  201.6630  150.3680 C   0  0  0  0  0  3  0  0  0  0  0  0
  161.0160  202.2990  151.5980 C   0  0  0  0  0  3  0  0  0  0  0  0
  1  4  1  0  0  0  0
  2  1  1  0  0  0  0
  3 13  1  0  0  0  0
  4 16  2  0  0  0  0
  4  7  1  0  0  0  0
  6  3  2  0  0  0  0
  7  8  2  0  0  0  0
  8  5  1  0  0  0  0
  9 18  1  0  0  0  0
 10  9  1  0  0  0  0
 11  2  1  0  0  0  0
 12  5  2  0  0  0  0
 13  1  2  0  0  0  0
 13 14  1  0  0  0  0
 14  7  1  0  0  0  0
 15  9  2  0  0  0  0
 15 17  1  0  0  0  0
 16 12  1  0  0  0  0
 17 11  2  0  0  0  0
 18  6  1  0  0  0  0
 18  2  2  0  0  0  0
 19 21  2  0  0  0  0
 19 24  1  0  0  0  0
 20 17  1  0  0  0  0
 20 23  2  0  0  0  0
 21 20  1  0  0  0  0
 22 19  1  0  0  0  0
 24 25  2  0  0  0  0
 25 23  1  0  0  0  0
M  END
>  <MODEL>
3

>  <REMARK>
 VINA RESULT:     -10.5      2.787      6.682
  Name = 
  1 active torsions:
  status: ('A' for Active; 'I' for Inactive)
    1  A    between atoms: C_6  and  C_23
                            x       y       z     vdW  Elec       q    Type
                         _______ _______ _______ _____ _____    ______ ____

>  <TORSDO>
F 1

$$$$
=
 OpenBabel11052422163D

 25 29  0  0  0  0  0  0  0  0999 V2000
  161.4770  207.3950  151.3190 C   0  0  0  0  0  0  0  0  0  0  0  0
  161.3020  206.0440  150.9650 C   0  0  0  0  0  0  0  0  0  0  0  0
  161.2700  206.8120  153.6660 C   0  0  0  0  0  3  0  0  0  0  0  0
  161.6790  208.5080  150.4810 C   0  0  0  0  0  0  0  0  0  0  0  0
  162.0960  210.9350  149.1570 C   0  0  0  0  0  3  0  0  0  0  0  0
  161.1020  205.5070  153.3120 N   0  0  0  0  0  0  0  0  0  0  0  0
  161.8120  209.7000  151.1920 C   0  0  0  0  0  0  0  0  0  0  0  0
  162.0200  210.9210  150.5580 C   0  0  0  0  0  3  0  0  0  0  0  0
  160.9360  203.7460  151.6920 C   0  0  0  0  0  0  0  0  0  0  0  0
  160.7480  202.8050  152.6990 O   0  0  0  0  0  1  0  0  0  0  0  0
  161.3100  205.6090  149.6340 C   0  0  0  0  0  3  0  0  0  0  0  0
  161.9640  209.7410  148.4250 C   0  0  0  0  0  3  0  0  0  0  0  0
  161.4570  207.7550  152.6630 C   0  0  0  0  0  0  0  0  0  0  0  0
  161.6840  209.4160  152.8480 S   0  0  0  0  0  0  0  0  0  0  0  0
  160.9470  203.3310  150.3580 C   0  0  0  0  0  3  0  0  0  0  0  0
  161.7540  208.5200  149.0840 C   0  0  0  0  0  3  0  0  0  0  0  0
  161.1330  204.2540  149.3160 C   0  0  0  0  0  0  0  0  0  0  0  0
  161.1130  205.1000  152.0070 C   0  0  0  0  0  0  0  0  0  0  0  0
  161.3650  204.3010  145.5300 C   0  0  0  0  0  0  0  0  0  0  0  0
  161.1440  203.8050  147.9040 C   0  0  0  0  0  0  0  0  0  0  0  0
  161.3550  204.7240  146.8620 C   0  0  0  0  0  3  0  0  0  0  0  0
  161.5800  205.2430  144.4860 N   0  0  0  0  0  1  0  0  0  0  0  0
  160.9410  202.4520  147.5810 C   0  0  0  0  0  3  0  0  0  0  0  0
  161.1620  202.9540  145.2240 C   0  0  0  0  0  3  0  0  0  0  0  0
  160.9510  202.0290  146.2490 C   0  0  0  0  0  3  0  0  0  0  0  0
  1 13  1  0  0  0  0
  2  1  2  0  0  0  0
  2 18  1  0  0  0  0
  4  7  1  0  0  0  0
  4  1  1  0  0  0  0
  5  8  1  0  0  0  0
  6  3  1  0  0  0  0
  7 14  1  0  0  0  0
  8  7  2  0  0  0  0
  9 18  1  0  0  0  0
  9 10  1  0  0  0  0
 11  2  1  0  0  0  0
 12 16  1  0  0  0  0
 12  5  2  0  0  0  0
 13 14  1  0  0  0  0
 13  3  2  0  0  0  0
 15  9  2  0  0  0  0
 16  4  2  0  0  0  0
 17 11  2  0  0  0  0
 17 15  1  0  0  0  0
 18  6  2  0  0  0  0
 19 21  1  0  0  0  0
 20 17  1  0  0  0  0
 21 20  2  0  0  0  0
 22 19  1  0  0  0  0
 23 20  1  0  0  0  0
 24 19  2  0  0  0  0
 24 25  1  0  0  0  0
 25 23  2  0  0  0  0
M  END
>  <MODEL>
4

>  <REMARK>
 VINA RESULT:     -10.5      2.972      7.464
  Name = 
  1 active torsions:
  status: ('A' for Active; 'I' for Inactive)
    1  A    between atoms: C_6  and  C_23
                            x       y       z     vdW  Elec       q    Type
                         _______ _______ _______ _____ _____    ______ ____

>  <TORSDO>
F 1

$$$$
=
 OpenBabel11052422163D

 25 29  0  0  0  0  0  0  0  0999 V2000
  161.0320  203.5550  148.1270 C   0  0  0  0  0  0  0  0  0  0  0  0
  161.0310  204.0240  149.4540 C   0  0  0  0  0  0  0  0  0  0  0  0
  160.6560  201.2920  148.9190 C   0  0  0  0  0  3  0  0  0  0  0  0
  161.2030  204.2840  146.9340 C   0  0  0  0  0  0  0  0  0  0  0  0
  161.4980  205.3750  144.3780 C   0  0  0  0  0  3  0  0  0  0  0  0
  160.6570  201.7560  150.2010 N   0  0  0  0  0  0  0  0  0  0  0  0
  161.1440  203.4770  145.7990 C   0  0  0  0  0  0  0  0  0  0  0  0
  161.2870  203.9950  144.5150 C   0  0  0  0  0  3  0  0  0  0  0  0
  160.8310  203.5090  151.8290 C   0  0  0  0  0  0  0  0  0  0  0  0
  160.6420  202.6000  152.8630 O   0  0  0  0  0  1  0  0  0  0  0  0
  161.2140  205.3750  149.7750 C   0  0  0  0  0  3  0  0  0  0  0  0
  161.5600  206.2030  145.5130 C   0  0  0  0  0  3  0  0  0  0  0  0
  160.8440  202.1980  147.8830 C   0  0  0  0  0  0  0  0  0  0  0  0
  160.8830  201.8690  146.2300 S   0  0  0  0  0  0  0  0  0  0  0  0
  161.0140  204.8620  152.1290 C   0  0  0  0  0  3  0  0  0  0  0  0
  161.4130  205.6600  146.8000 C   0  0  0  0  0  3  0  0  0  0  0  0
  161.2070  205.8070  151.1090 C   0  0  0  0  0  0  0  0  0  0  0  0
  160.8370  203.0790  150.4960 C   0  0  0  0  0  0  0  0  0  0  0  0
  161.0310  209.1400  152.9130 C   0  0  0  0  0  0  0  0  0  0  0  0
  161.4020  207.2400  151.4360 C   0  0  0  0  0  0  0  0  0  0  0  0
  160.8470  207.7890  152.6040 C   0  0  0  0  0  3  0  0  0  0  0  0
  160.4630  209.6820  154.0990 N   0  0  0  0  0  1  0  0  0  0  0  0
  162.1440  208.0750  150.5820 C   0  0  0  0  0  3  0  0  0  0  0  0
  161.7700  209.9580  152.0550 C   0  0  0  0  0  3  0  0  0  0  0  0
  162.3270  209.4250  150.8900 C   0  0  0  0  0  3  0  0  0  0  0  0
  1  2  2  0  0  0  0
  2 11  1  0  0  0  0
  2 18  1  0  0  0  0
  3  6  1  0  0  0  0
  4  1  1  0  0  0  0
  5  8  2  0  0  0  0
  5 12  1  0  0  0  0
  6 18  2  0  0  0  0
  7 14  1  0  0  0  0
  7  4  2  0  0  0  0
  8  7  1  0  0  0  0
  9 15  2  0  0  0  0
  9 10  1  0  0  0  0
 11 17  2  0  0  0  0
 12 16  2  0  0  0  0
 13  1  1  0  0  0  0
 13  3  2  0  0  0  0
 14 13  1  0  0  0  0
 16  4  1  0  0  0  0
 17 20  1  0  0  0  0
 17 15  1  0  0  0  0
 18  9  1  0  0  0  0
 19 22  1  0  0  0  0
 20 21  2  0  0  0  0
 21 19  1  0  0  0  0
 23 25  2  0  0  0  0
 23 20  1  0  0  0  0
 24 19  2  0  0  0  0
 25 24  1  0  0  0  0
M  END
>  <MODEL>
5

>  <REMARK>
 VINA RESULT:     -10.1      2.512      4.281
  Name = 
  1 active torsions:
  status: ('A' for Active; 'I' for Inactive)
    1  A    between atoms: C_6  and  C_23
                            x       y       z     vdW  Elec       q    Type
                         _______ _______ _______ _____ _____    ______ ____

>  <TORSDO>
F 1

$$$$
=
 OpenBabel11052422163D

 25 29  0  0  0  0  0  0  0  0999 V2000
  161.0810  203.5310  148.1150 C   0  0  0  0  0  0  0  0  0  0  0  0
  161.0810  203.9690  149.4530 C   0  0  0  0  0  0  0  0  0  0  0  0
  160.8070  201.2380  148.8590 C   0  0  0  0  0  3  0  0  0  0  0  0
  161.2060  204.2930  146.9370 C   0  0  0  0  0  0  0  0  0  0  0  0
  161.4210  205.4530  144.4030 C   0  0  0  0  0  3  0  0  0  0  0  0
  160.8080  201.6720  150.1510 N   0  0  0  0  0  0  0  0  0  0  0  0
  161.1630  203.5110  145.7840 C   0  0  0  0  0  0  0  0  0  0  0  0
  161.2680  204.0630  144.5110 C   0  0  0  0  0  3  0  0  0  0  0  0
  160.9350  203.3930  151.8170 C   0  0  0  0  0  0  0  0  0  0  0  0
  160.7970  202.4530  152.8330 O   0  0  0  0  0  1  0  0  0  0  0  0
  161.2150  205.3190  149.8020 C   0  0  0  0  0  3  0  0  0  0  0  0
  161.4670  206.2570  145.5570 C   0  0  0  0  0  3  0  0  0  0  0  0
  160.9440  202.1740  147.8420 C   0  0  0  0  0  0  0  0  0  0  0  0
  160.9720  201.8850  146.1810 S   0  0  0  0  0  0  0  0  0  0  0  0
  161.0690  204.7450  152.1460 C   0  0  0  0  0  3  0  0  0  0  0  0
  161.3600  205.6800  146.8320 C   0  0  0  0  0  3  0  0  0  0  0  0
  161.2110  205.7200  151.1460 C   0  0  0  0  0  0  0  0  0  0  0  0
  160.9390  202.9940  150.4740 C   0  0  0  0  0  0  0  0  0  0  0  0
  161.9060  209.4410  150.8830 C   0  0  0  0  0  0  0  0  0  0  0  0
  161.3530  207.1510  151.5040 C   0  0  0  0  0  0  0  0  0  0  0  0
  161.7720  208.0900  150.5460 C   0  0  0  0  0  3  0  0  0  0  0  0
  162.3310  210.3790  149.9030 N   0  0  0  0  0  1  0  0  0  0  0  0
  161.0720  207.5950  152.8080 C   0  0  0  0  0  3  0  0  0  0  0  0
  161.6230  209.8670  152.1830 C   0  0  0  0  0  3  0  0  0  0  0  0
  161.2060  208.9440  153.1450 C   0  0  0  0  0  3  0  0  0  0  0  0
  1  2  2  0  0  0  0
  2 11  1  0  0  0  0
  2 18  1  0  0  0  0
  3  6  1  0  0  0  0
  4  1  1  0  0  0  0
  5  8  2  0  0  0  0
  5 12  1  0  0  0  0
  6 18  2  0  0  0  0
  7 14  1  0  0  0  0
  7  4  2  0  0  0  0
  8  7  1  0  0  0  0
  9 15  2  0  0  0  0
  9 10  1  0  0  0  0
 11 17  2  0  0  0  0
 12 16  2  0  0  0  0
 13  1  1  0  0  0  0
 13  3  2  0  0  0  0
 14 13  1  0  0  0  0
 16  4  1  0  0  0  0
 17 20  1  0  0  0  0
 17 15  1  0  0  0  0
 18  9  1  0  0  0  0
 19 24  1  0  0  0  0
 20 23  2  0  0  0  0
 21 19  2  0  0  0  0
 21 20  1  0  0  0  0
 22 19  1  0  0  0  0
 23 25  1  0  0  0  0
 24 25  2  0  0  0  0
M  END
>  <MODEL>
6

>  <REMARK>
 VINA RESULT:     -10.1      2.621      4.401
  Name = 
  1 active torsions:
  status: ('A' for Active; 'I' for Inactive)
    1  A    between atoms: C_6  and  C_23
                            x       y       z     vdW  Elec       q    Type
                         _______ _______ _______ _____ _____    ______ ____

>  <TORSDO>
F 1

$$$$
=
 OpenBabel11052422163D

 25 29  0  0  0  0  0  0  0  0999 V2000
  161.4530  207.9610  151.1860 C   0  0  0  0  0  0  0  0  0  0  0  0
  161.4980  207.0630  150.1030 C   0  0  0  0  0  0  0  0  0  0  0  0
  161.9140  209.8090  149.6820 C   0  0  0  0  0  3  0  0  0  0  0  0
  161.2170  207.6900  152.5480 C   0  0  0  0  0  0  0  0  0  0  0  0
  160.7890  207.5500  155.3070 C   0  0  0  0  0  3  0  0  0  0  0  0
  161.9550  208.9320  148.6400 N   0  0  0  0  0  0  0  0  0  0  0  0
  161.2480  208.8380  153.3380 C   0  0  0  0  0  0  0  0  0  0  0  0
  161.0380  208.7960  154.7130 C   0  0  0  0  0  3  0  0  0  0  0  0
  161.8100  206.7260  147.7090 C   0  0  0  0  0  0  0  0  0  0  0  0
  162.0620  207.2220  146.4350 O   0  0  0  0  0  1  0  0  0  0  0  0
  161.2980  205.6860  150.2590 C   0  0  0  0  0  3  0  0  0  0  0  0
  160.7550  206.3820  154.5240 C   0  0  0  0  0  3  0  0  0  0  0  0
  161.6620  209.3180  150.9570 C   0  0  0  0  0  0  0  0  0  0  0  0
  161.5630  210.1970  152.3920 S   0  0  0  0  0  0  0  0  0  0  0  0
  161.6060  205.3550  147.8850 C   0  0  0  0  0  3  0  0  0  0  0  0
  160.9690  206.4460  153.1380 C   0  0  0  0  0  3  0  0  0  0  0  0
  161.3490  204.8200  149.1570 C   0  0  0  0  0  0  0  0  0  0  0  0
  161.7570  207.5900  148.8110 C   0  0  0  0  0  0  0  0  0  0  0  0
  161.0790  201.1090  148.4180 C   0  0  0  0  0  0  0  0  0  0  0  0
  161.1360  203.3640  149.3340 C   0  0  0  0  0  0  0  0  0  0  0  0
  161.2810  202.4820  148.2500 C   0  0  0  0  0  3  0  0  0  0  0  0
  161.2290  200.2280  147.3110 N   0  0  0  0  0  1  0  0  0  0  0  0
  160.7830  202.8400  150.5910 C   0  0  0  0  0  3  0  0  0  0  0  0
  160.7300  200.6020  149.6710 C   0  0  0  0  0  3  0  0  0  0  0  0
  160.5820  201.4680  150.7580 C   0  0  0  0  0  3  0  0  0  0  0  0
  1  4  1  0  0  0  0
  2 11  1  0  0  0  0
  2  1  1  0  0  0  0
  3 13  1  0  0  0  0
  4 16  2  0  0  0  0
  4  7  1  0  0  0  0
  6 18  1  0  0  0  0
  6  3  2  0  0  0  0
  7  8  2  0  0  0  0
  8  5  1  0  0  0  0
  9 15  2  0  0  0  0
  9 18  1  0  0  0  0
 10  9  1  0  0  0  0
 12  5  2  0  0  0  0
 13  1  2  0  0  0  0
 13 14  1  0  0  0  0
 14  7  1  0  0  0  0
 15 17  1  0  0  0  0
 16 12  1  0  0  0  0
 17 20  1  0  0  0  0
 17 11  2  0  0  0  0
 18  2  2  0  0  0  0
 19 24  1  0  0  0  0
 20 23  2  0  0  0  0
 21 19  2  0  0  0  0
 21 20  1  0  0  0  0
 22 19  1  0  0  0  0
 23 25  1  0  0  0  0
 24 25  2  0  0  0  0
M  END
>  <MODEL>
7

>  <REMARK>
 VINA RESULT:      -9.9      2.482      6.439
  Name = 
  1 active torsions:
  status: ('A' for Active; 'I' for Inactive)
    1  A    between atoms: C_6  and  C_23
                            x       y       z     vdW  Elec       q    Type
                         _______ _______ _______ _____ _____    ______ ____

>  <TORSDO>
F 1

$$$$
=
 OpenBabel11052422163D

 25 29  0  0  0  0  0  0  0  0999 V2000
  161.1930  204.0030  149.0550 C   0  0  0  0  0  0  0  0  0  0  0  0
  161.2290  204.8910  150.1460 C   0  0  0  0  0  0  0  0  0  0  0  0
  161.0510  202.1230  150.5820 C   0  0  0  0  0  3  0  0  0  0  0  0
  161.2350  204.2950  147.6780 C   0  0  0  0  0  0  0  0  0  0  0  0
  161.2940  204.4740  144.8890 C   0  0  0  0  0  3  0  0  0  0  0  0
  161.0860  202.9910  151.6320 N   0  0  0  0  0  0  0  0  0  0  0  0
  161.1790  203.1500  146.8840 C   0  0  0  0  0  0  0  0  0  0  0  0
  161.2060  203.2120  145.4940 C   0  0  0  0  0  3  0  0  0  0  0  0
  161.2070  205.1980  152.5650 C   0  0  0  0  0  0  0  0  0  0  0  0
  161.1520  204.6810  153.8540 O   0  0  0  0  0  1  0  0  0  0  0  0
  161.3180  206.2800  149.9830 C   0  0  0  0  0  3  0  0  0  0  0  0
  161.3530  205.6390  145.6760 C   0  0  0  0  0  3  0  0  0  0  0  0
  161.1040  202.6350  149.2920 C   0  0  0  0  0  0  0  0  0  0  0  0
  161.0770  201.7700  147.8450 S   0  0  0  0  0  0  0  0  0  0  0  0
  161.2950  206.5800  152.3810 C   0  0  0  0  0  3  0  0  0  0  0  0
  161.3240  205.5550  147.0770 C   0  0  0  0  0  3  0  0  0  0  0  0
  161.3520  207.1360  151.0940 C   0  0  0  0  0  0  0  0  0  0  0  0
  161.1730  204.3440  151.4540 C   0  0  0  0  0  0  0  0  0  0  0  0
  161.9560  210.5290  149.5080 C   0  0  0  0  0  0  0  0  0  0  0  0
  161.4460  208.6030  150.9080 C   0  0  0  0  0  0  0  0  0  0  0  0
  161.8680  209.1450  149.6820 C   0  0  0  0  0  3  0  0  0  0  0  0
  162.3850  211.0620  148.2610 N   0  0  0  0  0  1  0  0  0  0  0  0
  161.1160  209.4800  151.9570 C   0  0  0  0  0  3  0  0  0  0  0  0
  161.6250  211.3880  150.5580 C   0  0  0  0  0  3  0  0  0  0  0  0
  161.2040  210.8630  151.7820 C   0  0  0  0  0  3  0  0  0  0  0  0
  1 13  1  0  0  0  0
  1  2  2  0  0  0  0
  2 18  1  0  0  0  0
  3  6  1  0  0  0  0
  4  1  1  0  0  0  0
  5  8  2  0  0  0  0
  5 12  1  0  0  0  0
  7  4  2  0  0  0  0
  7 14  1  0  0  0  0
  8  7  1  0  0  0  0
  9 10  1  0  0  0  0
 11  2  1  0  0  0  0
 11 17  2  0  0  0  0
 12 16  2  0  0  0  0
 13  3  2  0  0  0  0
 14 13  1  0  0  0  0
 15  9  2  0  0  0  0
 16  4  1  0  0  0  0
 17 15  1  0  0  0  0
 18  6  2  0  0  0  0
 18  9  1  0  0  0  0
 19 21  2  0  0  0  0
 19 24  1  0  0  0  0
 20 17  1  0  0  0  0
 20 23  2  0  0  0  0
 21 20  1  0  0  0  0
 22 19  1  0  0  0  0
 24 25  2  0  0  0  0
 25 23  1  0  0  0  0
M  END
>  <MODEL>
8

>  <REMARK>
 VINA RESULT:      -9.5      2.676      4.420
  Name = 
  1 active torsions:
  status: ('A' for Active; 'I' for Inactive)
    1  A    between atoms: C_6  and  C_23
                            x       y       z     vdW  Elec       q    Type
                         _______ _______ _______ _____ _____    ______ ____

>  <TORSDO>
F 1

$$$$
=
 OpenBabel11052422163D

 25 29  0  0  0  0  0  0  0  0999 V2000
  161.5010  206.5310  149.7190 C   0  0  0  0  0  0  0  0  0  0  0  0
  161.6550  207.8890  150.0540 C   0  0  0  0  0  0  0  0  0  0  0  0
  161.4020  205.9540  152.0740 C   0  0  0  0  0  3  0  0  0  0  0  0
  161.4510  205.9370  148.4430 C   0  0  0  0  0  0  0  0  0  0  0  0
  161.3050  204.4080  146.1070 C   0  0  0  0  0  3  0  0  0  0  0  0
  161.5510  207.2720  152.3880 N   0  0  0  0  0  0  0  0  0  0  0  0
  161.2890  204.5530  148.5000 C   0  0  0  0  0  0  0  0  0  0  0  0
  161.2130  203.7690  147.3520 C   0  0  0  0  0  3  0  0  0  0  0  0
  161.8280  209.5810  151.8000 C   0  0  0  0  0  0  0  0  0  0  0  0
  161.8520  209.9440  153.1420 O   0  0  0  0  0  1  0  0  0  0  0  0
  161.7850  208.8930  149.0860 C   0  0  0  0  0  3  0  0  0  0  0  0
  161.4680  205.8040  146.0320 C   0  0  0  0  0  3  0  0  0  0  0  0
  161.3770  205.5880  150.7350 C   0  0  0  0  0  0  0  0  0  0  0  0
  161.2060  204.0350  150.1010 S   0  0  0  0  0  0  0  0  0  0  0  0
  161.9560  210.5680  150.8200 C   0  0  0  0  0  3  0  0  0  0  0  0
  161.5420  206.5760  147.2020 C   0  0  0  0  0  3  0  0  0  0  0  0
  161.9370  210.2370  149.4560 C   0  0  0  0  0  0  0  0  0  0  0  0
  161.6770  208.2390  151.4290 C   0  0  0  0  0  0  0  0  0  0  0  0
  161.1230  212.6090  146.6080 C   0  0  0  0  0  0  0  0  0  0  0  0
  162.0740  211.2900  148.4220 C   0  0  0  0  0  0  0  0  0  0  0  0
  160.9940  211.6150  147.5830 C   0  0  0  0  0  3  0  0  0  0  0  0
  160.0220  212.9270  145.7670 N   0  0  0  0  0  1  0  0  0  0  0  0
  163.2870  211.9820  148.2610 C   0  0  0  0  0  3  0  0  0  0  0  0
  162.3340  213.2880  146.4600 C   0  0  0  0  0  3  0  0  0  0  0  0
  163.4160  212.9750  147.2860 C   0  0  0  0  0  3  0  0  0  0  0  0
  1  2  2  0  0  0  0
  1 13  1  0  0  0  0
  2 18  1  0  0  0  0
  3  6  1  0  0  0  0
  4  7  1  0  0  0  0
  4  1  1  0  0  0  0
  5  8  1  0  0  0  0
  7 14  1  0  0  0  0
  8  7  2  0  0  0  0
  9 10  1  0  0  0  0
 11 17  2  0  0  0  0
 11  2  1  0  0  0  0
 12  5  2  0  0  0  0
 12 16  1  0  0  0  0
 13  3  2  0  0  0  0
 14 13  1  0  0  0  0
 15  9  2  0  0  0  0
 16  4  2  0  0  0  0
 17 15  1  0  0  0  0
 18  9  1  0  0  0  0
 18  6  2  0  0  0  0
 19 21  1  0  0  0  0
 20 17  1  0  0  0  0
 21 20  2  0  0  0  0
 22 19  1  0  0  0  0
 23 20  1  0  0  0  0
 24 19  2  0  0  0  0
 24 25  1  0  0  0  0
 25 23  2  0  0  0  0
M  END
>  <MODEL>
9

>  <REMARK>
 VINA RESULT:      -8.6      2.971      5.623
  Name = 
  1 active torsions:
  status: ('A' for Active; 'I' for Inactive)
    1  A    between atoms: C_6  and  C_23
                            x       y       z     vdW  Elec       q    Type
                         _______ _______ _______ _____ _____    ______ ____

>  <TORSDO>
F 1

$$$$
