=
 OpenBabel11052423083D

 27 31  0  0  1  0  0  0  0  0999 V2000
  161.9440  204.1770  148.1470 O   0  0  0  0  0  0  0  0  0  0  0  0
  161.3040  206.1750  149.3460 C   0  0  0  0  0  0  0  0  0  0  0  0
  161.2440  204.0460  150.7800 C   0  0  0  0  0  2  0  0  0  0  0  0
  161.3040  208.6000  152.7880 C   0  0  0  0  0  3  0  0  0  0  0  0
  161.2610  206.7120  154.2140 C   0  0  0  0  0  3  0  0  0  0  0  0
  161.3010  207.5740  149.2620 C   0  0  0  0  0  3  0  0  0  0  0  0
  161.2490  205.8430  153.1210 C   0  0  0  0  0  0  0  0  0  0  0  0
  160.5030  200.9230  150.3170 C   0  0  0  0  0  2  0  0  0  0  0  0
  161.2180  204.5120  153.3760 F   0  0  0  0  0  0  0  0  0  0  0  0
  160.9500  200.6560  148.8890 C   0  0  0  0  0  2  0  0  0  0  0  0
  161.2680  206.3700  151.8030 C   0  0  0  0  0  0  0  0  0  0  0  0
  161.2200  205.3740  148.0500 C   0  0  1  0  0  3  0  0  0  0  0  0
  161.2890  208.0560  154.0300 N   0  0  0  0  0  0  0  0  0  0  0  0
  161.2950  207.7790  151.6600 C   0  0  0  0  0  0  0  0  0  0  0  0
  161.0280  203.1440  148.4210 C   0  0  1  0  0  3  0  0  0  0  0  0
  161.2550  205.5540  150.6350 C   0  0  0  0  0  0  0  0  0  0  0  0
  159.6060  202.1510  150.3410 C   0  0  0  0  0  2  0  0  0  0  0  0
  161.3040  208.3670  150.4020 C   0  0  0  0  0  3  0  0  0  0  0  0
  162.2450  201.5580  147.1200 F   0  0  0  0  0  0  0  0  0  0  0  0
  161.8010  201.8200  148.4030 C   0  0  2  0  0  3  0  0  0  0  0  0
  160.3120  203.3840  149.7750 C   0  0  1  0  0  3  0  0  0  0  0  0
  160.9360  204.4870  144.5230 C   0  0  0  0  0  3  0  0  0  0  0  0
  161.6180  206.1550  146.7830 C   0  0  2  0  0  3  0  0  0  0  0  0
  160.4040  206.5050  145.9150 C   0  0  0  0  0  2  0  0  0  0  0  0
  160.0900  205.4720  144.8600 C   0  0  0  0  0  3  0  0  0  0  0  0
  162.2400  204.2540  145.2360 C   0  0  0  0  0  2  0  0  0  0  0  0
  162.7350  205.5060  145.9550 C   0  0  0  0  0  2  0  0  0  0  0  0
  2 16  1  0  0  0  0
  4 13  2  0  0  0  0
  6  2  2  0  0  0  0
  6 18  1  0  0  0  0
  7  9  1  0  0  0  0
  7  5  2  0  0  0  0
  8 17  1  0  0  0  0
 10  8  1  0  0  0  0
 11  7  1  0  0  0  0
 12  1  1  1  0  0  0
 12  2  1  0  0  0  0
 13  5  1  0  0  0  0
 14 11  1  0  0  0  0
 14  4  1  0  0  0  0
 15  1  1  1  0  0  0
 15 21  1  0  0  0  0
 16  3  1  0  0  0  0
 16 11  2  0  0  0  0
 18 14  2  0  0  0  0
 20 19  1  6  0  0  0
 20 15  1  0  0  0  0
 20 10  1  0  0  0  0
 21 17  1  1  0  0  0
 21  3  1  0  0  0  0
 22 25  2  0  0  0  0
 22 26  1  0  0  0  0
 23 24  1  6  0  0  0
 23 12  1  0  0  0  0
 25 24  1  0  0  0  0
 26 27  1  0  0  0  0
 27 23  1  0  0  0  0
M  END
>  <MODEL>
1

>  <REMARK>
 VINA RESULT:      -9.5      0.000      0.000
  Name = 
  1 active torsions:
  status: ('A' for Active; 'I' for Inactive)
    1  A    between atoms: C_9  and  C_15
                            x       y       z     vdW  Elec       q    Type
                         _______ _______ _______ _____ _____    ______ ____

>  <TORSDO>
F 1

$$$$
=
 OpenBabel11052423083D

 27 31  0  0  1  0  0  0  0  0999 V2000
  161.6400  204.6460  148.2070 O   0  0  0  0  0  0  0  0  0  0  0  0
  161.3130  206.9200  148.9550 C   0  0  0  0  0  0  0  0  0  0  0  0
  161.3960  205.2060  150.8660 C   0  0  0  0  0  2  0  0  0  0  0  0
  162.0220  210.0840  151.6430 C   0  0  0  0  0  3  0  0  0  0  0  0
  162.1310  208.5990  153.4830 C   0  0  0  0  0  3  0  0  0  0  0  0
  161.3640  208.2540  148.5280 C   0  0  0  0  0  3  0  0  0  0  0  0
  161.8890  207.5000  152.6560 C   0  0  0  0  0  0  0  0  0  0  0  0
  160.4350  202.1420  151.3140 C   0  0  0  0  0  2  0  0  0  0  0  0
  161.8370  206.2770  153.2360 F   0  0  0  0  0  0  0  0  0  0  0  0
  160.6170  201.5050  149.9460 C   0  0  0  0  0  2  0  0  0  0  0  0
  161.7080  207.6950  151.2620 C   0  0  0  0  0  0  0  0  0  0  0  0
  160.9690  205.8450  147.9280 C   0  0  1  0  0  3  0  0  0  0  0  0
  162.1920  209.8530  152.9690 N   0  0  0  0  0  0  0  0  0  0  0  0
  161.7790  209.0220  150.7700 C   0  0  0  0  0  0  0  0  0  0  0  0
  160.7350  203.7930  148.8680 C   0  0  1  0  0  3  0  0  0  0  0  0
  161.4550  206.6300  150.3500 C   0  0  0  0  0  0  0  0  0  0  0  0
  159.6160  203.4160  151.1700 C   0  0  0  0  0  2  0  0  0  0  0  0
  161.6010  209.2910  149.4190 C   0  0  0  0  0  3  0  0  0  0  0  0
  161.6320  201.8420  147.8310 F   0  0  0  0  0  0  0  0  0  0  0  0
  161.4280  202.4390  149.0600 C   0  0  2  0  0  3  0  0  0  0  0  0
  160.2740  204.4120  150.2130 C   0  0  1  0  0  3  0  0  0  0  0  0
  161.3000  203.8320  144.9040 C   0  0  0  0  0  3  0  0  0  0  0  0
  161.1820  206.2640  146.4610 C   0  0  2  0  0  3  0  0  0  0  0  0
  159.9990  205.8710  145.5700 C   0  0  0  0  0  2  0  0  0  0  0  0
  160.1450  204.5130  144.9280 C   0  0  0  0  0  3  0  0  0  0  0  0
  162.5410  204.3110  145.6080 C   0  0  0  0  0  2  0  0  0  0  0  0
  162.5180  205.8170  145.8540 C   0  0  0  0  0  2  0  0  0  0  0  0
  2 16  1  0  0  0  0
  4 13  2  0  0  0  0
  6  2  2  0  0  0  0
  6 18  1  0  0  0  0
  7  9  1  0  0  0  0
  7  5  2  0  0  0  0
 10  8  1  0  0  0  0
 11  7  1  0  0  0  0
 12  1  1  1  0  0  0
 12  2  1  0  0  0  0
 13  5  1  0  0  0  0
 14 11  1  0  0  0  0
 14  4  1  0  0  0  0
 15  1  1  1  0  0  0
 15 20  1  0  0  0  0
 15 21  1  0  0  0  0
 16  3  1  0  0  0  0
 16 11  2  0  0  0  0
 17  8  1  0  0  0  0
 18 14  2  0  0  0  0
 20 19  1  6  0  0  0
 20 10  1  0  0  0  0
 21  3  1  1  0  0  0
 21 17  1  0  0  0  0
 22 25  2  0  0  0  0
 22 26  1  0  0  0  0
 23 24  1  6  0  0  0
 23 12  1  0  0  0  0
 25 24  1  0  0  0  0
 26 27  1  0  0  0  0
 27 23  1  0  0  0  0
M  END
>  <MODEL>
2

>  <REMARK>
 VINA RESULT:      -7.3      1.122      1.309
  Name = 
  1 active torsions:
  status: ('A' for Active; 'I' for Inactive)
    1  A    between atoms: C_9  and  C_15
                            x       y       z     vdW  Elec       q    Type
                         _______ _______ _______ _____ _____    ______ ____

>  <TORSDO>
F 1

$$$$
=
 OpenBabel11052423083D

 27 31  0  0  1  0  0  0  0  0999 V2000
  160.5210  204.2120  148.3680 O   0  0  0  0  0  0  0  0  0  0  0  0
  161.1920  205.5670  150.2530 C   0  0  0  0  0  0  0  0  0  0  0  0
  161.6540  206.6620  147.9770 C   0  0  0  0  0  2  0  0  0  0  0  0
  161.5700  209.2740  152.2140 C   0  0  0  0  0  3  0  0  0  0  0  0
  161.9950  210.3980  150.1750 C   0  0  0  0  0  3  0  0  0  0  0  0
  161.0720  205.6810  151.6450 C   0  0  0  0  0  3  0  0  0  0  0  0
  161.8950  209.2050  149.4560 C   0  0  0  0  0  0  0  0  0  0  0  0
  162.5510  205.6570  145.0270 C   0  0  0  0  0  2  0  0  0  0  0  0
  162.0720  209.2630  148.1140 F   0  0  0  0  0  0  0  0  0  0  0  0
  161.8970  204.2920  144.8990 C   0  0  0  0  0  2  0  0  0  0  0  0
  161.6180  207.9930  150.1400 C   0  0  0  0  0  0  0  0  0  0  0  0
  161.1240  204.1740  149.6340 C   0  0  1  0  0  3  0  0  0  0  0  0
  161.8330  210.4110  151.5210 N   0  0  0  0  0  0  0  0  0  0  0  0
  161.4570  208.0540  151.5460 C   0  0  0  0  0  0  0  0  0  0  0  0
  161.5480  204.1950  147.4050 C   0  0  1  0  0  3  0  0  0  0  0  0
  161.5020  206.7330  149.4830 C   0  0  0  0  0  0  0  0  0  0  0  0
  163.3410  205.7160  146.3250 C   0  0  0  0  0  2  0  0  0  0  0  0
  161.1950  206.9070  152.2840 C   0  0  0  0  0  3  0  0  0  0  0  0
  160.2610  202.8860  145.8820 F   0  0  0  0  0  0  0  0  0  0  0  0
  160.8880  204.1090  146.0240 C   0  0  2  0  0  3  0  0  0  0  0  0
  162.4570  205.4440  147.5440 C   0  0  1  0  0  3  0  0  0  0  0  0
  161.2500  200.5320  149.4700 C   0  0  0  0  0  3  0  0  0  0  0  0
  160.4620  203.1050  150.5250 C   0  0  2  0  0  3  0  0  0  0  0  0
  161.4960  202.2570  151.2750 C   0  0  0  0  0  2  0  0  0  0  0  0
  161.9100  201.0070  150.5360 C   0  0  0  0  0  3  0  0  0  0  0  0
  160.0900  201.2560  148.8410 C   0  0  0  0  0  2  0  0  0  0  0  0
  159.4250  202.2290  149.8110 C   0  0  0  0  0  2  0  0  0  0  0  0
  2  6  1  0  0  0  0
  3 16  1  0  0  0  0
  5 13  1  0  0  0  0
  6 18  2  0  0  0  0
  7 11  1  0  0  0  0
  7  5  2  0  0  0  0
  8 17  1  0  0  0  0
  9  7  1  0  0  0  0
 10  8  1  0  0  0  0
 10 20  1  0  0  0  0
 11 14  2  0  0  0  0
 12  1  1  6  0  0  0
 12  2  1  0  0  0  0
 12 23  1  0  0  0  0
 13  4  2  0  0  0  0
 14  4  1  0  0  0  0
 14 18  1  0  0  0  0
 15 21  1  0  0  0  0
 15  1  1  1  0  0  0
 16 11  1  0  0  0  0
 16  2  2  0  0  0  0
 20 19  1  6  0  0  0
 20 15  1  0  0  0  0
 21 17  1  6  0  0  0
 21  3  1  0  0  0  0
 22 25  2  0  0  0  0
 23 27  1  6  0  0  0
 23 24  1  0  0  0  0
 25 24  1  0  0  0  0
 26 22  1  0  0  0  0
 26 27  1  0  0  0  0
M  END
>  <MODEL>
3

>  <REMARK>
 VINA RESULT:      -7.1      1.981      4.551
  Name = 
  1 active torsions:
  status: ('A' for Active; 'I' for Inactive)
    1  A    between atoms: C_9  and  C_15
                            x       y       z     vdW  Elec       q    Type
                         _______ _______ _______ _____ _____    ______ ____

>  <TORSDO>
F 1

$$$$
=
 OpenBabel11052423083D

 27 31  0  0  1  0  0  0  0  0999 V2000
  160.4400  203.5500  147.4260 O   0  0  0  0  0  0  0  0  0  0  0  0
  161.0980  204.1680  149.6680 C   0  0  0  0  0  0  0  0  0  0  0  0
  161.2910  206.0850  147.9700 C   0  0  0  0  0  2  0  0  0  0  0  0
  161.2330  206.8840  152.8830 C   0  0  0  0  0  3  0  0  0  0  0  0
  161.4020  208.7340  151.4160 C   0  0  0  0  0  3  0  0  0  0  0  0
  161.0630  203.7360  151.0010 C   0  0  0  0  0  3  0  0  0  0  0  0
  161.3740  207.8950  150.3000 C   0  0  0  0  0  0  0  0  0  0  0  0
  162.0810  206.3770  144.8390 C   0  0  0  0  0  2  0  0  0  0  0  0
  161.4520  208.4740  149.0770 F   0  0  0  0  0  0  0  0  0  0  0  0
  161.5600  205.0920  144.2160 C   0  0  0  0  0  2  0  0  0  0  0  0
  161.2680  206.4910  150.4770 C   0  0  0  0  0  0  0  0  0  0  0  0
  161.1290  203.1120  148.5670 C   0  0  1  0  0  3  0  0  0  0  0  0
  161.3320  208.2200  152.6700 N   0  0  0  0  0  0  0  0  0  0  0  0
  161.1990  206.0000  151.8040 C   0  0  0  0  0  0  0  0  0  0  0  0
  161.3960  204.0200  146.5050 C   0  0  1  0  0  3  0  0  0  0  0  0
  161.2350  205.5660  149.3930 C   0  0  0  0  0  0  0  0  0  0  0  0
  162.9480  206.0370  146.0410 C   0  0  0  0  0  2  0  0  0  0  0  0
  161.1040  204.6370  152.0550 C   0  0  0  0  0  3  0  0  0  0  0  0
  160.1460  203.2350  144.6300 F   0  0  0  0  0  0  0  0  0  0  0  0
  160.6550  204.3810  145.2120 C   0  0  2  0  0  3  0  0  0  0  0  0
  162.1810  205.2240  147.0860 C   0  0  1  0  0  3  0  0  0  0  0  0
  160.9840  199.9680  146.7240 C   0  0  0  0  0  3  0  0  0  0  0  0
  160.6410  201.7160  148.9990 C   0  0  2  0  0  3  0  0  0  0  0  0
  161.7720  200.6820  148.9950 C   0  0  0  0  0  2  0  0  0  0  0  0
  161.9130  199.9380  147.6890 C   0  0  0  0  0  3  0  0  0  0  0  0
  159.7520  200.8290  146.8050 C   0  0  0  0  0  2  0  0  0  0  0  0
  159.4070  201.2060  148.2430 C   0  0  0  0  0  2  0  0  0  0  0  0
  2  6  1  0  0  0  0
  3 16  1  0  0  0  0
  5 13  2  0  0  0  0
  6 18  2  0  0  0  0
  7 11  2  0  0  0  0
  7  5  1  0  0  0  0
  8 17  1  0  0  0  0
  9  7  1  0  0  0  0
 10  8  1  0  0  0  0
 10 20  1  0  0  0  0
 11 14  1  0  0  0  0
 12  1  1  6  0  0  0
 12 23  1  0  0  0  0
 12  2  1  0  0  0  0
 13  4  1  0  0  0  0
 14 18  1  0  0  0  0
 14  4  2  0  0  0  0
 15 21  1  0  0  0  0
 15  1  1  1  0  0  0
 16  2  2  0  0  0  0
 16 11  1  0  0  0  0
 20 19  1  6  0  0  0
 20 15  1  0  0  0  0
 21 17  1  6  0  0  0
 21  3  1  0  0  0  0
 22 26  1  0  0  0  0
 22 25  2  0  0  0  0
 23 27  1  6  0  0  0
 24 23  1  0  0  0  0
 25 24  1  0  0  0  0
 26 27  1  0  0  0  0
M  END
>  <MODEL>
4

>  <REMARK>
 VINA RESULT:      -6.6      1.797      4.394
  Name = 
  1 active torsions:
  status: ('A' for Active; 'I' for Inactive)
    1  A    between atoms: C_9  and  C_15
                            x       y       z     vdW  Elec       q    Type
                         _______ _______ _______ _____ _____    ______ ____

>  <TORSDO>
F 1

$$$$
