=
 OpenBabel11052422083D

 25 27  0  0  1  0  0  0  0  0999 V2000
  161.0570  205.3760  151.1690 C   0  0  1  0  0  3  0  0  0  0  0  0
  160.6840  204.5750  149.9120 C   0  0  1  0  0  3  0  0  0  0  0  0
  162.2730  203.2080  151.7830 C   0  0  0  0  0  2  0  0  0  0  0  0
  160.9280  202.5370  151.5110 C   0  0  0  0  0  2  0  0  0  0  0  0
  160.0940  202.2210  149.1620 C   0  0  0  0  0  0  0  0  0  0  0  0
  159.2040  201.3880  149.1240 O   0  0  0  0  0  0  0  0  0  0  0  0
  161.8470  204.5080  148.9140 C   0  0  0  0  0  2  0  0  0  0  0  0
  162.1030  204.7020  152.0760 C   0  0  0  0  0  2  0  0  0  0  0  0
  161.1370  202.2420  148.0870 C   0  0  0  0  0  2  0  0  0  0  0  0
  161.4580  203.6810  147.6920 C   0  0  2  0  0  3  0  0  0  0  0  0
  160.1800  203.1700  150.3240 C   0  0  2  0  0  3  0  0  0  0  0  0
  161.3060  206.8370  150.9200 C   0  0  0  0  0  0  0  0  0  0  0  0
  161.8560  209.5300  150.3480 C   0  0  0  0  0  3  0  0  0  0  0  0
  161.1260  207.8260  151.9110 C   0  0  0  0  0  0  0  0  0  0  0  0
  161.4010  209.1650  151.6170 C   0  0  0  0  0  3  0  0  0  0  0  0
  162.0400  208.5540  149.3670 C   0  0  0  0  0  3  0  0  0  0  0  0
  160.6750  207.4950  153.1830 O   0  0  0  0  0  1  0  0  0  0  0  0
  161.7680  207.2140  149.6530 C   0  0  0  0  0  3  0  0  0  0  0  0
  162.5430  203.7320  146.6200 C   0  0  0  0  0  2  0  0  0  0  0  0
  162.7570  205.1400  146.0720 C   0  0  0  0  0  2  0  0  0  0  0  0
  161.7220  205.4590  145.0070 C   0  0  1  0  0  3  0  0  0  0  0  0
  161.3250  204.2880  144.3890 F   0  0  0  0  0  0  0  0  0  0  0  0
  160.5340  206.1320  145.6100 C   0  0  0  0  0  0  0  0  0  0  0  0
  159.2550  205.8490  145.1460 O   0  0  0  0  0  0  0  0  0  0  0  0
  160.6910  206.9500  146.5530 O   0  0  0  0  0  1  0  0  0  0  0  0
  1 12  1  6  0  0  0
  1  8  1  0  0  0  0
  2  7  1  6  0  0  0
  2 11  1  0  0  0  0
  2  1  1  0  0  0  0
  3  8  1  0  0  0  0
  4  3  1  0  0  0  0
  5 11  1  0  0  0  0
  6  5  2  0  0  0  0
  9  5  1  0  0  0  0
 10 19  1  6  0  0  0
 10  9  1  0  0  0  0
 10  7  1  0  0  0  0
 11  4  1  1  0  0  0
 12 14  1  0  0  0  0
 13 15  1  0  0  0  0
 14 17  1  0  0  0  0
 15 14  2  0  0  0  0
 16 18  1  0  0  0  0
 16 13  2  0  0  0  0
 18 12  2  0  0  0  0
 20 19  1  0  0  0  0
 21 22  1  1  0  0  0
 21 23  1  0  0  0  0
 21 20  1  0  0  0  0
 23 25  1  0  0  0  0
 24 23  2  0  0  0  0
M  END
>  <MODEL>
1

>  <REMARK>
 VINA RESULT:      -7.9      0.000      0.000
  Name = 
  5 active torsions:
  status: ('A' for Active; 'I' for Inactive)
    1  A    between atoms: C_1  and  C_5
    2  A    between atoms: C_2  and  C_21
    3  A    between atoms: C_6  and  C_15
    4  A    between atoms: C_6  and  C_23
    5  A    between atoms: C_15  and  C_21
                            x       y       z     vdW  Elec       q    Type
                         _______ _______ _______ _____ _____    ______ ____

>  <TORSDO>
F 5

$$$$
=
 OpenBabel11052422083D

 25 27  0  0  1  0  0  0  0  0999 V2000
  161.1550  206.4280  152.4690 C   0  0  1  0  0  3  0  0  0  0  0  0
  160.6660  205.9010  151.1110 C   0  0  1  0  0  3  0  0  0  0  0  0
  163.0010  204.6920  152.1010 C   0  0  0  0  0  2  0  0  0  0  0  0
  161.8480  203.7140  151.8790 C   0  0  0  0  0  2  0  0  0  0  0  0
  160.5100  203.7600  149.7530 C   0  0  0  0  0  0  0  0  0  0  0  0
  159.8850  202.7220  149.6100 O   0  0  0  0  0  0  0  0  0  0  0  0
  161.4880  206.4740  149.9490 C   0  0  0  0  0  2  0  0  0  0  0  0
  162.5450  205.9210  152.8950 C   0  0  0  0  0  2  0  0  0  0  0  0
  161.1750  204.3950  148.5710 C   0  0  0  0  0  2  0  0  0  0  0  0
  161.0000  205.9100  148.6170 C   0  0  2  0  0  3  0  0  0  0  0  0
  160.6680  204.3520  151.1250 C   0  0  2  0  0  3  0  0  0  0  0  0
  160.9470  207.9030  152.6710 C   0  0  0  0  0  0  0  0  0  0  0  0
  160.6400  210.6800  152.9360 C   0  0  0  0  0  3  0  0  0  0  0  0
  160.5900  208.4630  153.9160 C   0  0  0  0  0  0  0  0  0  0  0  0
  160.4380  209.8480  154.0390 C   0  0  0  0  0  3  0  0  0  0  0  0
  160.9980  210.1300  151.7040 C   0  0  0  0  0  3  0  0  0  0  0  0
  160.3820  207.6620  155.0320 O   0  0  0  0  0  1  0  0  0  0  0  0
  161.1530  208.7480  151.5740 C   0  0  0  0  0  3  0  0  0  0  0  0
  161.7000  206.5850  147.4400 C   0  0  0  0  0  2  0  0  0  0  0  0
  160.9700  206.3560  146.1200 C   0  0  0  0  0  2  0  0  0  0  0  0
  161.8030  205.4850  145.1950 C   0  0  1  0  0  3  0  0  0  0  0  0
  163.0560  205.2970  145.7480 F   0  0  0  0  0  0  0  0  0  0  0  0
  161.1470  204.1610  144.9840 C   0  0  0  0  0  0  0  0  0  0  0  0
  159.9820  204.0660  144.2330 O   0  0  0  0  0  0  0  0  0  0  0  0
  161.6600  203.1230  145.4770 O   0  0  0  0  0  1  0  0  0  0  0  0
  1 12  1  6  0  0  0
  1  8  1  0  0  0  0
  2  7  1  6  0  0  0
  2 11  1  0  0  0  0
  2  1  1  0  0  0  0
  3  8  1  0  0  0  0
  4  3  1  0  0  0  0
  5 11  1  0  0  0  0
  6  5  2  0  0  0  0
  9 10  1  0  0  0  0
  9  5  1  0  0  0  0
 10 19  1  6  0  0  0
 10  7  1  0  0  0  0
 11  4  1  6  0  0  0
 12 14  1  0  0  0  0
 13 15  1  0  0  0  0
 14 15  2  0  0  0  0
 14 17  1  0  0  0  0
 16 13  2  0  0  0  0
 18 16  1  0  0  0  0
 18 12  2  0  0  0  0
 20 19  1  0  0  0  0
 21 22  1  1  0  0  0
 21 20  1  0  0  0  0
 23 21  1  0  0  0  0
 23 25  1  0  0  0  0
 24 23  2  0  0  0  0
M  END
>  <MODEL>
2

>  <REMARK>
 VINA RESULT:      -7.2      1.650      2.263
  Name = 
  5 active torsions:
  status: ('A' for Active; 'I' for Inactive)
    1  A    between atoms: C_1  and  C_5
    2  A    between atoms: C_2  and  C_21
    3  A    between atoms: C_6  and  C_15
    4  A    between atoms: C_6  and  C_23
    5  A    between atoms: C_15  and  C_21
                            x       y       z     vdW  Elec       q    Type
                         _______ _______ _______ _____ _____    ______ ____

>  <TORSDO>
F 5

$$$$
=
 OpenBabel11052422083D

 25 27  0  0  1  0  0  0  0  0999 V2000
  161.2040  202.6670  147.8220 C   0  0  1  0  0  3  0  0  0  0  0  0
  161.7150  203.1100  149.2020 C   0  0  1  0  0  3  0  0  0  0  0  0
  159.3220  201.6380  149.2180 C   0  0  0  0  0  2  0  0  0  0  0  0
  160.4520  200.9830  150.0100 C   0  0  0  0  0  2  0  0  0  0  0  0
  161.8480  202.3230  151.6130 C   0  0  0  0  0  0  0  0  0  0  0  0
  162.4480  201.5920  152.3850 O   0  0  0  0  0  0  0  0  0  0  0  0
  160.9410  204.3230  149.7330 C   0  0  0  0  0  2  0  0  0  0  0  0
  159.7900  202.0600  147.8220 C   0  0  0  0  0  2  0  0  0  0  0  0
  161.2330  203.5910  152.1200 C   0  0  0  0  0  2  0  0  0  0  0  0
  161.4480  204.7200  151.1160 C   0  0  2  0  0  3  0  0  0  0  0  0
  161.6690  201.9090  150.1800 C   0  0  2  0  0  3  0  0  0  0  0  0
  161.4480  203.6650  146.7240 C   0  0  0  0  0  0  0  0  0  0  0  0
  161.9150  205.6270  144.7720 C   0  0  0  0  0  3  0  0  0  0  0  0
  161.0230  203.4600  145.3930 C   0  0  0  0  0  0  0  0  0  0  0  0
  161.2610  204.4430  144.4270 C   0  0  0  0  0  3  0  0  0  0  0  0
  162.3320  205.8360  146.0880 C   0  0  0  0  0  3  0  0  0  0  0  0
  160.3700  202.2920  145.0190 O   0  0  0  0  0  1  0  0  0  0  0  0
  162.0970  204.8590  147.0590 C   0  0  0  0  0  3  0  0  0  0  0  0
  160.8000  206.0160  151.5940 C   0  0  0  0  0  2  0  0  0  0  0  0
  160.8370  207.1120  150.5320 C   0  0  0  0  0  2  0  0  0  0  0  0
  162.2380  207.6850  150.4070 C   0  0  1  0  0  3  0  0  0  0  0  0
  162.7020  207.4820  149.1200 F   0  0  0  0  0  0  0  0  0  0  0  0
  162.2410  209.1450  150.7140 C   0  0  0  0  0  0  0  0  0  0  0  0
  162.3290  209.5860  152.0290 O   0  0  0  0  0  1  0  0  0  0  0  0
  162.1770  209.9820  149.7760 O   0  0  0  0  0  0  0  0  0  0  0  0
  1 12  1  6  0  0  0
  1  8  1  0  0  0  0
  1  2  1  0  0  0  0
  2  7  1  1  0  0  0
  2 11  1  0  0  0  0
  3  4  1  0  0  0  0
  5  9  1  0  0  0  0
  5  6  2  0  0  0  0
  7 10  1  0  0  0  0
  8  3  1  0  0  0  0
 10 19  1  1  0  0  0
 10  9  1  0  0  0  0
 11  4  1  1  0  0  0
 11  5  1  0  0  0  0
 12 18  1  0  0  0  0
 13 16  1  0  0  0  0
 14 12  2  0  0  0  0
 15 13  2  0  0  0  0
 15 14  1  0  0  0  0
 16 18  2  0  0  0  0
 17 14  1  0  0  0  0
 20 19  1  0  0  0  0
 21 22  1  6  0  0  0
 21 20  1  0  0  0  0
 21 23  1  0  0  0  0
 23 24  1  0  0  0  0
 25 23  2  0  0  0  0
M  END
>  <MODEL>
3

>  <REMARK>
 VINA RESULT:      -7.0      2.214      5.425
  Name = 
  5 active torsions:
  status: ('A' for Active; 'I' for Inactive)
    1  A    between atoms: C_1  and  C_5
    2  A    between atoms: C_2  and  C_21
    3  A    between atoms: C_6  and  C_15
    4  A    between atoms: C_6  and  C_23
    5  A    between atoms: C_15  and  C_21
                            x       y       z     vdW  Elec       q    Type
                         _______ _______ _______ _____ _____    ______ ____

>  <TORSDO>
F 5

$$$$
=
 OpenBabel11052422083D

 25 27  0  0  1  0  0  0  0  0999 V2000
  161.5650  207.9640  153.0260 C   0  0  1  0  0  3  0  0  0  0  0  0
  161.2510  209.3840  153.5220 C   0  0  1  0  0  3  0  0  0  0  0  0
  160.3590  207.3020  155.1840 C   0  0  0  0  0  2  0  0  0  0  0  0
  161.3420  208.2540  155.8640 C   0  0  0  0  0  2  0  0  0  0  0  0
  161.0750  210.7440  155.6600 C   0  0  0  0  0  0  0  0  0  0  0  0
  161.7170  211.3230  156.5210 O   0  0  0  0  0  0  0  0  0  0  0  0
  159.7890  209.7670  153.2620 C   0  0  0  0  0  2  0  0  0  0  0  0
  160.8840  206.8370  153.8220 C   0  0  0  0  0  2  0  0  0  0  0  0
  159.7050  211.2320  155.3040 C   0  0  0  0  0  2  0  0  0  0  0  0
  159.4990  211.1680  153.7930 C   0  0  2  0  0  3  0  0  0  0  0  0
  161.6340  209.5060  155.0180 C   0  0  2  0  0  3  0  0  0  0  0  0
  161.4870  207.8000  151.5330 C   0  0  0  0  0  0  0  0  0  0  0  0
  161.3300  207.3540  148.7670 C   0  0  0  0  0  3  0  0  0  0  0  0
  162.0070  208.7510  150.6290 C   0  0  0  0  0  0  0  0  0  0  0  0
  161.9230  208.5210  149.2520 C   0  0  0  0  0  3  0  0  0  0  0  0
  160.8190  206.4090  149.6580 C   0  0  0  0  0  3  0  0  0  0  0  0
  162.6040  209.9220  151.0810 O   0  0  0  0  0  1  0  0  0  0  0  0
  160.9000  206.6310  151.0350 C   0  0  0  0  0  3  0  0  0  0  0  0
  158.0960  211.6280  153.4060 C   0  0  0  0  0  2  0  0  0  0  0  0
  157.4830  212.5670  154.4410 C   0  0  0  0  0  2  0  0  0  0  0  0
  156.1350  212.0420  154.9030 C   0  0  1  0  0  3  0  0  0  0  0  0
  155.9790  210.7380  154.4740 F   0  0  0  0  0  0  0  0  0  0  0  0
  156.0290  212.0940  156.3910 C   0  0  0  0  0  0  0  0  0  0  0  0
  155.1000  211.3050  157.0570 O   0  0  0  0  0  1  0  0  0  0  0  0
  156.7970  212.8460  157.0470 O   0  0  0  0  0  0  0  0  0  0  0  0
  1 12  1  6  0  0  0
  1  2  1  0  0  0  0
  1  8  1  0  0  0  0
  2  7  1  1  0  0  0
  2 11  1  0  0  0  0
  3  4  1  0  0  0  0
  5  6  2  0  0  0  0
  7 10  1  0  0  0  0
  8  3  1  0  0  0  0
  9  5  1  0  0  0  0
 10 19  1  1  0  0  0
 10  9  1  0  0  0  0
 11  5  1  0  0  0  0
 11  4  1  1  0  0  0
 13 15  2  0  0  0  0
 13 16  1  0  0  0  0
 14 17  1  0  0  0  0
 14 12  2  0  0  0  0
 15 14  1  0  0  0  0
 16 18  2  0  0  0  0
 18 12  1  0  0  0  0
 19 20  1  0  0  0  0
 20 21  1  0  0  0  0
 21 22  1  1  0  0  0
 21 23  1  0  0  0  0
 23 25  2  0  0  0  0
 23 24  1  0  0  0  0
M  END
>  <MODEL>
4

>  <REMARK>
 VINA RESULT:      -6.8      4.918      8.833
  Name = 
  5 active torsions:
  status: ('A' for Active; 'I' for Inactive)
    1  A    between atoms: C_1  and  C_5
    2  A    between atoms: C_2  and  C_21
    3  A    between atoms: C_6  and  C_15
    4  A    between atoms: C_6  and  C_23
    5  A    between atoms: C_15  and  C_21
                            x       y       z     vdW  Elec       q    Type
                         _______ _______ _______ _____ _____    ______ ____

>  <TORSDO>
F 5

$$$$
=
 OpenBabel11052422083D

 25 27  0  0  1  0  0  0  0  0999 V2000
  159.9290  210.7080  153.9130 C   0  0  1  0  0  3  0  0  0  0  0  0
  160.1420  209.3900  153.1530 C   0  0  1  0  0  3  0  0  0  0  0  0
  162.1520  210.0540  155.0000 C   0  0  0  0  0  2  0  0  0  0  0  0
  161.4600  208.7240  155.2950 C   0  0  0  0  0  2  0  0  0  0  0  0
  161.0620  207.0440  153.4700 C   0  0  0  0  0  0  0  0  0  0  0  0
  160.8240  205.9420  153.9360 O   0  0  0  0  0  0  0  0  0  0  0  0
  161.1670  209.5450  152.0220 C   0  0  0  0  0  2  0  0  0  0  0  0
  161.1330  211.1710  154.7520 C   0  0  0  0  0  2  0  0  0  0  0  0
  161.9400  207.1650  152.2630 C   0  0  0  0  0  2  0  0  0  0  0  0
  161.3810  208.2140  151.3060 C   0  0  2  0  0  3  0  0  0  0  0  0
  160.5330  208.2730  154.1520 C   0  0  2  0  0  3  0  0  0  0  0  0
  159.2910  211.7970  153.0960 C   0  0  0  0  0  0  0  0  0  0  0  0
  158.2300  213.8720  151.5310 C   0  0  0  0  0  3  0  0  0  0  0  0
  157.9950  212.2920  153.3550 C   0  0  0  0  0  0  0  0  0  0  0  0
  157.4730  213.3250  152.5700 C   0  0  0  0  0  3  0  0  0  0  0  0
  159.5150  213.3890  151.2750 C   0  0  0  0  0  3  0  0  0  0  0  0
  157.2180  211.7680  154.3810 O   0  0  0  0  0  1  0  0  0  0  0  0
  160.0430  212.3570  152.0560 C   0  0  0  0  0  3  0  0  0  0  0  0
  162.2770  208.3810  150.0820 C   0  0  0  0  0  2  0  0  0  0  0  0
  161.5310  208.1310  148.7750 C   0  0  0  0  0  2  0  0  0  0  0  0
  161.2530  206.6480  148.5960 C   0  0  1  0  0  3  0  0  0  0  0  0
  159.9350  206.3860  148.9220 F   0  0  0  0  0  0  0  0  0  0  0  0
  161.5120  206.2280  147.1880 C   0  0  0  0  0  0  0  0  0  0  0  0
  160.5450  206.4180  146.2090 O   0  0  0  0  0  0  0  0  0  0  0  0
  162.6190  205.7120  146.8830 O   0  0  0  0  0  1  0  0  0  0  0  0
  1 12  1  6  0  0  0
  1  8  1  0  0  0  0
  2  7  1  6  0  0  0
  2  1  1  0  0  0  0
  2 11  1  0  0  0  0
  3  4  1  0  0  0  0
  5  6  2  0  0  0  0
  5 11  1  0  0  0  0
  8  3  1  0  0  0  0
  9  5  1  0  0  0  0
 10 19  1  6  0  0  0
 10  7  1  0  0  0  0
 10  9  1  0  0  0  0
 11  4  1  1  0  0  0
 12 14  1  0  0  0  0
 13 15  1  0  0  0  0
 14 17  1  0  0  0  0
 15 14  2  0  0  0  0
 16 13  2  0  0  0  0
 16 18  1  0  0  0  0
 18 12  2  0  0  0  0
 20 19  1  0  0  0  0
 21 20  1  0  0  0  0
 21 22  1  6  0  0  0
 23 21  1  0  0  0  0
 24 23  2  0  0  0  0
 25 23  1  0  0  0  0
M  END
>  <MODEL>
5

>  <REMARK>
 VINA RESULT:      -6.7      3.316      5.692
  Name = 
  5 active torsions:
  status: ('A' for Active; 'I' for Inactive)
    1  A    between atoms: C_1  and  C_5
    2  A    between atoms: C_2  and  C_21
    3  A    between atoms: C_6  and  C_15
    4  A    between atoms: C_6  and  C_23
    5  A    between atoms: C_15  and  C_21
                            x       y       z     vdW  Elec       q    Type
                         _______ _______ _______ _____ _____    ______ ____

>  <TORSDO>
F 5

$$$$
=
 OpenBabel11052422083D

 25 27  0  0  1  0  0  0  0  0999 V2000
  159.7630  211.1600  154.9340 C   0  0  1  0  0  3  0  0  0  0  0  0
  159.7680  209.6370  154.7350 C   0  0  1  0  0  3  0  0  0  0  0  0
  161.8770  210.6550  156.2870 C   0  0  0  0  0  2  0  0  0  0  0  0
  160.9980  209.6490  157.0280 C   0  0  0  0  0  2  0  0  0  0  0  0
  160.3310  207.4790  155.9510 C   0  0  0  0  0  0  0  0  0  0  0  0
  159.9370  206.6810  156.7860 O   0  0  0  0  0  0  0  0  0  0  0  0
  160.7910  209.2040  153.6760 C   0  0  0  0  0  2  0  0  0  0  0  0
  161.0330  211.7280  155.5920 C   0  0  0  0  0  2  0  0  0  0  0  0
  161.2030  207.0080  154.8280 C   0  0  0  0  0  2  0  0  0  0  0  0
  160.7950  207.6860  153.5230 C   0  0  2  0  0  3  0  0  0  0  0  0
  160.0000  208.9370  156.0970 C   0  0  2  0  0  3  0  0  0  0  0  0
  159.2850  211.9380  153.7400 C   0  0  0  0  0  0  0  0  0  0  0  0
  158.5280  213.4210  151.4800 C   0  0  0  0  0  3  0  0  0  0  0  0
  157.9820  212.4720  153.6430 C   0  0  0  0  0  0  0  0  0  0  0  0
  157.6130  213.2080  152.5130 C   0  0  0  0  0  3  0  0  0  0  0  0
  159.8200  212.9000  151.5750 C   0  0  0  0  0  3  0  0  0  0  0  0
  157.0490  212.2770  154.6550 O   0  0  0  0  0  1  0  0  0  0  0  0
  160.1960  212.1630  152.7010 C   0  0  0  0  0  3  0  0  0  0  0  0
  161.6910  207.2480  152.3680 C   0  0  0  0  0  2  0  0  0  0  0  0
  160.9970  206.2600  151.4340 C   0  0  0  0  0  2  0  0  0  0  0  0
  161.4870  204.8470  151.6970 C   0  0  1  0  0  3  0  0  0  0  0  0
  160.9000  204.3660  152.8530 F   0  0  0  0  0  0  0  0  0  0  0  0
  161.1470  203.9490  150.5540 C   0  0  0  0  0  0  0  0  0  0  0  0
  161.0850  204.4520  149.2600 O   0  0  0  0  0  0  0  0  0  0  0  0
  160.9290  202.7270  150.7620 O   0  0  0  0  0  1  0  0  0  0  0  0
  1 12  1  6  0  0  0
  1  8  1  0  0  0  0
  2  7  1  6  0  0  0
  2  1  1  0  0  0  0
  2 11  1  0  0  0  0
  3  4  1  0  0  0  0
  5 11  1  0  0  0  0
  5  6  2  0  0  0  0
  8  3  1  0  0  0  0
  9  5  1  0  0  0  0
 10 19  1  6  0  0  0
 10  7  1  0  0  0  0
 10  9  1  0  0  0  0
 11  4  1  6  0  0  0
 13 16  2  0  0  0  0
 13 15  1  0  0  0  0
 14 12  1  0  0  0  0
 14 17  1  0  0  0  0
 15 14  2  0  0  0  0
 16 18  1  0  0  0  0
 18 12  2  0  0  0  0
 20 21  1  0  0  0  0
 20 19  1  0  0  0  0
 21 22  1  1  0  0  0
 23 25  1  0  0  0  0
 23 21  1  0  0  0  0
 24 23  2  0  0  0  0
M  END
>  <MODEL>
6

>  <REMARK>
 VINA RESULT:      -6.6      4.182      7.012
  Name = 
  5 active torsions:
  status: ('A' for Active; 'I' for Inactive)
    1  A    between atoms: C_1  and  C_5
    2  A    between atoms: C_2  and  C_21
    3  A    between atoms: C_6  and  C_15
    4  A    between atoms: C_6  and  C_23
    5  A    between atoms: C_15  and  C_21
                            x       y       z     vdW  Elec       q    Type
                         _______ _______ _______ _____ _____    ______ ____

>  <TORSDO>
F 5

$$$$
=
 OpenBabel11052422083D

 25 27  0  0  1  0  0  0  0  0999 V2000
  161.5570  207.8830  152.8970 C   0  0  1  0  0  3  0  0  0  0  0  0
  161.2820  209.3230  153.3570 C   0  0  1  0  0  3  0  0  0  0  0  0
  160.3060  207.3090  155.0550 C   0  0  0  0  0  2  0  0  0  0  0  0
  161.3100  208.2450  155.7250 C   0  0  0  0  0  2  0  0  0  0  0  0
  161.1250  210.7370  155.4610 C   0  0  0  0  0  0  0  0  0  0  0  0
  161.7740  211.3150  156.3160 O   0  0  0  0  0  0  0  0  0  0  0  0
  159.8360  209.7450  153.0690 C   0  0  0  0  0  2  0  0  0  0  0  0
  160.8320  206.7960  153.7100 C   0  0  0  0  0  2  0  0  0  0  0  0
  159.7740  211.2590  155.0760 C   0  0  0  0  0  2  0  0  0  0  0  0
  159.5840  211.1670  153.5650 C   0  0  2  0  0  3  0  0  0  0  0  0
  161.6510  209.4670  154.8540 C   0  0  2  0  0  3  0  0  0  0  0  0
  161.4920  207.6860  151.4080 C   0  0  0  0  0  0  0  0  0  0  0  0
  161.3560  207.1810  148.6500 C   0  0  0  0  0  3  0  0  0  0  0  0
  162.0290  208.6130  150.4880 C   0  0  0  0  0  0  0  0  0  0  0  0
  161.9560  208.3530  149.1160 C   0  0  0  0  0  3  0  0  0  0  0  0
  160.8290  206.2600  149.5570 C   0  0  0  0  0  3  0  0  0  0  0  0
  162.6310  209.7880  150.9200 O   0  0  0  0  0  1  0  0  0  0  0  0
  160.8990  206.5120  150.9300 C   0  0  0  0  0  3  0  0  0  0  0  0
  158.2000  211.6610  153.1500 C   0  0  0  0  0  2  0  0  0  0  0  0
  157.9040  213.0650  153.6680 C   0  0  0  0  0  2  0  0  0  0  0  0
  158.1540  214.0960  152.5810 C   0  0  1  0  0  3  0  0  0  0  0  0
  159.3580  213.8230  151.9590 F   0  0  0  0  0  0  0  0  0  0  0  0
  157.0550  214.0780  151.5710 C   0  0  0  0  0  0  0  0  0  0  0  0
  157.3140  213.7060  150.2580 O   0  0  0  0  0  0  0  0  0  0  0  0
  155.8850  214.3860  151.9160 O   0  0  0  0  0  1  0  0  0  0  0  0
  1 12  1  6  0  0  0
  1  2  1  0  0  0  0
  1  8  1  0  0  0  0
  2  7  1  1  0  0  0
  2 11  1  0  0  0  0
  3  4  1  0  0  0  0
  5  6  2  0  0  0  0
  7 10  1  0  0  0  0
  8  3  1  0  0  0  0
  9  5  1  0  0  0  0
 10 19  1  1  0  0  0
 10  9  1  0  0  0  0
 11  5  1  0  0  0  0
 11  4  1  1  0  0  0
 13 15  2  0  0  0  0
 13 16  1  0  0  0  0
 14 17  1  0  0  0  0
 14 12  2  0  0  0  0
 15 14  1  0  0  0  0
 16 18  2  0  0  0  0
 18 12  1  0  0  0  0
 19 20  1  0  0  0  0
 21 22  1  6  0  0  0
 21 20  1  0  0  0  0
 23 25  1  0  0  0  0
 23 21  1  0  0  0  0
 24 23  2  0  0  0  0
M  END
>  <MODEL>
7

>  <REMARK>
 VINA RESULT:      -6.5      4.705      8.151
  Name = 
  5 active torsions:
  status: ('A' for Active; 'I' for Inactive)
    1  A    between atoms: C_1  and  C_5
    2  A    between atoms: C_2  and  C_21
    3  A    between atoms: C_6  and  C_15
    4  A    between atoms: C_6  and  C_23
    5  A    between atoms: C_15  and  C_21
                            x       y       z     vdW  Elec       q    Type
                         _______ _______ _______ _____ _____    ______ ____

>  <TORSDO>
F 5

$$$$
=
 OpenBabel11052422083D

 25 27  0  0  1  0  0  0  0  0999 V2000
  161.0230  207.3250  152.7100 C   0  0  1  0  0  3  0  0  0  0  0  0
  160.8170  207.7100  151.2370 C   0  0  1  0  0  3  0  0  0  0  0  0
  162.8400  205.8200  151.7150 C   0  0  0  0  0  2  0  0  0  0  0  0
  161.7260  205.3120  150.8000 C   0  0  0  0  0  2  0  0  0  0  0  0
  160.8760  206.7180  148.8990 C   0  0  0  0  0  0  0  0  0  0  0  0
  160.2590  206.0380  148.0970 O   0  0  0  0  0  0  0  0  0  0  0  0
  161.8890  208.6950  150.7520 C   0  0  0  0  0  2  0  0  0  0  0  0
  162.2690  206.4640  152.9830 C   0  0  0  0  0  2  0  0  0  0  0  0
  161.8020  207.7880  148.4090 C   0  0  0  0  0  2  0  0  0  0  0  0
  161.6770  209.0350  149.2790 C   0  0  2  0  0  3  0  0  0  0  0  0
  160.7590  206.4290  150.3690 C   0  0  2  0  0  3  0  0  0  0  0  0
  160.8300  208.4580  153.6790 C   0  0  0  0  0  0  0  0  0  0  0  0
  160.5540  210.6530  155.4050 C   0  0  0  0  0  3  0  0  0  0  0  0
  160.4560  208.2610  155.0250 C   0  0  0  0  0  0  0  0  0  0  0  0
  160.3190  209.3600  155.8780 C   0  0  0  0  0  3  0  0  0  0  0  0
  160.9290  210.8520  154.0760 C   0  0  0  0  0  3  0  0  0  0  0  0
  160.2150  206.9870  155.5250 O   0  0  0  0  0  1  0  0  0  0  0  0
  161.0680  209.7580  153.2170 C   0  0  0  0  0  3  0  0  0  0  0  0
  162.6360  210.1300  148.8200 C   0  0  0  0  0  2  0  0  0  0  0  0
  161.9640  211.4970  148.7360 C   0  0  0  0  0  2  0  0  0  0  0  0
  162.8060  212.4550  147.9110 C   0  0  1  0  0  3  0  0  0  0  0  0
  163.9630  211.8160  147.5070 F   0  0  0  0  0  0  0  0  0  0  0  0
  162.0510  212.9230  146.7120 C   0  0  0  0  0  0  0  0  0  0  0  0
  160.6630  212.8650  146.6890 O   0  0  0  0  0  1  0  0  0  0  0  0
  162.6740  213.3870  145.7220 O   0  0  0  0  0  0  0  0  0  0  0  0
  1  8  1  0  0  0  0
  1 12  1  1  0  0  0
  2  7  1  6  0  0  0
  2  1  1  0  0  0  0
  3  8  1  0  0  0  0
  4  3  1  0  0  0  0
  5 11  1  0  0  0  0
  6  5  2  0  0  0  0
  9  5  1  0  0  0  0
  9 10  1  0  0  0  0
 10 19  1  6  0  0  0
 10  7  1  0  0  0  0
 11  4  1  1  0  0  0
 11  2  1  0  0  0  0
 12 14  1  0  0  0  0
 13 15  1  0  0  0  0
 14 17  1  0  0  0  0
 14 15  2  0  0  0  0
 16 13  2  0  0  0  0
 18 12  2  0  0  0  0
 18 16  1  0  0  0  0
 20 19  1  0  0  0  0
 21 22  1  6  0  0  0
 21 20  1  0  0  0  0
 23 21  1  0  0  0  0
 24 23  1  0  0  0  0
 25 23  2  0  0  0  0
M  END
>  <MODEL>
8

>  <REMARK>
 VINA RESULT:      -6.4      3.399      5.196
  Name = 
  5 active torsions:
  status: ('A' for Active; 'I' for Inactive)
    1  A    between atoms: C_1  and  C_5
    2  A    between atoms: C_2  and  C_21
    3  A    between atoms: C_6  and  C_15
    4  A    between atoms: C_6  and  C_23
    5  A    between atoms: C_15  and  C_21
                            x       y       z     vdW  Elec       q    Type
                         _______ _______ _______ _____ _____    ______ ____

>  <TORSDO>
F 5

$$$$
=
 OpenBabel11052422083D

 25 27  0  0  1  0  0  0  0  0999 V2000
  160.8560  210.0610  153.9610 C   0  0  1  0  0  3  0  0  0  0  0  0
  161.5480  209.5620  152.6840 C   0  0  1  0  0  3  0  0  0  0  0  0
  159.1990  211.0480  152.2770 C   0  0  0  0  0  2  0  0  0  0  0  0
  160.4380  211.6640  151.6270 C   0  0  0  0  0  2  0  0  0  0  0  0
  162.0270  210.2520  150.2870 C   0  0  0  0  0  0  0  0  0  0  0  0
  162.7370  210.9480  149.5800 O   0  0  0  0  0  0  0  0  0  0  0  0
  160.8410  208.3330  152.0970 C   0  0  0  0  0  2  0  0  0  0  0  0
  159.4630  210.6780  153.7400 C   0  0  0  0  0  2  0  0  0  0  0  0
  161.4720  208.9700  149.7480 C   0  0  0  0  0  2  0  0  0  0  0  0
  161.5320  207.8790  150.8140 C   0  0  2  0  0  3  0  0  0  0  0  0
  161.6550  210.7230  151.6650 C   0  0  2  0  0  3  0  0  0  0  0  0
  160.9310  209.1060  155.1200 C   0  0  0  0  0  0  0  0  0  0  0  0
  160.9370  207.2900  157.2600 C   0  0  0  0  0  3  0  0  0  0  0  0
  161.8860  209.2270  156.1530 C   0  0  0  0  0  0  0  0  0  0  0  0
  161.8820  208.3170  157.2140 C   0  0  0  0  0  3  0  0  0  0  0  0
  159.9880  207.1700  156.2430 C   0  0  0  0  0  3  0  0  0  0  0  0
  162.8390  210.2380  156.1360 O   0  0  0  0  0  1  0  0  0  0  0  0
  159.9850  208.0760  155.1790 C   0  0  0  0  0  3  0  0  0  0  0  0
  160.9400  206.5690  150.3000 C   0  0  0  0  0  2  0  0  0  0  0  0
  160.6760  206.5990  148.7970 C   0  0  0  0  0  2  0  0  0  0  0  0
  161.6040  205.6370  148.0750 C   0  0  1  0  0  3  0  0  0  0  0  0
  161.2970  204.3410  148.4440 F   0  0  0  0  0  0  0  0  0  0  0  0
  161.4660  205.7810  146.5960 C   0  0  0  0  0  0  0  0  0  0  0  0
  160.3790  206.4560  146.0540 O   0  0  0  0  0  1  0  0  0  0  0  0
  162.3470  205.3010  145.8360 O   0  0  0  0  0  0  0  0  0  0  0  0
  1 12  1  1  0  0  0
  2  7  1  6  0  0  0
  2  1  1  0  0  0  0
  3  8  1  0  0  0  0
  4  3  1  0  0  0  0
  5 11  1  0  0  0  0
  6  5  2  0  0  0  0
  8  1  1  0  0  0  0
  9  5  1  0  0  0  0
  9 10  1  0  0  0  0
 10 19  1  6  0  0  0
 10  7  1  0  0  0  0
 11  4  1  6  0  0  0
 11  2  1  0  0  0  0
 12 18  2  0  0  0  0
 12 14  1  0  0  0  0
 14 15  2  0  0  0  0
 15 13  1  0  0  0  0
 16 13  2  0  0  0  0
 17 14  1  0  0  0  0
 18 16  1  0  0  0  0
 20 19  1  0  0  0  0
 21 22  1  6  0  0  0
 21 20  1  0  0  0  0
 23 21  1  0  0  0  0
 24 23  1  0  0  0  0
 25 23  2  0  0  0  0
M  END
>  <MODEL>
9

>  <REMARK>
 VINA RESULT:      -6.3      3.115      6.039
  Name = 
  5 active torsions:
  status: ('A' for Active; 'I' for Inactive)
    1  A    between atoms: C_1  and  C_5
    2  A    between atoms: C_2  and  C_21
    3  A    between atoms: C_6  and  C_15
    4  A    between atoms: C_6  and  C_23
    5  A    between atoms: C_15  and  C_21
                            x       y       z     vdW  Elec       q    Type
                         _______ _______ _______ _____ _____    ______ ____

>  <TORSDO>
F 5

$$$$
