=
 OpenBabel11062408303D

 32 35  0  0  1  0  0  0  0  0999 V2000
  161.1940  207.9890  150.3170 C   0  0  0  0  0  3  0  0  0  0  0  0
  161.0970  209.9930  152.6230 C   0  0  0  0  0  0  0  0  0  0  0  0
  162.1940  208.3810  149.5310 C   0  0  0  0  0  3  0  0  0  0  0  0
  162.0180  210.2300  151.6020 O   0  0  0  0  0  0  0  0  0  0  0  0
  160.1470  210.9020  152.8620 C   0  0  0  0  0  0  0  0  0  0  0  0
  161.1490  208.6900  153.4010 C   0  0  2  0  0  3  0  0  0  0  0  0
  160.1060  210.1430  155.1040 O   0  0  0  0  0  0  0  0  0  0  0  0
  161.6850  211.0810  150.5460 C   0  0  0  0  0  0  0  0  0  0  0  0
  159.3110  210.7200  154.0950 C   0  0  0  0  0  2  0  0  0  0  0  0
  160.7530  211.9720  150.7140 N   0  0  0  0  0  0  0  0  0  0  0  0
  162.3210  210.8640  149.2020 C   0  0  0  0  0  2  0  0  0  0  0  0
  160.5580  207.5940  152.6190 N   0  0  0  0  0  2  0  0  0  0  0  0
  161.4420  207.1570  151.5350 C   0  0  1  0  0  3  0  0  0  0  0  0
  160.3430  208.8040  154.7160 C   0  0  2  0  0  3  0  0  0  0  0  0
  160.1130  212.1670  152.0260 C   0  0  1  0  0  3  0  0  0  0  0  0
  161.9450  209.5050  148.5720 C   0  0  0  0  0  2  0  0  0  0  0  0
  160.8610  201.5880  150.6910 F   0  0  0  0  0  0  0  0  0  0  0  0
  161.4500  203.4200  152.0940 C   0  0  0  0  0  3  0  0  0  0  0  0
  161.2700  205.6920  151.2510 C   0  0  0  0  0  0  0  0  0  0  0  0
  160.6740  203.8040  149.8360 C   0  0  0  0  0  3  0  0  0  0  0  0
  161.5870  204.7980  152.2800 C   0  0  0  0  0  3  0  0  0  0  0  0
  160.8080  205.1870  150.0110 C   0  0  0  0  0  0  0  0  0  0  0  0
  160.9930  202.9240  150.8720 C   0  0  0  0  0  0  0  0  0  0  0  0
  160.4640  206.0860  148.8620 C   0  0  0  0  0  2  0  0  0  0  0  0
  161.0230  205.5460  147.5530 C   0  0  0  0  0  2  0  0  0  0  0  0
  160.8180  206.4680  146.5270 O   0  0  0  0  0  1  0  0  0  0  0  0
  158.6970  212.7000  151.8380 C   0  0  0  0  0  2  0  0  0  0  0  0
  158.6170  213.4920  150.6900 O   0  0  0  0  0  1  0  0  0  0  0  0
  161.0590  208.0520  155.8270 C   0  0  0  0  0  2  0  0  0  0  0  0
  161.2480  208.9300  157.0570 C   0  0  0  0  0  2  0  0  0  0  0  0
  163.0250  210.6400  156.6510 C   0  0  0  0  0  1  0  0  0  0  0  0
  162.7120  209.2870  157.2610 C   0  0  0  0  0  2  0  0  0  0  0  0
  1 13  1  0  0  0  0
  2  5  2  0  0  0  0
  2  6  1  0  0  0  0
  3  1  2  0  0  0  0
  4  2  1  0  0  0  0
  5  9  1  0  0  0  0
  6 12  1  6  0  0  0
  6 14  1  0  0  0  0
  8 10  2  0  0  0  0
  8  4  1  0  0  0  0
  9  7  1  0  0  0  0
 10 15  1  0  0  0  0
 11  8  1  0  0  0  0
 13 19  1  6  0  0  0
 13 12  1  0  0  0  0
 14  7  1  0  0  0  0
 14 29  1  1  0  0  0
 15 27  1  6  0  0  0
 15  5  1  0  0  0  0
 16 11  1  0  0  0  0
 16  3  1  0  0  0  0
 17 23  1  0  0  0  0
 18 21  1  0  0  0  0
 19 21  2  0  0  0  0
 20 22  2  0  0  0  0
 20 23  1  0  0  0  0
 22 19  1  0  0  0  0
 23 18  2  0  0  0  0
 24 22  1  0  0  0  0
 25 24  1  0  0  0  0
 26 25  1  0  0  0  0
 28 27  1  0  0  0  0
 29 30  1  0  0  0  0
 30 32  1  0  0  0  0
 31 32  1  0  0  0  0
M  END
>  <MODEL>
1

>  <REMARK>
 VINA RESULT:      -7.8      0.000      0.000
  Name = 
  7 active torsions:
  status: ('A' for Active; 'I' for Inactive)
    1  A    between atoms: C_3  and  C_23
    2  A    between atoms: C_9  and  C_31
    3  A    between atoms: C_9  and  C_32
    4  A    between atoms: C_13  and  CA_29
    5  A    between atoms: C_16  and  C_27
    6  A    between atoms: C_22  and  C_23
    7  A    between atoms: C_28  and  C_32
                            x       y       z     vdW  Elec       q    Type
                         _______ _______ _______ _____ _____    ______ ____

>  <TORSDO>
F 7

$$$$
=
 OpenBabel11062408303D

 32 35  0  0  1  0  0  0  0  0999 V2000
  160.4050  208.6130  153.1980 C   0  0  0  0  0  3  0  0  0  0  0  0
  162.0610  208.1120  150.6790 C   0  0  0  0  0  0  0  0  0  0  0  0
  161.0110  207.9430  154.1760 C   0  0  0  0  0  3  0  0  0  0  0  0
  162.4410  207.4440  151.8430 O   0  0  0  0  0  0  0  0  0  0  0  0
  161.7040  207.3950  149.6080 C   0  0  0  0  0  0  0  0  0  0  0  0
  162.0010  209.6290  150.6620 C   0  0  2  0  0  3  0  0  0  0  0  0
  162.4150  209.2100  148.2640 O   0  0  0  0  0  0  0  0  0  0  0  0
  161.9880  206.1440  152.0810 C   0  0  0  0  0  0  0  0  0  0  0  0
  161.5080  208.1340  148.3170 C   0  0  0  0  0  2  0  0  0  0  0  0
  161.6080  205.4080  151.0790 N   0  0  0  0  0  0  0  0  0  0  0  0
  161.8310  205.6720  153.4990 C   0  0  0  0  0  2  0  0  0  0  0  0
  160.7800  210.1070  151.3310 N   0  0  0  0  0  2  0  0  0  0  0  0
  160.8670  209.9750  152.7880 C   0  0  1  0  0  3  0  0  0  0  0  0
  161.9690  210.1620  149.2110 C   0  0  2  0  0  3  0  0  0  0  0  0
  161.7400  205.8820  149.6910 C   0  0  1  0  0  3  0  0  0  0  0  0
  160.7650  206.4680  154.2820 C   0  0  0  0  0  2  0  0  0  0  0  0
  157.7700  214.0480  155.2110 F   0  0  0  0  0  0  0  0  0  0  0  0
  158.1590  212.5340  153.4150 C   0  0  0  0  0  3  0  0  0  0  0  0
  160.0880  211.0580  153.4780 C   0  0  0  0  0  0  0  0  0  0  0  0
  159.6700  212.6140  155.3020 C   0  0  0  0  0  3  0  0  0  0  0  0
  158.9380  211.5310  152.8350 C   0  0  0  0  0  3  0  0  0  0  0  0
  160.4590  211.6090  154.7290 C   0  0  0  0  0  0  0  0  0  0  0  0
  158.5250  213.0750  154.6480 C   0  0  0  0  0  0  0  0  0  0  0  0
  161.6850  211.1600  155.4660 C   0  0  0  0  0  2  0  0  0  0  0  0
  161.3260  210.5520  156.8140 C   0  0  0  0  0  2  0  0  0  0  0  0
  162.2550  209.5720  157.1620 O   0  0  0  0  0  1  0  0  0  0  0  0
  160.6770  205.2270  148.8160 C   0  0  0  0  0  2  0  0  0  0  0  0
  160.7440  203.8360  148.9180 O   0  0  0  0  0  1  0  0  0  0  0  0
  162.7960  211.4330  149.1100 C   0  0  0  0  0  2  0  0  0  0  0  0
  162.3120  212.3190  147.9690 C   0  0  0  0  0  2  0  0  0  0  0  0
  160.6660  213.5570  149.3850 C   0  0  0  0  0  1  0  0  0  0  0  0
  160.8510  212.7000  148.1470 C   0  0  0  0  0  2  0  0  0  0  0  0
  1  3  2  0  0  0  0
  2  4  1  0  0  0  0
  3 16  1  0  0  0  0
  4  8  1  0  0  0  0
  5 15  1  0  0  0  0
  5  2  2  0  0  0  0
  6  2  1  6  0  0  0
  6 12  1  0  0  0  0
  7  9  1  0  0  0  0
  7 14  1  0  0  0  0
  8 11  1  0  0  0  0
  9  5  1  0  0  0  0
 10  8  2  0  0  0  0
 11 16  1  0  0  0  0
 12 13  1  0  0  0  0
 13  1  1  0  0  0  0
 13 19  1  1  0  0  0
 14 29  1  1  0  0  0
 14  6  1  0  0  0  0
 15 27  1  6  0  0  0
 15 10  1  0  0  0  0
 18 23  1  0  0  0  0
 19 22  2  0  0  0  0
 21 18  2  0  0  0  0
 21 19  1  0  0  0  0
 22 20  1  0  0  0  0
 22 24  1  0  0  0  0
 23 17  1  0  0  0  0
 23 20  2  0  0  0  0
 24 25  1  0  0  0  0
 25 26  1  0  0  0  0
 27 28  1  0  0  0  0
 30 32  1  0  0  0  0
 30 29  1  0  0  0  0
 32 31  1  0  0  0  0
M  END
>  <MODEL>
2

>  <REMARK>
 VINA RESULT:      -7.7      3.167      7.708
  Name = 
  7 active torsions:
  status: ('A' for Active; 'I' for Inactive)
    1  A    between atoms: C_3  and  C_23
    2  A    between atoms: C_9  and  C_31
    3  A    between atoms: C_9  and  C_32
    4  A    between atoms: C_13  and  CA_29
    5  A    between atoms: C_16  and  C_27
    6  A    between atoms: C_22  and  C_23
    7  A    between atoms: C_28  and  C_32
                            x       y       z     vdW  Elec       q    Type
                         _______ _______ _______ _____ _____    ______ ____

>  <TORSDO>
F 7

$$$$
=
 OpenBabel11062408303D

 32 35  0  0  1  0  0  0  0  0999 V2000
  161.0760  209.2160  150.5520 C   0  0  0  0  0  3  0  0  0  0  0  0
  160.3190  211.7710  152.0480 C   0  0  0  0  0  0  0  0  0  0  0  0
  162.1900  209.4990  149.8810 C   0  0  0  0  0  3  0  0  0  0  0  0
  161.4190  211.8280  151.1920 O   0  0  0  0  0  0  0  0  0  0  0  0
  159.2700  212.5650  151.8100 C   0  0  0  0  0  0  0  0  0  0  0  0
  160.3030  210.7750  153.1940 C   0  0  2  0  0  3  0  0  0  0  0  0
  158.8010  212.4970  154.1290 O   0  0  0  0  0  0  0  0  0  0  0  0
  161.2580  212.2750  149.8790 C   0  0  0  0  0  0  0  0  0  0  0  0
  158.2020  212.6330  152.8610 C   0  0  0  0  0  2  0  0  0  0  0  0
  160.2440  213.0340  149.5830 N   0  0  0  0  0  0  0  0  0  0  0  0
  162.1870  211.7680  148.8120 C   0  0  0  0  0  2  0  0  0  0  0  0
  159.9860  209.4240  152.7030 N   0  0  0  0  0  2  0  0  0  0  0  0
  161.1170  208.8200  151.9940 C   0  0  1  0  0  3  0  0  0  0  0  0
  159.2220  211.1510  154.2340 C   0  0  2  0  0  3  0  0  0  0  0  0
  159.3190  213.5100  150.6250 C   0  0  1  0  0  3  0  0  0  0  0  0
  162.0670  210.2460  148.5860 C   0  0  0  0  0  2  0  0  0  0  0  0
  161.1550  203.1720  152.3850 F   0  0  0  0  0  0  0  0  0  0  0  0
  161.0630  205.1570  151.0720 C   0  0  0  0  0  3  0  0  0  0  0  0
  161.1290  207.3280  152.1610 C   0  0  0  0  0  0  0  0  0  0  0  0
  161.2210  205.2860  153.4820 C   0  0  0  0  0  3  0  0  0  0  0  0
  161.0550  206.5510  150.9990 C   0  0  0  0  0  3  0  0  0  0  0  0
  161.2120  206.6850  153.4200 C   0  0  0  0  0  0  0  0  0  0  0  0
  161.1470  204.5240  152.3130 C   0  0  0  0  0  0  0  0  0  0  0  0
  161.2800  207.4530  154.7050 C   0  0  0  0  0  2  0  0  0  0  0  0
  160.0460  207.2070  155.5610 C   0  0  0  0  0  2  0  0  0  0  0  0
  160.3820  207.2550  156.9140 O   0  0  0  0  0  1  0  0  0  0  0  0
  157.9400  213.7570  150.0230 C   0  0  0  0  0  2  0  0  0  0  0  0
  157.9540  213.5150  148.6470 O   0  0  0  0  0  1  0  0  0  0  0  0
  159.7360  210.8680  155.6370 C   0  0  0  0  0  2  0  0  0  0  0  0
  161.2450  211.0590  155.7230 C   0  0  0  0  0  2  0  0  0  0  0  0
  163.2380  210.5650  157.1480 C   0  0  0  0  0  1  0  0  0  0  0  0
  161.7480  210.8480  157.1430 C   0  0  0  0  0  2  0  0  0  0  0  0
  1 13  1  0  0  0  0
  3  1  2  0  0  0  0
  4  2  1  0  0  0  0
  5  2  2  0  0  0  0
  5  9  1  0  0  0  0
  6  2  1  6  0  0  0
  6 14  1  0  0  0  0
  7 14  1  0  0  0  0
  8  4  1  0  0  0  0
  9  7  1  0  0  0  0
 10  8  2  0  0  0  0
 10 15  1  0  0  0  0
 11  8  1  0  0  0  0
 12  6  1  0  0  0  0
 13 19  1  6  0  0  0
 13 12  1  0  0  0  0
 14 29  1  1  0  0  0
 15 27  1  6  0  0  0
 15  5  1  0  0  0  0
 16 11  1  0  0  0  0
 16  3  1  0  0  0  0
 18 23  1  0  0  0  0
 19 22  2  0  0  0  0
 21 18  2  0  0  0  0
 21 19  1  0  0  0  0
 22 20  1  0  0  0  0
 22 24  1  0  0  0  0
 23 17  1  0  0  0  0
 23 20  2  0  0  0  0
 24 25  1  0  0  0  0
 25 26  1  0  0  0  0
 28 27  1  0  0  0  0
 29 30  1  0  0  0  0
 30 32  1  0  0  0  0
 32 31  1  0  0  0  0
M  END
>  <MODEL>
3

>  <REMARK>
 VINA RESULT:      -7.2      2.012      3.327
  Name = 
  7 active torsions:
  status: ('A' for Active; 'I' for Inactive)
    1  A    between atoms: C_3  and  C_23
    2  A    between atoms: C_9  and  C_31
    3  A    between atoms: C_9  and  C_32
    4  A    between atoms: C_13  and  CA_29
    5  A    between atoms: C_16  and  C_27
    6  A    between atoms: C_22  and  C_23
    7  A    between atoms: C_28  and  C_32
                            x       y       z     vdW  Elec       q    Type
                         _______ _______ _______ _____ _____    ______ ____

>  <TORSDO>
F 7

$$$$
=
 OpenBabel11062408303D

 32 35  0  0  1  0  0  0  0  0999 V2000
  161.1410  208.7330  150.3740 C   0  0  0  0  0  3  0  0  0  0  0  0
  160.6680  211.1720  152.1540 C   0  0  0  0  0  0  0  0  0  0  0  0
  162.2350  209.0010  149.6660 C   0  0  0  0  0  3  0  0  0  0  0  0
  161.7210  211.2350  151.2400 O   0  0  0  0  0  0  0  0  0  0  0  0
  159.6730  212.0590  152.0580 C   0  0  0  0  0  0  0  0  0  0  0  0
  160.6360  210.0690  153.1970 C   0  0  2  0  0  3  0  0  0  0  0  0
  159.3260  211.7920  154.3850 O   0  0  0  0  0  0  0  0  0  0  0  0
  161.5240  211.8230  149.9890 C   0  0  0  0  0  0  0  0  0  0  0  0
  158.6720  212.0990  153.1750 C   0  0  0  0  0  2  0  0  0  0  0  0
  160.5580  212.6790  149.8320 N   0  0  0  0  0  0  0  0  0  0  0  0
  162.3520  211.3600  148.8240 C   0  0  0  0  0  2  0  0  0  0  0  0
  160.1880  208.8010  152.5980 N   0  0  0  0  0  2  0  0  0  0  0  0
  161.2290  208.1920  151.7660 C   0  0  1  0  0  3  0  0  0  0  0  0
  159.6460  210.4150  154.3330 C   0  0  2  0  0  3  0  0  0  0  0  0
  159.7310  213.1140  150.9700 C   0  0  1  0  0  3  0  0  0  0  0  0
  162.1010  209.8810  148.4590 C   0  0  0  0  0  2  0  0  0  0  0  0
  160.9110  202.5470  152.0810 F   0  0  0  0  0  0  0  0  0  0  0  0
  161.2970  204.6610  153.1090 C   0  0  0  0  0  3  0  0  0  0  0  0
  161.1330  206.6930  151.7870 C   0  0  0  0  0  0  0  0  0  0  0  0
  160.7430  204.5220  150.7590 C   0  0  0  0  0  3  0  0  0  0  0  0
  161.3710  206.0520  153.0080 C   0  0  0  0  0  3  0  0  0  0  0  0
  160.8160  205.9160  150.6460 C   0  0  0  0  0  0  0  0  0  0  0  0
  160.9830  203.8960  151.9840 C   0  0  0  0  0  0  0  0  0  0  0  0
  160.5630  206.5350  149.3040 C   0  0  0  0  0  2  0  0  0  0  0  0
  161.0270  205.6210  148.1790 C   0  0  0  0  0  2  0  0  0  0  0  0
  162.0550  206.2290  147.4600 O   0  0  0  0  0  1  0  0  0  0  0  0
  158.3460  213.5200  150.4800 C   0  0  0  0  0  2  0  0  0  0  0  0
  158.2760  213.4510  149.0870 O   0  0  0  0  0  1  0  0  0  0  0  0
  160.2110  209.9560  155.6670 C   0  0  0  0  0  2  0  0  0  0  0  0
  161.5020  209.1690  155.4810 C   0  0  0  0  0  2  0  0  0  0  0  0
  160.0430  207.3010  156.2750 C   0  0  0  0  0  1  0  0  0  0  0  0
  161.4570  207.8480  156.2330 C   0  0  0  0  0  2  0  0  0  0  0  0
  1 13  1  0  0  0  0
  3  1  2  0  0  0  0
  4  2  1  0  0  0  0
  5  2  2  0  0  0  0
  5  9  1  0  0  0  0
  6  2  1  6  0  0  0
  6 14  1  0  0  0  0
  8  4  1  0  0  0  0
  9  7  1  0  0  0  0
 10  8  2  0  0  0  0
 10 15  1  0  0  0  0
 11  8  1  0  0  0  0
 12  6  1  0  0  0  0
 13 19  1  6  0  0  0
 13 12  1  0  0  0  0
 14  7  1  0  0  0  0
 14 29  1  1  0  0  0
 15 27  1  6  0  0  0
 15  5  1  0  0  0  0
 16 11  1  0  0  0  0
 16  3  1  0  0  0  0
 19 21  2  0  0  0  0
 20 23  1  0  0  0  0
 21 18  1  0  0  0  0
 22 20  2  0  0  0  0
 22 19  1  0  0  0  0
 23 17  1  0  0  0  0
 23 18  2  0  0  0  0
 24 22  1  0  0  0  0
 25 24  1  0  0  0  0
 26 25  1  0  0  0  0
 28 27  1  0  0  0  0
 30 29  1  0  0  0  0
 30 32  1  0  0  0  0
 32 31  1  0  0  0  0
M  END
>  <MODEL>
4

>  <REMARK>
 VINA RESULT:      -7.1      1.202      1.583
  Name = 
  7 active torsions:
  status: ('A' for Active; 'I' for Inactive)
    1  A    between atoms: C_3  and  C_23
    2  A    between atoms: C_9  and  C_31
    3  A    between atoms: C_9  and  C_32
    4  A    between atoms: C_13  and  CA_29
    5  A    between atoms: C_16  and  C_27
    6  A    between atoms: C_22  and  C_23
    7  A    between atoms: C_28  and  C_32
                            x       y       z     vdW  Elec       q    Type
                         _______ _______ _______ _____ _____    ______ ____

>  <TORSDO>
F 7

$$$$
=
 OpenBabel11062408303D

 32 35  0  0  1  0  0  0  0  0999 V2000
  160.9450  210.5070  150.6680 C   0  0  0  0  0  3  0  0  0  0  0  0
  159.5740  213.1600  151.3180 C   0  0  0  0  0  0  0  0  0  0  0  0
  162.1240  210.8220  150.1380 C   0  0  0  0  0  3  0  0  0  0  0  0
  160.8070  213.2140  150.6680 O   0  0  0  0  0  0  0  0  0  0  0  0
  158.5000  213.6820  150.7170 C   0  0  0  0  0  0  0  0  0  0  0  0
  159.4580  212.4610  152.6610 C   0  0  2  0  0  3  0  0  0  0  0  0
  157.5860  214.0580  152.8680 O   0  0  0  0  0  0  0  0  0  0  0  0
  160.8570  213.3180  149.2760 C   0  0  0  0  0  0  0  0  0  0  0  0
  157.2430  213.7970  151.5270 C   0  0  0  0  0  2  0  0  0  0  0  0
  159.8330  213.8000  148.6350 N   0  0  0  0  0  0  0  0  0  0  0  0
  162.0410  212.7550  148.5410 C   0  0  0  0  0  2  0  0  0  0  0  0
  159.4250  211.0000  152.4860 N   0  0  0  0  0  2  0  0  0  0  0  0
  160.7460  210.4610  152.1490 C   0  0  1  0  0  3  0  0  0  0  0  0
  158.1500  212.8670  153.3800 C   0  0  2  0  0  3  0  0  0  0  0  0
  158.6630  214.3290  149.3550 C   0  0  1  0  0  3  0  0  0  0  0  0
  162.1690  211.2240  148.6940 C   0  0  0  0  0  2  0  0  0  0  0  0
  161.4070  205.1380  153.9640 F   0  0  0  0  0  0  0  0  0  0  0  0
  161.1710  206.7070  152.1870 C   0  0  0  0  0  3  0  0  0  0  0  0
  160.9180  209.0700  152.6900 C   0  0  0  0  0  0  0  0  0  0  0  0
  161.1610  207.4490  154.4890 C   0  0  0  0  0  3  0  0  0  0  0  0
  161.0060  208.0270  151.7620 C   0  0  0  0  0  3  0  0  0  0  0  0
  160.9950  208.7760  154.0730 C   0  0  0  0  0  0  0  0  0  0  0  0
  161.2480  206.4180  153.5500 C   0  0  0  0  0  0  0  0  0  0  0  0
  160.8940  209.8420  155.1230 C   0  0  0  0  0  2  0  0  0  0  0  0
  162.0430  209.7490  156.1160 C   0  0  0  0  0  2  0  0  0  0  0  0
  162.9980  210.7260  155.8390 O   0  0  0  0  0  1  0  0  0  0  0  0
  157.4140  214.1870  148.4920 C   0  0  0  0  0  2  0  0  0  0  0  0
  157.2530  212.8640  148.0740 O   0  0  0  0  0  1  0  0  0  0  0  0
  158.4020  213.0030  154.8730 C   0  0  0  0  0  2  0  0  0  0  0  0
  157.6870  211.9110  155.6570 C   0  0  0  0  0  2  0  0  0  0  0  0
  155.6360  210.5570  155.1990 C   0  0  0  0  0  1  0  0  0  0  0  0
  156.1850  211.9540  155.4200 C   0  0  0  0  0  2  0  0  0  0  0  0
  1 13  1  0  0  0  0
  3  1  2  0  0  0  0
  4  2  1  0  0  0  0
  5  2  2  0  0  0  0
  5  9  1  0  0  0  0
  6  2  1  6  0  0  0
  6 14  1  0  0  0  0
  7 14  1  0  0  0  0
  8  4  1  0  0  0  0
  9  7  1  0  0  0  0
 10  8  2  0  0  0  0
 10 15  1  0  0  0  0
 11 16  1  0  0  0  0
 11  8  1  0  0  0  0
 12  6  1  0  0  0  0
 13 12  1  0  0  0  0
 13 19  1  6  0  0  0
 14 29  1  1  0  0  0
 15 27  1  6  0  0  0
 15  5  1  0  0  0  0
 16  3  1  0  0  0  0
 18 23  1  0  0  0  0
 19 22  2  0  0  0  0
 21 18  2  0  0  0  0
 21 19  1  0  0  0  0
 22 20  1  0  0  0  0
 22 24  1  0  0  0  0
 23 17  1  0  0  0  0
 23 20  2  0  0  0  0
 24 25  1  0  0  0  0
 26 25  1  0  0  0  0
 28 27  1  0  0  0  0
 29 30  1  0  0  0  0
 31 32  1  0  0  0  0
 32 30  1  0  0  0  0
M  END
>  <MODEL>
5

>  <REMARK>
 VINA RESULT:      -7.0      2.758      4.971
  Name = 
  7 active torsions:
  status: ('A' for Active; 'I' for Inactive)
    1  A    between atoms: C_3  and  C_23
    2  A    between atoms: C_9  and  C_31
    3  A    between atoms: C_9  and  C_32
    4  A    between atoms: C_13  and  CA_29
    5  A    between atoms: C_16  and  C_27
    6  A    between atoms: C_22  and  C_23
    7  A    between atoms: C_28  and  C_32
                            x       y       z     vdW  Elec       q    Type
                         _______ _______ _______ _____ _____    ______ ____

>  <TORSDO>
F 7

$$$$
=
 OpenBabel11062408303D

 32 35  0  0  1  0  0  0  0  0999 V2000
  160.3060  208.8200  153.1960 C   0  0  0  0  0  3  0  0  0  0  0  0
  162.0070  208.1720  150.7410 C   0  0  0  0  0  0  0  0  0  0  0  0
  160.8880  208.2000  154.2200 C   0  0  0  0  0  3  0  0  0  0  0  0
  162.3600  207.5670  151.9470 O   0  0  0  0  0  0  0  0  0  0  0  0
  161.6660  207.4010  149.7040 C   0  0  0  0  0  0  0  0  0  0  0  0
  161.9570  209.6860  150.6400 C   0  0  2  0  0  3  0  0  0  0  0  0
  162.4150  209.1360  148.2770 O   0  0  0  0  0  0  0  0  0  0  0  0
  161.8950  206.2850  152.2470 C   0  0  0  0  0  0  0  0  0  0  0  0
  161.5000  208.0680  148.3710 C   0  0  0  0  0  2  0  0  0  0  0  0
  161.5290  205.4970  151.2790 N   0  0  0  0  0  0  0  0  0  0  0  0
  161.7070  205.8910  153.6850 C   0  0  0  0  0  2  0  0  0  0  0  0
  160.7270  210.2070  151.2580 N   0  0  0  0  0  2  0  0  0  0  0  0
  160.7840  210.1550  152.7210 C   0  0  1  0  0  3  0  0  0  0  0  0
  161.9560  210.1390  149.1620 C   0  0  2  0  0  3  0  0  0  0  0  0
  161.6910  205.8930  149.8700 C   0  0  1  0  0  3  0  0  0  0  0  0
  160.6310  206.7350  154.4030 C   0  0  0  0  0  2  0  0  0  0  0  0
  157.8180  214.2640  155.2460 F   0  0  0  0  0  0  0  0  0  0  0  0
  158.8470  212.1170  155.3040 C   0  0  0  0  0  3  0  0  0  0  0  0
  159.9990  211.2780  153.3360 C   0  0  0  0  0  0  0  0  0  0  0  0
  158.9410  213.4680  153.3000 C   0  0  0  0  0  3  0  0  0  0  0  0
  159.5790  211.1160  154.6620 C   0  0  0  0  0  3  0  0  0  0  0  0
  159.6740  212.4700  152.6460 C   0  0  0  0  0  0  0  0  0  0  0  0
  158.5280  213.2930  154.6230 C   0  0  0  0  0  0  0  0  0  0  0  0
  160.0790  212.7040  151.2220 C   0  0  0  0  0  2  0  0  0  0  0  0
  160.0420  214.1850  150.8740 C   0  0  0  0  0  2  0  0  0  0  0  0
  159.2120  214.4000  149.7750 O   0  0  0  0  0  1  0  0  0  0  0  0
  160.6400  205.1980  149.0110 C   0  0  0  0  0  2  0  0  0  0  0  0
  161.1830  204.0730  148.3850 O   0  0  0  0  0  1  0  0  0  0  0  0
  162.7930  211.3990  149.0080 C   0  0  0  0  0  2  0  0  0  0  0  0
  162.3430  212.2190  147.8060 C   0  0  0  0  0  2  0  0  0  0  0  0
  160.4040  212.9480  146.4070 C   0  0  0  0  0  1  0  0  0  0  0  0
  160.8410  212.1100  147.5930 C   0  0  0  0  0  2  0  0  0  0  0  0
  1  3  2  0  0  0  0
  2  4  1  0  0  0  0
  3 16  1  0  0  0  0
  4  8  1  0  0  0  0
  5 15  1  0  0  0  0
  5  2  2  0  0  0  0
  6  2  1  6  0  0  0
  6 12  1  0  0  0  0
  7  9  1  0  0  0  0
  7 14  1  0  0  0  0
  8 11  1  0  0  0  0
  9  5  1  0  0  0  0
 10  8  2  0  0  0  0
 11 16  1  0  0  0  0
 12 13  1  0  0  0  0
 13  1  1  0  0  0  0
 13 19  1  1  0  0  0
 14 29  1  1  0  0  0
 14  6  1  0  0  0  0
 15 27  1  6  0  0  0
 15 10  1  0  0  0  0
 19 21  2  0  0  0  0
 20 23  1  0  0  0  0
 21 18  1  0  0  0  0
 22 20  2  0  0  0  0
 22 19  1  0  0  0  0
 23 17  1  0  0  0  0
 23 18  2  0  0  0  0
 24 22  1  0  0  0  0
 25 24  1  0  0  0  0
 26 25  1  0  0  0  0
 28 27  1  0  0  0  0
 30 29  1  0  0  0  0
 31 32  1  0  0  0  0
 32 30  1  0  0  0  0
M  END
>  <MODEL>
6

>  <REMARK>
 VINA RESULT:      -6.7      3.176      7.639
  Name = 
  7 active torsions:
  status: ('A' for Active; 'I' for Inactive)
    1  A    between atoms: C_3  and  C_23
    2  A    between atoms: C_9  and  C_31
    3  A    between atoms: C_9  and  C_32
    4  A    between atoms: C_13  and  CA_29
    5  A    between atoms: C_16  and  C_27
    6  A    between atoms: C_22  and  C_23
    7  A    between atoms: C_28  and  C_32
                            x       y       z     vdW  Elec       q    Type
                         _______ _______ _______ _____ _____    ______ ____

>  <TORSDO>
F 7

$$$$
=
 OpenBabel11062408303D

 32 35  0  0  1  0  0  0  0  0999 V2000
  161.2520  208.8050  149.2620 C   0  0  0  0  0  3  0  0  0  0  0  0
  161.1200  210.1540  152.0010 C   0  0  0  0  0  0  0  0  0  0  0  0
  162.2230  209.4230  148.5930 C   0  0  0  0  0  3  0  0  0  0  0  0
  162.0130  210.6800  151.0660 O   0  0  0  0  0  0  0  0  0  0  0  0
  160.1400  210.9330  152.4700 C   0  0  0  0  0  0  0  0  0  0  0  0
  161.2350  208.7000  152.4230 C   0  0  2  0  0  3  0  0  0  0  0  0
  160.1680  209.6300  154.4460 O   0  0  0  0  0  0  0  0  0  0  0  0
  161.6290  211.7550  150.2630 C   0  0  0  0  0  0  0  0  0  0  0  0
  159.3340  210.4110  153.6220 C   0  0  0  0  0  2  0  0  0  0  0  0
  160.6670  212.5350  150.6590 N   0  0  0  0  0  0  0  0  0  0  0  0
  162.2490  211.9120  148.9030 C   0  0  0  0  0  2  0  0  0  0  0  0
  160.6730  207.8140  151.3920 N   0  0  0  0  0  2  0  0  0  0  0  0
  161.5530  207.7020  150.2260 C   0  0  1  0  0  3  0  0  0  0  0  0
  160.4490  208.4440  153.7300 C   0  0  2  0  0  3  0  0  0  0  0  0
  160.0430  212.3660  151.9820 C   0  0  1  0  0  3  0  0  0  0  0  0
  161.9140  210.7430  147.9520 C   0  0  0  0  0  2  0  0  0  0  0  0
  161.0960  202.7170  147.5820 F   0  0  0  0  0  0  0  0  0  0  0  0
  161.2070  205.0950  147.5150 C   0  0  0  0  0  3  0  0  0  0  0  0
  161.4320  206.3510  149.5820 C   0  0  0  0  0  0  0  0  0  0  0  0
  161.3160  203.9210  149.6260 C   0  0  0  0  0  3  0  0  0  0  0  0
  161.3200  206.3130  148.1870 C   0  0  0  0  0  3  0  0  0  0  0  0
  161.4280  205.1370  150.3110 C   0  0  0  0  0  0  0  0  0  0  0  0
  161.2050  203.8990  148.2340 C   0  0  0  0  0  0  0  0  0  0  0  0
  161.5310  205.1040  151.8060 C   0  0  0  0  0  2  0  0  0  0  0  0
  160.6460  204.0150  152.3960 C   0  0  0  0  0  2  0  0  0  0  0  0
  161.3150  202.7910  152.3770 O   0  0  0  0  0  1  0  0  0  0  0  0
  158.6050  212.8700  151.9460 C   0  0  0  0  0  2  0  0  0  0  0  0
  158.2610  213.2860  150.6570 O   0  0  0  0  0  1  0  0  0  0  0  0
  161.2120  207.4660  154.6080 C   0  0  0  0  0  2  0  0  0  0  0  0
  161.5910  208.0990  155.9410 C   0  0  0  0  0  2  0  0  0  0  0  0
  159.4450  206.9530  156.5180 C   0  0  0  0  0  1  0  0  0  0  0  0
  160.7140  207.5770  157.0690 C   0  0  0  0  0  2  0  0  0  0  0  0
  1 13  1  0  0  0  0
  2  6  1  0  0  0  0
  2  5  2  0  0  0  0
  3  1  2  0  0  0  0
  4  2  1  0  0  0  0
  5  9  1  0  0  0  0
  6 12  1  6  0  0  0
  6 14  1  0  0  0  0
  8 10  2  0  0  0  0
  8  4  1  0  0  0  0
  9  7  1  0  0  0  0
 10 15  1  0  0  0  0
 11  8  1  0  0  0  0
 13 19  1  6  0  0  0
 13 12  1  0  0  0  0
 14  7  1  0  0  0  0
 14 29  1  1  0  0  0
 15 27  1  6  0  0  0
 15  5  1  0  0  0  0
 16  3  1  0  0  0  0
 16 11  1  0  0  0  0
 17 23  1  0  0  0  0
 18 21  2  0  0  0  0
 18 23  1  0  0  0  0
 19 22  2  0  0  0  0
 20 22  1  0  0  0  0
 21 19  1  0  0  0  0
 22 24  1  0  0  0  0
 23 20  2  0  0  0  0
 24 25  1  0  0  0  0
 26 25  1  0  0  0  0
 28 27  1  0  0  0  0
 29 30  1  0  0  0  0
 30 32  1  0  0  0  0
 31 32  1  0  0  0  0
M  END
>  <MODEL>
7

>  <REMARK>
 VINA RESULT:      -6.6      1.641      2.524
  Name = 
  7 active torsions:
  status: ('A' for Active; 'I' for Inactive)
    1  A    between atoms: C_3  and  C_23
    2  A    between atoms: C_9  and  C_31
    3  A    between atoms: C_9  and  C_32
    4  A    between atoms: C_13  and  CA_29
    5  A    between atoms: C_16  and  C_27
    6  A    between atoms: C_22  and  C_23
    7  A    between atoms: C_28  and  C_32
                            x       y       z     vdW  Elec       q    Type
                         _______ _______ _______ _____ _____    ______ ____

>  <TORSDO>
F 7

$$$$
=
 OpenBabel11062408303D

 32 35  0  0  1  0  0  0  0  0999 V2000
  160.9680  206.4360  153.6800 C   0  0  0  0  0  3  0  0  0  0  0  0
  161.3620  209.3990  153.0450 C   0  0  0  0  0  0  0  0  0  0  0  0
  159.8980  206.3680  154.4690 C   0  0  0  0  0  3  0  0  0  0  0  0
  160.3420  209.0610  153.9350 O   0  0  0  0  0  0  0  0  0  0  0  0
  162.3550  210.1890  153.4670 C   0  0  0  0  0  0  0  0  0  0  0  0
  161.3630  208.8220  151.6410 C   0  0  2  0  0  3  0  0  0  0  0  0
  162.6200  210.9070  151.2260 O   0  0  0  0  0  0  0  0  0  0  0  0
  160.5800  209.0890  155.3110 C   0  0  0  0  0  0  0  0  0  0  0  0
  163.3150  210.7030  152.4350 C   0  0  0  0  0  2  0  0  0  0  0  0
  161.5460  209.8240  155.7770 N   0  0  0  0  0  0  0  0  0  0  0  0
  159.7970  208.1710  156.2080 C   0  0  0  0  0  2  0  0  0  0  0  0
  161.8390  207.4300  151.6520 N   0  0  0  0  0  2  0  0  0  0  0  0
  160.8330  206.5120  152.1920 C   0  0  1  0  0  3  0  0  0  0  0  0
  162.3100  209.6240  150.7180 C   0  0  2  0  0  3  0  0  0  0  0  0
  162.3290  210.7030  154.8930 C   0  0  1  0  0  3  0  0  0  0  0  0
  160.0690  206.6780  155.9250 C   0  0  0  0  0  2  0  0  0  0  0  0
  161.2590  201.3060  150.0070 F   0  0  0  0  0  0  0  0  0  0  0  0
  161.3140  202.7770  151.8780 C   0  0  0  0  0  3  0  0  0  0  0  0
  160.9370  205.1560  151.5550 C   0  0  0  0  0  0  0  0  0  0  0  0
  160.8860  203.6330  149.6570 C   0  0  0  0  0  3  0  0  0  0  0  0
  161.2060  204.0700  152.3960 C   0  0  0  0  0  3  0  0  0  0  0  0
  160.7760  204.9330  150.1650 C   0  0  0  0  0  0  0  0  0  0  0  0
  161.1540  202.5590  150.5100 C   0  0  0  0  0  0  0  0  0  0  0  0
  160.5000  206.0510  149.2050 C   0  0  0  0  0  2  0  0  0  0  0  0
  161.1680  205.7990  147.8610 C   0  0  0  0  0  2  0  0  0  0  0  0
  162.2610  206.6500  147.7010 O   0  0  0  0  0  1  0  0  0  0  0  0
  163.7290  210.9000  155.4640 C   0  0  0  0  0  2  0  0  0  0  0  0
  163.6760  211.0760  156.8490 O   0  0  0  0  0  1  0  0  0  0  0  0
  161.7000  209.7410  149.3300 C   0  0  0  0  0  2  0  0  0  0  0  0
  162.3310  210.8810  148.5420 C   0  0  0  0  0  2  0  0  0  0  0  0
  161.1990  213.0980  148.7770 C   0  0  0  0  0  1  0  0  0  0  0  0
  161.2720  211.8130  147.9740 C   0  0  0  0  0  2  0  0  0  0  0  0
  1  3  2  0  0  0  0
  2  5  2  0  0  0  0
  2  4  1  0  0  0  0
  3 16  1  0  0  0  0
  4  8  1  0  0  0  0
  5 15  1  0  0  0  0
  6 12  1  1  0  0  0
  6  2  1  0  0  0  0
  7  9  1  0  0  0  0
  8 10  2  0  0  0  0
  8 11  1  0  0  0  0
  9  5  1  0  0  0  0
 12 13  1  0  0  0  0
 13 19  1  6  0  0  0
 13  1  1  0  0  0  0
 14 29  1  6  0  0  0
 14  7  1  0  0  0  0
 14  6  1  0  0  0  0
 15 27  1  1  0  0  0
 15 10  1  0  0  0  0
 16 11  1  0  0  0  0
 17 23  1  0  0  0  0
 18 21  1  0  0  0  0
 19 21  2  0  0  0  0
 20 22  2  0  0  0  0
 20 23  1  0  0  0  0
 22 19  1  0  0  0  0
 23 18  2  0  0  0  0
 24 22  1  0  0  0  0
 25 24  1  0  0  0  0
 26 25  1  0  0  0  0
 27 28  1  0  0  0  0
 30 29  1  0  0  0  0
 32 30  1  0  0  0  0
 32 31  1  0  0  0  0
M  END
>  <MODEL>
8

>  <REMARK>
 VINA RESULT:      -6.6      1.929      4.811
  Name = 
  7 active torsions:
  status: ('A' for Active; 'I' for Inactive)
    1  A    between atoms: C_3  and  C_23
    2  A    between atoms: C_9  and  C_31
    3  A    between atoms: C_9  and  C_32
    4  A    between atoms: C_13  and  CA_29
    5  A    between atoms: C_16  and  C_27
    6  A    between atoms: C_22  and  C_23
    7  A    between atoms: C_28  and  C_32
                            x       y       z     vdW  Elec       q    Type
                         _______ _______ _______ _____ _____    ______ ____

>  <TORSDO>
F 7

$$$$
=
 OpenBabel11062408303D

 32 35  0  0  1  0  0  0  0  0999 V2000
  161.4050  207.7760  153.1910 C   0  0  0  0  0  3  0  0  0  0  0  0
  159.9060  210.1220  154.4510 C   0  0  0  0  0  0  0  0  0  0  0  0
  160.9490  206.6810  153.7950 C   0  0  0  0  0  3  0  0  0  0  0  0
  159.6690  208.8500  154.9740 O   0  0  0  0  0  0  0  0  0  0  0  0
  160.4120  211.0670  155.2500 C   0  0  0  0  0  0  0  0  0  0  0  0
  159.6470  210.3970  152.9810 C   0  0  2  0  0  3  0  0  0  0  0  0
  159.3430  212.6760  153.8820 O   0  0  0  0  0  0  0  0  0  0  0  0
  160.3840  208.4100  156.0900 C   0  0  0  0  0  0  0  0  0  0  0  0
  160.4560  212.4700  154.7200 C   0  0  0  0  0  2  0  0  0  0  0  0
  160.9160  209.2850  156.8920 N   0  0  0  0  0  0  0  0  0  0  0  0
  160.6290  206.9380  156.2690 C   0  0  0  0  0  2  0  0  0  0  0  0
  160.7350  209.8560  152.1510 N   0  0  0  0  0  2  0  0  0  0  0  0
  160.6700  208.3960  152.0460 C   0  0  1  0  0  3  0  0  0  0  0  0
  159.5740  211.9170  152.7100 C   0  0  2  0  0  3  0  0  0  0  0  0
  160.6950  210.7280  156.7010 C   0  0  1  0  0  3  0  0  0  0  0  0
  161.4990  206.3340  155.1460 C   0  0  0  0  0  2  0  0  0  0  0  0
  162.7480  206.8340  147.0160 F   0  0  0  0  0  0  0  0  0  0  0  0
  162.3310  208.5110  148.6550 C   0  0  0  0  0  3  0  0  0  0  0  0
  161.2000  207.9230  150.7230 C   0  0  0  0  0  0  0  0  0  0  0  0
  161.6360  206.2260  149.0340 C   0  0  0  0  0  3  0  0  0  0  0  0
  161.8110  208.8750  149.8990 C   0  0  0  0  0  3  0  0  0  0  0  0
  161.1100  206.5800  150.2830 C   0  0  0  0  0  0  0  0  0  0  0  0
  162.2440  207.1870  148.2230 C   0  0  0  0  0  0  0  0  0  0  0  0
  160.4560  205.5120  151.1070 C   0  0  0  0  0  2  0  0  0  0  0  0
  161.0690  204.1470  150.8280 C   0  0  0  0  0  2  0  0  0  0  0  0
  161.1770  203.4180  152.0110 O   0  0  0  0  0  1  0  0  0  0  0  0
  161.8770  211.5120  157.2600 C   0  0  0  0  0  2  0  0  0  0  0  0
  163.0820  211.0060  156.7670 O   0  0  0  0  0  1  0  0  0  0  0  0
  158.4980  212.2060  151.6760 C   0  0  0  0  0  2  0  0  0  0  0  0
  158.6810  213.5860  151.0570 C   0  0  0  0  0  2  0  0  0  0  0  0
  160.4320  213.3280  149.2910 C   0  0  0  0  0  1  0  0  0  0  0  0
  160.1350  213.8380  150.6890 C   0  0  0  0  0  2  0  0  0  0  0  0
  1  3  2  0  0  0  0
  2  4  1  0  0  0  0
  2  5  2  0  0  0  0
  3 16  1  0  0  0  0
  4  8  1  0  0  0  0
  5 15  1  0  0  0  0
  6 12  1  6  0  0  0
  6  2  1  0  0  0  0
  7  9  1  0  0  0  0
  8 11  1  0  0  0  0
  8 10  2  0  0  0  0
  9  5  1  0  0  0  0
 13 19  1  6  0  0  0
 13 12  1  0  0  0  0
 13  1  1  0  0  0  0
 14 29  1  6  0  0  0
 14  6  1  0  0  0  0
 14  7  1  0  0  0  0
 15 10  1  0  0  0  0
 15 27  1  6  0  0  0
 16 11  1  0  0  0  0
 17 23  1  0  0  0  0
 18 21  1  0  0  0  0
 20 22  2  0  0  0  0
 21 19  2  0  0  0  0
 22 19  1  0  0  0  0
 22 24  1  0  0  0  0
 23 18  2  0  0  0  0
 23 20  1  0  0  0  0
 25 24  1  0  0  0  0
 25 26  1  0  0  0  0
 28 27  1  0  0  0  0
 30 29  1  0  0  0  0
 31 32  1  0  0  0  0
 32 30  1  0  0  0  0
M  END
>  <MODEL>
9

>  <REMARK>
 VINA RESULT:      -6.5      2.415      5.257
  Name = 
  7 active torsions:
  status: ('A' for Active; 'I' for Inactive)
    1  A    between atoms: C_3  and  C_23
    2  A    between atoms: C_9  and  C_31
    3  A    between atoms: C_9  and  C_32
    4  A    between atoms: C_13  and  CA_29
    5  A    between atoms: C_16  and  C_27
    6  A    between atoms: C_22  and  C_23
    7  A    between atoms: C_28  and  C_32
                            x       y       z     vdW  Elec       q    Type
                         _______ _______ _______ _____ _____    ______ ____

>  <TORSDO>
F 7

$$$$
