=
 OpenBabel11052422283D

 31 33  0  0  1  0  0  0  0  0999 V2000
  161.3260  209.1980  151.9040 C   0  0  2  0  0  3  0  0  0  0  0  0
  160.9590  206.1640  150.8100 C   0  0  2  0  0  3  0  0  0  0  0  0
  159.8050  206.9700  149.0450 O   0  0  0  0  0  1  0  0  0  0  0  0
  161.0680  206.7590  149.4850 N   0  0  0  0  0  0  0  0  0  0  0  0
  162.0160  206.7990  151.7030 C   0  0  1  0  0  3  0  0  0  0  0  0
  163.3650  206.0930  151.6340 C   0  0  0  0  0  1  0  0  0  0  0  0
  162.1750  208.1850  151.1200 C   0  0  1  0  0  3  0  0  0  0  0  0
  162.8250  208.2550  148.7180 C   0  0  0  0  0  1  0  0  0  0  0  0
  161.6690  208.0750  149.6830 C   0  0  1  0  0  3  0  0  0  0  0  0
  160.9800  202.5640  149.5500 C   0  0  0  0  0  0  0  0  0  0  0  0
  161.0270  202.5520  151.9700 C   0  0  0  0  0  3  0  0  0  0  0  0
  160.9690  201.6970  148.0300 Cl  0  0  0  0  0  0  0  0  0  0  0  0
  160.9560  203.9610  149.5570 C   0  0  0  0  0  3  0  0  0  0  0  0
  161.0020  203.9510  151.9780 C   0  0  0  0  0  3  0  0  0  0  0  0
  160.9590  204.6610  150.7740 C   0  0  0  0  0  0  0  0  0  0  0  0
  161.0160  201.8590  150.7570 C   0  0  0  0  0  3  0  0  0  0  0  0
  161.0990  210.5140  151.2030 C   0  0  0  0  0  0  0  0  0  0  0  0
  161.7510  211.9960  149.3910 C   0  0  0  0  0  3  0  0  0  0  0  0
  161.9130  210.8050  150.1020 C   0  0  0  0  0  3  0  0  0  0  0  0
  159.2450  211.1930  152.6970 N   0  0  0  0  0  1  0  0  0  0  0  0
  160.7680  212.9090  149.7750 C   0  0  0  0  0  0  0  0  0  0  0  0
  160.5640  214.4010  148.8840 Cl  0  0  0  0  0  0  0  0  0  0  0  0
  160.0990  211.4390  151.5840 C   0  0  0  0  0  0  0  0  0  0  0  0
  159.9440  212.6300  150.8680 C   0  0  0  0  0  3  0  0  0  0  0  0
  163.2940  210.5310  154.6980 O   0  0  0  0  0  0  0  0  0  0  0  0
  161.7880  209.3880  153.2840 N   0  0  0  0  0  0  0  0  0  0  0  0
  161.5080  208.7810  155.5390 O   0  0  0  0  0  0  0  0  0  0  0  0
  162.8350  210.3400  153.5400 C   0  0  0  0  0  3  0  0  0  0  0  0
  161.1890  208.6000  154.3340 C   0  0  0  0  0  0  0  0  0  0  0  0
  160.4700  206.3750  154.6670 O   0  0  0  0  0  1  0  0  0  0  0  0
  160.1520  207.5710  154.0230 C   0  0  0  0  0  2  0  0  0  0  0  0
  1 26  1  1  0  0  0
  2 15  1  6  0  0  0
  2  5  1  0  0  0  0
  3  4  1  0  0  0  0
  4  9  1  0  0  0  0
  4  2  1  0  0  0  0
  5  6  1  6  0  0  0
  7  5  1  0  0  0  0
  7  1  1  1  0  0  0
  9  8  1  6  0  0  0
  9  7  1  0  0  0  0
 10 13  2  0  0  0  0
 10 16  1  0  0  0  0
 11 14  1  0  0  0  0
 12 10  1  0  0  0  0
 13 15  1  0  0  0  0
 15 14  2  0  0  0  0
 16 11  2  0  0  0  0
 17 23  1  0  0  0  0
 17  1  1  0  0  0  0
 18 21  2  0  0  0  0
 18 19  1  0  0  0  0
 19 17  2  0  0  0  0
 21 24  1  0  0  0  0
 22 21  1  0  0  0  0
 23 20  1  0  0  0  0
 24 23  2  0  0  0  0
 26 28  1  0  0  0  0
 26 29  1  0  0  0  0
 28 25  2  0  0  0  0
 29 27  2  0  0  0  0
 31 29  1  0  0  0  0
 31 30  1  0  0  0  0
M  END
>  <MODEL>
1

>  <REMARK>
 VINA RESULT:      -4.8      0.000      0.000
  Name = 
  5 active torsions:
  status: ('A' for Active; 'I' for Inactive)
    1  A    between atoms: C_3  and  C_22
    2  A    between atoms: C_4  and  C_5
    3  A    between atoms: C_4  and  N_12
    4  A    between atoms: C_4  and  C_21
    5  A    between atoms: C_27  and  C_28
                            x       y       z     vdW  Elec       q    Type
                         _______ _______ _______ _____ _____    ______ ____

>  <TORSDO>
F 5

$$$$
=
 OpenBabel11052422283D

 31 33  0  0  1  0  0  0  0  0999 V2000
  160.5230  208.4610  152.9520 C   0  0  2  0  0  3  0  0  0  0  0  0
  160.6780  205.7310  151.2020 C   0  0  2  0  0  3  0  0  0  0  0  0
  159.7360  206.8240  149.4650 O   0  0  0  0  0  1  0  0  0  0  0  0
  160.9280  206.6150  150.0720 N   0  0  0  0  0  0  0  0  0  0  0  0
  161.5010  206.2270  152.3830 C   0  0  1  0  0  3  0  0  0  0  0  0
  162.9140  205.6580  152.4120 C   0  0  0  0  0  1  0  0  0  0  0  0
  161.5940  207.7160  152.1400 C   0  0  1  0  0  3  0  0  0  0  0  0
  162.6050  208.3720  149.9620 C   0  0  0  0  0  1  0  0  0  0  0  0
  161.3380  207.8940  150.6440 C   0  0  1  0  0  3  0  0  0  0  0  0
  161.0420  202.4920  149.2220 C   0  0  0  0  0  0  0  0  0  0  0  0
  161.2460  202.0000  151.5830 C   0  0  0  0  0  3  0  0  0  0  0  0
  161.0350  201.9540  147.5570 Cl  0  0  0  0  0  0  0  0  0  0  0  0
  160.8530  203.8440  149.5200 C   0  0  0  0  0  3  0  0  0  0  0  0
  161.0570  203.3530  151.8830 C   0  0  0  0  0  3  0  0  0  0  0  0
  160.8530  204.2790  150.8540 C   0  0  0  0  0  0  0  0  0  0  0  0
  161.2380  201.5690  150.2540 C   0  0  0  0  0  3  0  0  0  0  0  0
  160.3230  209.9060  152.5660 C   0  0  0  0  0  0  0  0  0  0  0  0
  161.0640  211.7680  151.1920 C   0  0  0  0  0  3  0  0  0  0  0  0
  161.1960  210.4430  151.6130 C   0  0  0  0  0  3  0  0  0  0  0  0
  158.3810  210.2240  154.0680 N   0  0  0  0  0  1  0  0  0  0  0  0
  160.0510  212.5700  151.7220 C   0  0  0  0  0  0  0  0  0  0  0  0
  159.8850  214.2300  151.1950 Cl  0  0  0  0  0  0  0  0  0  0  0  0
  159.2950  210.7190  153.0950 C   0  0  0  0  0  0  0  0  0  0  0  0
  159.1690  212.0460  152.6690 C   0  0  0  0  0  3  0  0  0  0  0  0
  159.9790  207.1360  156.3290 O   0  0  0  0  0  0  0  0  0  0  0  0
  160.6870  208.3010  154.4010 N   0  0  0  0  0  0  0  0  0  0  0  0
  161.8350  209.0110  156.3270 O   0  0  0  0  0  0  0  0  0  0  0  0
  159.9040  207.3060  155.0830 C   0  0  0  0  0  3  0  0  0  0  0  0
  161.6140  209.1610  155.0960 C   0  0  0  0  0  0  0  0  0  0  0  0
  163.3070  210.8040  155.2190 O   0  0  0  0  0  1  0  0  0  0  0  0
  162.3610  210.2310  154.3690 C   0  0  0  0  0  2  0  0  0  0  0  0
  1 26  1  1  0  0  0
  2 15  1  6  0  0  0
  2  5  1  0  0  0  0
  3  4  1  0  0  0  0
  4  9  1  0  0  0  0
  4  2  1  0  0  0  0
  5  6  1  6  0  0  0
  7  5  1  0  0  0  0
  7  1  1  1  0  0  0
  9  8  1  6  0  0  0
  9  7  1  0  0  0  0
 10 13  2  0  0  0  0
 10 16  1  0  0  0  0
 11 14  1  0  0  0  0
 12 10  1  0  0  0  0
 13 15  1  0  0  0  0
 15 14  2  0  0  0  0
 16 11  2  0  0  0  0
 17  1  1  0  0  0  0
 17 23  1  0  0  0  0
 18 19  1  0  0  0  0
 18 21  2  0  0  0  0
 19 17  2  0  0  0  0
 21 24  1  0  0  0  0
 22 21  1  0  0  0  0
 23 20  1  0  0  0  0
 24 23  2  0  0  0  0
 26 28  1  0  0  0  0
 26 29  1  0  0  0  0
 28 25  2  0  0  0  0
 29 27  2  0  0  0  0
 31 29  1  0  0  0  0
 31 30  1  0  0  0  0
M  END
>  <MODEL>
2

>  <REMARK>
 VINA RESULT:      -4.2      1.183      2.074
  Name = 
  5 active torsions:
  status: ('A' for Active; 'I' for Inactive)
    1  A    between atoms: C_3  and  C_22
    2  A    between atoms: C_4  and  C_5
    3  A    between atoms: C_4  and  N_12
    4  A    between atoms: C_4  and  C_21
    5  A    between atoms: C_27  and  C_28
                            x       y       z     vdW  Elec       q    Type
                         _______ _______ _______ _____ _____    ______ ____

>  <TORSDO>
F 5

$$$$
=
 OpenBabel11052422283D

 31 33  0  0  1  0  0  0  0  0999 V2000
  160.2740  209.7520  153.6150 C   0  0  2  0  0  3  0  0  0  0  0  0
  160.7780  207.5340  151.2990 C   0  0  2  0  0  3  0  0  0  0  0  0
  160.7960  209.1860  149.7600 O   0  0  0  0  0  1  0  0  0  0  0  0
  161.5900  208.5620  150.6620 N   0  0  0  0  0  0  0  0  0  0  0  0
  161.0940  207.5350  152.7880 C   0  0  1  0  0  3  0  0  0  0  0  0
  162.2790  206.6480  153.1520 C   0  0  0  0  0  1  0  0  0  0  0  0
  161.4760  208.9720  153.0600 C   0  0  1  0  0  3  0  0  0  0  0  0
  163.3780  209.8370  151.7060 C   0  0  0  0  0  1  0  0  0  0  0  0
  161.8910  209.5390  151.7040 C   0  0  1  0  0  3  0  0  0  0  0  0
  161.2170  204.8550  148.6200 C   0  0  0  0  0  0  0  0  0  0  0  0
  160.9410  203.7800  150.7710 C   0  0  0  0  0  3  0  0  0  0  0  0
  161.4690  204.7440  146.8920 Cl  0  0  0  0  0  0  0  0  0  0  0  0
  161.0940  206.1070  149.2290 C   0  0  0  0  0  3  0  0  0  0  0  0
  160.8190  205.0330  151.3820 C   0  0  0  0  0  3  0  0  0  0  0  0
  160.8870  206.2000  150.6140 C   0  0  0  0  0  0  0  0  0  0  0  0
  161.1400  203.6910  149.3910 C   0  0  0  0  0  3  0  0  0  0  0  0
  159.8390  210.9290  152.7780 C   0  0  0  0  0  0  0  0  0  0  0  0
  160.4450  212.5500  151.0720 C   0  0  0  0  0  3  0  0  0  0  0  0
  160.7780  211.4700  151.8920 C   0  0  0  0  0  3  0  0  0  0  0  0
  157.5480  210.9750  153.7140 N   0  0  0  0  0  1  0  0  0  0  0  0
  159.1640  213.1000  151.1300 C   0  0  0  0  0  0  0  0  0  0  0  0
  158.7450  214.4530  150.1030 Cl  0  0  0  0  0  0  0  0  0  0  0  0
  158.5400  211.4850  152.8300 C   0  0  0  0  0  0  0  0  0  0  0  0
  158.2140  212.5680  152.0060 C   0  0  0  0  0  3  0  0  0  0  0  0
  161.2250  211.7310  156.5540 O   0  0  0  0  0  0  0  0  0  0  0  0
  160.4280  210.1140  155.0290 N   0  0  0  0  0  0  0  0  0  0  0  0
  160.0280  209.4880  157.2600 O   0  0  0  0  0  0  0  0  0  0  0  0
  161.0400  211.3730  155.3600 C   0  0  0  0  0  3  0  0  0  0  0  0
  159.9770  209.1870  156.0380 C   0  0  0  0  0  0  0  0  0  0  0  0
  160.2220  206.8410  156.1590 O   0  0  0  0  0  1  0  0  0  0  0  0
  159.4080  207.8580  155.6600 C   0  0  0  0  0  2  0  0  0  0  0  0
  1 26  1  1  0  0  0
  2 15  1  6  0  0  0
  2  5  1  0  0  0  0
  3  4  1  0  0  0  0
  4  2  1  0  0  0  0
  4  9  1  0  0  0  0
  5  7  1  0  0  0  0
  5  6  1  6  0  0  0
  7  1  1  6  0  0  0
  9  8  1  1  0  0  0
  9  7  1  0  0  0  0
 10 13  2  0  0  0  0
 10 16  1  0  0  0  0
 11 14  1  0  0  0  0
 12 10  1  0  0  0  0
 13 15  1  0  0  0  0
 15 14  2  0  0  0  0
 16 11  2  0  0  0  0
 17 23  1  0  0  0  0
 17  1  1  0  0  0  0
 18 21  2  0  0  0  0
 18 19  1  0  0  0  0
 19 17  2  0  0  0  0
 21 24  1  0  0  0  0
 22 21  1  0  0  0  0
 23 20  1  0  0  0  0
 24 23  2  0  0  0  0
 26 28  1  0  0  0  0
 26 29  1  0  0  0  0
 28 25  2  0  0  0  0
 29 27  2  0  0  0  0
 31 29  1  0  0  0  0
 31 30  1  0  0  0  0
M  END
>  <MODEL>
3

>  <REMARK>
 VINA RESULT:      -3.2      1.845      2.235
  Name = 
  5 active torsions:
  status: ('A' for Active; 'I' for Inactive)
    1  A    between atoms: C_3  and  C_22
    2  A    between atoms: C_4  and  C_5
    3  A    between atoms: C_4  and  N_12
    4  A    between atoms: C_4  and  C_21
    5  A    between atoms: C_27  and  C_28
                            x       y       z     vdW  Elec       q    Type
                         _______ _______ _______ _____ _____    ______ ____

>  <TORSDO>
F 5

$$$$
=
 OpenBabel11052422283D

 31 33  0  0  1  0  0  0  0  0999 V2000
  160.9670  204.0340  148.1810 C   0  0  2  0  0  3  0  0  0  0  0  0
  160.7280  205.6320  150.9960 C   0  0  2  0  0  3  0  0  0  0  0  0
  159.3720  204.0010  151.7740 O   0  0  0  0  0  1  0  0  0  0  0  0
  160.6800  204.3080  151.6030 N   0  0  0  0  0  0  0  0  0  0  0  0
  161.8080  205.6230  149.9240 C   0  0  1  0  0  3  0  0  0  0  0  0
  163.1930  205.9590  150.4640 C   0  0  0  0  0  1  0  0  0  0  0  0
  161.8170  204.1870  149.4520 C   0  0  1  0  0  3  0  0  0  0  0  0
  162.2540  202.4940  151.2240 C   0  0  0  0  0  1  0  0  0  0  0  0
  161.2000  203.3860  150.5970 C   0  0  1  0  0  3  0  0  0  0  0  0
  160.8700  209.0890  152.6010 C   0  0  0  0  0  0  0  0  0  0  0  0
  161.0050  207.4080  154.3370 C   0  0  0  0  0  3  0  0  0  0  0  0
  160.8280  210.7710  152.1190 Cl  0  0  0  0  0  0  0  0  0  0  0  0
  160.7950  208.0840  151.6330 C   0  0  0  0  0  3  0  0  0  0  0  0
  160.9310  206.4010  153.3690 C   0  0  0  0  0  3  0  0  0  0  0  0
  160.8320  206.7330  152.0140 C   0  0  0  0  0  0  0  0  0  0  0  0
  160.9750  208.7510  153.9530 C   0  0  0  0  0  3  0  0  0  0  0  0
  161.0490  202.6790  147.5220 C   0  0  0  0  0  0  0  0  0  0  0  0
  161.5000  200.3070  147.7910 C   0  0  0  0  0  3  0  0  0  0  0  0
  161.4190  201.5950  148.3260 C   0  0  0  0  0  3  0  0  0  0  0  0
  160.3660  203.5230  145.2980 N   0  0  0  0  0  1  0  0  0  0  0  0
  161.2070  200.0920  146.4440 C   0  0  0  0  0  0  0  0  0  0  0  0
  161.3070  198.4780  145.7740 Cl  0  0  0  0  0  0  0  0  0  0  0  0
  160.7460  202.4560  146.1590 C   0  0  0  0  0  0  0  0  0  0  0  0
  160.8300  201.1630  145.6310 C   0  0  0  0  0  3  0  0  0  0  0  0
  160.1870  206.9560  146.1050 O   0  0  0  0  0  0  0  0  0  0  0  0
  161.1740  205.1220  147.2180 N   0  0  0  0  0  0  0  0  0  0  0  0
  162.6960  206.2030  145.7890 O   0  0  0  0  0  0  0  0  0  0  0  0
  160.0840  206.0180  146.9400 C   0  0  0  0  0  3  0  0  0  0  0  0
  162.4560  205.2440  146.5690 C   0  0  0  0  0  0  0  0  0  0  0  0
  164.2000  203.9530  145.6360 O   0  0  0  0  0  1  0  0  0  0  0  0
  163.5450  204.2550  146.8300 C   0  0  0  0  0  2  0  0  0  0  0  0
  1 26  1  6  0  0  0
  2  4  1  0  0  0  0
  2 15  1  1  0  0  0
  4  3  1  0  0  0  0
  5  6  1  1  0  0  0
  5  2  1  0  0  0  0
  7  1  1  6  0  0  0
  7  5  1  0  0  0  0
  7  9  1  0  0  0  0
  9  8  1  1  0  0  0
  9  4  1  0  0  0  0
 10 16  1  0  0  0  0
 12 10  1  0  0  0  0
 13 15  1  0  0  0  0
 13 10  2  0  0  0  0
 14 11  1  0  0  0  0
 15 14  2  0  0  0  0
 16 11  2  0  0  0  0
 17  1  1  0  0  0  0
 17 19  1  0  0  0  0
 18 19  2  0  0  0  0
 20 23  1  0  0  0  0
 21 18  1  0  0  0  0
 22 21  1  0  0  0  0
 23 17  2  0  0  0  0
 24 23  1  0  0  0  0
 24 21  2  0  0  0  0
 25 28  2  0  0  0  0
 27 29  2  0  0  0  0
 28 26  1  0  0  0  0
 29 31  1  0  0  0  0
 29 26  1  0  0  0  0
 30 31  1  0  0  0  0
M  END
>  <MODEL>
4

>  <REMARK>
 VINA RESULT:      -2.2      3.484      8.287
  Name = 
  5 active torsions:
  status: ('A' for Active; 'I' for Inactive)
    1  A    between atoms: C_3  and  C_22
    2  A    between atoms: C_4  and  C_5
    3  A    between atoms: C_4  and  N_12
    4  A    between atoms: C_4  and  C_21
    5  A    between atoms: C_27  and  C_28
                            x       y       z     vdW  Elec       q    Type
                         _______ _______ _______ _____ _____    ______ ____

>  <TORSDO>
F 5

$$$$
=
 OpenBabel11052422283D

 31 33  0  0  1  0  0  0  0  0999 V2000
  159.1760  211.0250  154.2650 C   0  0  2  0  0  3  0  0  0  0  0  0
  160.5480  208.5330  152.7030 C   0  0  2  0  0  3  0  0  0  0  0  0
  161.5370  209.9950  151.2950 O   0  0  0  0  0  1  0  0  0  0  0  0
  161.6800  209.4300  152.5170 N   0  0  0  0  0  0  0  0  0  0  0  0
  160.0520  208.6830  154.1340 C   0  0  1  0  0  3  0  0  0  0  0  0
  160.7750  207.7720  155.1190 C   0  0  0  0  0  1  0  0  0  0  0  0
  160.3980  210.1160  154.4710 C   0  0  1  0  0  3  0  0  0  0  0  0
  162.8070  210.7030  154.2560 C   0  0  0  0  0  1  0  0  0  0  0  0
  161.5100  210.4990  153.4970 C   0  0  1  0  0  3  0  0  0  0  0  0
  161.1370  205.4590  150.5230 C   0  0  0  0  0  0  0  0  0  0  0  0
  161.4760  204.8570  152.8430 C   0  0  0  0  0  3  0  0  0  0  0  0
  161.1180  205.0170  148.8300 Cl  0  0  0  0  0  0  0  0  0  0  0  0
  160.8340  206.7680  150.9060 C   0  0  0  0  0  3  0  0  0  0  0  0
  161.1730  206.1670  153.2280 C   0  0  0  0  0  3  0  0  0  0  0  0
  160.8440  207.1260  152.2640 C   0  0  0  0  0  0  0  0  0  0  0  0
  161.4580  204.5030  151.4910 C   0  0  0  0  0  3  0  0  0  0  0  0
  159.2370  211.9020  153.0390 C   0  0  0  0  0  0  0  0  0  0  0  0
  160.6120  212.8250  151.2610 C   0  0  0  0  0  3  0  0  0  0  0  0
  160.4800  212.0440  152.4110 C   0  0  0  0  0  3  0  0  0  0  0  0
  156.8220  212.4450  153.0900 N   0  0  0  0  0  1  0  0  0  0  0  0
  159.4970  213.4720  150.7260 C   0  0  0  0  0  0  0  0  0  0  0  0
  159.6620  214.4520  149.2860 Cl  0  0  0  0  0  0  0  0  0  0  0  0
  158.1090  212.5540  152.4900 C   0  0  0  0  0  0  0  0  0  0  0  0
  158.2490  213.3360  151.3390 C   0  0  0  0  0  3  0  0  0  0  0  0
  159.4670  213.5180  156.9410 O   0  0  0  0  0  0  0  0  0  0  0  0
  158.8220  211.7910  155.4660 N   0  0  0  0  0  0  0  0  0  0  0  0
  157.2370  212.1260  157.1710 O   0  0  0  0  0  0  0  0  0  0  0  0
  159.7010  212.8410  155.9050 C   0  0  0  0  0  3  0  0  0  0  0  0
  157.6130  211.4510  156.1770 C   0  0  0  0  0  0  0  0  0  0  0  0
  155.4180  210.6960  155.7390 O   0  0  0  0  0  1  0  0  0  0  0  0
  156.7580  210.3090  155.7330 C   0  0  0  0  0  2  0  0  0  0  0  0
  1 26  1  1  0  0  0
  2 15  1  1  0  0  0
  2  5  1  0  0  0  0
  3  4  1  0  0  0  0
  4  2  1  0  0  0  0
  4  9  1  0  0  0  0
  5  7  1  0  0  0  0
  5  6  1  1  0  0  0
  7  1  1  6  0  0  0
  9  8  1  1  0  0  0
  9  7  1  0  0  0  0
 10 13  2  0  0  0  0
 10 16  1  0  0  0  0
 11 14  1  0  0  0  0
 12 10  1  0  0  0  0
 13 15  1  0  0  0  0
 15 14  2  0  0  0  0
 16 11  2  0  0  0  0
 17  1  1  0  0  0  0
 18 19  1  0  0  0  0
 19 17  2  0  0  0  0
 21 18  2  0  0  0  0
 21 24  1  0  0  0  0
 22 21  1  0  0  0  0
 23 17  1  0  0  0  0
 23 20  1  0  0  0  0
 24 23  2  0  0  0  0
 26 28  1  0  0  0  0
 26 29  1  0  0  0  0
 28 25  2  0  0  0  0
 29 27  2  0  0  0  0
 31 30  1  0  0  0  0
 31 29  1  0  0  0  0
M  END
>  <MODEL>
5

>  <REMARK>
 VINA RESULT:      -2.1      2.867      3.869
  Name = 
  5 active torsions:
  status: ('A' for Active; 'I' for Inactive)
    1  A    between atoms: C_3  and  C_22
    2  A    between atoms: C_4  and  C_5
    3  A    between atoms: C_4  and  N_12
    4  A    between atoms: C_4  and  C_21
    5  A    between atoms: C_27  and  C_28
                            x       y       z     vdW  Elec       q    Type
                         _______ _______ _______ _____ _____    ______ ____

>  <TORSDO>
F 5

$$$$
=
 OpenBabel11052422283D

 31 33  0  0  1  0  0  0  0  0999 V2000
  161.2990  207.6830  153.6170 C   0  0  2  0  0  3  0  0  0  0  0  0
  160.2590  210.5720  154.6720 C   0  0  2  0  0  3  0  0  0  0  0  0
  162.3630  211.0560  155.3350 O   0  0  0  0  0  1  0  0  0  0  0  0
  161.5630  211.0610  154.2430 N   0  0  0  0  0  0  0  0  0  0  0  0
  159.7270  209.6330  153.5980 C   0  0  1  0  0  3  0  0  0  0  0  0
  158.9560  210.3530  152.4990 C   0  0  0  0  0  1  0  0  0  0  0  0
  160.9850  209.0520  152.9930 C   0  0  1  0  0  3  0  0  0  0  0  0
  162.5800  210.7200  152.0610 C   0  0  0  0  0  1  0  0  0  0  0  0
  162.0900  210.0510  153.3300 C   0  0  1  0  0  3  0  0  0  0  0  0
  157.3680  212.4790  156.2700 C   0  0  0  0  0  0  0  0  0  0  0  0
  158.7820  214.0420  155.0790 C   0  0  0  0  0  3  0  0  0  0  0  0
  155.9630  212.1590  157.2610 Cl  0  0  0  0  0  0  0  0  0  0  0  0
  158.2030  211.4280  155.8820 C   0  0  0  0  0  3  0  0  0  0  0  0
  159.6190  212.9910  154.6900 C   0  0  0  0  0  3  0  0  0  0  0  0
  159.3300  211.6790  155.0830 C   0  0  0  0  0  0  0  0  0  0  0  0
  157.6570  213.7870  155.8680 C   0  0  0  0  0  3  0  0  0  0  0  0
  161.2280  206.5180  152.6630 C   0  0  0  0  0  0  0  0  0  0  0  0
  161.1210  204.1050  152.3990 C   0  0  0  0  0  3  0  0  0  0  0  0
  161.2030  205.2330  153.2180 C   0  0  0  0  0  3  0  0  0  0  0  0
  161.1850  207.9460  150.6410 N   0  0  0  0  0  1  0  0  0  0  0  0
  161.0600  204.2530  151.0120 C   0  0  0  0  0  0  0  0  0  0  0  0
  160.9570  202.8390  149.9860 Cl  0  0  0  0  0  0  0  0  0  0  0  0
  161.1610  206.6630  151.2580 C   0  0  0  0  0  0  0  0  0  0  0  0
  161.0800  205.5280  150.4440 C   0  0  0  0  0  3  0  0  0  0  0  0
  158.4670  206.7690  155.7620 O   0  0  0  0  0  0  0  0  0  0  0  0
  160.5430  207.4270  154.8480 N   0  0  0  0  0  0  0  0  0  0  0  0
  160.5950  207.3760  157.1990 O   0  0  0  0  0  0  0  0  0  0  0  0
  159.1790  206.9820  154.7450 C   0  0  0  0  0  3  0  0  0  0  0  0
  161.1860  207.6490  156.1210 C   0  0  0  0  0  0  0  0  0  0  0  0
  162.6890  209.0750  157.2540 O   0  0  0  0  0  1  0  0  0  0  0  0
  162.5810  208.1770  156.1920 C   0  0  0  0  0  2  0  0  0  0  0  0
  1 26  1  1  0  0  0
  2 15  1  6  0  0  0
  4  2  1  0  0  0  0
  4  3  1  0  0  0  0
  5  6  1  6  0  0  0
  5  2  1  0  0  0  0
  7  9  1  0  0  0  0
  7  5  1  0  0  0  0
  7  1  1  1  0  0  0
  9  8  1  6  0  0  0
  9  4  1  0  0  0  0
 10 12  1  0  0  0  0
 11 16  1  0  0  0  0
 13 10  1  0  0  0  0
 14 11  2  0  0  0  0
 14 15  1  0  0  0  0
 15 13  2  0  0  0  0
 16 10  2  0  0  0  0
 17 19  1  0  0  0  0
 17  1  1  0  0  0  0
 18 19  2  0  0  0  0
 20 23  1  0  0  0  0
 21 18  1  0  0  0  0
 22 21  1  0  0  0  0
 23 17  2  0  0  0  0
 24 21  2  0  0  0  0
 24 23  1  0  0  0  0
 26 29  1  0  0  0  0
 28 26  1  0  0  0  0
 28 25  2  0  0  0  0
 29 31  1  0  0  0  0
 29 27  2  0  0  0  0
 31 30  1  0  0  0  0
M  END
>  <MODEL>
6

>  <REMARK>
 VINA RESULT:      -2.0      3.079      7.527
  Name = 
  5 active torsions:
  status: ('A' for Active; 'I' for Inactive)
    1  A    between atoms: C_3  and  C_22
    2  A    between atoms: C_4  and  C_5
    3  A    between atoms: C_4  and  N_12
    4  A    between atoms: C_4  and  C_21
    5  A    between atoms: C_27  and  C_28
                            x       y       z     vdW  Elec       q    Type
                         _______ _______ _______ _____ _____    ______ ____

>  <TORSDO>
F 5

$$$$
