=
 OpenBabel11052421443D

 30 34  0  0  1  0  0  0  0  0999 V2000
  160.4010  210.3930  152.7820 C   0  0  0  0  0  0  0  0  0  0  0  0
  161.1220  211.8090  150.7640 C   0  0  0  0  0  0  0  0  0  0  0  0
  158.2090  212.6390  152.8100 C   0  0  1  0  0  3  0  0  0  0  0  0
  160.5650  210.5200  154.2940 C   0  0  2  0  0  3  0  0  0  0  0  0
  160.4760  209.1980  152.1720 C   0  0  0  0  0  3  0  0  0  0  0  0
  161.0310  205.9730  153.8890 N   0  0  0  0  0  0  0  0  0  0  0  0
  160.7120  207.2770  153.9530 C   0  0  0  0  0  0  0  0  0  0  0  0
  161.0650  206.8470  151.8090 N   0  0  0  0  0  2  0  0  0  0  0  0
  157.9940  213.0260  154.2820 C   0  0  2  0  0  3  0  0  0  0  0  0
  160.7400  207.8260  152.6720 C   0  0  0  0  0  0  0  0  0  0  0  0
  160.3630  207.9340  155.2450 C   0  0  0  0  0  2  0  0  0  0  0  0
  160.8890  212.6520  149.7390 C   0  0  0  0  0  3  0  0  0  0  0  0
  161.6120  204.4270  152.0260 C   0  0  0  0  0  1  0  0  0  0  0  0
  162.3070  211.1430  150.7900 F   0  0  0  0  0  0  0  0  0  0  0  0
  158.6520  213.7050  151.8090 C   0  0  2  0  0  3  0  0  0  0  0  0
  159.6870  213.5550  149.5270 C   0  0  0  0  0  2  0  0  0  0  0  0
  161.2360  205.7560  152.5770 C   0  0  0  0  0  0  0  0  0  0  0  0
  160.1000  211.5520  151.8420 C   0  0  2  0  0  3  0  0  0  0  0  0
  160.1480  211.7980  155.0470 C   0  0  0  0  0  2  0  0  0  0  0  0
  158.3870  214.4530  154.6570 C   0  0  0  0  0  1  0  0  0  0  0  0
  158.6270  211.9980  155.2390 C   0  0  2  0  0  3  0  0  0  0  0  0
  162.2200  209.9910  154.8260 S   0  0  0  0  0  0  0  0  0  0  0  0
  158.4480  213.2380  150.3670 C   0  0  0  0  0  2  0  0  0  0  0  0
  159.6810  212.8350  152.5180 C   0  0  2  0  0  3  0  0  0  0  0  0
  161.5760  208.6280  155.8630 C   0  0  0  0  0  2  0  0  0  0  0  0
  157.8990  210.7350  155.2090 N   0  0  0  0  0  2  0  0  0  0  0  0
  156.4880  211.0450  155.3750 C   0  0  1  0  0  3  0  0  0  0  0  0
  155.6630  209.8320  154.9970 C   0  0  0  0  0  1  0  0  0  0  0  0
  156.2050  211.4110  156.8210 C   0  0  0  0  0  2  0  0  0  0  0  0
  155.2730  212.6070  156.8910 C   0  0  0  0  0  1  0  0  0  0  0  0
  1  4  1  0  0  0  0
  2 14  1  0  0  0  0
  2 18  1  0  0  0  0
  3  9  1  0  0  0  0
  4 22  1  0  0  0  0
  4 19  1  0  0  0  0
  5 10  1  0  0  0  0
  5  1  2  0  0  0  0
  6  7  1  0  0  0  0
  7 11  1  0  0  0  0
  8 17  1  0  0  0  0
  8 10  1  0  0  0  0
  9 20  1  0  0  0  0
  9 21  1  0  0  0  0
 10  7  2  0  0  0  0
 11 25  1  0  0  0  0
 12  2  2  0  0  0  0
 13 17  1  0  0  0  0
 15 24  1  0  0  0  0
 15  3  1  0  0  0  0
 16 12  1  0  0  0  0
 16 23  1  0  0  0  0
 17  6  2  0  0  0  0
 18 24  1  0  0  0  0
 18  1  1  0  0  0  0
 19 21  1  0  0  0  0
 22 25  1  0  0  0  0
 23 15  1  0  0  0  0
 24  3  1  0  0  0  0
 26 21  1  0  0  0  0
 26 27  1  0  0  0  0
 27 29  1  0  0  0  0
 28 27  1  0  0  0  0
 29 30  1  0  0  0  0
M  END
>  <MODEL>
1

>  <REMARK>
 VINA RESULT:      -3.0      0.000      0.000
  Name = 
  3 active torsions:
  status: ('A' for Active; 'I' for Inactive)
    1  A    between atoms: C_7  and  N_10
    2  A    between atoms: C_7  and  C_15
    3  A    between atoms: N_10  and  C_25
                            x       y       z     vdW  Elec       q    Type
                         _______ _______ _______ _____ _____    ______ ____

>  <TORSDO>
F 3

$$$$
=
 OpenBabel11052421443D

 30 34  0  0  1  0  0  0  0  0999 V2000
  159.0080  210.7420  154.8650 C   0  0  0  0  0  0  0  0  0  0  0  0
  159.9750  208.7030  156.0950 C   0  0  0  0  0  0  0  0  0  0  0  0
  160.4340  209.2390  152.5080 C   0  0  1  0  0  3  0  0  0  0  0  0
  159.5800  212.0700  154.3780 C   0  0  2  0  0  3  0  0  0  0  0  0
  157.7690  210.6640  155.3810 C   0  0  0  0  0  3  0  0  0  0  0  0
  155.4350  213.5090  155.7230 N   0  0  0  0  0  0  0  0  0  0  0  0
  156.5550  212.9900  155.1920 C   0  0  0  0  0  0  0  0  0  0  0  0
  155.6860  211.3880  156.4520 N   0  0  0  0  0  2  0  0  0  0  0  0
  161.1230  210.3140  151.6530 C   0  0  2  0  0  3  0  0  0  0  0  0
  156.7220  211.6830  155.6450 C   0  0  0  0  0  0  0  0  0  0  0  0
  157.4030  213.7670  154.2450 C   0  0  0  0  0  2  0  0  0  0  0  0
  160.4040  207.4280  156.1600 C   0  0  0  0  0  3  0  0  0  0  0  0
  153.6850  212.6300  157.2610 C   0  0  0  0  0  1  0  0  0  0  0  0
  159.7180  209.3550  157.2600 F   0  0  0  0  0  0  0  0  0  0  0  0
  161.2720  208.1250  153.1340 C   0  0  2  0  0  3  0  0  0  0  0  0
  160.8230  206.5240  155.0150 C   0  0  0  0  0  2  0  0  0  0  0  0
  154.9430  212.5090  156.4760 C   0  0  0  0  0  0  0  0  0  0  0  0
  159.7300  209.4040  154.7830 C   0  0  2  0  0  3  0  0  0  0  0  0
  160.8320  212.1300  153.4840 C   0  0  0  0  0  2  0  0  0  0  0  0
  162.6480  210.2550  151.6140 C   0  0  0  0  0  1  0  0  0  0  0  0
  160.6220  211.7280  152.0050 C   0  0  2  0  0  3  0  0  0  0  0  0
  159.7220  213.2670  155.7380 S   0  0  0  0  0  0  0  0  0  0  0  0
  160.3960  206.9670  153.6140 C   0  0  0  0  0  2  0  0  0  0  0  0
  160.9660  209.3950  153.9160 C   0  0  2  0  0  3  0  0  0  0  0  0
  158.5610  214.4530  154.9660 C   0  0  0  0  0  2  0  0  0  0  0  0
  159.2420  211.9190  151.5760 N   0  0  0  0  0  2  0  0  0  0  0  0
  159.1450  213.2560  151.0130 C   0  0  1  0  0  3  0  0  0  0  0  0
  160.0510  213.3540  149.8030 C   0  0  0  0  0  1  0  0  0  0  0  0
  157.7140  213.5380  150.5890 C   0  0  0  0  0  2  0  0  0  0  0  0
  157.5520  213.3180  149.0970 C   0  0  0  0  0  1  0  0  0  0  0  0
  1  5  2  0  0  0  0
  2 12  2  0  0  0  0
  2 14  1  0  0  0  0
  3 15  1  0  0  0  0
  3 24  1  0  0  0  0
  4  1  1  0  0  0  0
  4 22  1  0  0  0  0
  5 10  1  0  0  0  0
  6 17  2  0  0  0  0
  7 10  2  0  0  0  0
  7  6  1  0  0  0  0
  8 17  1  0  0  0  0
  9 21  1  0  0  0  0
  9  3  1  0  0  0  0
 10  8  1  0  0  0  0
 11 25  1  0  0  0  0
 11  7  1  0  0  0  0
 15 23  1  0  0  0  0
 15 24  1  0  0  0  0
 16 12  1  0  0  0  0
 17 13  1  0  0  0  0
 18  1  1  0  0  0  0
 18  2  1  0  0  0  0
 19  4  1  0  0  0  0
 20  9  1  0  0  0  0
 21 19  1  0  0  0  0
 23 16  1  0  0  0  0
 24 18  1  0  0  0  0
 25 22  1  0  0  0  0
 26 21  1  0  0  0  0
 27 26  1  0  0  0  0
 28 27  1  0  0  0  0
 29 27  1  0  0  0  0
 30 29  1  0  0  0  0
M  END
>  <MODEL>
2

>  <REMARK>
 VINA RESULT:      -1.5      2.540      6.661
  Name = 
  3 active torsions:
  status: ('A' for Active; 'I' for Inactive)
    1  A    between atoms: C_7  and  N_10
    2  A    between atoms: C_7  and  C_15
    3  A    between atoms: N_10  and  C_25
                            x       y       z     vdW  Elec       q    Type
                         _______ _______ _______ _____ _____    ______ ____

>  <TORSDO>
F 3

$$$$
=
 OpenBabel11052421443D

 30 34  0  0  1  0  0  0  0  0999 V2000
  160.9480  209.2360  151.6740 C   0  0  0  0  0  0  0  0  0  0  0  0
  160.7720  206.8570  150.7210 C   0  0  0  0  0  0  0  0  0  0  0  0
  161.9520  207.5350  154.1130 C   0  0  1  0  0  3  0  0  0  0  0  0
  160.0880  210.0840  152.6060 C   0  0  2  0  0  3  0  0  0  0  0  0
  161.5800  209.7830  150.6210 C   0  0  0  0  0  3  0  0  0  0  0  0
  161.4760  213.3630  149.7120 N   0  0  0  0  0  0  0  0  0  0  0  0
  161.2540  212.3930  150.6150 C   0  0  0  0  0  0  0  0  0  0  0  0
  162.0810  211.3770  148.8270 N   0  0  0  0  0  2  0  0  0  0  0  0
  161.3300  208.1610  155.3720 C   0  0  2  0  0  3  0  0  0  0  0  0
  161.6160  211.1620  150.0720 C   0  0  0  0  0  0  0  0  0  0  0  0
  160.7290  212.6970  151.9750 C   0  0  0  0  0  2  0  0  0  0  0  0
  161.1310  205.5620  150.6420 C   0  0  0  0  0  3  0  0  0  0  0  0
  162.3780  213.3900  147.3910 C   0  0  0  0  0  1  0  0  0  0  0  0
  160.0190  207.3770  149.7140 F   0  0  0  0  0  0  0  0  0  0  0  0
  161.6680  206.0720  153.7810 C   0  0  2  0  0  3  0  0  0  0  0  0
  161.8990  204.7420  151.6640 C   0  0  0  0  0  2  0  0  0  0  0  0
  161.9740  212.7070  148.6490 C   0  0  0  0  0  0  0  0  0  0  0  0
  161.2150  207.7480  151.8530 C   0  0  2  0  0  3  0  0  0  0  0  0
  159.6450  209.5680  153.9880 C   0  0  0  0  0  2  0  0  0  0  0  0
  160.3400  207.2800  156.1300 C   0  0  0  0  0  1  0  0  0  0  0  0
  160.7380  209.5540  155.0820 C   0  0  2  0  0  3  0  0  0  0  0  0
  158.6740  210.8080  151.7240 S   0  0  0  0  0  0  0  0  0  0  0  0
  162.6480  205.5330  152.7380 C   0  0  0  0  0  2  0  0  0  0  0  0
  160.8060  207.1800  153.1910 C   0  0  2  0  0  3  0  0  0  0  0  0
  159.2120  212.5280  152.0390 C   0  0  0  0  0  2  0  0  0  0  0  0
  161.7910  210.5270  154.8180 N   0  0  0  0  0  2  0  0  0  0  0  0
  162.0470  211.2340  156.0630 C   0  0  1  0  0  3  0  0  0  0  0  0
  160.7550  211.3490  156.8460 C   0  0  0  0  0  1  0  0  0  0  0  0
  163.0660  210.4710  156.8920 C   0  0  0  0  0  2  0  0  0  0  0  0
  164.2290  211.3730  157.2610 C   0  0  0  0  0  1  0  0  0  0  0  0
  1 18  1  0  0  0  0
  1  4  1  0  0  0  0
  2 18  1  0  0  0  0
  3  9  1  0  0  0  0
  4 19  1  0  0  0  0
  5  1  2  0  0  0  0
  6  7  1  0  0  0  0
  7 11  1  0  0  0  0
  8 10  1  0  0  0  0
  9 20  1  0  0  0  0
 10  7  2  0  0  0  0
 10  5  1  0  0  0  0
 11 25  1  0  0  0  0
 12  2  2  0  0  0  0
 12 16  1  0  0  0  0
 13 17  1  0  0  0  0
 14  2  1  0  0  0  0
 15  3  1  0  0  0  0
 16 23  1  0  0  0  0
 17  8  1  0  0  0  0
 17  6  2  0  0  0  0
 18 24  1  0  0  0  0
 19 21  1  0  0  0  0
 21  9  1  0  0  0  0
 22 25  1  0  0  0  0
 22  4  1  0  0  0  0
 23 15  1  0  0  0  0
 24 15  1  0  0  0  0
 24  3  1  0  0  0  0
 26 21  1  0  0  0  0
 26 27  1  0  0  0  0
 27 28  1  0  0  0  0
 27 29  1  0  0  0  0
 29 30  1  0  0  0  0
M  END
>  <MODEL>
3

>  <REMARK>
 VINA RESULT:      -0.4      2.827      6.257
  Name = 
  3 active torsions:
  status: ('A' for Active; 'I' for Inactive)
    1  A    between atoms: C_7  and  N_10
    2  A    between atoms: C_7  and  C_15
    3  A    between atoms: N_10  and  C_25
                            x       y       z     vdW  Elec       q    Type
                         _______ _______ _______ _____ _____    ______ ____

>  <TORSDO>
F 3

$$$$
=
 OpenBabel11052421443D

 30 34  0  0  1  0  0  0  0  0999 V2000
  160.9400  209.3170  152.5530 C   0  0  0  0  0  0  0  0  0  0  0  0
  161.1170  208.9960  155.0960 C   0  0  0  0  0  0  0  0  0  0  0  0
  160.8300  206.1890  152.7740 C   0  0  1  0  0  3  0  0  0  0  0  0
  161.9200  209.2110  151.3880 C   0  0  2  0  0  3  0  0  0  0  0  0
  159.9900  210.2680  152.5800 C   0  0  0  0  0  3  0  0  0  0  0  0
  159.4420  212.7900  149.9340 N   0  0  0  0  0  0  0  0  0  0  0  0
  160.0070  211.6370  150.3340 C   0  0  0  0  0  0  0  0  0  0  0  0
  158.8470  212.3760  152.0710 N   0  0  0  0  0  2  0  0  0  0  0  0
  161.6950  205.6360  151.6290 C   0  0  2  0  0  3  0  0  0  0  0  0
  159.6520  211.3810  151.6570 C   0  0  0  0  0  0  0  0  0  0  0  0
  160.8430  210.8170  149.4140 C   0  0  0  0  0  2  0  0  0  0  0  0
  160.8980  208.3260  156.2430 C   0  0  0  0  0  3  0  0  0  0  0  0
  157.9490  214.4530  151.0310 C   0  0  0  0  0  1  0  0  0  0  0  0
  161.5060  210.2970  155.1770 F   0  0  0  0  0  0  0  0  0  0  0  0
  161.1760  205.8320  154.2180 C   0  0  2  0  0  3  0  0  0  0  0  0
  160.5320  206.8630  156.4150 C   0  0  0  0  0  2  0  0  0  0  0  0
  158.7520  213.2010  151.0130 C   0  0  0  0  0  0  0  0  0  0  0  0
  160.9000  208.3680  153.7430 C   0  0  2  0  0  3  0  0  0  0  0  0
  162.7740  207.9500  151.1650 C   0  0  0  0  0  2  0  0  0  0  0  0
  162.9450  204.8700  152.0540 C   0  0  0  0  0  1  0  0  0  0  0  0
  162.0270  206.7240  150.5900 C   0  0  2  0  0  3  0  0  0  0  0  0
  162.9520  210.7000  151.2560 S   0  0  0  0  0  0  0  0  0  0  0  0
  160.0170  206.1440  155.1650 C   0  0  0  0  0  2  0  0  0  0  0  0
  161.7160  207.1080  153.5850 C   0  0  2  0  0  3  0  0  0  0  0  0
  162.3300  211.1220  149.5880 C   0  0  0  0  0  2  0  0  0  0  0  0
  160.8400  207.1100  149.8370 N   0  0  0  0  0  2  0  0  0  0  0  0
  160.9890  206.5750  148.4920 C   0  0  1  0  0  3  0  0  0  0  0  0
  162.3320  206.9970  147.9340 C   0  0  0  0  0  1  0  0  0  0  0  0
  160.9160  205.0580  148.5270 C   0  0  0  0  0  2  0  0  0  0  0  0
  161.7720  204.4640  147.4240 C   0  0  0  0  0  1  0  0  0  0  0  0
  1  5  2  0  0  0  0
  1 18  1  0  0  0  0
  2 14  1  0  0  0  0
  2 12  2  0  0  0  0
  3 24  1  0  0  0  0
  3 15  1  0  0  0  0
  4  1  1  0  0  0  0
  6  7  1  0  0  0  0
  6 17  2  0  0  0  0
  7 10  2  0  0  0  0
  9 20  1  0  0  0  0
  9  3  1  0  0  0  0
 10  8  1  0  0  0  0
 10  5  1  0  0  0  0
 11 25  1  0  0  0  0
 11  7  1  0  0  0  0
 12 16  1  0  0  0  0
 15 23  1  0  0  0  0
 17 13  1  0  0  0  0
 17  8  1  0  0  0  0
 18  2  1  0  0  0  0
 19  4  1  0  0  0  0
 21 19  1  0  0  0  0
 21  9  1  0  0  0  0
 22  4  1  0  0  0  0
 23 16  1  0  0  0  0
 24 18  1  0  0  0  0
 24 15  1  0  0  0  0
 25 22  1  0  0  0  0
 26 21  1  0  0  0  0
 27 29  1  0  0  0  0
 27 26  1  0  0  0  0
 28 27  1  0  0  0  0
 30 29  1  0  0  0  0
M  END
>  <MODEL>
4

>  <REMARK>
 VINA RESULT:      -0.1      2.959      7.657
  Name = 
  3 active torsions:
  status: ('A' for Active; 'I' for Inactive)
    1  A    between atoms: C_7  and  N_10
    2  A    between atoms: C_7  and  C_15
    3  A    between atoms: N_10  and  C_25
                            x       y       z     vdW  Elec       q    Type
                         _______ _______ _______ _____ _____    ______ ____

>  <TORSDO>
F 3

$$$$
