=
 OpenBabel11052423103D

 27 30  0  0  1  0  0  0  0  0999 V2000
  160.7500  205.4580  148.8800 C   0  0  1  0  0  3  0  0  0  0  0  0
  160.8970  206.3370  150.0950 C   0  0  0  0  0  0  0  0  0  0  0  0
  161.3300  208.9120  153.4820 C   0  0  0  0  0  3  0  0  0  0  0  0
  161.2680  209.2670  155.7780 F   0  0  0  0  0  0  0  0  0  0  0  0
  161.0520  207.7170  149.9160 C   0  0  0  0  0  3  0  0  0  0  0  0
  161.1060  206.0650  153.8820 C   0  0  0  0  0  2  0  0  0  0  0  0
  160.5710  207.0520  154.9270 C   0  0  0  0  0  2  0  0  0  0  0  0
  160.8930  205.8040  151.3930 C   0  0  0  0  0  3  0  0  0  0  0  0
  161.1100  208.4440  154.7140 C   0  0  0  0  0  0  0  0  0  0  0  0
  161.1820  208.0300  152.3130 C   0  0  0  0  0  0  0  0  0  0  0  0
  161.0220  206.6450  152.5000 C   0  0  0  0  0  0  0  0  0  0  0  0
  161.1970  208.5630  151.0210 C   0  0  0  0  0  3  0  0  0  0  0  0
  161.5160  205.9090  147.6090 C   0  0  2  0  0  0  0  0  0  0  0  0
  162.8750  203.9850  147.1340 O   0  0  0  0  0  0  0  0  0  0  0  0
  160.7120  203.5750  145.2340 O   0  0  0  0  0  1  0  0  0  0  0  0
  162.3200  205.0210  144.4690 O   0  0  0  0  0  1  0  0  0  0  0  0
  162.6850  206.8080  147.9930 C   0  0  0  0  0  1  0  0  0  0  0  0
  161.3840  204.7740  145.4730 C   0  0  0  0  0  0  0  0  0  0  0  0
  160.4070  205.9240  145.5920 C   0  0  0  0  0  2  0  0  0  0  0  0
  160.6460  206.6590  146.7830 O   0  0  0  0  0  0  0  0  0  0  0  0
  162.0120  204.7780  146.7870 C   0  0  0  0  0  0  0  0  0  0  0  0
  161.0140  201.2850  149.7830 C   0  0  0  0  0  3  0  0  0  0  0  0
  160.8490  203.9920  149.1910 C   0  0  0  0  0  0  0  0  0  0  0  0
  160.3520  203.0600  148.3290 N   0  0  0  0  0  0  0  0  0  0  0  0
  160.4230  201.7290  148.5990 C   0  0  0  0  0  3  0  0  0  0  0  0
  161.5270  202.2220  150.6800 C   0  0  0  0  0  3  0  0  0  0  0  0
  161.4460  203.5850  150.3860 C   0  0  0  0  0  3  0  0  0  0  0  0
  1 23  1  1  0  0  0
  1  2  1  0  0  0  0
  2  8  1  0  0  0  0
  3  9  2  0  0  0  0
  5  2  2  0  0  0  0
  5 12  1  0  0  0  0
  6  7  1  0  0  0  0
  8 11  2  0  0  0  0
  9  7  1  0  0  0  0
  9  4  1  0  0  0  0
 10 11  1  0  0  0  0
 10  3  1  0  0  0  0
 11  6  1  0  0  0  0
 12 10  2  0  0  0  0
 13 17  1  1  0  0  0
 13  1  1  0  0  0  0
 15 18  1  0  0  0  0
 16 18  1  0  0  0  0
 18 19  1  0  0  0  0
 18 21  1  0  0  0  0
 19 20  1  0  0  0  0
 20 13  1  0  0  0  0
 21 14  2  0  0  0  0
 21 13  1  0  0  0  0
 22 26  1  0  0  0  0
 23 27  1  0  0  0  0
 24 25  1  0  0  0  0
 24 23  2  0  0  0  0
 25 22  2  0  0  0  0
 27 26  2  0  0  0  0
M  END
>  <MODEL>
1

>  <REMARK>
 VINA RESULT:      -9.6      0.000      0.000
  Name = 
  3 active torsions:
  status: ('A' for Active; 'I' for Inactive)
    1  A    between atoms: C_1  and  C_15
    2  A    between atoms: C_2  and  C_15
    3  A    between atoms: C_9  and  C_15
                            x       y       z     vdW  Elec       q    Type
                         _______ _______ _______ _____ _____    ______ ____

>  <TORSDO>
F 3

$$$$
=
 OpenBabel11052423103D

 27 30  0  0  1  0  0  0  0  0999 V2000
  160.7550  205.1840  149.0650 C   0  0  1  0  0  3  0  0  0  0  0  0
  160.8720  205.7700  150.4480 C   0  0  0  0  0  0  0  0  0  0  0  0
  161.2110  207.3350  154.4130 C   0  0  0  0  0  3  0  0  0  0  0  0
  161.3770  209.1360  155.8730 F   0  0  0  0  0  0  0  0  0  0  0  0
  161.1260  204.9110  151.5260 C   0  0  0  0  0  3  0  0  0  0  0  0
  160.5970  209.1170  152.2320 C   0  0  0  0  0  2  0  0  0  0  0  0
  161.3970  209.6050  153.4450 C   0  0  0  0  0  2  0  0  0  0  0  0
  160.7220  207.1450  150.6800 C   0  0  0  0  0  3  0  0  0  0  0  0
  161.2870  208.6550  154.6110 C   0  0  0  0  0  0  0  0  0  0  0  0
  161.0960  206.7910  153.0510 C   0  0  0  0  0  0  0  0  0  0  0  0
  160.8450  207.6590  151.9730 C   0  0  0  0  0  0  0  0  0  0  0  0
  161.2350  205.4190  152.8250 C   0  0  0  0  0  3  0  0  0  0  0  0
  161.5190  205.9260  147.9370 C   0  0  2  0  0  0  0  0  0  0  0  0
  163.0490  204.2380  147.1740 O   0  0  0  0  0  0  0  0  0  0  0  0
  160.9870  204.0320  145.1330 O   0  0  0  0  0  1  0  0  0  0  0  0
  162.4900  205.7170  144.7270 O   0  0  0  0  0  1  0  0  0  0  0  0
  162.5960  206.8220  148.5360 C   0  0  0  0  0  1  0  0  0  0  0  0
  161.5480  205.2120  145.6220 C   0  0  0  0  0  0  0  0  0  0  0  0
  160.4750  206.2400  145.9100 C   0  0  0  0  0  2  0  0  0  0  0  0
  160.6150  206.7510  147.2270 O   0  0  0  0  0  0  0  0  0  0  0  0
  162.1330  205.0140  146.9420 C   0  0  0  0  0  0  0  0  0  0  0  0
  161.1090  200.9220  149.0070 C   0  0  0  0  0  3  0  0  0  0  0  0
  160.8860  203.6880  149.0390 C   0  0  0  0  0  0  0  0  0  0  0  0
  160.4920  202.9710  147.9490 N   0  0  0  0  0  0  0  0  0  0  0  0
  160.5930  201.6160  147.9110 C   0  0  0  0  0  3  0  0  0  0  0  0
  161.5160  201.6360  150.1340 C   0  0  0  0  0  3  0  0  0  0  0  0
  161.4060  203.0280  150.1540 C   0  0  0  0  0  3  0  0  0  0  0  0
  1 23  1  1  0  0  0
  1  2  1  0  0  0  0
  2  8  2  0  0  0  0
  2  5  1  0  0  0  0
  3  9  2  0  0  0  0
  5 12  2  0  0  0  0
  6  7  1  0  0  0  0
  7  9  1  0  0  0  0
  8 11  1  0  0  0  0
  9  4  1  0  0  0  0
 10  3  1  0  0  0  0
 11  6  1  0  0  0  0
 11 10  2  0  0  0  0
 12 10  1  0  0  0  0
 13 17  1  1  0  0  0
 13  1  1  0  0  0  0
 15 18  1  0  0  0  0
 16 18  1  0  0  0  0
 18 19  1  0  0  0  0
 18 21  1  0  0  0  0
 19 20  1  0  0  0  0
 20 13  1  0  0  0  0
 21 14  2  0  0  0  0
 21 13  1  0  0  0  0
 22 26  1  0  0  0  0
 23 27  1  0  0  0  0
 24 23  2  0  0  0  0
 25 24  1  0  0  0  0
 25 22  2  0  0  0  0
 26 27  2  0  0  0  0
M  END
>  <MODEL>
2

>  <REMARK>
 VINA RESULT:      -9.6      0.670      1.488
  Name = 
  3 active torsions:
  status: ('A' for Active; 'I' for Inactive)
    1  A    between atoms: C_1  and  C_15
    2  A    between atoms: C_2  and  C_15
    3  A    between atoms: C_9  and  C_15
                            x       y       z     vdW  Elec       q    Type
                         _______ _______ _______ _____ _____    ______ ____

>  <TORSDO>
F 3

$$$$
=
 OpenBabel11052423103D

 27 30  0  0  1  0  0  0  0  0999 V2000
  161.7810  208.4180  153.5560 C   0  0  1  0  0  3  0  0  0  0  0  0
  161.5380  207.4560  152.4230 C   0  0  0  0  0  0  0  0  0  0  0  0
  160.8450  204.8040  149.1400 C   0  0  0  0  0  3  0  0  0  0  0  0
  160.6380  202.6540  148.2810 F   0  0  0  0  0  0  0  0  0  0  0  0
  161.4960  207.9510  151.1130 C   0  0  0  0  0  3  0  0  0  0  0  0
  160.8320  203.7660  151.8300 C   0  0  0  0  0  2  0  0  0  0  0  0
  161.2920  202.8980  150.6530 C   0  0  0  0  0  2  0  0  0  0  0  0
  161.3430  206.0850  152.6500 C   0  0  0  0  0  3  0  0  0  0  0  0
  160.8760  203.4810  149.3260 C   0  0  0  0  0  0  0  0  0  0  0  0
  161.0840  205.7210  150.2660 C   0  0  0  0  0  0  0  0  0  0  0  0
  161.1280  205.2170  151.5780 C   0  0  0  0  0  0  0  0  0  0  0  0
  161.2670  207.0870  150.0370 C   0  0  0  0  0  3  0  0  0  0  0  0
  161.5900  209.9230  153.2330 C   0  0  2  0  0  0  0  0  0  0  0  0
  159.3360  209.9750  152.4040 O   0  0  0  0  0  0  0  0  0  0  0  0
  158.9070  210.8880  155.1320 O   0  0  0  0  0  1  0  0  0  0  0  0
  159.5710  212.5660  153.7160 O   0  0  0  0  0  1  0  0  0  0  0  0
  162.2340  210.2560  151.8940 C   0  0  0  0  0  1  0  0  0  0  0  0
  159.9060  211.3270  154.2630 C   0  0  0  0  0  0  0  0  0  0  0  0
  161.2430  211.3950  154.9690 C   0  0  0  0  0  2  0  0  0  0  0  0
  162.2330  210.6970  154.2280 O   0  0  0  0  0  0  0  0  0  0  0  0
  160.1690  210.3470  153.2170 C   0  0  0  0  0  0  0  0  0  0  0  0
  160.0670  207.1160  157.2530 C   0  0  0  0  0  3  0  0  0  0  0  0
  161.1780  207.9690  154.8570 C   0  0  0  0  0  0  0  0  0  0  0  0
  161.8550  208.1210  156.0300 N   0  0  0  0  0  0  0  0  0  0  0  0
  161.3300  207.7110  157.2160 C   0  0  0  0  0  3  0  0  0  0  0  0
  159.3580  206.9490  156.0640 C   0  0  0  0  0  3  0  0  0  0  0  0
  159.9130  207.3770  154.8560 C   0  0  0  0  0  3  0  0  0  0  0  0
  1  2  1  6  0  0  0
  1 23  1  0  0  0  0
  2  8  1  0  0  0  0
  3  9  2  0  0  0  0
  3 10  1  0  0  0  0
  4  9  1  0  0  0  0
  5  2  2  0  0  0  0
  7  6  1  0  0  0  0
  9  7  1  0  0  0  0
 10 11  1  0  0  0  0
 11  6  1  0  0  0  0
 11  8  2  0  0  0  0
 12 10  2  0  0  0  0
 12  5  1  0  0  0  0
 13 17  1  6  0  0  0
 13  1  1  0  0  0  0
 13 20  1  0  0  0  0
 14 21  2  0  0  0  0
 16 18  1  0  0  0  0
 18 19  1  0  0  0  0
 18 15  1  0  0  0  0
 20 19  1  0  0  0  0
 21 13  1  0  0  0  0
 21 18  1  0  0  0  0
 23 24  1  0  0  0  0
 24 25  2  0  0  0  0
 25 22  1  0  0  0  0
 26 22  2  0  0  0  0
 27 23  2  0  0  0  0
 27 26  1  0  0  0  0
M  END
>  <MODEL>
3

>  <REMARK>
 VINA RESULT:      -9.4      4.547      7.625
  Name = 
  3 active torsions:
  status: ('A' for Active; 'I' for Inactive)
    1  A    between atoms: C_1  and  C_15
    2  A    between atoms: C_2  and  C_15
    3  A    between atoms: C_9  and  C_15
                            x       y       z     vdW  Elec       q    Type
                         _______ _______ _______ _____ _____    ______ ____

>  <TORSDO>
F 3

$$$$
=
 OpenBabel11052423103D

 27 30  0  0  1  0  0  0  0  0999 V2000
  160.8580  204.6450  148.2730 C   0  0  1  0  0  3  0  0  0  0  0  0
  161.0010  205.6450  149.3900 C   0  0  0  0  0  0  0  0  0  0  0  0
  161.4190  208.5610  152.4910 C   0  0  0  0  0  3  0  0  0  0  0  0
  161.4290  209.1360  154.7430 F   0  0  0  0  0  0  0  0  0  0  0  0
  161.0670  207.0080  149.0730 C   0  0  0  0  0  3  0  0  0  0  0  0
  161.3810  205.7600  153.1730 C   0  0  0  0  0  2  0  0  0  0  0  0
  160.8310  206.8130  154.1420 C   0  0  0  0  0  2  0  0  0  0  0  0
  161.0820  205.2430  150.7320 C   0  0  0  0  0  3  0  0  0  0  0  0
  161.2770  208.2050  153.7720 C   0  0  0  0  0  0  0  0  0  0  0  0
  161.2750  207.5620  151.4200 C   0  0  0  0  0  0  0  0  0  0  0  0
  161.2060  206.1950  151.7460 C   0  0  0  0  0  0  0  0  0  0  0  0
  161.2060  207.9650  150.0840 C   0  0  0  0  0  3  0  0  0  0  0  0
  161.6160  204.9680  146.9600 C   0  0  2  0  0  0  0  0  0  0  0  0
  161.2060  202.9970  145.6470 O   0  0  0  0  0  0  0  0  0  0  0  0
  159.2260  204.8000  144.5110 O   0  0  0  0  0  1  0  0  0  0  0  0
  161.3190  205.0810  143.6140 O   0  0  0  0  0  1  0  0  0  0  0  0
  163.1060  204.7040  147.1360 C   0  0  0  0  0  1  0  0  0  0  0  0
  160.5590  205.1060  144.7840 C   0  0  0  0  0  0  0  0  0  0  0  0
  160.6740  206.4490  145.4710 C   0  0  0  0  0  2  0  0  0  0  0  0
  161.4520  206.3390  146.6530 O   0  0  0  0  0  0  0  0  0  0  0  0
  161.1150  204.2080  145.7880 C   0  0  0  0  0  0  0  0  0  0  0  0
  161.1500  200.5850  149.5900 C   0  0  0  0  0  3  0  0  0  0  0  0
  160.9690  203.2190  148.7340 C   0  0  0  0  0  0  0  0  0  0  0  0
  161.1880  202.2120  147.8420 N   0  0  0  0  0  0  0  0  0  0  0  0
  161.2810  200.9150  148.2390 C   0  0  0  0  0  3  0  0  0  0  0  0
  160.9230  201.6000  150.5190 C   0  0  0  0  0  3  0  0  0  0  0  0
  160.8310  202.9270  150.0930 C   0  0  0  0  0  3  0  0  0  0  0  0
  1 23  1  1  0  0  0
  1  2  1  0  0  0  0
  2  8  1  0  0  0  0
  3  9  2  0  0  0  0
  5  2  2  0  0  0  0
  5 12  1  0  0  0  0
  6  7  1  0  0  0  0
  8 11  2  0  0  0  0
  9  7  1  0  0  0  0
  9  4  1  0  0  0  0
 10 11  1  0  0  0  0
 10  3  1  0  0  0  0
 11  6  1  0  0  0  0
 12 10  2  0  0  0  0
 13 17  1  1  0  0  0
 13  1  1  0  0  0  0
 14 21  2  0  0  0  0
 15 18  1  0  0  0  0
 16 18  1  0  0  0  0
 18 19  1  0  0  0  0
 18 21  1  0  0  0  0
 19 20  1  0  0  0  0
 20 13  1  0  0  0  0
 21 13  1  0  0  0  0
 22 26  1  0  0  0  0
 23 27  1  0  0  0  0
 24 25  1  0  0  0  0
 24 23  2  0  0  0  0
 25 22  2  0  0  0  0
 27 26  2  0  0  0  0
M  END
>  <MODEL>
4

>  <REMARK>
 VINA RESULT:      -9.2      1.053      1.233
  Name = 
  3 active torsions:
  status: ('A' for Active; 'I' for Inactive)
    1  A    between atoms: C_1  and  C_15
    2  A    between atoms: C_2  and  C_15
    3  A    between atoms: C_9  and  C_15
                            x       y       z     vdW  Elec       q    Type
                         _______ _______ _______ _____ _____    ______ ____

>  <TORSDO>
F 3

$$$$
=
 OpenBabel11052423103D

 27 30  0  0  1  0  0  0  0  0999 V2000
  160.7510  204.3930  148.0450 C   0  0  1  0  0  3  0  0  0  0  0  0
  160.8860  204.8320  149.4800 C   0  0  0  0  0  0  0  0  0  0  0  0
  161.2650  205.9800  153.5820 C   0  0  0  0  0  3  0  0  0  0  0  0
  161.5390  207.6150  155.2110 F   0  0  0  0  0  0  0  0  0  0  0  0
  161.0510  203.8580  150.4730 C   0  0  0  0  0  3  0  0  0  0  0  0
  160.8310  208.0050  151.5760 C   0  0  0  0  0  2  0  0  0  0  0  0
  161.6430  208.3110  152.8410 C   0  0  0  0  0  2  0  0  0  0  0  0
  160.8360  206.1870  149.8420 C   0  0  0  0  0  3  0  0  0  0  0  0
  161.4370  207.2650  153.9070 C   0  0  0  0  0  0  0  0  0  0  0  0
  161.1350  205.5800  152.1720 C   0  0  0  0  0  0  0  0  0  0  0  0
  160.9720  206.5630  151.1800 C   0  0  0  0  0  0  0  0  0  0  0  0
  161.1730  204.2290  151.8160 C   0  0  0  0  0  3  0  0  0  0  0  0
  161.4070  205.3110  146.9810 C   0  0  2  0  0  0  0  0  0  0  0  0
  162.5370  203.7220  145.5770 O   0  0  0  0  0  0  0  0  0  0  0  0
  160.1490  204.2120  143.9900 O   0  0  0  0  0  1  0  0  0  0  0  0
  161.7790  205.7950  143.6760 O   0  0  0  0  0  1  0  0  0  0  0  0
  162.6830  205.9300  147.5370 C   0  0  0  0  0  1  0  0  0  0  0  0
  160.9420  205.1790  144.6070 C   0  0  0  0  0  0  0  0  0  0  0  0
  160.0860  206.2030  145.3200 C   0  0  0  0  0  2  0  0  0  0  0  0
  160.5170  206.3640  146.6630 O   0  0  0  0  0  0  0  0  0  0  0  0
  161.7110  204.6130  145.7070 C   0  0  0  0  0  0  0  0  0  0  0  0
  161.4190  200.2030  147.5000 C   0  0  0  0  0  3  0  0  0  0  0  0
  160.9920  202.9240  147.8480 C   0  0  0  0  0  0  0  0  0  0  0  0
  160.6300  202.3060  146.6880 N   0  0  0  0  0  0  0  0  0  0  0  0
  160.8310  200.9750  146.4960 C   0  0  0  0  0  3  0  0  0  0  0  0
  161.7940  200.8150  148.6960 C   0  0  0  0  0  3  0  0  0  0  0  0
  161.5810  202.1830  148.8750 C   0  0  0  0  0  3  0  0  0  0  0  0
  1 23  1  1  0  0  0
  1  2  1  0  0  0  0
  2  8  2  0  0  0  0
  2  5  1  0  0  0  0
  3  9  2  0  0  0  0
  5 12  2  0  0  0  0
  6  7  1  0  0  0  0
  7  9  1  0  0  0  0
  8 11  1  0  0  0  0
  9  4  1  0  0  0  0
 10  3  1  0  0  0  0
 11  6  1  0  0  0  0
 11 10  2  0  0  0  0
 12 10  1  0  0  0  0
 13 17  1  1  0  0  0
 13  1  1  0  0  0  0
 14 21  2  0  0  0  0
 15 18  1  0  0  0  0
 16 18  1  0  0  0  0
 18 19  1  0  0  0  0
 18 21  1  0  0  0  0
 19 20  1  0  0  0  0
 20 13  1  0  0  0  0
 21 13  1  0  0  0  0
 22 26  1  0  0  0  0
 23 27  1  0  0  0  0
 24 23  2  0  0  0  0
 25 24  1  0  0  0  0
 25 22  2  0  0  0  0
 26 27  2  0  0  0  0
M  END
>  <MODEL>
5

>  <REMARK>
 VINA RESULT:      -9.1      1.235      2.097
  Name = 
  3 active torsions:
  status: ('A' for Active; 'I' for Inactive)
    1  A    between atoms: C_1  and  C_15
    2  A    between atoms: C_2  and  C_15
    3  A    between atoms: C_9  and  C_15
                            x       y       z     vdW  Elec       q    Type
                         _______ _______ _______ _____ _____    ______ ____

>  <TORSDO>
F 3

$$$$
=
 OpenBabel11052423103D

 27 30  0  0  1  0  0  0  0  0999 V2000
  160.8730  210.1890  153.7450 C   0  0  1  0  0  3  0  0  0  0  0  0
  160.9280  208.8650  153.0280 C   0  0  0  0  0  0  0  0  0  0  0  0
  161.0910  205.0580  151.0860 C   0  0  0  0  0  3  0  0  0  0  0  0
  161.0130  203.7630  149.1580 F   0  0  0  0  0  0  0  0  0  0  0  0
  160.9160  207.6860  153.7850 C   0  0  0  0  0  3  0  0  0  0  0  0
  161.2120  207.4650  149.5040 C   0  0  0  0  0  2  0  0  0  0  0  0
  160.5750  206.1870  148.9450 C   0  0  0  0  0  2  0  0  0  0  0  0
  161.0020  208.7880  151.6290 C   0  0  0  0  0  3  0  0  0  0  0  0
  160.9420  204.9730  149.7600 C   0  0  0  0  0  0  0  0  0  0  0  0
  161.0350  206.3650  151.7590 C   0  0  0  0  0  0  0  0  0  0  0  0
  161.0430  207.5450  150.9940 C   0  0  0  0  0  0  0  0  0  0  0  0
  160.9720  206.4390  153.1540 C   0  0  0  0  0  3  0  0  0  0  0  0
  159.4690  210.8290  153.9000 C   0  0  2  0  0  0  0  0  0  0  0  0
  159.9570  212.8010  155.1830 O   0  0  0  0  0  0  0  0  0  0  0  0
  159.7760  213.9480  152.5170 O   0  0  0  0  0  1  0  0  0  0  0  0
  157.7310  213.6810  153.5220 O   0  0  0  0  0  1  0  0  0  0  0  0
  158.6960  210.1320  155.0130 C   0  0  0  0  0  1  0  0  0  0  0  0
  158.8870  213.0350  153.0830 C   0  0  0  0  0  0  0  0  0  0  0  0
  158.5480  211.9330  152.1030 C   0  0  0  0  0  2  0  0  0  0  0  0
  158.7440  210.6590  152.6970 O   0  0  0  0  0  0  0  0  0  0  0  0
  159.5120  212.2880  154.1670 C   0  0  0  0  0  0  0  0  0  0  0  0
  163.3040  210.3410  157.2610 C   0  0  0  0  0  3  0  0  0  0  0  0
  161.7290  210.2340  154.9790 C   0  0  0  0  0  0  0  0  0  0  0  0
  161.3270  209.6240  156.1300 N   0  0  0  0  0  0  0  0  0  0  0  0
  162.0840  209.6630  157.2590 C   0  0  0  0  0  3  0  0  0  0  0  0
  163.7330  210.9730  156.0940 C   0  0  0  0  0  3  0  0  0  0  0  0
  162.9440  210.9220  154.9440 C   0  0  0  0  0  3  0  0  0  0  0  0
  1  2  1  1  0  0  0
  1 13  1  0  0  0  0
  1 23  1  0  0  0  0
  2  5  1  0  0  0  0
  3 10  1  0  0  0  0
  4  9  1  0  0  0  0
  6 11  1  0  0  0  0
  7  6  1  0  0  0  0
  7  9  1  0  0  0  0
  8  2  2  0  0  0  0
  9  3  2  0  0  0  0
 10 12  1  0  0  0  0
 11  8  1  0  0  0  0
 11 10  2  0  0  0  0
 12  5  2  0  0  0  0
 13 21  1  0  0  0  0
 13 17  1  1  0  0  0
 15 18  1  0  0  0  0
 18 16  1  0  0  0  0
 18 21  1  0  0  0  0
 19 20  1  0  0  0  0
 19 18  1  0  0  0  0
 20 13  1  0  0  0  0
 21 14  2  0  0  0  0
 23 24  1  0  0  0  0
 24 25  2  0  0  0  0
 25 22  1  0  0  0  0
 26 22  2  0  0  0  0
 27 23  2  0  0  0  0
 27 26  1  0  0  0  0
M  END
>  <MODEL>
6

>  <REMARK>
 VINA RESULT:      -8.7      4.966      8.520
  Name = 
  3 active torsions:
  status: ('A' for Active; 'I' for Inactive)
    1  A    between atoms: C_1  and  C_15
    2  A    between atoms: C_2  and  C_15
    3  A    between atoms: C_9  and  C_15
                            x       y       z     vdW  Elec       q    Type
                         _______ _______ _______ _____ _____    ______ ____

>  <TORSDO>
F 3

$$$$
=
 OpenBabel11052423103D

 27 30  0  0  1  0  0  0  0  0999 V2000
  160.2380  209.4600  152.9240 C   0  0  1  0  0  3  0  0  0  0  0  0
  160.8170  208.8680  151.6650 C   0  0  0  0  0  0  0  0  0  0  0  0
  162.5040  207.2770  148.0720 C   0  0  0  0  0  3  0  0  0  0  0  0
  162.8610  205.5020  146.6140 F   0  0  0  0  0  0  0  0  0  0  0  0
  161.7280  209.6260  150.9180 C   0  0  0  0  0  3  0  0  0  0  0  0
  160.5610  205.7280  149.5340 C   0  0  0  0  0  2  0  0  0  0  0  0
  161.6740  205.0410  148.7340 C   0  0  0  0  0  2  0  0  0  0  0  0
  160.4550  207.5870  151.2210 C   0  0  0  0  0  3  0  0  0  0  0  0
  162.3350  205.9870  147.7630 C   0  0  0  0  0  0  0  0  0  0  0  0
  161.9260  207.8290  149.3080 C   0  0  0  0  0  0  0  0  0  0  0  0
  161.0150  207.0620  150.0550 C   0  0  0  0  0  0  0  0  0  0  0  0
  162.2800  209.1100  149.7410 C   0  0  0  0  0  3  0  0  0  0  0  0
  161.0600  209.2510  154.2220 C   0  0  2  0  0  0  0  0  0  0  0  0
  159.4890  209.9060  155.9190 O   0  0  0  0  0  0  0  0  0  0  0  0
  159.2290  207.0120  156.0590 O   0  0  0  0  0  1  0  0  0  0  0  0
  161.0110  207.8140  157.2610 O   0  0  0  0  0  1  0  0  0  0  0  0
  161.9980  210.4300  154.4450 C   0  0  0  0  0  1  0  0  0  0  0  0
  160.4230  207.7310  155.9980 C   0  0  0  0  0  0  0  0  0  0  0  0
  161.3760  207.1080  155.0020 C   0  0  0  0  0  2  0  0  0  0  0  0
  161.8520  208.0860  154.0890 O   0  0  0  0  0  0  0  0  0  0  0  0
  160.2170  209.0560  155.4280 C   0  0  0  0  0  0  0  0  0  0  0  0
  158.7030  213.4190  152.4080 C   0  0  0  0  0  3  0  0  0  0  0  0
  159.6980  210.8490  152.7340 C   0  0  0  0  0  0  0  0  0  0  0  0
  160.3890  211.7750  152.0130 N   0  0  0  0  0  0  0  0  0  0  0  0
  159.9200  213.0400  151.8390 C   0  0  0  0  0  3  0  0  0  0  0  0
  157.9800  212.4870  153.1520 C   0  0  0  0  0  3  0  0  0  0  0  0
  158.4770  211.1930  153.3190 C   0  0  0  0  0  3  0  0  0  0  0  0
  1  2  1  6  0  0  0
  1 13  1  0  0  0  0
  3 10  1  0  0  0  0
  4  9  1  0  0  0  0
  5  2  2  0  0  0  0
  6 11  1  0  0  0  0
  7  6  1  0  0  0  0
  8  2  1  0  0  0  0
  9  3  2  0  0  0  0
  9  7  1  0  0  0  0
 10 12  2  0  0  0  0
 10 11  1  0  0  0  0
 11  8  2  0  0  0  0
 12  5  1  0  0  0  0
 13 17  1  1  0  0  0
 13 21  1  0  0  0  0
 18 15  1  0  0  0  0
 18 16  1  0  0  0  0
 19 18  1  0  0  0  0
 20 13  1  0  0  0  0
 20 19  1  0  0  0  0
 21 14  2  0  0  0  0
 21 18  1  0  0  0  0
 22 26  1  0  0  0  0
 23  1  1  0  0  0  0
 23 27  1  0  0  0  0
 24 23  2  0  0  0  0
 25 24  1  0  0  0  0
 25 22  2  0  0  0  0
 26 27  2  0  0  0  0
M  END
>  <MODEL>
7

>  <REMARK>
 VINA RESULT:      -8.5      4.935      8.327
  Name = 
  3 active torsions:
  status: ('A' for Active; 'I' for Inactive)
    1  A    between atoms: C_1  and  C_15
    2  A    between atoms: C_2  and  C_15
    3  A    between atoms: C_9  and  C_15
                            x       y       z     vdW  Elec       q    Type
                         _______ _______ _______ _____ _____    ______ ____

>  <TORSDO>
F 3

$$$$
=
 OpenBabel11052423103D

 27 30  0  0  1  0  0  0  0  0999 V2000
  160.5800  210.3180  154.0940 C   0  0  1  0  0  3  0  0  0  0  0  0
  160.9880  209.7820  152.7470 C   0  0  0  0  0  0  0  0  0  0  0  0
  162.1770  208.3560  148.8940 C   0  0  0  0  0  3  0  0  0  0  0  0
  162.4580  206.6200  147.3750 F   0  0  0  0  0  0  0  0  0  0  0  0
  161.6680  210.6280  151.8600 C   0  0  0  0  0  3  0  0  0  0  0  0
  160.6960  206.6190  150.6560 C   0  0  0  0  0  2  0  0  0  0  0  0
  161.7180  206.0490  149.6640 C   0  0  0  0  0  2  0  0  0  0  0  0
  160.6920  208.4670  152.3580 C   0  0  0  0  0  3  0  0  0  0  0  0
  162.0940  207.0540  148.6040 C   0  0  0  0  0  0  0  0  0  0  0  0
  161.7700  208.8520  150.2190 C   0  0  0  0  0  0  0  0  0  0  0  0
  161.0900  207.9970  151.1050 C   0  0  0  0  0  0  0  0  0  0  0  0
  162.0560  210.1660  150.5980 C   0  0  0  0  0  3  0  0  0  0  0  0
  159.2410  211.0990  154.1470 C   0  0  2  0  0  0  0  0  0  0  0  0
  159.9190  213.1870  155.1240 O   0  0  0  0  0  0  0  0  0  0  0  0
  159.8170  213.9360  152.3160 O   0  0  0  0  0  1  0  0  0  0  0  0
  157.7670  214.0100  153.3420 O   0  0  0  0  0  1  0  0  0  0  0  0
  158.4190  210.6490  155.3480 C   0  0  0  0  0  1  0  0  0  0  0  0
  158.8550  213.2030  153.0090 C   0  0  0  0  0  0  0  0  0  0  0  0
  158.4070  212.0030  152.2020 C   0  0  0  0  0  2  0  0  0  0  0  0
  158.4930  210.8190  152.9800 O   0  0  0  0  0  0  0  0  0  0  0  0
  159.4200  212.5710  154.1940 C   0  0  0  0  0  0  0  0  0  0  0  0
  161.1690  207.5020  157.2600 C   0  0  0  0  0  3  0  0  0  0  0  0
  160.7830  209.3340  155.2120 C   0  0  0  0  0  0  0  0  0  0  0  0
  161.6890  209.5770  156.2000 N   0  0  0  0  0  0  0  0  0  0  0  0
  161.8940  208.6940  157.2140 C   0  0  0  0  0  3  0  0  0  0  0  0
  160.2370  207.2320  156.2570 C   0  0  0  0  0  3  0  0  0  0  0  0
  160.0400  208.1510  155.2250 C   0  0  0  0  0  3  0  0  0  0  0  0
  1  2  1  6  0  0  0
  1 13  1  0  0  0  0
  1 23  1  0  0  0  0
  3 10  1  0  0  0  0
  4  9  1  0  0  0  0
  5  2  2  0  0  0  0
  6 11  1  0  0  0  0
  7  6  1  0  0  0  0
  8  2  1  0  0  0  0
  9  3  2  0  0  0  0
  9  7  1  0  0  0  0
 10 12  2  0  0  0  0
 10 11  1  0  0  0  0
 11  8  2  0  0  0  0
 12  5  1  0  0  0  0
 13 21  1  0  0  0  0
 13 17  1  1  0  0  0
 15 18  1  0  0  0  0
 18 16  1  0  0  0  0
 18 21  1  0  0  0  0
 19 20  1  0  0  0  0
 19 18  1  0  0  0  0
 20 13  1  0  0  0  0
 21 14  2  0  0  0  0
 23 27  2  0  0  0  0
 23 24  1  0  0  0  0
 24 25  2  0  0  0  0
 25 22  1  0  0  0  0
 26 22  2  0  0  0  0
 27 26  1  0  0  0  0
M  END
>  <MODEL>
8

>  <REMARK>
 VINA RESULT:      -8.4      5.155      8.254
  Name = 
  3 active torsions:
  status: ('A' for Active; 'I' for Inactive)
    1  A    between atoms: C_1  and  C_15
    2  A    between atoms: C_2  and  C_15
    3  A    between atoms: C_9  and  C_15
                            x       y       z     vdW  Elec       q    Type
                         _______ _______ _______ _____ _____    ______ ____

>  <TORSDO>
F 3

$$$$
=
 OpenBabel11052423103D

 27 30  0  0  1  0  0  0  0  0999 V2000
  161.1070  210.2440  153.6790 C   0  0  1  0  0  3  0  0  0  0  0  0
  161.0590  208.9130  152.9740 C   0  0  0  0  0  0  0  0  0  0  0  0
  160.9190  205.0880  151.0670 C   0  0  0  0  0  3  0  0  0  0  0  0
  160.8130  203.7860  149.1450 F   0  0  0  0  0  0  0  0  0  0  0  0
  160.8740  207.7520  153.7350 C   0  0  0  0  0  3  0  0  0  0  0  0
  161.3950  207.4490  149.4810 C   0  0  0  0  0  2  0  0  0  0  0  0
  160.6560  206.2410  148.8920 C   0  0  0  0  0  2  0  0  0  0  0  0
  161.2060  208.8120  151.5820 C   0  0  0  0  0  3  0  0  0  0  0  0
  160.8400  205.0040  149.7350 C   0  0  0  0  0  0  0  0  0  0  0  0
  160.9660  206.4020  151.7280 C   0  0  0  0  0  0  0  0  0  0  0  0
  161.1490  207.5640  150.9580 C   0  0  0  0  0  0  0  0  0  0  0  0
  160.8300  206.4990  153.1160 C   0  0  0  0  0  3  0  0  0  0  0  0
  159.7650  211.0130  153.7870 C   0  0  2  0  0  0  0  0  0  0  0  0
  158.5310  209.6520  155.3350 O   0  0  0  0  0  0  0  0  0  0  0  0
  159.4550  211.7570  157.1170 O   0  0  0  0  0  1  0  0  0  0  0  0
  157.5600  212.3270  155.9570 O   0  0  0  0  0  1  0  0  0  0  0  0
  158.8790  210.6930  152.5900 C   0  0  0  0  0  1  0  0  0  0  0  0
  158.8940  211.9340  155.8520 C   0  0  0  0  0  0  0  0  0  0  0  0
  159.6890  212.9390  155.0470 C   0  0  0  0  0  2  0  0  0  0  0  0
  160.0230  212.4040  153.7750 O   0  0  0  0  0  0  0  0  0  0  0  0
  159.0230  210.7310  155.0410 C   0  0  0  0  0  0  0  0  0  0  0  0
  163.4520  210.1590  157.2550 C   0  0  0  0  0  3  0  0  0  0  0  0
  161.9270  210.2220  154.9370 C   0  0  0  0  0  0  0  0  0  0  0  0
  162.9640  211.0890  155.1110 N   0  0  0  0  0  0  0  0  0  0  0  0
  163.7230  211.0770  156.2390 C   0  0  0  0  0  3  0  0  0  0  0  0
  162.3960  209.2600  157.0970 C   0  0  0  0  0  3  0  0  0  0  0  0
  161.6270  209.2890  155.9320 C   0  0  0  0  0  3  0  0  0  0  0  0
  1  2  1  1  0  0  0
  1 13  1  0  0  0  0
  1 23  1  0  0  0  0
  2  5  1  0  0  0  0
  3 10  1  0  0  0  0
  4  9  1  0  0  0  0
  6 11  1  0  0  0  0
  7  6  1  0  0  0  0
  7  9  1  0  0  0  0
  8  2  2  0  0  0  0
  9  3  2  0  0  0  0
 10 12  1  0  0  0  0
 11  8  1  0  0  0  0
 11 10  2  0  0  0  0
 12  5  2  0  0  0  0
 13 17  1  6  0  0  0
 13 21  1  0  0  0  0
 18 16  1  0  0  0  0
 18 15  1  0  0  0  0
 19 18  1  0  0  0  0
 20 13  1  0  0  0  0
 20 19  1  0  0  0  0
 21 14  2  0  0  0  0
 21 18  1  0  0  0  0
 23 24  2  0  0  0  0
 23 27  1  0  0  0  0
 24 25  1  0  0  0  0
 25 22  2  0  0  0  0
 26 22  1  0  0  0  0
 27 26  2  0  0  0  0
M  END
>  <MODEL>
9

>  <REMARK>
 VINA RESULT:      -8.4      5.345      8.788
  Name = 
  3 active torsions:
  status: ('A' for Active; 'I' for Inactive)
    1  A    between atoms: C_1  and  C_15
    2  A    between atoms: C_2  and  C_15
    3  A    between atoms: C_9  and  C_15
                            x       y       z     vdW  Elec       q    Type
                         _______ _______ _______ _____ _____    ______ ____

>  <TORSDO>
F 3

$$$$
