=
 OpenBabel11052423123D

 27 31  0  0  1  0  0  0  0  0999 V2000
  161.5570  207.5590  154.0400 C   0  0  0  0  0  2  0  0  0  0  0  0
  161.0500  208.7560  151.8500 C   0  0  0  0  0  0  0  0  0  0  0  0
  159.8270  210.2330  153.4610 N   0  0  0  0  0  2  0  0  0  0  0  0
  161.6740  212.0330  149.3160 C   0  0  0  0  0  3  0  0  0  0  0  0
  161.3770  214.4400  148.7220 C   0  0  0  0  0  1  0  0  0  0  0  0
  161.7940  208.6560  150.6630 C   0  0  0  0  0  3  0  0  0  0  0  0
  160.1970  212.3830  151.6680 C   0  0  0  0  0  3  0  0  0  0  0  0
  159.6740  211.1710  156.3020 C   0  0  0  0  0  2  0  0  0  0  0  0
  160.4120  213.4640  150.8080 C   0  0  0  0  0  3  0  0  0  0  0  0
  161.0210  210.9110  156.7920 N   0  0  0  0  0  2  0  0  0  0  0  0
  160.7140  211.1160  151.3580 C   0  0  0  0  0  0  0  0  0  0  0  0
  160.8130  207.5250  152.7010 C   0  0  1  0  0  3  0  0  0  0  0  0
  161.1490  213.2890  149.6330 C   0  0  0  0  0  0  0  0  0  0  0  0
  161.4610  210.9480  150.1700 C   0  0  0  0  0  0  0  0  0  0  0  0
  161.1410  208.7210  154.9470 C   0  0  1  0  0  3  0  0  0  0  0  0
  160.5170  210.0190  152.2140 C   0  0  0  0  0  0  0  0  0  0  0  0
  159.0300  209.8890  155.7790 C   0  0  0  0  0  2  0  0  0  0  0  0
  161.9830  209.7350  149.8620 N   0  0  0  0  0  0  0  0  0  0  0  0
  161.9110  211.0870  155.6570 C   0  0  0  0  0  2  0  0  0  0  0  0
  162.2850  209.7440  155.0290 C   0  0  0  0  0  2  0  0  0  0  0  0
  159.7570  209.2890  154.5740 C   0  0  1  0  0  3  0  0  0  0  0  0
  161.2710  203.7360  150.7120 C   0  0  0  0  0  3  0  0  0  0  0  0
  160.9850  206.2130  151.9900 C   0  0  0  0  0  0  0  0  0  0  0  0
  161.2530  205.0620  152.7380 C   0  0  0  0  0  3  0  0  0  0  0  0
  161.3990  203.8260  152.1000 C   0  0  0  0  0  3  0  0  0  0  0  0
  160.9980  204.8820  149.9590 C   0  0  0  0  0  3  0  0  0  0  0  0
  160.8520  206.1170  150.5950 C   0  0  0  0  0  3  0  0  0  0  0  0
  2 16  1  0  0  0  0
  2 12  1  0  0  0  0
  3 21  1  0  0  0  0
  4 13  2  0  0  0  0
  4 14  1  0  0  0  0
  5 13  1  0  0  0  0
  6  2  2  0  0  0  0
  8 10  1  0  0  0  0
  9  7  2  0  0  0  0
 11  7  1  0  0  0  0
 11 16  2  0  0  0  0
 12 23  1  6  0  0  0
 12  1  1  0  0  0  0
 13  9  1  0  0  0  0
 14 11  1  0  0  0  0
 15  1  1  6  0  0  0
 15 20  1  0  0  0  0
 16  3  1  0  0  0  0
 17  8  1  0  0  0  0
 18 14  2  0  0  0  0
 18  6  1  0  0  0  0
 19 10  1  0  0  0  0
 20 19  1  0  0  0  0
 21 15  1  0  0  0  0
 21 17  1  1  0  0  0
 22 25  1  0  0  0  0
 23 24  1  0  0  0  0
 25 24  2  0  0  0  0
 26 27  1  0  0  0  0
 26 22  2  0  0  0  0
 27 23  2  0  0  0  0
M  END
>  <MODEL>
1

>  <REMARK>
 VINA RESULT:      -6.7      0.000      0.000
  Name = 
  1 active torsions:
  status: ('A' for Active; 'I' for Inactive)
    1  A    between atoms: C_9  and  C_15
                            x       y       z     vdW  Elec       q    Type
                         _______ _______ _______ _____ _____    ______ ____

>  <TORSDO>
F 1

$$$$
=
 OpenBabel11052423123D

 27 31  0  0  1  0  0  0  0  0999 V2000
  160.7480  211.6470  151.5450 C   0  0  0  0  0  2  0  0  0  0  0  0
  161.5890  209.4380  150.5950 C   0  0  0  0  0  0  0  0  0  0  0  0
  162.0630  209.0880  153.0300 N   0  0  0  0  0  2  0  0  0  0  0  0
  161.0760  205.3100  150.1010 C   0  0  0  0  0  3  0  0  0  0  0  0
  161.0840  202.9730  150.9800 C   0  0  0  0  0  1  0  0  0  0  0  0
  161.2120  208.8710  149.3670 C   0  0  0  0  0  3  0  0  0  0  0  0
  161.7990  206.3080  152.6140 C   0  0  0  0  0  3  0  0  0  0  0  0
  161.2960  209.8720  155.8180 C   0  0  0  0  0  2  0  0  0  0  0  0
  161.6270  204.9330  152.4280 C   0  0  0  0  0  3  0  0  0  0  0  0
  159.9370  210.3650  155.6430 N   0  0  0  0  0  2  0  0  0  0  0  0
  161.6160  207.1960  151.5430 C   0  0  0  0  0  0  0  0  0  0  0  0
  161.8110  210.9340  150.7020 C   0  0  1  0  0  3  0  0  0  0  0  0
  161.2670  204.4350  151.1730 C   0  0  0  0  0  0  0  0  0  0  0  0
  161.2480  206.6850  150.2780 C   0  0  0  0  0  0  0  0  0  0  0  0
  160.6980  211.1750  153.0020 C   0  0  1  0  0  3  0  0  0  0  0  0
  161.7740  208.5830  151.7110 C   0  0  0  0  0  0  0  0  0  0  0  0
  162.2730  210.6500  154.9390 C   0  0  0  0  0  2  0  0  0  0  0  0
  161.0510  207.5300  149.2360 N   0  0  0  0  0  0  0  0  0  0  0  0
  159.3590  209.5960  154.5530 C   0  0  0  0  0  2  0  0  0  0  0  0
  159.4080  210.3720  153.2370 C   0  0  0  0  0  2  0  0  0  0  0  0
  162.0070  210.4900  153.4410 C   0  0  1  0  0  3  0  0  0  0  0  0
  162.5210  213.0040  146.9970 C   0  0  0  0  0  3  0  0  0  0  0  0
  162.0680  211.6360  149.4000 C   0  0  0  0  0  0  0  0  0  0  0  0
  161.1030  212.5180  148.8990 C   0  0  0  0  0  3  0  0  0  0  0  0
  161.3280  213.1980  147.6980 C   0  0  0  0  0  3  0  0  0  0  0  0
  163.4910  212.1300  147.4960 C   0  0  0  0  0  3  0  0  0  0  0  0
  163.2680  211.4490  148.6950 C   0  0  0  0  0  3  0  0  0  0  0  0
  2 12  1  0  0  0  0
  2 16  1  0  0  0  0
  3 21  1  0  0  0  0
  4 14  1  0  0  0  0
  4 13  2  0  0  0  0
  5 13  1  0  0  0  0
  6  2  2  0  0  0  0
  9  7  2  0  0  0  0
 10  8  1  0  0  0  0
 11 16  2  0  0  0  0
 11  7  1  0  0  0  0
 12 23  1  6  0  0  0
 12  1  1  0  0  0  0
 13  9  1  0  0  0  0
 14 11  1  0  0  0  0
 15  1  1  6  0  0  0
 15 20  1  0  0  0  0
 15 21  1  0  0  0  0
 16  3  1  0  0  0  0
 17  8  1  0  0  0  0
 18  6  1  0  0  0  0
 18 14  2  0  0  0  0
 19 10  1  0  0  0  0
 20 19  1  0  0  0  0
 21 17  1  1  0  0  0
 22 26  2  0  0  0  0
 22 25  1  0  0  0  0
 24 23  1  0  0  0  0
 25 24  2  0  0  0  0
 26 27  1  0  0  0  0
 27 23  2  0  0  0  0
M  END
>  <MODEL>
2

>  <REMARK>
 VINA RESULT:      -6.3      1.422      5.944
  Name = 
  1 active torsions:
  status: ('A' for Active; 'I' for Inactive)
    1  A    between atoms: C_9  and  C_15
                            x       y       z     vdW  Elec       q    Type
                         _______ _______ _______ _____ _____    ______ ____

>  <TORSDO>
F 1

$$$$
=
 OpenBabel11052423123D

 27 31  0  0  1  0  0  0  0  0999 V2000
  159.1190  214.2810  141.2270 C   0  0  0  0  0  2  0  0  0  0  0  0
  159.9960  211.8940  141.0960 C   0  0  0  0  0  0  0  0  0  0  0  0
  158.0320  211.7340  139.5500 N   0  0  0  0  0  2  0  0  0  0  0  0
  161.9550  208.8990  138.9180 C   0  0  0  0  0  3  0  0  0  0  0  0
  162.0330  207.2140  137.0770 C   0  0  0  0  0  1  0  0  0  0  0  0
  161.3020  211.4760  141.4010 C   0  0  0  0  0  3  0  0  0  0  0  0
  159.3630  209.6550  138.1790 C   0  0  0  0  0  3  0  0  0  0  0  0
  156.2040  213.2670  137.7370 C   0  0  0  0  0  2  0  0  0  0  0  0
  160.0320  208.6550  137.4670 C   0  0  0  0  0  3  0  0  0  0  0  0
  156.9990  214.4420  137.4090 N   0  0  0  0  0  2  0  0  0  0  0  0
  159.9830  210.2830  139.2710 C   0  0  0  0  0  0  0  0  0  0  0  0
  159.3180  212.9450  141.9510 C   0  0  1  0  0  3  0  0  0  0  0  0
  161.3260  208.2770  137.8370 C   0  0  0  0  0  0  0  0  0  0  0  0
  161.2930  209.8980  139.6360 C   0  0  0  0  0  0  0  0  0  0  0  0
  158.2270  214.1820  139.9860 C   0  0  1  0  0  3  0  0  0  0  0  0
  159.3320  211.2980  139.9940 C   0  0  0  0  0  0  0  0  0  0  0  0
  156.0170  213.1410  139.2470 C   0  0  0  0  0  2  0  0  0  0  0  0
  161.9140  210.5050  140.6770 N   0  0  0  0  0  0  0  0  0  0  0  0
  158.3880  214.0120  137.4090 C   0  0  0  0  0  2  0  0  0  0  0  0
  159.0820  214.3720  138.7230 C   0  0  0  0  0  2  0  0  0  0  0  0
  157.3280  212.9300  140.0090 C   0  0  1  0  0  3  0  0  0  0  0  0
  160.9910  213.3940  145.8910 C   0  0  0  0  0  3  0  0  0  0  0  0
  159.9000  213.1250  143.3240 C   0  0  0  0  0  0  0  0  0  0  0  0
  159.5150  212.2520  144.3470 C   0  0  0  0  0  3  0  0  0  0  0  0
  160.0570  212.3880  145.6290 C   0  0  0  0  0  3  0  0  0  0  0  0
  161.3830  214.2660  144.8710 C   0  0  0  0  0  3  0  0  0  0  0  0
  160.8420  214.1320  143.5900 C   0  0  0  0  0  3  0  0  0  0  0  0
  1 12  1  0  0  0  0
  2  6  1  0  0  0  0
  2 12  1  0  0  0  0
  3 16  1  0  0  0  0
  3 21  1  0  0  0  0
  4 14  1  0  0  0  0
  5 13  1  0  0  0  0
  7 11  1  0  0  0  0
  8 17  1  0  0  0  0
  9 13  1  0  0  0  0
  9  7  2  0  0  0  0
 10 19  1  0  0  0  0
 10  8  1  0  0  0  0
 11 14  2  0  0  0  0
 11 16  1  0  0  0  0
 12 23  1  1  0  0  0
 13  4  2  0  0  0  0
 14 18  1  0  0  0  0
 15 20  1  6  0  0  0
 15 21  1  0  0  0  0
 15  1  1  0  0  0  0
 16  2  2  0  0  0  0
 18  6  2  0  0  0  0
 19 20  1  0  0  0  0
 21 17  1  6  0  0  0
 23 27  2  0  0  0  0
 23 24  1  0  0  0  0
 24 25  2  0  0  0  0
 25 22  1  0  0  0  0
 26 22  2  0  0  0  0
 27 26  1  0  0  0  0
M  END
>  <MODEL>
3

>  <REMARK>
 VINA RESULT:      -5.6      9.615     13.682
  Name = 
  1 active torsions:
  status: ('A' for Active; 'I' for Inactive)
    1  A    between atoms: C_9  and  C_15
                            x       y       z     vdW  Elec       q    Type
                         _______ _______ _______ _____ _____    ______ ____

>  <TORSDO>
F 1

$$$$
=
 OpenBabel11052423123D

 27 31  0  0  1  0  0  0  0  0999 V2000
  160.1450  212.7610  138.2370 C   0  0  0  0  0  2  0  0  0  0  0  0
  159.8430  212.3970  140.7400 C   0  0  0  0  0  0  0  0  0  0  0  0
  162.2960  211.9410  140.5130 N   0  0  0  0  0  2  0  0  0  0  0  0
  160.4530  213.7300  144.6650 C   0  0  0  0  0  3  0  0  0  0  0  0
  161.9240  214.1630  146.6360 C   0  0  0  0  0  1  0  0  0  0  0  0
  158.8010  212.9090  141.5290 C   0  0  0  0  0  3  0  0  0  0  0  0
  162.6300  212.7610  143.1940 C   0  0  0  0  0  3  0  0  0  0  0  0
  164.7500  212.4680  138.8780 C   0  0  0  0  0  2  0  0  0  0  0  0
  162.8120  213.2070  144.5070 C   0  0  0  0  0  3  0  0  0  0  0  0
  164.4110  213.7060  138.1910 N   0  0  0  0  0  2  0  0  0  0  0  0
  161.3560  212.7920  142.6070 C   0  0  0  0  0  0  0  0  0  0  0  0
  159.5550  211.8810  139.3450 C   0  0  1  0  0  3  0  0  0  0  0  0
  161.7250  213.6890  145.2410 C   0  0  0  0  0  0  0  0  0  0  0  0
  160.2620  213.2850  143.3540 C   0  0  0  0  0  0  0  0  0  0  0  0
  161.6720  212.8660  138.2830 C   0  0  1  0  0  3  0  0  0  0  0  0
  161.1520  212.3580  141.2850 C   0  0  0  0  0  0  0  0  0  0  0  0
  163.7250  211.3780  138.5710 C   0  0  0  0  0  2  0  0  0  0  0  0
  159.0270  213.3370  142.7970 N   0  0  0  0  0  0  0  0  0  0  0  0
  163.5490  214.4530  139.0930 C   0  0  0  0  0  2  0  0  0  0  0  0
  162.0750  214.2830  138.7230 C   0  0  0  0  0  2  0  0  0  0  0  0
  162.3160  211.7080  139.0710 C   0  0  1  0  0  3  0  0  0  0  0  0
  155.4450  210.8940  138.5330 C   0  0  0  0  0  3  0  0  0  0  0  0
  158.1200  211.5230  139.0810 C   0  0  0  0  0  0  0  0  0  0  0  0
  157.2320  212.5230  138.6690 C   0  0  0  0  0  3  0  0  0  0  0  0
  155.8960  212.2100  138.3980 C   0  0  0  0  0  3  0  0  0  0  0  0
  156.3280  209.8900  138.9390 C   0  0  0  0  0  3  0  0  0  0  0  0
  157.6630  210.2010  139.2100 C   0  0  0  0  0  3  0  0  0  0  0  0
  1 12  1  0  0  0  0
  2 16  2  0  0  0  0
  2  6  1  0  0  0  0
  3 16  1  0  0  0  0
  4 13  1  0  0  0  0
  6 18  2  0  0  0  0
  7  9  1  0  0  0  0
  9 13  2  0  0  0  0
 10  8  1  0  0  0  0
 10 19  1  0  0  0  0
 11  7  2  0  0  0  0
 11 14  1  0  0  0  0
 12 23  1  6  0  0  0
 12  2  1  0  0  0  0
 13  5  1  0  0  0  0
 14  4  2  0  0  0  0
 15  1  1  1  0  0  0
 15 20  1  0  0  0  0
 15 21  1  0  0  0  0
 16 11  1  0  0  0  0
 17  8  1  0  0  0  0
 18 14  1  0  0  0  0
 20 19  1  0  0  0  0
 21 17  1  6  0  0  0
 21  3  1  0  0  0  0
 22 26  1  0  0  0  0
 23 27  1  0  0  0  0
 24 23  2  0  0  0  0
 25 22  2  0  0  0  0
 25 24  1  0  0  0  0
 26 27  2  0  0  0  0
M  END
>  <MODEL>
4

>  <REMARK>
 VINA RESULT:      -5.5      9.266     13.425
  Name = 
  1 active torsions:
  status: ('A' for Active; 'I' for Inactive)
    1  A    between atoms: C_9  and  C_15
                            x       y       z     vdW  Elec       q    Type
                         _______ _______ _______ _____ _____    ______ ____

>  <TORSDO>
F 1

$$$$
=
 OpenBabel11052423123D

 27 31  0  0  1  0  0  0  0  0999 V2000
  162.3110  207.8490  148.6370 C   0  0  0  0  0  2  0  0  0  0  0  0
  161.3290  206.0050  150.0950 C   0  0  0  0  0  0  0  0  0  0  0  0
  160.4230  205.3380  147.8570 N   0  0  0  0  0  2  0  0  0  0  0  0
  161.3240  201.9910  151.2940 C   0  0  0  0  0  3  0  0  0  0  0  0
  160.8410  199.5750  150.8860 C   0  0  0  0  0  1  0  0  0  0  0  0
  161.8150  205.5950  151.3470 C   0  0  0  0  0  3  0  0  0  0  0  0
  160.3530  202.6620  148.7560 C   0  0  0  0  0  3  0  0  0  0  0  0
  160.8320  205.5030  144.8930 C   0  0  0  0  0  2  0  0  0  0  0  0
  160.3560  201.3280  149.1760 C   0  0  0  0  0  3  0  0  0  0  0  0
  162.2570  205.7810  144.7880 N   0  0  0  0  0  2  0  0  0  0  0  0
  160.8310  203.6730  149.6030 C   0  0  0  0  0  0  0  0  0  0  0  0
  161.3080  207.4760  149.7350 C   0  0  1  0  0  3  0  0  0  0  0  0
  160.8390  200.9930  150.4440 C   0  0  0  0  0  0  0  0  0  0  0  0
  161.3230  203.3260  150.8820 C   0  0  0  0  0  0  0  0  0  0  0  0
  162.0570  207.1390  147.3040 C   0  0  1  0  0  3  0  0  0  0  0  0
  160.8470  205.0180  149.1970 C   0  0  0  0  0  0  0  0  0  0  0  0
  160.1310  206.5710  145.7300 C   0  0  0  0  0  2  0  0  0  0  0  0
  161.8040  204.2870  151.7090 N   0  0  0  0  0  0  0  0  0  0  0  0
  162.8900  205.1190  145.9170 C   0  0  0  0  0  2  0  0  0  0  0  0
  163.1640  206.1010  147.0560 C   0  0  0  0  0  2  0  0  0  0  0  0
  160.6100  206.6210  147.1830 C   0  0  1  0  0  3  0  0  0  0  0  0
  161.4890  210.2320  153.0350 C   0  0  0  0  0  3  0  0  0  0  0  0
  161.3680  208.4200  150.9010 C   0  0  0  0  0  0  0  0  0  0  0  0
  162.3310  209.4350  150.9090 C   0  0  0  0  0  3  0  0  0  0  0  0
  162.3940  210.3380  151.9750 C   0  0  0  0  0  3  0  0  0  0  0  0
  160.5210  209.2240  153.0310 C   0  0  0  0  0  3  0  0  0  0  0  0
  160.4580  208.3210  151.9670 C   0  0  0  0  0  3  0  0  0  0  0  0
  1 12  1  0  0  0  0
  2  6  1  0  0  0  0
  3 16  1  0  0  0  0
  6 18  2  0  0  0  0
  7  9  2  0  0  0  0
  7 11  1  0  0  0  0
  8 17  1  0  0  0  0
  9 13  1  0  0  0  0
 10  8  1  0  0  0  0
 10 19  1  0  0  0  0
 11 14  2  0  0  0  0
 12  2  1  0  0  0  0
 12 23  1  1  0  0  0
 13  5  1  0  0  0  0
 13  4  2  0  0  0  0
 14  4  1  0  0  0  0
 14 18  1  0  0  0  0
 15 20  1  1  0  0  0
 15  1  1  0  0  0  0
 16 11  1  0  0  0  0
 16  2  2  0  0  0  0
 19 20  1  0  0  0  0
 21 17  1  6  0  0  0
 21 15  1  0  0  0  0
 21  3  1  0  0  0  0
 23 24  2  0  0  0  0
 23 27  1  0  0  0  0
 24 25  1  0  0  0  0
 25 22  2  0  0  0  0
 26 22  1  0  0  0  0
 27 26  2  0  0  0  0
M  END
>  <MODEL>
5

>  <REMARK>
 VINA RESULT:      -5.5      3.240      8.550
  Name = 
  1 active torsions:
  status: ('A' for Active; 'I' for Inactive)
    1  A    between atoms: C_9  and  C_15
                            x       y       z     vdW  Elec       q    Type
                         _______ _______ _______ _____ _____    ______ ____

>  <TORSDO>
F 1

$$$$
=
 OpenBabel11052423123D

 27 31  0  0  1  0  0  0  0  0999 V2000
  158.1210  213.6490  141.5190 C   0  0  0  0  0  2  0  0  0  0  0  0
  160.6490  213.3450  141.5890 C   0  0  0  0  0  0  0  0  0  0  0  0
  160.1090  212.1240  139.4700 N   0  0  0  0  0  2  0  0  0  0  0  0
  164.4290  214.3160  140.0670 C   0  0  0  0  0  3  0  0  0  0  0  0
  166.1790  214.2030  138.2880 C   0  0  0  0  0  1  0  0  0  0  0  0
  161.5580  214.1490  142.2950 C   0  0  0  0  0  3  0  0  0  0  0  0
  162.7040  212.7290  138.5370 C   0  0  0  0  0  3  0  0  0  0  0  0
  158.1520  211.8640  137.2160 C   0  0  0  0  0  2  0  0  0  0  0  0
  163.9720  213.0610  138.0480 C   0  0  0  0  0  3  0  0  0  0  0  0
  157.4910  213.1610  137.2230 N   0  0  0  0  0  2  0  0  0  0  0  0
  162.2900  213.1840  139.7980 C   0  0  0  0  0  0  0  0  0  0  0  0
  159.3160  212.9830  142.2110 C   0  0  1  0  0  3  0  0  0  0  0  0
  164.8330  213.8520  138.8120 C   0  0  0  0  0  0  0  0  0  0  0  0
  163.1650  213.9880  140.5630 C   0  0  0  0  0  0  0  0  0  0  0  0
  157.9620  213.2530  140.0480 C   0  0  1  0  0  3  0  0  0  0  0  0
  161.0170  212.8710  140.3040 C   0  0  0  0  0  0  0  0  0  0  0  0
  158.0070  211.1730  138.5710 C   0  0  0  0  0  2  0  0  0  0  0  0
  162.7760  214.4500  141.7760 N   0  0  0  0  0  0  0  0  0  0  0  0
  158.4830  214.1260  137.6690 C   0  0  0  0  0  2  0  0  0  0  0  0
  158.3150  214.4520  139.1530 C   0  0  0  0  0  2  0  0  0  0  0  0
  158.6820  211.9310  139.7170 C   0  0  1  0  0  3  0  0  0  0  0  0
  159.1950  213.3410  146.4980 C   0  0  0  0  0  3  0  0  0  0  0  0
  159.2510  213.1160  143.7060 C   0  0  0  0  0  0  0  0  0  0  0  0
  159.8450  212.1310  144.5030 C   0  0  0  0  0  3  0  0  0  0  0  0
  159.8150  212.2420  145.8970 C   0  0  0  0  0  3  0  0  0  0  0  0
  158.6050  214.3300  145.7070 C   0  0  0  0  0  3  0  0  0  0  0  0
  158.6340  214.2210  144.3140 C   0  0  0  0  0  3  0  0  0  0  0  0
  1 12  1  0  0  0  0
  2 12  1  0  0  0  0
  2  6  1  0  0  0  0
  3 21  1  0  0  0  0
  3 16  1  0  0  0  0
  4 14  1  0  0  0  0
  5 13  1  0  0  0  0
  7 11  1  0  0  0  0
  8 10  1  0  0  0  0
  8 17  1  0  0  0  0
  9  7  2  0  0  0  0
  9 13  1  0  0  0  0
 10 19  1  0  0  0  0
 11 16  1  0  0  0  0
 11 14  2  0  0  0  0
 12 23  1  1  0  0  0
 13  4  2  0  0  0  0
 14 18  1  0  0  0  0
 15 20  1  6  0  0  0
 15  1  1  0  0  0  0
 16  2  2  0  0  0  0
 18  6  2  0  0  0  0
 19 20  1  0  0  0  0
 21 17  1  6  0  0  0
 21 15  1  0  0  0  0
 23 27  2  0  0  0  0
 23 24  1  0  0  0  0
 24 25  2  0  0  0  0
 25 22  1  0  0  0  0
 26 22  2  0  0  0  0
 27 26  1  0  0  0  0
M  END
>  <MODEL>
6

>  <REMARK>
 VINA RESULT:      -5.1      9.031     13.394
  Name = 
  1 active torsions:
  status: ('A' for Active; 'I' for Inactive)
    1  A    between atoms: C_9  and  C_15
                            x       y       z     vdW  Elec       q    Type
                         _______ _______ _______ _____ _____    ______ ____

>  <TORSDO>
F 1

$$$$
=
 OpenBabel11052423123D

 27 31  0  0  1  0  0  0  0  0999 V2000
  162.0830  205.6020  148.4940 C   0  0  0  0  0  2  0  0  0  0  0  0
  161.2110  203.2080  148.4940 C   0  0  0  0  0  0  0  0  0  0  0  0
  160.4150  203.9740  146.2460 N   0  0  0  0  0  2  0  0  0  0  0  0
  161.4880  199.2820  147.0600 C   0  0  0  0  0  3  0  0  0  0  0  0
  161.2060  197.5740  145.2610 C   0  0  0  0  0  1  0  0  0  0  0  0
  161.6960  202.1530  149.2840 C   0  0  0  0  0  3  0  0  0  0  0  0
  160.5320  201.2940  145.3650 C   0  0  0  0  0  3  0  0  0  0  0  0
  160.8850  205.9020  144.0010 C   0  0  0  0  0  2  0  0  0  0  0  0
  160.6280  199.9770  144.9060 C   0  0  0  0  0  3  0  0  0  0  0  0
  162.2860  206.2550  144.1780 N   0  0  0  0  0  2  0  0  0  0  0  0
  160.9090  201.6160  146.6780 C   0  0  0  0  0  0  0  0  0  0  0  0
  161.0850  204.5990  149.0830 C   0  0  1  0  0  3  0  0  0  0  0  0
  161.1040  198.9720  145.7530 C   0  0  0  0  0  0  0  0  0  0  0  0
  161.3940  200.5960  147.5270 C   0  0  0  0  0  0  0  0  0  0  0  0
  161.9180  205.8220  146.9870 C   0  0  1  0  0  3  0  0  0  0  0  0
  160.8300  202.9360  147.1560 C   0  0  0  0  0  0  0  0  0  0  0  0
  160.0810  206.2210  145.2610 C   0  0  0  0  0  2  0  0  0  0  0  0
  161.7780  200.8910  148.7930 N   0  0  0  0  0  0  0  0  0  0  0  0
  162.9400  205.0790  144.7290 C   0  0  0  0  0  2  0  0  0  0  0  0
  163.1080  205.1940  146.2440 C   0  0  0  0  0  2  0  0  0  0  0  0
  160.5190  205.4120  146.4840 C   0  0  1  0  0  3  0  0  0  0  0  0
  160.9270  204.8220  153.3780 C   0  0  0  0  0  3  0  0  0  0  0  0
  161.0410  204.6570  150.5830 C   0  0  0  0  0  0  0  0  0  0  0  0
  161.2600  205.8810  151.2250 C   0  0  0  0  0  3  0  0  0  0  0  0
  161.2060  205.9630  152.6200 C   0  0  0  0  0  3  0  0  0  0  0  0
  160.7020  203.5980  152.7420 C   0  0  0  0  0  3  0  0  0  0  0  0
  160.7560  203.5140  151.3480 C   0  0  0  0  0  3  0  0  0  0  0  0
  1 12  1  0  0  0  0
  2 12  1  0  0  0  0
  2  6  1  0  0  0  0
  3 21  1  0  0  0  0
  3 16  1  0  0  0  0
  4 14  1  0  0  0  0
  5 13  1  0  0  0  0
  7 11  1  0  0  0  0
  8 10  1  0  0  0  0
  8 17  1  0  0  0  0
  9  7  2  0  0  0  0
  9 13  1  0  0  0  0
 10 19  1  0  0  0  0
 11 16  1  0  0  0  0
 11 14  2  0  0  0  0
 12 23  1  1  0  0  0
 13  4  2  0  0  0  0
 14 18  1  0  0  0  0
 15 20  1  6  0  0  0
 15  1  1  0  0  0  0
 16  2  2  0  0  0  0
 18  6  2  0  0  0  0
 19 20  1  0  0  0  0
 21 17  1  6  0  0  0
 21 15  1  0  0  0  0
 23 24  2  0  0  0  0
 23 27  1  0  0  0  0
 24 25  1  0  0  0  0
 25 22  2  0  0  0  0
 26 22  1  0  0  0  0
 27 26  2  0  0  0  0
M  END
>  <MODEL>
7

>  <REMARK>
 VINA RESULT:      -4.3      5.558      9.839
  Name = 
  1 active torsions:
  status: ('A' for Active; 'I' for Inactive)
    1  A    between atoms: C_9  and  C_15
                            x       y       z     vdW  Elec       q    Type
                         _______ _______ _______ _____ _____    ______ ____

>  <TORSDO>
F 1

$$$$
=
 OpenBabel11052423123D

 27 31  0  0  1  0  0  0  0  0999 V2000
  160.3580  204.9610  151.7730 C   0  0  0  0  0  2  0  0  0  0  0  0
  161.2590  205.9530  149.6070 C   0  0  0  0  0  0  0  0  0  0  0  0
  161.9560  203.5640  149.3280 N   0  0  0  0  0  2  0  0  0  0  0  0
  160.9740  206.3550  145.4460 C   0  0  0  0  0  3  0  0  0  0  0  0
  161.2060  205.4530  143.1300 C   0  0  0  0  0  1  0  0  0  0  0  0
  160.8180  207.1390  148.9950 C   0  0  0  0  0  3  0  0  0  0  0  0
  161.8370  203.9230  146.5300 C   0  0  0  0  0  3  0  0  0  0  0  0
  161.3740  200.7300  150.1090 C   0  0  0  0  0  2  0  0  0  0  0  0
  161.7400  204.0780  145.1440 C   0  0  0  0  0  3  0  0  0  0  0  0
  159.9760  200.7950  150.5110 N   0  0  0  0  0  2  0  0  0  0  0  0
  161.5090  204.9850  147.3870 C   0  0  0  0  0  0  0  0  0  0  0  0
  161.3910  205.8820  151.1140 C   0  0  1  0  0  3  0  0  0  0  0  0
  161.3100  205.2930  144.6030 C   0  0  0  0  0  0  0  0  0  0  0  0
  161.0710  206.2090  146.8330 C   0  0  0  0  0  0  0  0  0  0  0  0
  160.4600  203.5010  151.3240 C   0  0  1  0  0  3  0  0  0  0  0  0
  161.5900  204.8470  148.7840 C   0  0  0  0  0  0  0  0  0  0  0  0
  162.2220  201.6970  150.9330 C   0  0  0  0  0  2  0  0  0  0  0  0
  160.7330  207.2400  147.6450 N   0  0  0  0  0  0  0  0  0  0  0  0
  159.3600  201.8230  149.6890 C   0  0  0  0  0  2  0  0  0  0  0  0
  159.2500  203.1480  150.4450 C   0  0  0  0  0  2  0  0  0  0  0  0
  161.8430  203.1650  150.7300 C   0  0  1  0  0  3  0  0  0  0  0  0
  161.6750  209.7160  153.0490 C   0  0  0  0  0  3  0  0  0  0  0  0
  161.4930  207.2090  151.8100 C   0  0  0  0  0  0  0  0  0  0  0  0
  162.2380  208.2350  151.2170 C   0  0  0  0  0  3  0  0  0  0  0  0
  162.3310  209.4850  151.8370 C   0  0  0  0  0  3  0  0  0  0  0  0
  160.9250  208.6980  153.6430 C   0  0  0  0  0  3  0  0  0  0  0  0
  160.8310  207.4480  153.0260 C   0  0  0  0  0  3  0  0  0  0  0  0
  2 12  1  0  0  0  0
  3 21  1  0  0  0  0
  4 14  1  0  0  0  0
  5 13  1  0  0  0  0
  6  2  1  0  0  0  0
  7 11  1  0  0  0  0
  8 10  1  0  0  0  0
  8 17  1  0  0  0  0
  9  7  2  0  0  0  0
 11 16  1  0  0  0  0
 12  1  1  0  0  0  0
 12 23  1  1  0  0  0
 13  9  1  0  0  0  0
 13  4  2  0  0  0  0
 14 11  2  0  0  0  0
 14 18  1  0  0  0  0
 15 20  1  6  0  0  0
 15  1  1  0  0  0  0
 16  3  1  0  0  0  0
 16  2  2  0  0  0  0
 18  6  2  0  0  0  0
 19 20  1  0  0  0  0
 19 10  1  0  0  0  0
 21 17  1  6  0  0  0
 21 15  1  0  0  0  0
 22 26  1  0  0  0  0
 23 27  1  0  0  0  0
 24 23  2  0  0  0  0
 24 25  1  0  0  0  0
 25 22  2  0  0  0  0
 27 26  2  0  0  0  0
M  END
>  <MODEL>
8

>  <REMARK>
 VINA RESULT:      -4.2      3.529      7.536
  Name = 
  1 active torsions:
  status: ('A' for Active; 'I' for Inactive)
    1  A    between atoms: C_9  and  C_15
                            x       y       z     vdW  Elec       q    Type
                         _______ _______ _______ _____ _____    ______ ____

>  <TORSDO>
F 1

$$$$
