=
 OpenBabel11052422063D

 25 28  0  0  1  0  0  0  0  0999 V2000
  161.3270  206.2100  151.9100 C   0  0  0  0  0  0  0  0  0  0  0  0
  161.3320  205.5710  150.6710 C   0  0  0  0  0  0  0  0  0  0  0  0
  160.7720  204.1570  153.0590 C   0  0  0  0  0  3  0  0  0  0  0  0
  161.6710  207.6080  152.2770 C   0  0  2  0  0  3  0  0  0  0  0  0
  160.6990  209.8200  153.8440 C   0  0  0  0  0  3  0  0  0  0  0  0
  160.7520  203.4890  151.8230 C   0  0  0  0  0  3  0  0  0  0  0  0
  161.4300  207.5380  153.7630 C   0  0  0  0  0  0  0  0  0  0  0  0
  161.1780  208.7680  154.5190 C   0  0  0  0  0  3  0  0  0  0  0  0
  161.0400  203.5560  149.3730 C   0  0  0  0  0  0  0  0  0  0  0  0
  160.7410  202.1010  149.2290 C   0  0  0  0  0  1  0  0  0  0  0  0
  161.6170  206.2460  149.5280 N   0  0  0  0  0  0  0  0  0  0  0  0
  160.3870  209.7200  152.3930 C   0  0  0  0  0  3  0  0  0  0  0  0
  161.0780  205.5160  153.0700 C   0  0  0  0  0  0  0  0  0  0  0  0
  161.1050  206.3620  154.2080 N   0  0  0  0  0  0  0  0  0  0  0  0
  161.3310  204.2800  148.2590 N   0  0  0  0  0  0  0  0  0  0  0  0
  160.7810  208.6600  151.6670 C   0  0  0  0  0  3  0  0  0  0  0  0
  161.6090  205.6090  148.3280 C   0  0  0  0  0  0  0  0  0  0  0  0
  161.0340  204.1870  150.6260 C   0  0  0  0  0  0  0  0  0  0  0  0
  161.9490  206.3600  147.0900 C   0  0  0  0  0  2  0  0  0  0  0  0
  162.3820  205.4260  146.0540 N   0  0  0  0  0  2  0  0  0  0  0  0
  161.3480  205.2630  145.0290 C   0  0  2  0  0  3  0  0  0  0  0  0
  160.2170  206.2740  145.1750 C   0  0  0  0  0  1  0  0  0  0  0  0
  160.8560  203.8500  144.9320 C   0  0  0  0  0  0  0  0  0  0  0  0
  159.7210  203.5710  144.1840 O   0  0  0  0  0  0  0  0  0  0  0  0
  161.4790  202.9100  145.4940 O   0  0  0  0  0  1  0  0  0  0  0  0
  1  4  1  0  0  0  0
  1 13  1  0  0  0  0
  2  1  2  0  0  0  0
  3 13  2  0  0  0  0
  4 16  1  6  0  0  0
  4  7  1  0  0  0  0
  5  8  2  0  0  0  0
  6  3  1  0  0  0  0
  7 14  2  0  0  0  0
  7  8  1  0  0  0  0
  9 18  1  0  0  0  0
 10  9  1  0  0  0  0
 11  2  1  0  0  0  0
 12  5  1  0  0  0  0
 13 14  1  0  0  0  0
 15 17  1  0  0  0  0
 15  9  2  0  0  0  0
 16 12  2  0  0  0  0
 17 11  2  0  0  0  0
 18  2  1  0  0  0  0
 18  6  2  0  0  0  0
 19 17  1  0  0  0  0
 20 19  1  0  0  0  0
 21 22  1  1  0  0  0
 21 20  1  0  0  0  0
 23 21  1  0  0  0  0
 23 25  1  0  0  0  0
 24 23  2  0  0  0  0
M  END
>  <MODEL>
1

>  <REMARK>
 VINA RESULT:      -9.0      0.000      0.000
  Name = 
  4 active torsions:
  status: ('A' for Active; 'I' for Inactive)
    1  A    between atoms: C_2  and  CA_21
    2  A    between atoms: C_6  and  N_15
    3  A    between atoms: C_6  and  C_23
    4  A    between atoms: N_15  and  CA_21
                            x       y       z     vdW  Elec       q    Type
                         _______ _______ _______ _____ _____    ______ ____

>  <TORSDO>
F 4

$$$$
=
 OpenBabel11052422063D

 25 28  0  0  1  0  0  0  0  0999 V2000
  161.1990  204.9200  149.2180 C   0  0  0  0  0  0  0  0  0  0  0  0
  161.3010  205.8530  150.2500 C   0  0  0  0  0  0  0  0  0  0  0  0
  160.9670  203.0910  150.7810 C   0  0  0  0  0  3  0  0  0  0  0  0
  161.1420  205.1130  147.7450 C   0  0  2  0  0  3  0  0  0  0  0  0
  162.2740  204.0860  145.3040 C   0  0  0  0  0  3  0  0  0  0  0  0
  161.0840  204.0050  151.8420 C   0  0  0  0  0  3  0  0  0  0  0  0
  161.0340  203.6720  147.3140 C   0  0  0  0  0  0  0  0  0  0  0  0
  161.4150  203.2900  145.9520 C   0  0  0  0  0  3  0  0  0  0  0  0
  161.3540  206.3330  152.6150 C   0  0  0  0  0  0  0  0  0  0  0  0
  161.3060  205.9330  154.0530 C   0  0  0  0  0  1  0  0  0  0  0  0
  161.4440  207.1780  149.9950 N   0  0  0  0  0  0  0  0  0  0  0  0
  162.8550  205.2850  145.9680 C   0  0  0  0  0  3  0  0  0  0  0  0
  161.0120  203.5840  149.4780 C   0  0  0  0  0  0  0  0  0  0  0  0
  160.9530  202.8170  148.2870 N   0  0  0  0  0  0  0  0  0  0  0  0
  161.4990  207.6480  152.3040 N   0  0  0  0  0  0  0  0  0  0  0  0
  162.3750  205.7330  147.1400 C   0  0  0  0  0  3  0  0  0  0  0  0
  161.5510  208.0720  151.0130 C   0  0  0  0  0  0  0  0  0  0  0  0
  161.2480  205.3860  151.5850 C   0  0  0  0  0  0  0  0  0  0  0  0
  161.6810  209.5220  150.7130 C   0  0  0  0  0  2  0  0  0  0  0  0
  161.9360  210.2560  151.9490 N   0  0  0  0  0  2  0  0  0  0  0  0
  160.6840  210.7240  152.5500 C   0  0  2  0  0  3  0  0  0  0  0  0
  160.2100  212.0450  151.9560 C   0  0  0  0  0  1  0  0  0  0  0  0
  160.7420  210.7480  154.0480 C   0  0  0  0  0  0  0  0  0  0  0  0
  159.5660  210.6470  154.7790 O   0  0  0  0  0  1  0  0  0  0  0  0
  161.8460  210.8250  154.6500 O   0  0  0  0  0  0  0  0  0  0  0  0
  1 13  2  0  0  0  0
  1  2  1  0  0  0  0
  2 18  2  0  0  0  0
  3  6  2  0  0  0  0
  4 16  1  6  0  0  0
  4  1  1  0  0  0  0
  5  8  2  0  0  0  0
  5 12  1  0  0  0  0
  7  4  1  0  0  0  0
  7 14  2  0  0  0  0
  8  7  1  0  0  0  0
  9 10  1  0  0  0  0
 11  2  1  0  0  0  0
 11 17  2  0  0  0  0
 12 16  2  0  0  0  0
 13  3  1  0  0  0  0
 14 13  1  0  0  0  0
 15  9  2  0  0  0  0
 17 15  1  0  0  0  0
 18  6  1  0  0  0  0
 18  9  1  0  0  0  0
 19 17  1  0  0  0  0
 19 20  1  0  0  0  0
 20 21  1  0  0  0  0
 21 22  1  6  0  0  0
 21 23  1  0  0  0  0
 23 25  2  0  0  0  0
 23 24  1  0  0  0  0
M  END
>  <MODEL>
2

>  <REMARK>
 VINA RESULT:      -8.9      3.821      7.107
  Name = 
  4 active torsions:
  status: ('A' for Active; 'I' for Inactive)
    1  A    between atoms: C_2  and  CA_21
    2  A    between atoms: C_6  and  N_15
    3  A    between atoms: C_6  and  C_23
    4  A    between atoms: N_15  and  CA_21
                            x       y       z     vdW  Elec       q    Type
                         _______ _______ _______ _____ _____    ______ ____

>  <TORSDO>
F 4

$$$$
=
 OpenBabel11052422063D

 25 28  0  0  1  0  0  0  0  0999 V2000
  161.1190  208.3380  152.9610 C   0  0  0  0  0  0  0  0  0  0  0  0
  161.1590  207.4070  151.9230 C   0  0  0  0  0  0  0  0  0  0  0  0
  161.1160  206.5950  154.6360 C   0  0  0  0  0  3  0  0  0  0  0  0
  161.1840  209.8220  152.9290 C   0  0  2  0  0  3  0  0  0  0  0  0
  159.8920  212.1480  154.0330 C   0  0  0  0  0  3  0  0  0  0  0  0
  161.1380  205.6330  153.6110 C   0  0  0  0  0  3  0  0  0  0  0  0
  161.0870  210.1030  154.4070 C   0  0  0  0  0  0  0  0  0  0  0  0
  160.6400  211.4190  154.8700 C   0  0  0  0  0  3  0  0  0  0  0  0
  161.2010  205.1040  151.2020 C   0  0  0  0  0  0  0  0  0  0  0  0
  161.2110  203.6320  151.4550 C   0  0  0  0  0  1  0  0  0  0  0  0
  161.1960  207.7970  150.6240 N   0  0  0  0  0  0  0  0  0  0  0  0
  159.4900  211.6110  152.7050 C   0  0  0  0  0  3  0  0  0  0  0  0
  161.1230  207.9410  154.2760 C   0  0  0  0  0  0  0  0  0  0  0  0
  161.0620  209.0470  155.1620 N   0  0  0  0  0  0  0  0  0  0  0  0
  161.2350  205.5480  149.9180 N   0  0  0  0  0  0  0  0  0  0  0  0
  160.0410  210.4900  152.2090 C   0  0  0  0  0  3  0  0  0  0  0  0
  161.2260  206.8770  149.6250 C   0  0  0  0  0  0  0  0  0  0  0  0
  161.1630  206.0300  152.2540 C   0  0  0  0  0  0  0  0  0  0  0  0
  161.2930  207.3240  148.2090 C   0  0  0  0  0  2  0  0  0  0  0  0
  160.5830  206.3700  147.3600 N   0  0  0  0  0  2  0  0  0  0  0  0
  161.4080  205.9710  146.2160 C   0  0  2  0  0  3  0  0  0  0  0  0
  160.5880  205.7730  144.9470 C   0  0  0  0  0  1  0  0  0  0  0  0
  162.2900  204.7980  146.5270 C   0  0  0  0  0  0  0  0  0  0  0  0
  161.7590  203.7030  147.1950 O   0  0  0  0  0  1  0  0  0  0  0  0
  163.4950  204.7820  146.1610 O   0  0  0  0  0  0  0  0  0  0  0  0
  1 13  1  0  0  0  0
  2 18  1  0  0  0  0
  2  1  2  0  0  0  0
  4 16  1  6  0  0  0
  4  1  1  0  0  0  0
  4  7  1  0  0  0  0
  5  8  2  0  0  0  0
  6  3  1  0  0  0  0
  7  8  1  0  0  0  0
  7 14  2  0  0  0  0
  9 10  1  0  0  0  0
  9 18  1  0  0  0  0
 11  2  1  0  0  0  0
 12  5  1  0  0  0  0
 13  3  2  0  0  0  0
 13 14  1  0  0  0  0
 15  9  2  0  0  0  0
 16 12  2  0  0  0  0
 17 15  1  0  0  0  0
 17 11  2  0  0  0  0
 18  6  2  0  0  0  0
 19 17  1  0  0  0  0
 20 19  1  0  0  0  0
 21 22  1  6  0  0  0
 21 23  1  0  0  0  0
 21 20  1  0  0  0  0
 23 24  1  0  0  0  0
 25 23  2  0  0  0  0
M  END
>  <MODEL>
3

>  <REMARK>
 VINA RESULT:      -8.8      1.636      2.416
  Name = 
  4 active torsions:
  status: ('A' for Active; 'I' for Inactive)
    1  A    between atoms: C_2  and  CA_21
    2  A    between atoms: C_6  and  N_15
    3  A    between atoms: C_6  and  C_23
    4  A    between atoms: N_15  and  CA_21
                            x       y       z     vdW  Elec       q    Type
                         _______ _______ _______ _____ _____    ______ ____

>  <TORSDO>
F 4

$$$$
=
 OpenBabel11052422063D

 25 28  0  0  1  0  0  0  0  0999 V2000
  161.0110  206.2110  150.8040 C   0  0  0  0  0  0  0  0  0  0  0  0
  160.9950  207.2130  151.7750 C   0  0  0  0  0  0  0  0  0  0  0  0
  161.1820  204.4760  152.4790 C   0  0  0  0  0  3  0  0  0  0  0  0
  160.8510  206.2930  149.3290 C   0  0  2  0  0  3  0  0  0  0  0  0
  162.0290  205.3210  146.8870 C   0  0  0  0  0  3  0  0  0  0  0  0
  161.1870  205.4650  153.4780 C   0  0  0  0  0  3  0  0  0  0  0  0
  160.9790  204.8300  148.9870 C   0  0  0  0  0  0  0  0  0  0  0  0
  161.3570  204.4310  147.6290 C   0  0  0  0  0  3  0  0  0  0  0  0
  161.0760  207.8500  154.1010 C   0  0  0  0  0  0  0  0  0  0  0  0
  161.1680  207.5440  155.5600 C   0  0  0  0  0  1  0  0  0  0  0  0
  160.8890  208.5230  151.4360 N   0  0  0  0  0  0  0  0  0  0  0  0
  162.4190  206.6430  147.4470 C   0  0  0  0  0  3  0  0  0  0  0  0
  161.0770  204.8830  151.1510 C   0  0  0  0  0  0  0  0  0  0  0  0
  161.0980  204.0400  150.0100 N   0  0  0  0  0  0  0  0  0  0  0  0
  160.9700  209.1470  153.7090 N   0  0  0  0  0  0  0  0  0  0  0  0
  161.9240  207.0780  148.6190 C   0  0  0  0  0  3  0  0  0  0  0  0
  160.8840  209.4870  152.3940 C   0  0  0  0  0  0  0  0  0  0  0  0
  161.0900  206.8330  153.1350 C   0  0  0  0  0  0  0  0  0  0  0  0
  160.7410  210.9150  152.0060 C   0  0  0  0  0  2  0  0  0  0  0  0
  160.1120  211.6580  153.0950 N   0  0  0  0  0  2  0  0  0  0  0  0
  158.6640  211.7630  152.8910 C   0  0  2  0  0  3  0  0  0  0  0  0
  158.2730  213.0190  152.1220 C   0  0  0  0  0  1  0  0  0  0  0  0
  157.8940  211.5990  154.1670 C   0  0  0  0  0  0  0  0  0  0  0  0
  156.6530  212.2070  154.2980 O   0  0  0  0  0  0  0  0  0  0  0  0
  158.3450  210.8910  155.1060 O   0  0  0  0  0  1  0  0  0  0  0  0
  1 13  2  0  0  0  0
  1  2  1  0  0  0  0
  2 18  2  0  0  0  0
  3  6  2  0  0  0  0
  4 16  1  6  0  0  0
  4  1  1  0  0  0  0
  5 12  1  0  0  0  0
  5  8  2  0  0  0  0
  7  4  1  0  0  0  0
  7 14  2  0  0  0  0
  8  7  1  0  0  0  0
  9 10  1  0  0  0  0
 11  2  1  0  0  0  0
 11 17  2  0  0  0  0
 12 16  2  0  0  0  0
 13  3  1  0  0  0  0
 14 13  1  0  0  0  0
 15  9  2  0  0  0  0
 17 15  1  0  0  0  0
 18  6  1  0  0  0  0
 18  9  1  0  0  0  0
 19 17  1  0  0  0  0
 19 20  1  0  0  0  0
 21 22  1  1  0  0  0
 21 20  1  0  0  0  0
 21 23  1  0  0  0  0
 23 24  2  0  0  0  0
 23 25  1  0  0  0  0
M  END
>  <MODEL>
4

>  <REMARK>
 VINA RESULT:      -8.8      4.267      7.330
  Name = 
  4 active torsions:
  status: ('A' for Active; 'I' for Inactive)
    1  A    between atoms: C_2  and  CA_21
    2  A    between atoms: C_6  and  N_15
    3  A    between atoms: C_6  and  C_23
    4  A    between atoms: N_15  and  CA_21
                            x       y       z     vdW  Elec       q    Type
                         _______ _______ _______ _____ _____    ______ ____

>  <TORSDO>
F 4

$$$$
=
 OpenBabel11052422063D

 25 28  0  0  1  0  0  0  0  0999 V2000
  161.2060  205.6840  149.2930 C   0  0  0  0  0  0  0  0  0  0  0  0
  161.3840  206.7290  150.2000 C   0  0  0  0  0  0  0  0  0  0  0  0
  160.9300  204.0740  151.0750 C   0  0  0  0  0  3  0  0  0  0  0  0
  161.1180  205.6970  147.8090 C   0  0  2  0  0  3  0  0  0  0  0  0
  162.1270  204.3220  145.4890 C   0  0  0  0  0  3  0  0  0  0  0  0
  161.1220  205.1040  152.0120 C   0  0  0  0  0  3  0  0  0  0  0  0
  160.9260  204.2220  147.5620 C   0  0  0  0  0  0  0  0  0  0  0  0
  161.2500  203.6570  146.2500 C   0  0  0  0  0  3  0  0  0  0  0  0
  161.5280  207.4910  152.4850 C   0  0  0  0  0  0  0  0  0  0  0  0
  161.5020  207.2730  153.9620 C   0  0  0  0  0  1  0  0  0  0  0  0
  161.5850  208.0040  149.7790 N   0  0  0  0  0  0  0  0  0  0  0  0
  162.7850  205.5610  145.9870 C   0  0  0  0  0  3  0  0  0  0  0  0
  160.9620  204.4010  149.7210 C   0  0  0  0  0  0  0  0  0  0  0  0
  160.8310  203.4980  148.6350 N   0  0  0  0  0  0  0  0  0  0  0  0
  161.7280  208.7490  152.0110 N   0  0  0  0  0  0  0  0  0  0  0  0
  162.3620  206.1740  147.1050 C   0  0  0  0  0  3  0  0  0  0  0  0
  161.7640  209.0080  150.6760 C   0  0  0  0  0  0  0  0  0  0  0  0
  161.3460  206.4320  151.5830 C   0  0  0  0  0  0  0  0  0  0  0  0
  161.9570  210.4020  150.1970 C   0  0  0  0  0  2  0  0  0  0  0  0
  161.8640  210.4360  148.7400 N   0  0  0  0  0  2  0  0  0  0  0  0
  161.5790  211.7930  148.2640 C   0  0  2  0  0  3  0  0  0  0  0  0
  160.5810  211.8090  147.1120 C   0  0  0  0  0  1  0  0  0  0  0  0
  162.8270  212.5680  147.9620 C   0  0  0  0  0  0  0  0  0  0  0  0
  162.7780  213.9550  147.9260 O   0  0  0  0  0  1  0  0  0  0  0  0
  163.9230  211.9770  147.7740 O   0  0  0  0  0  0  0  0  0  0  0  0
  1 13  2  0  0  0  0
  1  2  1  0  0  0  0
  2 18  2  0  0  0  0
  3  6  2  0  0  0  0
  4 16  1  6  0  0  0
  4  1  1  0  0  0  0
  5 12  1  0  0  0  0
  5  8  2  0  0  0  0
  7  4  1  0  0  0  0
  7 14  2  0  0  0  0
  8  7  1  0  0  0  0
  9 10  1  0  0  0  0
 11  2  1  0  0  0  0
 11 17  2  0  0  0  0
 12 16  2  0  0  0  0
 13  3  1  0  0  0  0
 14 13  1  0  0  0  0
 15  9  2  0  0  0  0
 17 15  1  0  0  0  0
 18  6  1  0  0  0  0
 18  9  1  0  0  0  0
 19 17  1  0  0  0  0
 20 19  1  0  0  0  0
 21 22  1  6  0  0  0
 21 20  1  0  0  0  0
 23 21  1  0  0  0  0
 24 23  1  0  0  0  0
 25 23  2  0  0  0  0
M  END
>  <MODEL>
5

>  <REMARK>
 VINA RESULT:      -8.7      3.827      6.408
  Name = 
  4 active torsions:
  status: ('A' for Active; 'I' for Inactive)
    1  A    between atoms: C_2  and  CA_21
    2  A    between atoms: C_6  and  N_15
    3  A    between atoms: C_6  and  C_23
    4  A    between atoms: N_15  and  CA_21
                            x       y       z     vdW  Elec       q    Type
                         _______ _______ _______ _____ _____    ______ ____

>  <TORSDO>
F 4

$$$$
=
 OpenBabel11052422063D

 25 28  0  0  1  0  0  0  0  0999 V2000
  161.3480  206.5850  149.4490 C   0  0  0  0  0  0  0  0  0  0  0  0
  161.5740  207.9090  149.8270 C   0  0  0  0  0  0  0  0  0  0  0  0
  161.2180  205.8630  151.7520 C   0  0  0  0  0  3  0  0  0  0  0  0
  161.1550  205.9850  148.1030 C   0  0  2  0  0  3  0  0  0  0  0  0
  162.0170  203.7560  146.4960 C   0  0  0  0  0  3  0  0  0  0  0  0
  161.4630  207.1850  152.1630 C   0  0  0  0  0  3  0  0  0  0  0  0
  160.9660  204.5440  148.5030 C   0  0  0  0  0  0  0  0  0  0  0  0
  161.2040  203.4800  147.5240 C   0  0  0  0  0  3  0  0  0  0  0  0
  161.8690  209.5470  151.5750 C   0  0  0  0  0  0  0  0  0  0  0  0
  161.9490  209.9600  153.0080 C   0  0  0  0  0  1  0  0  0  0  0  0
  161.7280  208.8920  148.9030 N   0  0  0  0  0  0  0  0  0  0  0  0
  162.6910  205.0780  146.3900 C   0  0  0  0  0  3  0  0  0  0  0  0
  161.1510  205.5990  150.3850 C   0  0  0  0  0  0  0  0  0  0  0  0
  160.9560  204.3300  149.7830 N   0  0  0  0  0  0  0  0  0  0  0  0
  162.0180  210.4920  150.6100 N   0  0  0  0  0  0  0  0  0  0  0  0
  162.3400  206.1060  147.1800 C   0  0  0  0  0  3  0  0  0  0  0  0
  161.9570  210.1740  149.2890 C   0  0  0  0  0  0  0  0  0  0  0  0
  161.6380  208.2120  151.2080 C   0  0  0  0  0  0  0  0  0  0  0  0
  162.0970  211.2410  148.2630 C   0  0  0  0  0  2  0  0  0  0  0  0
  161.5100  212.4810  148.7620 N   0  0  0  0  0  2  0  0  0  0  0  0
  160.8880  213.2430  147.6750 C   0  0  2  0  0  3  0  0  0  0  0  0
  159.6230  212.5770  147.1460 C   0  0  0  0  0  1  0  0  0  0  0  0
  161.8610  213.5880  146.5880 C   0  0  0  0  0  0  0  0  0  0  0  0
  161.7490  212.9710  145.3490 O   0  0  0  0  0  0  0  0  0  0  0  0
  162.7570  214.4530  146.7750 O   0  0  0  0  0  1  0  0  0  0  0  0
  1  2  2  0  0  0  0
  1 13  1  0  0  0  0
  2 18  1  0  0  0  0
  3  6  1  0  0  0  0
  4 16  1  6  0  0  0
  4  7  1  0  0  0  0
  4  1  1  0  0  0  0
  5  8  2  0  0  0  0
  7 14  2  0  0  0  0
  8  7  1  0  0  0  0
  9 10  1  0  0  0  0
 11 17  2  0  0  0  0
 11  2  1  0  0  0  0
 12  5  1  0  0  0  0
 12 16  2  0  0  0  0
 13  3  2  0  0  0  0
 14 13  1  0  0  0  0
 15  9  2  0  0  0  0
 17 15  1  0  0  0  0
 18  9  1  0  0  0  0
 18  6  2  0  0  0  0
 19 20  1  0  0  0  0
 19 17  1  0  0  0  0
 21 22  1  6  0  0  0
 21 20  1  0  0  0  0
 23 25  1  0  0  0  0
 23 21  1  0  0  0  0
 24 23  2  0  0  0  0
M  END
>  <MODEL>
6

>  <REMARK>
 VINA RESULT:      -8.6      4.350      6.686
  Name = 
  4 active torsions:
  status: ('A' for Active; 'I' for Inactive)
    1  A    between atoms: C_2  and  CA_21
    2  A    between atoms: C_6  and  N_15
    3  A    between atoms: C_6  and  C_23
    4  A    between atoms: N_15  and  CA_21
                            x       y       z     vdW  Elec       q    Type
                         _______ _______ _______ _____ _____    ______ ____

>  <TORSDO>
F 4

$$$$
=
 OpenBabel11052422063D

 25 28  0  0  1  0  0  0  0  0999 V2000
  161.5330  205.1400  149.1900 C   0  0  0  0  0  0  0  0  0  0  0  0
  161.5200  206.0830  150.2180 C   0  0  0  0  0  0  0  0  0  0  0  0
  161.6450  206.8640  147.4990 C   0  0  0  0  0  3  0  0  0  0  0  0
  161.5820  203.6560  149.2420 C   0  0  2  0  0  3  0  0  0  0  0  0
  160.3360  201.3290  148.0900 C   0  0  0  0  0  3  0  0  0  0  0  0
  161.6150  207.8370  148.5130 C   0  0  0  0  0  3  0  0  0  0  0  0
  161.5700  203.3590  147.7640 C   0  0  0  0  0  0  0  0  0  0  0  0
  161.1390  202.0420  147.2900 C   0  0  0  0  0  3  0  0  0  0  0  0
  161.5410  208.3940  150.9150 C   0  0  0  0  0  0  0  0  0  0  0  0
  161.5790  209.8620  150.6470 C   0  0  0  0  0  1  0  0  0  0  0  0
  161.4780  205.7070  151.5220 N   0  0  0  0  0  0  0  0  0  0  0  0
  159.8610  201.8840  149.3860 C   0  0  0  0  0  3  0  0  0  0  0  0
  161.6180  205.5220  147.8730 C   0  0  0  0  0  0  0  0  0  0  0  0
  161.5990  204.4060  146.9980 N   0  0  0  0  0  0  0  0  0  0  0  0
  161.4950  207.9640  152.2040 N   0  0  0  0  0  0  0  0  0  0  0  0
  160.3920  203.0060  149.9010 C   0  0  0  0  0  3  0  0  0  0  0  0
  161.4570  206.6390  152.5100 C   0  0  0  0  0  0  0  0  0  0  0  0
  161.5570  207.4550  149.8730 C   0  0  0  0  0  0  0  0  0  0  0  0
  161.4360  206.2080  153.9330 C   0  0  0  0  0  2  0  0  0  0  0  0
  160.4620  207.0060  154.6720 N   0  0  0  0  0  2  0  0  0  0  0  0
  161.0940  207.6880  155.8060 C   0  0  2  0  0  3  0  0  0  0  0  0
  160.4480  207.3250  157.1380 C   0  0  0  0  0  1  0  0  0  0  0  0
  161.2010  209.1680  155.5960 C   0  0  0  0  0  0  0  0  0  0  0  0
  162.2470  209.8680  156.1820 O   0  0  0  0  0  1  0  0  0  0  0  0
  160.3740  209.7780  154.8670 O   0  0  0  0  0  0  0  0  0  0  0  0
  1  4  1  0  0  0  0
  1  2  1  0  0  0  0
  2 11  1  0  0  0  0
  3 13  1  0  0  0  0
  3  6  2  0  0  0  0
  4 16  1  1  0  0  0
  5 12  1  0  0  0  0
  6 18  1  0  0  0  0
  7  4  1  0  0  0  0
  8  7  1  0  0  0  0
  8  5  2  0  0  0  0
  9 15  2  0  0  0  0
 10  9  1  0  0  0  0
 11 17  2  0  0  0  0
 12 16  2  0  0  0  0
 13  1  2  0  0  0  0
 14  7  2  0  0  0  0
 14 13  1  0  0  0  0
 15 17  1  0  0  0  0
 17 19  1  0  0  0  0
 18  2  2  0  0  0  0
 18  9  1  0  0  0  0
 19 20  1  0  0  0  0
 20 21  1  0  0  0  0
 21 22  1  1  0  0  0
 23 21  1  0  0  0  0
 23 24  1  0  0  0  0
 25 23  2  0  0  0  0
M  END
>  <MODEL>
7

>  <REMARK>
 VINA RESULT:      -8.4      3.768      7.909
  Name = 
  4 active torsions:
  status: ('A' for Active; 'I' for Inactive)
    1  A    between atoms: C_2  and  CA_21
    2  A    between atoms: C_6  and  N_15
    3  A    between atoms: C_6  and  C_23
    4  A    between atoms: N_15  and  CA_21
                            x       y       z     vdW  Elec       q    Type
                         _______ _______ _______ _____ _____    ______ ____

>  <TORSDO>
F 4

$$$$
=
 OpenBabel11052422063D

 25 28  0  0  1  0  0  0  0  0999 V2000
  161.2080  206.0780  149.9380 C   0  0  0  0  0  0  0  0  0  0  0  0
  161.3930  207.2570  150.6610 C   0  0  0  0  0  0  0  0  0  0  0  0
  160.9820  204.7760  151.9630 C   0  0  0  0  0  3  0  0  0  0  0  0
  161.0890  205.8510  148.4750 C   0  0  2  0  0  3  0  0  0  0  0  0
  162.0660  204.1260  146.3860 C   0  0  0  0  0  3  0  0  0  0  0  0
  161.1830  205.9450  152.7170 C   0  0  0  0  0  3  0  0  0  0  0  0
  160.9070  204.3550  148.4730 C   0  0  0  0  0  0  0  0  0  0  0  0
  161.2100  203.5870  147.2630 C   0  0  0  0  0  3  0  0  0  0  0  0
  161.5750  208.3800  152.7900 C   0  0  0  0  0  0  0  0  0  0  0  0
  161.5800  208.4040  154.2820 C   0  0  0  0  0  1  0  0  0  0  0  0
  161.5730  208.4490  150.0360 N   0  0  0  0  0  0  0  0  0  0  0  0
  162.7210  205.4330  146.6630 C   0  0  0  0  0  3  0  0  0  0  0  0
  160.9850  204.8800  150.5730 C   0  0  0  0  0  0  0  0  0  0  0  0
  160.8410  203.8130  149.6500 N   0  0  0  0  0  0  0  0  0  0  0  0
  161.7530  209.5460  152.1140 N   0  0  0  0  0  0  0  0  0  0  0  0
  162.3140  206.2160  147.6770 C   0  0  0  0  0  3  0  0  0  0  0  0
  161.7600  209.5860  150.7550 C   0  0  0  0  0  0  0  0  0  0  0  0
  161.3860  207.1880  152.0750 C   0  0  0  0  0  0  0  0  0  0  0  0
  161.9300  210.8850  150.0520 C   0  0  0  0  0  2  0  0  0  0  0  0
  161.9620  210.6620  148.6100 N   0  0  0  0  0  2  0  0  0  0  0  0
  162.1300  211.9260  147.8860 C   0  0  2  0  0  3  0  0  0  0  0  0
  163.5750  212.4110  147.8890 C   0  0  0  0  0  1  0  0  0  0  0  0
  161.1630  212.9780  148.3390 C   0  0  0  0  0  0  0  0  0  0  0  0
  159.8120  212.8320  148.0530 O   0  0  0  0  0  0  0  0  0  0  0  0
  161.5560  213.9730  149.0030 O   0  0  0  0  0  1  0  0  0  0  0  0
  1 13  2  0  0  0  0
  1  2  1  0  0  0  0
  2 18  2  0  0  0  0
  3  6  2  0  0  0  0
  4 16  1  6  0  0  0
  4  1  1  0  0  0  0
  5 12  1  0  0  0  0
  5  8  2  0  0  0  0
  7  4  1  0  0  0  0
  7 14  2  0  0  0  0
  8  7  1  0  0  0  0
  9 10  1  0  0  0  0
 11  2  1  0  0  0  0
 11 17  2  0  0  0  0
 12 16  2  0  0  0  0
 13  3  1  0  0  0  0
 14 13  1  0  0  0  0
 15  9  2  0  0  0  0
 17 15  1  0  0  0  0
 18  6  1  0  0  0  0
 18  9  1  0  0  0  0
 19 17  1  0  0  0  0
 20 19  1  0  0  0  0
 21 22  1  1  0  0  0
 21 23  1  0  0  0  0
 21 20  1  0  0  0  0
 23 25  1  0  0  0  0
 24 23  2  0  0  0  0
M  END
>  <MODEL>
8

>  <REMARK>
 VINA RESULT:      -8.3      4.000      6.454
  Name = 
  4 active torsions:
  status: ('A' for Active; 'I' for Inactive)
    1  A    between atoms: C_2  and  CA_21
    2  A    between atoms: C_6  and  N_15
    3  A    between atoms: C_6  and  C_23
    4  A    between atoms: N_15  and  CA_21
                            x       y       z     vdW  Elec       q    Type
                         _______ _______ _______ _____ _____    ______ ____

>  <TORSDO>
F 4

$$$$
=
 OpenBabel11052422063D

 25 28  0  0  1  0  0  0  0  0999 V2000
  161.0090  206.7990  151.3630 C   0  0  0  0  0  0  0  0  0  0  0  0
  160.9890  207.6340  152.4810 C   0  0  0  0  0  0  0  0  0  0  0  0
  161.2050  204.8220  152.7410 C   0  0  0  0  0  3  0  0  0  0  0  0
  160.8420  207.1130  149.9200 C   0  0  2  0  0  3  0  0  0  0  0  0
  162.0160  206.5530  147.3510 C   0  0  0  0  0  3  0  0  0  0  0  0
  161.2040  205.6390  153.8840 C   0  0  0  0  0  3  0  0  0  0  0  0
  160.9820  205.7250  149.3500 C   0  0  0  0  0  0  0  0  0  0  0  0
  161.3570  205.5500  147.9440 C   0  0  0  0  0  3  0  0  0  0  0  0
  161.0750  207.8930  154.8790 C   0  0  0  0  0  0  0  0  0  0  0  0
  161.1770  207.3600  156.2700 C   0  0  0  0  0  1  0  0  0  0  0  0
  160.8690  208.9800  152.3560 N   0  0  0  0  0  0  0  0  0  0  0  0
  162.3970  207.7730  148.1130 C   0  0  0  0  0  3  0  0  0  0  0  0
  161.0890  205.4340  151.4940 C   0  0  0  0  0  0  0  0  0  0  0  0
  161.1120  204.7840  150.2330 N   0  0  0  0  0  0  0  0  0  0  0  0
  160.9550  209.2350  154.6980 N   0  0  0  0  0  0  0  0  0  0  0  0
  161.9040  208.0110  149.3400 C   0  0  0  0  0  3  0  0  0  0  0  0
  160.8600  209.7790  153.4550 C   0  0  0  0  0  0  0  0  0  0  0  0
  161.0940  207.0430  153.7630 C   0  0  0  0  0  0  0  0  0  0  0  0
  160.7020  211.2490  153.2990 C   0  0  0  0  0  2  0  0  0  0  0  0
  160.0730  211.5410  152.0140 N   0  0  0  0  0  2  0  0  0  0  0  0
  159.4850  212.8840  152.0100 C   0  0  2  0  0  3  0  0  0  0  0  0
  158.1500  212.9380  152.7430 C   0  0  0  0  0  1  0  0  0  0  0  0
  159.4160  213.4740  150.6330 C   0  0  0  0  0  0  0  0  0  0  0  0
  160.4530  213.2450  149.7390 O   0  0  0  0  0  0  0  0  0  0  0  0
  158.4140  214.1450  150.2680 O   0  0  0  0  0  1  0  0  0  0  0  0
  1 13  2  0  0  0  0
  1  2  1  0  0  0  0
  2 18  2  0  0  0  0
  3  6  2  0  0  0  0
  4 16  1  6  0  0  0
  4  1  1  0  0  0  0
  5  8  2  0  0  0  0
  5 12  1  0  0  0  0
  7  4  1  0  0  0  0
  7 14  2  0  0  0  0
  8  7  1  0  0  0  0
  9 10  1  0  0  0  0
 11  2  1  0  0  0  0
 11 17  2  0  0  0  0
 12 16  2  0  0  0  0
 13  3  1  0  0  0  0
 14 13  1  0  0  0  0
 15  9  2  0  0  0  0
 17 15  1  0  0  0  0
 18  6  1  0  0  0  0
 18  9  1  0  0  0  0
 19 17  1  0  0  0  0
 20 19  1  0  0  0  0
 21 20  1  0  0  0  0
 21 22  1  6  0  0  0
 23 21  1  0  0  0  0
 24 23  2  0  0  0  0
 25 23  1  0  0  0  0
M  END
>  <MODEL>
9

>  <REMARK>
 VINA RESULT:      -7.9      4.009      7.071
  Name = 
  4 active torsions:
  status: ('A' for Active; 'I' for Inactive)
    1  A    between atoms: C_2  and  CA_21
    2  A    between atoms: C_6  and  N_15
    3  A    between atoms: C_6  and  C_23
    4  A    between atoms: N_15  and  CA_21
                            x       y       z     vdW  Elec       q    Type
                         _______ _______ _______ _____ _____    ______ ____

>  <TORSDO>
F 4

$$$$
