=
 OpenBabel11062409323D

 34 36  0  0  1  0  0  0  0  0999 V2000
  161.0740  210.5040  154.6910 C   0  0  0  0  0  2  0  0  0  0  0  0
  161.3600  208.9260  152.7590 C   0  0  0  0  0  0  0  0  0  0  0  0
  161.2260  205.1070  152.7650 C   0  0  0  0  0  2  0  0  0  0  0  0
  160.7090  206.7930  154.5250 C   0  0  0  0  0  3  0  0  0  0  0  0
  161.7200  209.8860  152.0220 O   0  0  0  0  0  0  0  0  0  0  0  0
  160.5310  208.0520  154.9410 C   0  0  0  0  0  0  0  0  0  0  0  0
  160.9930  209.1570  154.1320 N   0  0  0  0  0  0  0  0  0  0  0  0
  162.1220  204.8200  151.5570 C   0  0  0  0  0  2  0  0  0  0  0  0
  161.9460  205.8670  150.4500 C   0  0  2  0  0  3  0  0  0  0  0  0
  161.5020  206.5100  153.2860 C   0  0  2  0  0  3  0  0  0  0  0  0
  162.1360  207.2890  150.9990 C   0  0  0  0  0  2  0  0  0  0  0  0
  161.2110  207.5420  152.1920 C   0  0  2  0  0  3  0  0  0  0  0  0
  160.1880  207.2830  157.2610 C   0  0  0  0  0  1  0  0  0  0  0  0
  159.7710  208.2890  156.2060 C   0  0  0  0  0  2  0  0  0  0  0  0
  160.5970  205.7000  149.7560 C   0  0  0  0  0  2  0  0  0  0  0  0
  160.3820  206.3210  147.3510 O   0  0  0  0  0  0  0  0  0  0  0  0
  161.2630  204.2920  147.9520 O   0  0  0  0  0  1  0  0  0  0  0  0
  160.7780  205.3970  148.3080 C   0  0  0  0  0  0  0  0  0  0  0  0
  159.7570  211.2440  154.4980 C   0  0  0  0  0  2  0  0  0  0  0  0
  156.0350  211.0090  154.7320 O   0  0  0  0  0  0  0  0  0  0  0  0
  158.5660  214.3890  155.6960 C   0  0  0  0  0  2  0  0  0  0  0  0
  159.2810  211.8840  155.7990 C   0  0  2  0  0  3  0  0  0  0  0  0
  156.5380  213.3230  154.6200 C   0  0  0  0  0  2  0  0  0  0  0  0
  157.8600  211.6260  156.0210 N   0  0  0  0  0  2  0  0  0  0  0  0
  157.7600  214.2150  154.4100 C   0  0  2  0  0  3  0  0  0  0  0  0
  159.6810  213.3610  155.9030 C   0  0  0  0  0  2  0  0  0  0  0  0
  156.8260  211.9240  155.0770 C   0  0  0  0  0  0  0  0  0  0  0  0
  158.6030  213.8680  153.1830 C   0  0  0  0  0  2  0  0  0  0  0  0
  157.7510  213.7550  151.9250 C   0  0  0  0  0  2  0  0  0  0  0  0
  158.5940  213.3340  150.7240 C   0  0  2  0  0  3  0  0  0  0  0  0
  159.9780  213.9540  150.7970 C   0  0  0  0  0  1  0  0  0  0  0  0
  156.7300  212.9860  149.2330 O   0  0  0  0  0  1  0  0  0  0  0  0
  157.9180  213.7000  149.4060 C   0  0  0  0  0  3  0  0  0  0  0  0
  158.7790  213.4470  148.3370 O   0  0  0  0  0  1  0  0  0  0  0  0
  2  7  1  0  0  0  0
  4  6  2  0  0  0  0
  5  2  2  0  0  0  0
  6 14  1  0  0  0  0
  7  1  1  0  0  0  0
  7  6  1  0  0  0  0
  8  3  1  0  0  0  0
  9 15  1  1  0  0  0
  9 11  1  0  0  0  0
  9  8  1  0  0  0  0
 10  3  1  6  0  0  0
 10  4  1  0  0  0  0
 12 11  1  6  0  0  0
 12  2  1  0  0  0  0
 12 10  1  0  0  0  0
 14 13  1  0  0  0  0
 16 18  2  0  0  0  0
 17 18  1  0  0  0  0
 18 15  1  0  0  0  0
 19  1  1  0  0  0  0
 20 27  2  0  0  0  0
 21 26  1  0  0  0  0
 22 19  1  6  0  0  0
 22 26  1  0  0  0  0
 22 24  1  0  0  0  0
 23 27  1  0  0  0  0
 25 28  1  6  0  0  0
 25 23  1  0  0  0  0
 25 21  1  0  0  0  0
 27 24  1  0  0  0  0
 29 28  1  0  0  0  0
 30 31  1  1  0  0  0
 30 29  1  0  0  0  0
 32 33  1  0  0  0  0
 33 30  1  0  0  0  0
 34 33  1  0  0  0  0
M  END
>  <MODEL>
1

>  <REMARK>
 VINA RESULT:      -7.0      0.000      0.000
  Name = 
  10 active torsions:
  status: ('A' for Active; 'I' for Inactive)
    1  A    between atoms: C_7  and  C_15
    2  A    between atoms: C_7  and  C_29
    3  A    between atoms: C_8  and  C_17
    4  A    between atoms: C_10  and  C_17
    5  A    between atoms: C_10  and  N_20
    6  A    between atoms: C_19  and  C_22
    7  A    between atoms: C_24  and  C_25
    8  A    between atoms: C_25  and  C_27
    9  A    between atoms: C_26  and  C_28
   10  A    between atoms: C_26  and  C_29
                            x       y       z     vdW  Elec       q    Type
                         _______ _______ _______ _____ _____    ______ ____

>  <TORSDO>
F 10

$$$$
=
 OpenBabel11062409323D

 34 36  0  0  1  0  0  0  0  0999 V2000
  161.8460  205.6290  149.3150 C   0  0  0  0  0  2  0  0  0  0  0  0
  161.7220  207.6520  150.7960 C   0  0  0  0  0  0  0  0  0  0  0  0
  160.6040  207.8650  154.4450 C   0  0  0  0  0  2  0  0  0  0  0  0
  161.0260  205.9200  152.9440 C   0  0  0  0  0  3  0  0  0  0  0  0
  161.9560  208.3980  149.8060 O   0  0  0  0  0  0  0  0  0  0  0  0
  161.4530  205.3840  151.7960 C   0  0  0  0  0  0  0  0  0  0  0  0
  161.6680  206.2220  150.6380 N   0  0  0  0  0  0  0  0  0  0  0  0
  160.1160  209.3160  154.4770 C   0  0  0  0  0  2  0  0  0  0  0  0
  160.9760  210.2300  153.5960 C   0  0  2  0  0  3  0  0  0  0  0  0
  160.6410  207.3670  153.0070 C   0  0  2  0  0  3  0  0  0  0  0  0
  161.0860  209.6770  152.1660 C   0  0  0  0  0  2  0  0  0  0  0  0
  161.5940  208.2330  152.1770 C   0  0  2  0  0  3  0  0  0  0  0  0
  160.6650  203.1240  152.3960 C   0  0  0  0  0  1  0  0  0  0  0  0
  161.7850  203.9280  151.7640 C   0  0  0  0  0  2  0  0  0  0  0  0
  162.3480  210.4550  154.2260 C   0  0  0  0  0  2  0  0  0  0  0  0
  162.8740  209.9140  156.6030 O   0  0  0  0  0  1  0  0  0  0  0  0
  161.5070  211.6810  156.0880 O   0  0  0  0  0  0  0  0  0  0  0  0
  162.2240  210.7280  155.6860 C   0  0  0  0  0  0  0  0  0  0  0  0
  160.8970  206.2680  148.3100 C   0  0  0  0  0  2  0  0  0  0  0  0
  158.8000  205.7740  145.2570 O   0  0  0  0  0  0  0  0  0  0  0  0
  163.0420  205.0400  145.7340 C   0  0  0  0  0  2  0  0  0  0  0  0
  161.6450  206.7790  147.0830 C   0  0  2  0  0  3  0  0  0  0  0  0
  160.7150  204.4080  144.9630 C   0  0  0  0  0  2  0  0  0  0  0  0
  160.7770  206.7930  145.9080 N   0  0  0  0  0  2  0  0  0  0  0  0
  161.9430  203.9780  145.7630 C   0  0  2  0  0  3  0  0  0  0  0  0
  162.9840  206.0600  146.8730 C   0  0  0  0  0  2  0  0  0  0  0  0
  160.0410  205.6620  145.4310 C   0  0  0  0  0  0  0  0  0  0  0  0
  161.6380  203.4270  147.1560 C   0  0  0  0  0  2  0  0  0  0  0  0
  160.7720  202.1760  147.0930 C   0  0  0  0  0  2  0  0  0  0  0  0
  161.3990  201.0310  147.8850 C   0  0  2  0  0  3  0  0  0  0  0  0
  161.4900  199.7770  147.0320 C   0  0  0  0  0  1  0  0  0  0  0  0
  159.5100  201.5780  149.2800 O   0  0  0  0  0  1  0  0  0  0  0  0
  160.6240  200.7430  149.1670 C   0  0  0  0  0  3  0  0  0  0  0  0
  161.4520  200.9110  150.2770 O   0  0  0  0  0  1  0  0  0  0  0  0
  1  7  1  0  0  0  0
  2 12  1  0  0  0  0
  3  8  1  0  0  0  0
  5  2  2  0  0  0  0
  6  4  2  0  0  0  0
  7  2  1  0  0  0  0
  7  6  1  0  0  0  0
  9 15  1  1  0  0  0
  9  8  1  0  0  0  0
 10  4  1  1  0  0  0
 10  3  1  0  0  0  0
 11  9  1  0  0  0  0
 12 11  1  6  0  0  0
 12 10  1  0  0  0  0
 14  6  1  0  0  0  0
 14 13  1  0  0  0  0
 15 18  1  0  0  0  0
 18 17  2  0  0  0  0
 18 16  1  0  0  0  0
 19  1  1  0  0  0  0
 20 27  2  0  0  0  0
 21 25  1  0  0  0  0
 21 26  1  0  0  0  0
 22 19  1  1  0  0  0
 23 27  1  0  0  0  0
 23 25  1  0  0  0  0
 24 22  1  0  0  0  0
 25 28  1  1  0  0  0
 26 22  1  0  0  0  0
 27 24  1  0  0  0  0
 29 28  1  0  0  0  0
 29 30  1  0  0  0  0
 30 31  1  6  0  0  0
 30 33  1  0  0  0  0
 33 32  1  0  0  0  0
 33 34  1  0  0  0  0
M  END
>  <MODEL>
2

>  <REMARK>
 VINA RESULT:      -6.2      3.874      9.599
  Name = 
  10 active torsions:
  status: ('A' for Active; 'I' for Inactive)
    1  A    between atoms: C_7  and  C_15
    2  A    between atoms: C_7  and  C_29
    3  A    between atoms: C_8  and  C_17
    4  A    between atoms: C_10  and  C_17
    5  A    between atoms: C_10  and  N_20
    6  A    between atoms: C_19  and  C_22
    7  A    between atoms: C_24  and  C_25
    8  A    between atoms: C_25  and  C_27
    9  A    between atoms: C_26  and  C_28
   10  A    between atoms: C_26  and  C_29
                            x       y       z     vdW  Elec       q    Type
                         _______ _______ _______ _____ _____    ______ ____

>  <TORSDO>
F 10

$$$$
=
 OpenBabel11062409323D

 34 36  0  0  1  0  0  0  0  0999 V2000
  161.8470  209.1300  151.7340 C   0  0  0  0  0  2  0  0  0  0  0  0
  161.8560  208.0780  149.4550 C   0  0  0  0  0  0  0  0  0  0  0  0
  161.5360  204.3810  148.5380 C   0  0  0  0  0  2  0  0  0  0  0  0
  161.2850  205.5870  150.7050 C   0  0  0  0  0  3  0  0  0  0  0  0
  162.1840  209.1820  148.9400 O   0  0  0  0  0  0  0  0  0  0  0  0
  161.2130  206.7050  151.4340 C   0  0  0  0  0  0  0  0  0  0  0  0
  161.6430  207.9670  150.8740 N   0  0  0  0  0  0  0  0  0  0  0  0
  162.2870  204.3850  147.2040 C   0  0  0  0  0  2  0  0  0  0  0  0
  162.0500  205.6780  146.4150 C   0  0  2  0  0  3  0  0  0  0  0  0
  161.9320  205.6040  149.3530 C   0  0  2  0  0  3  0  0  0  0  0  0
  162.3650  206.9140  147.2710 C   0  0  0  0  0  2  0  0  0  0  0  0
  161.5810  206.8820  148.5850 C   0  0  2  0  0  3  0  0  0  0  0  0
  161.1740  205.4650  153.5660 C   0  0  0  0  0  1  0  0  0  0  0  0
  160.6000  206.6370  152.7950 C   0  0  0  0  0  2  0  0  0  0  0  0
  160.6310  205.7190  145.8570 C   0  0  0  0  0  2  0  0  0  0  0  0
  159.7540  203.9160  144.3750 O   0  0  0  0  0  1  0  0  0  0  0  0
  161.2510  205.4550  143.5710 O   0  0  0  0  0  0  0  0  0  0  0  0
  160.5590  205.0350  144.5350 C   0  0  0  0  0  0  0  0  0  0  0  0
  160.9700  209.0380  152.9760 C   0  0  0  0  0  2  0  0  0  0  0  0
  159.4410  207.5150  156.0250 O   0  0  0  0  0  0  0  0  0  0  0  0
  160.7370  211.6060  155.4450 C   0  0  0  0  0  2  0  0  0  0  0  0
  161.7100  209.5210  154.2190 C   0  0  2  0  0  3  0  0  0  0  0  0
  159.0830  209.8510  156.2120 C   0  0  0  0  0  2  0  0  0  0  0  0
  161.2760  208.7880  155.4050 N   0  0  0  0  0  2  0  0  0  0  0  0
  159.2940  211.1070  155.3710 C   0  0  2  0  0  3  0  0  0  0  0  0
  161.6690  211.0480  154.3670 C   0  0  0  0  0  2  0  0  0  0  0  0
  159.9140  208.6630  155.8270 C   0  0  0  0  0  0  0  0  0  0  0  0
  158.7280  211.0310  153.9530 C   0  0  0  0  0  2  0  0  0  0  0  0
  158.2100  212.3820  153.4770 C   0  0  0  0  0  2  0  0  0  0  0  0
  158.4240  212.5580  151.9760 C   0  0  2  0  0  3  0  0  0  0  0  0
  159.9040  212.6910  151.6590 C   0  0  0  0  0  1  0  0  0  0  0  0
  156.5430  214.0460  152.2280 O   0  0  0  0  0  1  0  0  0  0  0  0
  157.6570  213.7610  151.4350 C   0  0  0  0  0  3  0  0  0  0  0  0
  157.2520  213.5220  150.1220 O   0  0  0  0  0  1  0  0  0  0  0  0
  1 19  1  0  0  0  0
  2  7  1  0  0  0  0
  4  6  2  0  0  0  0
  5  2  2  0  0  0  0
  6 14  1  0  0  0  0
  7  6  1  0  0  0  0
  7  1  1  0  0  0  0
  8  3  1  0  0  0  0
  9 15  1  1  0  0  0
  9  8  1  0  0  0  0
  9 11  1  0  0  0  0
 10  3  1  6  0  0  0
 10  4  1  0  0  0  0
 12 11  1  6  0  0  0
 12 10  1  0  0  0  0
 12  2  1  0  0  0  0
 14 13  1  0  0  0  0
 16 18  1  0  0  0  0
 17 18  2  0  0  0  0
 18 15  1  0  0  0  0
 22 19  1  6  0  0  0
 22 26  1  0  0  0  0
 22 24  1  0  0  0  0
 24 27  1  0  0  0  0
 25 28  1  6  0  0  0
 25 21  1  0  0  0  0
 25 23  1  0  0  0  0
 26 21  1  0  0  0  0
 27 20  2  0  0  0  0
 27 23  1  0  0  0  0
 29 28  1  0  0  0  0
 30 31  1  1  0  0  0
 30 29  1  0  0  0  0
 33 30  1  0  0  0  0
 33 32  1  0  0  0  0
 34 33  1  0  0  0  0
M  END
>  <MODEL>
3

>  <REMARK>
 VINA RESULT:      -6.1      2.165      3.669
  Name = 
  10 active torsions:
  status: ('A' for Active; 'I' for Inactive)
    1  A    between atoms: C_7  and  C_15
    2  A    between atoms: C_7  and  C_29
    3  A    between atoms: C_8  and  C_17
    4  A    between atoms: C_10  and  C_17
    5  A    between atoms: C_10  and  N_20
    6  A    between atoms: C_19  and  C_22
    7  A    between atoms: C_24  and  C_25
    8  A    between atoms: C_25  and  C_27
    9  A    between atoms: C_26  and  C_28
   10  A    between atoms: C_26  and  C_29
                            x       y       z     vdW  Elec       q    Type
                         _______ _______ _______ _____ _____    ______ ____

>  <TORSDO>
F 10

$$$$
=
 OpenBabel11062409323D

 34 36  0  0  1  0  0  0  0  0999 V2000
  161.6240  207.8410  152.4200 C   0  0  0  0  0  2  0  0  0  0  0  0
  161.7310  207.4630  149.9400 C   0  0  0  0  0  0  0  0  0  0  0  0
  161.6950  204.1500  148.0340 C   0  0  0  0  0  2  0  0  0  0  0  0
  161.3360  204.6900  150.4400 C   0  0  0  0  0  3  0  0  0  0  0  0
  161.9810  208.6860  149.7580 O   0  0  0  0  0  0  0  0  0  0  0  0
  161.1740  205.5560  151.4460 C   0  0  0  0  0  0  0  0  0  0  0  0
  161.5140  206.9490  151.2670 N   0  0  0  0  0  0  0  0  0  0  0  0
  162.4560  204.5740  146.7740 C   0  0  0  0  0  2  0  0  0  0  0  0
  162.1300  206.0150  146.3650 C   0  0  2  0  0  3  0  0  0  0  0  0
  161.9920  205.1250  149.1650 C   0  0  2  0  0  3  0  0  0  0  0  0
  162.3450  206.9860  147.5360 C   0  0  0  0  0  2  0  0  0  0  0  0
  161.5540  206.5380  148.7680 C   0  0  2  0  0  3  0  0  0  0  0  0
  160.5670  203.5570  152.7580 C   0  0  0  0  0  1  0  0  0  0  0  0
  160.5560  205.0720  152.7170 C   0  0  0  0  0  2  0  0  0  0  0  0
  160.7170  206.1110  145.7980 C   0  0  0  0  0  2  0  0  0  0  0  0
  159.8270  204.1920  144.4760 O   0  0  0  0  0  1  0  0  0  0  0  0
  161.2270  205.7250  143.5020 O   0  0  0  0  0  0  0  0  0  0  0  0
  160.6010  205.3440  144.5260 C   0  0  0  0  0  0  0  0  0  0  0  0
  160.6280  208.9880  152.3050 C   0  0  0  0  0  2  0  0  0  0  0  0
  162.2040  209.7640  155.6020 O   0  0  0  0  0  0  0  0  0  0  0  0
  159.9890  212.4300  153.0050 C   0  0  0  0  0  2  0  0  0  0  0  0
  161.3370  210.3370  152.2320 C   0  0  2  0  0  3  0  0  0  0  0  0
  160.5500  211.4280  155.2610 C   0  0  0  0  0  2  0  0  0  0  0  0
  162.1360  210.5740  153.4320 N   0  0  0  0  0  2  0  0  0  0  0  0
  159.4430  211.7460  154.2580 C   0  0  2  0  0  3  0  0  0  0  0  0
  160.3820  211.4810  151.8700 C   0  0  0  0  0  2  0  0  0  0  0  0
  161.6290  210.5100  154.7690 C   0  0  0  0  0  0  0  0  0  0  0  0
  158.4840  210.5900  153.9750 C   0  0  0  0  0  2  0  0  0  0  0  0
  157.1410  210.7870  154.6650 C   0  0  0  0  0  2  0  0  0  0  0  0
  156.9610  212.2340  155.1180 C   0  0  2  0  0  3  0  0  0  0  0  0
  156.5580  212.2900  156.5820 C   0  0  0  0  0  1  0  0  0  0  0  0
  156.5600  213.6680  153.2210 O   0  0  0  0  0  1  0  0  0  0  0  0
  155.9380  212.9700  154.2590 C   0  0  0  0  0  3  0  0  0  0  0  0
  155.1980  213.8560  155.0440 O   0  0  0  0  0  1  0  0  0  0  0  0
  2  7  1  0  0  0  0
  4  6  2  0  0  0  0
  5  2  2  0  0  0  0
  6 14  1  0  0  0  0
  7  6  1  0  0  0  0
  7  1  1  0  0  0  0
  8  3  1  0  0  0  0
  9 15  1  1  0  0  0
  9  8  1  0  0  0  0
  9 11  1  0  0  0  0
 10  3  1  6  0  0  0
 10  4  1  0  0  0  0
 12 11  1  6  0  0  0
 12 10  1  0  0  0  0
 12  2  1  0  0  0  0
 14 13  1  0  0  0  0
 16 18  1  0  0  0  0
 17 18  2  0  0  0  0
 18 15  1  0  0  0  0
 19  1  1  0  0  0  0
 21 25  1  0  0  0  0
 22 19  1  1  0  0  0
 22 24  1  0  0  0  0
 24 27  1  0  0  0  0
 25 28  1  6  0  0  0
 25 23  1  0  0  0  0
 26 22  1  0  0  0  0
 26 21  1  0  0  0  0
 27 23  1  0  0  0  0
 27 20  2  0  0  0  0
 28 29  1  0  0  0  0
 29 30  1  0  0  0  0
 30 31  1  1  0  0  0
 32 33  1  0  0  0  0
 33 34  1  0  0  0  0
 33 30  1  0  0  0  0
M  END
>  <MODEL>
4

>  <REMARK>
 VINA RESULT:      -6.0      2.648      4.533
  Name = 
  10 active torsions:
  status: ('A' for Active; 'I' for Inactive)
    1  A    between atoms: C_7  and  C_15
    2  A    between atoms: C_7  and  C_29
    3  A    between atoms: C_8  and  C_17
    4  A    between atoms: C_10  and  C_17
    5  A    between atoms: C_10  and  N_20
    6  A    between atoms: C_19  and  C_22
    7  A    between atoms: C_24  and  C_25
    8  A    between atoms: C_25  and  C_27
    9  A    between atoms: C_26  and  C_28
   10  A    between atoms: C_26  and  C_29
                            x       y       z     vdW  Elec       q    Type
                         _______ _______ _______ _____ _____    ______ ____

>  <TORSDO>
F 10

$$$$
=
 OpenBabel11062409323D

 34 36  0  0  1  0  0  0  0  0999 V2000
  161.5530  207.5200  153.6730 C   0  0  0  0  0  2  0  0  0  0  0  0
  161.3770  206.0280  151.6610 C   0  0  0  0  0  0  0  0  0  0  0  0
  161.1820  207.0180  147.9740 C   0  0  0  0  0  2  0  0  0  0  0  0
  161.6170  208.3510  150.0350 C   0  0  0  0  0  3  0  0  0  0  0  0
  161.1960  205.0290  152.4100 O   0  0  0  0  0  0  0  0  0  0  0  0
  161.8490  208.4560  151.3470 C   0  0  0  0  0  0  0  0  0  0  0  0
  161.5880  207.3370  152.2240 N   0  0  0  0  0  0  0  0  0  0  0  0
  160.4240  205.8060  147.4260 C   0  0  0  0  0  2  0  0  0  0  0  0
  160.8250  204.5080  148.1360 C   0  0  2  0  0  3  0  0  0  0  0  0
  160.9640  207.1230  149.4770 C   0  0  2  0  0  3  0  0  0  0  0  0
  160.6910  204.6460  149.6600 C   0  0  0  0  0  2  0  0  0  0  0  0
  161.4770  205.8570  150.1700 C   0  0  2  0  0  3  0  0  0  0  0  0
  162.4910  210.7700  150.7810 C   0  0  0  0  0  1  0  0  0  0  0  0
  162.4620  209.7150  151.8700 C   0  0  0  0  0  2  0  0  0  0  0  0
  162.2310  204.0800  147.7260 C   0  0  0  0  0  2  0  0  0  0  0  0
  161.5710  203.1880  145.4930 O   0  0  0  0  0  0  0  0  0  0  0  0
  163.2170  204.7740  145.6700 O   0  0  0  0  0  1  0  0  0  0  0  0
  162.3650  204.0450  146.2420 C   0  0  0  0  0  0  0  0  0  0  0  0
  160.6040  208.6500  154.0460 C   0  0  0  0  0  2  0  0  0  0  0  0
  157.4400  209.6630  155.7560 O   0  0  0  0  0  0  0  0  0  0  0  0
  161.2060  211.7960  155.6220 C   0  0  0  0  0  2  0  0  0  0  0  0
  160.9220  209.2120  155.4280 C   0  0  2  0  0  3  0  0  0  0  0  0
  158.6850  211.6570  155.4510 C   0  0  0  0  0  2  0  0  0  0  0  0
  159.7020  209.4230  156.2020 N   0  0  0  0  0  2  0  0  0  0  0  0
  159.9760  212.1010  154.7680 C   0  0  2  0  0  3  0  0  0  0  0  0
  161.8500  210.4320  155.3630 C   0  0  0  0  0  2  0  0  0  0  0  0
  158.5810  210.1920  155.7540 C   0  0  0  0  0  0  0  0  0  0  0  0
  160.1060  211.6760  153.3050 C   0  0  0  0  0  2  0  0  0  0  0  0
  158.7530  211.6230  152.6090 C   0  0  0  0  0  2  0  0  0  0  0  0
  158.5900  212.7830  151.6300 C   0  0  2  0  0  3  0  0  0  0  0  0
  159.9440  213.3630  151.2570 C   0  0  0  0  0  1  0  0  0  0  0  0
  156.8510  213.3680  153.1950 O   0  0  0  0  0  1  0  0  0  0  0  0
  157.6840  213.8730  152.1940 C   0  0  0  0  0  3  0  0  0  0  0  0
  156.9110  214.4310  151.1750 O   0  0  0  0  0  1  0  0  0  0  0  0
  1 19  1  0  0  0  0
  2  7  1  0  0  0  0
  2  5  2  0  0  0  0
  4  6  2  0  0  0  0
  6 14  1  0  0  0  0
  6  7  1  0  0  0  0
  7  1  1  0  0  0  0
  8  3  1  0  0  0  0
  8  9  1  0  0  0  0
  9 15  1  1  0  0  0
  9 11  1  0  0  0  0
 10  3  1  6  0  0  0
 10  4  1  0  0  0  0
 10 12  1  0  0  0  0
 12 11  1  6  0  0  0
 12  2  1  0  0  0  0
 13 14  1  0  0  0  0
 16 18  2  0  0  0  0
 17 18  1  0  0  0  0
 18 15  1  0  0  0  0
 22 19  1  6  0  0  0
 22 24  1  0  0  0  0
 23 27  1  0  0  0  0
 25 28  1  6  0  0  0
 25 23  1  0  0  0  0
 25 21  1  0  0  0  0
 26 22  1  0  0  0  0
 26 21  1  0  0  0  0
 27 20  2  0  0  0  0
 27 24  1  0  0  0  0
 29 28  1  0  0  0  0
 30 31  1  1  0  0  0
 30 33  1  0  0  0  0
 30 29  1  0  0  0  0
 33 32  1  0  0  0  0
 34 33  1  0  0  0  0
M  END
>  <MODEL>
5

>  <REMARK>
 VINA RESULT:      -5.9      2.086      3.601
  Name = 
  10 active torsions:
  status: ('A' for Active; 'I' for Inactive)
    1  A    between atoms: C_7  and  C_15
    2  A    between atoms: C_7  and  C_29
    3  A    between atoms: C_8  and  C_17
    4  A    between atoms: C_10  and  C_17
    5  A    between atoms: C_10  and  N_20
    6  A    between atoms: C_19  and  C_22
    7  A    between atoms: C_24  and  C_25
    8  A    between atoms: C_25  and  C_27
    9  A    between atoms: C_26  and  C_28
   10  A    between atoms: C_26  and  C_29
                            x       y       z     vdW  Elec       q    Type
                         _______ _______ _______ _____ _____    ______ ____

>  <TORSDO>
F 10

$$$$
=
 OpenBabel11062409323D

 34 36  0  0  1  0  0  0  0  0999 V2000
  161.9450  206.2590  149.6110 C   0  0  0  0  0  2  0  0  0  0  0  0
  161.2390  207.1250  151.8600 C   0  0  0  0  0  0  0  0  0  0  0  0
  161.5570  210.6710  153.2520 C   0  0  0  0  0  2  0  0  0  0  0  0
  161.9640  209.7320  150.9790 C   0  0  0  0  0  3  0  0  0  0  0  0
  161.0010  205.9470  152.2450 O   0  0  0  0  0  0  0  0  0  0  0  0
  161.9190  208.7390  150.0850 C   0  0  0  0  0  0  0  0  0  0  0  0
  161.7060  207.3770  150.5210 N   0  0  0  0  0  0  0  0  0  0  0  0
  161.6190  210.3510  154.7480 C   0  0  0  0  0  2  0  0  0  0  0  0
  160.7240  209.1620  155.1190 C   0  0  2  0  0  3  0  0  0  0  0  0
  161.9240  209.4320  152.4470 C   0  0  2  0  0  3  0  0  0  0  0  0
  161.0360  207.9400  154.2430 C   0  0  0  0  0  2  0  0  0  0  0  0
  160.9450  208.2960  152.7560 C   0  0  2  0  0  3  0  0  0  0  0  0
  161.9550  210.5790  148.4430 C   0  0  0  0  0  1  0  0  0  0  0  0
  162.0050  209.0760  148.6320 C   0  0  0  0  0  2  0  0  0  0  0  0
  159.2500  209.5520  155.0480 C   0  0  0  0  0  2  0  0  0  0  0  0
  159.3040  210.7220  157.2490 O   0  0  0  0  0  1  0  0  0  0  0  0
  158.4140  211.7550  155.4060 O   0  0  0  0  0  0  0  0  0  0  0  0
  158.9730  210.7420  155.9020 C   0  0  0  0  0  0  0  0  0  0  0  0
  161.1190  206.4180  148.3410 C   0  0  0  0  0  2  0  0  0  0  0  0
  159.0880  205.8630  145.2550 O   0  0  0  0  0  0  0  0  0  0  0  0
  163.0390  204.3400  146.1640 C   0  0  0  0  0  2  0  0  0  0  0  0
  162.0100  206.5410  147.1090 C   0  0  2  0  0  3  0  0  0  0  0  0
  160.6630  204.0920  145.3280 C   0  0  0  0  0  2  0  0  0  0  0  0
  161.2140  206.5370  145.8840 N   0  0  0  0  0  2  0  0  0  0  0  0
  161.7320  203.5560  146.2770 C   0  0  2  0  0  3  0  0  0  0  0  0
  163.1630  205.5290  147.1190 C   0  0  0  0  0  2  0  0  0  0  0  0
  160.2650  205.5230  145.5380 C   0  0  0  0  0  0  0  0  0  0  0  0
  161.2580  203.3300  147.7130 C   0  0  0  0  0  2  0  0  0  0  0  0
  161.2170  201.8490  148.0680 C   0  0  0  0  0  2  0  0  0  0  0  0
  160.7580  201.6400  149.5090 C   0  0  2  0  0  3  0  0  0  0  0  0
  159.2770  201.3060  149.5560 C   0  0  0  0  0  1  0  0  0  0  0  0
  161.5820  202.4810  151.6130 O   0  0  0  0  0  1  0  0  0  0  0  0
  161.0540  202.8590  150.3770 C   0  0  0  0  0  3  0  0  0  0  0  0
  159.8910  203.6060  150.5700 O   0  0  0  0  0  1  0  0  0  0  0  0
  1  7  1  0  0  0  0
  2  5  2  0  0  0  0
  2 12  1  0  0  0  0
  3  8  1  0  0  0  0
  6  7  1  0  0  0  0
  6  4  2  0  0  0  0
  7  2  1  0  0  0  0
  8  9  1  0  0  0  0
  9 15  1  6  0  0  0
 10  4  1  6  0  0  0
 10 12  1  0  0  0  0
 10  3  1  0  0  0  0
 11  9  1  0  0  0  0
 12 11  1  1  0  0  0
 13 14  1  0  0  0  0
 14  6  1  0  0  0  0
 15 18  1  0  0  0  0
 17 18  2  0  0  0  0
 18 16  1  0  0  0  0
 19  1  1  0  0  0  0
 20 27  2  0  0  0  0
 21 25  1  0  0  0  0
 21 26  1  0  0  0  0
 22 26  1  0  0  0  0
 22 19  1  1  0  0  0
 23 27  1  0  0  0  0
 23 25  1  0  0  0  0
 24 22  1  0  0  0  0
 25 28  1  1  0  0  0
 27 24  1  0  0  0  0
 28 29  1  0  0  0  0
 29 30  1  0  0  0  0
 30 31  1  6  0  0  0
 30 33  1  0  0  0  0
 33 34  1  0  0  0  0
 33 32  1  0  0  0  0
M  END
>  <MODEL>
6

>  <REMARK>
 VINA RESULT:      -5.9      3.517      9.562
  Name = 
  10 active torsions:
  status: ('A' for Active; 'I' for Inactive)
    1  A    between atoms: C_7  and  C_15
    2  A    between atoms: C_7  and  C_29
    3  A    between atoms: C_8  and  C_17
    4  A    between atoms: C_10  and  C_17
    5  A    between atoms: C_10  and  N_20
    6  A    between atoms: C_19  and  C_22
    7  A    between atoms: C_24  and  C_25
    8  A    between atoms: C_25  and  C_27
    9  A    between atoms: C_26  and  C_28
   10  A    between atoms: C_26  and  C_29
                            x       y       z     vdW  Elec       q    Type
                         _______ _______ _______ _____ _____    ______ ____

>  <TORSDO>
F 10

$$$$
=
 OpenBabel11062409323D

 34 36  0  0  1  0  0  0  0  0999 V2000
  162.6530  205.8220  152.0000 C   0  0  0  0  0  2  0  0  0  0  0  0
  161.3230  207.3680  153.4650 C   0  0  0  0  0  0  0  0  0  0  0  0
  160.6620  211.1040  153.0020 C   0  0  0  0  0  2  0  0  0  0  0  0
  161.7250  209.4050  151.5200 C   0  0  0  0  0  3  0  0  0  0  0  0
  161.2290  206.4650  154.3410 O   0  0  0  0  0  0  0  0  0  0  0  0
  162.0630  208.1480  151.2160 C   0  0  0  0  0  0  0  0  0  0  0  0
  162.0160  207.1180  152.2280 N   0  0  0  0  0  0  0  0  0  0  0  0
  160.4530  211.5080  154.4640 C   0  0  0  0  0  2  0  0  0  0  0  0
  159.7360  210.4140  155.2650 C   0  0  2  0  0  3  0  0  0  0  0  0
  161.4210  209.7860  152.9370 C   0  0  2  0  0  3  0  0  0  0  0  0
  160.4540  209.0630  155.1240 C   0  0  0  0  0  2  0  0  0  0  0  0
  160.6270  208.6880  153.6500 C   0  0  2  0  0  3  0  0  0  0  0  0
  161.9600  208.9430  148.8830 C   0  0  0  0  0  1  0  0  0  0  0  0
  162.4020  207.8190  149.7980 C   0  0  0  0  0  2  0  0  0  0  0  0
  158.2670  210.3220  154.8600 C   0  0  0  0  0  2  0  0  0  0  0  0
  157.5390  212.0600  156.4930 O   0  0  0  0  0  1  0  0  0  0  0  0
  156.9180  212.2020  154.2910 O   0  0  0  0  0  0  0  0  0  0  0  0
  157.5450  211.5840  155.1890 C   0  0  0  0  0  0  0  0  0  0  0  0
  161.9620  205.0800  150.8630 C   0  0  0  0  0  2  0  0  0  0  0  0
  162.9900  201.6760  152.0100 O   0  0  0  0  0  0  0  0  0  0  0  0
  159.5310  202.7680  149.6430 C   0  0  0  0  0  2  0  0  0  0  0  0
  160.7400  204.3130  151.3600 C   0  0  2  0  0  3  0  0  0  0  0  0
  161.5540  201.3350  150.1550 C   0  0  0  0  0  2  0  0  0  0  0  0
  161.1330  203.0630  152.0060 N   0  0  0  0  0  2  0  0  0  0  0  0
  160.8310  202.1740  149.1030 C   0  0  2  0  0  3  0  0  0  0  0  0
  159.6680  204.1550  150.2740 C   0  0  0  0  0  2  0  0  0  0  0  0
  161.9600  202.0640  151.4010 C   0  0  0  0  0  0  0  0  0  0  0  0
  161.7190  203.1740  148.3620 C   0  0  0  0  0  2  0  0  0  0  0  0
  161.3320  203.2920  146.8930 C   0  0  0  0  0  2  0  0  0  0  0  0
  161.7100  204.6610  146.3320 C   0  0  2  0  0  3  0  0  0  0  0  0
  161.1700  205.7710  147.2180 C   0  0  0  0  0  1  0  0  0  0  0  0
  160.4590  206.0070  144.7700 O   0  0  0  0  0  1  0  0  0  0  0  0
  161.2140  204.8390  144.9000 C   0  0  0  0  0  3  0  0  0  0  0  0
  160.4470  203.7370  144.5170 O   0  0  0  0  0  1  0  0  0  0  0  0
  1  7  1  0  0  0  0
  2 12  1  0  0  0  0
  2  5  2  0  0  0  0
  3  8  1  0  0  0  0
  6  4  2  0  0  0  0
  6  7  1  0  0  0  0
  7  2  1  0  0  0  0
  8  9  1  0  0  0  0
  9 15  1  6  0  0  0
 10  4  1  6  0  0  0
 10  3  1  0  0  0  0
 10 12  1  0  0  0  0
 11  9  1  0  0  0  0
 12 11  1  1  0  0  0
 13 14  1  0  0  0  0
 14  6  1  0  0  0  0
 15 18  1  0  0  0  0
 17 18  2  0  0  0  0
 18 16  1  0  0  0  0
 19  1  1  0  0  0  0
 21 26  1  0  0  0  0
 22 19  1  6  0  0  0
 22 24  1  0  0  0  0
 23 27  1  0  0  0  0
 25 28  1  1  0  0  0
 25 21  1  0  0  0  0
 25 23  1  0  0  0  0
 26 22  1  0  0  0  0
 27 24  1  0  0  0  0
 27 20  2  0  0  0  0
 29 28  1  0  0  0  0
 30 29  1  0  0  0  0
 30 31  1  1  0  0  0
 32 33  1  0  0  0  0
 33 30  1  0  0  0  0
 34 33  1  0  0  0  0
M  END
>  <MODEL>
7

>  <REMARK>
 VINA RESULT:      -5.6      3.001      8.997
  Name = 
  10 active torsions:
  status: ('A' for Active; 'I' for Inactive)
    1  A    between atoms: C_7  and  C_15
    2  A    between atoms: C_7  and  C_29
    3  A    between atoms: C_8  and  C_17
    4  A    between atoms: C_10  and  C_17
    5  A    between atoms: C_10  and  N_20
    6  A    between atoms: C_19  and  C_22
    7  A    between atoms: C_24  and  C_25
    8  A    between atoms: C_25  and  C_27
    9  A    between atoms: C_26  and  C_28
   10  A    between atoms: C_26  and  C_29
                            x       y       z     vdW  Elec       q    Type
                         _______ _______ _______ _____ _____    ______ ____

>  <TORSDO>
F 10

$$$$
=
 OpenBabel11062409323D

 34 36  0  0  1  0  0  0  0  0999 V2000
  161.5730  207.3700  153.5160 C   0  0  0  0  0  2  0  0  0  0  0  0
  161.4310  206.0080  151.4110 C   0  0  0  0  0  0  0  0  0  0  0  0
  161.1820  207.2300  147.7980 C   0  0  0  0  0  2  0  0  0  0  0  0
  161.5880  208.4380  149.9390 C   0  0  0  0  0  3  0  0  0  0  0  0
  161.2870  204.9570  152.0940 O   0  0  0  0  0  0  0  0  0  0  0  0
  161.8250  208.4650  151.2550 C   0  0  0  0  0  0  0  0  0  0  0  0
  161.6050  207.2830  152.0570 N   0  0  0  0  0  0  0  0  0  0  0  0
  160.4580  206.0330  147.1750 C   0  0  0  0  0  2  0  0  0  0  0  0
  160.9050  204.7040  147.7970 C   0  0  2  0  0  3  0  0  0  0  0  0
  160.9710  207.2290  149.3050 C   0  0  2  0  0  3  0  0  0  0  0  0
  160.7760  204.7390  149.3270 C   0  0  0  0  0  2  0  0  0  0  0  0
  161.5270  205.9380  149.9120 C   0  0  2  0  0  3  0  0  0  0  0  0
  161.5800  210.9130  151.4450 C   0  0  0  0  0  1  0  0  0  0  0  0
  162.4010  209.7060  151.8560 C   0  0  0  0  0  2  0  0  0  0  0  0
  162.3210  204.3480  147.3530 C   0  0  0  0  0  2  0  0  0  0  0  0
  163.3950  204.3970  145.1030 O   0  0  0  0  0  0  0  0  0  0  0  0
  161.4080  203.2970  145.4190 O   0  0  0  0  0  1  0  0  0  0  0  0
  162.3480  203.9740  145.9110 C   0  0  0  0  0  0  0  0  0  0  0  0
  161.1550  208.7660  153.9590 C   0  0  0  0  0  2  0  0  0  0  0  0
  159.7310  207.4790  157.1650 O   0  0  0  0  0  0  0  0  0  0  0  0
  161.2360  211.4500  156.3110 C   0  0  0  0  0  2  0  0  0  0  0  0
  162.0000  209.2550  155.1310 C   0  0  2  0  0  3  0  0  0  0  0  0
  159.5290  209.8390  157.2610 C   0  0  0  0  0  2  0  0  0  0  0  0
  161.5980  208.6040  156.3750 N   0  0  0  0  0  2  0  0  0  0  0  0
  159.7640  211.0410  156.3480 C   0  0  2  0  0  3  0  0  0  0  0  0
  162.0620  210.7860  155.2080 C   0  0  0  0  0  2  0  0  0  0  0  0
  160.2600  208.5850  156.8830 C   0  0  0  0  0  0  0  0  0  0  0  0
  159.1060  210.9390  154.9720 C   0  0  0  0  0  2  0  0  0  0  0  0
  157.6510  210.4970  155.0720 C   0  0  0  0  0  2  0  0  0  0  0  0
  156.7050  211.6930  154.9960 C   0  0  2  0  0  3  0  0  0  0  0  0
  157.2290  212.7290  154.0160 C   0  0  0  0  0  1  0  0  0  0  0  0
  155.2770  211.9090  156.9270 O   0  0  0  0  0  1  0  0  0  0  0  0
  156.4860  212.3250  156.3680 C   0  0  0  0  0  3  0  0  0  0  0  0
  156.5020  213.7170  156.2630 O   0  0  0  0  0  1  0  0  0  0  0  0
  1 19  1  0  0  0  0
  2  7  1  0  0  0  0
  2  5  2  0  0  0  0
  4  6  2  0  0  0  0
  6 14  1  0  0  0  0
  6  7  1  0  0  0  0
  7  1  1  0  0  0  0
  8  9  1  0  0  0  0
  8  3  1  0  0  0  0
  9 15  1  1  0  0  0
  9 11  1  0  0  0  0
 10  3  1  6  0  0  0
 10 12  1  0  0  0  0
 10  4  1  0  0  0  0
 12 11  1  6  0  0  0
 12  2  1  0  0  0  0
 13 14  1  0  0  0  0
 16 18  2  0  0  0  0
 17 18  1  0  0  0  0
 18 15  1  0  0  0  0
 21 25  1  0  0  0  0
 22 19  1  6  0  0  0
 22 26  1  0  0  0  0
 22 24  1  0  0  0  0
 24 27  1  0  0  0  0
 25 28  1  6  0  0  0
 25 23  1  0  0  0  0
 26 21  1  0  0  0  0
 27 20  2  0  0  0  0
 27 23  1  0  0  0  0
 28 29  1  0  0  0  0
 30 31  1  6  0  0  0
 30 29  1  0  0  0  0
 30 33  1  0  0  0  0
 33 32  1  0  0  0  0
 34 33  1  0  0  0  0
M  END
>  <MODEL>
8

>  <REMARK>
 VINA RESULT:      -5.3      2.950      4.709
  Name = 
  10 active torsions:
  status: ('A' for Active; 'I' for Inactive)
    1  A    between atoms: C_7  and  C_15
    2  A    between atoms: C_7  and  C_29
    3  A    between atoms: C_8  and  C_17
    4  A    between atoms: C_10  and  C_17
    5  A    between atoms: C_10  and  N_20
    6  A    between atoms: C_19  and  C_22
    7  A    between atoms: C_24  and  C_25
    8  A    between atoms: C_25  and  C_27
    9  A    between atoms: C_26  and  C_28
   10  A    between atoms: C_26  and  C_29
                            x       y       z     vdW  Elec       q    Type
                         _______ _______ _______ _____ _____    ______ ____

>  <TORSDO>
F 10

$$$$
=
 OpenBabel11062409323D

 34 36  0  0  1  0  0  0  0  0999 V2000
  161.7660  207.7890  152.5170 C   0  0  0  0  0  2  0  0  0  0  0  0
  161.7970  207.4460  150.0300 C   0  0  0  0  0  0  0  0  0  0  0  0
  161.6070  204.1670  148.0770 C   0  0  0  0  0  2  0  0  0  0  0  0
  161.3280  204.6800  150.5000 C   0  0  0  0  0  3  0  0  0  0  0  0
  162.0800  208.6640  149.8600 O   0  0  0  0  0  0  0  0  0  0  0  0
  161.2190  205.5340  151.5220 C   0  0  0  0  0  0  0  0  0  0  0  0
  161.5980  206.9190  151.3550 N   0  0  0  0  0  0  0  0  0  0  0  0
  162.3480  204.5860  146.8040 C   0  0  0  0  0  2  0  0  0  0  0  0
  162.0580  206.0440  146.4250 C   0  0  2  0  0  3  0  0  0  0  0  0
  161.9640  205.1140  149.2140 C   0  0  2  0  0  3  0  0  0  0  0  0
  162.3330  206.9880  147.6040 C   0  0  0  0  0  2  0  0  0  0  0  0
  161.5600  206.5460  148.8500 C   0  0  2  0  0  3  0  0  0  0  0  0
  160.4540  203.5440  152.7630 C   0  0  0  0  0  1  0  0  0  0  0  0
  160.6190  205.0500  152.8020 C   0  0  0  0  0  2  0  0  0  0  0  0
  160.6330  206.1920  145.8970 C   0  0  0  0  0  2  0  0  0  0  0  0
  161.2090  205.8550  143.4940 O   0  0  0  0  0  0  0  0  0  0  0  0
  159.6360  204.5310  144.5090 O   0  0  0  0  0  1  0  0  0  0  0  0
  160.4680  205.4710  144.6030 C   0  0  0  0  0  0  0  0  0  0  0  0
  160.4650  208.5140  152.8350 C   0  0  0  0  0  2  0  0  0  0  0  0
  163.2830  210.4220  154.3760 O   0  0  0  0  0  0  0  0  0  0  0  0
  159.2170  211.7470  153.6930 C   0  0  0  0  0  2  0  0  0  0  0  0
  160.4760  209.9410  152.2970 C   0  0  2  0  0  3  0  0  0  0  0  0
  161.2950  211.4830  155.1130 C   0  0  0  0  0  2  0  0  0  0  0  0
  161.6820  210.6500  152.7160 N   0  0  0  0  0  2  0  0  0  0  0  0
  159.7870  211.2640  155.0260 C   0  0  2  0  0  3  0  0  0  0  0  0
  159.1680  210.6870  152.5900 C   0  0  0  0  0  2  0  0  0  0  0  0
  162.1150  210.7780  154.0740 C   0  0  0  0  0  0  0  0  0  0  0  0
  159.3170  209.8690  155.4420 C   0  0  0  0  0  2  0  0  0  0  0  0
  159.6720  209.5620  156.8910 C   0  0  0  0  0  2  0  0  0  0  0  0
  160.4340  208.2440  157.0050 C   0  0  2  0  0  3  0  0  0  0  0  0
  161.9310  208.4940  157.0550 C   0  0  0  0  0  1  0  0  0  0  0  0
  158.9200  206.5870  156.1230 O   0  0  0  0  0  1  0  0  0  0  0  0
  160.0930  207.2960  155.8580 C   0  0  0  0  0  3  0  0  0  0  0  0
  161.1450  206.4040  155.6440 O   0  0  0  0  0  1  0  0  0  0  0  0
  1 19  1  0  0  0  0
  2  7  1  0  0  0  0
  4  6  2  0  0  0  0
  5  2  2  0  0  0  0
  6 14  1  0  0  0  0
  7  6  1  0  0  0  0
  7  1  1  0  0  0  0
  8  3  1  0  0  0  0
  9 15  1  1  0  0  0
  9  8  1  0  0  0  0
  9 11  1  0  0  0  0
 10  3  1  6  0  0  0
 10  4  1  0  0  0  0
 12 11  1  6  0  0  0
 12 10  1  0  0  0  0
 12  2  1  0  0  0  0
 13 14  1  0  0  0  0
 16 18  2  0  0  0  0
 17 18  1  0  0  0  0
 18 15  1  0  0  0  0
 21 25  1  0  0  0  0
 22 26  1  0  0  0  0
 22 24  1  0  0  0  0
 22 19  1  1  0  0  0
 24 27  1  0  0  0  0
 25 23  1  0  0  0  0
 25 28  1  6  0  0  0
 26 21  1  0  0  0  0
 27 20  2  0  0  0  0
 27 23  1  0  0  0  0
 28 29  1  0  0  0  0
 29 30  1  0  0  0  0
 30 31  1  6  0  0  0
 33 32  1  0  0  0  0
 33 30  1  0  0  0  0
 34 33  1  0  0  0  0
M  END
>  <MODEL>
9

>  <REMARK>
 VINA RESULT:      -5.2      2.982      5.444
  Name = 
  10 active torsions:
  status: ('A' for Active; 'I' for Inactive)
    1  A    between atoms: C_7  and  C_15
    2  A    between atoms: C_7  and  C_29
    3  A    between atoms: C_8  and  C_17
    4  A    between atoms: C_10  and  C_17
    5  A    between atoms: C_10  and  N_20
    6  A    between atoms: C_19  and  C_22
    7  A    between atoms: C_24  and  C_25
    8  A    between atoms: C_25  and  C_27
    9  A    between atoms: C_26  and  C_28
   10  A    between atoms: C_26  and  C_29
                            x       y       z     vdW  Elec       q    Type
                         _______ _______ _______ _____ _____    ______ ____

>  <TORSDO>
F 10

$$$$
