=
 OpenBabel11062409213D

 37 37  0  0  1  0  0  0  0  0999 V2000
  161.0360  206.2460  151.3740 C   0  0  2  0  0  3  0  0  0  0  0  0
  160.8670  208.0150  153.1830 N   0  0  0  0  0  2  0  0  0  0  0  0
  161.5060  207.8700  155.4330 O   0  0  0  0  0  0  0  0  0  0  0  0
  161.2990  206.7120  152.7730 C   0  0  0  0  0  0  0  0  0  0  0  0
  161.0010  208.5550  154.5010 C   0  0  0  0  0  0  0  0  0  0  0  0
  161.8750  205.9360  153.5820 O   0  0  0  0  0  0  0  0  0  0  0  0
  160.5140  209.9430  154.7660 C   0  0  2  0  0  3  0  0  0  0  0  0
  159.4880  209.9380  155.8840 C   0  0  0  0  0  1  0  0  0  0  0  0
  160.5020  211.7960  153.2580 O   0  0  0  0  0  1  0  0  0  0  0  0
  159.9100  210.5590  153.5160 C   0  0  0  0  0  2  0  0  0  0  0  0
  162.0140  205.3290  150.9540 O   0  0  0  0  0  0  0  0  0  0  0  0
  161.3540  204.1250  150.6450 C   0  0  0  0  0  0  0  0  0  0  0  0
  160.2420  203.6870  151.5790 C   0  0  0  0  0  2  0  0  0  0  0  0
  161.6230  203.0620  151.6870 C   0  0  0  0  0  2  0  0  0  0  0  0
  161.3830  203.5790  149.2140 C   0  0  1  0  0  3  0  0  0  0  0  0
  160.5360  202.3160  149.1070 C   0  0  0  0  0  2  0  0  0  0  0  0
  161.3970  201.0960  148.8200 C   0  0  0  0  0  2  0  0  0  0  0  0
  161.1870  200.6200  147.3950 C   0  0  0  0  0  1  0  0  0  0  0  0
  160.9040  204.6240  148.2120 C   0  0  0  0  0  2  0  0  0  0  0  0
  162.6700  205.7800  147.1600 O   0  0  0  0  0  0  0  0  0  0  0  0
  161.9130  204.8230  147.1280 C   0  0  0  0  0  0  0  0  0  0  0  0
  161.9590  203.8770  145.9720 C   0  0  0  0  0  2  0  0  0  0  0  0
  160.9370  204.2350  144.9410 C   0  0  0  0  0  3  0  0  0  0  0  0
  161.1480  205.2370  144.0900 C   0  0  0  0  0  2  0  0  0  0  0  0
  160.9280  207.4180  150.3920 C   0  0  0  0  0  2  0  0  0  0  0  0
  162.2820  207.8880  149.8720 C   0  0  0  0  0  2  0  0  0  0  0  0
  162.0210  210.2610  149.0650 C   0  0  0  0  0  0  0  0  0  0  0  0
  162.1020  208.8590  148.8070 N   0  0  0  0  0  2  0  0  0  0  0  0
  162.0930  210.7000  150.2430 O   0  0  0  0  0  0  0  0  0  0  0  0
  161.8410  211.2210  147.9360 C   0  0  0  0  0  2  0  0  0  0  0  0
  161.8170  213.6920  148.5590 N   0  0  0  0  0  2  0  0  0  0  0  0
  162.5470  212.5120  148.2110 C   0  0  0  0  0  0  0  0  0  0  0  0
  163.8020  212.5610  148.1370 O   0  0  0  0  0  0  0  0  0  0  0  0
  160.3660  213.7230  148.6940 C   0  0  2  0  0  3  0  0  0  0  0  0
  159.7530  214.4510  147.5130 C   0  0  0  0  0  1  0  0  0  0  0  0
  158.9540  213.6430  150.7440 C   0  0  0  0  0  1  0  0  0  0  0  0
  159.9820  214.4470  149.9710 C   0  0  0  0  0  2  0  0  0  0  0  0
  1 25  1  6  0  0  0
  1  4  1  0  0  0  0
  2  5  1  0  0  0  0
  4  2  1  0  0  0  0
  4  6  2  0  0  0  0
  5  7  1  0  0  0  0
  5  3  2  0  0  0  0
  7  8  1  1  0  0  0
  9 10  1  0  0  0  0
 10  7  1  0  0  0  0
 11  1  1  0  0  0  0
 12 11  1  0  0  0  0
 12 13  1  0  0  0  0
 12 14  1  0  0  0  0
 13 14  1  0  0  0  0
 15 19  1  6  0  0  0
 15 12  1  0  0  0  0
 16 15  1  0  0  0  0
 17 16  1  0  0  0  0
 18 17  1  0  0  0  0
 21 20  2  0  0  0  0
 21 19  1  0  0  0  0
 22 21  1  0  0  0  0
 23 22  1  0  0  0  0
 24 23  2  0  0  0  0
 26 25  1  0  0  0  0
 27 29  2  0  0  0  0
 28 27  1  0  0  0  0
 28 26  1  0  0  0  0
 30 32  1  0  0  0  0
 30 27  1  0  0  0  0
 31 34  1  0  0  0  0
 32 31  1  0  0  0  0
 33 32  2  0  0  0  0
 34 35  1  6  0  0  0
 34 37  1  0  0  0  0
 37 36  1  0  0  0  0
M  END
>  <MODEL>
1

>  <REMARK>
 VINA RESULT:      -6.8      0.000      0.000
  Name = 
  19 active torsions:
  status: ('A' for Active; 'I' for Inactive)
    1  A    between atoms: N_1  and  C_5
    2  A    between atoms: C_2  and  C_19
    3  A    between atoms: C_2  and  C_35
    4  A    between atoms: C_3  and  C_32
    5  A    between atoms: C_4  and  O_10
    6  A    between atoms: C_4  and  C_13
    7  A    between atoms: C_5  and  C_23
    8  A    between atoms: C_7  and  C_14
    9  A    between atoms: C_7  and  C_27
   10  A    between atoms: C_9  and  C_13
   11  A    between atoms: C_9  and  C_16
   12  A    between atoms: O_10  and  C_14
   13  A    between atoms: C_11  and  C_36
   14  A    between atoms: C_13  and  C_20
   15  A    between atoms: C_14  and  C_31
   16  A    between atoms: C_20  and  C_25
   17  A    between atoms: C_25  and  C_32
   18  A    between atoms: C_26  and  C_36
   19  A    between atoms: C_27  and  N_33
                            x       y       z     vdW  Elec       q    Type
                         _______ _______ _______ _____ _____    ______ ____

>  <TORSDO>
F 19

$$$$
=
 OpenBabel11062409213D

 37 37  0  0  1  0  0  0  0  0999 V2000
  161.0800  206.8300  152.0190 C   0  0  2  0  0  3  0  0  0  0  0  0
  161.0950  208.4050  154.0060 N   0  0  0  0  0  2  0  0  0  0  0  0
  161.6340  207.9370  156.2390 O   0  0  0  0  0  0  0  0  0  0  0  0
  161.3580  207.1050  153.4660 C   0  0  0  0  0  0  0  0  0  0  0  0
  161.2590  208.7800  155.3780 C   0  0  0  0  0  0  0  0  0  0  0  0
  161.7960  206.1750  154.1950 O   0  0  0  0  0  0  0  0  0  0  0  0
  160.9580  210.1860  155.7830 C   0  0  2  0  0  3  0  0  0  0  0  0
  159.6660  210.2430  156.5760 C   0  0  0  0  0  1  0  0  0  0  0  0
  159.5280  211.4650  154.3590 O   0  0  0  0  0  1  0  0  0  0  0  0
  160.8570  211.0950  154.5700 C   0  0  0  0  0  2  0  0  0  0  0  0
  162.0500  205.9730  151.4720 O   0  0  0  0  0  0  0  0  0  0  0  0
  161.3750  204.8500  150.9580 C   0  0  0  0  0  0  0  0  0  0  0  0
  160.3060  204.2240  151.8340 C   0  0  0  0  0  2  0  0  0  0  0  0
  161.6900  203.6020  151.7520 C   0  0  0  0  0  2  0  0  0  0  0  0
  161.3370  204.6020  149.4470 C   0  0  1  0  0  3  0  0  0  0  0  0
  160.7640  203.2230  149.1460 C   0  0  0  0  0  2  0  0  0  0  0  0
  161.3530  202.6460  147.8680 C   0  0  0  0  0  2  0  0  0  0  0  0
  160.9280  201.2000  147.6920 C   0  0  0  0  0  1  0  0  0  0  0  0
  160.5310  205.6790  148.7280 C   0  0  0  0  0  2  0  0  0  0  0  0
  162.4230  206.6650  147.7230 O   0  0  0  0  0  0  0  0  0  0  0  0
  161.2940  206.2290  147.5670 C   0  0  0  0  0  0  0  0  0  0  0  0
  160.6510  206.2940  146.2190 C   0  0  0  0  0  2  0  0  0  0  0  0
  161.4370  205.5190  145.2100 C   0  0  0  0  0  3  0  0  0  0  0  0
  161.0110  204.3350  144.7760 C   0  0  0  0  0  2  0  0  0  0  0  0
  160.9690  208.1220  151.2030 C   0  0  0  0  0  2  0  0  0  0  0  0
  162.3180  208.7820  150.9440 C   0  0  0  0  0  2  0  0  0  0  0  0
  161.9420  210.6620  149.3080 C   0  0  0  0  0  0  0  0  0  0  0  0
  162.1380  210.1920  150.6420 N   0  0  0  0  0  2  0  0  0  0  0  0
  161.9310  209.8550  148.3400 O   0  0  0  0  0  0  0  0  0  0  0  0
  161.7570  212.1200  149.0480 C   0  0  0  0  0  2  0  0  0  0  0  0
  161.6510  212.8400  146.6050 N   0  0  0  0  0  2  0  0  0  0  0  0
  162.4210  212.5260  147.7690 C   0  0  0  0  0  0  0  0  0  0  0  0
  163.6760  212.5970  147.7160 O   0  0  0  0  0  0  0  0  0  0  0  0
  160.1930  212.8120  146.5800 C   0  0  2  0  0  3  0  0  0  0  0  0
  159.7080  212.3510  145.2200 C   0  0  0  0  0  1  0  0  0  0  0  0
  158.1460  214.2290  146.6270 C   0  0  0  0  0  1  0  0  0  0  0  0
  159.6460  214.2000  146.8530 C   0  0  0  0  0  2  0  0  0  0  0  0
  1 25  1  6  0  0  0
  1  4  1  0  0  0  0
  2  5  1  0  0  0  0
  4  2  1  0  0  0  0
  4  6  2  0  0  0  0
  5  7  1  0  0  0  0
  5  3  2  0  0  0  0
  7  8  1  6  0  0  0
  9 10  1  0  0  0  0
 10  7  1  0  0  0  0
 11  1  1  0  0  0  0
 12 11  1  0  0  0  0
 12 14  1  0  0  0  0
 12 13  1  0  0  0  0
 14 13  1  0  0  0  0
 15 19  1  6  0  0  0
 15 12  1  0  0  0  0
 16 15  1  0  0  0  0
 17 16  1  0  0  0  0
 18 17  1  0  0  0  0
 21 20  2  0  0  0  0
 21 19  1  0  0  0  0
 22 21  1  0  0  0  0
 23 22  1  0  0  0  0
 24 23  2  0  0  0  0
 26 25  1  0  0  0  0
 27 28  1  0  0  0  0
 28 26  1  0  0  0  0
 29 27  2  0  0  0  0
 30 27  1  0  0  0  0
 31 32  1  0  0  0  0
 32 30  1  0  0  0  0
 33 32  2  0  0  0  0
 34 35  1  6  0  0  0
 34 31  1  0  0  0  0
 34 37  1  0  0  0  0
 36 37  1  0  0  0  0
M  END
>  <MODEL>
2

>  <REMARK>
 VINA RESULT:      -6.8      1.397      1.622
  Name = 
  19 active torsions:
  status: ('A' for Active; 'I' for Inactive)
    1  A    between atoms: N_1  and  C_5
    2  A    between atoms: C_2  and  C_19
    3  A    between atoms: C_2  and  C_35
    4  A    between atoms: C_3  and  C_32
    5  A    between atoms: C_4  and  O_10
    6  A    between atoms: C_4  and  C_13
    7  A    between atoms: C_5  and  C_23
    8  A    between atoms: C_7  and  C_14
    9  A    between atoms: C_7  and  C_27
   10  A    between atoms: C_9  and  C_13
   11  A    between atoms: C_9  and  C_16
   12  A    between atoms: O_10  and  C_14
   13  A    between atoms: C_11  and  C_36
   14  A    between atoms: C_13  and  C_20
   15  A    between atoms: C_14  and  C_31
   16  A    between atoms: C_20  and  C_25
   17  A    between atoms: C_25  and  C_32
   18  A    between atoms: C_26  and  C_36
   19  A    between atoms: C_27  and  N_33
                            x       y       z     vdW  Elec       q    Type
                         _______ _______ _______ _____ _____    ______ ____

>  <TORSDO>
F 19

$$$$
=
 OpenBabel11062409213D

 37 37  0  0  1  0  0  0  0  0999 V2000
  161.8650  209.6890  149.8700 C   0  0  2  0  0  3  0  0  0  0  0  0
  161.0230  211.1180  147.9520 N   0  0  0  0  0  2  0  0  0  0  0  0
  161.7560  213.2400  147.2790 O   0  0  0  0  0  0  0  0  0  0  0  0
  161.9590  210.9180  149.0180 C   0  0  0  0  0  0  0  0  0  0  0  0
  160.9650  212.2720  147.1070 C   0  0  0  0  0  0  0  0  0  0  0  0
  162.8480  211.7750  149.2700 O   0  0  0  0  0  0  0  0  0  0  0  0
  159.9380  212.3230  146.0230 C   0  0  2  0  0  3  0  0  0  0  0  0
  160.5530  212.8360  144.7360 C   0  0  0  0  0  1  0  0  0  0  0  0
  157.6460  212.4200  146.6930 O   0  0  0  0  0  1  0  0  0  0  0  0
  158.7670  213.2060  146.4210 C   0  0  0  0  0  2  0  0  0  0  0  0
  162.4810  209.8910  151.1170 O   0  0  0  0  0  0  0  0  0  0  0  0
  161.5210  209.6140  152.1080 C   0  0  0  0  0  0  0  0  0  0  0  0
  160.2140  210.3810  152.0390 C   0  0  0  0  0  2  0  0  0  0  0  0
  161.2990  210.8050  153.0140 C   0  0  0  0  0  2  0  0  0  0  0  0
  161.5650  208.2860  152.8690 C   0  0  1  0  0  3  0  0  0  0  0  0
  161.0600  208.4700  154.2950 C   0  0  0  0  0  2  0  0  0  0  0  0
  160.4860  207.1760  154.8510 C   0  0  0  0  0  2  0  0  0  0  0  0
  160.2710  207.2880  156.3480 C   0  0  0  0  0  1  0  0  0  0  0  0
  160.7530  207.2100  152.1550 C   0  0  0  0  0  2  0  0  0  0  0  0
  162.8420  206.1560  151.8590 O   0  0  0  0  0  0  0  0  0  0  0  0
  161.6320  206.0860  151.7120 C   0  0  0  0  0  0  0  0  0  0  0  0
  161.0320  204.8950  151.0380 C   0  0  0  0  0  2  0  0  0  0  0  0
  160.8180  203.7770  152.0080 C   0  0  0  0  0  3  0  0  0  0  0  0
  161.5790  202.6850  151.9700 C   0  0  0  0  0  2  0  0  0  0  0  0
  162.4460  208.4590  149.1660 C   0  0  0  0  0  2  0  0  0  0  0  0
  161.3850  207.6030  148.4850 C   0  0  0  0  0  2  0  0  0  0  0  0
  161.5470  205.8660  146.6660 C   0  0  0  0  0  0  0  0  0  0  0  0
  161.9900  206.4160  147.9070 N   0  0  0  0  0  2  0  0  0  0  0  0
  160.5940  206.3970  146.0350 O   0  0  0  0  0  0  0  0  0  0  0  0
  162.2040  204.6470  146.1090 C   0  0  0  0  0  2  0  0  0  0  0  0
  160.8780  202.4720  146.0220 N   0  0  0  0  0  2  0  0  0  0  0  0
  161.2010  203.7460  145.4580 C   0  0  0  0  0  0  0  0  0  0  0  0
  160.6300  204.1150  144.4000 O   0  0  0  0  0  0  0  0  0  0  0  0
  161.4690  201.9730  147.2570 C   0  0  2  0  0  3  0  0  0  0  0  0
  161.3730  200.4600  147.3020 C   0  0  0  0  0  1  0  0  0  0  0  0
  159.8140  201.5030  149.0580 C   0  0  0  0  0  1  0  0  0  0  0  0
  160.7310  202.5480  148.4520 C   0  0  0  0  0  2  0  0  0  0  0  0
  1 25  1  6  0  0  0
  1 11  1  0  0  0  0
  2  4  1  0  0  0  0
  4  6  2  0  0  0  0
  4  1  1  0  0  0  0
  5  3  2  0  0  0  0
  5  2  1  0  0  0  0
  7  8  1  6  0  0  0
  7 10  1  0  0  0  0
  7  5  1  0  0  0  0
 10  9  1  0  0  0  0
 11 12  1  0  0  0  0
 12 15  1  0  0  0  0
 12 14  1  0  0  0  0
 13 12  1  0  0  0  0
 13 14  1  0  0  0  0
 15 19  1  6  0  0  0
 15 16  1  0  0  0  0
 16 17  1  0  0  0  0
 17 18  1  0  0  0  0
 21 20  2  0  0  0  0
 21 19  1  0  0  0  0
 22 21  1  0  0  0  0
 22 23  1  0  0  0  0
 24 23  2  0  0  0  0
 26 25  1  0  0  0  0
 27 28  1  0  0  0  0
 28 26  1  0  0  0  0
 29 27  2  0  0  0  0
 30 27  1  0  0  0  0
 31 34  1  0  0  0  0
 32 31  1  0  0  0  0
 32 30  1  0  0  0  0
 33 32  2  0  0  0  0
 34 35  1  6  0  0  0
 34 37  1  0  0  0  0
 37 36  1  0  0  0  0
M  END
>  <MODEL>
3

>  <REMARK>
 VINA RESULT:      -6.4      2.269      8.015
  Name = 
  19 active torsions:
  status: ('A' for Active; 'I' for Inactive)
    1  A    between atoms: N_1  and  C_5
    2  A    between atoms: C_2  and  C_19
    3  A    between atoms: C_2  and  C_35
    4  A    between atoms: C_3  and  C_32
    5  A    between atoms: C_4  and  O_10
    6  A    between atoms: C_4  and  C_13
    7  A    between atoms: C_5  and  C_23
    8  A    between atoms: C_7  and  C_14
    9  A    between atoms: C_7  and  C_27
   10  A    between atoms: C_9  and  C_13
   11  A    between atoms: C_9  and  C_16
   12  A    between atoms: O_10  and  C_14
   13  A    between atoms: C_11  and  C_36
   14  A    between atoms: C_13  and  C_20
   15  A    between atoms: C_14  and  C_31
   16  A    between atoms: C_20  and  C_25
   17  A    between atoms: C_25  and  C_32
   18  A    between atoms: C_26  and  C_36
   19  A    between atoms: C_27  and  N_33
                            x       y       z     vdW  Elec       q    Type
                         _______ _______ _______ _____ _____    ______ ____

>  <TORSDO>
F 19

$$$$
=
 OpenBabel11062409213D

 37 37  0  0  1  0  0  0  0  0999 V2000
  161.9720  208.7840  150.9300 C   0  0  2  0  0  3  0  0  0  0  0  0
  161.6140  211.0360  149.8210 N   0  0  0  0  0  2  0  0  0  0  0  0
  162.1470  211.6900  147.6350 O   0  0  0  0  0  0  0  0  0  0  0  0
  162.0270  209.6680  149.7220 C   0  0  0  0  0  0  0  0  0  0  0  0
  161.6750  211.9980  148.7630 C   0  0  0  0  0  0  0  0  0  0  0  0
  162.4660  209.2000  148.6370 O   0  0  0  0  0  0  0  0  0  0  0  0
  161.1870  213.3870  149.0210 C   0  0  2  0  0  3  0  0  0  0  0  0
  160.2830  213.4120  150.2390 C   0  0  0  0  0  1  0  0  0  0  0  0
  159.2850  213.1900  147.5870 O   0  0  0  0  0  1  0  0  0  0  0  0
  160.4420  213.9370  147.8170 C   0  0  0  0  0  2  0  0  0  0  0  0
  160.8540  207.9340  150.8830 O   0  0  0  0  0  0  0  0  0  0  0  0
  161.3320  206.6110  150.8880 C   0  0  0  0  0  0  0  0  0  0  0  0
  161.5590  205.9640  152.2420 C   0  0  0  0  0  2  0  0  0  0  0  0
  162.7310  206.5290  151.4580 C   0  0  0  0  0  2  0  0  0  0  0  0
  161.1350  205.7180  149.6600 C   0  0  1  0  0  3  0  0  0  0  0  0
  160.4610  204.4090  150.0540 C   0  0  0  0  0  2  0  0  0  0  0  0
  161.2030  203.2110  149.4830 C   0  0  0  0  0  2  0  0  0  0  0  0
  160.3110  201.9850  149.4780 C   0  0  0  0  0  1  0  0  0  0  0  0
  160.3220  206.4290  148.5820 C   0  0  0  0  0  2  0  0  0  0  0  0
  160.3770  206.5870  146.2300 O   0  0  0  0  0  0  0  0  0  0  0  0
  160.9870  206.3100  147.2500 C   0  0  0  0  0  0  0  0  0  0  0  0
  162.3880  205.7970  147.1620 C   0  0  0  0  0  2  0  0  0  0  0  0
  162.5540  204.8780  145.9930 C   0  0  0  0  0  3  0  0  0  0  0  0
  161.8600  203.7450  145.9130 C   0  0  0  0  0  2  0  0  0  0  0  0
  161.9890  209.5940  152.2310 C   0  0  0  0  0  2  0  0  0  0  0  0
  160.6240  209.6730  152.9050 C   0  0  0  0  0  2  0  0  0  0  0  0
  159.3080  211.7550  153.4340 C   0  0  0  0  0  0  0  0  0  0  0  0
  160.4740  210.9450  153.5890 N   0  0  0  0  0  2  0  0  0  0  0  0
  158.3680  211.3870  152.6790 O   0  0  0  0  0  0  0  0  0  0  0  0
  159.1960  213.0530  154.1620 C   0  0  0  0  0  2  0  0  0  0  0  0
  158.0180  212.7100  156.3950 N   0  0  0  0  0  2  0  0  0  0  0  0
  159.2270  212.8440  155.6440 C   0  0  0  0  0  0  0  0  0  0  0  0
  160.3340  212.7790  156.2390 O   0  0  0  0  0  0  0  0  0  0  0  0
  156.6920  212.7450  155.7890 C   0  0  2  0  0  3  0  0  0  0  0  0
  155.9600  214.0020  156.2170 C   0  0  0  0  0  1  0  0  0  0  0  0
  155.6320  210.6150  155.0530 C   0  0  0  0  0  1  0  0  0  0  0  0
  155.8910  211.5350  156.2310 C   0  0  0  0  0  2  0  0  0  0  0  0
  1 25  1  1  0  0  0
  3  5  2  0  0  0  0
  4  2  1  0  0  0  0
  4  1  1  0  0  0  0
  5  7  1  0  0  0  0
  5  2  1  0  0  0  0
  6  4  2  0  0  0  0
  7  8  1  1  0  0  0
  9 10  1  0  0  0  0
 10  7  1  0  0  0  0
 11 12  1  0  0  0  0
 11  1  1  0  0  0  0
 12 14  1  0  0  0  0
 12 13  1  0  0  0  0
 14 13  1  0  0  0  0
 15 19  1  6  0  0  0
 15 16  1  0  0  0  0
 15 12  1  0  0  0  0
 17 16  1  0  0  0  0
 18 17  1  0  0  0  0
 20 21  2  0  0  0  0
 21 19  1  0  0  0  0
 22 21  1  0  0  0  0
 23 22  1  0  0  0  0
 24 23  2  0  0  0  0
 25 26  1  0  0  0  0
 26 28  1  0  0  0  0
 27 28  1  0  0  0  0
 27 30  1  0  0  0  0
 29 27  2  0  0  0  0
 30 32  1  0  0  0  0
 32 33  2  0  0  0  0
 32 31  1  0  0  0  0
 34 35  1  1  0  0  0
 34 37  1  0  0  0  0
 34 31  1  0  0  0  0
 36 37  1  0  0  0  0
M  END
>  <MODEL>
4

>  <REMARK>
 VINA RESULT:      -6.3      2.564      5.430
  Name = 
  19 active torsions:
  status: ('A' for Active; 'I' for Inactive)
    1  A    between atoms: N_1  and  C_5
    2  A    between atoms: C_2  and  C_19
    3  A    between atoms: C_2  and  C_35
    4  A    between atoms: C_3  and  C_32
    5  A    between atoms: C_4  and  O_10
    6  A    between atoms: C_4  and  C_13
    7  A    between atoms: C_5  and  C_23
    8  A    between atoms: C_7  and  C_14
    9  A    between atoms: C_7  and  C_27
   10  A    between atoms: C_9  and  C_13
   11  A    between atoms: C_9  and  C_16
   12  A    between atoms: O_10  and  C_14
   13  A    between atoms: C_11  and  C_36
   14  A    between atoms: C_13  and  C_20
   15  A    between atoms: C_14  and  C_31
   16  A    between atoms: C_20  and  C_25
   17  A    between atoms: C_25  and  C_32
   18  A    between atoms: C_26  and  C_36
   19  A    between atoms: C_27  and  N_33
                            x       y       z     vdW  Elec       q    Type
                         _______ _______ _______ _____ _____    ______ ____

>  <TORSDO>
F 19

$$$$
=
 OpenBabel11062409213D

 37 37  0  0  1  0  0  0  0  0999 V2000
  161.9890  208.8740  150.7320 C   0  0  2  0  0  3  0  0  0  0  0  0
  161.9930  210.9340  149.2520 N   0  0  0  0  0  2  0  0  0  0  0  0
  160.9790  213.0110  149.6380 O   0  0  0  0  0  0  0  0  0  0  0  0
  161.6360  210.3100  150.4920 C   0  0  0  0  0  0  0  0  0  0  0  0
  161.6620  212.2740  148.8750 C   0  0  0  0  0  0  0  0  0  0  0  0
  161.0030  210.9440  151.3790 O   0  0  0  0  0  0  0  0  0  0  0  0
  162.1240  212.7850  147.5490 C   0  0  2  0  0  3  0  0  0  0  0  0
  162.9590  214.0390  147.7280 C   0  0  0  0  0  1  0  0  0  0  0  0
  160.1440  211.9440  146.5080 O   0  0  0  0  0  1  0  0  0  0  0  0
  160.9450  213.0790  146.6360 C   0  0  0  0  0  2  0  0  0  0  0  0
  160.9790  208.0200  150.2590 O   0  0  0  0  0  0  0  0  0  0  0  0
  161.5680  207.1510  149.3230 C   0  0  0  0  0  0  0  0  0  0  0  0
  162.6940  207.7100  148.4730 C   0  0  0  0  0  2  0  0  0  0  0  0
  161.2900  207.5930  147.9030 C   0  0  0  0  0  2  0  0  0  0  0  0
  161.4590  205.6350  149.5070 C   0  0  1  0  0  3  0  0  0  0  0  0
  160.7730  205.3050  150.8280 C   0  0  0  0  0  2  0  0  0  0  0  0
  161.6270  204.3780  151.6790 C   0  0  0  0  0  2  0  0  0  0  0  0
  161.1700  202.9400  151.5210 C   0  0  0  0  0  1  0  0  0  0  0  0
  160.7100  204.9870  148.3460 C   0  0  0  0  0  2  0  0  0  0  0  0
  161.4930  202.8010  147.9310 O   0  0  0  0  0  0  0  0  0  0  0  0
  161.5730  203.9860  147.6490 C   0  0  0  0  0  0  0  0  0  0  0  0
  162.5770  204.4450  146.6420 C   0  0  0  0  0  2  0  0  0  0  0  0
  162.0280  204.3540  145.2530 C   0  0  0  0  0  3  0  0  0  0  0  0
  161.1470  205.2470  144.8080 C   0  0  0  0  0  2  0  0  0  0  0  0
  162.2920  208.5980  152.2080 C   0  0  0  0  0  2  0  0  0  0  0  0
  161.1280  207.9470  152.9450 C   0  0  0  0  0  2  0  0  0  0  0  0
  160.7320  208.6340  155.3370 C   0  0  0  0  0  0  0  0  0  0  0  0
  160.5840  208.8600  153.9350 N   0  0  0  0  0  2  0  0  0  0  0  0
  161.3360  207.6120  155.7600 O   0  0  0  0  0  0  0  0  0  0  0  0
  160.1600  209.6040  156.3170 C   0  0  0  0  0  2  0  0  0  0  0  0
  159.7260  211.9310  155.3750 N   0  0  0  0  0  2  0  0  0  0  0  0
  160.6040  211.0000  156.0120 C   0  0  0  0  0  0  0  0  0  0  0  0
  161.7670  211.3640  156.3240 O   0  0  0  0  0  0  0  0  0  0  0  0
  158.3540  211.6080  155.0010 C   0  0  2  0  0  3  0  0  0  0  0  0
  158.2140  211.6180  153.4910 C   0  0  0  0  0  1  0  0  0  0  0  0
  156.3300  212.9980  154.5830 C   0  0  0  0  0  1  0  0  0  0  0  0
  157.4040  212.6340  155.5900 C   0  0  0  0  0  2  0  0  0  0  0  0
  1 25  1  1  0  0  0
  2  4  1  0  0  0  0
  4  1  1  0  0  0  0
  4  6  2  0  0  0  0
  5  2  1  0  0  0  0
  5  3  2  0  0  0  0
  7  8  1  1  0  0  0
  7  5  1  0  0  0  0
  9 10  1  0  0  0  0
 10  7  1  0  0  0  0
 11  1  1  0  0  0  0
 12 15  1  0  0  0  0
 12 11  1  0  0  0  0
 13 12  1  0  0  0  0
 14 13  1  0  0  0  0
 14 12  1  0  0  0  0
 15 19  1  6  0  0  0
 15 16  1  0  0  0  0
 16 17  1  0  0  0  0
 18 17  1  0  0  0  0
 21 20  2  0  0  0  0
 21 19  1  0  0  0  0
 22 21  1  0  0  0  0
 23 22  1  0  0  0  0
 24 23  2  0  0  0  0
 25 26  1  0  0  0  0
 26 28  1  0  0  0  0
 27 29  2  0  0  0  0
 27 30  1  0  0  0  0
 28 27  1  0  0  0  0
 31 32  1  0  0  0  0
 32 30  1  0  0  0  0
 32 33  2  0  0  0  0
 34 35  1  6  0  0  0
 34 31  1  0  0  0  0
 34 37  1  0  0  0  0
 36 37  1  0  0  0  0
M  END
>  <MODEL>
5

>  <REMARK>
 VINA RESULT:      -6.1      2.112      5.608
  Name = 
  19 active torsions:
  status: ('A' for Active; 'I' for Inactive)
    1  A    between atoms: N_1  and  C_5
    2  A    between atoms: C_2  and  C_19
    3  A    between atoms: C_2  and  C_35
    4  A    between atoms: C_3  and  C_32
    5  A    between atoms: C_4  and  O_10
    6  A    between atoms: C_4  and  C_13
    7  A    between atoms: C_5  and  C_23
    8  A    between atoms: C_7  and  C_14
    9  A    between atoms: C_7  and  C_27
   10  A    between atoms: C_9  and  C_13
   11  A    between atoms: C_9  and  C_16
   12  A    between atoms: O_10  and  C_14
   13  A    between atoms: C_11  and  C_36
   14  A    between atoms: C_13  and  C_20
   15  A    between atoms: C_14  and  C_31
   16  A    between atoms: C_20  and  C_25
   17  A    between atoms: C_25  and  C_32
   18  A    between atoms: C_26  and  C_36
   19  A    between atoms: C_27  and  N_33
                            x       y       z     vdW  Elec       q    Type
                         _______ _______ _______ _____ _____    ______ ____

>  <TORSDO>
F 19

$$$$
=
 OpenBabel11062409213D

 37 37  0  0  1  0  0  0  0  0999 V2000
  161.6290  208.5220  150.5570 C   0  0  2  0  0  3  0  0  0  0  0  0
  160.3120  210.0680  152.0760 N   0  0  0  0  0  2  0  0  0  0  0  0
  161.0890  211.3730  153.8600 O   0  0  0  0  0  0  0  0  0  0  0  0
  161.5750  209.5310  151.6640 C   0  0  0  0  0  0  0  0  0  0  0  0
  160.1160  210.9870  153.1560 C   0  0  0  0  0  0  0  0  0  0  0  0
  162.6440  209.8720  152.2380 O   0  0  0  0  0  0  0  0  0  0  0  0
  158.7340  211.4700  153.4510 C   0  0  2  0  0  3  0  0  0  0  0  0
  158.3850  212.6480  152.5620 C   0  0  0  0  0  1  0  0  0  0  0  0
  157.9940  213.1250  155.0080 O   0  0  0  0  0  1  0  0  0  0  0  0
  158.5930  211.8680  154.9100 C   0  0  0  0  0  2  0  0  0  0  0  0
  162.5640  207.5120  150.8400 O   0  0  0  0  0  0  0  0  0  0  0  0
  161.8400  206.3410  151.1310 C   0  0  0  0  0  0  0  0  0  0  0  0
  160.8370  206.4130  152.2670 C   0  0  0  0  0  2  0  0  0  0  0  0
  162.2030  205.7880  152.4910 C   0  0  0  0  0  2  0  0  0  0  0  0
  161.6820  205.2510  150.0670 C   0  0  1  0  0  3  0  0  0  0  0  0
  161.4040  203.9020  150.7210 C   0  0  0  0  0  2  0  0  0  0  0  0
  160.6290  202.9850  149.7870 C   0  0  0  0  0  2  0  0  0  0  0  0
  160.7820  201.5380  150.2160 C   0  0  0  0  0  1  0  0  0  0  0  0
  160.5750  205.5970  149.0770 C   0  0  0  0  0  2  0  0  0  0  0  0
  160.6870  206.7190  147.0050 O   0  0  0  0  0  0  0  0  0  0  0  0
  161.1360  205.8310  147.7120 C   0  0  0  0  0  0  0  0  0  0  0  0
  162.2140  204.9380  147.1890 C   0  0  0  0  0  2  0  0  0  0  0  0
  161.7540  204.1880  145.9800 C   0  0  0  0  0  3  0  0  0  0  0  0
  161.2480  202.9610  146.0900 C   0  0  0  0  0  2  0  0  0  0  0  0
  161.9230  209.1760  149.2030 C   0  0  0  0  0  2  0  0  0  0  0  0
  162.1270  210.6830  149.2980 C   0  0  0  0  0  2  0  0  0  0  0  0
  160.9840  212.5240  148.0120 C   0  0  0  0  0  0  0  0  0  0  0  0
  161.7540  211.3220  148.0490 N   0  0  0  0  0  2  0  0  0  0  0  0
  160.5910  213.0650  149.0800 O   0  0  0  0  0  0  0  0  0  0  0  0
  160.6290  213.1460  146.7030 C   0  0  0  0  0  2  0  0  0  0  0  0
  162.0720  213.6330  144.6590 N   0  0  0  0  0  2  0  0  0  0  0  0
  161.8280  213.7720  146.0620 C   0  0  0  0  0  0  0  0  0  0  0  0
  162.6340  214.4340  146.7650 O   0  0  0  0  0  0  0  0  0  0  0  0
  161.1800  212.9070  143.7620 C   0  0  2  0  0  3  0  0  0  0  0  0
  161.9730  212.3170  142.6120 C   0  0  0  0  0  1  0  0  0  0  0  0
  159.4460  213.2270  142.0030 C   0  0  0  0  0  1  0  0  0  0  0  0
  160.1310  213.8510  143.2040 C   0  0  0  0  0  2  0  0  0  0  0  0
  1 25  1  6  0  0  0
  1 11  1  0  0  0  0
  1  4  1  0  0  0  0
  2  5  1  0  0  0  0
  4  2  1  0  0  0  0
  4  6  2  0  0  0  0
  5  7  1  0  0  0  0
  5  3  2  0  0  0  0
  7  8  1  6  0  0  0
  7 10  1  0  0  0  0
 10  9  1  0  0  0  0
 11 12  1  0  0  0  0
 12 13  1  0  0  0  0
 12 14  1  0  0  0  0
 13 14  1  0  0  0  0
 15 19  1  6  0  0  0
 15 16  1  0  0  0  0
 15 12  1  0  0  0  0
 17 18  1  0  0  0  0
 17 16  1  0  0  0  0
 20 21  2  0  0  0  0
 21 19  1  0  0  0  0
 22 21  1  0  0  0  0
 23 24  2  0  0  0  0
 23 22  1  0  0  0  0
 25 26  1  0  0  0  0
 27 28  1  0  0  0  0
 27 29  2  0  0  0  0
 28 26  1  0  0  0  0
 30 27  1  0  0  0  0
 31 32  1  0  0  0  0
 32 30  1  0  0  0  0
 32 33  2  0  0  0  0
 34 35  1  6  0  0  0
 34 31  1  0  0  0  0
 36 37  1  0  0  0  0
 37 34  1  0  0  0  0
M  END
>  <MODEL>
6

>  <REMARK>
 VINA RESULT:      -6.0      2.413      3.422
  Name = 
  19 active torsions:
  status: ('A' for Active; 'I' for Inactive)
    1  A    between atoms: N_1  and  C_5
    2  A    between atoms: C_2  and  C_19
    3  A    between atoms: C_2  and  C_35
    4  A    between atoms: C_3  and  C_32
    5  A    between atoms: C_4  and  O_10
    6  A    between atoms: C_4  and  C_13
    7  A    between atoms: C_5  and  C_23
    8  A    between atoms: C_7  and  C_14
    9  A    between atoms: C_7  and  C_27
   10  A    between atoms: C_9  and  C_13
   11  A    between atoms: C_9  and  C_16
   12  A    between atoms: O_10  and  C_14
   13  A    between atoms: C_11  and  C_36
   14  A    between atoms: C_13  and  C_20
   15  A    between atoms: C_14  and  C_31
   16  A    between atoms: C_20  and  C_25
   17  A    between atoms: C_25  and  C_32
   18  A    between atoms: C_26  and  C_36
   19  A    between atoms: C_27  and  N_33
                            x       y       z     vdW  Elec       q    Type
                         _______ _______ _______ _____ _____    ______ ____

>  <TORSDO>
F 19

$$$$
=
 OpenBabel11062409213D

 37 37  0  0  1  0  0  0  0  0999 V2000
  160.8610  207.2710  152.2690 C   0  0  2  0  0  3  0  0  0  0  0  0
  160.7580  208.4750  154.4980 N   0  0  0  0  0  2  0  0  0  0  0  0
  160.7830  207.5600  156.6560 O   0  0  0  0  0  0  0  0  0  0  0  0
  160.9030  207.2510  153.7670 C   0  0  0  0  0  0  0  0  0  0  0  0
  160.7190  208.5860  155.9250 C   0  0  0  0  0  0  0  0  0  0  0  0
  161.0370  206.1500  154.3640 O   0  0  0  0  0  0  0  0  0  0  0  0
  160.5810  209.9410  156.5400 C   0  0  2  0  0  3  0  0  0  0  0  0
  159.8200  210.8680  155.6110 C   0  0  0  0  0  1  0  0  0  0  0  0
  162.5790  210.9320  155.6830 O   0  0  0  0  0  1  0  0  0  0  0  0
  161.9410  210.5380  156.8600 C   0  0  0  0  0  2  0  0  0  0  0  0
  161.8640  206.4510  151.7250 O   0  0  0  0  0  0  0  0  0  0  0  0
  161.2530  205.2460  151.3320 C   0  0  0  0  0  0  0  0  0  0  0  0
  160.6490  204.3880  152.4280 C   0  0  0  0  0  2  0  0  0  0  0  0
  162.0120  204.0440  151.8510 C   0  0  0  0  0  2  0  0  0  0  0  0
  160.7640  205.0660  149.8930 C   0  0  1  0  0  3  0  0  0  0  0  0
  160.8220  206.3900  149.1390 C   0  0  0  0  0  2  0  0  0  0  0  0
  161.8270  206.3340  147.9990 C   0  0  0  0  0  2  0  0  0  0  0  0
  161.1210  206.4600  146.6620 C   0  0  0  0  0  1  0  0  0  0  0  0
  161.5760  204.0040  149.1580 C   0  0  0  0  0  2  0  0  0  0  0  0
  159.8540  202.4830  149.6920 O   0  0  0  0  0  0  0  0  0  0  0  0
  160.7580  202.7750  148.9260 C   0  0  0  0  0  0  0  0  0  0  0  0
  161.0840  201.8710  147.7820 C   0  0  0  0  0  2  0  0  0  0  0  0
  161.0200  202.6050  146.4800 C   0  0  0  0  0  3  0  0  0  0  0  0
  160.4610  202.0470  145.4090 C   0  0  0  0  0  2  0  0  0  0  0  0
  160.9590  208.6950  151.7130 C   0  0  0  0  0  2  0  0  0  0  0  0
  162.1990  208.9190  150.8570 C   0  0  0  0  0  2  0  0  0  0  0  0
  162.1860  210.7150  149.0890 C   0  0  0  0  0  0  0  0  0  0  0  0
  162.2890  210.3120  150.4550 N   0  0  0  0  0  2  0  0  0  0  0  0
  162.0250  209.8590  148.1800 O   0  0  0  0  0  0  0  0  0  0  0  0
  162.2800  212.1600  148.7260 C   0  0  0  0  0  2  0  0  0  0  0  0
  160.2310  213.0260  147.4830 N   0  0  0  0  0  2  0  0  0  0  0  0
  160.9260  212.7990  148.7110 C   0  0  0  0  0  0  0  0  0  0  0  0
  160.3890  213.1400  149.7970 O   0  0  0  0  0  0  0  0  0  0  0  0
  160.7630  212.6420  146.1810 C   0  0  2  0  0  3  0  0  0  0  0  0
  161.5030  213.8100  145.5590 C   0  0  0  0  0  1  0  0  0  0  0  0
  160.0990  212.2130  143.8190 C   0  0  0  0  0  1  0  0  0  0  0  0
  159.6280  212.2330  145.2610 C   0  0  0  0  0  2  0  0  0  0  0  0
  1 25  1  6  0  0  0
  1  4  1  0  0  0  0
  2  5  1  0  0  0  0
  4  6  2  0  0  0  0
  4  2  1  0  0  0  0
  5  7  1  0  0  0  0
  5  3  2  0  0  0  0
  7  8  1  6  0  0  0
  7 10  1  0  0  0  0
  9 10  1  0  0  0  0
 11  1  1  0  0  0  0
 12 11  1  0  0  0  0
 12 14  1  0  0  0  0
 12 13  1  0  0  0  0
 14 13  1  0  0  0  0
 15 16  1  6  0  0  0
 15 12  1  0  0  0  0
 17 16  1  0  0  0  0
 18 17  1  0  0  0  0
 19 15  1  0  0  0  0
 21 19  1  0  0  0  0
 21 20  2  0  0  0  0
 22 21  1  0  0  0  0
 23 22  1  0  0  0  0
 24 23  2  0  0  0  0
 26 25  1  0  0  0  0
 27 28  1  0  0  0  0
 28 26  1  0  0  0  0
 29 27  2  0  0  0  0
 30 27  1  0  0  0  0
 31 32  1  0  0  0  0
 32 30  1  0  0  0  0
 32 33  2  0  0  0  0
 34 35  1  6  0  0  0
 34 31  1  0  0  0  0
 36 37  1  0  0  0  0
 37 34  1  0  0  0  0
M  END
>  <MODEL>
7

>  <REMARK>
 VINA RESULT:      -5.6      1.968      2.958
  Name = 
  19 active torsions:
  status: ('A' for Active; 'I' for Inactive)
    1  A    between atoms: N_1  and  C_5
    2  A    between atoms: C_2  and  C_19
    3  A    between atoms: C_2  and  C_35
    4  A    between atoms: C_3  and  C_32
    5  A    between atoms: C_4  and  O_10
    6  A    between atoms: C_4  and  C_13
    7  A    between atoms: C_5  and  C_23
    8  A    between atoms: C_7  and  C_14
    9  A    between atoms: C_7  and  C_27
   10  A    between atoms: C_9  and  C_13
   11  A    between atoms: C_9  and  C_16
   12  A    between atoms: O_10  and  C_14
   13  A    between atoms: C_11  and  C_36
   14  A    between atoms: C_13  and  C_20
   15  A    between atoms: C_14  and  C_31
   16  A    between atoms: C_20  and  C_25
   17  A    between atoms: C_25  and  C_32
   18  A    between atoms: C_26  and  C_36
   19  A    between atoms: C_27  and  N_33
                            x       y       z     vdW  Elec       q    Type
                         _______ _______ _______ _____ _____    ______ ____

>  <TORSDO>
F 19

$$$$
=
 OpenBabel11062409213D

 37 37  0  0  1  0  0  0  0  0999 V2000
  161.0510  208.5560  153.4770 C   0  0  2  0  0  3  0  0  0  0  0  0
  161.2420  206.2280  152.4900 N   0  0  0  0  0  2  0  0  0  0  0  0
  160.8360  204.1640  153.5230 O   0  0  0  0  0  0  0  0  0  0  0  0
  160.8850  207.0710  153.5920 C   0  0  0  0  0  0  0  0  0  0  0  0
  161.1900  204.7980  152.4910 C   0  0  0  0  0  0  0  0  0  0  0  0
  160.4570  206.5810  154.6710 O   0  0  0  0  0  0  0  0  0  0  0  0
  161.5800  204.0600  151.2520 C   0  0  2  0  0  3  0  0  0  0  0  0
  160.4580  204.1070  150.2330 C   0  0  0  0  0  1  0  0  0  0  0  0
  161.0630  201.7560  150.8860 O   0  0  0  0  0  1  0  0  0  0  0  0
  161.9300  202.6140  151.5630 C   0  0  0  0  0  2  0  0  0  0  0  0
  160.1570  209.2310  154.3250 O   0  0  0  0  0  0  0  0  0  0  0  0
  160.7360  210.4730  154.6420 C   0  0  0  0  0  0  0  0  0  0  0  0
  162.2410  210.5050  154.8350 C   0  0  0  0  0  2  0  0  0  0  0  0
  161.3150  210.4740  156.0400 C   0  0  0  0  0  2  0  0  0  0  0  0
  160.0030  211.7730  154.2990 C   0  0  1  0  0  3  0  0  0  0  0  0
  158.6850  211.4730  153.5940 C   0  0  0  0  0  2  0  0  0  0  0  0
  158.5850  212.2140  152.2690 C   0  0  0  0  0  2  0  0  0  0  0  0
  159.9590  212.6560  151.8030 C   0  0  0  0  0  1  0  0  0  0  0  0
  159.7560  212.6170  155.5460 C   0  0  0  0  0  2  0  0  0  0  0  0
  157.8960  211.4600  156.4210 O   0  0  0  0  0  0  0  0  0  0  0  0
  158.3310  212.5130  155.9840 C   0  0  0  0  0  0  0  0  0  0  0  0
  157.4210  213.6900  155.8370 C   0  0  0  0  0  2  0  0  0  0  0  0
  156.0280  213.2560  155.5070 C   0  0  0  0  0  3  0  0  0  0  0  0
  155.5770  213.3040  154.2560 C   0  0  0  0  0  2  0  0  0  0  0  0
  160.9040  209.0370  152.0300 C   0  0  0  0  0  2  0  0  0  0  0  0
  162.2370  209.1620  151.3030 C   0  0  0  0  0  2  0  0  0  0  0  0
  162.1820  208.4190  148.8950 C   0  0  0  0  0  0  0  0  0  0  0  0
  162.3520  208.1330  150.2840 N   0  0  0  0  0  2  0  0  0  0  0  0
  161.9120  209.5890  148.5110 O   0  0  0  0  0  0  0  0  0  0  0  0
  162.3150  207.3300  147.8840 C   0  0  0  0  0  2  0  0  0  0  0  0
  160.8270  205.6530  146.6720 N   0  0  0  0  0  2  0  0  0  0  0  0
  161.0430  206.5490  147.7660 C   0  0  0  0  0  0  0  0  0  0  0  0
  160.1510  206.6780  148.6430 O   0  0  0  0  0  0  0  0  0  0  0  0
  161.8130  205.4190  145.6240 C   0  0  2  0  0  3  0  0  0  0  0  0
  161.2360  205.8030  144.2760 C   0  0  0  0  0  1  0  0  0  0  0  0
  160.9850  203.0960  145.2730 C   0  0  0  0  0  1  0  0  0  0  0  0
  162.1960  203.9510  145.5950 C   0  0  0  0  0  2  0  0  0  0  0  0
  1 25  1  6  0  0  0
  1  4  1  0  0  0  0
  1 11  1  0  0  0  0
  2  5  1  0  0  0  0
  2  4  1  0  0  0  0
  4  6  2  0  0  0  0
  5  3  2  0  0  0  0
  7  8  1  6  0  0  0
  7 10  1  0  0  0  0
  7  5  1  0  0  0  0
  9 10  1  0  0  0  0
 11 12  1  0  0  0  0
 12 13  1  0  0  0  0
 12 14  1  0  0  0  0
 13 14  1  0  0  0  0
 15 16  1  1  0  0  0
 15 12  1  0  0  0  0
 15 19  1  0  0  0  0
 17 16  1  0  0  0  0
 18 17  1  0  0  0  0
 19 21  1  0  0  0  0
 21 20  2  0  0  0  0
 22 21  1  0  0  0  0
 23 22  1  0  0  0  0
 24 23  2  0  0  0  0
 26 25  1  0  0  0  0
 27 28  1  0  0  0  0
 28 26  1  0  0  0  0
 29 27  2  0  0  0  0
 30 27  1  0  0  0  0
 31 32  1  0  0  0  0
 32 30  1  0  0  0  0
 32 33  2  0  0  0  0
 34 35  1  6  0  0  0
 34 31  1  0  0  0  0
 36 37  1  0  0  0  0
 37 34  1  0  0  0  0
M  END
>  <MODEL>
8

>  <REMARK>
 VINA RESULT:      -5.6      2.432      8.635
  Name = 
  19 active torsions:
  status: ('A' for Active; 'I' for Inactive)
    1  A    between atoms: N_1  and  C_5
    2  A    between atoms: C_2  and  C_19
    3  A    between atoms: C_2  and  C_35
    4  A    between atoms: C_3  and  C_32
    5  A    between atoms: C_4  and  O_10
    6  A    between atoms: C_4  and  C_13
    7  A    between atoms: C_5  and  C_23
    8  A    between atoms: C_7  and  C_14
    9  A    between atoms: C_7  and  C_27
   10  A    between atoms: C_9  and  C_13
   11  A    between atoms: C_9  and  C_16
   12  A    between atoms: O_10  and  C_14
   13  A    between atoms: C_11  and  C_36
   14  A    between atoms: C_13  and  C_20
   15  A    between atoms: C_14  and  C_31
   16  A    between atoms: C_20  and  C_25
   17  A    between atoms: C_25  and  C_32
   18  A    between atoms: C_26  and  C_36
   19  A    between atoms: C_27  and  N_33
                            x       y       z     vdW  Elec       q    Type
                         _______ _______ _______ _____ _____    ______ ____

>  <TORSDO>
F 19

$$$$
=
 OpenBabel11062409213D

 37 37  0  0  1  0  0  0  0  0999 V2000
  160.8330  210.5980  152.0590 C   0  0  2  0  0  3  0  0  0  0  0  0
  161.1930  211.9570  149.9480 N   0  0  0  0  0  2  0  0  0  0  0  0
  162.6940  211.5600  148.1930 O   0  0  0  0  0  0  0  0  0  0  0  0
  161.4930  210.7920  150.7280 C   0  0  0  0  0  0  0  0  0  0  0  0
  161.7970  212.2920  148.6950 C   0  0  0  0  0  0  0  0  0  0  0  0
  162.3270  209.9390  150.3240 O   0  0  0  0  0  0  0  0  0  0  0  0
  161.3620  213.5380  147.9940 C   0  0  2  0  0  3  0  0  0  0  0  0
  160.4190  214.3370  148.8730 C   0  0  0  0  0  1  0  0  0  0  0  0
  159.4670  212.5710  146.9060 O   0  0  0  0  0  1  0  0  0  0  0  0
  160.6840  213.2140  146.6740 C   0  0  0  0  0  2  0  0  0  0  0  0
  160.8820  211.7750  152.8240 O   0  0  0  0  0  0  0  0  0  0  0  0
  159.6490  211.8950  153.4900 C   0  0  0  0  0  0  0  0  0  0  0  0
  158.4120  211.4310  152.7440 C   0  0  0  0  0  2  0  0  0  0  0  0
  158.7510  212.9100  152.8180 C   0  0  0  0  0  2  0  0  0  0  0  0
  159.6070  211.9800  155.0190 C   0  0  1  0  0  3  0  0  0  0  0  0
  158.3540  212.7170  155.4780 C   0  0  0  0  0  2  0  0  0  0  0  0
  157.4750  211.8260  156.3430 C   0  0  0  0  0  2  0  0  0  0  0  0
  156.1880  211.4820  155.6160 C   0  0  0  0  0  1  0  0  0  0  0  0
  159.6690  210.5950  155.6540 C   0  0  0  0  0  2  0  0  0  0  0  0
  161.8040  211.2720  156.3930 O   0  0  0  0  0  0  0  0  0  0  0  0
  161.0040  210.3570  156.2820 C   0  0  0  0  0  0  0  0  0  0  0  0
  161.3810  208.9820  156.7280 C   0  0  0  0  0  2  0  0  0  0  0  0
  160.1680  208.1340  156.9450 C   0  0  0  0  0  3  0  0  0  0  0  0
  160.0370  206.9590  156.3330 C   0  0  0  0  0  2  0  0  0  0  0  0
  161.4370  209.4190  152.8290 C   0  0  0  0  0  2  0  0  0  0  0  0
  160.5700  208.1670  152.7820 C   0  0  0  0  0  2  0  0  0  0  0  0
  161.5930  205.9180  152.2850 C   0  0  0  0  0  0  0  0  0  0  0  0
  161.1320  207.2000  151.8550 N   0  0  0  0  0  2  0  0  0  0  0  0
  161.5340  205.5900  153.5000 O   0  0  0  0  0  0  0  0  0  0  0  0
  162.1590  204.9550  151.2940 C   0  0  0  0  0  2  0  0  0  0  0  0
  160.8250  204.0660  149.3130 N   0  0  0  0  0  2  0  0  0  0  0  0
  161.0870  204.0830  150.7190 C   0  0  0  0  0  0  0  0  0  0  0  0
  160.4070  203.3490  151.4830 O   0  0  0  0  0  0  0  0  0  0  0  0
  161.5780  204.8610  148.3510 C   0  0  2  0  0  3  0  0  0  0  0  0
  160.8050  206.1180  148.0010 C   0  0  0  0  0  1  0  0  0  0  0  0
  162.6060  204.8670  146.0820 C   0  0  0  0  0  1  0  0  0  0  0  0
  161.8070  204.0560  147.0850 C   0  0  0  0  0  2  0  0  0  0  0  0
  1 11  1  0  0  0  0
  1 25  1  1  0  0  0
  2  4  1  0  0  0  0
  3  5  2  0  0  0  0
  4  1  1  0  0  0  0
  5  2  1  0  0  0  0
  6  4  2  0  0  0  0
  7  5  1  0  0  0  0
  7  8  1  1  0  0  0
 10  9  1  0  0  0  0
 10  7  1  0  0  0  0
 11 12  1  0  0  0  0
 12 15  1  0  0  0  0
 13 14  1  0  0  0  0
 13 12  1  0  0  0  0
 14 12  1  0  0  0  0
 15 16  1  6  0  0  0
 15 19  1  0  0  0  0
 16 17  1  0  0  0  0
 18 17  1  0  0  0  0
 19 21  1  0  0  0  0
 21 20  2  0  0  0  0
 21 22  1  0  0  0  0
 22 23  1  0  0  0  0
 24 23  2  0  0  0  0
 26 25  1  0  0  0  0
 27 29  2  0  0  0  0
 28 27  1  0  0  0  0
 28 26  1  0  0  0  0
 30 27  1  0  0  0  0
 31 32  1  0  0  0  0
 32 30  1  0  0  0  0
 32 33  2  0  0  0  0
 34 35  1  6  0  0  0
 34 31  1  0  0  0  0
 36 37  1  0  0  0  0
 37 34  1  0  0  0  0
M  END
>  <MODEL>
9

>  <REMARK>
 VINA RESULT:      -5.5      2.120      8.971
  Name = 
  19 active torsions:
  status: ('A' for Active; 'I' for Inactive)
    1  A    between atoms: N_1  and  C_5
    2  A    between atoms: C_2  and  C_19
    3  A    between atoms: C_2  and  C_35
    4  A    between atoms: C_3  and  C_32
    5  A    between atoms: C_4  and  O_10
    6  A    between atoms: C_4  and  C_13
    7  A    between atoms: C_5  and  C_23
    8  A    between atoms: C_7  and  C_14
    9  A    between atoms: C_7  and  C_27
   10  A    between atoms: C_9  and  C_13
   11  A    between atoms: C_9  and  C_16
   12  A    between atoms: O_10  and  C_14
   13  A    between atoms: C_11  and  C_36
   14  A    between atoms: C_13  and  C_20
   15  A    between atoms: C_14  and  C_31
   16  A    between atoms: C_20  and  C_25
   17  A    between atoms: C_25  and  C_32
   18  A    between atoms: C_26  and  C_36
   19  A    between atoms: C_27  and  N_33
                            x       y       z     vdW  Elec       q    Type
                         _______ _______ _______ _____ _____    ______ ____

>  <TORSDO>
F 19

$$$$
