=
 OpenBabel11062409503D

 34 39  0  0  1  0  0  0  0  0999 V2000
  161.5630  207.2680  150.6850 C   0  0  0  0  0  0  0  0  0  0  0  0
  161.4240  204.9950  147.7840 C   0  0  0  0  0  3  0  0  0  0  0  0
  161.6330  207.3860  147.7450 C   0  0  0  0  0  2  0  0  0  0  0  0
  161.5280  208.6550  152.6610 C   0  0  0  0  0  0  0  0  0  0  0  0
  161.3660  207.4750  152.1010 N   0  0  0  0  0  0  0  0  0  0  0  0
  162.1650  209.6100  150.4830 C   0  0  0  0  0  0  0  0  0  0  0  0
  162.2280  210.5060  149.4270 C   0  0  0  0  0  3  0  0  0  0  0  0
  161.9040  209.8140  151.8720 N   0  0  0  0  0  2  0  0  0  0  0  0
  162.0180  208.4920  148.6150 N   0  0  0  0  0  0  0  0  0  0  0  0
  162.0290  208.3990  149.9330 C   0  0  0  0  0  0  0  0  0  0  0  0
  162.1400  209.7710  148.2810 N   0  0  0  0  0  0  0  0  0  0  0  0
  161.2650  203.5820  148.1460 C   0  0  0  0  0  3  0  0  0  0  0  0
  160.9270  203.0080  149.3020 C   0  0  0  0  0  0  0  0  0  0  0  0
  160.5940  203.7360  150.5360 C   0  0  0  0  0  3  0  0  0  0  0  0
  161.4350  206.0930  148.5340 C   0  0  0  0  0  0  0  0  0  0  0  0
  160.7440  205.0190  150.8440 C   0  0  0  0  0  3  0  0  0  0  0  0
  161.2780  206.1240  150.0350 C   0  0  0  0  0  0  0  0  0  0  0  0
  160.8380  201.5730  149.3350 N   0  0  0  0  0  0  0  0  0  0  0  0
  160.2360  200.9430  150.3730 O   0  0  0  0  0  1  0  0  0  0  0  0
  161.3660  200.8010  148.2920 N   0  0  0  0  0  1  0  0  0  0  0  0
  161.3830  208.7930  154.1450 C   0  0  0  0  0  2  0  0  0  0  0  0
  159.8250  209.4280  156.0280 C   0  0  0  0  0  0  0  0  0  0  0  0
  159.2370  210.0830  153.8580 C   0  0  0  0  0  3  0  0  0  0  0  0
  158.0540  212.5800  156.9610 N   0  0  0  0  0  0  0  0  0  0  0  0
  158.3170  213.2450  155.6550 C   0  0  2  0  0  0  0  0  0  0  0  0
  159.0090  211.4930  157.2590 C   0  0  0  0  0  2  0  0  0  0  0  0
  157.3620  214.4120  155.4580 C   0  0  0  0  0  1  0  0  0  0  0  0
  159.2220  210.6000  156.0730 C   0  0  0  0  0  0  0  0  0  0  0  0
  156.7000  212.0280  157.0280 C   0  0  0  0  0  1  0  0  0  0  0  0
  158.1640  212.2810  154.4580 C   0  0  0  0  0  2  0  0  0  0  0  0
  158.8870  211.0090  154.7370 C   0  0  0  0  0  0  0  0  0  0  0  0
  159.6170  213.7620  155.6520 O   0  0  0  0  0  1  0  0  0  0  0  0
  159.9250  208.9650  154.6010 C   0  0  1  0  0  3  0  0  0  0  0  0
  160.3540  208.6900  157.2120 C   0  0  0  0  0  1  0  0  0  0  0  0
  1  5  1  0  0  0  0
  2 12  1  0  0  0  0
  2 15  2  0  0  0  0
  3 15  1  0  0  0  0
  3  9  1  0  0  0  0
  4 21  1  0  0  0  0
  5  4  2  0  0  0  0
  6  8  1  0  0  0  0
  7  6  1  0  0  0  0
  8  4  1  0  0  0  0
  9 10  1  0  0  0  0
 10  6  2  0  0  0  0
 10  1  1  0  0  0  0
 11  9  1  0  0  0  0
 11  7  2  0  0  0  0
 12 13  2  0  0  0  0
 13 18  1  0  0  0  0
 13 14  1  0  0  0  0
 14 16  2  0  0  0  0
 15 17  1  0  0  0  0
 17  1  2  0  0  0  0
 17 16  1  0  0  0  0
 18 19  1  0  0  0  0
 20 18  1  0  0  0  0
 22 28  2  0  0  0  0
 22 34  1  0  0  0  0
 23 33  1  0  0  0  0
 23 31  2  0  0  0  0
 24 29  1  0  0  0  0
 24 26  1  0  0  0  0
 25 27  1  6  0  0  0
 25 24  1  0  0  0  0
 28 26  1  0  0  0  0
 30 31  1  0  0  0  0
 30 25  1  0  0  0  0
 31 28  1  0  0  0  0
 32 25  1  0  0  0  0
 33 21  1  6  0  0  0
 33 22  1  0  0  0  0
M  END
>  <MODEL>
1

>  <REMARK>
 VINA RESULT:      -9.4      0.000      0.000
  Name = 
  3 active torsions:
  status: ('A' for Active; 'I' for Inactive)
    1  A    between atoms: N_3  and  C_25
    2  A    between atoms: C_8  and  C_18
    3  A    between atoms: C_18  and  C_30
                            x       y       z     vdW  Elec       q    Type
                         _______ _______ _______ _____ _____    ______ ____

>  <TORSDO>
F 3

$$$$
=
 OpenBabel11062409503D

 34 39  0  0  1  0  0  0  0  0999 V2000
  161.5650  207.4800  150.9730 C   0  0  0  0  0  0  0  0  0  0  0  0
  161.3970  205.2810  148.0170 C   0  0  0  0  0  3  0  0  0  0  0  0
  161.5680  207.6760  148.0360 C   0  0  0  0  0  2  0  0  0  0  0  0
  161.5520  208.8140  152.9840 C   0  0  0  0  0  0  0  0  0  0  0  0
  161.3960  207.6470  152.3980 N   0  0  0  0  0  0  0  0  0  0  0  0
  162.1250  209.8360  150.8200 C   0  0  0  0  0  0  0  0  0  0  0  0
  162.1510  210.7600  149.7870 C   0  0  0  0  0  3  0  0  0  0  0  0
  161.8920  210.0000  152.2190 N   0  0  0  0  0  2  0  0  0  0  0  0
  161.9550  208.7650  148.9260 N   0  0  0  0  0  0  0  0  0  0  0  0
  161.9970  208.6380  150.2410 C   0  0  0  0  0  0  0  0  0  0  0  0
  162.0490  210.0540  148.6230 N   0  0  0  0  0  0  0  0  0  0  0  0
  161.2690  203.8570  148.3450 C   0  0  0  0  0  3  0  0  0  0  0  0
  160.9650  203.2470  149.4930 C   0  0  0  0  0  0  0  0  0  0  0  0
  160.6480  203.9380  150.7530 C   0  0  0  0  0  3  0  0  0  0  0  0
  161.4080  206.3590  148.7950 C   0  0  0  0  0  0  0  0  0  0  0  0
  160.7850  205.2150  151.0900 C   0  0  0  0  0  3  0  0  0  0  0  0
  161.2830  206.3490  150.2990 C   0  0  0  0  0  0  0  0  0  0  0  0
  160.8990  201.8110  149.4900 N   0  0  0  0  0  0  0  0  0  0  0  0
  160.4970  201.1370  150.5950 O   0  0  0  0  0  1  0  0  0  0  0  0
  161.2430  201.0830  148.3430 N   0  0  0  0  0  1  0  0  0  0  0  0
  161.4370  208.9120  154.4750 C   0  0  0  0  0  2  0  0  0  0  0  0
  160.2700  210.8250  155.6370 C   0  0  0  0  0  0  0  0  0  0  0  0
  159.2110  209.8670  153.7820 C   0  0  0  0  0  3  0  0  0  0  0  0
  158.5580  213.9170  154.4330 N   0  0  0  0  0  0  0  0  0  0  0  0
  158.5080  213.4710  153.0130 C   0  0  2  0  0  0  0  0  0  0  0  0
  159.6120  213.2410  155.2150 C   0  0  0  0  0  2  0  0  0  0  0  0
  157.4700  214.2740  152.2460 C   0  0  0  0  0  1  0  0  0  0  0  0
  159.6250  211.7620  154.9680 C   0  0  0  0  0  0  0  0  0  0  0  0
  157.2800  213.7090  155.1140 C   0  0  0  0  0  1  0  0  0  0  0  0
  158.1650  211.9710  152.8760 C   0  0  0  0  0  2  0  0  0  0  0  0
  158.9990  211.1730  153.8170 C   0  0  0  0  0  0  0  0  0  0  0  0
  159.7480  213.7040  152.4100 O   0  0  0  0  0  1  0  0  0  0  0  0
  160.0980  209.5010  154.9450 C   0  0  1  0  0  3  0  0  0  0  0  0
  161.0720  211.0530  156.8740 C   0  0  0  0  0  1  0  0  0  0  0  0
  1  5  1  0  0  0  0
  2 12  1  0  0  0  0
  2 15  2  0  0  0  0
  3 15  1  0  0  0  0
  3  9  1  0  0  0  0
  4 21  1  0  0  0  0
  5  4  2  0  0  0  0
  6  8  1  0  0  0  0
  7  6  1  0  0  0  0
  8  4  1  0  0  0  0
  9 10  1  0  0  0  0
 10  6  2  0  0  0  0
 10  1  1  0  0  0  0
 11  9  1  0  0  0  0
 11  7  2  0  0  0  0
 12 13  2  0  0  0  0
 13 14  1  0  0  0  0
 14 16  2  0  0  0  0
 15 17  1  0  0  0  0
 17  1  2  0  0  0  0
 17 16  1  0  0  0  0
 18 13  1  0  0  0  0
 18 19  1  0  0  0  0
 20 18  1  0  0  0  0
 22 34  1  0  0  0  0
 23 31  2  0  0  0  0
 23 33  1  0  0  0  0
 24 29  1  0  0  0  0
 24 26  1  0  0  0  0
 25 27  1  6  0  0  0
 25 24  1  0  0  0  0
 28 26  1  0  0  0  0
 28 22  2  0  0  0  0
 30 25  1  0  0  0  0
 30 31  1  0  0  0  0
 31 28  1  0  0  0  0
 32 25  1  0  0  0  0
 33 21  1  6  0  0  0
 33 22  1  0  0  0  0
M  END
>  <MODEL>
2

>  <REMARK>
 VINA RESULT:      -9.2      1.189      1.423
  Name = 
  3 active torsions:
  status: ('A' for Active; 'I' for Inactive)
    1  A    between atoms: N_3  and  C_25
    2  A    between atoms: C_8  and  C_18
    3  A    between atoms: C_18  and  C_30
                            x       y       z     vdW  Elec       q    Type
                         _______ _______ _______ _____ _____    ______ ____

>  <TORSDO>
F 3

$$$$
=
 OpenBabel11062409503D

 34 39  0  0  1  0  0  0  0  0999 V2000
  161.3510  207.4880  150.7600 C   0  0  0  0  0  0  0  0  0  0  0  0
  161.7090  205.1730  147.9110 C   0  0  0  0  0  3  0  0  0  0  0  0
  161.9230  207.5640  147.8740 C   0  0  0  0  0  2  0  0  0  0  0  0
  160.9800  208.9040  152.6800 C   0  0  0  0  0  0  0  0  0  0  0  0
  160.9160  207.7160  152.1180 N   0  0  0  0  0  0  0  0  0  0  0  0
  161.9790  209.8280  150.6290 C   0  0  0  0  0  0  0  0  0  0  0  0
  162.2220  210.7100  149.5860 C   0  0  0  0  0  3  0  0  0  0  0  0
  161.4850  210.0530  151.9500 N   0  0  0  0  0  2  0  0  0  0  0  0
  162.1530  208.6830  148.7800 N   0  0  0  0  0  0  0  0  0  0  0  0
  161.9390  208.6090  150.0820 C   0  0  0  0  0  0  0  0  0  0  0  0
  162.3310  209.9580  148.4520 N   0  0  0  0  0  0  0  0  0  0  0  0
  161.4900  203.7660  148.2620 C   0  0  0  0  0  3  0  0  0  0  0  0
  160.9600  203.2070  149.3510 C   0  0  0  0  0  0  0  0  0  0  0  0
  160.4210  203.9530  150.5000 C   0  0  0  0  0  3  0  0  0  0  0  0
  161.5920  206.2820  148.6360 C   0  0  0  0  0  0  0  0  0  0  0  0
  160.5160  205.2410  150.8090 C   0  0  0  0  0  3  0  0  0  0  0  0
  161.1810  206.3350  150.0870 C   0  0  0  0  0  0  0  0  0  0  0  0
  160.8660  201.7730  149.3900 N   0  0  0  0  0  0  0  0  0  0  0  0
  160.4350  201.1400  150.5080 O   0  0  0  0  0  1  0  0  0  0  0  0
  161.2110  201.0050  148.2700 N   0  0  0  0  0  1  0  0  0  0  0  0
  160.5830  209.0640  154.1150 C   0  0  0  0  0  2  0  0  0  0  0  0
  159.2720  211.1650  153.6260 C   0  0  0  0  0  0  0  0  0  0  0  0
  159.6580  210.6180  155.8700 C   0  0  0  0  0  3  0  0  0  0  0  0
  156.1230  212.6210  155.0060 N   0  0  0  0  0  0  0  0  0  0  0  0
  156.0800  211.7030  156.1780 C   0  0  2  0  0  0  0  0  0  0  0  0
  156.9220  212.0890  153.8830 C   0  0  0  0  0  2  0  0  0  0  0  0
  155.1660  212.2670  157.2540 C   0  0  0  0  0  1  0  0  0  0  0  0
  158.2290  211.5240  154.3510 C   0  0  0  0  0  0  0  0  0  0  0  0
  156.6580  213.9350  155.3640 C   0  0  0  0  0  1  0  0  0  0  0  0
  157.4750  211.4680  156.7960 C   0  0  0  0  0  2  0  0  0  0  0  0
  158.4610  211.1630  155.7220 C   0  0  0  0  0  0  0  0  0  0  0  0
  155.5510  210.4700  155.7810 O   0  0  0  0  0  1  0  0  0  0  0  0
  160.3040  210.5230  154.5110 C   0  0  1  0  0  3  0  0  0  0  0  0
  159.3930  211.3420  152.1500 C   0  0  0  0  0  1  0  0  0  0  0  0
  1  5  1  0  0  0  0
  2 12  1  0  0  0  0
  2 15  2  0  0  0  0
  3 15  1  0  0  0  0
  3  9  1  0  0  0  0
  4 21  1  0  0  0  0
  5  4  2  0  0  0  0
  6  8  1  0  0  0  0
  7  6  1  0  0  0  0
  8  4  1  0  0  0  0
  9 10  1  0  0  0  0
 10  6  2  0  0  0  0
 10  1  1  0  0  0  0
 11  9  1  0  0  0  0
 11  7  2  0  0  0  0
 12 13  2  0  0  0  0
 13 18  1  0  0  0  0
 13 14  1  0  0  0  0
 14 16  2  0  0  0  0
 15 17  1  0  0  0  0
 17  1  2  0  0  0  0
 17 16  1  0  0  0  0
 18 19  1  0  0  0  0
 20 18  1  0  0  0  0
 22 28  2  0  0  0  0
 22 33  1  0  0  0  0
 24 29  1  0  0  0  0
 24 25  1  0  0  0  0
 25 30  1  0  0  0  0
 25 27  1  1  0  0  0
 26 28  1  0  0  0  0
 26 24  1  0  0  0  0
 28 31  1  0  0  0  0
 31 23  2  0  0  0  0
 31 30  1  0  0  0  0
 32 25  1  0  0  0  0
 33 21  1  6  0  0  0
 33 23  1  0  0  0  0
 34 22  1  0  0  0  0
M  END
>  <MODEL>
3

>  <REMARK>
 VINA RESULT:      -8.0      1.290      2.052
  Name = 
  3 active torsions:
  status: ('A' for Active; 'I' for Inactive)
    1  A    between atoms: N_3  and  C_25
    2  A    between atoms: C_8  and  C_18
    3  A    between atoms: C_18  and  C_30
                            x       y       z     vdW  Elec       q    Type
                         _______ _______ _______ _____ _____    ______ ____

>  <TORSDO>
F 3

$$$$
=
 OpenBabel11062409503D

 34 39  0  0  1  0  0  0  0  0999 V2000
  160.9090  207.7650  151.4730 C   0  0  0  0  0  0  0  0  0  0  0  0
  161.3870  204.4800  149.8650 C   0  0  0  0  0  3  0  0  0  0  0  0
  161.6030  204.9980  152.1990 C   0  0  0  0  0  2  0  0  0  0  0  0
  160.6800  209.9880  152.3860 C   0  0  0  0  0  0  0  0  0  0  0  0
  160.7740  209.1970  151.3390 N   0  0  0  0  0  0  0  0  0  0  0  0
  160.7850  208.0350  153.8810 C   0  0  0  0  0  0  0  0  0  0  0  0
  161.1440  207.2480  154.9640 C   0  0  0  0  0  3  0  0  0  0  0  0
  160.7180  209.4540  153.7350 N   0  0  0  0  0  2  0  0  0  0  0  0
  161.2060  206.0190  153.1620 N   0  0  0  0  0  0  0  0  0  0  0  0
  160.8470  207.2400  152.8080 C   0  0  0  0  0  0  0  0  0  0  0  0
  161.3910  205.9970  154.4770 N   0  0  0  0  0  0  0  0  0  0  0  0
  161.2060  204.5020  148.4090 C   0  0  0  0  0  3  0  0  0  0  0  0
  161.1390  205.5220  147.5510 C   0  0  0  0  0  0  0  0  0  0  0  0
  161.2690  206.9400  147.9200 C   0  0  0  0  0  3  0  0  0  0  0  0
  161.3740  205.4620  150.7610 C   0  0  0  0  0  0  0  0  0  0  0  0
  161.2670  207.5210  149.1140 C   0  0  0  0  0  3  0  0  0  0  0  0
  161.1500  206.9220  150.4510 C   0  0  0  0  0  0  0  0  0  0  0  0
  160.9720  205.2130  146.1570 N   0  0  0  0  0  0  0  0  0  0  0  0
  161.3030  203.9900  145.6760 O   0  0  0  0  0  1  0  0  0  0  0  0
  160.4560  206.1680  145.2710 N   0  0  0  0  0  1  0  0  0  0  0  0
  160.4670  211.4570  152.1840 C   0  0  0  0  0  2  0  0  0  0  0  0
  158.9610  213.1600  153.2820 C   0  0  0  0  0  0  0  0  0  0  0  0
  159.5570  211.2680  154.5260 C   0  0  0  0  0  3  0  0  0  0  0  0
  155.8200  212.9150  155.2850 N   0  0  0  0  0  0  0  0  0  0  0  0
  155.9380  211.4460  155.4980 C   0  0  2  0  0  0  0  0  0  0  0  0
  156.5710  213.3910  154.1060 C   0  0  0  0  0  2  0  0  0  0  0  0
  155.0660  211.0130  156.6660 C   0  0  0  0  0  1  0  0  0  0  0  0
  157.9510  212.8070  154.0540 C   0  0  0  0  0  0  0  0  0  0  0  0
  156.2750  213.6730  156.4520 C   0  0  0  0  0  1  0  0  0  0  0  0
  157.3900  211.0050  155.7830 C   0  0  0  0  0  2  0  0  0  0  0  0
  158.3130  211.6310  154.7950 C   0  0  0  0  0  0  0  0  0  0  0  0
  155.4800  210.7750  154.3600 O   0  0  0  0  0  1  0  0  0  0  0  0
  160.1050  212.2030  153.4780 C   0  0  1  0  0  3  0  0  0  0  0  0
  158.9560  214.3140  152.3370 C   0  0  0  0  0  1  0  0  0  0  0  0
  1 10  1  0  0  0  0
  2 15  2  0  0  0  0
  3  9  1  0  0  0  0
  4  8  1  0  0  0  0
  5  1  1  0  0  0  0
  5  4  2  0  0  0  0
  6  7  1  0  0  0  0
  8  6  1  0  0  0  0
  9 11  1  0  0  0  0
 10  9  1  0  0  0  0
 10  6  2  0  0  0  0
 11  7  2  0  0  0  0
 12  2  1  0  0  0  0
 13 14  1  0  0  0  0
 13 12  2  0  0  0  0
 14 16  2  0  0  0  0
 15  3  1  0  0  0  0
 16 17  1  0  0  0  0
 17 15  1  0  0  0  0
 17  1  2  0  0  0  0
 18 13  1  0  0  0  0
 19 18  1  0  0  0  0
 20 18  1  0  0  0  0
 21  4  1  0  0  0  0
 22 33  1  0  0  0  0
 22 28  2  0  0  0  0
 23 31  2  0  0  0  0
 24 25  1  0  0  0  0
 24 29  1  0  0  0  0
 25 30  1  0  0  0  0
 25 27  1  1  0  0  0
 26 24  1  0  0  0  0
 28 26  1  0  0  0  0
 28 31  1  0  0  0  0
 31 30  1  0  0  0  0
 32 25  1  0  0  0  0
 33 21  1  6  0  0  0
 33 23  1  0  0  0  0
 34 22  1  0  0  0  0
M  END
>  <MODEL>
4

>  <REMARK>
 VINA RESULT:      -7.8      2.470      3.974
  Name = 
  3 active torsions:
  status: ('A' for Active; 'I' for Inactive)
    1  A    between atoms: N_3  and  C_25
    2  A    between atoms: C_8  and  C_18
    3  A    between atoms: C_18  and  C_30
                            x       y       z     vdW  Elec       q    Type
                         _______ _______ _______ _____ _____    ______ ____

>  <TORSDO>
F 3

$$$$
=
 OpenBabel11062409503D

 34 39  0  0  1  0  0  0  0  0999 V2000
  160.7250  208.6480  153.8250 C   0  0  0  0  0  0  0  0  0  0  0  0
  159.4480  211.9410  154.8900 C   0  0  0  0  0  3  0  0  0  0  0  0
  159.8390  210.0180  156.2740 C   0  0  0  0  0  2  0  0  0  0  0  0
  161.4590  206.5090  152.9820 C   0  0  0  0  0  0  0  0  0  0  0  0
  161.0220  207.7280  152.7510 N   0  0  0  0  0  0  0  0  0  0  0  0
  161.4270  206.9450  155.4040 C   0  0  0  0  0  0  0  0  0  0  0  0
  161.2170  206.7350  156.7580 C   0  0  0  0  0  3  0  0  0  0  0  0
  161.6540  206.0240  154.3360 N   0  0  0  0  0  2  0  0  0  0  0  0
  160.5800  208.7630  156.2650 N   0  0  0  0  0  0  0  0  0  0  0  0
  161.0150  208.1920  155.1550 C   0  0  0  0  0  0  0  0  0  0  0  0
  160.6960  207.8920  157.2610 N   0  0  0  0  0  0  0  0  0  0  0  0
  159.2960  212.9000  153.7910 C   0  0  0  0  0  3  0  0  0  0  0  0
  159.3070  212.7250  152.4680 C   0  0  0  0  0  0  0  0  0  0  0  0
  159.4600  211.4250  151.7940 C   0  0  0  0  0  3  0  0  0  0  0  0
  159.7990  210.6580  154.8870 C   0  0  0  0  0  0  0  0  0  0  0  0
  159.8120  210.2410  152.2810 C   0  0  0  0  0  3  0  0  0  0  0  0
  160.1450  209.8520  153.6590 C   0  0  0  0  0  0  0  0  0  0  0  0
  159.1110  213.8820  151.6380 N   0  0  0  0  0  0  0  0  0  0  0  0
  160.1520  214.4380  150.9720 O   0  0  0  0  0  1  0  0  0  0  0  0
  157.8380  214.4510  151.4970 N   0  0  0  0  0  1  0  0  0  0  0  0
  161.8200  205.6250  151.8280 C   0  0  0  0  0  2  0  0  0  0  0  0
  161.2210  206.7520  149.6500 C   0  0  0  0  0  0  0  0  0  0  0  0
  160.8270  204.4510  149.8310 C   0  0  0  0  0  3  0  0  0  0  0  0
  161.7940  205.9010  146.0600 N   0  0  0  0  0  0  0  0  0  0  0  0
  162.2080  204.4990  146.3430 C   0  0  2  0  0  0  0  0  0  0  0  0
  161.9590  206.7980  147.2210 C   0  0  0  0  0  2  0  0  0  0  0  0
  162.1050  203.6550  145.0820 C   0  0  0  0  0  1  0  0  0  0  0  0
  161.4350  206.1770  148.4810 C   0  0  0  0  0  0  0  0  0  0  0  0
  160.4010  205.9780  145.6180 C   0  0  0  0  0  1  0  0  0  0  0  0
  161.3490  203.8390  147.4440 C   0  0  0  0  0  2  0  0  0  0  0  0
  161.2180  204.7630  148.6050 C   0  0  0  0  0  0  0  0  0  0  0  0
  163.5470  204.4840  146.7490 O   0  0  0  0  0  1  0  0  0  0  0  0
  160.8240  205.7110  150.6600 C   0  0  1  0  0  3  0  0  0  0  0  0
  161.3770  208.2090  149.9310 C   0  0  0  0  0  1  0  0  0  0  0  0
  1 10  1  0  0  0  0
  4  8  1  0  0  0  0
  5  4  2  0  0  0  0
  5  1  1  0  0  0  0
  6  7  1  0  0  0  0
  7 11  2  0  0  0  0
  8  6  1  0  0  0  0
  9  3  1  0  0  0  0
  9 11  1  0  0  0  0
 10  6  2  0  0  0  0
 10  9  1  0  0  0  0
 12  2  1  0  0  0  0
 13 12  2  0  0  0  0
 14 16  2  0  0  0  0
 14 13  1  0  0  0  0
 15  2  2  0  0  0  0
 15  3  1  0  0  0  0
 16 17  1  0  0  0  0
 17  1  2  0  0  0  0
 17 15  1  0  0  0  0
 18 13  1  0  0  0  0
 19 18  1  0  0  0  0
 20 18  1  0  0  0  0
 21  4  1  0  0  0  0
 22 34  1  0  0  0  0
 22 33  1  0  0  0  0
 23 33  1  0  0  0  0
 24 25  1  0  0  0  0
 24 26  1  0  0  0  0
 25 27  1  6  0  0  0
 25 32  1  0  0  0  0
 25 30  1  0  0  0  0
 26 28  1  0  0  0  0
 28 31  1  0  0  0  0
 28 22  2  0  0  0  0
 29 24  1  0  0  0  0
 30 31  1  0  0  0  0
 31 23  2  0  0  0  0
 33 21  1  1  0  0  0
M  END
>  <MODEL>
5

>  <REMARK>
 VINA RESULT:      -7.6      2.701      9.474
  Name = 
  3 active torsions:
  status: ('A' for Active; 'I' for Inactive)
    1  A    between atoms: N_3  and  C_25
    2  A    between atoms: C_8  and  C_18
    3  A    between atoms: C_18  and  C_30
                            x       y       z     vdW  Elec       q    Type
                         _______ _______ _______ _____ _____    ______ ____

>  <TORSDO>
F 3

$$$$
=
 OpenBabel11062409503D

 34 39  0  0  1  0  0  0  0  0999 V2000
  161.0590  206.7600  150.7870 C   0  0  0  0  0  0  0  0  0  0  0  0
  161.3550  203.3670  149.3720 C   0  0  0  0  0  3  0  0  0  0  0  0
  161.5000  203.9920  151.6860 C   0  0  0  0  0  2  0  0  0  0  0  0
  160.9600  209.0400  151.5750 C   0  0  0  0  0  0  0  0  0  0  0  0
  161.0430  208.1890  150.5750 N   0  0  0  0  0  0  0  0  0  0  0  0
  160.8410  207.1690  153.1690 C   0  0  0  0  0  0  0  0  0  0  0  0
  161.0850  206.4150  154.3070 C   0  0  0  0  0  3  0  0  0  0  0  0
  160.8920  208.5790  152.9490 N   0  0  0  0  0  2  0  0  0  0  0  0
  161.1370  205.0900  152.5750 N   0  0  0  0  0  0  0  0  0  0  0  0
  160.8920  206.3140  152.1420 C   0  0  0  0  0  0  0  0  0  0  0  0
  161.2570  205.1250  153.8970 N   0  0  0  0  0  0  0  0  0  0  0  0
  161.2460  203.3240  147.9100 C   0  0  0  0  0  3  0  0  0  0  0  0
  161.3000  204.2980  146.9990 C   0  0  0  0  0  0  0  0  0  0  0  0
  161.5230  205.7210  147.3030 C   0  0  0  0  0  3  0  0  0  0  0  0
  161.3750  204.3940  150.2170 C   0  0  0  0  0  0  0  0  0  0  0  0
  161.5090  206.3630  148.4650 C   0  0  0  0  0  3  0  0  0  0  0  0
  161.2820  205.8480  149.8220 C   0  0  0  0  0  0  0  0  0  0  0  0
  161.1760  203.9280  145.6160 N   0  0  0  0  0  0  0  0  0  0  0  0
  161.3980  204.8370  144.6360 O   0  0  0  0  0  1  0  0  0  0  0  0
  160.8290  202.6190  145.2560 N   0  0  0  0  0  1  0  0  0  0  0  0
  160.8730  210.5080  151.2890 C   0  0  0  0  0  2  0  0  0  0  0  0
  159.9320  212.5530  152.4320 C   0  0  0  0  0  0  0  0  0  0  0  0
  160.2710  210.6350  153.7320 C   0  0  0  0  0  3  0  0  0  0  0  0
  157.1140  213.1080  154.8170 N   0  0  0  0  0  0  0  0  0  0  0  0
  156.9420  211.6610  155.1240 C   0  0  2  0  0  0  0  0  0  0  0  0
  157.7830  213.3490  153.5230 C   0  0  0  0  0  2  0  0  0  0  0  0
  156.1640  211.4880  156.4190 C   0  0  0  0  0  1  0  0  0  0  0  0
  158.9840  212.4700  153.3460 C   0  0  0  0  0  0  0  0  0  0  0  0
  157.8760  213.7980  155.8590 C   0  0  0  0  0  1  0  0  0  0  0  0
  158.2900  210.9210  155.2610 C   0  0  0  0  0  2  0  0  0  0  0  0
  159.1820  211.2790  154.1240 C   0  0  0  0  0  0  0  0  0  0  0  0
  156.1990  211.0570  154.1050 O   0  0  0  0  0  1  0  0  0  0  0  0
  160.8590  211.3760  152.5570 C   0  0  1  0  0  3  0  0  0  0  0  0
  160.0470  213.6340  151.4110 C   0  0  0  0  0  1  0  0  0  0  0  0
  1 10  1  0  0  0  0
  2 15  2  0  0  0  0
  3  9  1  0  0  0  0
  4  8  1  0  0  0  0
  5  1  1  0  0  0  0
  5  4  2  0  0  0  0
  6  7  1  0  0  0  0
  8  6  1  0  0  0  0
  9 11  1  0  0  0  0
 10  9  1  0  0  0  0
 10  6  2  0  0  0  0
 11  7  2  0  0  0  0
 12  2  1  0  0  0  0
 13 14  1  0  0  0  0
 13 12  2  0  0  0  0
 14 16  2  0  0  0  0
 15  3  1  0  0  0  0
 16 17  1  0  0  0  0
 17 15  1  0  0  0  0
 17  1  2  0  0  0  0
 18 13  1  0  0  0  0
 19 18  1  0  0  0  0
 20 18  1  0  0  0  0
 21  4  1  0  0  0  0
 22 33  1  0  0  0  0
 22 28  2  0  0  0  0
 23 31  2  0  0  0  0
 24 25  1  0  0  0  0
 24 29  1  0  0  0  0
 25 30  1  0  0  0  0
 25 27  1  1  0  0  0
 26 24  1  0  0  0  0
 28 26  1  0  0  0  0
 28 31  1  0  0  0  0
 31 30  1  0  0  0  0
 32 25  1  0  0  0  0
 33 21  1  6  0  0  0
 33 23  1  0  0  0  0
 34 22  1  0  0  0  0
M  END
>  <MODEL>
6

>  <REMARK>
 VINA RESULT:      -7.4      2.351      3.814
  Name = 
  3 active torsions:
  status: ('A' for Active; 'I' for Inactive)
    1  A    between atoms: N_3  and  C_25
    2  A    between atoms: C_8  and  C_18
    3  A    between atoms: C_18  and  C_30
                            x       y       z     vdW  Elec       q    Type
                         _______ _______ _______ _____ _____    ______ ____

>  <TORSDO>
F 3

$$$$
=
 OpenBabel11062409503D

 34 39  0  0  1  0  0  0  0  0999 V2000
  161.3160  207.4460  151.9950 C   0  0  0  0  0  0  0  0  0  0  0  0
  160.8750  203.7830  151.9850 C   0  0  0  0  0  3  0  0  0  0  0  0
  161.1370  205.2090  153.8990 C   0  0  0  0  0  2  0  0  0  0  0  0
  161.7120  209.8230  151.8600 C   0  0  0  0  0  0  0  0  0  0  0  0
  161.6140  208.6550  151.2620 N   0  0  0  0  0  0  0  0  0  0  0  0
  161.1780  208.7730  154.0210 C   0  0  0  0  0  0  0  0  0  0  0  0
  161.2450  208.4840  155.3750 C   0  0  0  0  0  3  0  0  0  0  0  0
  161.5370  209.9500  153.2950 N   0  0  0  0  0  2  0  0  0  0  0  0
  161.0180  206.6120  154.2770 N   0  0  0  0  0  0  0  0  0  0  0  0
  161.0480  207.5980  153.3970 C   0  0  0  0  0  0  0  0  0  0  0  0
  161.1340  207.1290  155.4940 N   0  0  0  0  0  0  0  0  0  0  0  0
  160.7690  203.2040  150.6410 C   0  0  0  0  0  3  0  0  0  0  0  0
  161.0400  203.7210  149.4410 C   0  0  0  0  0  0  0  0  0  0  0  0
  161.5650  205.0760  149.2090 C   0  0  0  0  0  3  0  0  0  0  0  0
  161.1130  205.0300  152.3820 C   0  0  0  0  0  0  0  0  0  0  0  0
  161.6840  206.1050  150.0400 C   0  0  0  0  0  3  0  0  0  0  0  0
  161.3410  206.2080  151.4650 C   0  0  0  0  0  0  0  0  0  0  0  0
  160.8470  202.8800  148.2920 N   0  0  0  0  0  0  0  0  0  0  0  0
  161.3480  203.2360  147.0840 O   0  0  0  0  0  1  0  0  0  0  0  0
  160.1430  201.6730  148.4000 N   0  0  0  0  0  1  0  0  0  0  0  0
  161.9490  211.0530  151.0380 C   0  0  0  0  0  2  0  0  0  0  0  0
  160.4800  212.4840  149.5660 C   0  0  0  0  0  0  0  0  0  0  0  0
  161.8950  210.9380  148.5220 C   0  0  0  0  0  3  0  0  0  0  0  0
  161.0820  214.4420  146.4440 N   0  0  0  0  0  0  0  0  0  0  0  0
  162.4090  213.8210  146.1780 C   0  0  2  0  0  0  0  0  0  0  0  0
  160.6770  214.3550  147.8620 C   0  0  0  0  0  2  0  0  0  0  0  0
  162.8060  214.0310  144.7250 C   0  0  0  0  0  1  0  0  0  0  0  0
  160.9100  212.9850  148.4230 C   0  0  0  0  0  0  0  0  0  0  0  0
  160.0260  213.8380  145.6300 C   0  0  0  0  0  1  0  0  0  0  0  0
  162.4240  212.3060  146.4740 C   0  0  0  0  0  2  0  0  0  0  0  0
  161.7970  212.0430  147.8000 C   0  0  0  0  0  0  0  0  0  0  0  0
  163.3780  214.4430  146.9710 O   0  0  0  0  0  1  0  0  0  0  0  0
  161.0760  211.1190  149.7750 C   0  0  1  0  0  3  0  0  0  0  0  0
  159.5670  213.1800  150.5180 C   0  0  0  0  0  1  0  0  0  0  0  0
  1 10  1  0  0  0  0
  2 15  2  0  0  0  0
  3  9  1  0  0  0  0
  4  8  1  0  0  0  0
  5  4  2  0  0  0  0
  5  1  1  0  0  0  0
  6  7  1  0  0  0  0
  7 11  2  0  0  0  0
  8  6  1  0  0  0  0
  9 11  1  0  0  0  0
 10  6  2  0  0  0  0
 10  9  1  0  0  0  0
 12  2  1  0  0  0  0
 13 12  2  0  0  0  0
 14 13  1  0  0  0  0
 14 16  2  0  0  0  0
 15  3  1  0  0  0  0
 16 17  1  0  0  0  0
 17  1  2  0  0  0  0
 17 15  1  0  0  0  0
 18 20  1  0  0  0  0
 18 13  1  0  0  0  0
 19 18  1  0  0  0  0
 21  4  1  0  0  0  0
 22 33  1  0  0  0  0
 22 34  1  0  0  0  0
 23 33  1  0  0  0  0
 24 26  1  0  0  0  0
 25 27  1  6  0  0  0
 25 24  1  0  0  0  0
 25 30  1  0  0  0  0
 25 32  1  0  0  0  0
 26 28  1  0  0  0  0
 28 22  2  0  0  0  0
 29 24  1  0  0  0  0
 30 31  1  0  0  0  0
 31 28  1  0  0  0  0
 31 23  2  0  0  0  0
 33 21  1  1  0  0  0
M  END
>  <MODEL>
7

>  <REMARK>
 VINA RESULT:      -6.9      3.246      6.424
  Name = 
  3 active torsions:
  status: ('A' for Active; 'I' for Inactive)
    1  A    between atoms: N_3  and  C_25
    2  A    between atoms: C_8  and  C_18
    3  A    between atoms: C_18  and  C_30
                            x       y       z     vdW  Elec       q    Type
                         _______ _______ _______ _____ _____    ______ ____

>  <TORSDO>
F 3

$$$$
=
 OpenBabel11062409503D

 34 39  0  0  1  0  0  0  0  0999 V2000
  161.2870  205.8450  150.0910 C   0  0  0  0  0  0  0  0  0  0  0  0
  160.8690  202.1810  150.0060 C   0  0  0  0  0  3  0  0  0  0  0  0
  161.1640  203.5640  151.9470 C   0  0  0  0  0  2  0  0  0  0  0  0
  161.6650  208.2280  150.0030 C   0  0  0  0  0  0  0  0  0  0  0  0
  161.5610  207.0730  149.3810 N   0  0  0  0  0  0  0  0  0  0  0  0
  161.1840  207.1250  152.1500 C   0  0  0  0  0  0  0  0  0  0  0  0
  161.2820  206.8050  153.4960 C   0  0  0  0  0  3  0  0  0  0  0  0
  161.5190  208.3200  151.4440 N   0  0  0  0  0  2  0  0  0  0  0  0
  161.0440  204.9580  152.3600 N   0  0  0  0  0  0  0  0  0  0  0  0
  161.0480  205.9640  151.5030 C   0  0  0  0  0  0  0  0  0  0  0  0
  161.1830  205.4470  153.5860 N   0  0  0  0  0  0  0  0  0  0  0  0
  160.7380  201.6320  148.6530 C   0  0  0  0  0  3  0  0  0  0  0  0
  160.9790  202.1790  147.4590 C   0  0  0  0  0  0  0  0  0  0  0  0
  161.4910  203.5420  147.2480 C   0  0  0  0  0  3  0  0  0  0  0  0
  161.1080  203.4210  150.4270 C   0  0  0  0  0  0  0  0  0  0  0  0
  161.6210  204.5530  148.0990 C   0  0  0  0  0  3  0  0  0  0  0  0
  161.3090  204.6210  149.5330 C   0  0  0  0  0  0  0  0  0  0  0  0
  160.7660  201.3630  146.2950 N   0  0  0  0  0  0  0  0  0  0  0  0
  161.1300  200.0580  146.2910 O   0  0  0  0  0  1  0  0  0  0  0  0
  160.1720  201.9010  145.1460 N   0  0  0  0  0  1  0  0  0  0  0  0
  161.8760  209.4780  149.2050 C   0  0  0  0  0  2  0  0  0  0  0  0
  161.2600  211.8840  149.6610 C   0  0  0  0  0  0  0  0  0  0  0  0
  161.6800  210.4990  151.5010 C   0  0  0  0  0  3  0  0  0  0  0  0
  158.8990  213.5380  152.0340 N   0  0  0  0  0  0  0  0  0  0  0  0
  158.6870  212.3120  152.8530 C   0  0  2  0  0  0  0  0  0  0  0  0
  159.3660  213.2460  150.6640 C   0  0  0  0  0  2  0  0  0  0  0  0
  158.1170  212.6800  154.2130 C   0  0  0  0  0  1  0  0  0  0  0  0
  160.4670  212.2270  150.6580 C   0  0  0  0  0  0  0  0  0  0  0  0
  159.8590  214.4490  152.6590 C   0  0  0  0  0  1  0  0  0  0  0  0
  159.9910  211.5130  153.0700 C   0  0  0  0  0  2  0  0  0  0  0  0
  160.7110  211.3570  151.7750 C   0  0  0  0  0  0  0  0  0  0  0  0
  157.7550  211.4860  152.2160 O   0  0  0  0  0  1  0  0  0  0  0  0
  162.1190  210.7220  150.0760 C   0  0  1  0  0  3  0  0  0  0  0  0
  161.2780  212.5320  148.3180 C   0  0  0  0  0  1  0  0  0  0  0  0
  1 10  1  0  0  0  0
  2 15  2  0  0  0  0
  3  9  1  0  0  0  0
  4  8  1  0  0  0  0
  5  4  2  0  0  0  0
  5  1  1  0  0  0  0
  6  7  1  0  0  0  0
  7 11  2  0  0  0  0
  8  6  1  0  0  0  0
  9 11  1  0  0  0  0
 10  6  2  0  0  0  0
 10  9  1  0  0  0  0
 12  2  1  0  0  0  0
 13 12  2  0  0  0  0
 14 13  1  0  0  0  0
 14 16  2  0  0  0  0
 15  3  1  0  0  0  0
 16 17  1  0  0  0  0
 17  1  2  0  0  0  0
 17 15  1  0  0  0  0
 18 13  1  0  0  0  0
 19 18  1  0  0  0  0
 20 18  1  0  0  0  0
 21  4  1  0  0  0  0
 22 33  1  0  0  0  0
 22 28  2  0  0  0  0
 23 31  2  0  0  0  0
 24 29  1  0  0  0  0
 24 25  1  0  0  0  0
 25 30  1  0  0  0  0
 25 27  1  1  0  0  0
 26 24  1  0  0  0  0
 28 26  1  0  0  0  0
 28 31  1  0  0  0  0
 31 30  1  0  0  0  0
 32 25  1  0  0  0  0
 33 21  1  6  0  0  0
 33 23  1  0  0  0  0
 34 22  1  0  0  0  0
M  END
>  <MODEL>
8

>  <REMARK>
 VINA RESULT:      -6.8      2.435      4.456
  Name = 
  3 active torsions:
  status: ('A' for Active; 'I' for Inactive)
    1  A    between atoms: N_3  and  C_25
    2  A    between atoms: C_8  and  C_18
    3  A    between atoms: C_18  and  C_30
                            x       y       z     vdW  Elec       q    Type
                         _______ _______ _______ _____ _____    ______ ____

>  <TORSDO>
F 3

$$$$
=
 OpenBabel11062409503D

 34 39  0  0  1  0  0  0  0  0999 V2000
  161.3870  207.8570  151.9620 C   0  0  0  0  0  0  0  0  0  0  0  0
  161.2930  211.5160  151.5060 C   0  0  0  0  0  3  0  0  0  0  0  0
  160.6240  210.2780  153.4520 C   0  0  0  0  0  2  0  0  0  0  0  0
  161.3920  205.4460  152.0920 C   0  0  0  0  0  0  0  0  0  0  0  0
  161.5150  206.5430  151.3760 N   0  0  0  0  0  0  0  0  0  0  0  0
  161.0430  206.7990  154.1190 C   0  0  0  0  0  0  0  0  0  0  0  0
  160.5000  207.2130  155.3260 C   0  0  0  0  0  3  0  0  0  0  0  0
  161.1080  205.5070  153.5150 N   0  0  0  0  0  2  0  0  0  0  0  0
  160.8090  208.9680  154.0650 N   0  0  0  0  0  0  0  0  0  0  0  0
  161.2040  207.9050  153.3860 C   0  0  0  0  0  0  0  0  0  0  0  0
  160.3760  208.5710  155.2560 N   0  0  0  0  0  0  0  0  0  0  0  0
  161.7470  211.9590  150.1840 C   0  0  0  0  0  3  0  0  0  0  0  0
  161.9560  211.2770  149.0560 C   0  0  0  0  0  0  0  0  0  0  0  0
  161.7290  209.8320  148.8940 C   0  0  0  0  0  3  0  0  0  0  0  0
  161.1140  210.2950  152.0050 C   0  0  0  0  0  0  0  0  0  0  0  0
  161.4910  208.8920  149.8020 C   0  0  0  0  0  3  0  0  0  0  0  0
  161.3630  209.0050  151.2610 C   0  0  0  0  0  0  0  0  0  0  0  0
  162.3930  212.0120  147.9010 N   0  0  0  0  0  0  0  0  0  0  0  0
  163.7130  212.2060  147.6640 O   0  0  0  0  0  1  0  0  0  0  0  0
  161.4620  212.5350  146.9940 N   0  0  0  0  0  1  0  0  0  0  0  0
  161.6090  204.1130  151.4440 C   0  0  0  0  0  2  0  0  0  0  0  0
  161.0050  204.1580  148.9930 C   0  0  0  0  0  0  0  0  0  0  0  0
  160.3520  202.2890  150.2430 C   0  0  0  0  0  3  0  0  0  0  0  0
  161.2330  201.6530  146.2330 N   0  0  0  0  0  0  0  0  0  0  0  0
  161.4940  200.5060  147.1460 C   0  0  2  0  0  0  0  0  0  0  0  0
  161.5800  202.9580  146.8310 C   0  0  0  0  0  2  0  0  0  0  0  0
  161.2060  199.1930  146.4350 C   0  0  0  0  0  1  0  0  0  0  0  0
  161.0710  203.0790  148.2360 C   0  0  0  0  0  0  0  0  0  0  0  0
  159.8330  201.7040  145.8100 C   0  0  0  0  0  1  0  0  0  0  0  0
  160.6370  200.5640  148.4300 C   0  0  0  0  0  2  0  0  0  0  0  0
  160.6940  201.9320  149.0150 C   0  0  0  0  0  0  0  0  0  0  0  0
  162.8450  200.5000  147.5080 O   0  0  0  0  0  1  0  0  0  0  0  0
  160.5550  203.7770  150.3760 C   0  0  1  0  0  3  0  0  0  0  0  0
  161.3530  205.5390  148.5510 C   0  0  0  0  0  1  0  0  0  0  0  0
  1 10  1  0  0  0  0
  2 15  2  0  0  0  0
  3  9  1  0  0  0  0
  4  8  1  0  0  0  0
  5  1  1  0  0  0  0
  5  4  2  0  0  0  0
  6  7  1  0  0  0  0
  8  6  1  0  0  0  0
  9 11  1  0  0  0  0
 10  9  1  0  0  0  0
 10  6  2  0  0  0  0
 11  7  2  0  0  0  0
 12  2  1  0  0  0  0
 13 12  2  0  0  0  0
 14 13  1  0  0  0  0
 14 16  2  0  0  0  0
 15  3  1  0  0  0  0
 16 17  1  0  0  0  0
 17  1  2  0  0  0  0
 17 15  1  0  0  0  0
 18 13  1  0  0  0  0
 19 18  1  0  0  0  0
 20 18  1  0  0  0  0
 21  4  1  0  0  0  0
 22 33  1  0  0  0  0
 23 33  1  0  0  0  0
 24 26  1  0  0  0  0
 24 25  1  0  0  0  0
 25 27  1  6  0  0  0
 25 32  1  0  0  0  0
 25 30  1  0  0  0  0
 26 28  1  0  0  0  0
 28 22  2  0  0  0  0
 28 31  1  0  0  0  0
 29 24  1  0  0  0  0
 30 31  1  0  0  0  0
 31 23  2  0  0  0  0
 33 21  1  1  0  0  0
 34 22  1  0  0  0  0
M  END
>  <MODEL>
9

>  <REMARK>
 VINA RESULT:      -6.6      3.087      9.667
  Name = 
  3 active torsions:
  status: ('A' for Active; 'I' for Inactive)
    1  A    between atoms: N_3  and  C_25
    2  A    between atoms: C_8  and  C_18
    3  A    between atoms: C_18  and  C_30
                            x       y       z     vdW  Elec       q    Type
                         _______ _______ _______ _____ _____    ______ ____

>  <TORSDO>
F 3

$$$$
