=
 OpenBabel11062407443D

 34 38  0  0  1  0  0  0  0  0999 V2000
  160.7470  211.6040  152.0280 C   0  0  0  0  0  0  0  0  0  0  0  0
  161.9340  209.9950  150.6970 C   0  0  0  0  0  0  0  0  0  0  0  0
  161.5020  209.3180  152.9490 C   0  0  0  0  0  2  0  0  0  0  0  0
  162.6660  208.3800  150.6610 S   0  0  0  0  0  0  0  0  0  0  0  0
  160.6760  212.4490  150.8940 C   0  0  0  0  0  0  0  0  0  0  0  0
  161.8380  210.7930  149.6060 N   0  0  0  0  0  0  0  0  0  0  0  0
  161.2280  212.0080  149.6580 C   0  0  0  0  0  0  0  0  0  0  0  0
  161.7910  208.0030  152.2210 C   0  0  2  0  0  3  0  0  0  0  0  0
  161.3840  210.3610  151.8960 C   0  0  0  0  0  0  0  0  0  0  0  0
  160.8200  211.5350  154.4880 N   0  0  0  0  0  2  0  0  0  0  0  0
  158.6170  211.6560  153.5120 C   0  0  1  0  0  3  0  0  0  0  0  0
  159.8680  211.0540  155.4110 C   0  0  0  0  0  0  0  0  0  0  0  0
  158.4710  211.1450  154.9410 C   0  0  0  0  0  2  0  0  0  0  0  0
  160.1060  212.0330  153.3300 C   0  0  2  0  0  3  0  0  0  0  0  0
  160.1950  210.5820  156.5290 O   0  0  0  0  0  0  0  0  0  0  0  0
  158.2110  210.6580  152.6260 O   0  0  0  0  0  1  0  0  0  0  0  0
  160.1450  213.3460  146.2620 C   0  0  0  0  0  0  0  0  0  0  0  0
  161.1600  214.2650  146.0030 C   0  0  0  0  0  3  0  0  0  0  0  0
  161.1680  212.8030  148.4040 C   0  0  0  0  0  0  0  0  0  0  0  0
  162.1830  214.4530  146.9330 C   0  0  0  0  0  3  0  0  0  0  0  0
  160.1530  212.6150  147.4530 C   0  0  0  0  0  3  0  0  0  0  0  0
  162.1890  213.7220  148.1240 C   0  0  0  0  0  3  0  0  0  0  0  0
  159.1330  213.1510  145.3340 O   0  0  0  0  0  1  0  0  0  0  0  0
  158.6400  213.8090  150.5710 C   0  0  0  0  0  1  0  0  0  0  0  0
  160.0790  213.8170  151.0370 C   0  0  0  0  0  2  0  0  0  0  0  0
  160.5870  207.3680  151.9240 O   0  0  0  0  0  0  0  0  0  0  0  0
  160.7990  206.0220  152.2350 C   0  0  0  0  0  2  0  0  0  0  0  0
  161.7750  203.0780  151.8220 O   0  0  0  0  0  1  0  0  0  0  0  0
  161.1450  205.2350  150.9780 C   0  0  1  0  0  3  0  0  0  0  0  0
  160.7670  203.7540  151.1310 C   0  0  1  0  0  3  0  0  0  0  0  0
  161.2990  203.6810  148.6590 C   0  0  0  0  0  2  0  0  0  0  0  0
  160.9320  205.1590  148.4610 C   0  0  0  0  0  2  0  0  0  0  0  0
  160.4860  205.8590  149.7490 C   0  0  0  0  0  2  0  0  0  0  0  0
  160.4960  203.0510  149.7950 C   0  0  0  0  0  2  0  0  0  0  0  0
  2  9  2  0  0  0  0
  4  2  1  0  0  0  0
  4  8  1  0  0  0  0
  5 25  1  0  0  0  0
  5  1  2  0  0  0  0
  6  7  2  0  0  0  0
  6  2  1  0  0  0  0
  7  5  1  0  0  0  0
  8 26  1  6  0  0  0
  8  3  1  0  0  0  0
  9  1  1  0  0  0  0
  9  3  1  0  0  0  0
 10 12  1  0  0  0  0
 11 16  1  6  0  0  0
 11 13  1  0  0  0  0
 12 15  2  0  0  0  0
 13 12  1  0  0  0  0
 14  1  1  6  0  0  0
 14 11  1  0  0  0  0
 14 10  1  0  0  0  0
 17 21  1  0  0  0  0
 18 17  2  0  0  0  0
 18 20  1  0  0  0  0
 19  7  1  0  0  0  0
 20 22  2  0  0  0  0
 21 19  2  0  0  0  0
 22 19  1  0  0  0  0
 23 17  1  0  0  0  0
 24 25  1  0  0  0  0
 26 27  1  0  0  0  0
 29 30  1  0  0  0  0
 29 27  1  1  0  0  0
 30 28  1  6  0  0  0
 31 34  1  0  0  0  0
 32 31  1  0  0  0  0
 32 33  1  0  0  0  0
 33 29  1  0  0  0  0
 34 30  1  0  0  0  0
M  END
>  <MODEL>
1

>  <REMARK>
 VINA RESULT:      -6.4      0.000      0.000
  Name = 
  6 active torsions:
  status: ('A' for Active; 'I' for Inactive)
    1  A    between atoms: C_3  and  C_13
    2  A    between atoms: C_3  and  O_17
    3  A    between atoms: C_4  and  C_15
    4  A    between atoms: C_12  and  C_28
    5  A    between atoms: O_17  and  C_29
    6  A    between atoms: C_21  and  C_32
                            x       y       z     vdW  Elec       q    Type
                         _______ _______ _______ _____ _____    ______ ____

>  <TORSDO>
F 6

$$$$
=
 OpenBabel11062407443D

 34 38  0  0  1  0  0  0  0  0999 V2000
  160.0890  211.3940  154.2860 C   0  0  0  0  0  0  0  0  0  0  0  0
  160.5470  211.2980  151.9300 C   0  0  0  0  0  0  0  0  0  0  0  0
  162.1190  210.1420  153.3100 C   0  0  0  0  0  2  0  0  0  0  0  0
  161.6280  210.6660  150.6740 S   0  0  0  0  0  0  0  0  0  0  0  0
  158.9170  212.1340  153.9990 C   0  0  0  0  0  0  0  0  0  0  0  0
  159.4090  211.9810  151.6570 N   0  0  0  0  0  0  0  0  0  0  0  0
  158.5770  212.4110  152.6440 C   0  0  0  0  0  0  0  0  0  0  0  0
  162.3360  209.5340  151.9230 C   0  0  2  0  0  3  0  0  0  0  0  0
  160.8920  210.9750  153.2140 C   0  0  0  0  0  0  0  0  0  0  0  0
  161.7860  211.3860  156.0690 N   0  0  0  0  0  2  0  0  0  0  0  0
  160.2120  209.5580  156.1170 C   0  0  1  0  0  3  0  0  0  0  0  0
  162.3370  210.3080  156.7920 C   0  0  0  0  0  0  0  0  0  0  0  0
  161.4290  209.1530  156.9430 C   0  0  0  0  0  2  0  0  0  0  0  0
  160.4240  211.0360  155.7170 C   0  0  2  0  0  3  0  0  0  0  0  0
  163.5060  210.3370  157.2550 O   0  0  0  0  0  0  0  0  0  0  0  0
  160.1140  208.7180  155.0070 O   0  0  0  0  0  1  0  0  0  0  0  0
  155.1810  214.1280  152.7470 C   0  0  0  0  0  0  0  0  0  0  0  0
  155.0020  214.4440  151.4020 C   0  0  0  0  0  3  0  0  0  0  0  0
  157.3490  213.1440  152.2400 C   0  0  0  0  0  0  0  0  0  0  0  0
  155.9860  214.1080  150.4720 C   0  0  0  0  0  3  0  0  0  0  0  0
  156.3450  213.4760  153.1630 C   0  0  0  0  0  3  0  0  0  0  0  0
  157.1500  213.4570  150.8880 C   0  0  0  0  0  3  0  0  0  0  0  0
  154.2000  214.4530  153.6720 O   0  0  0  0  0  1  0  0  0  0  0  0
  157.1970  211.5780  155.6820 C   0  0  0  0  0  1  0  0  0  0  0  0
  158.0920  212.6660  155.1330 C   0  0  0  0  0  2  0  0  0  0  0  0
  161.6780  208.3080  151.8490 O   0  0  0  0  0  0  0  0  0  0  0  0
  162.0580  207.7630  150.6210 C   0  0  0  0  0  2  0  0  0  0  0  0
  160.6870  206.5000  148.1070 O   0  0  0  0  0  1  0  0  0  0  0  0
  161.3790  206.4170  150.4040 C   0  0  1  0  0  3  0  0  0  0  0  0
  161.6070  205.9060  148.9730 C   0  0  1  0  0  3  0  0  0  0  0  0
  160.5890  203.7830  149.8980 C   0  0  0  0  0  2  0  0  0  0  0  0
  161.0760  204.0820  151.3240 C   0  0  0  0  0  2  0  0  0  0  0  0
  161.8480  205.4010  151.4450 C   0  0  0  0  0  2  0  0  0  0  0  0
  161.5240  204.3790  148.8490 C   0  0  0  0  0  2  0  0  0  0  0  0
  2  9  1  0  0  0  0
  4  8  1  0  0  0  0
  4  2  1  0  0  0  0
  5  1  1  0  0  0  0
  5 25  1  0  0  0  0
  6  2  2  0  0  0  0
  6  7  1  0  0  0  0
  7  5  2  0  0  0  0
  8 26  1  1  0  0  0
  8  3  1  0  0  0  0
  9  3  1  0  0  0  0
  9  1  2  0  0  0  0
 10 12  1  0  0  0  0
 11 16  1  6  0  0  0
 11 13  1  0  0  0  0
 12 13  1  0  0  0  0
 12 15  2  0  0  0  0
 14  1  1  6  0  0  0
 14 10  1  0  0  0  0
 14 11  1  0  0  0  0
 17 21  1  0  0  0  0
 17 23  1  0  0  0  0
 18 17  2  0  0  0  0
 19  7  1  0  0  0  0
 19 21  2  0  0  0  0
 20 22  2  0  0  0  0
 20 18  1  0  0  0  0
 22 19  1  0  0  0  0
 25 24  1  0  0  0  0
 27 26  1  0  0  0  0
 29 27  1  6  0  0  0
 29 33  1  0  0  0  0
 30 28  1  6  0  0  0
 30 29  1  0  0  0  0
 31 32  1  0  0  0  0
 32 33  1  0  0  0  0
 34 30  1  0  0  0  0
 34 31  1  0  0  0  0
M  END
>  <MODEL>
2

>  <REMARK>
 VINA RESULT:      -5.6      3.106      4.379
  Name = 
  6 active torsions:
  status: ('A' for Active; 'I' for Inactive)
    1  A    between atoms: C_3  and  C_13
    2  A    between atoms: C_3  and  O_17
    3  A    between atoms: C_4  and  C_15
    4  A    between atoms: C_12  and  C_28
    5  A    between atoms: O_17  and  C_29
    6  A    between atoms: C_21  and  C_32
                            x       y       z     vdW  Elec       q    Type
                         _______ _______ _______ _____ _____    ______ ____

>  <TORSDO>
F 6

$$$$
=
 OpenBabel11062407443D

 34 38  0  0  1  0  0  0  0  0999 V2000
  160.7940  209.5870  153.1860 C   0  0  0  0  0  0  0  0  0  0  0  0
  162.0410  208.4590  151.4700 C   0  0  0  0  0  0  0  0  0  0  0  0
  161.5580  207.1350  153.4010 C   0  0  0  0  0  2  0  0  0  0  0  0
  162.7980  206.9340  150.9740 S   0  0  0  0  0  0  0  0  0  0  0  0
  160.7410  210.7320  152.3550 C   0  0  0  0  0  0  0  0  0  0  0  0
  161.9630  209.5470  150.6660 N   0  0  0  0  0  0  0  0  0  0  0  0
  161.3330  210.6860  151.0610 C   0  0  0  0  0  0  0  0  0  0  0  0
  161.8860  206.1000  152.3220 C   0  0  2  0  0  3  0  0  0  0  0  0
  161.4520  208.4440  152.7060 C   0  0  0  0  0  0  0  0  0  0  0  0
  158.9770  210.5030  154.5700 N   0  0  0  0  0  2  0  0  0  0  0  0
  161.0060  209.9430  155.7490 C   0  0  1  0  0  3  0  0  0  0  0  0
  159.0320  211.2240  155.7810 C   0  0  0  0  0  0  0  0  0  0  0  0
  160.2060  210.9070  156.6190 C   0  0  0  0  0  2  0  0  0  0  0  0
  160.1110  209.6010  154.5350 C   0  0  2  0  0  3  0  0  0  0  0  0
  158.1580  212.0680  156.1020 O   0  0  0  0  0  0  0  0  0  0  0  0
  162.2010  210.5540  155.3700 O   0  0  0  0  0  1  0  0  0  0  0  0
  162.0210  212.9100  148.0490 C   0  0  0  0  0  0  0  0  0  0  0  0
  161.2660  214.0360  148.3720 C   0  0  0  0  0  3  0  0  0  0  0  0
  161.2960  211.8210  150.1020 C   0  0  0  0  0  0  0  0  0  0  0  0
  160.5320  214.0640  149.5580 C   0  0  0  0  0  3  0  0  0  0  0  0
  162.0410  211.8110  148.9120 C   0  0  0  0  0  3  0  0  0  0  0  0
  160.5510  212.9650  150.4200 C   0  0  0  0  0  3  0  0  0  0  0  0
  162.7590  212.8840  146.8750 O   0  0  0  0  0  1  0  0  0  0  0  0
  158.7070  212.1330  152.3640 C   0  0  0  0  0  1  0  0  0  0  0  0
  160.1200  211.9910  152.8840 C   0  0  0  0  0  2  0  0  0  0  0  0
  160.7010  205.5760  151.8110 O   0  0  0  0  0  0  0  0  0  0  0  0
  160.8670  204.1900  151.8520 C   0  0  0  0  0  2  0  0  0  0  0  0
  161.3580  201.2830  150.8040 O   0  0  0  0  0  1  0  0  0  0  0  0
  161.1940  203.6530  150.4650 C   0  0  1  0  0  3  0  0  0  0  0  0
  160.5530  202.2750  150.2400 C   0  0  1  0  0  3  0  0  0  0  0  0
  161.3030  202.6590  147.8540 C   0  0  0  0  0  2  0  0  0  0  0  0
  161.2170  204.1860  147.9940 C   0  0  0  0  0  2  0  0  0  0  0  0
  160.7750  204.6510  149.3860 C   0  0  0  0  0  2  0  0  0  0  0  0
  160.2970  201.9550  148.7610 C   0  0  0  0  0  2  0  0  0  0  0  0
  2  9  2  0  0  0  0
  4  2  1  0  0  0  0
  4  8  1  0  0  0  0
  5 25  1  0  0  0  0
  5  1  2  0  0  0  0
  6  7  2  0  0  0  0
  6  2  1  0  0  0  0
  7  5  1  0  0  0  0
  8 26  1  6  0  0  0
  8  3  1  0  0  0  0
  9  1  1  0  0  0  0
  9  3  1  0  0  0  0
 10 12  1  0  0  0  0
 11 16  1  6  0  0  0
 11 13  1  0  0  0  0
 12 15  2  0  0  0  0
 12 13  1  0  0  0  0
 14  1  1  6  0  0  0
 14 10  1  0  0  0  0
 14 11  1  0  0  0  0
 17 18  2  0  0  0  0
 17 21  1  0  0  0  0
 18 20  1  0  0  0  0
 19 22  1  0  0  0  0
 19  7  1  0  0  0  0
 20 22  2  0  0  0  0
 21 19  2  0  0  0  0
 23 17  1  0  0  0  0
 24 25  1  0  0  0  0
 26 27  1  0  0  0  0
 29 27  1  1  0  0  0
 30 29  1  0  0  0  0
 30 28  1  6  0  0  0
 31 32  1  0  0  0  0
 31 34  1  0  0  0  0
 32 33  1  0  0  0  0
 33 29  1  0  0  0  0
 34 30  1  0  0  0  0
M  END
>  <MODEL>
3

>  <REMARK>
 VINA RESULT:      -5.6      1.667      2.368
  Name = 
  6 active torsions:
  status: ('A' for Active; 'I' for Inactive)
    1  A    between atoms: C_3  and  C_13
    2  A    between atoms: C_3  and  O_17
    3  A    between atoms: C_4  and  C_15
    4  A    between atoms: C_12  and  C_28
    5  A    between atoms: O_17  and  C_29
    6  A    between atoms: C_21  and  C_32
                            x       y       z     vdW  Elec       q    Type
                         _______ _______ _______ _____ _____    ______ ____

>  <TORSDO>
F 6

$$$$
=
 OpenBabel11062407443D

 34 38  0  0  1  0  0  0  0  0999 V2000
  160.6530  210.1850  153.5770 C   0  0  0  0  0  0  0  0  0  0  0  0
  160.6350  211.5240  151.5830 C   0  0  0  0  0  0  0  0  0  0  0  0
  162.3350  209.8450  151.6550 C   0  0  0  0  0  2  0  0  0  0  0  0
  161.3910  211.8070  150.0040 S   0  0  0  0  0  0  0  0  0  0  0  0
  159.5180  210.8980  154.0330 C   0  0  0  0  0  0  0  0  0  0  0  0
  159.5320  212.1850  152.0090 N   0  0  0  0  0  0  0  0  0  0  0  0
  158.9490  211.9090  153.2070 C   0  0  0  0  0  0  0  0  0  0  0  0
  162.2240  210.1880  150.1670 C   0  0  2  0  0  3  0  0  0  0  0  0
  161.1930  210.5180  152.3250 C   0  0  0  0  0  0  0  0  0  0  0  0
  160.1980  208.3100  155.1050 N   0  0  0  0  0  2  0  0  0  0  0  0
  162.2820  209.4700  155.4690 C   0  0  1  0  0  3  0  0  0  0  0  0
  160.6360  208.0890  156.4280 C   0  0  0  0  0  0  0  0  0  0  0  0
  161.9430  208.7020  156.7420 C   0  0  0  0  0  2  0  0  0  0  0  0
  161.2260  209.0630  154.4150 C   0  0  2  0  0  3  0  0  0  0  0  0
  159.9580  207.4350  157.2610 O   0  0  0  0  0  0  0  0  0  0  0  0
  162.2590  210.8380  155.7410 O   0  0  0  0  0  1  0  0  0  0  0  0
  155.8660  213.1460  155.0660 C   0  0  0  0  0  0  0  0  0  0  0  0
  155.3940  214.1140  154.1830 C   0  0  0  0  0  3  0  0  0  0  0  0
  157.7370  212.6840  153.5790 C   0  0  0  0  0  0  0  0  0  0  0  0
  156.0820  214.3680  152.9950 C   0  0  0  0  0  3  0  0  0  0  0  0
  157.0270  212.4310  154.7630 C   0  0  0  0  0  3  0  0  0  0  0  0
  157.2430  213.6530  152.6930 C   0  0  0  0  0  3  0  0  0  0  0  0
  155.1780  212.8870  156.2420 O   0  0  0  0  0  1  0  0  0  0  0  0
  159.5060  211.6380  156.3890 C   0  0  0  0  0  1  0  0  0  0  0  0
  158.9800  210.6180  155.4040 C   0  0  0  0  0  2  0  0  0  0  0  0
  161.4560  209.2170  149.5270 O   0  0  0  0  0  0  0  0  0  0  0  0
  162.3470  208.5430  148.6880 C   0  0  0  0  0  2  0  0  0  0  0  0
  162.3410  206.5620  151.1100 O   0  0  0  0  0  1  0  0  0  0  0  0
  162.1180  207.0400  148.7690 C   0  0  1  0  0  3  0  0  0  0  0  0
  161.4080  206.6570  150.0760 C   0  0  1  0  0  3  0  0  0  0  0  0
  161.2190  204.3990  148.9520 C   0  0  0  0  0  2  0  0  0  0  0  0
  161.2280  205.0150  147.5450 C   0  0  0  0  0  2  0  0  0  0  0  0
  161.3490  206.5430  147.5450 C   0  0  0  0  0  2  0  0  0  0  0  0
  160.6100  205.3510  149.9780 C   0  0  0  0  0  2  0  0  0  0  0  0
  1  5  1  0  0  0  0
  2  6  2  0  0  0  0
  2  9  1  0  0  0  0
  3  9  1  0  0  0  0
  4  8  1  0  0  0  0
  4  2  1  0  0  0  0
  5 25  1  0  0  0  0
  6  7  1  0  0  0  0
  7 19  1  0  0  0  0
  7  5  2  0  0  0  0
  8 26  1  6  0  0  0
  8  3  1  0  0  0  0
  9  1  2  0  0  0  0
 10 12  1  0  0  0  0
 11 16  1  1  0  0  0
 11 13  1  0  0  0  0
 12 13  1  0  0  0  0
 12 15  2  0  0  0  0
 14  1  1  1  0  0  0
 14 10  1  0  0  0  0
 14 11  1  0  0  0  0
 17 23  1  0  0  0  0
 18 17  2  0  0  0  0
 19 21  2  0  0  0  0
 20 18  1  0  0  0  0
 21 17  1  0  0  0  0
 22 20  2  0  0  0  0
 22 19  1  0  0  0  0
 25 24  1  0  0  0  0
 27 26  1  0  0  0  0
 29 27  1  6  0  0  0
 29 30  1  0  0  0  0
 30 28  1  1  0  0  0
 31 34  1  0  0  0  0
 32 31  1  0  0  0  0
 33 32  1  0  0  0  0
 33 29  1  0  0  0  0
 34 30  1  0  0  0  0
M  END
>  <MODEL>
4

>  <REMARK>
 VINA RESULT:      -5.1      2.971      5.117
  Name = 
  6 active torsions:
  status: ('A' for Active; 'I' for Inactive)
    1  A    between atoms: C_3  and  C_13
    2  A    between atoms: C_3  and  O_17
    3  A    between atoms: C_4  and  C_15
    4  A    between atoms: C_12  and  C_28
    5  A    between atoms: O_17  and  C_29
    6  A    between atoms: C_21  and  C_32
                            x       y       z     vdW  Elec       q    Type
                         _______ _______ _______ _____ _____    ______ ____

>  <TORSDO>
F 6

$$$$
=
 OpenBabel11062407443D

 34 38  0  0  1  0  0  0  0  0999 V2000
  160.7280  209.4020  153.8060 C   0  0  0  0  0  0  0  0  0  0  0  0
  160.8780  210.6710  151.7720 C   0  0  0  0  0  0  0  0  0  0  0  0
  162.2000  208.6790  151.8180 C   0  0  0  0  0  2  0  0  0  0  0  0
  161.5910  210.7570  150.1510 S   0  0  0  0  0  0  0  0  0  0  0  0
  159.7890  210.3430  154.2910 C   0  0  0  0  0  0  0  0  0  0  0  0
  159.9580  211.5540  152.2280 N   0  0  0  0  0  0  0  0  0  0  0  0
  159.3950  211.4310  153.4610 C   0  0  0  0  0  0  0  0  0  0  0  0
  162.0820  209.0050  150.3270 C   0  0  2  0  0  3  0  0  0  0  0  0
  161.2560  209.5880  152.5200 C   0  0  0  0  0  0  0  0  0  0  0  0
  159.9420  207.5220  155.1870 N   0  0  0  0  0  2  0  0  0  0  0  0
  162.0590  208.4800  155.8360 C   0  0  1  0  0  3  0  0  0  0  0  0
  160.2020  207.2180  156.5400 C   0  0  0  0  0  0  0  0  0  0  0  0
  161.5100  207.7010  157.0270 C   0  0  0  0  0  2  0  0  0  0  0  0
  161.1020  208.2050  154.6520 C   0  0  2  0  0  3  0  0  0  0  0  0
  159.3790  206.5980  157.2600 O   0  0  0  0  0  0  0  0  0  0  0  0
  162.1190  209.8340  156.1650 O   0  0  0  0  0  1  0  0  0  0  0  0
  156.2980  213.6440  153.5110 C   0  0  0  0  0  0  0  0  0  0  0  0
  156.5680  214.4530  154.6130 C   0  0  0  0  0  3  0  0  0  0  0  0
  158.3890  212.4480  153.8640 C   0  0  0  0  0  0  0  0  0  0  0  0
  157.7460  214.2710  155.3390 C   0  0  0  0  0  3  0  0  0  0  0  0
  157.2070  212.6520  153.1350 C   0  0  0  0  0  3  0  0  0  0  0  0
  158.6530  213.2780  154.9620 C   0  0  0  0  0  3  0  0  0  0  0  0
  155.1320  213.8310  152.7840 O   0  0  0  0  0  1  0  0  0  0  0  0
  157.7660  210.2230  155.7030 C   0  0  0  0  0  1  0  0  0  0  0  0
  159.2780  210.2110  155.6950 C   0  0  0  0  0  2  0  0  0  0  0  0
  161.0990  208.1990  149.7560 O   0  0  0  0  0  0  0  0  0  0  0  0
  161.7410  207.5220  148.7160 C   0  0  0  0  0  2  0  0  0  0  0  0
  161.0440  205.6880  146.2790 O   0  0  0  0  0  1  0  0  0  0  0  0
  161.2510  206.0830  148.6370 C   0  0  1  0  0  3  0  0  0  0  0  0
  161.8160  205.3720  147.3980 C   0  0  1  0  0  3  0  0  0  0  0  0
  160.8310  203.3210  148.5040 C   0  0  0  0  0  2  0  0  0  0  0  0
  160.9830  203.9160  149.9120 C   0  0  0  0  0  2  0  0  0  0  0  0
  161.5860  205.3250  149.9210 C   0  0  0  0  0  2  0  0  0  0  0  0
  161.9030  203.8480  147.5540 C   0  0  0  0  0  2  0  0  0  0  0  0
  1  5  1  0  0  0  0
  2  6  2  0  0  0  0
  2  9  1  0  0  0  0
  3  9  1  0  0  0  0
  4  8  1  0  0  0  0
  4  2  1  0  0  0  0
  5 25  1  0  0  0  0
  6  7  1  0  0  0  0
  7 19  1  0  0  0  0
  7  5  2  0  0  0  0
  8 26  1  1  0  0  0
  8  3  1  0  0  0  0
  9  1  2  0  0  0  0
 10 12  1  0  0  0  0
 11 16  1  1  0  0  0
 11 13  1  0  0  0  0
 12 13  1  0  0  0  0
 12 15  2  0  0  0  0
 14  1  1  1  0  0  0
 14 10  1  0  0  0  0
 14 11  1  0  0  0  0
 17 18  1  0  0  0  0
 18 20  2  0  0  0  0
 19 22  2  0  0  0  0
 21 17  2  0  0  0  0
 21 19  1  0  0  0  0
 22 20  1  0  0  0  0
 23 17  1  0  0  0  0
 25 24  1  0  0  0  0
 27 26  1  0  0  0  0
 29 27  1  1  0  0  0
 29 33  1  0  0  0  0
 30 28  1  6  0  0  0
 30 34  1  0  0  0  0
 30 29  1  0  0  0  0
 31 32  1  0  0  0  0
 32 33  1  0  0  0  0
 34 31  1  0  0  0  0
M  END
>  <MODEL>
5

>  <REMARK>
 VINA RESULT:      -4.9      3.309      5.016
  Name = 
  6 active torsions:
  status: ('A' for Active; 'I' for Inactive)
    1  A    between atoms: C_3  and  C_13
    2  A    between atoms: C_3  and  O_17
    3  A    between atoms: C_4  and  C_15
    4  A    between atoms: C_12  and  C_28
    5  A    between atoms: O_17  and  C_29
    6  A    between atoms: C_21  and  C_32
                            x       y       z     vdW  Elec       q    Type
                         _______ _______ _______ _____ _____    ______ ____

>  <TORSDO>
F 6

$$$$
=
 OpenBabel11062407443D

 34 38  0  0  1  0  0  0  0  0999 V2000
  161.2420  206.8560  151.9900 C   0  0  0  0  0  0  0  0  0  0  0  0
  161.9500  208.5440  150.4340 C   0  0  0  0  0  0  0  0  0  0  0  0
  162.3960  206.2960  149.7550 C   0  0  0  0  0  2  0  0  0  0  0  0
  162.7020  208.8590  148.8600 S   0  0  0  0  0  0  0  0  0  0  0  0
  160.7220  207.8780  152.8200 C   0  0  0  0  0  0  0  0  0  0  0  0
  161.4250  209.5170  151.2170 N   0  0  0  0  0  0  0  0  0  0  0  0
  160.8120  209.2350  152.3980 C   0  0  0  0  0  0  0  0  0  0  0  0
  162.4710  207.0930  148.4500 C   0  0  2  0  0  3  0  0  0  0  0  0
  161.8510  207.2230  150.7800 C   0  0  0  0  0  0  0  0  0  0  0  0
  162.3540  204.6940  152.3750 N   0  0  0  0  0  2  0  0  0  0  0  0
  160.0810  204.5700  151.5760 C   0  0  1  0  0  3  0  0  0  0  0  0
  162.1350  203.4390  151.7690 C   0  0  0  0  0  0  0  0  0  0  0  0
  160.7500  203.2280  151.3010 C   0  0  0  0  0  2  0  0  0  0  0  0
  161.0920  205.4060  152.3950 C   0  0  2  0  0  3  0  0  0  0  0  0
  163.0500  202.5880  151.6360 O   0  0  0  0  0  0  0  0  0  0  0  0
  159.7540  205.1750  150.3620 O   0  0  0  0  0  1  0  0  0  0  0  0
  158.6510  212.1730  153.4910 C   0  0  0  0  0  0  0  0  0  0  0  0
  159.3240  212.5840  154.6400 C   0  0  0  0  0  3  0  0  0  0  0  0
  160.2620  210.3740  153.1780 C   0  0  0  0  0  0  0  0  0  0  0  0
  160.4670  211.9010  155.0600 C   0  0  0  0  0  3  0  0  0  0  0  0
  159.1220  211.0780  152.7610 C   0  0  0  0  0  3  0  0  0  0  0  0
  160.9350  210.8070  154.3300 C   0  0  0  0  0  3  0  0  0  0  0  0
  157.5210  212.8560  153.0680 O   0  0  0  0  0  1  0  0  0  0  0  0
  161.2520  207.3730  155.1780 C   0  0  0  0  0  1  0  0  0  0  0  0
  160.1460  207.5140  154.1560 C   0  0  0  0  0  2  0  0  0  0  0  0
  161.2750  206.9430  147.7500 O   0  0  0  0  0  0  0  0  0  0  0  0
  161.6180  206.2460  146.5890 C   0  0  0  0  0  2  0  0  0  0  0  0
  160.0150  204.5430  144.5100 O   0  0  0  0  0  1  0  0  0  0  0  0
  161.0770  204.8230  146.6440 C   0  0  1  0  0  3  0  0  0  0  0  0
  161.1280  204.1580  145.2600 C   0  0  1  0  0  3  0  0  0  0  0  0
  160.5310  202.0820  146.5780 C   0  0  0  0  0  2  0  0  0  0  0  0
  161.2060  202.6070  147.8540 C   0  0  0  0  0  2  0  0  0  0  0  0
  161.8260  204.0000  147.6910 C   0  0  0  0  0  2  0  0  0  0  0  0
  161.2060  202.6270  145.3210 C   0  0  0  0  0  2  0  0  0  0  0  0
  1  5  1  0  0  0  0
  2  9  1  0  0  0  0
  2  6  2  0  0  0  0
  3  9  1  0  0  0  0
  4  2  1  0  0  0  0
  5 25  1  0  0  0  0
  6  7  1  0  0  0  0
  7  5  2  0  0  0  0
  7 19  1  0  0  0  0
  8 26  1  1  0  0  0
  8  4  1  0  0  0  0
  8  3  1  0  0  0  0
  9  1  2  0  0  0  0
 10 14  1  0  0  0  0
 11 16  1  6  0  0  0
 11 14  1  0  0  0  0
 12 10  1  0  0  0  0
 13 11  1  0  0  0  0
 13 12  1  0  0  0  0
 14  1  1  6  0  0  0
 15 12  2  0  0  0  0
 17 18  1  0  0  0  0
 18 20  2  0  0  0  0
 19 22  2  0  0  0  0
 21 19  1  0  0  0  0
 21 17  2  0  0  0  0
 22 20  1  0  0  0  0
 23 17  1  0  0  0  0
 25 24  1  0  0  0  0
 27 26  1  0  0  0  0
 29 27  1  6  0  0  0
 29 33  1  0  0  0  0
 30 28  1  6  0  0  0
 30 34  1  0  0  0  0
 30 29  1  0  0  0  0
 31 32  1  0  0  0  0
 33 32  1  0  0  0  0
 34 31  1  0  0  0  0
M  END
>  <MODEL>
6

>  <REMARK>
 VINA RESULT:      -4.9      3.477      6.129
  Name = 
  6 active torsions:
  status: ('A' for Active; 'I' for Inactive)
    1  A    between atoms: C_3  and  C_13
    2  A    between atoms: C_3  and  O_17
    3  A    between atoms: C_4  and  C_15
    4  A    between atoms: C_12  and  C_28
    5  A    between atoms: O_17  and  C_29
    6  A    between atoms: C_21  and  C_32
                            x       y       z     vdW  Elec       q    Type
                         _______ _______ _______ _____ _____    ______ ____

>  <TORSDO>
F 6

$$$$
=
 OpenBabel11062407443D

 34 38  0  0  1  0  0  0  0  0999 V2000
  161.8380  207.5510  150.1670 C   0  0  0  0  0  0  0  0  0  0  0  0
  161.9620  209.9120  150.5920 C   0  0  0  0  0  0  0  0  0  0  0  0
  162.4670  209.2630  148.3470 C   0  0  0  0  0  2  0  0  0  0  0  0
  162.2710  211.5110  149.8900 S   0  0  0  0  0  0  0  0  0  0  0  0
  161.4290  207.3590  151.5090 C   0  0  0  0  0  0  0  0  0  0  0  0
  161.5420  209.7280  151.8670 N   0  0  0  0  0  0  0  0  0  0  0  0
  161.2690  208.4900  152.3600 C   0  0  0  0  0  0  0  0  0  0  0  0
  162.1370  210.7530  148.2310 C   0  0  2  0  0  3  0  0  0  0  0  0
  162.0920  208.8590  149.7270 C   0  0  0  0  0  0  0  0  0  0  0  0
  162.7070  206.6690  148.0400 N   0  0  0  0  0  2  0  0  0  0  0  0
  160.6120  205.7300  148.7800 C   0  0  1  0  0  3  0  0  0  0  0  0
  162.0210  206.1190  146.9370 C   0  0  0  0  0  0  0  0  0  0  0  0
  160.7490  205.4540  147.2870 C   0  0  0  0  0  2  0  0  0  0  0  0
  161.9470  206.3640  149.2350 C   0  0  2  0  0  3  0  0  0  0  0  0
  162.4600  206.2030  145.7620 O   0  0  0  0  0  0  0  0  0  0  0  0
  159.5240  206.5780  148.9900 O   0  0  0  0  0  1  0  0  0  0  0  0
  160.0190  209.4170  155.8340 C   0  0  0  0  0  0  0  0  0  0  0  0
  160.0360  208.1740  156.4630 C   0  0  0  0  0  3  0  0  0  0  0  0
  160.8070  208.3960  153.7690 C   0  0  0  0  0  0  0  0  0  0  0  0
  160.4430  207.0420  155.7560 C   0  0  0  0  0  3  0  0  0  0  0  0
  160.4080  209.5280  154.4970 C   0  0  0  0  0  3  0  0  0  0  0  0
  160.8310  207.1540  154.4190 C   0  0  0  0  0  3  0  0  0  0  0  0
  159.6240  210.5450  156.5390 O   0  0  0  0  0  1  0  0  0  0  0  0
  162.5800  205.3120  152.2740 C   0  0  0  0  0  1  0  0  0  0  0  0
  161.2380  205.9640  152.0230 C   0  0  0  0  0  2  0  0  0  0  0  0
  160.8300  210.9010  147.7700 O   0  0  0  0  0  0  0  0  0  0  0  0
  160.5420  212.2590  147.9190 C   0  0  0  0  0  2  0  0  0  0  0  0
  162.4390  214.4160  146.6770 O   0  0  0  0  0  1  0  0  0  0  0  0
  160.5390  212.9540  146.5640 C   0  0  1  0  0  3  0  0  0  0  0  0
  161.9700  213.2410  146.0860 C   0  0  1  0  0  3  0  0  0  0  0  0
  160.7980  213.8400  143.9250 C   0  0  0  0  0  2  0  0  0  0  0  0
  159.6300  212.8830  144.2060 C   0  0  0  0  0  2  0  0  0  0  0  0
  159.7570  212.1350  145.5380 C   0  0  0  0  0  2  0  0  0  0  0  0
  162.0950  213.3440  144.5600 C   0  0  0  0  0  2  0  0  0  0  0  0
  1  5  1  0  0  0  0
  2  6  2  0  0  0  0
  3  9  1  0  0  0  0
  4  2  1  0  0  0  0
  5 25  1  0  0  0  0
  5  7  2  0  0  0  0
  6  7  1  0  0  0  0
  7 19  1  0  0  0  0
  8 26  1  1  0  0  0
  8  3  1  0  0  0  0
  8  4  1  0  0  0  0
  9  1  2  0  0  0  0
  9  2  1  0  0  0  0
 10 14  1  0  0  0  0
 11 16  1  6  0  0  0
 11 14  1  0  0  0  0
 12 13  1  0  0  0  0
 12 10  1  0  0  0  0
 13 11  1  0  0  0  0
 14  1  1  6  0  0  0
 15 12  2  0  0  0  0
 17 18  1  0  0  0  0
 17 23  1  0  0  0  0
 19 22  2  0  0  0  0
 19 21  1  0  0  0  0
 20 18  2  0  0  0  0
 21 17  2  0  0  0  0
 22 20  1  0  0  0  0
 25 24  1  0  0  0  0
 26 27  1  0  0  0  0
 29 27  1  1  0  0  0
 30 29  1  0  0  0  0
 30 28  1  1  0  0  0
 31 32  1  0  0  0  0
 31 34  1  0  0  0  0
 32 33  1  0  0  0  0
 33 29  1  0  0  0  0
 34 30  1  0  0  0  0
M  END
>  <MODEL>
7

>  <REMARK>
 VINA RESULT:      -4.8      2.463      8.397
  Name = 
  6 active torsions:
  status: ('A' for Active; 'I' for Inactive)
    1  A    between atoms: C_3  and  C_13
    2  A    between atoms: C_3  and  O_17
    3  A    between atoms: C_4  and  C_15
    4  A    between atoms: C_12  and  C_28
    5  A    between atoms: O_17  and  C_29
    6  A    between atoms: C_21  and  C_32
                            x       y       z     vdW  Elec       q    Type
                         _______ _______ _______ _____ _____    ______ ____

>  <TORSDO>
F 6

$$$$
=
 OpenBabel11062407443D

 34 38  0  0  1  0  0  0  0  0999 V2000
  161.6790  207.9790  152.4000 C   0  0  0  0  0  0  0  0  0  0  0  0
  161.5880  209.6310  150.6590 C   0  0  0  0  0  0  0  0  0  0  0  0
  162.5900  207.5540  150.0270 C   0  0  0  0  0  2  0  0  0  0  0  0
  161.9560  209.9890  148.9620 S   0  0  0  0  0  0  0  0  0  0  0  0
  161.0060  208.8840  153.2560 C   0  0  0  0  0  0  0  0  0  0  0  0
  160.9190  210.4840  151.4710 N   0  0  0  0  0  0  0  0  0  0  0  0
  160.6110  210.1580  152.7560 C   0  0  0  0  0  0  0  0  0  0  0  0
  162.2150  208.2000  148.6910 C   0  0  2  0  0  3  0  0  0  0  0  0
  161.9530  208.3820  151.0840 C   0  0  0  0  0  0  0  0  0  0  0  0
  162.4170  205.7030  151.8240 N   0  0  0  0  0  2  0  0  0  0  0  0
  160.9720  205.8750  153.7480 C   0  0  1  0  0  3  0  0  0  0  0  0
  161.7940  204.4600  152.0580 C   0  0  0  0  0  0  0  0  0  0  0  0
  160.9340  204.4310  153.2580 C   0  0  0  0  0  2  0  0  0  0  0  0
  162.0440  206.5980  152.9000 C   0  0  2  0  0  3  0  0  0  0  0  0
  161.9560  203.4720  151.2980 O   0  0  0  0  0  0  0  0  0  0  0  0
  159.7070  206.4420  153.5980 O   0  0  0  0  0  1  0  0  0  0  0  0
  159.7200  212.7300  155.4160 C   0  0  0  0  0  0  0  0  0  0  0  0
  158.3820  212.9730  155.1130 C   0  0  0  0  0  3  0  0  0  0  0  0
  159.8670  211.1600  153.5620 C   0  0  0  0  0  0  0  0  0  0  0  0
  157.7790  212.3100  154.0440 C   0  0  0  0  0  3  0  0  0  0  0  0
  160.4560  211.8240  154.6490 C   0  0  0  0  0  3  0  0  0  0  0  0
  158.5160  211.4050  153.2760 C   0  0  0  0  0  3  0  0  0  0  0  0
  160.3170  213.3820  156.4850 O   0  0  0  0  0  1  0  0  0  0  0  0
  161.9340  208.9940  155.5420 C   0  0  0  0  0  1  0  0  0  0  0  0
  160.7830  208.5070  154.6900 C   0  0  0  0  0  2  0  0  0  0  0  0
  161.0300  207.6360  148.2230 O   0  0  0  0  0  0  0  0  0  0  0  0
  160.9870  206.3580  148.7870 C   0  0  0  0  0  2  0  0  0  0  0  0
  160.4560  206.5790  145.7110 O   0  0  0  0  0  1  0  0  0  0  0  0
  160.8830  205.3000  147.6960 C   0  0  1  0  0  3  0  0  0  0  0  0
  161.4340  205.8240  146.3610 C   0  0  1  0  0  3  0  0  0  0  0  0
  161.1840  203.4060  145.6620 C   0  0  0  0  0  2  0  0  0  0  0  0
  161.3720  202.8940  147.0970 C   0  0  0  0  0  2  0  0  0  0  0  0
  161.5820  204.0110  148.1250 C   0  0  0  0  0  2  0  0  0  0  0  0
  161.9360  204.7140  145.4290 C   0  0  0  0  0  2  0  0  0  0  0  0
  1  5  1  0  0  0  0
  2  9  1  0  0  0  0
  2  6  2  0  0  0  0
  3  9  1  0  0  0  0
  4  2  1  0  0  0  0
  5 25  1  0  0  0  0
  6  7  1  0  0  0  0
  7  5  2  0  0  0  0
  7 19  1  0  0  0  0
  8 26  1  1  0  0  0
  8  4  1  0  0  0  0
  8  3  1  0  0  0  0
  9  1  2  0  0  0  0
 10 12  1  0  0  0  0
 10 14  1  0  0  0  0
 11 16  1  6  0  0  0
 12 13  1  0  0  0  0
 13 11  1  0  0  0  0
 14  1  1  6  0  0  0
 14 11  1  0  0  0  0
 15 12  2  0  0  0  0
 17 23  1  0  0  0  0
 18 17  1  0  0  0  0
 19 21  1  0  0  0  0
 20 18  2  0  0  0  0
 21 17  2  0  0  0  0
 22 19  2  0  0  0  0
 22 20  1  0  0  0  0
 25 24  1  0  0  0  0
 26 27  1  0  0  0  0
 29 33  1  0  0  0  0
 29 27  1  1  0  0  0
 30 28  1  6  0  0  0
 30 29  1  0  0  0  0
 31 32  1  0  0  0  0
 32 33  1  0  0  0  0
 34 31  1  0  0  0  0
 34 30  1  0  0  0  0
M  END
>  <MODEL>
8

>  <REMARK>
 VINA RESULT:      -4.7      3.158      5.910
  Name = 
  6 active torsions:
  status: ('A' for Active; 'I' for Inactive)
    1  A    between atoms: C_3  and  C_13
    2  A    between atoms: C_3  and  O_17
    3  A    between atoms: C_4  and  C_15
    4  A    between atoms: C_12  and  C_28
    5  A    between atoms: O_17  and  C_29
    6  A    between atoms: C_21  and  C_32
                            x       y       z     vdW  Elec       q    Type
                         _______ _______ _______ _____ _____    ______ ____

>  <TORSDO>
F 6

$$$$
=
 OpenBabel11062407443D

 34 38  0  0  1  0  0  0  0  0999 V2000
  161.8490  210.2010  149.6930 C   0  0  0  0  0  0  0  0  0  0  0  0
  160.8540  210.1870  151.8800 C   0  0  0  0  0  0  0  0  0  0  0  0
  161.1180  212.3540  150.9070 C   0  0  0  0  0  2  0  0  0  0  0  0
  160.1550  211.1750  153.1760 S   0  0  0  0  0  0  0  0  0  0  0  0
  161.8940  208.7870  149.7350 C   0  0  0  0  0  0  0  0  0  0  0  0
  160.8720  208.8320  151.9040 N   0  0  0  0  0  0  0  0  0  0  0  0
  161.3740  208.1030  150.8700 C   0  0  0  0  0  0  0  0  0  0  0  0
  160.0660  212.5700  151.9970 C   0  0  2  0  0  3  0  0  0  0  0  0
  161.3070  210.8850  150.7920 C   0  0  0  0  0  0  0  0  0  0  0  0
  163.0630  212.1450  148.7950 N   0  0  0  0  0  2  0  0  0  0  0  0
  161.2570  211.3190  147.4260 C   0  0  1  0  0  3  0  0  0  0  0  0
  162.6260  213.1660  147.9250 C   0  0  0  0  0  0  0  0  0  0  0  0
  161.5620  212.7480  146.9890 C   0  0  0  0  0  2  0  0  0  0  0  0
  162.3370  210.9360  148.4640 C   0  0  2  0  0  3  0  0  0  0  0  0
  163.1020  214.3290  147.9600 O   0  0  0  0  0  0  0  0  0  0  0  0
  159.9680  211.2690  147.9590 O   0  0  0  0  0  1  0  0  0  0  0  0
  161.0420  204.4050  150.0320 C   0  0  0  0  0  0  0  0  0  0  0  0
  161.1860  203.8330  151.2940 C   0  0  0  0  0  3  0  0  0  0  0  0
  161.3400  206.6230  150.9910 C   0  0  0  0  0  0  0  0  0  0  0  0
  161.3990  204.6470  152.4070 C   0  0  0  0  0  3  0  0  0  0  0  0
  161.1120  205.7920  149.8820 C   0  0  0  0  0  3  0  0  0  0  0  0
  161.4700  206.0330  152.2570 C   0  0  0  0  0  3  0  0  0  0  0  0
  160.8200  203.5980  148.9260 O   0  0  0  0  0  1  0  0  0  0  0  0
  161.5410  207.7510  147.5210 C   0  0  0  0  0  1  0  0  0  0  0  0
  162.5490  208.0430  148.6100 C   0  0  0  0  0  2  0  0  0  0  0  0
  158.8000  212.5930  151.4160 O   0  0  0  0  0  0  0  0  0  0  0  0
  158.3910  213.9270  151.4840 C   0  0  0  0  0  2  0  0  0  0  0  0
  159.1020  214.4270  148.4780 O   0  0  0  0  0  1  0  0  0  0  0  0
  157.5260  214.2790  150.2820 C   0  0  1  0  0  3  0  0  0  0  0  0
  158.0740  213.6380  148.9980 C   0  0  1  0  0  3  0  0  0  0  0  0
  155.8780  214.4360  148.0280 C   0  0  0  0  0  2  0  0  0  0  0  0
  155.1630  214.3530  149.3850 C   0  0  0  0  0  2  0  0  0  0  0  0
  156.0700  213.8850  150.5290 C   0  0  0  0  0  2  0  0  0  0  0  0
  157.0030  213.4100  147.9230 C   0  0  0  0  0  2  0  0  0  0  0  0
  1  5  2  0  0  0  0
  1  9  1  0  0  0  0
  2  6  1  0  0  0  0
  2  4  1  0  0  0  0
  3  8  1  0  0  0  0
  5  7  1  0  0  0  0
  7 19  1  0  0  0  0
  7  6  2  0  0  0  0
  8 26  1  6  0  0  0
  8  4  1  0  0  0  0
  9  3  1  0  0  0  0
  9  2  2  0  0  0  0
 11 16  1  1  0  0  0
 11 14  1  0  0  0  0
 12 15  2  0  0  0  0
 12 10  1  0  0  0  0
 13 11  1  0  0  0  0
 13 12  1  0  0  0  0
 14 10  1  0  0  0  0
 14  1  1  1  0  0  0
 17 18  1  0  0  0  0
 18 20  2  0  0  0  0
 19 22  2  0  0  0  0
 21 17  2  0  0  0  0
 21 19  1  0  0  0  0
 22 20  1  0  0  0  0
 23 17  1  0  0  0  0
 24 25  1  0  0  0  0
 25  5  1  0  0  0  0
 26 27  1  0  0  0  0
 29 33  1  0  0  0  0
 29 27  1  1  0  0  0
 30 28  1  6  0  0  0
 30 29  1  0  0  0  0
 31 32  1  0  0  0  0
 32 33  1  0  0  0  0
 34 31  1  0  0  0  0
 34 30  1  0  0  0  0
M  END
>  <MODEL>
9

>  <REMARK>
 VINA RESULT:      -4.5      2.368      7.959
  Name = 
  6 active torsions:
  status: ('A' for Active; 'I' for Inactive)
    1  A    between atoms: C_3  and  C_13
    2  A    between atoms: C_3  and  O_17
    3  A    between atoms: C_4  and  C_15
    4  A    between atoms: C_12  and  C_28
    5  A    between atoms: O_17  and  C_29
    6  A    between atoms: C_21  and  C_32
                            x       y       z     vdW  Elec       q    Type
                         _______ _______ _______ _____ _____    ______ ____

>  <TORSDO>
F 6

$$$$
