=
 OpenBabel11062410233D

 43 49  0  0  1  0  0  0  0  0999 V2000
  161.9010  212.2260  148.6330 C   0  0  0  0  0  0  0  0  0  0  0  0
  161.3320  204.7040  147.6890 C   0  0  0  0  0  0  0  0  0  0  0  0
  161.8790  213.3360  149.2400 O   0  0  0  0  0  0  0  0  0  0  0  0
  161.7370  208.6740  150.8770 C   0  0  0  0  0  0  0  0  0  0  0  0
  161.8860  211.0130  149.3820 N   0  0  0  0  0  0  0  0  0  0  0  0
  161.6850  206.0940  149.6240 C   0  0  0  0  0  0  0  0  0  0  0  0
  161.0780  205.9320  146.8830 C   0  0  0  0  0  3  0  0  0  0  0  0
  161.2570  203.3710  147.0350 C   0  0  0  0  0  1  0  0  0  0  0  0
  162.0400  207.2640  148.7290 C   0  0  1  0  0  3  0  0  0  0  0  0
  161.5560  204.7720  148.9910 C   0  0  0  0  0  3  0  0  0  0  0  0
  161.3450  207.1370  147.3820 C   0  0  0  0  0  3  0  0  0  0  0  0
  161.9540  209.7420  148.7120 C   0  0  0  0  0  3  0  0  0  0  0  0
  161.8590  208.6050  149.4040 C   0  0  0  0  0  0  0  0  0  0  0  0
  161.6070  207.5500  151.5900 C   0  0  0  0  0  3  0  0  0  0  0  0
  161.7520  210.0050  151.5280 C   0  0  0  0  0  0  0  0  0  0  0  0
  161.8100  211.0760  150.7880 N   0  0  0  0  0  0  0  0  0  0  0  0
  161.5430  206.2270  150.9400 C   0  0  0  0  0  3  0  0  0  0  0  0
  161.9280  212.1780  147.2050 N   0  0  0  0  0  0  0  0  0  0  0  0
  161.5870  213.1890  146.4780 C   0  0  0  0  0  3  0  0  0  0  0  0
  162.4470  214.2190  144.4050 C   0  0  0  0  0  2  0  0  0  0  0  0
  160.2490  213.1300  144.4830 N   0  0  1  0  0  0  0  0  0  0  0  0
  161.2390  212.9840  141.9820 C   0  0  0  0  0  2  0  0  0  0  0  0
  161.6170  213.0900  144.9950 C   0  0  2  0  0  3  0  0  0  0  0  0
  163.2960  213.7120  143.2420 C   0  0  0  0  0  2  0  0  0  0  0  0
  160.0800  212.9540  143.0100 C   0  0  1  0  0  0  0  0  0  0  0  0
  160.0150  211.7950  143.8830 C   0  0  0  0  0  2  0  0  0  0  0  0
  162.6280  212.5800  142.4630 C   0  0  0  0  0  2  0  0  0  0  0  0
  158.8060  213.3240  142.5420 O   0  0  0  0  0  0  0  0  0  0  0  0
  158.9020  213.3960  141.1440 C   0  0  2  0  0  3  0  0  0  0  0  0
  157.3530  211.6250  138.4540 N   0  0  0  0  0  1  0  0  0  0  0  0
  157.2780  213.8360  139.4040 C   0  0  0  0  0  2  0  0  0  0  0  0
  157.2650  212.3560  139.6890 C   0  0  2  0  0  3  0  0  0  0  0  0
  157.9420  214.4480  140.6100 C   0  0  0  0  0  2  0  0  0  0  0  0
  158.4820  212.0730  140.5410 C   0  0  0  0  0  2  0  0  0  0  0  0
  161.6600  210.1540  153.0030 C   0  0  0  0  0  2  0  0  0  0  0  0
  158.6710  212.2620  153.5300 C   0  0  0  0  0  2  0  0  0  0  0  0
  158.0530  211.4430  154.5690 N   0  0  0  0  0  0  0  0  0  0  0  0
  156.0310  210.9070  155.5920 O   0  0  0  0  0  0  0  0  0  0  0  0
  160.1800  210.1060  154.8110 C   0  0  0  0  0  2  0  0  0  0  0  0
  160.1370  211.9020  153.3150 C   0  0  0  0  0  2  0  0  0  0  0  0
  160.2960  210.4610  153.3960 N   0  0  0  0  0  0  0  0  0  0  0  0
  156.6460  211.5560  154.7060 C   0  0  0  0  0  3  0  0  0  0  0  0
  158.7740  210.4070  155.3460 C   0  0  0  0  0  2  0  0  0  0  0  0
  1  3  2  0  0  0  0
  1  5  1  0  0  0  0
  2 10  2  0  0  0  0
  4 15  1  0  0  0  0
  4 14  2  0  0  0  0
  5 16  1  0  0  0  0
  6 17  2  0  0  0  0
  7 11  2  0  0  0  0
  7  2  1  0  0  0  0
  8  2  1  0  0  0  0
  9 11  1  6  0  0  0
  9 13  1  0  0  0  0
  9  6  1  0  0  0  0
 10  6  1  0  0  0  0
 12  5  1  0  0  0  0
 12 13  2  0  0  0  0
 13  4  1  0  0  0  0
 15 35  1  0  0  0  0
 16 15  2  0  0  0  0
 17 14  1  0  0  0  0
 18  1  1  0  0  0  0
 19 18  2  0  0  0  0
 20 23  1  0  0  0  0
 21 26  1  1  0  0  0
 21 23  1  0  0  0  0
 22 27  1  0  0  0  0
 22 25  1  0  0  0  0
 23 19  1  1  0  0  0
 24 20  1  0  0  0  0
 25 28  1  6  0  0  0
 25 26  1  0  0  0  0
 25 21  1  0  0  0  0
 27 24  1  0  0  0  0
 29 28  1  1  0  0  0
 31 32  1  0  0  0  0
 31 33  1  0  0  0  0
 32 30  1  6  0  0  0
 32 34  1  0  0  0  0
 33 29  1  0  0  0  0
 34 29  1  0  0  0  0
 35 41  1  0  0  0  0
 36 37  1  0  0  0  0
 37 42  1  0  0  0  0
 37 43  1  0  0  0  0
 39 43  1  0  0  0  0
 40 41  1  0  0  0  0
 40 36  1  0  0  0  0
 41 39  1  0  0  0  0
 42 38  2  0  0  0  0
M  END
>  <MODEL>
1

>  <REMARK>
 VINA RESULT:      -8.6      0.000      0.000
  Name = 
  6 active torsions:
  status: ('A' for Active; 'I' for Inactive)
    1  A    between atoms: C_1  and  C_34
    2  A    between atoms: C_1  and  N_35
    3  A    between atoms: C_2  and  N_6
    4  A    between atoms: C_11  and  O_14
    5  A    between atoms: C_12  and  C_17
    6  A    between atoms: O_14  and  C_22
                            x       y       z     vdW  Elec       q    Type
                         _______ _______ _______ _____ _____    ______ ____

>  <TORSDO>
F 6

$$$$
=
 OpenBabel11062410233D

 43 49  0  0  1  0  0  0  0  0999 V2000
  161.5370  212.1060  148.5330 C   0  0  0  0  0  0  0  0  0  0  0  0
  161.2650  204.6940  146.8640 C   0  0  0  0  0  0  0  0  0  0  0  0
  161.5700  213.1440  149.2550 O   0  0  0  0  0  0  0  0  0  0  0  0
  162.0670  208.3470  150.3410 C   0  0  0  0  0  0  0  0  0  0  0  0
  161.7540  210.8270  149.1250 N   0  0  0  0  0  0  0  0  0  0  0  0
  161.9210  205.9100  148.8360 C   0  0  0  0  0  0  0  0  0  0  0  0
  160.7730  205.9700  146.2710 C   0  0  0  0  0  3  0  0  0  0  0  0
  161.1410  203.4310  146.0880 C   0  0  0  0  0  1  0  0  0  0  0  0
  162.0080  207.1890  148.0290 C   0  0  1  0  0  3  0  0  0  0  0  0
  161.7480  204.6510  148.0940 C   0  0  0  0  0  3  0  0  0  0  0  0
  161.0590  207.1380  146.8410 C   0  0  0  0  0  3  0  0  0  0  0  0
  161.7630  209.6400  148.3130 C   0  0  0  0  0  3  0  0  0  0  0  0
  161.8860  208.4350  148.8760 C   0  0  0  0  0  0  0  0  0  0  0  0
  162.1590  207.1510  150.9330 C   0  0  0  0  0  3  0  0  0  0  0  0
  162.1310  209.6040  151.1250 C   0  0  0  0  0  0  0  0  0  0  0  0
  161.9660  210.7430  150.5160 N   0  0  0  0  0  0  0  0  0  0  0  0
  162.0460  205.8990  150.1610 C   0  0  0  0  0  3  0  0  0  0  0  0
  161.2710  212.2020  147.1310 N   0  0  0  0  0  0  0  0  0  0  0  0
  160.8580  213.2980  146.5850 C   0  0  0  0  0  3  0  0  0  0  0  0
  159.3720  212.4900  144.7860 C   0  0  0  0  0  2  0  0  0  0  0  0
  161.7610  212.8920  144.3960 N   0  0  1  0  0  0  0  0  0  0  0  0
  160.4020  213.2300  142.0950 C   0  0  0  0  0  2  0  0  0  0  0  0
  160.5810  213.3480  145.1260 C   0  0  2  0  0  3  0  0  0  0  0  0
  158.4980  213.1800  143.7430 C   0  0  0  0  0  2  0  0  0  0  0  0
  161.6940  212.9580  142.9060 C   0  0  1  0  0  0  0  0  0  0  0  0
  162.2440  214.0780  143.6490 C   0  0  0  0  0  2  0  0  0  0  0  0
  159.2970  214.0390  142.7660 C   0  0  0  0  0  2  0  0  0  0  0  0
  162.7020  212.2150  142.2650 O   0  0  0  0  0  0  0  0  0  0  0  0
  162.3610  212.1760  140.9040 C   0  0  2  0  0  3  0  0  0  0  0  0
  163.9220  213.3610  137.9150 N   0  0  0  0  0  1  0  0  0  0  0  0
  163.4580  211.2410  138.9600 C   0  0  0  0  0  2  0  0  0  0  0  0
  163.9790  212.6420  139.1590 C   0  0  2  0  0  3  0  0  0  0  0  0
  162.8440  210.8720  140.2850 C   0  0  0  0  0  2  0  0  0  0  0  0
  163.0670  213.2960  140.1730 C   0  0  0  0  0  2  0  0  0  0  0  0
  162.3370  209.5970  152.5960 C   0  0  0  0  0  2  0  0  0  0  0  0
  160.9220  211.5800  155.3750 C   0  0  0  0  0  2  0  0  0  0  0  0
  159.6460  211.8980  154.7390 N   0  0  0  0  0  0  0  0  0  0  0  0
  157.8740  213.4080  154.7210 O   0  0  0  0  0  0  0  0  0  0  0  0
  160.1040  210.2040  152.9250 C   0  0  0  0  0  2  0  0  0  0  0  0
  161.6460  210.4410  154.6660 C   0  0  0  0  0  2  0  0  0  0  0  0
  161.4840  210.5860  153.2300 N   0  0  0  0  0  0  0  0  0  0  0  0
  158.9910  213.0710  155.1940 C   0  0  0  0  0  3  0  0  0  0  0  0
  159.1040  211.1760  153.5640 C   0  0  0  0  0  2  0  0  0  0  0  0
  1  5  1  0  0  0  0
  1  3  2  0  0  0  0
  2 10  2  0  0  0  0
  4 14  2  0  0  0  0
  4 15  1  0  0  0  0
  5 16  1  0  0  0  0
  6 17  2  0  0  0  0
  7 11  2  0  0  0  0
  7  2  1  0  0  0  0
  8  2  1  0  0  0  0
  9 11  1  6  0  0  0
  9  6  1  0  0  0  0
  9 13  1  0  0  0  0
 10  6  1  0  0  0  0
 12 13  2  0  0  0  0
 12  5  1  0  0  0  0
 13  4  1  0  0  0  0
 15 35  1  0  0  0  0
 16 15  2  0  0  0  0
 17 14  1  0  0  0  0
 18  1  1  0  0  0  0
 19 18  2  0  0  0  0
 20 23  1  0  0  0  0
 21 26  1  1  0  0  0
 21 23  1  0  0  0  0
 22 27  1  0  0  0  0
 22 25  1  0  0  0  0
 23 19  1  1  0  0  0
 24 20  1  0  0  0  0
 25 28  1  6  0  0  0
 25 26  1  0  0  0  0
 25 21  1  0  0  0  0
 27 24  1  0  0  0  0
 29 28  1  1  0  0  0
 31 32  1  0  0  0  0
 31 33  1  0  0  0  0
 32 30  1  6  0  0  0
 32 34  1  0  0  0  0
 33 29  1  0  0  0  0
 34 29  1  0  0  0  0
 35 41  1  0  0  0  0
 37 42  1  0  0  0  0
 37 36  1  0  0  0  0
 38 42  2  0  0  0  0
 39 41  1  0  0  0  0
 39 43  1  0  0  0  0
 40 36  1  0  0  0  0
 41 40  1  0  0  0  0
 43 37  1  0  0  0  0
M  END
>  <MODEL>
2

>  <REMARK>
 VINA RESULT:      -8.3      1.949      2.848
  Name = 
  6 active torsions:
  status: ('A' for Active; 'I' for Inactive)
    1  A    between atoms: C_1  and  C_34
    2  A    between atoms: C_1  and  N_35
    3  A    between atoms: C_2  and  N_6
    4  A    between atoms: C_11  and  O_14
    5  A    between atoms: C_12  and  C_17
    6  A    between atoms: O_14  and  C_22
                            x       y       z     vdW  Elec       q    Type
                         _______ _______ _______ _____ _____    ______ ____

>  <TORSDO>
F 6

$$$$
=
 OpenBabel11062410233D

 43 49  0  0  1  0  0  0  0  0999 V2000
  161.9770  207.9490  148.8690 C   0  0  0  0  0  0  0  0  0  0  0  0
  160.3010  211.0050  155.6250 C   0  0  0  0  0  0  0  0  0  0  0  0
  162.3350  207.0620  148.0400 O   0  0  0  0  0  0  0  0  0  0  0  0
  161.1370  206.8130  152.8300 C   0  0  0  0  0  0  0  0  0  0  0  0
  161.6510  207.5740  150.2050 N   0  0  0  0  0  0  0  0  0  0  0  0
  160.4070  208.7330  154.8320 C   0  0  0  0  0  0  0  0  0  0  0  0
  160.8880  211.4590  154.3330 C   0  0  0  0  0  3  0  0  0  0  0  0
  159.9700  212.0090  156.6710 C   0  0  0  0  0  1  0  0  0  0  0  0
  160.3940  209.2250  153.3990 C   0  0  1  0  0  3  0  0  0  0  0  0
  160.1320  209.7200  155.8880 C   0  0  0  0  0  3  0  0  0  0  0  0
  160.9960  210.6190  153.3050 C   0  0  0  0  0  3  0  0  0  0  0  0
  161.2010  208.5600  151.1500 C   0  0  0  0  0  3  0  0  0  0  0  0
  160.9720  208.2260  152.4220 C   0  0  0  0  0  0  0  0  0  0  0  0
  160.9450  206.4590  154.1050 C   0  0  0  0  0  3  0  0  0  0  0  0
  161.5250  205.8190  151.8010 C   0  0  0  0  0  0  0  0  0  0  0  0
  161.7690  206.2210  150.5860 N   0  0  0  0  0  0  0  0  0  0  0  0
  160.6070  207.4550  155.1390 C   0  0  0  0  0  3  0  0  0  0  0  0
  161.9110  209.3230  148.4820 N   0  0  0  0  0  0  0  0  0  0  0  0
  162.0400  210.2830  149.3360 C   0  0  0  0  0  3  0  0  0  0  0  0
  160.5140  212.1920  148.9790 C   0  0  0  0  0  2  0  0  0  0  0  0
  162.4510  211.8050  147.5230 N   0  0  1  0  0  0  0  0  0  0  0  0
  161.8710  214.4350  147.5730 C   0  0  0  0  0  2  0  0  0  0  0  0
  161.9500  211.6990  148.8910 C   0  0  2  0  0  3  0  0  0  0  0  0
  160.4680  213.6250  149.5010 C   0  0  0  0  0  2  0  0  0  0  0  0
  162.5180  213.1770  146.9390 C   0  0  1  0  0  0  0  0  0  0  0  0
  163.6800  212.6300  147.6170 C   0  0  0  0  0  2  0  0  0  0  0  0
  161.6820  214.4520  149.0850 C   0  0  0  0  0  2  0  0  0  0  0  0
  162.6880  213.1860  145.5420 O   0  0  0  0  0  0  0  0  0  0  0  0
  161.4850  213.6630  144.9990 C   0  0  2  0  0  3  0  0  0  0  0  0
  160.1570  213.8480  141.6860 N   0  0  0  0  0  1  0  0  0  0  0  0
  159.7330  212.6070  143.7060 C   0  0  0  0  0  2  0  0  0  0  0  0
  160.7830  213.1050  142.7460 C   0  0  2  0  0  3  0  0  0  0  0  0
  160.4260  212.5700  145.0420 C   0  0  0  0  0  2  0  0  0  0  0  0
  161.6930  214.0130  143.5420 C   0  0  0  0  0  2  0  0  0  0  0  0
  161.6840  204.3790  152.1280 C   0  0  0  0  0  2  0  0  0  0  0  0
  160.6600  203.4530  148.7000 C   0  0  0  0  0  2  0  0  0  0  0  0
  160.9310  202.0220  148.8100 N   0  0  0  0  0  0  0  0  0  0  0  0
  161.4160  200.0970  147.5950 O   0  0  0  0  0  0  0  0  0  0  0  0
  161.1980  202.2440  151.3100 C   0  0  0  0  0  2  0  0  0  0  0  0
  160.6110  204.1330  150.0640 C   0  0  0  0  0  2  0  0  0  0  0  0
  161.6490  203.5800  150.9160 N   0  0  0  0  0  0  0  0  0  0  0  0
  161.1980  201.3370  147.5980 C   0  0  0  0  0  3  0  0  0  0  0  0
  161.1030  201.3090  150.0980 C   0  0  0  0  0  2  0  0  0  0  0  0
  1  5  1  0  0  0  0
  2 10  2  0  0  0  0
  2  8  1  0  0  0  0
  3  1  2  0  0  0  0
  4 14  2  0  0  0  0
  5 16  1  0  0  0  0
  5 12  1  0  0  0  0
  6 17  2  0  0  0  0
  6 10  1  0  0  0  0
  7  2  1  0  0  0  0
  9 11  1  1  0  0  0
  9  6  1  0  0  0  0
 11  7  2  0  0  0  0
 12 13  2  0  0  0  0
 13  4  1  0  0  0  0
 13  9  1  0  0  0  0
 14 17  1  0  0  0  0
 15 35  1  0  0  0  0
 15  4  1  0  0  0  0
 16 15  2  0  0  0  0
 18  1  1  0  0  0  0
 18 19  2  0  0  0  0
 20 24  1  0  0  0  0
 21 26  1  1  0  0  0
 21 23  1  0  0  0  0
 22 27  1  0  0  0  0
 23 20  1  0  0  0  0
 23 19  1  6  0  0  0
 25 28  1  6  0  0  0
 25 21  1  0  0  0  0
 25 22  1  0  0  0  0
 25 26  1  0  0  0  0
 27 24  1  0  0  0  0
 29 33  1  0  0  0  0
 29 28  1  6  0  0  0
 31 33  1  0  0  0  0
 32 30  1  6  0  0  0
 32 34  1  0  0  0  0
 32 31  1  0  0  0  0
 34 29  1  0  0  0  0
 36 37  1  0  0  0  0
 36 40  1  0  0  0  0
 37 43  1  0  0  0  0
 38 42  2  0  0  0  0
 40 41  1  0  0  0  0
 41 39  1  0  0  0  0
 41 35  1  0  0  0  0
 42 37  1  0  0  0  0
 43 39  1  0  0  0  0
M  END
>  <MODEL>
3

>  <REMARK>
 VINA RESULT:      -8.2      3.484      7.022
  Name = 
  6 active torsions:
  status: ('A' for Active; 'I' for Inactive)
    1  A    between atoms: C_1  and  C_34
    2  A    between atoms: C_1  and  N_35
    3  A    between atoms: C_2  and  N_6
    4  A    between atoms: C_11  and  O_14
    5  A    between atoms: C_12  and  C_17
    6  A    between atoms: O_14  and  C_22
                            x       y       z     vdW  Elec       q    Type
                         _______ _______ _______ _____ _____    ______ ____

>  <TORSDO>
F 6

$$$$
=
 OpenBabel11062410233D

 43 49  0  0  1  0  0  0  0  0999 V2000
  162.3100  208.1370  149.0830 C   0  0  0  0  0  0  0  0  0  0  0  0
  160.2700  211.0560  155.8000 C   0  0  0  0  0  0  0  0  0  0  0  0
  162.6900  207.2610  148.2530 O   0  0  0  0  0  0  0  0  0  0  0  0
  161.1320  206.9190  152.9320 C   0  0  0  0  0  0  0  0  0  0  0  0
  161.8700  207.7360  150.3790 N   0  0  0  0  0  0  0  0  0  0  0  0
  160.3380  208.8070  154.9400 C   0  0  0  0  0  0  0  0  0  0  0  0
  160.9700  211.5220  154.5700 C   0  0  0  0  0  3  0  0  0  0  0  0
  159.9060  212.0410  156.8530 C   0  0  0  0  0  1  0  0  0  0  0  0
  160.4510  209.3430  153.5270 C   0  0  1  0  0  3  0  0  0  0  0  0
  160.0280  209.7720  156.0070 C   0  0  0  0  0  3  0  0  0  0  0  0
  161.1170  210.7110  153.5250 C   0  0  0  0  0  3  0  0  0  0  0  0
  161.3940  208.7120  151.3220 C   0  0  0  0  0  3  0  0  0  0  0  0
  161.0570  208.3490  152.5620 C   0  0  0  0  0  0  0  0  0  0  0  0
  160.8310  206.5340  154.1770 C   0  0  0  0  0  3  0  0  0  0  0  0
  161.5520  205.9400  151.9010 C   0  0  0  0  0  0  0  0  0  0  0  0
  161.9020  206.3680  150.7210 N   0  0  0  0  0  0  0  0  0  0  0  0
  160.4600  207.5120  155.2180 C   0  0  0  0  0  3  0  0  0  0  0  0
  162.3300  209.5240  148.7390 N   0  0  0  0  0  0  0  0  0  0  0  0
  161.4610  210.0450  147.9400 C   0  0  0  0  0  3  0  0  0  0  0  0
  162.3370  212.2440  148.6450 C   0  0  0  0  0  2  0  0  0  0  0  0
  160.1730  212.0270  147.5070 N   0  0  1  0  0  0  0  0  0  0  0  0
  161.2260  214.4510  146.9870 C   0  0  0  0  0  2  0  0  0  0  0  0
  161.5290  211.4910  147.5990 C   0  0  2  0  0  3  0  0  0  0  0  0
  163.2280  213.2920  147.9830 C   0  0  0  0  0  2  0  0  0  0  0  0
  160.0440  213.4540  147.0850 C   0  0  1  0  0  0  0  0  0  0  0  0
  159.9950  212.4030  146.0840 C   0  0  0  0  0  2  0  0  0  0  0  0
  162.6150  213.8850  146.7170 C   0  0  0  0  0  2  0  0  0  0  0  0
  158.7710  213.9990  147.3290 O   0  0  0  0  0  0  0  0  0  0  0  0
  158.2470  213.3050  148.4310 C   0  0  2  0  0  3  0  0  0  0  0  0
  157.5600  214.1880  151.8250 N   0  0  0  0  0  1  0  0  0  0  0  0
  156.3090  213.6700  149.8340 C   0  0  0  0  0  2  0  0  0  0  0  0
  157.4580  214.4530  150.4150 C   0  0  2  0  0  3  0  0  0  0  0  0
  156.7270  213.3790  148.4170 C   0  0  0  0  0  2  0  0  0  0  0  0
  158.7050  213.9690  149.7110 C   0  0  0  0  0  2  0  0  0  0  0  0
  161.6250  204.4850  152.1890 C   0  0  0  0  0  2  0  0  0  0  0  0
  160.5480  203.6460  148.7560 C   0  0  0  0  0  2  0  0  0  0  0  0
  160.8470  202.2180  148.8160 N   0  0  0  0  0  0  0  0  0  0  0  0
  161.3420  200.3400  147.5310 O   0  0  0  0  0  0  0  0  0  0  0  0
  161.1610  202.3680  151.3160 C   0  0  0  0  0  2  0  0  0  0  0  0
  160.5140  204.2820  150.1410 C   0  0  0  0  0  2  0  0  0  0  0  0
  161.5790  203.7230  150.9540 N   0  0  0  0  0  0  0  0  0  0  0  0
  161.1020  201.5750  147.5780 C   0  0  0  0  0  3  0  0  0  0  0  0
  161.0580  201.4690  150.0770 C   0  0  0  0  0  2  0  0  0  0  0  0
  1  5  1  0  0  0  0
  2 10  2  0  0  0  0
  2  8  1  0  0  0  0
  3  1  2  0  0  0  0
  4 14  2  0  0  0  0
  5 16  1  0  0  0  0
  5 12  1  0  0  0  0
  6 17  2  0  0  0  0
  6 10  1  0  0  0  0
  7  2  1  0  0  0  0
  9 11  1  1  0  0  0
  9  6  1  0  0  0  0
 11  7  2  0  0  0  0
 12 13  2  0  0  0  0
 13  4  1  0  0  0  0
 13  9  1  0  0  0  0
 14 17  1  0  0  0  0
 15 35  1  0  0  0  0
 15  4  1  0  0  0  0
 16 15  2  0  0  0  0
 18  1  1  0  0  0  0
 19 18  2  0  0  0  0
 21 26  1  6  0  0  0
 21 23  1  0  0  0  0
 22 25  1  0  0  0  0
 23 19  1  1  0  0  0
 23 20  1  0  0  0  0
 24 20  1  0  0  0  0
 25 28  1  1  0  0  0
 25 21  1  0  0  0  0
 26 25  1  0  0  0  0
 27 22  1  0  0  0  0
 27 24  1  0  0  0  0
 29 28  1  6  0  0  0
 29 34  1  0  0  0  0
 31 32  1  0  0  0  0
 32 30  1  1  0  0  0
 33 29  1  0  0  0  0
 33 31  1  0  0  0  0
 34 32  1  0  0  0  0
 36 37  1  0  0  0  0
 36 40  1  0  0  0  0
 37 43  1  0  0  0  0
 38 42  2  0  0  0  0
 40 41  1  0  0  0  0
 41 39  1  0  0  0  0
 41 35  1  0  0  0  0
 42 37  1  0  0  0  0
 43 39  1  0  0  0  0
M  END
>  <MODEL>
4

>  <REMARK>
 VINA RESULT:      -8.1      3.771      7.575
  Name = 
  6 active torsions:
  status: ('A' for Active; 'I' for Inactive)
    1  A    between atoms: C_1  and  C_34
    2  A    between atoms: C_1  and  N_35
    3  A    between atoms: C_2  and  N_6
    4  A    between atoms: C_11  and  O_14
    5  A    between atoms: C_12  and  C_17
    6  A    between atoms: O_14  and  C_22
                            x       y       z     vdW  Elec       q    Type
                         _______ _______ _______ _____ _____    ______ ____

>  <TORSDO>
F 6

$$$$
=
 OpenBabel11062410233D

 43 49  0  0  1  0  0  0  0  0999 V2000
  162.2460  209.0230  148.9720 C   0  0  0  0  0  0  0  0  0  0  0  0
  157.9780  212.8470  153.9680 C   0  0  0  0  0  0  0  0  0  0  0  0
  162.8810  208.8030  147.9000 O   0  0  0  0  0  0  0  0  0  0  0  0
  160.8770  212.9190  149.7650 C   0  0  0  0  0  0  0  0  0  0  0  0
  161.8090  210.3470  149.2740 N   0  0  0  0  0  0  0  0  0  0  0  0
  159.3430  213.5370  152.1080 C   0  0  0  0  0  0  0  0  0  0  0  0
  158.1790  211.4280  153.5590 C   0  0  0  0  0  3  0  0  0  0  0  0
  157.1420  213.1530  155.1600 C   0  0  0  0  0  1  0  0  0  0  0  0
  160.0180  212.1810  152.0900 C   0  0  1  0  0  3  0  0  0  0  0  0
  158.4710  213.8440  153.2530 C   0  0  0  0  0  3  0  0  0  0  0  0
  159.0840  211.1110  152.6360 C   0  0  0  0  0  3  0  0  0  0  0  0
  161.1220  210.6240  150.5060 C   0  0  0  0  0  3  0  0  0  0  0  0
  160.6430  211.8460  150.7550 C   0  0  0  0  0  0  0  0  0  0  0  0
  160.3790  214.1430  149.9750 C   0  0  0  0  0  3  0  0  0  0  0  0
  161.6590  212.6020  148.5460 C   0  0  0  0  0  0  0  0  0  0  0  0
  162.0660  211.3800  148.3500 N   0  0  0  0  0  0  0  0  0  0  0  0
  159.5590  214.4470  151.1620 C   0  0  0  0  0  3  0  0  0  0  0  0
  161.9490  207.9550  149.8760 N   0  0  0  0  0  0  0  0  0  0  0  0
  161.9910  206.7170  149.5110 C   0  0  0  0  0  3  0  0  0  0  0  0
  160.5770  204.7330  149.9170 C   0  0  0  0  0  2  0  0  0  0  0  0
  161.2280  206.2420  151.7400 N   0  0  1  0  0  0  0  0  0  0  0  0
  160.8200  203.7670  152.7210 C   0  0  0  0  0  2  0  0  0  0  0  0
  161.6610  205.6400  150.4810 C   0  0  2  0  0  3  0  0  0  0  0  0
  160.8700  203.2730  150.2510 C   0  0  0  0  0  2  0  0  0  0  0  0
  160.9380  205.3050  152.8660 C   0  0  1  0  0  0  0  0  0  0  0  0
  162.2690  205.8720  152.7300 C   0  0  0  0  0  2  0  0  0  0  0  0
  161.5890  203.0980  151.5870 C   0  0  0  0  0  2  0  0  0  0  0  0
  160.2250  205.9010  153.9220 O   0  0  0  0  0  0  0  0  0  0  0  0
  161.1250  206.7600  154.5730 C   0  0  2  0  0  3  0  0  0  0  0  0
  161.0800  210.2350  155.4050 N   0  0  0  0  0  1  0  0  0  0  0  0
  160.9460  208.1270  156.5620 C   0  0  0  0  0  2  0  0  0  0  0  0
  160.4530  208.9410  155.3920 C   0  0  2  0  0  3  0  0  0  0  0  0
  160.9030  206.7020  156.0770 C   0  0  0  0  0  2  0  0  0  0  0  0
  160.8590  208.1870  154.1460 C   0  0  0  0  0  2  0  0  0  0  0  0
  161.9580  213.6340  147.5200 C   0  0  0  0  0  2  0  0  0  0  0  0
  162.7370  213.2390  143.9290 C   0  0  0  0  0  2  0  0  0  0  0  0
  161.4730  212.6200  143.5370 N   0  0  0  0  0  0  0  0  0  0  0  0
  160.4560  211.2560  141.9480 O   0  0  0  0  0  0  0  0  0  0  0  0
  160.4640  213.2150  145.7730 C   0  0  0  0  0  2  0  0  0  0  0  0
  162.6490  213.8990  145.3010 C   0  0  0  0  0  2  0  0  0  0  0  0
  161.8590  213.0640  146.1880 N   0  0  0  0  0  0  0  0  0  0  0  0
  161.5030  211.8080  142.3750 C   0  0  0  0  0  3  0  0  0  0  0  0
  160.2410  212.6600  144.3600 C   0  0  0  0  0  2  0  0  0  0  0  0
  1  5  1  0  0  0  0
  1 18  1  0  0  0  0
  2  8  1  0  0  0  0
  3  1  2  0  0  0  0
  4 14  2  0  0  0  0
  4 13  1  0  0  0  0
  5 12  1  0  0  0  0
  6 10  1  0  0  0  0
  7  2  1  0  0  0  0
  9  6  1  0  0  0  0
  9 11  1  6  0  0  0
 10  2  2  0  0  0  0
 11  7  2  0  0  0  0
 12 13  2  0  0  0  0
 13  9  1  0  0  0  0
 14 17  1  0  0  0  0
 15  4  1  0  0  0  0
 16 15  2  0  0  0  0
 16  5  1  0  0  0  0
 17  6  2  0  0  0  0
 19 18  2  0  0  0  0
 20 24  1  0  0  0  0
 20 23  1  0  0  0  0
 21 26  1  1  0  0  0
 21 25  1  0  0  0  0
 22 25  1  0  0  0  0
 23 19  1  6  0  0  0
 23 21  1  0  0  0  0
 24 27  1  0  0  0  0
 25 28  1  1  0  0  0
 26 25  1  0  0  0  0
 27 22  1  0  0  0  0
 29 28  1  6  0  0  0
 29 33  1  0  0  0  0
 32 30  1  6  0  0  0
 32 31  1  0  0  0  0
 33 31  1  0  0  0  0
 34 29  1  0  0  0  0
 34 32  1  0  0  0  0
 35 15  1  0  0  0  0
 36 40  1  0  0  0  0
 37 36  1  0  0  0  0
 37 43  1  0  0  0  0
 38 42  2  0  0  0  0
 39 41  1  0  0  0  0
 40 41  1  0  0  0  0
 41 35  1  0  0  0  0
 42 37  1  0  0  0  0
 43 39  1  0  0  0  0
M  END
>  <MODEL>
5

>  <REMARK>
 VINA RESULT:      -7.0      2.730     10.700
  Name = 
  6 active torsions:
  status: ('A' for Active; 'I' for Inactive)
    1  A    between atoms: C_1  and  C_34
    2  A    between atoms: C_1  and  N_35
    3  A    between atoms: C_2  and  N_6
    4  A    between atoms: C_11  and  O_14
    5  A    between atoms: C_12  and  C_17
    6  A    between atoms: O_14  and  C_22
                            x       y       z     vdW  Elec       q    Type
                         _______ _______ _______ _____ _____    ______ ____

>  <TORSDO>
F 6

$$$$
=
 OpenBabel11062410233D

 43 49  0  0  1  0  0  0  0  0999 V2000
  162.0850  209.8710  149.6320 C   0  0  0  0  0  0  0  0  0  0  0  0
  157.5990  212.3300  155.2560 C   0  0  0  0  0  0  0  0  0  0  0  0
  162.6620  209.8760  148.5060 O   0  0  0  0  0  0  0  0  0  0  0  0
  160.0840  213.3420  150.9110 C   0  0  0  0  0  0  0  0  0  0  0  0
  161.4360  211.0530  150.0970 N   0  0  0  0  0  0  0  0  0  0  0  0
  158.6570  213.4370  153.3970 C   0  0  0  0  0  0  0  0  0  0  0  0
  158.0270  211.0200  154.6890 C   0  0  0  0  0  3  0  0  0  0  0  0
  156.8200  212.3600  156.5230 C   0  0  0  0  0  1  0  0  0  0  0  0
  159.5690  212.2440  153.1960 C   0  0  1  0  0  3  0  0  0  0  0  0
  157.8390  213.4640  154.6200 C   0  0  0  0  0  3  0  0  0  0  0  0
  158.8970  210.9690  153.6830 C   0  0  0  0  0  3  0  0  0  0  0  0
  160.8110  211.0800  151.3920 C   0  0  0  0  0  3  0  0  0  0  0  0
  160.1350  212.1580  151.7960 C   0  0  0  0  0  0  0  0  0  0  0  0
  159.3860  214.4220  151.2780 C   0  0  0  0  0  3  0  0  0  0  0  0
  160.8110  213.2940  149.6200 C   0  0  0  0  0  0  0  0  0  0  0  0
  161.4200  212.1960  149.2720 N   0  0  0  0  0  0  0  0  0  0  0  0
  158.6220  214.4530  152.5400 C   0  0  0  0  0  3  0  0  0  0  0  0
  162.0660  208.6890  150.4360 N   0  0  0  0  0  0  0  0  0  0  0  0
  161.2090  207.7420  150.2420 C   0  0  0  0  0  3  0  0  0  0  0  0
  162.3160  206.6440  152.1570 C   0  0  0  0  0  2  0  0  0  0  0  0
  161.4060  205.3480  150.2820 N   0  0  1  0  0  0  0  0  0  0  0  0
  161.3660  203.8480  152.5200 C   0  0  0  0  0  2  0  0  0  0  0  0
  161.2170  206.5360  151.1110 C   0  0  2  0  0  3  0  0  0  0  0  0
  161.8300  206.1190  153.5050 C   0  0  0  0  0  2  0  0  0  0  0  0
  161.3530  204.0290  150.9800 C   0  0  1  0  0  0  0  0  0  0  0  0
  160.1410  204.5820  150.4000 C   0  0  0  0  0  2  0  0  0  0  0  0
  160.8170  204.9850  153.3750 C   0  0  0  0  0  2  0  0  0  0  0  0
  161.8580  202.9650  150.2110 O   0  0  0  0  0  0  0  0  0  0  0  0
  160.8430  202.6100  149.3090 C   0  0  2  0  0  3  0  0  0  0  0  0
  160.7290  202.0890  145.7760 N   0  0  0  0  0  1  0  0  0  0  0  0
  160.5800  200.7570  147.7760 C   0  0  0  0  0  2  0  0  0  0  0  0
  161.3310  201.8490  147.0600 C   0  0  2  0  0  3  0  0  0  0  0  0
  160.7190  201.0950  149.2370 C   0  0  0  0  0  2  0  0  0  0  0  0
  161.2110  203.0870  147.9210 C   0  0  0  0  0  2  0  0  0  0  0  0
  160.8290  214.4520  148.6900 C   0  0  0  0  0  2  0  0  0  0  0  0
  159.0240  212.5760  146.0670 C   0  0  0  0  0  2  0  0  0  0  0  0
  160.0790  212.6150  145.0580 N   0  0  0  0  0  0  0  0  0  0  0  0
  160.5070  212.4920  142.7730 O   0  0  0  0  0  0  0  0  0  0  0  0
  161.7260  213.4440  146.7820 C   0  0  0  0  0  2  0  0  0  0  0  0
  159.5460  212.9360  147.4540 C   0  0  0  0  0  2  0  0  0  0  0  0
  160.5030  214.0220  147.3420 N   0  0  0  0  0  0  0  0  0  0  0  0
  159.6640  212.4960  143.7080 C   0  0  0  0  0  3  0  0  0  0  0  0
  161.4960  212.9340  145.3540 C   0  0  0  0  0  2  0  0  0  0  0  0
  1  5  1  0  0  0  0
  1 18  1  0  0  0  0
  2  8  1  0  0  0  0
  3  1  2  0  0  0  0
  4 14  2  0  0  0  0
  4 13  1  0  0  0  0
  5 12  1  0  0  0  0
  6 10  1  0  0  0  0
  7  2  1  0  0  0  0
  9  6  1  0  0  0  0
  9 11  1  6  0  0  0
 10  2  2  0  0  0  0
 11  7  2  0  0  0  0
 12 13  2  0  0  0  0
 13  9  1  0  0  0  0
 14 17  1  0  0  0  0
 15  4  1  0  0  0  0
 16 15  2  0  0  0  0
 16  5  1  0  0  0  0
 17  6  2  0  0  0  0
 19 18  2  0  0  0  0
 20 24  1  0  0  0  0
 21 26  1  6  0  0  0
 21 25  1  0  0  0  0
 21 23  1  0  0  0  0
 22 27  1  0  0  0  0
 23 19  1  6  0  0  0
 23 20  1  0  0  0  0
 25 28  1  6  0  0  0
 25 22  1  0  0  0  0
 26 25  1  0  0  0  0
 27 24  1  0  0  0  0
 29 28  1  1  0  0  0
 31 33  1  0  0  0  0
 32 30  1  6  0  0  0
 32 31  1  0  0  0  0
 32 34  1  0  0  0  0
 33 29  1  0  0  0  0
 34 29  1  0  0  0  0
 35 15  1  0  0  0  0
 36 40  1  0  0  0  0
 37 43  1  0  0  0  0
 37 36  1  0  0  0  0
 38 42  2  0  0  0  0
 39 41  1  0  0  0  0
 41 40  1  0  0  0  0
 41 35  1  0  0  0  0
 42 37  1  0  0  0  0
 43 39  1  0  0  0  0
M  END
>  <MODEL>
6

>  <REMARK>
 VINA RESULT:      -6.2      3.021      9.918
  Name = 
  6 active torsions:
  status: ('A' for Active; 'I' for Inactive)
    1  A    between atoms: C_1  and  C_34
    2  A    between atoms: C_1  and  N_35
    3  A    between atoms: C_2  and  N_6
    4  A    between atoms: C_11  and  O_14
    5  A    between atoms: C_12  and  C_17
    6  A    between atoms: O_14  and  C_22
                            x       y       z     vdW  Elec       q    Type
                         _______ _______ _______ _____ _____    ______ ____

>  <TORSDO>
F 6

$$$$
=
 OpenBabel11062410233D

 43 49  0  0  1  0  0  0  0  0999 V2000
  161.2110  206.8620  152.8630 C   0  0  0  0  0  0  0  0  0  0  0  0
  161.0330  213.4610  149.0930 C   0  0  0  0  0  0  0  0  0  0  0  0
  161.1940  206.0790  153.8580 O   0  0  0  0  0  0  0  0  0  0  0  0
  160.2010  210.9040  153.4350 C   0  0  0  0  0  0  0  0  0  0  0  0
  160.8330  208.2260  153.0330 N   0  0  0  0  0  0  0  0  0  0  0  0
  160.2910  212.8040  151.2880 C   0  0  0  0  0  0  0  0  0  0  0  0
  161.6840  212.1290  148.9400 C   0  0  0  0  0  3  0  0  0  0  0  0
  161.1270  214.4520  147.9880 C   0  0  0  0  0  1  0  0  0  0  0  0
  160.3880  211.3450  150.8920 C   0  0  0  0  0  0  0  0  0  0  0  0
  160.4300  213.8050  150.2190 C   0  0  0  0  0  2  0  0  0  0  0  0
  161.4410  211.1520  149.8110 C   0  0  0  0  0  3  0  0  0  0  0  0
  160.8060  209.1200  151.9080 C   0  0  0  0  0  3  0  0  0  0  0  0
  160.5300  210.4160  152.0770 C   0  0  0  0  0  0  0  0  0  0  0  0
  159.9530  212.2020  153.6360 C   0  0  0  0  0  3  0  0  0  0  0  0
  160.1650  209.9280  154.5490 C   0  0  0  0  0  0  0  0  0  0  0  0
  160.4810  208.6850  154.3190 N   0  0  0  0  0  0  0  0  0  0  0  0
  160.0370  213.1830  152.5370 C   0  0  0  0  0  3  0  0  0  0  0  0
  161.6200  206.3940  151.5760 N   0  0  0  0  0  0  0  0  0  0  0  0
  160.7780  205.9160  150.7210 C   0  0  0  0  0  3  0  0  0  0  0  0
  160.7850  206.3640  148.2930 C   0  0  0  0  0  2  0  0  0  0  0  0
  160.7450  204.0750  149.1770 N   0  0  1  0  0  0  0  0  0  0  0  0
  161.9310  204.0870  146.7590 C   0  0  0  0  0  2  0  0  0  0  0  0
  161.2490  205.4280  149.3980 C   0  0  2  0  0  3  0  0  0  0  0  0
  161.8850  206.5560  147.2530 C   0  0  0  0  0  2  0  0  0  0  0  0
  161.1930  203.3890  147.9290 C   0  0  1  0  0  0  0  0  0  0  0  0
  161.9470  203.2060  149.1580 C   0  0  0  0  0  2  0  0  0  0  0  0
  162.7660  205.3220  147.0800 C   0  0  0  0  0  2  0  0  0  0  0  0
  160.4340  202.2480  147.6120 O   0  0  0  0  0  0  0  0  0  0  0  0
  160.9960  201.7100  146.4430 C   0  0  2  0  0  3  0  0  0  0  0  0
  161.4810  198.3870  145.2220 N   0  0  0  0  0  1  0  0  0  0  0  0
  160.1090  200.2940  144.6930 C   0  0  0  0  0  2  0  0  0  0  0  0
  160.6360  199.4040  145.7890 C   0  0  2  0  0  3  0  0  0  0  0  0
  159.9450  201.6420  145.3450 C   0  0  0  0  0  2  0  0  0  0  0  0
  161.4470  200.2910  146.7070 C   0  0  0  0  0  2  0  0  0  0  0  0
  159.8170  210.3370  155.9350 C   0  0  0  0  0  2  0  0  0  0  0  0
  157.9090  213.2390  157.1950 C   0  0  0  0  0  2  0  0  0  0  0  0
  156.6930  213.0070  156.4200 N   0  0  0  0  0  0  0  0  0  0  0  0
  154.8050  214.0330  155.5260 O   0  0  0  0  0  0  0  0  0  0  0  0
  157.5150  210.7080  155.7800 C   0  0  0  0  0  2  0  0  0  0  0  0
  158.8130  212.0110  157.2220 C   0  0  0  0  0  2  0  0  0  0  0  0
  158.8080  211.3800  155.9140 N   0  0  0  0  0  0  0  0  0  0  0  0
  155.8840  214.1430  156.1630 C   0  0  0  0  0  3  0  0  0  0  0  0
  156.3620  211.7190  155.7660 C   0  0  0  0  0  2  0  0  0  0  0  0
  1  5  1  0  0  0  0
  1  3  2  0  0  0  0
  2 10  1  0  0  0  0
  4 14  2  0  0  0  0
  4 15  1  0  0  0  0
  5 16  1  0  0  0  0
  6 17  2  0  0  0  0
  7  2  2  0  0  0  0
  7 11  1  0  0  0  0
  8  2  1  0  0  0  0
  9  6  1  0  0  0  0
  9 13  1  0  0  0  0
 10  6  1  0  0  0  0
 11  9  2  0  0  0  0
 12 13  2  0  0  0  0
 12  5  1  0  0  0  0
 13  4  1  0  0  0  0
 15 35  1  0  0  0  0
 16 15  2  0  0  0  0
 17 14  1  0  0  0  0
 18  1  1  0  0  0  0
 19 18  2  0  0  0  0
 20 23  1  0  0  0  0
 21 26  1  1  0  0  0
 21 23  1  0  0  0  0
 22 27  1  0  0  0  0
 22 25  1  0  0  0  0
 23 19  1  1  0  0  0
 24 20  1  0  0  0  0
 25 28  1  6  0  0  0
 25 26  1  0  0  0  0
 25 21  1  0  0  0  0
 27 24  1  0  0  0  0
 29 34  1  0  0  0  0
 29 28  1  1  0  0  0
 31 33  1  0  0  0  0
 31 32  1  0  0  0  0
 32 30  1  6  0  0  0
 32 34  1  0  0  0  0
 33 29  1  0  0  0  0
 36 40  1  0  0  0  0
 37 36  1  0  0  0  0
 38 42  2  0  0  0  0
 39 41  1  0  0  0  0
 41 35  1  0  0  0  0
 41 40  1  0  0  0  0
 42 37  1  0  0  0  0
 43 39  1  0  0  0  0
 43 37  1  0  0  0  0
M  END
>  <MODEL>
7

>  <REMARK>
 VINA RESULT:      -6.1      5.264      8.412
  Name = 
  6 active torsions:
  status: ('A' for Active; 'I' for Inactive)
    1  A    between atoms: C_1  and  C_34
    2  A    between atoms: C_1  and  N_35
    3  A    between atoms: C_2  and  N_6
    4  A    between atoms: C_11  and  O_14
    5  A    between atoms: C_12  and  C_17
    6  A    between atoms: O_14  and  C_22
                            x       y       z     vdW  Elec       q    Type
                         _______ _______ _______ _____ _____    ______ ____

>  <TORSDO>
F 6

$$$$
=
 OpenBabel11062410233D

 43 49  0  0  1  0  0  0  0  0999 V2000
  161.8350  207.9400  148.5780 C   0  0  0  0  0  0  0  0  0  0  0  0
  160.3730  210.6180  155.5410 C   0  0  0  0  0  0  0  0  0  0  0  0
  162.1890  207.1080  147.6930 O   0  0  0  0  0  0  0  0  0  0  0  0
  161.2500  206.5960  152.5190 C   0  0  0  0  0  0  0  0  0  0  0  0
  161.5940  207.4920  149.9100 N   0  0  0  0  0  0  0  0  0  0  0  0
  160.5390  208.3910  154.6400 C   0  0  0  0  0  0  0  0  0  0  0  0
  160.8730  211.1540  154.2440 C   0  0  0  0  0  3  0  0  0  0  0  0
  160.0520  211.5590  156.6480 C   0  0  0  0  0  1  0  0  0  0  0  0
  160.4310  208.9430  153.2340 C   0  0  1  0  0  3  0  0  0  0  0  0
  160.2750  209.3160  155.7530 C   0  0  0  0  0  3  0  0  0  0  0  0
  160.9650  210.3660  153.1750 C   0  0  0  0  0  3  0  0  0  0  0  0
  161.1510  208.4150  150.9200 C   0  0  0  0  0  3  0  0  0  0  0  0
  161.0020  208.0150  152.1850 C   0  0  0  0  0  0  0  0  0  0  0  0
  161.1400  206.1770  153.7840 C   0  0  0  0  0  3  0  0  0  0  0  0
  161.6280  205.6660  151.4280 C   0  0  0  0  0  0  0  0  0  0  0  0
  161.7920  206.1320  150.2220 N   0  0  0  0  0  0  0  0  0  0  0  0
  160.8110  207.1100  154.8790 C   0  0  0  0  0  3  0  0  0  0  0  0
  161.6880  209.3260  148.2580 N   0  0  0  0  0  0  0  0  0  0  0  0
  162.1270  210.2590  149.0350 C   0  0  0  0  0  3  0  0  0  0  0  0
  160.9750  212.3600  149.6330 C   0  0  0  0  0  2  0  0  0  0  0  0
  161.4440  211.7710  147.2970 N   0  0  1  0  0  0  0  0  0  0  0  0
  161.3530  214.4520  147.5510 C   0  0  0  0  0  2  0  0  0  0  0  0
  161.9400  211.6880  148.6680 C   0  0  2  0  0  3  0  0  0  0  0  0
  161.4500  213.7700  149.9740 C   0  0  0  0  0  2  0  0  0  0  0  0
  161.2790  213.1410  146.7260 C   0  0  1  0  0  0  0  0  0  0  0  0
  162.5280  212.4270  146.5260 C   0  0  0  0  0  2  0  0  0  0  0  0
  162.1930  214.4450  148.8240 C   0  0  0  0  0  2  0  0  0  0  0  0
  160.5040  213.1720  145.5530 O   0  0  0  0  0  0  0  0  0  0  0  0
  159.2230  212.7240  145.9120 C   0  0  2  0  0  3  0  0  0  0  0  0
  156.3460  214.3050  147.3250 N   0  0  0  0  0  1  0  0  0  0  0  0
  156.9990  213.3670  145.2050 C   0  0  0  0  0  2  0  0  0  0  0  0
  157.4010  214.2640  146.3480 C   0  0  2  0  0  3  0  0  0  0  0  0
  158.2950  212.7830  144.7070 C   0  0  0  0  0  2  0  0  0  0  0  0
  158.6410  213.6490  146.9590 C   0  0  0  0  0  2  0  0  0  0  0  0
  161.8680  204.2220  151.6800 C   0  0  0  0  0  2  0  0  0  0  0  0
  160.7040  203.4550  148.2580 C   0  0  0  0  0  2  0  0  0  0  0  0
  160.9370  202.0140  148.3060 N   0  0  0  0  0  0  0  0  0  0  0  0
  161.3260  200.1230  147.0040 O   0  0  0  0  0  0  0  0  0  0  0  0
  161.2940  202.1340  150.8020 C   0  0  0  0  0  2  0  0  0  0  0  0
  160.7190  204.0830  149.6470 C   0  0  0  0  0  2  0  0  0  0  0  0
  161.7690  203.4710  150.4420 N   0  0  0  0  0  0  0  0  0  0  0  0
  161.1440  201.3680  147.0610 C   0  0  0  0  0  3  0  0  0  0  0  0
  161.1320  201.2480  149.5600 C   0  0  0  0  0  2  0  0  0  0  0  0
  1  5  1  0  0  0  0
  2 10  2  0  0  0  0
  2  8  1  0  0  0  0
  3  1  2  0  0  0  0
  4 14  2  0  0  0  0
  5 16  1  0  0  0  0
  5 12  1  0  0  0  0
  6 17  2  0  0  0  0
  6 10  1  0  0  0  0
  7  2  1  0  0  0  0
  9 11  1  1  0  0  0
  9  6  1  0  0  0  0
 11  7  2  0  0  0  0
 12 13  2  0  0  0  0
 13  4  1  0  0  0  0
 13  9  1  0  0  0  0
 14 17  1  0  0  0  0
 15 35  1  0  0  0  0
 15  4  1  0  0  0  0
 16 15  2  0  0  0  0
 18  1  1  0  0  0  0
 18 19  2  0  0  0  0
 20 24  1  0  0  0  0
 21 26  1  6  0  0  0
 21 23  1  0  0  0  0
 22 27  1  0  0  0  0
 23 19  1  1  0  0  0
 23 20  1  0  0  0  0
 25 28  1  6  0  0  0
 25 21  1  0  0  0  0
 25 22  1  0  0  0  0
 26 25  1  0  0  0  0
 27 24  1  0  0  0  0
 29 28  1  6  0  0  0
 29 34  1  0  0  0  0
 31 32  1  0  0  0  0
 32 34  1  0  0  0  0
 32 30  1  1  0  0  0
 33 31  1  0  0  0  0
 33 29  1  0  0  0  0
 36 37  1  0  0  0  0
 36 40  1  0  0  0  0
 37 43  1  0  0  0  0
 38 42  2  0  0  0  0
 40 41  1  0  0  0  0
 41 39  1  0  0  0  0
 41 35  1  0  0  0  0
 42 37  1  0  0  0  0
 43 39  1  0  0  0  0
M  END
>  <MODEL>
8

>  <REMARK>
 VINA RESULT:      -5.9      3.666      7.155
  Name = 
  6 active torsions:
  status: ('A' for Active; 'I' for Inactive)
    1  A    between atoms: C_1  and  C_34
    2  A    between atoms: C_1  and  N_35
    3  A    between atoms: C_2  and  N_6
    4  A    between atoms: C_11  and  O_14
    5  A    between atoms: C_12  and  C_17
    6  A    between atoms: O_14  and  C_22
                            x       y       z     vdW  Elec       q    Type
                         _______ _______ _______ _____ _____    ______ ____

>  <TORSDO>
F 6

$$$$
