=
 OpenBabel11052422543D

 28 32  0  0  1  0  0  0  0  0999 V2000
  161.7720  209.5190  150.4830 C   0  0  0  0  0  0  0  0  0  0  0  0
  161.8020  205.3150  147.4250 C   0  0  0  0  0  3  0  0  0  0  0  0
  161.2020  205.7340  153.6590 C   0  0  0  0  0  1  0  0  0  0  0  0
  160.9850  203.5920  148.9290 C   0  0  0  0  0  0  0  0  0  0  0  0
  161.4620  205.8590  149.8560 C   0  0  0  0  0  0  0  0  0  0  0  0
  161.3260  203.0950  146.5820 C   0  0  0  0  0  0  0  0  0  0  0  0
  161.4160  204.9170  148.7140 C   0  0  0  0  0  0  0  0  0  0  0  0
  161.2440  203.8800  151.3970 C   0  0  0  0  0  2  0  0  0  0  0  0
  160.9310  202.6930  147.8610 C   0  0  0  0  0  3  0  0  0  0  0  0
  161.4850  207.6460  152.0320 C   0  0  0  0  0  0  0  0  0  0  0  0
  161.6190  207.2310  149.6410 C   0  0  0  0  0  3  0  0  0  0  0  0
  160.4800  203.1720  150.2770 C   0  0  0  0  0  2  0  0  0  0  0  0
  161.6500  209.9220  152.8720 C   0  0  0  0  0  3  0  0  0  0  0  0
  161.3360  206.2620  152.2620 C   0  0  0  0  0  0  0  0  0  0  0  0
  161.5010  208.5540  153.1030 C   0  0  0  0  0  3  0  0  0  0  0  0
  161.2800  202.2170  145.5520 F   0  0  0  0  0  0  0  0  0  0  0  0
  161.7580  204.4060  146.3640 C   0  0  0  0  0  3  0  0  0  0  0  0
  161.3150  205.3700  151.1700 C   0  0  0  0  0  0  0  0  0  0  0  0
  161.7840  210.4000  151.5680 C   0  0  0  0  0  3  0  0  0  0  0  0
  161.6270  208.1340  150.7100 C   0  0  0  0  0  0  0  0  0  0  0  0
  161.8940  210.0880  149.0950 C   0  0  0  0  0  2  0  0  0  0  0  0
  162.0020  211.6160  149.0790 C   0  0  2  0  0  3  0  0  0  0  0  0
  161.4480  213.2760  147.5020 N   0  0  0  0  0  0  0  0  0  0  0  0
  160.8080  212.2090  149.4980 O   0  0  0  0  0  0  0  0  0  0  0  0
  163.7680  212.5890  147.6460 C   0  0  0  0  0  1  0  0  0  0  0  0
  162.3200  212.1430  147.7040 C   0  0  1  0  0  3  0  0  0  0  0  0
  160.5030  212.9030  146.4620 C   0  0  0  0  0  1  0  0  0  0  0  0
  160.6920  213.3890  148.7430 C   0  0  0  0  0  2  0  0  0  0  0  0
  1 20  2  0  0  0  0
  1 19  1  0  0  0  0
  2  7  1  0  0  0  0
  4 12  1  0  0  0  0
  5 18  1  0  0  0  0
  6  9  2  0  0  0  0
  7  4  2  0  0  0  0
  7  5  1  0  0  0  0
  9  4  1  0  0  0  0
 10 14  1  0  0  0  0
 10 15  2  0  0  0  0
 11  5  2  0  0  0  0
 11 20  1  0  0  0  0
 12  8  1  0  0  0  0
 13 15  1  0  0  0  0
 14  3  1  0  0  0  0
 16  6  1  0  0  0  0
 17  6  1  0  0  0  0
 17  2  2  0  0  0  0
 18  8  1  0  0  0  0
 18 14  2  0  0  0  0
 19 13  2  0  0  0  0
 20 10  1  0  0  0  0
 21  1  1  0  0  0  0
 22 21  1  6  0  0  0
 22 24  1  0  0  0  0
 23 26  1  0  0  0  0
 23 28  1  0  0  0  0
 26 25  1  1  0  0  0
 26 22  1  0  0  0  0
 27 23  1  0  0  0  0
 28 24  1  0  0  0  0
M  END
>  <MODEL>
1

>  <REMARK>
 VINA RESULT:     -10.9      0.000      0.000
  Name = 
  2 active torsions:
  status: ('A' for Active; 'I' for Inactive)
    1  A    between atoms: C_1  and  C_2
    2  A    between atoms: C_2  and  C_3
                            x       y       z     vdW  Elec       q    Type
                         _______ _______ _______ _____ _____    ______ ____

>  <TORSDO>
F 2

$$$$
=
 OpenBabel11052422543D

 28 32  0  0  1  0  0  0  0  0999 V2000
  161.8410  210.2830  150.3210 C   0  0  0  0  0  0  0  0  0  0  0  0
  162.2750  206.2020  147.1290 C   0  0  0  0  0  3  0  0  0  0  0  0
  160.8660  206.3780  153.2440 C   0  0  0  0  0  1  0  0  0  0  0  0
  161.2710  204.4250  148.4450 C   0  0  0  0  0  0  0  0  0  0  0  0
  161.6200  206.6520  149.5150 C   0  0  0  0  0  0  0  0  0  0  0  0
  161.9160  204.0190  146.1450 C   0  0  0  0  0  0  0  0  0  0  0  0
  161.7240  205.7550  148.3400 C   0  0  0  0  0  0  0  0  0  0  0  0
  161.2050  204.6150  150.9350 C   0  0  0  0  0  2  0  0  0  0  0  0
  161.3580  203.5680  147.3440 C   0  0  0  0  0  3  0  0  0  0  0  0
  161.3570  208.3520  151.7450 C   0  0  0  0  0  0  0  0  0  0  0  0
  161.8020  208.0310  149.3770 C   0  0  0  0  0  3  0  0  0  0  0  0
  160.5950  203.9540  149.6980 C   0  0  0  0  0  2  0  0  0  0  0  0
  161.4080  210.5930  152.6880 C   0  0  0  0  0  3  0  0  0  0  0  0
  161.1800  206.9600  151.8980 C   0  0  0  0  0  0  0  0  0  0  0  0
  161.2310  209.2180  152.8430 C   0  0  0  0  0  3  0  0  0  0  0  0
  162.0060  203.1830  145.0840 F   0  0  0  0  0  0  0  0  0  0  0  0
  162.3720  205.3360  146.0370 C   0  0  0  0  0  3  0  0  0  0  0  0
  161.3040  206.1130  150.7790 C   0  0  0  0  0  0  0  0  0  0  0  0
  161.7100  211.1210  151.4320 C   0  0  0  0  0  3  0  0  0  0  0  0
  161.6690  208.8910  150.4720 C   0  0  0  0  0  0  0  0  0  0  0  0
  162.1430  210.9060  148.9840 C   0  0  0  0  0  2  0  0  0  0  0  0
  161.0590  211.8830  148.5170 C   0  0  2  0  0  3  0  0  0  0  0  0
  161.0800  213.8430  147.2110 N   0  0  0  0  0  0  0  0  0  0  0  0
  160.5910  211.5420  147.2440 O   0  0  0  0  0  0  0  0  0  0  0  0
  161.0080  214.0950  149.6210 C   0  0  0  0  0  1  0  0  0  0  0  0
  161.5660  213.2990  148.4570 C   0  0  1  0  0  3  0  0  0  0  0  0
  162.2390  214.0500  146.3590 C   0  0  0  0  0  1  0  0  0  0  0  0
  160.3000  212.7650  146.6150 C   0  0  0  0  0  2  0  0  0  0  0  0
  1 20  2  0  0  0  0
  1 19  1  0  0  0  0
  2  7  1  0  0  0  0
  4 12  1  0  0  0  0
  5 18  1  0  0  0  0
  6  9  2  0  0  0  0
  7  4  2  0  0  0  0
  7  5  1  0  0  0  0
  9  4  1  0  0  0  0
 10 14  1  0  0  0  0
 10 15  2  0  0  0  0
 11  5  2  0  0  0  0
 11 20  1  0  0  0  0
 12  8  1  0  0  0  0
 13 15  1  0  0  0  0
 14  3  1  0  0  0  0
 16  6  1  0  0  0  0
 17  6  1  0  0  0  0
 17  2  2  0  0  0  0
 18  8  1  0  0  0  0
 18 14  2  0  0  0  0
 19 13  2  0  0  0  0
 20 10  1  0  0  0  0
 21  1  1  0  0  0  0
 22 21  1  6  0  0  0
 23 26  1  0  0  0  0
 24 22  1  0  0  0  0
 26 22  1  0  0  0  0
 26 25  1  1  0  0  0
 27 23  1  0  0  0  0
 28 23  1  0  0  0  0
 28 24  1  0  0  0  0
M  END
>  <MODEL>
2

>  <REMARK>
 VINA RESULT:     -10.1      1.051      1.353
  Name = 
  2 active torsions:
  status: ('A' for Active; 'I' for Inactive)
    1  A    between atoms: C_1  and  C_2
    2  A    between atoms: C_2  and  C_3
                            x       y       z     vdW  Elec       q    Type
                         _______ _______ _______ _____ _____    ______ ____

>  <TORSDO>
F 2

$$$$
=
 OpenBabel11052422543D

 28 32  0  0  1  0  0  0  0  0999 V2000
  161.0540  207.7230  152.0010 C   0  0  0  0  0  0  0  0  0  0  0  0
  161.6570  206.2870  147.0410 C   0  0  0  0  0  3  0  0  0  0  0  0
  161.2230  202.7550  152.2120 C   0  0  0  0  0  1  0  0  0  0  0  0
  161.1870  203.9070  147.1440 C   0  0  0  0  0  0  0  0  0  0  0  0
  161.3220  205.1920  149.2790 C   0  0  0  0  0  0  0  0  0  0  0  0
  161.5190  204.9880  145.0010 C   0  0  0  0  0  0  0  0  0  0  0  0
  161.3880  205.1380  147.8000 C   0  0  0  0  0  0  0  0  0  0  0  0
  161.4840  202.6790  149.2990 C   0  0  0  0  0  2  0  0  0  0  0  0
  161.2410  203.8410  145.7490 C   0  0  0  0  0  3  0  0  0  0  0  0
  161.1320  205.2770  152.0870 C   0  0  0  0  0  0  0  0  0  0  0  0
  161.2450  206.4190  149.9440 C   0  0  0  0  0  3  0  0  0  0  0  0
  160.8060  202.6870  147.9290 C   0  0  0  0  0  2  0  0  0  0  0  0
  160.9550  206.5750  154.1360 C   0  0  0  0  0  3  0  0  0  0  0  0
  161.2190  204.0330  151.4270 C   0  0  0  0  0  0  0  0  0  0  0  0
  161.0380  205.3440  153.4860 C   0  0  0  0  0  3  0  0  0  0  0  0
  161.5790  204.9180  143.6500 F   0  0  0  0  0  0  0  0  0  0  0  0
  161.7240  206.2110  145.6460 C   0  0  0  0  0  3  0  0  0  0  0  0
  161.3040  203.9930  150.0210 C   0  0  0  0  0  0  0  0  0  0  0  0
  160.9620  207.7580  153.3960 C   0  0  0  0  0  3  0  0  0  0  0  0
  161.1450  206.4800  151.3380 C   0  0  0  0  0  0  0  0  0  0  0  0
  161.0320  209.0250  151.2470 C   0  0  0  0  0  2  0  0  0  0  0  0
  161.4470  210.2240  152.1050 C   0  0  2  0  0  3  0  0  0  0  0  0
  160.4990  211.3040  153.9720 N   0  0  0  0  0  0  0  0  0  0  0  0
  162.1600  209.8100  153.2350 O   0  0  0  0  0  0  0  0  0  0  0  0
  160.1590  212.3120  151.7930 C   0  0  0  0  0  1  0  0  0  0  0  0
  160.2570  211.0180  152.5770 C   0  0  1  0  0  3  0  0  0  0  0  0
  159.5160  210.5520  154.7340 C   0  0  0  0  0  1  0  0  0  0  0  0
  161.8000  210.7100  154.2530 C   0  0  0  0  0  2  0  0  0  0  0  0
  1 19  1  0  0  0  0
  2  7  1  0  0  0  0
  4  7  2  0  0  0  0
  4 12  1  0  0  0  0
  5 11  2  0  0  0  0
  5 18  1  0  0  0  0
  6 17  1  0  0  0  0
  6  9  2  0  0  0  0
  7  5  1  0  0  0  0
  8 18  1  0  0  0  0
  9  4  1  0  0  0  0
 10 15  2  0  0  0  0
 11 20  1  0  0  0  0
 12  8  1  0  0  0  0
 14 10  1  0  0  0  0
 14  3  1  0  0  0  0
 15 13  1  0  0  0  0
 16  6  1  0  0  0  0
 17  2  2  0  0  0  0
 18 14  2  0  0  0  0
 19 13  2  0  0  0  0
 20  1  2  0  0  0  0
 20 10  1  0  0  0  0
 21  1  1  0  0  0  0
 22 21  1  1  0  0  0
 22 26  1  0  0  0  0
 22 24  1  0  0  0  0
 23 28  1  0  0  0  0
 23 27  1  0  0  0  0
 24 28  1  0  0  0  0
 26 25  1  6  0  0  0
 26 23  1  0  0  0  0
M  END
>  <MODEL>
3

>  <REMARK>
 VINA RESULT:      -9.9      2.687      3.659
  Name = 
  2 active torsions:
  status: ('A' for Active; 'I' for Inactive)
    1  A    between atoms: C_1  and  C_2
    2  A    between atoms: C_2  and  C_3
                            x       y       z     vdW  Elec       q    Type
                         _______ _______ _______ _____ _____    ______ ____

>  <TORSDO>
F 2

$$$$
=
 OpenBabel11052422543D

 28 32  0  0  1  0  0  0  0  0999 V2000
  161.4540  208.0550  152.8100 C   0  0  0  0  0  0  0  0  0  0  0  0
  160.6570  203.4860  150.4610 C   0  0  0  0  0  3  0  0  0  0  0  0
  161.9770  209.0970  147.9740 C   0  0  0  0  0  1  0  0  0  0  0  0
  161.4520  203.9320  148.2100 C   0  0  0  0  0  0  0  0  0  0  0  0
  161.3150  205.8290  149.8260 C   0  0  0  0  0  0  0  0  0  0  0  0
  160.8060  201.6860  148.8490 C   0  0  0  0  0  0  0  0  0  0  0  0
  161.1390  204.3930  149.5050 C   0  0  0  0  0  0  0  0  0  0  0  0
  161.4960  206.2780  147.3550 C   0  0  0  0  0  2  0  0  0  0  0  0
  161.2960  202.5800  147.8930 C   0  0  0  0  0  3  0  0  0  0  0  0
  161.7150  208.5500  150.4270 C   0  0  0  0  0  0  0  0  0  0  0  0
  161.2780  206.2710  151.1510 C   0  0  0  0  0  3  0  0  0  0  0  0
  162.0550  204.8630  147.2030 C   0  0  0  0  0  2  0  0  0  0  0  0
  161.8780  210.3290  152.0770 C   0  0  0  0  0  3  0  0  0  0  0  0
  161.7450  208.1160  149.0850 C   0  0  0  0  0  0  0  0  0  0  0  0
  161.9100  209.9030  150.7500 C   0  0  0  0  0  3  0  0  0  0  0  0
  160.6490  200.3780  148.5350 F   0  0  0  0  0  0  0  0  0  0  0  0
  160.4890  202.1380  150.1330 C   0  0  0  0  0  3  0  0  0  0  0  0
  161.5540  206.7520  148.7870 C   0  0  0  0  0  0  0  0  0  0  0  0
  161.6520  209.4090  153.1010 C   0  0  0  0  0  3  0  0  0  0  0  0
  161.4800  207.6190  151.4690 C   0  0  0  0  0  0  0  0  0  0  0  0
  161.2390  207.0990  153.9530 C   0  0  0  0  0  2  0  0  0  0  0  0
  160.2770  207.6390  155.0160 C   0  0  2  0  0  3  0  0  0  0  0  0
  160.5410  209.0060  156.9150 N   0  0  0  0  0  0  0  0  0  0  0  0
  159.8200  208.9160  154.6780 O   0  0  0  0  0  0  0  0  0  0  0  0
  160.4130  206.6100  157.2610 C   0  0  0  0  0  1  0  0  0  0  0  0
  160.9270  207.7250  156.3710 C   0  0  1  0  0  3  0  0  0  0  0  0
  161.7430  209.8210  156.9740 C   0  0  0  0  0  1  0  0  0  0  0  0
  159.6770  209.5960  155.9000 C   0  0  0  0  0  2  0  0  0  0  0  0
  1 19  1  0  0  0  0
  1 21  1  0  0  0  0
  3 14  1  0  0  0  0
  4  7  1  0  0  0  0
  5 11  2  0  0  0  0
  6 17  2  0  0  0  0
  7  5  1  0  0  0  0
  7  2  2  0  0  0  0
  8 18  1  0  0  0  0
  9  4  2  0  0  0  0
  9  6  1  0  0  0  0
 10 15  2  0  0  0  0
 10 20  1  0  0  0  0
 11 20  1  0  0  0  0
 12  8  1  0  0  0  0
 12  4  1  0  0  0  0
 13 19  2  0  0  0  0
 14 10  1  0  0  0  0
 15 13  1  0  0  0  0
 16  6  1  0  0  0  0
 17  2  1  0  0  0  0
 18 14  2  0  0  0  0
 18  5  1  0  0  0  0
 20  1  2  0  0  0  0
 22 21  1  6  0  0  0
 22 26  1  0  0  0  0
 23 27  1  0  0  0  0
 24 22  1  0  0  0  0
 24 28  1  0  0  0  0
 26 23  1  0  0  0  0
 26 25  1  1  0  0  0
 28 23  1  0  0  0  0
M  END
>  <MODEL>
4

>  <REMARK>
 VINA RESULT:      -9.8      2.940      5.490
  Name = 
  2 active torsions:
  status: ('A' for Active; 'I' for Inactive)
    1  A    between atoms: C_1  and  C_2
    2  A    between atoms: C_2  and  C_3
                            x       y       z     vdW  Elec       q    Type
                         _______ _______ _______ _____ _____    ______ ____

>  <TORSDO>
F 2

$$$$
=
 OpenBabel11052422543D

 28 32  0  0  1  0  0  0  0  0999 V2000
  161.0550  205.9910  151.5820 C   0  0  0  0  0  0  0  0  0  0  0  0
  161.6010  205.9270  146.4120 C   0  0  0  0  0  3  0  0  0  0  0  0
  161.0050  201.1490  150.4400 C   0  0  0  0  0  1  0  0  0  0  0  0
  161.0270  203.6310  145.8730 C   0  0  0  0  0  0  0  0  0  0  0  0
  161.2150  204.2820  148.2740 C   0  0  0  0  0  0  0  0  0  0  0  0
  161.4090  205.2360  144.0990 C   0  0  0  0  0  0  0  0  0  0  0  0
  161.2810  204.6280  146.8350 C   0  0  0  0  0  0  0  0  0  0  0  0
  161.2670  201.8540  147.6120 C   0  0  0  0  0  2  0  0  0  0  0  0
  161.0800  203.9420  144.5120 C   0  0  0  0  0  3  0  0  0  0  0  0
  161.0250  203.6120  151.0030 C   0  0  0  0  0  0  0  0  0  0  0  0
  161.1910  205.2850  149.2470 C   0  0  0  0  0  3  0  0  0  0  0  0
  160.5920  202.2610  146.3020 C   0  0  0  0  0  2  0  0  0  0  0  0
  160.9020  204.3130  153.3280 C   0  0  0  0  0  3  0  0  0  0  0  0
  161.0580  202.5910  150.0300 C   0  0  0  0  0  0  0  0  0  0  0  0
  160.9320  203.3010  152.3690 C   0  0  0  0  0  3  0  0  0  0  0  0
  161.4680  205.5320  142.7790 F   0  0  0  0  0  0  0  0  0  0  0  0
  161.6670  206.2290  145.0490 C   0  0  0  0  0  3  0  0  0  0  0  0
  161.1430  202.9290  148.6640 C   0  0  0  0  0  0  0  0  0  0  0  0
  160.9620  205.6500  152.9350 C   0  0  0  0  0  3  0  0  0  0  0  0
  161.0920  204.9710  150.6070 C   0  0  0  0  0  0  0  0  0  0  0  0
  161.0910  207.4480  151.2090 C   0  0  0  0  0  2  0  0  0  0  0  0
  161.5420  208.3530  152.3610 C   0  0  2  0  0  3  0  0  0  0  0  0
  160.8620  210.4700  153.1360 N   0  0  0  0  0  0  0  0  0  0  0  0
  160.7540  208.1480  153.4980 O   0  0  0  0  0  0  0  0  0  0  0  0
  162.8470  210.3620  151.7480 C   0  0  0  0  0  1  0  0  0  0  0  0
  161.4560  209.8110  151.9960 C   0  0  1  0  0  3  0  0  0  0  0  0
  159.5460  210.9280  152.7220 C   0  0  0  0  0  1  0  0  0  0  0  0
  160.6550  209.4080  154.1130 C   0  0  0  0  0  2  0  0  0  0  0  0
  1 19  1  0  0  0  0
  2  7  1  0  0  0  0
  4 12  1  0  0  0  0
  4  7  2  0  0  0  0
  5 18  1  0  0  0  0
  5 11  2  0  0  0  0
  6  9  2  0  0  0  0
  6 17  1  0  0  0  0
  7  5  1  0  0  0  0
  8 18  1  0  0  0  0
  9  4  1  0  0  0  0
 10 15  2  0  0  0  0
 11 20  1  0  0  0  0
 12  8  1  0  0  0  0
 14  3  1  0  0  0  0
 14 10  1  0  0  0  0
 15 13  1  0  0  0  0
 16  6  1  0  0  0  0
 17  2  2  0  0  0  0
 18 14  2  0  0  0  0
 19 13  2  0  0  0  0
 20 10  1  0  0  0  0
 20  1  2  0  0  0  0
 21  1  1  0  0  0  0
 22 21  1  6  0  0  0
 22 24  1  0  0  0  0
 23 28  1  0  0  0  0
 24 28  1  0  0  0  0
 26 25  1  1  0  0  0
 26 22  1  0  0  0  0
 26 23  1  0  0  0  0
 27 23  1  0  0  0  0
M  END
>  <MODEL>
5

>  <REMARK>
 VINA RESULT:      -9.7      2.868      4.384
  Name = 
  2 active torsions:
  status: ('A' for Active; 'I' for Inactive)
    1  A    between atoms: C_1  and  C_2
    2  A    between atoms: C_2  and  C_3
                            x       y       z     vdW  Elec       q    Type
                         _______ _______ _______ _____ _____    ______ ____

>  <TORSDO>
F 2

$$$$
=
 OpenBabel11052422543D

 28 32  0  0  1  0  0  0  0  0999 V2000
  161.5460  203.1420  148.3150 C   0  0  0  0  0  0  0  0  0  0  0  0
  161.7990  208.3180  148.7340 C   0  0  0  0  0  3  0  0  0  0  0  0
  160.5050  204.0010  153.1040 C   0  0  0  0  0  1  0  0  0  0  0  0
  161.8300  208.6280  151.1420 C   0  0  0  0  0  0  0  0  0  0  0  0
  161.4530  206.3320  150.2380 C   0  0  0  0  0  0  0  0  0  0  0  0
  162.1550  210.5230  149.6690 C   0  0  0  0  0  0  0  0  0  0  0  0
  161.7010  207.7780  150.0250 C   0  0  0  0  0  0  0  0  0  0  0  0
  160.8720  206.8640  152.6290 C   0  0  0  0  0  2  0  0  0  0  0  0
  162.0680  209.9920  150.9580 C   0  0  0  0  0  3  0  0  0  0  0  0
  161.0420  203.5810  150.6710 C   0  0  0  0  0  0  0  0  0  0  0  0
  161.5890  205.4240  149.1840 C   0  0  0  0  0  3  0  0  0  0  0  0
  161.8220  208.0580  152.5290 C   0  0  0  0  0  2  0  0  0  0  0  0
  160.9870  201.3090  149.8040 C   0  0  0  0  0  3  0  0  0  0  0  0
  160.8930  204.4890  151.7400 C   0  0  0  0  0  0  0  0  0  0  0  0
  160.8410  202.2050  150.8630 C   0  0  0  0  0  3  0  0  0  0  0  0
  162.3780  211.8470  149.4950 F   0  0  0  0  0  0  0  0  0  0  0  0
  162.0230  209.6860  148.5570 C   0  0  0  0  0  3  0  0  0  0  0  0
  161.1090  205.8650  151.5230 C   0  0  0  0  0  0  0  0  0  0  0  0
  161.3380  201.7770  148.5370 C   0  0  0  0  0  3  0  0  0  0  0  0
  161.3940  204.0530  149.3820 C   0  0  0  0  0  0  0  0  0  0  0  0
  161.9480  203.5920  146.9370 C   0  0  0  0  0  2  0  0  0  0  0  0
  160.7730  204.1260  146.1110 C   0  0  2  0  0  3  0  0  0  0  0  0
  160.6080  205.4910  144.1990 N   0  0  0  0  0  0  0  0  0  0  0  0
  160.5040  203.2900  145.0230 O   0  0  0  0  0  0  0  0  0  0  0  0
  160.2430  206.5290  146.3590 C   0  0  0  0  0  1  0  0  0  0  0  0
  161.0440  205.5070  145.5760 C   0  0  1  0  0  3  0  0  0  0  0  0
  161.8000  205.6130  143.3760 C   0  0  0  0  0  1  0  0  0  0  0  0
  160.0830  204.1470  143.9910 C   0  0  0  0  0  2  0  0  0  0  0  0
  1 19  2  0  0  0  0
  1 20  1  0  0  0  0
  2  7  1  0  0  0  0
  4 12  1  0  0  0  0
  5 18  1  0  0  0  0
  6  9  2  0  0  0  0
  7  5  1  0  0  0  0
  7  4  2  0  0  0  0
  9  4  1  0  0  0  0
 10 15  1  0  0  0  0
 10 14  1  0  0  0  0
 11 20  1  0  0  0  0
 11  5  2  0  0  0  0
 12  8  1  0  0  0  0
 13 15  2  0  0  0  0
 14  3  1  0  0  0  0
 16  6  1  0  0  0  0
 17  2  2  0  0  0  0
 17  6  1  0  0  0  0
 18 14  2  0  0  0  0
 18  8  1  0  0  0  0
 19 13  1  0  0  0  0
 20 10  2  0  0  0  0
 21  1  1  0  0  0  0
 22 21  1  6  0  0  0
 23 26  1  0  0  0  0
 24 22  1  0  0  0  0
 26 22  1  0  0  0  0
 26 25  1  1  0  0  0
 27 23  1  0  0  0  0
 28 23  1  0  0  0  0
 28 24  1  0  0  0  0
M  END
>  <MODEL>
6

>  <REMARK>
 VINA RESULT:      -9.4      3.526      6.632
  Name = 
  2 active torsions:
  status: ('A' for Active; 'I' for Inactive)
    1  A    between atoms: C_1  and  C_2
    2  A    between atoms: C_2  and  C_3
                            x       y       z     vdW  Elec       q    Type
                         _______ _______ _______ _____ _____    ______ ____

>  <TORSDO>
F 2

$$$$
=
 OpenBabel11052422543D

 28 32  0  0  1  0  0  0  0  0999 V2000
  160.9810  210.4300  151.9000 C   0  0  0  0  0  0  0  0  0  0  0  0
  161.6820  206.9290  148.1220 C   0  0  0  0  0  3  0  0  0  0  0  0
  161.0810  206.0810  154.3130 C   0  0  0  0  0  1  0  0  0  0  0  0
  161.1790  204.8470  149.2650 C   0  0  0  0  0  0  0  0  0  0  0  0
  161.2800  206.9500  150.6040 C   0  0  0  0  0  0  0  0  0  0  0  0
  161.5750  204.8550  146.8750 C   0  0  0  0  0  0  0  0  0  0  0  0
  161.3800  206.2410  149.3070 C   0  0  0  0  0  0  0  0  0  0  0  0
  161.4100  204.7110  151.7490 C   0  0  0  0  0  2  0  0  0  0  0  0
  161.2650  204.1640  148.0490 C   0  0  0  0  0  3  0  0  0  0  0  0
  161.0260  208.2810  153.0720 C   0  0  0  0  0  0  0  0  0  0  0  0
  161.2030  208.3450  150.6490 C   0  0  0  0  0  3  0  0  0  0  0  0
  160.7640  204.1060  150.5010 C   0  0  0  0  0  2  0  0  0  0  0  0
  160.8170  210.3580  154.3200 C   0  0  0  0  0  3  0  0  0  0  0  0
  161.1120  206.8730  153.0400 C   0  0  0  0  0  0  0  0  0  0  0  0
  160.9000  208.9660  154.2910 C   0  0  0  0  0  3  0  0  0  0  0  0
  161.6660  204.1890  145.7000 F   0  0  0  0  0  0  0  0  0  0  0  0
  161.7800  206.2380  146.9110 C   0  0  0  0  0  3  0  0  0  0  0  0
  161.2300  206.2090  151.8020 C   0  0  0  0  0  0  0  0  0  0  0  0
  160.8560  211.0850  153.1300 C   0  0  0  0  0  3  0  0  0  0  0  0
  161.0710  209.0230  151.8650 C   0  0  0  0  0  0  0  0  0  0  0  0
  160.9930  211.2590  150.6440 C   0  0  0  0  0  2  0  0  0  0  0  0
  160.3940  212.6550  150.8380 C   0  0  2  0  0  3  0  0  0  0  0  0
  158.9050  213.9820  149.5860 N   0  0  0  0  0  0  0  0  0  0  0  0
  159.1440  212.5840  151.4620 O   0  0  0  0  0  0  0  0  0  0  0  0
  161.2750  214.4530  149.3860 C   0  0  0  0  0  1  0  0  0  0  0  0
  160.2150  213.3780  149.5290 C   0  0  1  0  0  3  0  0  0  0  0  0
  158.0790  213.2950  148.6070 C   0  0  0  0  0  1  0  0  0  0  0  0
  158.3890  213.6290  150.9020 C   0  0  0  0  0  2  0  0  0  0  0  0
  1 19  1  0  0  0  0
  2  7  1  0  0  0  0
  4  7  2  0  0  0  0
  4 12  1  0  0  0  0
  5 11  2  0  0  0  0
  5 18  1  0  0  0  0
  6 17  1  0  0  0  0
  6  9  2  0  0  0  0
  7  5  1  0  0  0  0
  8 18  1  0  0  0  0
  9  4  1  0  0  0  0
 10 15  2  0  0  0  0
 11 20  1  0  0  0  0
 12  8  1  0  0  0  0
 14 10  1  0  0  0  0
 14  3  1  0  0  0  0
 15 13  1  0  0  0  0
 16  6  1  0  0  0  0
 17  2  2  0  0  0  0
 18 14  2  0  0  0  0
 19 13  2  0  0  0  0
 20  1  2  0  0  0  0
 20 10  1  0  0  0  0
 21  1  1  0  0  0  0
 22 21  1  6  0  0  0
 22 24  1  0  0  0  0
 23 28  1  0  0  0  0
 26 25  1  1  0  0  0
 26 23  1  0  0  0  0
 26 22  1  0  0  0  0
 27 23  1  0  0  0  0
 28 24  1  0  0  0  0
M  END
>  <MODEL>
7

>  <REMARK>
 VINA RESULT:      -9.3      1.715      2.047
  Name = 
  2 active torsions:
  status: ('A' for Active; 'I' for Inactive)
    1  A    between atoms: C_1  and  C_2
    2  A    between atoms: C_2  and  C_3
                            x       y       z     vdW  Elec       q    Type
                         _______ _______ _______ _____ _____    ______ ____

>  <TORSDO>
F 2

$$$$
=
 OpenBabel11052422543D

 28 32  0  0  1  0  0  0  0  0999 V2000
  160.8980  207.1300  151.7400 C   0  0  0  0  0  0  0  0  0  0  0  0
  161.1760  205.9370  146.6880 C   0  0  0  0  0  3  0  0  0  0  0  0
  161.5680  202.2010  151.7180 C   0  0  0  0  0  1  0  0  0  0  0  0
  160.9510  203.5190  146.7280 C   0  0  0  0  0  0  0  0  0  0  0  0
  161.1570  204.7360  148.8970 C   0  0  0  0  0  0  0  0  0  0  0  0
  160.9770  204.7020  144.6140 C   0  0  0  0  0  0  0  0  0  0  0  0
  161.0910  204.7400  147.4170 C   0  0  0  0  0  0  0  0  0  0  0  0
  161.5640  202.2530  148.7920 C   0  0  0  0  0  2  0  0  0  0  0  0
  160.8820  203.5070  145.3330 C   0  0  0  0  0  3  0  0  0  0  0  0
  161.2210  204.7030  151.7120 C   0  0  0  0  0  0  0  0  0  0  0  0
  161.0240  205.9240  149.6190 C   0  0  0  0  0  3  0  0  0  0  0  0
  160.7650  202.2410  147.4890 C   0  0  0  0  0  2  0  0  0  0  0  0
  161.1090  205.9050  153.8240 C   0  0  0  0  0  3  0  0  0  0  0  0
  161.3670  203.4980  150.9930 C   0  0  0  0  0  0  0  0  0  0  0  0
  161.2510  204.7110  153.1160 C   0  0  0  0  0  3  0  0  0  0  0  0
  160.9180  204.6850  143.2610 F   0  0  0  0  0  0  0  0  0  0  0  0
  161.1210  205.9160  145.2910 C   0  0  0  0  0  3  0  0  0  0  0  0
  161.3250  203.5160  149.5840 C   0  0  0  0  0  0  0  0  0  0  0  0
  160.9320  207.1070  153.1380 C   0  0  0  0  0  3  0  0  0  0  0  0
  161.0470  205.9270  151.0180 C   0  0  0  0  0  0  0  0  0  0  0  0
  160.6800  208.4490  151.0490 C   0  0  0  0  0  2  0  0  0  0  0  0
  161.9720  209.0600  150.4980 C   0  0  2  0  0  3  0  0  0  0  0  0
  162.4620  210.4800  148.6840 N   0  0  0  0  0  0  0  0  0  0  0  0
  162.1820  210.3420  151.0150 O   0  0  0  0  0  0  0  0  0  0  0  0
  162.8400  208.1040  148.3890 C   0  0  0  0  0  1  0  0  0  0  0  0
  161.9470  209.1680  148.9960 C   0  0  1  0  0  3  0  0  0  0  0  0
  161.3570  211.2500  148.1370 C   0  0  0  0  0  1  0  0  0  0  0  0
  162.7910  211.0680  149.9770 C   0  0  0  0  0  2  0  0  0  0  0  0
  1 19  1  0  0  0  0
  2  7  1  0  0  0  0
  4  7  2  0  0  0  0
  4 12  1  0  0  0  0
  5 18  1  0  0  0  0
  5 11  2  0  0  0  0
  6 17  1  0  0  0  0
  6  9  2  0  0  0  0
  7  5  1  0  0  0  0
  8 18  1  0  0  0  0
  9  4  1  0  0  0  0
 10 15  2  0  0  0  0
 11 20  1  0  0  0  0
 12  8  1  0  0  0  0
 14 10  1  0  0  0  0
 14  3  1  0  0  0  0
 15 13  1  0  0  0  0
 16  6  1  0  0  0  0
 17  2  2  0  0  0  0
 18 14  2  0  0  0  0
 19 13  2  0  0  0  0
 20 10  1  0  0  0  0
 20  1  2  0  0  0  0
 21  1  1  0  0  0  0
 22 24  1  0  0  0  0
 22 21  1  1  0  0  0
 23 26  1  0  0  0  0
 23 28  1  0  0  0  0
 26 25  1  6  0  0  0
 26 22  1  0  0  0  0
 27 23  1  0  0  0  0
 28 24  1  0  0  0  0
M  END
>  <MODEL>
8

>  <REMARK>
 VINA RESULT:      -9.1      1.651      2.950
  Name = 
  2 active torsions:
  status: ('A' for Active; 'I' for Inactive)
    1  A    between atoms: C_1  and  C_2
    2  A    between atoms: C_2  and  C_3
                            x       y       z     vdW  Elec       q    Type
                         _______ _______ _______ _____ _____    ______ ____

>  <TORSDO>
F 2

$$$$
=
 OpenBabel11052422543D

 28 32  0  0  1  0  0  0  0  0999 V2000
  159.8950  211.3340  152.8970 C   0  0  0  0  0  0  0  0  0  0  0  0
  160.8920  207.3330  149.7310 C   0  0  0  0  0  3  0  0  0  0  0  0
  161.4970  207.7600  155.9640 C   0  0  0  0  0  1  0  0  0  0  0  0
  161.1320  205.4960  151.3000 C   0  0  0  0  0  0  0  0  0  0  0  0
  160.8870  207.8110  152.1990 C   0  0  0  0  0  0  0  0  0  0  0  0
  161.1380  205.0650  148.9160 C   0  0  0  0  0  0  0  0  0  0  0  0
  160.9670  206.8740  151.0550 C   0  0  0  0  0  0  0  0  0  0  0  0
  161.7710  205.9670  153.6690 C   0  0  0  0  0  2  0  0  0  0  0  0
  161.2040  204.5990  150.2320 C   0  0  0  0  0  3  0  0  0  0  0  0
  160.6790  209.5630  154.3940 C   0  0  0  0  0  0  0  0  0  0  0  0
  160.4570  209.1270  152.0130 C   0  0  0  0  0  3  0  0  0  0  0  0
  161.1210  204.9740  152.7060 C   0  0  0  0  0  2  0  0  0  0  0  0
  160.1310  211.7630  155.2730 C   0  0  0  0  0  3  0  0  0  0  0  0
  161.1230  208.2380  154.5930 C   0  0  0  0  0  0  0  0  0  0  0  0
  160.5690  210.4540  155.4730 C   0  0  0  0  0  3  0  0  0  0  0  0
  161.2170  204.1940  147.8830 F   0  0  0  0  0  0  0  0  0  0  0  0
  160.9790  206.4310  148.6660 C   0  0  0  0  0  3  0  0  0  0  0  0
  161.2170  207.3600  153.4940 C   0  0  0  0  0  0  0  0  0  0  0  0
  159.7950  212.1990  153.9910 C   0  0  0  0  0  3  0  0  0  0  0  0
  160.3420  210.0100  153.0920 C   0  0  0  0  0  0  0  0  0  0  0  0
  159.4960  211.8460  151.5390 C   0  0  0  0  0  2  0  0  0  0  0  0
  160.6080  212.6390  150.8450 C   0  0  2  0  0  3  0  0  0  0  0  0
  160.9700  213.3460  148.6280 N   0  0  0  0  0  0  0  0  0  0  0  0
  160.2910  213.9990  150.7830 O   0  0  0  0  0  0  0  0  0  0  0  0
  162.1370  211.3600  149.3810 C   0  0  0  0  0  1  0  0  0  0  0  0
  160.8490  212.1580  149.4390 C   0  0  1  0  0  3  0  0  0  0  0  0
  159.8090  213.3830  147.7540 C   0  0  0  0  0  1  0  0  0  0  0  0
  160.8310  214.4530  149.5670 C   0  0  0  0  0  2  0  0  0  0  0  0
  1 20  2  0  0  0  0
  1 19  1  0  0  0  0
  2  7  1  0  0  0  0
  4 12  1  0  0  0  0
  5 18  1  0  0  0  0
  6  9  2  0  0  0  0
  7  4  2  0  0  0  0
  7  5  1  0  0  0  0
  9  4  1  0  0  0  0
 10 14  1  0  0  0  0
 10 15  2  0  0  0  0
 11  5  2  0  0  0  0
 11 20  1  0  0  0  0
 12  8  1  0  0  0  0
 13 15  1  0  0  0  0
 14  3  1  0  0  0  0
 16  6  1  0  0  0  0
 17  6  1  0  0  0  0
 17  2  2  0  0  0  0
 18  8  1  0  0  0  0
 18 14  2  0  0  0  0
 19 13  2  0  0  0  0
 20 10  1  0  0  0  0
 21  1  1  0  0  0  0
 22 21  1  6  0  0  0
 23 26  1  0  0  0  0
 23 28  1  0  0  0  0
 24 22  1  0  0  0  0
 26 25  1  1  0  0  0
 26 22  1  0  0  0  0
 27 23  1  0  0  0  0
 28 24  1  0  0  0  0
M  END
>  <MODEL>
9

>  <REMARK>
 VINA RESULT:      -9.0      1.865      2.970
  Name = 
  2 active torsions:
  status: ('A' for Active; 'I' for Inactive)
    1  A    between atoms: C_1  and  C_2
    2  A    between atoms: C_2  and  C_3
                            x       y       z     vdW  Elec       q    Type
                         _______ _______ _______ _____ _____    ______ ____

>  <TORSDO>
F 2

$$$$
