=
 OpenBabel11062408263D

 32 36  0  0  1  0  0  0  0  0999 V2000
  161.6090  207.8290  150.2320 C   0  0  0  0  0  0  0  0  0  0  0  0
  161.0440  207.9740  152.9870 C   0  0  0  0  0  0  0  0  0  0  0  0
  162.1670  207.7100  148.8310 C   0  0  0  0  0  2  0  0  0  0  0  0
  161.6480  209.0870  150.8860 C   0  0  0  0  0  0  0  0  0  0  0  0
  161.5250  210.3450  152.9990 C   0  0  0  0  0  3  0  0  0  0  0  0
  159.7270  207.1630  156.5040 C   0  0  0  0  0  2  0  0  0  0  0  0
  161.4110  209.1480  152.2810 C   0  0  0  0  0  0  0  0  0  0  0  0
  160.2470  209.3810  156.4410 C   0  0  0  0  0  2  0  0  0  0  0  0
  160.8100  209.2690  155.0380 C   0  0  0  0  0  0  0  0  0  0  0  0
  162.1420  210.3040  150.0730 C   0  0  1  0  0  3  0  0  0  0  0  0
  161.1980  210.4130  154.3530 C   0  0  0  0  0  3  0  0  0  0  0  0
  161.9500  210.1550  148.5820 C   0  0  0  0  0  3  0  0  0  0  0  0
  160.9710  206.7620  152.3000 C   0  0  0  0  0  3  0  0  0  0  0  0
  161.2260  206.6650  150.9350 C   0  0  0  0  0  0  0  0  0  0  0  0
  160.7510  208.0320  154.3650 C   0  0  0  0  0  0  0  0  0  0  0  0
  161.9440  208.9500  148.0110 C   0  0  0  0  0  3  0  0  0  0  0  0
  160.4730  208.1820  157.1460 O   0  0  0  0  0  0  0  0  0  0  0  0
  160.3940  206.7880  155.1600 C   0  0  0  0  0  2  0  0  0  0  0  0
  160.9930  202.8820  150.3290 C   0  0  0  0  0  0  0  0  0  0  0  0
  160.9010  201.6830  151.0340 O   0  0  0  0  0  1  0  0  0  0  0  0
  161.1550  205.3230  150.2760 C   0  0  0  0  0  0  0  0  0  0  0  0
  161.0780  202.8350  148.9390 C   0  0  0  0  0  3  0  0  0  0  0  0
  161.2750  205.2450  148.8820 C   0  0  0  0  0  3  0  0  0  0  0  0
  161.0480  204.1150  151.0050 C   0  0  0  0  0  0  0  0  0  0  0  0
  161.0130  204.1110  152.5040 C   0  0  0  0  0  1  0  0  0  0  0  0
  161.2430  204.0180  148.2050 C   0  0  0  0  0  0  0  0  0  0  0  0
  162.4150  204.8330  146.1680 C   0  0  0  0  0  1  0  0  0  0  0  0
  161.4330  204.0150  146.8130 O   0  0  0  0  0  0  0  0  0  0  0  0
  161.0030  212.3930  149.7150 C   0  0  0  0  0  3  0  0  0  0  0  0
  161.6050  211.5790  150.5180 N   0  0  0  0  0  0  0  0  0  0  0  0
  160.4010  213.6640  150.2400 C   0  0  0  0  0  2  0  0  0  0  0  0
  159.6600  213.4110  151.5410 C   0  0  0  0  0  1  0  0  0  0  0  0
  1  4  2  0  0  0  0
  1 14  1  0  0  0  0
  2 15  1  0  0  0  0
  3  1  1  0  0  0  0
  4  7  1  0  0  0  0
  5 11  2  0  0  0  0
  6 17  1  0  0  0  0
  7  2  2  0  0  0  0
  7  5  1  0  0  0  0
  8 17  1  0  0  0  0
  9  8  1  0  0  0  0
 10 30  1  1  0  0  0
 10  4  1  0  0  0  0
 11  9  1  0  0  0  0
 12 10  1  0  0  0  0
 13  2  1  0  0  0  0
 14 13  2  0  0  0  0
 15  9  2  0  0  0  0
 15 18  1  0  0  0  0
 16 12  2  0  0  0  0
 16  3  1  0  0  0  0
 18  6  1  0  0  0  0
 19 24  1  0  0  0  0
 19 20  1  0  0  0  0
 21 14  1  0  0  0  0
 21 24  2  0  0  0  0
 22 19  2  0  0  0  0
 23 21  1  0  0  0  0
 24 25  1  0  0  0  0
 26 23  2  0  0  0  0
 26 22  1  0  0  0  0
 27 28  1  0  0  0  0
 28 26  1  0  0  0  0
 29 31  1  0  0  0  0
 29 30  2  0  0  0  0
 31 32  1  0  0  0  0
M  END
>  <MODEL>
1

>  <REMARK>
 VINA RESULT:      -9.6      0.000      0.000
  Name = 
  4 active torsions:
  status: ('A' for Active; 'I' for Inactive)
    1  A    between atoms: C_13  and  C_18
    2  A    between atoms: C_14  and  N_29
    3  A    between atoms: O_15  and  C_26
    4  A    between atoms: C_16  and  C_27
                            x       y       z     vdW  Elec       q    Type
                         _______ _______ _______ _____ _____    ______ ____

>  <TORSDO>
F 4

$$$$
=
 OpenBabel11062408263D

 32 36  0  0  1  0  0  0  0  0999 V2000
  161.0170  205.1970  150.3530 C   0  0  0  0  0  0  0  0  0  0  0  0
  161.3790  207.9500  149.8860 C   0  0  0  0  0  0  0  0  0  0  0  0
  160.5610  203.7710  150.5700 C   0  0  0  0  0  2  0  0  0  0  0  0
  161.0210  206.0950  151.4510 C   0  0  0  0  0  0  0  0  0  0  0  0
  161.0730  208.4270  152.2390 C   0  0  0  0  0  3  0  0  0  0  0  0
  162.3600  211.2930  148.2670 C   0  0  0  0  0  2  0  0  0  0  0  0
  161.1540  207.4840  151.2060 C   0  0  0  0  0  0  0  0  0  0  0  0
  162.0100  211.6630  150.4880 C   0  0  0  0  0  2  0  0  0  0  0  0
  161.5490  210.2360  150.7130 C   0  0  0  0  0  0  0  0  0  0  0  0
  160.6810  205.5250  152.8460 C   0  0  1  0  0  3  0  0  0  0  0  0
  161.3000  209.7820  152.0020 C   0  0  0  0  0  3  0  0  0  0  0  0
  160.9750  204.0500  152.9860 C   0  0  0  0  0  3  0  0  0  0  0  0
  161.4150  207.0320  148.8370 C   0  0  0  0  0  3  0  0  0  0  0  0
  161.2580  205.6640  149.0410 C   0  0  0  0  0  0  0  0  0  0  0  0
  161.5680  209.3250  149.6370 C   0  0  0  0  0  0  0  0  0  0  0  0
  160.9360  203.2420  151.9260 C   0  0  0  0  0  3  0  0  0  0  0  0
  161.6430  212.0880  149.1960 O   0  0  0  0  0  0  0  0  0  0  0  0
  161.7710  209.8630  148.2320 C   0  0  0  0  0  2  0  0  0  0  0  0
  161.2260  204.2960  145.4560 C   0  0  0  0  0  0  0  0  0  0  0  0
  161.1430  204.7380  144.1360 O   0  0  0  0  0  1  0  0  0  0  0  0
  161.2810  204.7450  147.8600 C   0  0  0  0  0  0  0  0  0  0  0  0
  161.2800  202.9240  145.6990 C   0  0  0  0  0  3  0  0  0  0  0  0
  161.2970  203.3600  148.0780 C   0  0  0  0  0  3  0  0  0  0  0  0
  161.2090  205.2100  146.5260 C   0  0  0  0  0  0  0  0  0  0  0  0
  161.0900  206.6720  146.2160 C   0  0  0  0  0  1  0  0  0  0  0  0
  161.2920  202.4450  147.0170 C   0  0  0  0  0  0  0  0  0  0  0  0
  161.3170  200.5740  148.6540 C   0  0  0  0  0  1  0  0  0  0  0  0
  161.2460  201.0730  147.3140 O   0  0  0  0  0  0  0  0  0  0  0  0
  160.5610  206.8990  154.8180 C   0  0  0  0  0  3  0  0  0  0  0  0
  161.2750  206.2570  153.9520 N   0  0  0  0  0  0  0  0  0  0  0  0
  161.2190  207.5790  155.9830 C   0  0  0  0  0  2  0  0  0  0  0  0
  160.4360  207.3350  157.2610 C   0  0  0  0  0  1  0  0  0  0  0  0
  1  3  1  0  0  0  0
  1  4  1  0  0  0  0
  2  7  1  0  0  0  0
  3 16  1  0  0  0  0
  4 10  1  0  0  0  0
  6 17  1  0  0  0  0
  7  4  2  0  0  0  0
  7  5  1  0  0  0  0
  8  9  1  0  0  0  0
  9 11  1  0  0  0  0
 10 12  1  0  0  0  0
 10 30  1  1  0  0  0
 11  5  2  0  0  0  0
 13 14  1  0  0  0  0
 13  2  2  0  0  0  0
 14  1  2  0  0  0  0
 15  2  1  0  0  0  0
 15  9  2  0  0  0  0
 16 12  2  0  0  0  0
 17  8  1  0  0  0  0
 18  6  1  0  0  0  0
 18 15  1  0  0  0  0
 19 22  2  0  0  0  0
 19 24  1  0  0  0  0
 20 19  1  0  0  0  0
 21 23  1  0  0  0  0
 21 14  1  0  0  0  0
 22 26  1  0  0  0  0
 24 21  2  0  0  0  0
 25 24  1  0  0  0  0
 26 28  1  0  0  0  0
 26 23  2  0  0  0  0
 28 27  1  0  0  0  0
 29 31  1  0  0  0  0
 30 29  2  0  0  0  0
 31 32  1  0  0  0  0
M  END
>  <MODEL>
2

>  <REMARK>
 VINA RESULT:      -8.9      2.449      5.548
  Name = 
  4 active torsions:
  status: ('A' for Active; 'I' for Inactive)
    1  A    between atoms: C_13  and  C_18
    2  A    between atoms: C_14  and  N_29
    3  A    between atoms: O_15  and  C_26
    4  A    between atoms: C_16  and  C_27
                            x       y       z     vdW  Elec       q    Type
                         _______ _______ _______ _____ _____    ______ ____

>  <TORSDO>
F 4

$$$$
=
 OpenBabel11062408263D

 32 36  0  0  1  0  0  0  0  0999 V2000
  161.2950  208.4490  152.9180 C   0  0  0  0  0  0  0  0  0  0  0  0
  161.4960  210.1870  150.7120 C   0  0  0  0  0  0  0  0  0  0  0  0
  161.4500  207.5620  154.1340 C   0  0  0  0  0  2  0  0  0  0  0  0
  161.5680  207.9140  151.6340 C   0  0  0  0  0  0  0  0  0  0  0  0
  162.0780  208.3390  149.2630 C   0  0  0  0  0  3  0  0  0  0  0  0
  161.1300  213.2400  148.4080 C   0  0  0  0  0  2  0  0  0  0  0  0
  161.7170  208.7970  150.5360 C   0  0  0  0  0  0  0  0  0  0  0  0
  161.7230  211.4540  147.1220 C   0  0  0  0  0  2  0  0  0  0  0  0
  161.8840  210.5590  148.3350 C   0  0  0  0  0  0  0  0  0  0  0  0
  161.8860  206.4050  151.5360 C   0  0  1  0  0  3  0  0  0  0  0  0
  162.1290  209.2020  148.1680 C   0  0  0  0  0  3  0  0  0  0  0  0
  161.2950  205.5880  152.6610 C   0  0  0  0  0  3  0  0  0  0  0  0
  161.1820  210.6700  151.9820 C   0  0  0  0  0  3  0  0  0  0  0  0
  161.0580  209.8320  153.0870 C   0  0  0  0  0  0  0  0  0  0  0  0
  161.5860  211.0690  149.6150 C   0  0  0  0  0  0  0  0  0  0  0  0
  161.0770  206.1320  153.8590 C   0  0  0  0  0  3  0  0  0  0  0  0
  162.0710  212.7790  147.4530 O   0  0  0  0  0  0  0  0  0  0  0  0
  161.3950  212.5660  149.7750 C   0  0  0  0  0  2  0  0  0  0  0  0
  159.1980  211.2730  156.1190 C   0  0  0  0  0  0  0  0  0  0  0  0
  157.9040  211.5560  156.5520 O   0  0  0  0  0  1  0  0  0  0  0  0
  160.7470  210.4310  154.4230 C   0  0  0  0  0  0  0  0  0  0  0  0
  160.2680  211.6110  156.9450 C   0  0  0  0  0  3  0  0  0  0  0  0
  161.8060  210.8140  155.2570 C   0  0  0  0  0  3  0  0  0  0  0  0
  159.4260  210.7000  154.8540 C   0  0  0  0  0  0  0  0  0  0  0  0
  158.2470  210.4090  153.9760 C   0  0  0  0  0  1  0  0  0  0  0  0
  161.5850  211.4040  156.5080 C   0  0  0  0  0  0  0  0  0  0  0  0
  163.9380  211.1060  157.2540 C   0  0  0  0  0  1  0  0  0  0  0  0
  162.6960  211.8180  157.2610 O   0  0  0  0  0  0  0  0  0  0  0  0
  161.2450  204.5550  150.1380 C   0  0  0  0  0  3  0  0  0  0  0  0
  161.5500  205.8050  150.2560 N   0  0  0  0  0  0  0  0  0  0  0  0
  160.8350  204.0010  148.8050 C   0  0  0  0  0  2  0  0  0  0  0  0
  161.2810  204.9200  147.6810 C   0  0  0  0  0  1  0  0  0  0  0  0
  1 14  1  0  0  0  0
  1  3  1  0  0  0  0
  2 13  1  0  0  0  0
  4  1  2  0  0  0  0
  5  7  2  0  0  0  0
  6 18  1  0  0  0  0
  7  2  1  0  0  0  0
  7  4  1  0  0  0  0
  8 17  1  0  0  0  0
  8  9  1  0  0  0  0
  9 15  1  0  0  0  0
 10 30  1  6  0  0  0
 10  4  1  0  0  0  0
 10 12  1  0  0  0  0
 11  9  2  0  0  0  0
 11  5  1  0  0  0  0
 12 16  2  0  0  0  0
 13 14  2  0  0  0  0
 14 21  1  0  0  0  0
 15 18  1  0  0  0  0
 15  2  2  0  0  0  0
 16  3  1  0  0  0  0
 17  6  1  0  0  0  0
 19 20  1  0  0  0  0
 19 22  1  0  0  0  0
 21 24  1  0  0  0  0
 21 23  2  0  0  0  0
 23 26  1  0  0  0  0
 24 19  2  0  0  0  0
 25 24  1  0  0  0  0
 26 22  2  0  0  0  0
 26 28  1  0  0  0  0
 27 28  1  0  0  0  0
 29 30  2  0  0  0  0
 31 29  1  0  0  0  0
 32 31  1  0  0  0  0
M  END
>  <MODEL>
3

>  <REMARK>
 VINA RESULT:      -7.3      3.139      8.003
  Name = 
  4 active torsions:
  status: ('A' for Active; 'I' for Inactive)
    1  A    between atoms: C_13  and  C_18
    2  A    between atoms: C_14  and  N_29
    3  A    between atoms: O_15  and  C_26
    4  A    between atoms: C_16  and  C_27
                            x       y       z     vdW  Elec       q    Type
                         _______ _______ _______ _____ _____    ______ ____

>  <TORSDO>
F 4

$$$$
=
 OpenBabel11062408263D

 32 36  0  0  1  0  0  0  0  0999 V2000
  161.3670  208.4330  150.1060 C   0  0  0  0  0  0  0  0  0  0  0  0
  161.1660  208.4930  152.9140 C   0  0  0  0  0  0  0  0  0  0  0  0
  161.2060  208.4220  148.6020 C   0  0  0  0  0  2  0  0  0  0  0  0
  161.2500  207.2150  150.8220 C   0  0  0  0  0  0  0  0  0  0  0  0
  160.8890  206.0910  152.9830 C   0  0  0  0  0  3  0  0  0  0  0  0
  161.4020  209.6180  156.5810 C   0  0  0  0  0  2  0  0  0  0  0  0
  161.1000  207.2530  152.2310 C   0  0  0  0  0  0  0  0  0  0  0  0
  161.0960  207.3590  156.5550 C   0  0  0  0  0  2  0  0  0  0  0  0
  160.9310  207.3400  155.0480 C   0  0  0  0  0  0  0  0  0  0  0  0
  161.0950  205.9130  150.0050 C   0  0  1  0  0  3  0  0  0  0  0  0
  160.8380  206.1280  154.3760 C   0  0  0  0  0  3  0  0  0  0  0  0
  161.6750  206.0000  148.6130 C   0  0  0  0  0  3  0  0  0  0  0  0
  161.3280  209.6680  152.1790 C   0  0  0  0  0  3  0  0  0  0  0  0
  161.4490  209.6660  150.7930 C   0  0  0  0  0  0  0  0  0  0  0  0
  161.0740  208.5390  154.3210 C   0  0  0  0  0  0  0  0  0  0  0  0
  161.7420  207.1670  147.9720 C   0  0  0  0  0  3  0  0  0  0  0  0
  160.5910  208.5670  157.0780 O   0  0  0  0  0  0  0  0  0  0  0  0
  161.1000  209.8520  155.0820 C   0  0  0  0  0  2  0  0  0  0  0  0
  161.0110  213.3170  149.6940 C   0  0  0  0  0  0  0  0  0  0  0  0
  160.2680  214.4530  150.0090 O   0  0  0  0  0  1  0  0  0  0  0  0
  161.5920  210.9710  150.0730 C   0  0  0  0  0  0  0  0  0  0  0  0
  161.8980  213.3750  148.6200 C   0  0  0  0  0  3  0  0  0  0  0  0
  162.4490  211.0450  148.9670 C   0  0  0  0  0  3  0  0  0  0  0  0
  160.8390  212.1200  150.4140 C   0  0  0  0  0  0  0  0  0  0  0  0
  159.8300  212.0890  151.5220 C   0  0  0  0  0  1  0  0  0  0  0  0
  162.6080  212.2290  148.2340 C   0  0  0  0  0  0  0  0  0  0  0  0
  163.1360  212.9510  145.9140 C   0  0  0  0  0  1  0  0  0  0  0  0
  163.4370  212.2090  147.1000 O   0  0  0  0  0  0  0  0  0  0  0  0
  160.9030  203.6290  150.7370 C   0  0  0  0  0  3  0  0  0  0  0  0
  161.5890  204.7230  150.6760 N   0  0  0  0  0  0  0  0  0  0  0  0
  161.4890  202.4060  151.3800 C   0  0  0  0  0  2  0  0  0  0  0  0
  161.2300  201.1750  150.5280 C   0  0  0  0  0  1  0  0  0  0  0  0
  1 14  2  0  0  0  0
  1  4  1  0  0  0  0
  2 15  1  0  0  0  0
  3  1  1  0  0  0  0
  4  7  2  0  0  0  0
  5 11  2  0  0  0  0
  6 17  1  0  0  0  0
  7  2  1  0  0  0  0
  7  5  1  0  0  0  0
  8 17  1  0  0  0  0
  9  8  1  0  0  0  0
 10 30  1  1  0  0  0
 10  4  1  0  0  0  0
 11  9  1  0  0  0  0
 12 10  1  0  0  0  0
 13  2  2  0  0  0  0
 14 13  1  0  0  0  0
 15  9  2  0  0  0  0
 15 18  1  0  0  0  0
 16  3  1  0  0  0  0
 16 12  2  0  0  0  0
 18  6  1  0  0  0  0
 19 20  1  0  0  0  0
 19 24  1  0  0  0  0
 21 24  2  0  0  0  0
 21 14  1  0  0  0  0
 22 19  2  0  0  0  0
 23 21  1  0  0  0  0
 24 25  1  0  0  0  0
 26 22  1  0  0  0  0
 26 23  2  0  0  0  0
 27 28  1  0  0  0  0
 28 26  1  0  0  0  0
 29 31  1  0  0  0  0
 30 29  2  0  0  0  0
 32 31  1  0  0  0  0
M  END
>  <MODEL>
4

>  <REMARK>
 VINA RESULT:      -6.9      2.825      6.448
  Name = 
  4 active torsions:
  status: ('A' for Active; 'I' for Inactive)
    1  A    between atoms: C_13  and  C_18
    2  A    between atoms: C_14  and  N_29
    3  A    between atoms: O_15  and  C_26
    4  A    between atoms: C_16  and  C_27
                            x       y       z     vdW  Elec       q    Type
                         _______ _______ _______ _____ _____    ______ ____

>  <TORSDO>
F 4

$$$$
=
 OpenBabel11062408263D

 32 36  0  0  1  0  0  0  0  0999 V2000
  161.4120  207.8880  150.7370 C   0  0  0  0  0  0  0  0  0  0  0  0
  161.0670  205.0940  150.8050 C   0  0  0  0  0  0  0  0  0  0  0  0
  161.3290  209.3970  150.6750 C   0  0  0  0  0  2  0  0  0  0  0  0
  161.4730  207.1490  149.5280 C   0  0  0  0  0  0  0  0  0  0  0  0
  161.2070  204.9810  148.3920 C   0  0  0  0  0  3  0  0  0  0  0  0
  160.9270  201.4490  152.0100 C   0  0  0  0  0  2  0  0  0  0  0  0
  161.2500  205.7500  149.5620 C   0  0  0  0  0  0  0  0  0  0  0  0
  161.0170  201.4350  149.7330 C   0  0  0  0  0  2  0  0  0  0  0  0
  160.9320  202.9460  149.6620 C   0  0  0  0  0  0  0  0  0  0  0  0
  161.5850  207.9420  148.2070 C   0  0  1  0  0  3  0  0  0  0  0  0
  161.0820  203.5930  148.4420 C   0  0  0  0  0  3  0  0  0  0  0  0
  162.2090  209.3080  148.3710 C   0  0  0  0  0  3  0  0  0  0  0  0
  161.0600  205.8490  151.9780 C   0  0  0  0  0  3  0  0  0  0  0  0
  161.2470  207.2280  151.9760 C   0  0  0  0  0  0  0  0  0  0  0  0
  160.9000  203.6950  150.8560 C   0  0  0  0  0  0  0  0  0  0  0  0
  162.1040  209.9730  149.5220 C   0  0  0  0  0  3  0  0  0  0  0  0
  160.2860  200.9640  150.8430 O   0  0  0  0  0  0  0  0  0  0  0  0
  160.6620  202.9650  152.1660 C   0  0  0  0  0  2  0  0  0  0  0  0
  161.1280  208.0720  155.7180 C   0  0  0  0  0  0  0  0  0  0  0  0
  161.1020  207.4450  156.9620 O   0  0  0  0  0  1  0  0  0  0  0  0
  161.1960  207.9710  153.2750 C   0  0  0  0  0  0  0  0  0  0  0  0
  161.0490  209.4630  155.6700 C   0  0  0  0  0  3  0  0  0  0  0  0
  161.0790  209.3680  153.2520 C   0  0  0  0  0  3  0  0  0  0  0  0
  161.1840  207.3200  154.5310 C   0  0  0  0  0  0  0  0  0  0  0  0
  161.2070  205.8240  154.6320 C   0  0  0  0  0  1  0  0  0  0  0  0
  161.0000  210.1210  154.4320 C   0  0  0  0  0  0  0  0  0  0  0  0
  160.0790  212.1140  153.2650 C   0  0  0  0  0  1  0  0  0  0  0  0
  160.8220  211.5100  154.3290 O   0  0  0  0  0  0  0  0  0  0  0  0
  161.5910  206.4970  146.2840 C   0  0  0  0  0  3  0  0  0  0  0  0
  162.2440  207.2210  147.1310 N   0  0  0  0  0  0  0  0  0  0  0  0
  162.3100  205.8300  145.1470 C   0  0  0  0  0  2  0  0  0  0  0  0
  161.4390  204.7610  144.5120 C   0  0  0  0  0  1  0  0  0  0  0  0
  1 14  1  0  0  0  0
  2 15  1  0  0  0  0
  2 13  1  0  0  0  0
  3  1  1  0  0  0  0
  4  7  1  0  0  0  0
  4  1  2  0  0  0  0
  5 11  2  0  0  0  0
  5  7  1  0  0  0  0
  6 18  1  0  0  0  0
  7  2  2  0  0  0  0
  8 17  1  0  0  0  0
  9  8  1  0  0  0  0
  9 15  2  0  0  0  0
 10 30  1  6  0  0  0
 10 12  1  0  0  0  0
 10  4  1  0  0  0  0
 11  9  1  0  0  0  0
 12 16  2  0  0  0  0
 14 13  2  0  0  0  0
 14 21  1  0  0  0  0
 15 18  1  0  0  0  0
 16  3  1  0  0  0  0
 17  6  1  0  0  0  0
 19 20  1  0  0  0  0
 21 24  1  0  0  0  0
 22 19  1  0  0  0  0
 23 21  2  0  0  0  0
 23 26  1  0  0  0  0
 24 25  1  0  0  0  0
 24 19  2  0  0  0  0
 26 22  2  0  0  0  0
 27 28  1  0  0  0  0
 28 26  1  0  0  0  0
 29 30  2  0  0  0  0
 31 29  1  0  0  0  0
 32 31  1  0  0  0  0
M  END
>  <MODEL>
5

>  <REMARK>
 VINA RESULT:      -6.6      1.798      6.757
  Name = 
  4 active torsions:
  status: ('A' for Active; 'I' for Inactive)
    1  A    between atoms: C_13  and  C_18
    2  A    between atoms: C_14  and  N_29
    3  A    between atoms: O_15  and  C_26
    4  A    between atoms: C_16  and  C_27
                            x       y       z     vdW  Elec       q    Type
                         _______ _______ _______ _____ _____    ______ ____

>  <TORSDO>
F 4

$$$$
