=
 OpenBabel11062408323D

 32 34  0  0  1  0  0  0  0  0999 V2000
  161.5580  209.6970  151.3030 C   0  0  0  0  0  2  0  0  0  0  0  0
  161.9080  208.3720  150.6160 C   0  0  1  0  0  3  0  0  0  0  0  0
  160.8340  209.5380  152.5750 N   0  0  0  0  0  0  0  0  0  0  0  0
  161.3220  208.3590  153.3160 C   0  0  2  0  0  3  0  0  0  0  0  0
  161.0370  207.0610  152.5390 C   0  0  0  0  0  2  0  0  0  0  0  0
  160.9410  207.2790  151.0320 C   0  0  0  0  0  2  0  0  0  0  0  0
  162.0990  208.5350  156.8400 C   0  0  0  0  0  3  0  0  0  0  0  0
  160.6820  208.2540  154.6700 C   0  0  0  0  0  3  0  0  0  0  0  0
  162.7230  209.8470  157.1530 C   0  0  0  0  0  1  0  0  0  0  0  0
  161.3900  208.3930  155.7580 C   0  0  0  0  0  0  0  0  0  0  0  0
  161.1470  210.7440  153.3370 C   0  0  0  0  0  2  0  0  0  0  0  0
  160.0100  211.7000  153.2550 C   0  0  0  0  0  0  0  0  0  0  0  0
  155.4460  214.0250  154.1840 C   0  0  0  0  0  3  0  0  0  0  0  0
  160.0400  212.6290  152.4040 O   0  0  0  0  0  0  0  0  0  0  0  0
  156.6250  212.0040  155.1420 C   0  0  0  0  0  2  0  0  0  0  0  0
  157.7030  212.3380  154.1430 C   0  0  0  0  0  0  0  0  0  0  0  0
  158.8860  211.5300  154.1280 N   0  0  0  0  0  2  0  0  0  0  0  0
  157.5320  213.2850  153.2650 N   0  0  0  0  0  0  0  0  0  0  0  0
  155.6090  213.0520  155.2200 N   0  0  0  0  0  2  0  0  0  0  0  0
  156.3700  214.1260  153.2350 C   0  0  0  0  0  3  0  0  0  0  0  0
  161.9170  208.5810  148.8110 S   0  0  0  0  0  0  0  0  0  0  0  0
  162.8000  207.0130  148.5150 C   0  0  0  0  0  2  0  0  0  0  0  0
  160.5160  206.1760  147.8160 C   0  0  0  0  0  2  0  0  0  0  0  0
  162.3830  206.0010  146.1220 C   0  0  0  0  0  1  0  0  0  0  0  0
  162.0080  206.0980  147.5950 C   0  0  1  0  0  0  0  0  0  0  0  0
  161.2840  204.9390  148.2660 C   0  0  2  0  0  3  0  0  0  0  0  0
  161.0610  203.8910  147.3690 O   0  0  0  0  0  0  0  0  0  0  0  0
  161.1560  202.7330  148.1450 C   0  0  0  0  0  2  0  0  0  0  0  0
  161.4600  200.4040  147.6940 O   0  0  0  0  0  1  0  0  0  0  0  0
  160.7080  201.5260  147.3390 C   0  0  2  0  0  3  0  0  0  0  0  0
  160.8440  201.7980  145.8470 C   0  0  0  0  0  2  0  0  0  0  0  0
  159.8430  201.1380  145.1310 O   0  0  0  0  0  1  0  0  0  0  0  0
  1  3  1  0  0  0  0
  2 21  1  6  0  0  0
  2  6  1  0  0  0  0
  2  1  1  0  0  0  0
  3  4  1  0  0  0  0
  3 11  1  0  0  0  0
  4  8  1  1  0  0  0
  5  4  1  0  0  0  0
  6  5  1  0  0  0  0
  7  9  1  0  0  0  0
  8 10  2  0  0  0  0
 10  7  2  0  0  0  0
 12 11  1  0  0  0  0
 12 17  1  0  0  0  0
 13 19  1  0  0  0  0
 14 12  2  0  0  0  0
 15 19  1  0  0  0  0
 16 15  1  0  0  0  0
 17 16  1  0  0  0  0
 18 16  2  0  0  0  0
 20 18  1  0  0  0  0
 20 13  2  0  0  0  0
 22 21  1  0  0  0  0
 23 26  1  0  0  0  0
 25 24  1  6  0  0  0
 25 23  1  0  0  0  0
 25 26  1  0  0  0  0
 25 22  1  0  0  0  0
 26 27  1  6  0  0  0
 27 28  1  0  0  0  0
 30 29  1  1  0  0  0
 30 28  1  0  0  0  0
 31 30  1  0  0  0  0
 32 31  1  0  0  0  0
M  END
>  <MODEL>
1

>  <REMARK>
 VINA RESULT:      -7.1      0.000      0.000
  Name = 
  10 active torsions:
  status: ('A' for Active; 'I' for Inactive)
    1  A    between atoms: C_2  and  N_5
    2  A    between atoms: C_2  and  C_6
    3  A    between atoms: C_4  and  S_27
    4  A    between atoms: O_7  and  C_19
    5  A    between atoms: O_7  and  C_26
    6  A    between atoms: C_8  and  C_19
    7  A    between atoms: C_8  and  C_22
    8  A    between atoms: C_14  and  C_18
    9  A    between atoms: C_20  and  C_24
   10  A    between atoms: C_24  and  S_27
                            x       y       z     vdW  Elec       q    Type
                         _______ _______ _______ _____ _____    ______ ____

>  <TORSDO>
F 10

$$$$
=
 OpenBabel11062408323D

 32 34  0  0  1  0  0  0  0  0999 V2000
  161.9770  208.6040  150.7260 C   0  0  0  0  0  2  0  0  0  0  0  0
  162.1780  207.2410  150.0560 C   0  0  1  0  0  3  0  0  0  0  0  0
  161.1300  208.5610  151.9300 N   0  0  0  0  0  0  0  0  0  0  0  0
  161.3680  207.3220  152.6970 C   0  0  2  0  0  3  0  0  0  0  0  0
  160.9560  206.0810  151.8840 C   0  0  0  0  0  2  0  0  0  0  0  0
  161.0250  206.3090  150.3760 C   0  0  0  0  0  2  0  0  0  0  0  0
  161.7240  208.1280  156.2000 C   0  0  0  0  0  3  0  0  0  0  0  0
  160.6050  207.3170  153.9900 C   0  0  0  0  0  3  0  0  0  0  0  0
  162.1210  209.5530  156.3500 C   0  0  0  0  0  1  0  0  0  0  0  0
  161.1640  207.7220  155.0980 C   0  0  0  0  0  0  0  0  0  0  0  0
  161.5560  209.7050  152.7300 C   0  0  0  0  0  2  0  0  0  0  0  0
  160.5080  210.7610  152.6970 C   0  0  0  0  0  0  0  0  0  0  0  0
  156.3100  213.5820  153.9300 C   0  0  0  0  0  3  0  0  0  0  0  0
  160.5220  211.6200  151.7750 O   0  0  0  0  0  0  0  0  0  0  0  0
  157.4070  211.5270  154.9120 C   0  0  0  0  0  2  0  0  0  0  0  0
  158.3870  211.6830  153.7770 C   0  0  0  0  0  0  0  0  0  0  0  0
  159.4830  210.7640  153.6980 N   0  0  0  0  0  2  0  0  0  0  0  0
  158.2000  212.5790  152.8490 N   0  0  0  0  0  0  0  0  0  0  0  0
  156.5050  212.6720  155.0160 N   0  0  0  0  0  2  0  0  0  0  0  0
  157.1230  213.5250  152.8790 C   0  0  0  0  0  3  0  0  0  0  0  0
  162.3740  207.4430  148.2620 S   0  0  0  0  0  0  0  0  0  0  0  0
  161.1740  206.1280  147.8630 C   0  0  0  0  0  2  0  0  0  0  0  0
  161.1220  205.3450  145.4570 C   0  0  0  0  0  2  0  0  0  0  0  0
  163.2310  204.9000  146.7750 C   0  0  0  0  0  1  0  0  0  0  0  0
  161.7330  205.1660  146.8260 C   0  0  1  0  0  0  0  0  0  0  0  0
  160.7630  204.1220  146.2910 C   0  0  2  0  0  3  0  0  0  0  0  0
  161.4400  203.0010  145.8050 O   0  0  0  0  0  0  0  0  0  0  0  0
  160.7040  201.9100  146.2730 C   0  0  0  0  0  2  0  0  0  0  0  0
  161.5780  200.0780  147.5380 O   0  0  0  0  0  1  0  0  0  0  0  0
  161.2610  201.4370  147.6050 C   0  0  2  0  0  3  0  0  0  0  0  0
  160.2600  201.6870  148.7240 C   0  0  0  0  0  2  0  0  0  0  0  0
  160.7060  201.1240  149.9220 O   0  0  0  0  0  1  0  0  0  0  0  0
  1  3  1  0  0  0  0
  2 21  1  6  0  0  0
  2  6  1  0  0  0  0
  2  1  1  0  0  0  0
  3  4  1  0  0  0  0
  3 11  1  0  0  0  0
  4  8  1  1  0  0  0
  5  4  1  0  0  0  0
  6  5  1  0  0  0  0
  7  9  1  0  0  0  0
  8 10  2  0  0  0  0
 10  7  2  0  0  0  0
 12 11  1  0  0  0  0
 12 17  1  0  0  0  0
 13 19  1  0  0  0  0
 14 12  2  0  0  0  0
 15 19  1  0  0  0  0
 16 15  1  0  0  0  0
 17 16  1  0  0  0  0
 18 20  1  0  0  0  0
 18 16  2  0  0  0  0
 20 13  2  0  0  0  0
 22 21  1  0  0  0  0
 23 26  1  0  0  0  0
 23 25  1  0  0  0  0
 25 24  1  1  0  0  0
 25 22  1  0  0  0  0
 26 27  1  6  0  0  0
 26 25  1  0  0  0  0
 27 28  1  0  0  0  0
 28 30  1  0  0  0  0
 30 29  1  6  0  0  0
 30 31  1  0  0  0  0
 31 32  1  0  0  0  0
M  END
>  <MODEL>
2

>  <REMARK>
 VINA RESULT:      -7.1      1.206      1.646
  Name = 
  10 active torsions:
  status: ('A' for Active; 'I' for Inactive)
    1  A    between atoms: C_2  and  N_5
    2  A    between atoms: C_2  and  C_6
    3  A    between atoms: C_4  and  S_27
    4  A    between atoms: O_7  and  C_19
    5  A    between atoms: O_7  and  C_26
    6  A    between atoms: C_8  and  C_19
    7  A    between atoms: C_8  and  C_22
    8  A    between atoms: C_14  and  C_18
    9  A    between atoms: C_20  and  C_24
   10  A    between atoms: C_24  and  S_27
                            x       y       z     vdW  Elec       q    Type
                         _______ _______ _______ _____ _____    ______ ____

>  <TORSDO>
F 10

$$$$
=
 OpenBabel11062408323D

 32 34  0  0  1  0  0  0  0  0999 V2000
  161.9010  207.6700  152.3060 C   0  0  0  0  0  2  0  0  0  0  0  0
  161.5470  206.5920  153.3360 C   0  0  1  0  0  3  0  0  0  0  0  0
  161.5370  209.0360  152.7190 N   0  0  0  0  0  0  0  0  0  0  0  0
  161.7430  209.2190  154.1690 C   0  0  2  0  0  3  0  0  0  0  0  0
  160.8090  208.3030  154.9810 C   0  0  0  0  0  2  0  0  0  0  0  0
  160.3990  207.0460  154.2170 C   0  0  0  0  0  2  0  0  0  0  0  0
  159.0670  211.5640  154.7920 C   0  0  0  0  0  3  0  0  0  0  0  0
  161.4960  210.6400  154.5860 C   0  0  0  0  0  3  0  0  0  0  0  0
  158.1520  211.0200  155.8300 C   0  0  0  0  0  1  0  0  0  0  0  0
  160.2810  211.1050  154.6890 C   0  0  0  0  0  0  0  0  0  0  0  0
  162.4590  209.9040  151.9930 C   0  0  0  0  0  2  0  0  0  0  0  0
  161.6950  210.7980  151.0810 C   0  0  0  0  0  0  0  0  0  0  0  0
  160.4220  213.7190  146.9640 C   0  0  0  0  0  3  0  0  0  0  0  0
  160.5690  211.2340  151.4400 O   0  0  0  0  0  0  0  0  0  0  0  0
  162.4380  212.3240  147.5840 C   0  0  0  0  0  2  0  0  0  0  0  0
  161.6800  212.0540  148.8590 C   0  0  0  0  0  0  0  0  0  0  0  0
  162.2680  211.1720  149.8220 N   0  0  0  0  0  2  0  0  0  0  0  0
  160.5570  212.6640  149.1120 N   0  0  0  0  0  0  0  0  0  0  0  0
  161.6150  213.0210  146.5970 N   0  0  0  0  0  2  0  0  0  0  0  0
  159.9210  213.5540  148.1840 C   0  0  0  0  0  3  0  0  0  0  0  0
  161.1470  205.0290  152.5010 S   0  0  0  0  0  0  0  0  0  0  0  0
  161.9510  205.5200  150.9390 C   0  0  0  0  0  2  0  0  0  0  0  0
  160.3810  203.8550  149.8580 C   0  0  0  0  0  2  0  0  0  0  0  0
  160.1870  206.2680  149.1360 C   0  0  0  0  0  1  0  0  0  0  0  0
  161.0760  205.1900  149.7400 C   0  0  1  0  0  0  0  0  0  0  0  0
  161.5360  204.0220  148.8780 C   0  0  2  0  0  3  0  0  0  0  0  0
  161.0400  204.1260  147.5760 O   0  0  0  0  0  0  0  0  0  0  0  0
  162.1680  204.0190  146.7570 C   0  0  0  0  0  2  0  0  0  0  0  0
  162.3070  206.3910  146.4830 O   0  0  0  0  0  1  0  0  0  0  0  0
  162.2190  205.1850  145.7850 C   0  0  2  0  0  3  0  0  0  0  0  0
  160.9890  205.1880  144.8880 C   0  0  0  0  0  2  0  0  0  0  0  0
  160.1160  206.2160  145.2480 O   0  0  0  0  0  1  0  0  0  0  0  0
  1  3  1  0  0  0  0
  1  2  1  0  0  0  0
  2 21  1  6  0  0  0
  2  6  1  0  0  0  0
  3  4  1  0  0  0  0
  4  8  1  1  0  0  0
  4  5  1  0  0  0  0
  6  5  1  0  0  0  0
  7  9  1  0  0  0  0
  8 10  2  0  0  0  0
 10  7  2  0  0  0  0
 11  3  1  0  0  0  0
 12 14  2  0  0  0  0
 12 11  1  0  0  0  0
 13 20  2  0  0  0  0
 15 16  1  0  0  0  0
 16 18  2  0  0  0  0
 16 17  1  0  0  0  0
 17 12  1  0  0  0  0
 19 13  1  0  0  0  0
 19 15  1  0  0  0  0
 20 18  1  0  0  0  0
 22 21  1  0  0  0  0
 25 24  1  6  0  0  0
 25 23  1  0  0  0  0
 25 22  1  0  0  0  0
 26 27  1  6  0  0  0
 26 25  1  0  0  0  0
 26 23  1  0  0  0  0
 28 27  1  0  0  0  0
 30 29  1  1  0  0  0
 30 28  1  0  0  0  0
 31 32  1  0  0  0  0
 31 30  1  0  0  0  0
M  END
>  <MODEL>
3

>  <REMARK>
 VINA RESULT:      -6.6      2.913      4.672
  Name = 
  10 active torsions:
  status: ('A' for Active; 'I' for Inactive)
    1  A    between atoms: C_2  and  N_5
    2  A    between atoms: C_2  and  C_6
    3  A    between atoms: C_4  and  S_27
    4  A    between atoms: O_7  and  C_19
    5  A    between atoms: O_7  and  C_26
    6  A    between atoms: C_8  and  C_19
    7  A    between atoms: C_8  and  C_22
    8  A    between atoms: C_14  and  C_18
    9  A    between atoms: C_20  and  C_24
   10  A    between atoms: C_24  and  S_27
                            x       y       z     vdW  Elec       q    Type
                         _______ _______ _______ _____ _____    ______ ____

>  <TORSDO>
F 10

$$$$
=
 OpenBabel11062408323D

 32 34  0  0  1  0  0  0  0  0999 V2000
  161.9620  206.5410  151.5090 C   0  0  0  0  0  2  0  0  0  0  0  0
  161.6990  206.1910  152.9780 C   0  0  1  0  0  3  0  0  0  0  0  0
  161.6740  207.9440  151.1670 N   0  0  0  0  0  0  0  0  0  0  0  0
  162.0410  208.8430  152.2800 C   0  0  2  0  0  3  0  0  0  0  0  0
  161.1810  208.5600  153.5250 C   0  0  0  0  0  2  0  0  0  0  0  0
  160.6640  207.1240  153.5760 C   0  0  0  0  0  2  0  0  0  0  0  0
  159.6590  211.5540  152.4500 C   0  0  0  0  0  3  0  0  0  0  0  0
  161.8700  210.2860  151.9020 C   0  0  0  0  0  3  0  0  0  0  0  0
  159.2780  211.8000  153.8660 C   0  0  0  0  0  1  0  0  0  0  0  0
  160.7640  210.9220  152.1750 C   0  0  0  0  0  0  0  0  0  0  0  0
  162.5300  208.2320  150.0200 C   0  0  0  0  0  2  0  0  0  0  0  0
  161.9150  207.6790  148.7830 C   0  0  0  0  0  0  0  0  0  0  0  0
  161.2250  204.8890  144.4420 C   0  0  0  0  0  3  0  0  0  0  0  0
  160.7940  208.1080  148.4020 O   0  0  0  0  0  0  0  0  0  0  0  0
  163.0750  205.0570  146.1570 C   0  0  0  0  0  2  0  0  0  0  0  0
  162.1880  206.0920  146.8020 C   0  0  0  0  0  0  0  0  0  0  0  0
  162.6240  206.6870  148.0290 N   0  0  0  0  0  2  0  0  0  0  0  0
  161.0910  206.4900  146.2210 N   0  0  0  0  0  0  0  0  0  0  0  0
  162.3950  204.3570  145.0690 N   0  0  0  0  0  2  0  0  0  0  0  0
  160.6050  205.9270  144.9950 C   0  0  0  0  0  3  0  0  0  0  0  0
  161.1790  204.4580  153.1300 S   0  0  0  0  0  0  0  0  0  0  0  0
  161.9740  203.9570  151.5670 C   0  0  0  0  0  2  0  0  0  0  0  0
  159.8290  202.6830  151.1420 C   0  0  0  0  0  2  0  0  0  0  0  0
  160.4560  204.4830  149.4830 C   0  0  0  0  0  1  0  0  0  0  0  0
  160.9450  203.5050  150.5430 C   0  0  1  0  0  0  0  0  0  0  0  0
  160.8820  202.0080  150.2730 C   0  0  2  0  0  3  0  0  0  0  0  0
  160.3530  201.7410  149.0080 O   0  0  0  0  0  0  0  0  0  0  0  0
  161.2740  200.8750  148.4130 C   0  0  0  0  0  2  0  0  0  0  0  0
  161.6000  199.4600  146.5130 O   0  0  0  0  0  1  0  0  0  0  0  0
  160.8020  200.4860  147.0230 C   0  0  2  0  0  3  0  0  0  0  0  0
  160.8340  201.6880  146.0900 C   0  0  0  0  0  2  0  0  0  0  0  0
  159.9400  201.5170  145.0310 O   0  0  0  0  0  1  0  0  0  0  0  0
  1  2  1  0  0  0  0
  2 21  1  6  0  0  0
  2  6  1  0  0  0  0
  3  1  1  0  0  0  0
  3  4  1  0  0  0  0
  4  8  1  6  0  0  0
  4  5  1  0  0  0  0
  5  6  1  0  0  0  0
  7  9  1  0  0  0  0
  8 10  2  0  0  0  0
 10  7  2  0  0  0  0
 11  3  1  0  0  0  0
 12 11  1  0  0  0  0
 13 20  2  0  0  0  0
 13 19  1  0  0  0  0
 14 12  2  0  0  0  0
 15 16  1  0  0  0  0
 16 17  1  0  0  0  0
 17 12  1  0  0  0  0
 18 16  2  0  0  0  0
 19 15  1  0  0  0  0
 20 18  1  0  0  0  0
 22 21  1  0  0  0  0
 25 24  1  6  0  0  0
 25 23  1  0  0  0  0
 25 22  1  0  0  0  0
 26 27  1  6  0  0  0
 26 25  1  0  0  0  0
 26 23  1  0  0  0  0
 28 27  1  0  0  0  0
 30 29  1  6  0  0  0
 30 28  1  0  0  0  0
 31 30  1  0  0  0  0
 32 31  1  0  0  0  0
M  END
>  <MODEL>
4

>  <REMARK>
 VINA RESULT:      -6.5      3.304      6.672
  Name = 
  10 active torsions:
  status: ('A' for Active; 'I' for Inactive)
    1  A    between atoms: C_2  and  N_5
    2  A    between atoms: C_2  and  C_6
    3  A    between atoms: C_4  and  S_27
    4  A    between atoms: O_7  and  C_19
    5  A    between atoms: O_7  and  C_26
    6  A    between atoms: C_8  and  C_19
    7  A    between atoms: C_8  and  C_22
    8  A    between atoms: C_14  and  C_18
    9  A    between atoms: C_20  and  C_24
   10  A    between atoms: C_24  and  S_27
                            x       y       z     vdW  Elec       q    Type
                         _______ _______ _______ _____ _____    ______ ____

>  <TORSDO>
F 10

$$$$
=
 OpenBabel11062408323D

 32 34  0  0  1  0  0  0  0  0999 V2000
  160.7410  209.7000  153.8890 C   0  0  0  0  0  2  0  0  0  0  0  0
  160.9210  208.6230  154.9640 C   0  0  1  0  0  3  0  0  0  0  0  0
  159.9660  210.8690  154.3370 N   0  0  0  0  0  0  0  0  0  0  0  0
  160.2660  211.1910  155.7460 C   0  0  2  0  0  3  0  0  0  0  0  0
  159.8250  210.0490  156.6790 C   0  0  0  0  0  2  0  0  0  0  0  0
  159.8020  208.6900  155.9850 C   0  0  0  0  0  2  0  0  0  0  0  0
  156.9810  212.6490  156.1120 C   0  0  0  0  0  3  0  0  0  0  0  0
  159.5800  212.4530  156.1810 C   0  0  0  0  0  3  0  0  0  0  0  0
  156.1500  211.7990  157.0030 C   0  0  0  0  0  1  0  0  0  0  0  0
  158.2790  212.5540  156.1460 C   0  0  0  0  0  0  0  0  0  0  0  0
  160.4230  211.9670  153.4890 C   0  0  0  0  0  2  0  0  0  0  0  0
  159.3930  212.2680  152.4580 C   0  0  0  0  0  0  0  0  0  0  0  0
  157.0960  214.1740  148.1930 C   0  0  0  0  0  3  0  0  0  0  0  0
  158.2200  211.8340  152.6070 O   0  0  0  0  0  0  0  0  0  0  0  0
  159.4260  214.3300  149.1620 C   0  0  0  0  0  2  0  0  0  0  0  0
  158.8640  213.4830  150.2760 C   0  0  0  0  0  0  0  0  0  0  0  0
  159.7470  213.0740  151.3260 N   0  0  0  0  0  2  0  0  0  0  0  0
  157.5930  213.1970  150.3240 N   0  0  0  0  0  0  0  0  0  0  0  0
  158.4910  214.4530  148.0450 N   0  0  0  0  0  2  0  0  0  0  0  0
  156.6650  213.5780  149.3000 C   0  0  0  0  0  3  0  0  0  0  0  0
  161.0090  206.9770  154.2000 S   0  0  0  0  0  0  0  0  0  0  0  0
  160.8570  207.6260  152.5020 C   0  0  0  0  0  2  0  0  0  0  0  0
  162.5860  207.2240  150.6990 C   0  0  0  0  0  2  0  0  0  0  0  0
  161.6400  205.1950  151.8710 C   0  0  0  0  0  1  0  0  0  0  0  0
  161.4300  206.6530  151.4850 C   0  0  1  0  0  0  0  0  0  0  0  0
  161.2360  207.0240  150.0210 C   0  0  2  0  0  3  0  0  0  0  0  0
  161.2810  205.8950  149.2000 O   0  0  0  0  0  0  0  0  0  0  0  0
  160.4710  206.2180  148.1080 C   0  0  0  0  0  2  0  0  0  0  0  0
  160.4160  206.2170  145.7170 O   0  0  0  0  0  1  0  0  0  0  0  0
  161.2680  206.1130  146.8190 C   0  0  2  0  0  3  0  0  0  0  0  0
  162.0330  204.7990  146.7670 C   0  0  0  0  0  2  0  0  0  0  0  0
  161.6020  204.0160  145.6940 O   0  0  0  0  0  1  0  0  0  0  0  0
  1  3  1  0  0  0  0
  1  2  1  0  0  0  0
  2 21  1  6  0  0  0
  2  6  1  0  0  0  0
  3  4  1  0  0  0  0
  4  8  1  1  0  0  0
  4  5  1  0  0  0  0
  6  5  1  0  0  0  0
  7 10  2  0  0  0  0
  7  9  1  0  0  0  0
 10  8  2  0  0  0  0
 11  3  1  0  0  0  0
 12 14  2  0  0  0  0
 12 11  1  0  0  0  0
 13 20  2  0  0  0  0
 15 16  1  0  0  0  0
 16 18  2  0  0  0  0
 16 17  1  0  0  0  0
 17 12  1  0  0  0  0
 19 13  1  0  0  0  0
 19 15  1  0  0  0  0
 20 18  1  0  0  0  0
 22 21  1  0  0  0  0
 23 25  1  0  0  0  0
 25 24  1  1  0  0  0
 25 22  1  0  0  0  0
 26 27  1  6  0  0  0
 26 23  1  0  0  0  0
 26 25  1  0  0  0  0
 28 27  1  0  0  0  0
 30 29  1  6  0  0  0
 30 28  1  0  0  0  0
 31 30  1  0  0  0  0
 32 31  1  0  0  0  0
M  END
>  <MODEL>
5

>  <REMARK>
 VINA RESULT:      -6.5      2.684      4.607
  Name = 
  10 active torsions:
  status: ('A' for Active; 'I' for Inactive)
    1  A    between atoms: C_2  and  N_5
    2  A    between atoms: C_2  and  C_6
    3  A    between atoms: C_4  and  S_27
    4  A    between atoms: O_7  and  C_19
    5  A    between atoms: O_7  and  C_26
    6  A    between atoms: C_8  and  C_19
    7  A    between atoms: C_8  and  C_22
    8  A    between atoms: C_14  and  C_18
    9  A    between atoms: C_20  and  C_24
   10  A    between atoms: C_24  and  S_27
                            x       y       z     vdW  Elec       q    Type
                         _______ _______ _______ _____ _____    ______ ____

>  <TORSDO>
F 10

$$$$
=
 OpenBabel11062408323D

 32 34  0  0  1  0  0  0  0  0999 V2000
  160.3260  211.9730  151.9300 C   0  0  0  0  0  2  0  0  0  0  0  0
  161.0250  211.0940  152.9730 C   0  0  1  0  0  3  0  0  0  0  0  0
  159.0040  212.4660  152.3510 N   0  0  0  0  0  0  0  0  0  0  0  0
  158.9940  212.7790  153.7940 C   0  0  2  0  0  3  0  0  0  0  0  0
  159.2260  211.5110  154.6360 C   0  0  0  0  0  2  0  0  0  0  0  0
  160.0100  210.4360  153.8880 C   0  0  0  0  0  2  0  0  0  0  0  0
  155.6160  211.9130  154.7350 C   0  0  0  0  0  3  0  0  0  0  0  0
  157.6940  213.3990  154.2160 C   0  0  0  0  0  3  0  0  0  0  0  0
  155.6390  210.9870  155.8980 C   0  0  0  0  0  1  0  0  0  0  0  0
  156.6520  212.6570  154.4750 C   0  0  0  0  0  0  0  0  0  0  0  0
  158.8060  213.6990  151.5950 C   0  0  0  0  0  2  0  0  0  0  0  0
  158.4220  213.3740  150.1940 C   0  0  0  0  0  0  0  0  0  0  0  0
  158.6870  212.6920  145.0410 C   0  0  0  0  0  3  0  0  0  0  0  0
  157.2400  213.0200  149.9420 O   0  0  0  0  0  0  0  0  0  0  0  0
  160.3310  213.4420  146.8090 C   0  0  0  0  0  2  0  0  0  0  0  0
  159.1730  213.2630  147.7570 C   0  0  0  0  0  0  0  0  0  0  0  0
  159.3980  213.4980  149.1520 N   0  0  0  0  0  2  0  0  0  0  0  0
  157.9810  212.9790  147.3130 N   0  0  0  0  0  0  0  0  0  0  0  0
  160.0300  212.9250  145.4750 N   0  0  0  0  0  2  0  0  0  0  0  0
  157.6990  212.7310  145.9290 C   0  0  0  0  0  3  0  0  0  0  0  0
  162.0660  209.8510  152.1540 S   0  0  0  0  0  0  0  0  0  0  0  0
  160.8220  208.5270  152.3200 C   0  0  0  0  0  2  0  0  0  0  0  0
  162.5550  207.4290  150.8380 C   0  0  0  0  0  2  0  0  0  0  0  0
  161.1590  205.9180  152.3040 C   0  0  0  0  0  1  0  0  0  0  0  0
  161.2610  207.2620  151.5980 C   0  0  1  0  0  0  0  0  0  0  0  0
  161.2400  207.3180  150.0770 C   0  0  2  0  0  3  0  0  0  0  0  0
  161.1190  206.0420  149.5230 O   0  0  0  0  0  0  0  0  0  0  0  0
  160.3770  206.2310  148.3540 C   0  0  0  0  0  2  0  0  0  0  0  0
  160.5470  206.3410  145.9710 O   0  0  0  0  0  1  0  0  0  0  0  0
  161.2870  206.1560  147.1410 C   0  0  2  0  0  3  0  0  0  0  0  0
  162.0110  204.8170  147.0960 C   0  0  0  0  0  2  0  0  0  0  0  0
  163.1030  204.8740  146.2280 O   0  0  0  0  0  1  0  0  0  0  0  0
  1  3  1  0  0  0  0
  1  2  1  0  0  0  0
  2 21  1  6  0  0  0
  2  6  1  0  0  0  0
  3  4  1  0  0  0  0
  4  8  1  1  0  0  0
  4  5  1  0  0  0  0
  6  5  1  0  0  0  0
  7  9  1  0  0  0  0
  8 10  2  0  0  0  0
 10  7  2  0  0  0  0
 11  3  1  0  0  0  0
 12 11  1  0  0  0  0
 13 19  1  0  0  0  0
 13 20  2  0  0  0  0
 14 12  2  0  0  0  0
 15 16  1  0  0  0  0
 16 17  1  0  0  0  0
 17 12  1  0  0  0  0
 18 16  2  0  0  0  0
 19 15  1  0  0  0  0
 20 18  1  0  0  0  0
 21 22  1  0  0  0  0
 23 25  1  0  0  0  0
 25 24  1  1  0  0  0
 25 22  1  0  0  0  0
 26 27  1  6  0  0  0
 26 23  1  0  0  0  0
 26 25  1  0  0  0  0
 28 27  1  0  0  0  0
 30 29  1  6  0  0  0
 30 28  1  0  0  0  0
 31 30  1  0  0  0  0
 32 31  1  0  0  0  0
M  END
>  <MODEL>
6

>  <REMARK>
 VINA RESULT:      -6.5      3.496      5.690
  Name = 
  10 active torsions:
  status: ('A' for Active; 'I' for Inactive)
    1  A    between atoms: C_2  and  N_5
    2  A    between atoms: C_2  and  C_6
    3  A    between atoms: C_4  and  S_27
    4  A    between atoms: O_7  and  C_19
    5  A    between atoms: O_7  and  C_26
    6  A    between atoms: C_8  and  C_19
    7  A    between atoms: C_8  and  C_22
    8  A    between atoms: C_14  and  C_18
    9  A    between atoms: C_20  and  C_24
   10  A    between atoms: C_24  and  S_27
                            x       y       z     vdW  Elec       q    Type
                         _______ _______ _______ _____ _____    ______ ____

>  <TORSDO>
F 10

$$$$
=
 OpenBabel11062408323D

 32 34  0  0  1  0  0  0  0  0999 V2000
  161.2630  210.2970  151.6040 C   0  0  0  0  0  2  0  0  0  0  0  0
  161.8980  208.9130  151.4280 C   0  0  1  0  0  3  0  0  0  0  0  0
  160.5280  210.4620  152.8690 N   0  0  0  0  0  0  0  0  0  0  0  0
  161.2070  209.7500  153.9690 C   0  0  2  0  0  3  0  0  0  0  0  0
  161.2200  208.2310  153.7200 C   0  0  0  0  0  2  0  0  0  0  0  0
  161.1500  207.8710  152.2380 C   0  0  0  0  0  2  0  0  0  0  0  0
  159.4320  208.0660  156.6270 C   0  0  0  0  0  3  0  0  0  0  0  0
  160.5400  210.0100  155.2890 C   0  0  0  0  0  3  0  0  0  0  0  0
  160.2740  206.9740  157.1810 C   0  0  0  0  0  1  0  0  0  0  0  0
  159.9830  209.0390  155.9600 C   0  0  0  0  0  0  0  0  0  0  0  0
  160.5620  211.8970  153.1360 C   0  0  0  0  0  2  0  0  0  0  0  0
  159.1870  212.4590  153.0440 C   0  0  0  0  0  0  0  0  0  0  0  0
  154.5740  214.4530  154.4010 C   0  0  0  0  0  3  0  0  0  0  0  0
  158.6350  212.5650  151.9170 O   0  0  0  0  0  0  0  0  0  0  0  0
  156.6210  213.7080  155.6840 C   0  0  0  0  0  2  0  0  0  0  0  0
  157.1690  213.3560  154.3230 C   0  0  0  0  0  0  0  0  0  0  0  0
  158.5030  212.8420  154.2440 N   0  0  0  0  0  2  0  0  0  0  0  0
  156.4230  213.4430  153.2580 N   0  0  0  0  0  0  0  0  0  0  0  0
  155.3670  214.4530  155.5910 N   0  0  0  0  0  2  0  0  0  0  0  0
  155.0830  213.9530  153.2790 C   0  0  0  0  0  3  0  0  0  0  0  0
  161.9470  208.4600  149.6700 S   0  0  0  0  0  0  0  0  0  0  0  0
  162.2840  206.7000  150.0110 C   0  0  0  0  0  2  0  0  0  0  0  0
  160.5420  204.9100  150.4230 C   0  0  0  0  0  2  0  0  0  0  0  0
  160.2380  206.3770  148.3890 C   0  0  0  0  0  1  0  0  0  0  0  0
  161.2130  205.8050  149.4070 C   0  0  1  0  0  0  0  0  0  0  0  0
  161.5100  204.3110  149.4090 C   0  0  2  0  0  3  0  0  0  0  0  0
  160.7970  203.6500  148.4070 O   0  0  0  0  0  0  0  0  0  0  0  0
  161.7610  203.2990  147.4580 C   0  0  0  0  0  2  0  0  0  0  0  0
  160.9640  202.2820  145.4450 O   0  0  0  0  0  1  0  0  0  0  0  0
  161.2150  203.5120  146.0560 C   0  0  2  0  0  3  0  0  0  0  0  0
  162.1930  204.3240  145.2190 C   0  0  0  0  0  2  0  0  0  0  0  0
  162.3700  205.5990  145.7620 O   0  0  0  0  0  1  0  0  0  0  0  0
  1  3  1  0  0  0  0
  2 21  1  6  0  0  0
  2  1  1  0  0  0  0
  2  6  1  0  0  0  0
  3 11  1  0  0  0  0
  3  4  1  0  0  0  0
  4  8  1  1  0  0  0
  5  4  1  0  0  0  0
  6  5  1  0  0  0  0
  7  9  1  0  0  0  0
  8 10  2  0  0  0  0
 10  7  2  0  0  0  0
 12 11  1  0  0  0  0
 12 17  1  0  0  0  0
 13 19  1  0  0  0  0
 14 12  2  0  0  0  0
 16 15  1  0  0  0  0
 17 16  1  0  0  0  0
 18 20  1  0  0  0  0
 18 16  2  0  0  0  0
 19 15  1  0  0  0  0
 20 13  2  0  0  0  0
 21 22  1  0  0  0  0
 25 24  1  6  0  0  0
 25 26  1  0  0  0  0
 25 22  1  0  0  0  0
 25 23  1  0  0  0  0
 26 27  1  6  0  0  0
 26 23  1  0  0  0  0
 28 27  1  0  0  0  0
 30 29  1  6  0  0  0
 30 28  1  0  0  0  0
 31 32  1  0  0  0  0
 31 30  1  0  0  0  0
M  END
>  <MODEL>
7

>  <REMARK>
 VINA RESULT:      -6.4      1.511      2.051
  Name = 
  10 active torsions:
  status: ('A' for Active; 'I' for Inactive)
    1  A    between atoms: C_2  and  N_5
    2  A    between atoms: C_2  and  C_6
    3  A    between atoms: C_4  and  S_27
    4  A    between atoms: O_7  and  C_19
    5  A    between atoms: O_7  and  C_26
    6  A    between atoms: C_8  and  C_19
    7  A    between atoms: C_8  and  C_22
    8  A    between atoms: C_14  and  C_18
    9  A    between atoms: C_20  and  C_24
   10  A    between atoms: C_24  and  S_27
                            x       y       z     vdW  Elec       q    Type
                         _______ _______ _______ _____ _____    ______ ____

>  <TORSDO>
F 10

$$$$
=
 OpenBabel11062408323D

 32 34  0  0  1  0  0  0  0  0999 V2000
  161.3620  207.4540  150.1000 C   0  0  0  0  0  2  0  0  0  0  0  0
  161.5130  208.9700  150.2700 C   0  0  1  0  0  3  0  0  0  0  0  0
  161.4760  206.6970  151.3580 N   0  0  0  0  0  0  0  0  0  0  0  0
  160.8650  207.4400  152.4780 C   0  0  2  0  0  3  0  0  0  0  0  0
  161.6170  208.7560  152.7440 C   0  0  0  0  0  2  0  0  0  0  0  0
  162.3300  209.2940  151.5060 C   0  0  0  0  0  2  0  0  0  0  0  0
  161.1300  207.7820  156.0640 C   0  0  0  0  0  3  0  0  0  0  0  0
  160.8620  206.6290  153.7410 C   0  0  0  0  0  3  0  0  0  0  0  0
  160.0730  208.7020  156.5610 C   0  0  0  0  0  1  0  0  0  0  0  0
  160.9970  207.2050  154.9050 C   0  0  0  0  0  0  0  0  0  0  0  0
  160.7170  205.4720  151.1270 C   0  0  0  0  0  2  0  0  0  0  0  0
  161.0350  204.9290  149.7790 C   0  0  0  0  0  0  0  0  0  0  0  0
  161.3990  204.4770  144.6050 C   0  0  0  0  0  3  0  0  0  0  0  0
  161.5820  203.7990  149.6780 O   0  0  0  0  0  0  0  0  0  0  0  0
  160.4550  206.2320  146.1620 C   0  0  0  0  0  2  0  0  0  0  0  0
  160.8870  205.2870  147.2560 C   0  0  0  0  0  0  0  0  0  0  0  0
  160.6860  205.6900  148.6150 N   0  0  0  0  0  2  0  0  0  0  0  0
  161.3580  204.1060  146.9730 N   0  0  0  0  0  0  0  0  0  0  0  0
  160.9510  205.8130  144.8520 N   0  0  0  0  0  2  0  0  0  0  0  0
  161.5820  203.6520  145.6310 C   0  0  0  0  0  3  0  0  0  0  0  0
  162.2620  209.6990  148.7850 S   0  0  0  0  0  0  0  0  0  0  0  0
  161.8910  211.4110  149.2930 C   0  0  0  0  0  2  0  0  0  0  0  0
  161.5480  213.7560  148.4030 C   0  0  0  0  0  2  0  0  0  0  0  0
  163.5380  212.4640  147.5310 C   0  0  0  0  0  1  0  0  0  0  0  0
  162.1540  212.3930  148.1620 C   0  0  1  0  0  0  0  0  0  0  0  0
  160.9360  212.8300  147.3590 C   0  0  2  0  0  3  0  0  0  0  0  0
  161.2980  213.2550  146.0780 O   0  0  0  0  0  0  0  0  0  0  0  0
  160.4370  212.5670  145.2200 C   0  0  0  0  0  2  0  0  0  0  0  0
  160.3670  211.7830  142.9610 O   0  0  0  0  0  1  0  0  0  0  0  0
  160.8300  212.8190  143.7740 C   0  0  2  0  0  3  0  0  0  0  0  0
  162.3410  212.9520  143.6450 C   0  0  0  0  0  2  0  0  0  0  0  0
  162.6990  213.2820  142.3370 O   0  0  0  0  0  1  0  0  0  0  0  0
  1  2  1  0  0  0  0
  1  3  1  0  0  0  0
  2 21  1  6  0  0  0
  2  6  1  0  0  0  0
  3  4  1  0  0  0  0
  4  5  1  0  0  0  0
  4  8  1  1  0  0  0
  6  5  1  0  0  0  0
  7  9  1  0  0  0  0
  8 10  2  0  0  0  0
 10  7  2  0  0  0  0
 11  3  1  0  0  0  0
 12 11  1  0  0  0  0
 13 19  1  0  0  0  0
 13 20  2  0  0  0  0
 14 12  2  0  0  0  0
 15 16  1  0  0  0  0
 16 17  1  0  0  0  0
 17 12  1  0  0  0  0
 18 16  2  0  0  0  0
 19 15  1  0  0  0  0
 20 18  1  0  0  0  0
 21 22  1  0  0  0  0
 25 24  1  6  0  0  0
 25 23  1  0  0  0  0
 25 22  1  0  0  0  0
 26 27  1  6  0  0  0
 26 25  1  0  0  0  0
 26 23  1  0  0  0  0
 28 27  1  0  0  0  0
 30 29  1  6  0  0  0
 30 28  1  0  0  0  0
 31 30  1  0  0  0  0
 32 31  1  0  0  0  0
M  END
>  <MODEL>
8

>  <REMARK>
 VINA RESULT:      -6.2      4.677      8.443
  Name = 
  10 active torsions:
  status: ('A' for Active; 'I' for Inactive)
    1  A    between atoms: C_2  and  N_5
    2  A    between atoms: C_2  and  C_6
    3  A    between atoms: C_4  and  S_27
    4  A    between atoms: O_7  and  C_19
    5  A    between atoms: O_7  and  C_26
    6  A    between atoms: C_8  and  C_19
    7  A    between atoms: C_8  and  C_22
    8  A    between atoms: C_14  and  C_18
    9  A    between atoms: C_20  and  C_24
   10  A    between atoms: C_24  and  S_27
                            x       y       z     vdW  Elec       q    Type
                         _______ _______ _______ _____ _____    ______ ____

>  <TORSDO>
F 10

$$$$
=
 OpenBabel11062408323D

 32 34  0  0  1  0  0  0  0  0999 V2000
  161.8270  208.4110  150.3630 C   0  0  0  0  0  2  0  0  0  0  0  0
  162.1940  207.0850  149.6890 C   0  0  1  0  0  3  0  0  0  0  0  0
  161.0010  208.2600  151.5730 N   0  0  0  0  0  0  0  0  0  0  0  0
  161.3980  207.0600  152.3350 C   0  0  2  0  0  3  0  0  0  0  0  0
  161.1410  205.7780  151.5220 C   0  0  0  0  0  2  0  0  0  0  0  0
  161.1690  206.0150  150.0140 C   0  0  0  0  0  2  0  0  0  0  0  0
  161.5810  208.0760  155.7970 C   0  0  0  0  0  3  0  0  0  0  0  0
  160.6510  206.9590  153.6330 C   0  0  0  0  0  3  0  0  0  0  0  0
  161.6810  209.5570  155.8830 C   0  0  0  0  0  1  0  0  0  0  0  0
  161.1150  207.5160  154.7180 C   0  0  0  0  0  0  0  0  0  0  0  0
  161.2850  209.4490  152.3710 C   0  0  0  0  0  2  0  0  0  0  0  0
  161.0040  210.6720  151.5710 C   0  0  0  0  0  0  0  0  0  0  0  0
  161.2100  214.2490  147.7950 C   0  0  0  0  0  3  0  0  0  0  0  0
  160.1710  211.5140  151.9990 O   0  0  0  0  0  0  0  0  0  0  0  0
  162.4080  212.0650  148.2240 C   0  0  0  0  0  2  0  0  0  0  0  0
  161.5810  212.0240  149.4850 C   0  0  0  0  0  0  0  0  0  0  0  0
  161.7090  210.8840  150.3410 N   0  0  0  0  0  2  0  0  0  0  0  0
  160.8290  213.0330  149.8250 N   0  0  0  0  0  0  0  0  0  0  0  0
  161.9890  213.1440  147.3310 N   0  0  0  0  0  2  0  0  0  0  0  0
  160.6610  214.1970  149.0050 C   0  0  0  0  0  3  0  0  0  0  0  0
  162.3500  207.3120  147.8940 S   0  0  0  0  0  0  0  0  0  0  0  0
  161.1180  206.0240  147.5030 C   0  0  0  0  0  2  0  0  0  0  0  0
  161.0650  205.3680  145.0600 C   0  0  0  0  0  2  0  0  0  0  0  0
  163.1050  204.7030  146.3950 C   0  0  0  0  0  1  0  0  0  0  0  0
  161.6300  205.0770  146.4300 C   0  0  1  0  0  0  0  0  0  0  0  0
  160.5990  204.1350  145.8230 C   0  0  2  0  0  3  0  0  0  0  0  0
  161.2050  202.9920  145.2930 O   0  0  0  0  0  0  0  0  0  0  0  0
  160.4730  201.9250  145.8210 C   0  0  0  0  0  2  0  0  0  0  0  0
  161.4320  199.9450  146.7590 O   0  0  0  0  0  1  0  0  0  0  0  0
  161.2220  201.3070  146.9890 C   0  0  2  0  0  3  0  0  0  0  0  0
  160.4520  201.5060  148.2860 C   0  0  0  0  0  2  0  0  0  0  0  0
  160.8310  202.6970  148.9090 O   0  0  0  0  0  1  0  0  0  0  0  0
  1  3  1  0  0  0  0
  2 21  1  6  0  0  0
  2  6  1  0  0  0  0
  2  1  1  0  0  0  0
  3  4  1  0  0  0  0
  3 11  1  0  0  0  0
  4  8  1  1  0  0  0
  5  4  1  0  0  0  0
  6  5  1  0  0  0  0
  7  9  1  0  0  0  0
  8 10  2  0  0  0  0
 10  7  2  0  0  0  0
 12 14  2  0  0  0  0
 12 11  1  0  0  0  0
 13 20  2  0  0  0  0
 15 16  1  0  0  0  0
 16 18  2  0  0  0  0
 16 17  1  0  0  0  0
 17 12  1  0  0  0  0
 19 13  1  0  0  0  0
 19 15  1  0  0  0  0
 20 18  1  0  0  0  0
 22 21  1  0  0  0  0
 23 26  1  0  0  0  0
 23 25  1  0  0  0  0
 25 24  1  1  0  0  0
 25 22  1  0  0  0  0
 26 27  1  6  0  0  0
 26 25  1  0  0  0  0
 27 28  1  0  0  0  0
 28 30  1  0  0  0  0
 30 29  1  6  0  0  0
 30 31  1  0  0  0  0
 31 32  1  0  0  0  0
M  END
>  <MODEL>
9

>  <REMARK>
 VINA RESULT:      -6.2      2.972      3.856
  Name = 
  10 active torsions:
  status: ('A' for Active; 'I' for Inactive)
    1  A    between atoms: C_2  and  N_5
    2  A    between atoms: C_2  and  C_6
    3  A    between atoms: C_4  and  S_27
    4  A    between atoms: O_7  and  C_19
    5  A    between atoms: O_7  and  C_26
    6  A    between atoms: C_8  and  C_19
    7  A    between atoms: C_8  and  C_22
    8  A    between atoms: C_14  and  C_18
    9  A    between atoms: C_20  and  C_24
   10  A    between atoms: C_24  and  S_27
                            x       y       z     vdW  Elec       q    Type
                         _______ _______ _______ _____ _____    ______ ____

>  <TORSDO>
F 10

$$$$
