=
 OpenBabel11052422173D

 25 27  0  0  0  0  0  0  0  0999 V2000
  161.0020  202.1540  147.7330 N   0  0  0  0  0  0  0  0  0  0  0  0
  160.9380  203.0950  148.6850 C   0  0  0  0  0  0  0  0  0  0  0  0
  161.1480  200.9910  148.4210 C   0  0  0  0  0  3  0  0  0  0  0  0
  161.1970  201.1810  149.7700 N   0  0  0  0  0  0  0  0  0  0  0  0
  160.9800  203.2680  151.0710 C   0  0  0  0  0  0  0  0  0  0  0  0
  161.1030  202.6490  152.4190 C   0  0  0  0  0  1  0  0  0  0  0  0
  160.6970  204.4220  148.5290 N   0  0  0  0  0  0  0  0  0  0  0  0
  160.8460  202.2840  146.3110 C   0  0  0  0  0  0  0  0  0  0  0  0
  160.2780  201.3580  145.6710 O   0  0  0  0  0  0  0  0  0  0  0  0
  160.7570  204.6500  150.9330 C   0  0  0  0  0  3  0  0  0  0  0  0
  160.6210  205.2140  149.6420 C   0  0  0  0  0  0  0  0  0  0  0  0
  161.0600  202.5130  149.9040 C   0  0  0  0  0  0  0  0  0  0  0  0
  161.3590  203.4580  145.5750 C   0  0  0  0  0  0  0  0  0  0  0  0
  162.3160  205.6980  144.2530 N   0  0  0  0  0  0  0  0  0  0  0  0
  162.6430  203.9480  145.8440 C   0  0  0  0  0  3  0  0  0  0  0  0
  163.1100  205.0750  145.1640 C   0  0  0  0  0  3  0  0  0  0  0  0
  161.0610  205.2530  143.9820 C   0  0  0  0  0  3  0  0  0  0  0  0
  160.5590  204.1290  144.6420 C   0  0  0  0  0  3  0  0  0  0  0  0
  160.3550  206.6700  149.4960 C   0  0  0  0  0  2  0  0  0  0  0  0
  161.4450  207.3120  148.6580 C   0  0  0  0  0  2  0  0  0  0  0  0
  161.9730  208.5200  149.3510 C   0  0  0  0  0  0  0  0  0  0  0  0
  162.0970  209.5980  148.7100 O   0  0  0  0  0  0  0  0  0  0  0  0
  162.3730  208.4500  150.7610 C   0  0  0  0  0  0  0  0  0  0  0  0
  162.8700  207.2970  151.2730 F   0  0  0  0  0  0  0  0  0  0  0  0
  162.2580  209.4580  151.5060 O   0  0  0  0  0  0  0  0  0  0  0  0
  1  3  1  0  0  0  0
  1  2  1  0  0  0  0
  2 12  1  0  0  0  0
  3  4  2  0  0  0  0
  4 12  1  0  0  0  0
  5  6  1  0  0  0  0
  7  2  2  0  0  0  0
  7 11  1  0  0  0  0
  8  1  1  0  0  0  0
  9  8  2  0  0  0  0
 10  5  1  0  0  0  0
 11 10  2  0  0  0  0
 12  5  2  0  0  0  0
 13 15  1  0  0  0  0
 13  8  1  0  0  0  0
 14 16  1  0  0  0  0
 16 15  2  0  0  0  0
 17 14  2  0  0  0  0
 17 18  1  0  0  0  0
 18 13  2  0  0  0  0
 19 11  1  0  0  0  0
 20 21  1  0  0  0  0
 20 19  1  0  0  0  0
 21 23  1  0  0  0  0
 22 21  2  0  0  0  0
 23 24  1  0  0  0  0
 23 25  2  0  0  0  0
M  END
>  <MODEL>
1

>  <REMARK>
 VINA RESULT:      -7.9      0.000      0.000
  Name = 
  5 active torsions:
  status: ('A' for Active; 'I' for Inactive)
    1  A    between atoms: C_2  and  C_21
    2  A    between atoms: C_5  and  C_18
    3  A    between atoms: C_6  and  C_15
    4  A    between atoms: C_6  and  C_23
    5  A    between atoms: C_15  and  C_21
                            x       y       z     vdW  Elec       q    Type
                         _______ _______ _______ _____ _____    ______ ____

>  <TORSDO>
F 5

$$$$
=
 OpenBabel11052422173D

 25 27  0  0  0  0  0  0  0  0999 V2000
  161.9510  207.4830  149.7650 N   0  0  0  0  0  0  0  0  0  0  0  0
  161.5900  206.4510  150.5390 C   0  0  0  0  0  0  0  0  0  0  0  0
  161.9000  208.5580  150.5950 C   0  0  0  0  0  3  0  0  0  0  0  0
  161.5010  208.2290  151.8560 N   0  0  0  0  0  0  0  0  0  0  0  0
  160.9590  206.0150  152.8050 C   0  0  0  0  0  0  0  0  0  0  0  0
  160.6610  206.4830  154.1860 C   0  0  0  0  0  1  0  0  0  0  0  0
  161.5730  205.1330  150.2130 N   0  0  0  0  0  0  0  0  0  0  0  0
  162.4010  207.4860  148.4010 C   0  0  0  0  0  0  0  0  0  0  0  0
  163.2860  208.3140  148.0500 O   0  0  0  0  0  0  0  0  0  0  0  0
  160.9090  204.6470  152.4840 C   0  0  0  0  0  3  0  0  0  0  0  0
  161.2180  204.2220  151.1700 C   0  0  0  0  0  0  0  0  0  0  0  0
  161.3150  206.8970  151.7890 C   0  0  0  0  0  0  0  0  0  0  0  0
  161.8350  206.5680  147.3910 C   0  0  0  0  0  0  0  0  0  0  0  0
  160.8190  204.8700  145.4500 N   0  0  0  0  0  0  0  0  0  0  0  0
  162.5760  205.4620  146.9550 C   0  0  0  0  0  3  0  0  0  0  0  0
  162.0450  204.6150  145.9800 C   0  0  0  0  0  3  0  0  0  0  0  0
  160.0850  205.9430  145.8440 C   0  0  0  0  0  3  0  0  0  0  0  0
  160.5820  206.8140  146.8170 C   0  0  0  0  0  3  0  0  0  0  0  0
  161.1940  202.7720  150.8370 C   0  0  0  0  0  2  0  0  0  0  0  0
  161.5580  202.5710  149.3770 C   0  0  0  0  0  2  0  0  0  0  0  0
  160.6040  201.6190  148.7430 C   0  0  0  0  0  0  0  0  0  0  0  0
  159.5010  201.3820  149.3030 O   0  0  0  0  0  0  0  0  0  0  0  0
  160.9560  200.9410  147.4900 C   0  0  0  0  0  0  0  0  0  0  0  0
  161.6320  199.7650  147.5180 F   0  0  0  0  0  0  0  0  0  0  0  0
  160.6340  201.4440  146.3820 O   0  0  0  0  0  0  0  0  0  0  0  0
  1  2  1  0  0  0  0
  1  3  1  0  0  0  0
  2 12  1  0  0  0  0
  3  4  2  0  0  0  0
  5  6  1  0  0  0  0
  7  2  2  0  0  0  0
  7 11  1  0  0  0  0
  8  1  1  0  0  0  0
  9  8  2  0  0  0  0
 10  5  1  0  0  0  0
 11 10  2  0  0  0  0
 12  4  1  0  0  0  0
 12  5  2  0  0  0  0
 13  8  1  0  0  0  0
 14 17  2  0  0  0  0
 14 16  1  0  0  0  0
 15 13  1  0  0  0  0
 16 15  2  0  0  0  0
 17 18  1  0  0  0  0
 18 13  2  0  0  0  0
 19 11  1  0  0  0  0
 20 19  1  0  0  0  0
 21 22  2  0  0  0  0
 21 20  1  0  0  0  0
 23 24  1  0  0  0  0
 23 21  1  0  0  0  0
 25 23  2  0  0  0  0
M  END
>  <MODEL>
2

>  <REMARK>
 VINA RESULT:      -7.8      2.733      5.526
  Name = 
  5 active torsions:
  status: ('A' for Active; 'I' for Inactive)
    1  A    between atoms: C_2  and  C_21
    2  A    between atoms: C_5  and  C_18
    3  A    between atoms: C_6  and  C_15
    4  A    between atoms: C_6  and  C_23
    5  A    between atoms: C_15  and  C_21
                            x       y       z     vdW  Elec       q    Type
                         _______ _______ _______ _____ _____    ______ ____

>  <TORSDO>
F 5

$$$$
=
 OpenBabel11052422173D

 25 27  0  0  0  0  0  0  0  0999 V2000
  161.3100  205.0530  152.1380 N   0  0  0  0  0  0  0  0  0  0  0  0
  161.2670  204.7360  150.8360 C   0  0  0  0  0  0  0  0  0  0  0  0
  160.8890  203.9270  152.7710 C   0  0  0  0  0  3  0  0  0  0  0  0
  160.5670  202.9260  151.9040 N   0  0  0  0  0  0  0  0  0  0  0  0
  160.7210  202.8710  149.4400 C   0  0  0  0  0  0  0  0  0  0  0  0
  160.2370  201.4750  149.2640 C   0  0  0  0  0  1  0  0  0  0  0  0
  161.6810  205.4860  149.7830 N   0  0  0  0  0  0  0  0  0  0  0  0
  161.7880  206.2520  152.7680 C   0  0  0  0  0  0  0  0  0  0  0  0
  162.3770  206.1660  153.8790 O   0  0  0  0  0  0  0  0  0  0  0  0
  161.1200  203.6390  148.3310 C   0  0  0  0  0  3  0  0  0  0  0  0
  161.5970  204.9570  148.5240 C   0  0  0  0  0  0  0  0  0  0  0  0
  160.8170  203.4650  150.6960 C   0  0  0  0  0  0  0  0  0  0  0  0
  161.5810  207.5850  152.1650 C   0  0  0  0  0  0  0  0  0  0  0  0
  161.2560  210.1060  151.0600 N   0  0  0  0  0  0  0  0  0  0  0  0
  162.3490  207.9830  151.0630 C   0  0  0  0  0  3  0  0  0  0  0  0
  162.1670  209.2550  150.5170 C   0  0  0  0  0  3  0  0  0  0  0  0
  160.5070  209.7510  152.1370 C   0  0  0  0  0  3  0  0  0  0  0  0
  160.6600  208.4880  152.7110 C   0  0  0  0  0  3  0  0  0  0  0  0
  162.0470  205.7590  147.3550 C   0  0  0  0  0  2  0  0  0  0  0  0
  162.6460  204.8450  146.3010 C   0  0  0  0  0  2  0  0  0  0  0  0
  161.6180  204.5090  145.2770 C   0  0  0  0  0  0  0  0  0  0  0  0
  161.3100  203.3030  145.0820 O   0  0  0  0  0  0  0  0  0  0  0  0
  160.9890  205.5690  144.4810 C   0  0  0  0  0  0  0  0  0  0  0  0
  159.9460  206.2740  144.9870 F   0  0  0  0  0  0  0  0  0  0  0  0
  161.4110  205.8310  143.3250 O   0  0  0  0  0  0  0  0  0  0  0  0
  1  8  1  0  0  0  0
  1  3  1  0  0  0  0
  2  1  1  0  0  0  0
  4  3  2  0  0  0  0
  5 12  2  0  0  0  0
  6  5  1  0  0  0  0
  7  2  2  0  0  0  0
  8  9  2  0  0  0  0
 10 11  2  0  0  0  0
 10  5  1  0  0  0  0
 11  7  1  0  0  0  0
 12  2  1  0  0  0  0
 12  4  1  0  0  0  0
 13 18  1  0  0  0  0
 13  8  1  0  0  0  0
 14 17  1  0  0  0  0
 15 13  2  0  0  0  0
 16 14  2  0  0  0  0
 16 15  1  0  0  0  0
 17 18  2  0  0  0  0
 19 11  1  0  0  0  0
 20 19  1  0  0  0  0
 21 20  1  0  0  0  0
 22 21  2  0  0  0  0
 23 24  1  0  0  0  0
 23 21  1  0  0  0  0
 25 23  2  0  0  0  0
M  END
>  <MODEL>
3

>  <REMARK>
 VINA RESULT:      -7.6      2.840      6.102
  Name = 
  5 active torsions:
  status: ('A' for Active; 'I' for Inactive)
    1  A    between atoms: C_2  and  C_21
    2  A    between atoms: C_5  and  C_18
    3  A    between atoms: C_6  and  C_15
    4  A    between atoms: C_6  and  C_23
    5  A    between atoms: C_15  and  C_21
                            x       y       z     vdW  Elec       q    Type
                         _______ _______ _______ _____ _____    ______ ____

>  <TORSDO>
F 5

$$$$
=
 OpenBabel11052422173D

 25 27  0  0  0  0  0  0  0  0999 V2000
  161.0540  208.0930  153.6590 N   0  0  0  0  0  0  0  0  0  0  0  0
  161.0740  207.4810  152.4680 C   0  0  0  0  0  0  0  0  0  0  0  0
  161.0850  207.0760  154.5590 C   0  0  0  0  0  3  0  0  0  0  0  0
  161.1050  205.8490  153.9660 N   0  0  0  0  0  0  0  0  0  0  0  0
  161.1710  205.2660  151.5670 C   0  0  0  0  0  0  0  0  0  0  0  0
  161.2080  203.7890  151.7450 C   0  0  0  0  0  1  0  0  0  0  0  0
  161.1540  208.0530  151.2390 N   0  0  0  0  0  0  0  0  0  0  0  0
  161.1000  209.4970  153.9630 C   0  0  0  0  0  0  0  0  0  0  0  0
  161.7250  209.8800  154.9890 O   0  0  0  0  0  0  0  0  0  0  0  0
  161.2280  205.8370  150.2830 C   0  0  0  0  0  3  0  0  0  0  0  0
  161.2140  207.2440  150.1370 C   0  0  0  0  0  0  0  0  0  0  0  0
  161.1000  206.1380  152.6500 C   0  0  0  0  0  0  0  0  0  0  0  0
  160.4100  210.4990  153.1250 C   0  0  0  0  0  0  0  0  0  0  0  0
  159.1540  212.4300  151.5830 N   0  0  0  0  0  0  0  0  0  0  0  0
  161.1020  211.1440  152.0920 C   0  0  0  0  0  3  0  0  0  0  0  0
  160.4500  212.1100  151.3220 C   0  0  0  0  0  3  0  0  0  0  0  0
  158.4640  211.8300  152.5880 C   0  0  0  0  0  3  0  0  0  0  0  0
  159.0810  210.8580  153.3790 C   0  0  0  0  0  3  0  0  0  0  0  0
  161.3030  207.8480  148.7810 C   0  0  0  0  0  2  0  0  0  0  0  0
  162.4190  207.1870  147.9930 C   0  0  0  0  0  2  0  0  0  0  0  0
  161.8450  206.2360  147.0010 C   0  0  0  0  0  0  0  0  0  0  0  0
  160.8030  206.5550  146.3690 O   0  0  0  0  0  0  0  0  0  0  0  0
  162.4700  204.9270  146.7800 C   0  0  0  0  0  0  0  0  0  0  0  0
  162.0670  203.8490  147.4970 F   0  0  0  0  0  0  0  0  0  0  0  0
  163.3850  204.7950  145.9260 O   0  0  0  0  0  0  0  0  0  0  0  0
  1  8  1  0  0  0  0
  1  3  1  0  0  0  0
  2 12  1  0  0  0  0
  2  1  1  0  0  0  0
  4  3  2  0  0  0  0
  5  6  1  0  0  0  0
  5 12  2  0  0  0  0
  7  2  2  0  0  0  0
  8  9  2  0  0  0  0
 10  5  1  0  0  0  0
 11 10  2  0  0  0  0
 11  7  1  0  0  0  0
 12  4  1  0  0  0  0
 13 18  1  0  0  0  0
 13  8  1  0  0  0  0
 14 17  1  0  0  0  0
 15 13  2  0  0  0  0
 16 14  2  0  0  0  0
 16 15  1  0  0  0  0
 17 18  2  0  0  0  0
 19 11  1  0  0  0  0
 20 19  1  0  0  0  0
 21 20  1  0  0  0  0
 22 21  2  0  0  0  0
 23 21  1  0  0  0  0
 23 24  1  0  0  0  0
 25 23  2  0  0  0  0
M  END
>  <MODEL>
4

>  <REMARK>
 VINA RESULT:      -7.3      3.973      7.313
  Name = 
  5 active torsions:
  status: ('A' for Active; 'I' for Inactive)
    1  A    between atoms: C_2  and  C_21
    2  A    between atoms: C_5  and  C_18
    3  A    between atoms: C_6  and  C_15
    4  A    between atoms: C_6  and  C_23
    5  A    between atoms: C_15  and  C_21
                            x       y       z     vdW  Elec       q    Type
                         _______ _______ _______ _____ _____    ______ ____

>  <TORSDO>
F 5

$$$$
=
 OpenBabel11052422173D

 25 27  0  0  0  0  0  0  0  0999 V2000
  160.9530  209.7300  152.6060 N   0  0  0  0  0  0  0  0  0  0  0  0
  161.1990  208.5700  151.9820 C   0  0  0  0  0  0  0  0  0  0  0  0
  161.3170  210.6790  151.7050 C   0  0  0  0  0  3  0  0  0  0  0  0
  161.8010  210.1470  150.5480 N   0  0  0  0  0  0  0  0  0  0  0  0
  162.0140  207.7800  149.8760 C   0  0  0  0  0  0  0  0  0  0  0  0
  162.5700  208.0310  148.5180 C   0  0  0  0  0  1  0  0  0  0  0  0
  160.9170  207.3150  152.4170 N   0  0  0  0  0  0  0  0  0  0  0  0
  160.3430  209.9650  153.8860 C   0  0  0  0  0  0  0  0  0  0  0  0
  159.6000  210.9730  154.0330 O   0  0  0  0  0  0  0  0  0  0  0  0
  161.7550  206.4700  150.3150 C   0  0  0  0  0  3  0  0  0  0  0  0
  161.2050  206.2550  151.6010 C   0  0  0  0  0  0  0  0  0  0  0  0
  161.7120  208.8190  150.7520 C   0  0  0  0  0  0  0  0  0  0  0  0
  160.5860  209.0760  155.0400 C   0  0  0  0  0  0  0  0  0  0  0  0
  160.9960  207.4440  157.2430 N   0  0  0  0  0  0  0  0  0  0  0  0
  159.6030  208.1620  155.4400 C   0  0  0  0  0  3  0  0  0  0  0  0
  159.8300  207.3440  156.5500 C   0  0  0  0  0  3  0  0  0  0  0  0
  161.9610  208.3320  156.8860 C   0  0  0  0  0  3  0  0  0  0  0  0
  161.7710  209.1660  155.7820 C   0  0  0  0  0  3  0  0  0  0  0  0
  160.9030  204.8710  152.0550 C   0  0  0  0  0  2  0  0  0  0  0  0
  160.4620  204.0250  150.8740 C   0  0  0  0  0  2  0  0  0  0  0  0
  161.0600  202.6650  150.9740 C   0  0  0  0  0  0  0  0  0  0  0  0
  161.8630  202.4080  151.9100 O   0  0  0  0  0  0  0  0  0  0  0  0
  160.7400  201.6390  149.9740 C   0  0  0  0  0  0  0  0  0  0  0  0
  161.5820  200.5930  149.7770 F   0  0  0  0  0  0  0  0  0  0  0  0
  159.6850  201.7210  149.2940 O   0  0  0  0  0  0  0  0  0  0  0  0
  1  8  1  0  0  0  0
  2  7  1  0  0  0  0
  2  1  1  0  0  0  0
  3  1  1  0  0  0  0
  4 12  1  0  0  0  0
  4  3  2  0  0  0  0
  5 10  2  0  0  0  0
  5 12  1  0  0  0  0
  6  5  1  0  0  0  0
  8  9  2  0  0  0  0
  8 13  1  0  0  0  0
 10 11  1  0  0  0  0
 11 19  1  0  0  0  0
 11  7  2  0  0  0  0
 12  2  2  0  0  0  0
 13 15  2  0  0  0  0
 13 18  1  0  0  0  0
 15 16  1  0  0  0  0
 16 14  2  0  0  0  0
 17 14  1  0  0  0  0
 18 17  2  0  0  0  0
 20 21  1  0  0  0  0
 20 19  1  0  0  0  0
 21 22  2  0  0  0  0
 23 21  1  0  0  0  0
 24 23  1  0  0  0  0
 25 23  2  0  0  0  0
M  END
>  <MODEL>
5

>  <REMARK>
 VINA RESULT:      -7.2      4.495      8.753
  Name = 
  5 active torsions:
  status: ('A' for Active; 'I' for Inactive)
    1  A    between atoms: C_2  and  C_21
    2  A    between atoms: C_5  and  C_18
    3  A    between atoms: C_6  and  C_15
    4  A    between atoms: C_6  and  C_23
    5  A    between atoms: C_15  and  C_21
                            x       y       z     vdW  Elec       q    Type
                         _______ _______ _______ _____ _____    ______ ____

>  <TORSDO>
F 5

$$$$
=
 OpenBabel11052422173D

 25 27  0  0  0  0  0  0  0  0999 V2000
  160.9930  204.4110  146.5410 N   0  0  0  0  0  0  0  0  0  0  0  0
  161.0660  203.5040  147.5250 C   0  0  0  0  0  0  0  0  0  0  0  0
  161.0870  203.6770  145.4020 C   0  0  0  0  0  3  0  0  0  0  0  0
  161.2340  202.3440  145.6450 N   0  0  0  0  0  0  0  0  0  0  0  0
  161.2700  201.1360  147.7990 C   0  0  0  0  0  0  0  0  0  0  0  0
  161.4250  199.7680  147.2310 C   0  0  0  0  0  1  0  0  0  0  0  0
  160.9250  203.7110  148.8590 N   0  0  0  0  0  0  0  0  0  0  0  0
  160.7610  205.8260  146.6220 C   0  0  0  0  0  0  0  0  0  0  0  0
  160.0810  206.3870  145.7200 O   0  0  0  0  0  0  0  0  0  0  0  0
  161.1520  201.3290  149.1870 C   0  0  0  0  0  3  0  0  0  0  0  0
  160.9830  202.6350  149.7030 C   0  0  0  0  0  0  0  0  0  0  0  0
  161.2150  202.2670  146.9890 C   0  0  0  0  0  0  0  0  0  0  0  0
  161.3220  206.6470  147.7140 C   0  0  0  0  0  0  0  0  0  0  0  0
  162.3290  208.2390  149.7480 N   0  0  0  0  0  0  0  0  0  0  0  0
  160.5630  206.8950  148.8660 C   0  0  0  0  0  3  0  0  0  0  0  0
  161.0900  207.6950  149.8820 C   0  0  0  0  0  3  0  0  0  0  0  0
  163.0810  208.0270  148.6360 C   0  0  0  0  0  3  0  0  0  0  0  0
  162.5890  207.2320  147.5980 C   0  0  0  0  0  3  0  0  0  0  0  0
  160.8290  202.8370  151.1680 C   0  0  0  0  0  2  0  0  0  0  0  0
  160.4050  204.2660  151.4520 C   0  0  0  0  0  2  0  0  0  0  0  0
  161.5330  205.0160  152.0720 C   0  0  0  0  0  0  0  0  0  0  0  0
  162.7030  204.8460  151.6380 O   0  0  0  0  0  0  0  0  0  0  0  0
  161.2890  205.9250  153.1980 C   0  0  0  0  0  0  0  0  0  0  0  0
  160.8320  205.4390  154.3800 F   0  0  0  0  0  0  0  0  0  0  0  0
  161.5010  207.1590  153.0770 O   0  0  0  0  0  0  0  0  0  0  0  0
  1  8  1  0  0  0  0
  1  2  1  0  0  0  0
  2  7  1  0  0  0  0
  3  4  2  0  0  0  0
  3  1  1  0  0  0  0
  4 12  1  0  0  0  0
  5 10  2  0  0  0  0
  6  5  1  0  0  0  0
  7 11  2  0  0  0  0
  8 13  1  0  0  0  0
  9  8  2  0  0  0  0
 10 11  1  0  0  0  0
 11 19  1  0  0  0  0
 12  2  2  0  0  0  0
 12  5  1  0  0  0  0
 13 15  1  0  0  0  0
 14 16  1  0  0  0  0
 15 16  2  0  0  0  0
 17 14  2  0  0  0  0
 18 13  2  0  0  0  0
 18 17  1  0  0  0  0
 19 20  1  0  0  0  0
 20 21  1  0  0  0  0
 21 23  1  0  0  0  0
 22 21  2  0  0  0  0
 23 24  1  0  0  0  0
 25 23  2  0  0  0  0
M  END
>  <MODEL>
6

>  <REMARK>
 VINA RESULT:      -7.0      2.275      4.246
  Name = 
  5 active torsions:
  status: ('A' for Active; 'I' for Inactive)
    1  A    between atoms: C_2  and  C_21
    2  A    between atoms: C_5  and  C_18
    3  A    between atoms: C_6  and  C_15
    4  A    between atoms: C_6  and  C_23
    5  A    between atoms: C_15  and  C_21
                            x       y       z     vdW  Elec       q    Type
                         _______ _______ _______ _____ _____    ______ ____

>  <TORSDO>
F 5

$$$$
=
 OpenBabel11052422173D

 25 27  0  0  0  0  0  0  0  0999 V2000
  161.7650  206.3910  149.4570 N   0  0  0  0  0  0  0  0  0  0  0  0
  161.4460  205.1290  149.7760 C   0  0  0  0  0  0  0  0  0  0  0  0
  161.6430  207.0720  150.6260 C   0  0  0  0  0  3  0  0  0  0  0  0
  161.2410  206.2780  151.6580 N   0  0  0  0  0  0  0  0  0  0  0  0
  160.8010  203.8490  151.6910 C   0  0  0  0  0  0  0  0  0  0  0  0
  160.4550  203.7520  153.1360 C   0  0  0  0  0  1  0  0  0  0  0  0
  161.5030  204.0300  148.9800 N   0  0  0  0  0  0  0  0  0  0  0  0
  162.2370  206.9240  148.2090 C   0  0  0  0  0  0  0  0  0  0  0  0
  163.0830  207.8590  148.2250 O   0  0  0  0  0  0  0  0  0  0  0  0
  160.8280  202.7000  150.8800 C   0  0  0  0  0  3  0  0  0  0  0  0
  161.1810  202.8120  149.5150 C   0  0  0  0  0  0  0  0  0  0  0  0
  161.1270  205.0620  151.0920 C   0  0  0  0  0  0  0  0  0  0  0  0
  161.7370  206.4280  146.9110 C   0  0  0  0  0  0  0  0  0  0  0  0
  160.8360  205.5480  144.4410 N   0  0  0  0  0  0  0  0  0  0  0  0
  162.6050  205.7700  146.0300 C   0  0  0  0  0  3  0  0  0  0  0  0
  162.1310  205.3290  144.7930 C   0  0  0  0  0  3  0  0  0  0  0  0
  159.9760  206.1970  145.2700 C   0  0  0  0  0  3  0  0  0  0  0  0
  160.4120  206.6520  146.5160 C   0  0  0  0  0  3  0  0  0  0  0  0
  161.2380  201.5940  148.6630 C   0  0  0  0  0  2  0  0  0  0  0  0
  161.2870  201.9880  147.1990 C   0  0  0  0  0  2  0  0  0  0  0  0
  160.8930  200.8310  146.3480 C   0  0  0  0  0  0  0  0  0  0  0  0
  161.2820  199.6740  146.6570 O   0  0  0  0  0  0  0  0  0  0  0  0
  160.0800  201.0390  145.1440 C   0  0  0  0  0  0  0  0  0  0  0  0
  159.3660  200.0130  144.6170 F   0  0  0  0  0  0  0  0  0  0  0  0
  160.0410  202.1680  144.5900 O   0  0  0  0  0  0  0  0  0  0  0  0
  1  2  1  0  0  0  0
  1  3  1  0  0  0  0
  2 12  1  0  0  0  0
  3  4  2  0  0  0  0
  5  6  1  0  0  0  0
  7 11  1  0  0  0  0
  7  2  2  0  0  0  0
  8  9  2  0  0  0  0
  8  1  1  0  0  0  0
 10  5  1  0  0  0  0
 11 10  2  0  0  0  0
 12  4  1  0  0  0  0
 12  5  2  0  0  0  0
 13  8  1  0  0  0  0
 14 16  2  0  0  0  0
 14 17  1  0  0  0  0
 15 13  2  0  0  0  0
 16 15  1  0  0  0  0
 17 18  2  0  0  0  0
 18 13  1  0  0  0  0
 19 11  1  0  0  0  0
 20 19  1  0  0  0  0
 21 22  2  0  0  0  0
 21 20  1  0  0  0  0
 23 21  1  0  0  0  0
 24 23  1  0  0  0  0
 25 23  2  0  0  0  0
M  END
>  <MODEL>
7

>  <REMARK>
 VINA RESULT:      -7.0      2.672      5.561
  Name = 
  5 active torsions:
  status: ('A' for Active; 'I' for Inactive)
    1  A    between atoms: C_2  and  C_21
    2  A    between atoms: C_5  and  C_18
    3  A    between atoms: C_6  and  C_15
    4  A    between atoms: C_6  and  C_23
    5  A    between atoms: C_15  and  C_21
                            x       y       z     vdW  Elec       q    Type
                         _______ _______ _______ _____ _____    ______ ____

>  <TORSDO>
F 5

$$$$
=
 OpenBabel11052422173D

 25 27  0  0  0  0  0  0  0  0999 V2000
  160.8850  203.2440  150.2460 N   0  0  0  0  0  0  0  0  0  0  0  0
  161.0460  204.5540  150.4790 C   0  0  0  0  0  0  0  0  0  0  0  0
  160.9770  202.6710  151.4750 C   0  0  0  0  0  3  0  0  0  0  0  0
  161.2100  203.5810  152.4630 N   0  0  0  0  0  0  0  0  0  0  0  0
  161.3950  206.0400  152.3220 C   0  0  0  0  0  0  0  0  0  0  0  0
  161.6070  206.2840  153.7750 C   0  0  0  0  0  1  0  0  0  0  0  0
  160.9430  205.5760  149.5920 N   0  0  0  0  0  0  0  0  0  0  0  0
  160.5750  202.5690  149.0170 C   0  0  0  0  0  0  0  0  0  0  0  0
  159.8310  201.5510  149.0490 O   0  0  0  0  0  0  0  0  0  0  0  0
  161.3180  207.1130  151.4170 C   0  0  0  0  0  3  0  0  0  0  0  0
  161.0930  206.8590  150.0430 C   0  0  0  0  0  0  0  0  0  0  0  0
  161.2450  204.7550  151.8050 C   0  0  0  0  0  0  0  0  0  0  0  0
  161.1280  203.0150  147.7220 C   0  0  0  0  0  0  0  0  0  0  0  0
  162.1290  203.9120  145.2970 N   0  0  0  0  0  0  0  0  0  0  0  0
  162.0730  204.0490  147.6810 C   0  0  0  0  0  3  0  0  0  0  0  0
  162.5700  204.4830  146.4500 C   0  0  0  0  0  3  0  0  0  0  0  0
  161.2030  202.9170  145.3060 C   0  0  0  0  0  3  0  0  0  0  0  0
  160.6830  202.4550  146.5170 C   0  0  0  0  0  3  0  0  0  0  0  0
  160.9830  207.9950  149.0900 C   0  0  0  0  0  2  0  0  0  0  0  0
  162.3000  208.7460  149.0250 C   0  0  0  0  0  2  0  0  0  0  0  0
  162.0990  210.1610  149.4440 C   0  0  0  0  0  0  0  0  0  0  0  0
  161.9640  210.4300  150.6670 O   0  0  0  0  0  0  0  0  0  0  0  0
  162.0310  211.2290  148.4410 C   0  0  0  0  0  0  0  0  0  0  0  0
  161.0150  211.2570  147.5430 F   0  0  0  0  0  0  0  0  0  0  0  0
  162.9120  212.1260  148.4060 O   0  0  0  0  0  0  0  0  0  0  0  0
  1  2  1  0  0  0  0
  1  3  1  0  0  0  0
  2 12  1  0  0  0  0
  3  4  2  0  0  0  0
  5  6  1  0  0  0  0
  7 11  1  0  0  0  0
  7  2  2  0  0  0  0
  8  9  2  0  0  0  0
  8  1  1  0  0  0  0
 10  5  1  0  0  0  0
 11 10  2  0  0  0  0
 12  5  2  0  0  0  0
 12  4  1  0  0  0  0
 13  8  1  0  0  0  0
 14 17  2  0  0  0  0
 14 16  1  0  0  0  0
 15 13  1  0  0  0  0
 16 15  2  0  0  0  0
 17 18  1  0  0  0  0
 18 13  2  0  0  0  0
 19 11  1  0  0  0  0
 20 19  1  0  0  0  0
 20 21  1  0  0  0  0
 21 22  2  0  0  0  0
 23 21  1  0  0  0  0
 24 23  1  0  0  0  0
 25 23  2  0  0  0  0
M  END
>  <MODEL>
8

>  <REMARK>
 VINA RESULT:      -6.9      2.167      2.881
  Name = 
  5 active torsions:
  status: ('A' for Active; 'I' for Inactive)
    1  A    between atoms: C_2  and  C_21
    2  A    between atoms: C_5  and  C_18
    3  A    between atoms: C_6  and  C_15
    4  A    between atoms: C_6  and  C_23
    5  A    between atoms: C_15  and  C_21
                            x       y       z     vdW  Elec       q    Type
                         _______ _______ _______ _____ _____    ______ ____

>  <TORSDO>
F 5

$$$$
=
 OpenBabel11052422173D

 25 27  0  0  0  0  0  0  0  0999 V2000
  160.8260  203.0440  150.3170 N   0  0  0  0  0  0  0  0  0  0  0  0
  160.9900  204.3540  150.5470 C   0  0  0  0  0  0  0  0  0  0  0  0
  160.9360  202.4710  151.5440 C   0  0  0  0  0  3  0  0  0  0  0  0
  161.1830  203.3810  152.5280 N   0  0  0  0  0  0  0  0  0  0  0  0
  161.3660  205.8400  152.3850 C   0  0  0  0  0  0  0  0  0  0  0  0
  161.5990  206.0840  153.8340 C   0  0  0  0  0  1  0  0  0  0  0  0
  160.8740  205.3760  149.6610 N   0  0  0  0  0  0  0  0  0  0  0  0
  160.4990  202.3680  149.0920 C   0  0  0  0  0  0  0  0  0  0  0  0
  159.7550  201.3510  149.1350 O   0  0  0  0  0  0  0  0  0  0  0  0
  161.2760  206.9130  151.4810 C   0  0  0  0  0  3  0  0  0  0  0  0
  161.0320  206.6580  150.1100 C   0  0  0  0  0  0  0  0  0  0  0  0
  161.2090  204.5550  151.8700 C   0  0  0  0  0  0  0  0  0  0  0  0
  161.0330  202.8140  147.7890 C   0  0  0  0  0  0  0  0  0  0  0  0
  161.9970  203.7090  145.3490 N   0  0  0  0  0  0  0  0  0  0  0  0
  161.9320  203.8870  147.7290 C   0  0  0  0  0  3  0  0  0  0  0  0
  162.4110  204.3200  146.4910 C   0  0  0  0  0  3  0  0  0  0  0  0
  161.1150  202.6760  145.3760 C   0  0  0  0  0  3  0  0  0  0  0  0
  160.6140  202.2140  146.5950 C   0  0  0  0  0  3  0  0  0  0  0  0
  160.9070  207.7950  149.1580 C   0  0  0  0  0  2  0  0  0  0  0  0
  162.2380  208.5140  149.0350 C   0  0  0  0  0  2  0  0  0  0  0  0
  162.0650  209.9590  149.3520 C   0  0  0  0  0  0  0  0  0  0  0  0
  162.0460  210.8000  148.4140 O   0  0  0  0  0  0  0  0  0  0  0  0
  161.9460  210.4030  150.7450 C   0  0  0  0  0  0  0  0  0  0  0  0
  161.0320  211.3460  151.0850 F   0  0  0  0  0  0  0  0  0  0  0  0
  162.6910  209.9150  151.6340 O   0  0  0  0  0  0  0  0  0  0  0  0
  1  2  1  0  0  0  0
  1  3  1  0  0  0  0
  2 12  1  0  0  0  0
  3  4  2  0  0  0  0
  5  6  1  0  0  0  0
  7 11  1  0  0  0  0
  7  2  2  0  0  0  0
  8  9  2  0  0  0  0
  8  1  1  0  0  0  0
 10  5  1  0  0  0  0
 11 10  2  0  0  0  0
 12  5  2  0  0  0  0
 12  4  1  0  0  0  0
 13  8  1  0  0  0  0
 14 17  2  0  0  0  0
 14 16  1  0  0  0  0
 15 13  1  0  0  0  0
 16 15  2  0  0  0  0
 17 18  1  0  0  0  0
 18 13  2  0  0  0  0
 19 11  1  0  0  0  0
 20 19  1  0  0  0  0
 20 21  1  0  0  0  0
 21 23  1  0  0  0  0
 22 21  2  0  0  0  0
 23 24  1  0  0  0  0
 23 25  2  0  0  0  0
M  END
>  <MODEL>
9

>  <REMARK>
 VINA RESULT:      -6.7      1.927      2.557
  Name = 
  5 active torsions:
  status: ('A' for Active; 'I' for Inactive)
    1  A    between atoms: C_2  and  C_21
    2  A    between atoms: C_5  and  C_18
    3  A    between atoms: C_6  and  C_15
    4  A    between atoms: C_6  and  C_23
    5  A    between atoms: C_15  and  C_21
                            x       y       z     vdW  Elec       q    Type
                         _______ _______ _______ _____ _____    ______ ____

>  <TORSDO>
F 5

$$$$
