=
 OpenBabel11062409233D

 37 40  0  0  1  0  0  0  0  0999 V2000
  161.2170  211.3240  154.1040 C   0  0  0  0  0  2  0  0  0  0  0  0
  160.4830  209.2720  155.4580 C   0  0  2  0  0  3  0  0  0  0  0  0
  160.7220  211.4400  152.6670 C   0  0  2  0  0  3  0  0  0  0  0  0
  161.4460  209.8480  154.3960 C   0  0  1  0  0  3  0  0  0  0  0  0
  159.3060  212.0370  152.6410 C   0  0  2  0  0  3  0  0  0  0  0  0
  158.9900  209.4200  155.1140 C   0  0  0  0  0  2  0  0  0  0  0  0
  161.4620  209.1300  153.0450 C   0  0  2  0  0  3  0  0  0  0  0  0
  156.9580  210.8370  155.0780 C   0  0  0  0  0  2  0  0  0  0  0  0
  158.3910  210.7550  155.5640 C   0  0  2  0  0  3  0  0  0  0  0  0
  158.0160  211.6980  154.4170 C   0  0  1  0  0  3  0  0  0  0  0  0
  160.7830  210.0480  152.0470 C   0  0  2  0  0  3  0  0  0  0  0  0
  158.3520  211.1600  153.1700 O   0  0  0  0  0  0  0  0  0  0  0  0
  162.2530  209.2700  157.2390 C   0  0  0  0  0  1  0  0  0  0  0  0
  160.8440  209.7080  156.8850 C   0  0  1  0  0  3  0  0  0  0  0  0
  160.7650  211.0970  157.0020 O   0  0  0  0  0  1  0  0  0  0  0  0
  161.5310  206.9030  153.9240 O   0  0  0  0  0  0  0  0  0  0  0  0
  161.8150  206.7410  152.5530 C   0  0  2  0  0  3  0  0  0  0  0  0
  160.8330  207.7400  153.0370 C   0  0  2  0  0  3  0  0  0  0  0  0
  161.1160  205.5240  152.0290 C   0  0  0  0  0  0  0  0  0  0  0  0
  161.0350  204.4360  152.8020 C   0  0  0  0  0  2  0  0  0  0  0  0
  160.6990  205.4790  150.5820 C   0  0  2  0  0  3  0  0  0  0  0  0
  160.8000  204.0620  150.0380 C   0  0  0  0  0  1  0  0  0  0  0  0
  161.5180  206.4500  149.7380 C   0  0  0  0  0  2  0  0  0  0  0  0
  160.8250  206.7490  148.4170 C   0  0  0  0  0  2  0  0  0  0  0  0
  161.7550  207.1640  147.4630 O   0  0  0  0  0  1  0  0  0  0  0  0
  158.8820  212.5690  151.2660 C   0  0  0  0  0  2  0  0  0  0  0  0
  158.4870  214.0440  151.2500 C   0  0  0  0  0  2  0  0  0  0  0  0
  157.3560  214.3160  150.2730 C   0  0  2  0  0  3  0  0  0  0  0  0
  156.0530  214.4530  151.0480 C   0  0  0  0  0  2  0  0  0  0  0  0
  154.8620  214.2370  150.1350 C   0  0  0  0  0  1  0  0  0  0  0  0
  157.2650  213.1490  149.2980 C   0  0  0  0  0  2  0  0  0  0  0  0
  158.9790  213.4340  147.5090 O   0  0  0  0  0  1  0  0  0  0  0  0
  156.7950  214.0180  147.1270 O   0  0  0  0  0  0  0  0  0  0  0  0
  157.6610  213.5680  147.9230 C   0  0  0  0  0  0  0  0  0  0  0  0
  161.5410  210.0670  150.7220 C   0  0  0  0  0  2  0  0  0  0  0  0
  161.6160  211.3630  150.2050 O   0  0  0  0  0  0  0  0  0  0  0  0
  161.9270  211.1830  148.8580 C   0  0  0  0  0  1  0  0  0  0  0  0
  2 14  1  1  0  0  0
  3  1  1  1  0  0  0
  4  1  1  6  0  0  0
  4  2  1  0  0  0  0
  5 26  1  6  0  0  0
  5  3  1  0  0  0  0
  5 12  1  0  0  0  0
  6  2  1  0  0  0  0
  6  9  1  0  0  0  0
  7 18  1  1  0  0  0
  7  4  1  0  0  0  0
  9  8  1  6  0  0  0
 10  8  1  6  0  0  0
 10  9  1  0  0  0  0
 11 35  1  6  0  0  0
 11  3  1  0  0  0  0
 11  7  1  0  0  0  0
 12 10  1  0  0  0  0
 14 15  1  0  0  0  0
 14 13  1  6  0  0  0
 17 19  1  6  0  0  0
 17 18  1  0  0  0  0
 17 16  1  0  0  0  0
 18 16  1  1  0  0  0
 19 20  2  0  0  0  0
 21 22  1  6  0  0  0
 21 19  1  0  0  0  0
 23 21  1  0  0  0  0
 24 23  1  0  0  0  0
 25 24  1  0  0  0  0
 27 26  1  0  0  0  0
 28 31  1  6  0  0  0
 28 29  1  0  0  0  0
 28 27  1  0  0  0  0
 30 29  1  0  0  0  0
 32 34  1  0  0  0  0
 33 34  2  0  0  0  0
 34 31  1  0  0  0  0
 36 35  1  0  0  0  0
 37 36  1  0  0  0  0
M  END
>  <MODEL>
1

>  <REMARK>
 VINA RESULT:      -5.5      0.000      0.000
  Name = 
  14 active torsions:
  status: ('A' for Active; 'I' for Inactive)
    1  A    between atoms: C_1  and  C_5
    2  A    between atoms: C_1  and  C_23
    3  A    between atoms: C_2  and  C_6
    4  A    between atoms: C_5  and  C_26
    5  A    between atoms: C_6  and  C_8
    6  A    between atoms: C_6  and  C_31
    7  A    between atoms: C_7  and  C_14
    8  A    between atoms: C_7  and  C_31
    9  A    between atoms: C_8  and  C_19
   10  A    between atoms: C_9  and  C_30
   11  A    between atoms: C_11  and  C_26
   12  A    between atoms: C_20  and  C_25
   13  A    between atoms: O_27  and  C_33
   14  A    between atoms: C_29  and  C_33
                            x       y       z     vdW  Elec       q    Type
                         _______ _______ _______ _____ _____    ______ ____

>  <TORSDO>
F 14

$$$$
=
 OpenBabel11062409233D

 37 40  0  0  1  0  0  0  0  0999 V2000
  161.3260  211.2120  154.1660 C   0  0  0  0  0  2  0  0  0  0  0  0
  160.6410  209.0870  155.4300 C   0  0  2  0  0  3  0  0  0  0  0  0
  160.7760  211.4080  152.7570 C   0  0  2  0  0  3  0  0  0  0  0  0
  161.5640  209.7220  154.3650 C   0  0  1  0  0  3  0  0  0  0  0  0
  159.3610  212.0040  152.8190 C   0  0  2  0  0  3  0  0  0  0  0  0
  159.1370  209.2520  155.1520 C   0  0  0  0  0  2  0  0  0  0  0  0
  161.5270  209.0800  152.9770 C   0  0  2  0  0  3  0  0  0  0  0  0
  157.1060  210.6680  155.2730 C   0  0  0  0  0  2  0  0  0  0  0  0
  158.5570  210.5600  155.6990 C   0  0  2  0  0  3  0  0  0  0  0  0
  158.1390  211.5650  154.6210 C   0  0  1  0  0  3  0  0  0  0  0  0
  160.8110  210.0530  152.0590 C   0  0  2  0  0  3  0  0  0  0  0  0
  158.4260  211.0980  153.3340 O   0  0  0  0  0  0  0  0  0  0  0  0
  162.5370  209.1820  157.0730 C   0  0  0  0  0  1  0  0  0  0  0  0
  161.0570  209.4430  156.8650 C   0  0  1  0  0  3  0  0  0  0  0  0
  160.8000  210.7900  157.1230 O   0  0  0  0  0  1  0  0  0  0  0  0
  161.5640  206.8340  153.8030 O   0  0  0  0  0  0  0  0  0  0  0  0
  161.8910  206.7030  152.4400 C   0  0  2  0  0  3  0  0  0  0  0  0
  160.8960  207.6930  152.9150 C   0  0  2  0  0  3  0  0  0  0  0  0
  161.2070  205.5010  151.8640 C   0  0  0  0  0  0  0  0  0  0  0  0
  160.8050  204.5260  152.6850 C   0  0  0  0  0  2  0  0  0  0  0  0
  161.1660  205.3210  150.3690 C   0  0  2  0  0  3  0  0  0  0  0  0
  160.1210  206.2340  149.7460 C   0  0  0  0  0  1  0  0  0  0  0  0
  160.9190  203.8640  149.9930 C   0  0  0  0  0  2  0  0  0  0  0  0
  161.2590  203.6090  148.5310 C   0  0  0  0  0  2  0  0  0  0  0  0
  161.9420  204.6990  147.9930 O   0  0  0  0  0  1  0  0  0  0  0  0
  158.8850  212.6110  151.4930 C   0  0  0  0  0  2  0  0  0  0  0  0
  159.8370  213.6430  150.8910 C   0  0  0  0  0  2  0  0  0  0  0  0
  159.4560  213.9990  149.4640 C   0  0  2  0  0  3  0  0  0  0  0  0
  157.9530  213.8290  149.2950 C   0  0  0  0  0  2  0  0  0  0  0  0
  157.6350  213.1670  147.9680 C   0  0  0  0  0  1  0  0  0  0  0  0
  160.1990  213.0660  148.5160 C   0  0  0  0  0  2  0  0  0  0  0  0
  162.5840  213.7250  148.2120 O   0  0  0  0  0  1  0  0  0  0  0  0
  160.9830  214.4520  146.7390 O   0  0  0  0  0  0  0  0  0  0  0  0
  161.2690  213.7950  147.7770 C   0  0  0  0  0  0  0  0  0  0  0  0
  161.5180  210.1460  150.7090 C   0  0  0  0  0  2  0  0  0  0  0  0
  162.3410  209.0380  150.4950 O   0  0  0  0  0  0  0  0  0  0  0  0
  162.1750  208.7350  149.1450 C   0  0  0  0  0  1  0  0  0  0  0  0
  2 14  1  1  0  0  0
  3  5  1  0  0  0  0
  3  1  1  1  0  0  0
  4  1  1  6  0  0  0
  4  2  1  0  0  0  0
  5 26  1  6  0  0  0
  5 12  1  0  0  0  0
  6  2  1  0  0  0  0
  7 18  1  1  0  0  0
  7  4  1  0  0  0  0
  8  9  1  0  0  0  0
  9  6  1  6  0  0  0
 10  8  1  6  0  0  0
 10  9  1  0  0  0  0
 11 35  1  6  0  0  0
 11  3  1  0  0  0  0
 11  7  1  0  0  0  0
 12 10  1  0  0  0  0
 14 13  1  6  0  0  0
 14 15  1  0  0  0  0
 17 19  1  6  0  0  0
 17 18  1  0  0  0  0
 17 16  1  0  0  0  0
 18 16  1  1  0  0  0
 19 20  2  0  0  0  0
 21 22  1  1  0  0  0
 21 19  1  0  0  0  0
 23 21  1  0  0  0  0
 24 23  1  0  0  0  0
 25 24  1  0  0  0  0
 27 26  1  0  0  0  0
 28 31  1  6  0  0  0
 28 27  1  0  0  0  0
 29 28  1  0  0  0  0
 30 29  1  0  0  0  0
 33 34  2  0  0  0  0
 34 32  1  0  0  0  0
 34 31  1  0  0  0  0
 36 35  1  0  0  0  0
 37 36  1  0  0  0  0
M  END
>  <MODEL>
2

>  <REMARK>
 VINA RESULT:      -5.3      1.362      1.831
  Name = 
  14 active torsions:
  status: ('A' for Active; 'I' for Inactive)
    1  A    between atoms: C_1  and  C_5
    2  A    between atoms: C_1  and  C_23
    3  A    between atoms: C_2  and  C_6
    4  A    between atoms: C_5  and  C_26
    5  A    between atoms: C_6  and  C_8
    6  A    between atoms: C_6  and  C_31
    7  A    between atoms: C_7  and  C_14
    8  A    between atoms: C_7  and  C_31
    9  A    between atoms: C_8  and  C_19
   10  A    between atoms: C_9  and  C_30
   11  A    between atoms: C_11  and  C_26
   12  A    between atoms: C_20  and  C_25
   13  A    between atoms: O_27  and  C_33
   14  A    between atoms: C_29  and  C_33
                            x       y       z     vdW  Elec       q    Type
                         _______ _______ _______ _____ _____    ______ ____

>  <TORSDO>
F 14

$$$$
=
 OpenBabel11062409233D

 37 40  0  0  1  0  0  0  0  0999 V2000
  160.2090  214.4530  150.6440 C   0  0  0  0  0  2  0  0  0  0  0  0
  158.6020  213.1020  152.1180 C   0  0  2  0  0  3  0  0  0  0  0  0
  160.7400  213.7880  149.3790 C   0  0  2  0  0  3  0  0  0  0  0  0
  160.0670  213.3730  151.7070 C   0  0  1  0  0  3  0  0  0  0  0  0
  159.7170  213.9240  148.2400 C   0  0  2  0  0  3  0  0  0  0  0  0
  157.6790  212.6910  150.9570 C   0  0  0  0  0  2  0  0  0  0  0  0
  160.8610  212.1620  151.2150 C   0  0  2  0  0  3  0  0  0  0  0  0
  156.2620  213.3690  149.0400 C   0  0  0  0  0  2  0  0  0  0  0  0
  157.0560  213.8830  150.2250 C   0  0  2  0  0  3  0  0  0  0  0  0
  157.5740  214.0880  148.7980 C   0  0  1  0  0  3  0  0  0  0  0  0
  161.0480  212.3340  149.7190 C   0  0  2  0  0  3  0  0  0  0  0  0
  158.5670  213.1590  148.4660 O   0  0  0  0  0  0  0  0  0  0  0  0
  156.6220  213.8420  153.4730 C   0  0  0  0  0  1  0  0  0  0  0  0
  158.0250  214.2020  153.0210 C   0  0  1  0  0  3  0  0  0  0  0  0
  158.8290  214.3730  154.1490 O   0  0  0  0  0  1  0  0  0  0  0  0
  160.1540  210.6580  152.9390 O   0  0  0  0  0  0  0  0  0  0  0  0
  161.2200  209.9850  152.3120 C   0  0  2  0  0  3  0  0  0  0  0  0
  160.2520  210.8030  151.5450 C   0  0  2  0  0  3  0  0  0  0  0  0
  160.8980  208.5280  152.1850 C   0  0  0  0  0  0  0  0  0  0  0  0
  160.6430  207.8180  153.2890 C   0  0  0  0  0  2  0  0  0  0  0  0
  161.0640  207.8490  150.8500 C   0  0  2  0  0  3  0  0  0  0  0  0
  161.1460  206.3400  151.0210 C   0  0  0  0  0  1  0  0  0  0  0  0
  162.2810  208.3840  150.1030 C   0  0  0  0  0  2  0  0  0  0  0  0
  162.0480  208.3820  148.5990 C   0  0  0  0  0  2  0  0  0  0  0  0
  162.0850  207.0790  148.1030 O   0  0  0  0  0  1  0  0  0  0  0  0
  160.3030  213.6620  146.8460 C   0  0  0  0  0  2  0  0  0  0  0  0
  159.5420  212.6250  146.0230 C   0  0  0  0  0  2  0  0  0  0  0  0
  160.1320  212.4620  144.6330 C   0  0  2  0  0  3  0  0  0  0  0  0
  161.2050  213.5210  144.4220 C   0  0  0  0  0  2  0  0  0  0  0  0
  162.4870  212.8900  143.9130 C   0  0  0  0  0  1  0  0  0  0  0  0
  159.0180  212.6350  143.6090 C   0  0  0  0  0  2  0  0  0  0  0  0
  160.0580  211.7340  141.5300 O   0  0  0  0  0  0  0  0  0  0  0  0
  159.5790  213.9690  141.7120 O   0  0  0  0  0  1  0  0  0  0  0  0
  159.5730  212.8240  142.2390 C   0  0  0  0  0  0  0  0  0  0  0  0
  162.4670  211.9580  149.3020 C   0  0  0  0  0  2  0  0  0  0  0  0
  162.5380  211.7080  147.9300 O   0  0  0  0  0  0  0  0  0  0  0  0
  163.6030  212.4910  147.4870 C   0  0  0  0  0  1  0  0  0  0  0  0
  2 14  1  6  0  0  0
  3 11  1  0  0  0  0
  3  1  1  1  0  0  0
  4  1  1  6  0  0  0
  4  2  1  0  0  0  0
  5 26  1  6  0  0  0
  5 12  1  0  0  0  0
  5  3  1  0  0  0  0
  6  2  1  0  0  0  0
  7 18  1  6  0  0  0
  7  4  1  0  0  0  0
  9  8  1  6  0  0  0
  9  6  1  0  0  0  0
 10  8  1  6  0  0  0
 10  9  1  0  0  0  0
 11 35  1  1  0  0  0
 11  7  1  0  0  0  0
 12 10  1  0  0  0  0
 14 13  1  1  0  0  0
 14 15  1  0  0  0  0
 17 19  1  6  0  0  0
 17 16  1  0  0  0  0
 18 17  1  0  0  0  0
 18 16  1  1  0  0  0
 19 20  2  0  0  0  0
 21 22  1  1  0  0  0
 21 19  1  0  0  0  0
 23 21  1  0  0  0  0
 24 23  1  0  0  0  0
 25 24  1  0  0  0  0
 27 26  1  0  0  0  0
 28 31  1  6  0  0  0
 28 27  1  0  0  0  0
 29 28  1  0  0  0  0
 30 29  1  0  0  0  0
 32 34  2  0  0  0  0
 33 34  1  0  0  0  0
 34 31  1  0  0  0  0
 36 35  1  0  0  0  0
 37 36  1  0  0  0  0
M  END
>  <MODEL>
3

>  <REMARK>
 VINA RESULT:      -3.9      2.865      5.100
  Name = 
  14 active torsions:
  status: ('A' for Active; 'I' for Inactive)
    1  A    between atoms: C_1  and  C_5
    2  A    between atoms: C_1  and  C_23
    3  A    between atoms: C_2  and  C_6
    4  A    between atoms: C_5  and  C_26
    5  A    between atoms: C_6  and  C_8
    6  A    between atoms: C_6  and  C_31
    7  A    between atoms: C_7  and  C_14
    8  A    between atoms: C_7  and  C_31
    9  A    between atoms: C_8  and  C_19
   10  A    between atoms: C_9  and  C_30
   11  A    between atoms: C_11  and  C_26
   12  A    between atoms: C_20  and  C_25
   13  A    between atoms: O_27  and  C_33
   14  A    between atoms: C_29  and  C_33
                            x       y       z     vdW  Elec       q    Type
                         _______ _______ _______ _____ _____    ______ ____

>  <TORSDO>
F 14

$$$$
=
 OpenBabel11062409233D

 37 40  0  0  1  0  0  0  0  0999 V2000
  158.1130  211.0320  155.0940 C   0  0  0  0  0  2  0  0  0  0  0  0
  157.5960  213.4910  154.5760 C   0  0  2  0  0  3  0  0  0  0  0  0
  159.4810  210.4940  154.6910 C   0  0  2  0  0  3  0  0  0  0  0  0
  157.6870  212.0440  154.0400 C   0  0  1  0  0  3  0  0  0  0  0  0
  160.5260  210.8500  155.7610 C   0  0  2  0  0  3  0  0  0  0  0  0
  158.9020  214.0270  155.1890 C   0  0  0  0  0  2  0  0  0  0  0  0
  158.5990  211.8320  152.8310 C   0  0  2  0  0  3  0  0  0  0  0  0
  160.4230  214.1620  157.1410 C   0  0  0  0  0  2  0  0  0  0  0  0
  159.0620  213.6870  156.6730 C   0  0  2  0  0  3  0  0  0  0  0  0
  160.1740  212.6770  156.9740 C   0  0  1  0  0  3  0  0  0  0  0  0
  159.8200  211.0790  153.3240 C   0  0  2  0  0  3  0  0  0  0  0  0
  160.7940  212.2230  155.8040 O   0  0  0  0  0  0  0  0  0  0  0  0
  155.0880  213.5850  154.6160 C   0  0  0  0  0  1  0  0  0  0  0  0
  156.3520  213.7270  155.4430 C   0  0  1  0  0  3  0  0  0  0  0  0
  156.3090  212.8030  156.4880 O   0  0  0  0  0  1  0  0  0  0  0  0
  157.8390  213.7870  151.6760 O   0  0  0  0  0  0  0  0  0  0  0  0
  158.5030  213.0390  150.6840 C   0  0  2  0  0  3  0  0  0  0  0  0
  158.9950  213.1000  152.0810 C   0  0  2  0  0  3  0  0  0  0  0  0
  159.2980  213.9530  149.8040 C   0  0  0  0  0  0  0  0  0  0  0  0
  160.4540  214.4500  150.2550 C   0  0  0  0  0  2  0  0  0  0  0  0
  158.6900  214.4530  148.5190 C   0  0  2  0  0  3  0  0  0  0  0  0
  157.3620  213.7630  148.2490 C   0  0  0  0  0  1  0  0  0  0  0  0
  159.6490  214.2780  147.3470 C   0  0  0  0  0  2  0  0  0  0  0  0
  159.9260  212.8060  147.0780 C   0  0  0  0  0  2  0  0  0  0  0  0
  161.1380  212.6540  146.4040 O   0  0  0  0  0  1  0  0  0  0  0  0
  161.8170  210.0260  155.6650 C   0  0  0  0  0  2  0  0  0  0  0  0
  161.6390  208.5340  155.9370 C   0  0  0  0  0  2  0  0  0  0  0  0
  161.1120  207.7950  154.7180 C   0  0  2  0  0  3  0  0  0  0  0  0
  159.8540  207.0310  155.1070 C   0  0  0  0  0  2  0  0  0  0  0  0
  159.4970  207.2900  156.5580 C   0  0  0  0  0  1  0  0  0  0  0  0
  162.1850  206.8270  154.2360 C   0  0  0  0  0  2  0  0  0  0  0  0
  160.5790  205.9260  152.5550 O   0  0  0  0  0  1  0  0  0  0  0  0
  162.7760  206.2670  151.9940 O   0  0  0  0  0  0  0  0  0  0  0  0
  161.8720  206.3170  152.8710 C   0  0  0  0  0  0  0  0  0  0  0  0
  160.2180  209.9840  152.3390 C   0  0  0  0  0  2  0  0  0  0  0  0
  161.1390  210.4610  151.4020 O   0  0  0  0  0  0  0  0  0  0  0  0
  162.1480  209.4990  151.3830 C   0  0  0  0  0  1  0  0  0  0  0  0
  2  6  1  0  0  0  0
  2 14  1  1  0  0  0
  3  1  1  1  0  0  0
  3  5  1  0  0  0  0
  4  2  1  0  0  0  0
  4  1  1  1  0  0  0
  5 26  1  6  0  0  0
  5 12  1  0  0  0  0
  7 18  1  1  0  0  0
  7 11  1  0  0  0  0
  7  4  1  0  0  0  0
  9  6  1  6  0  0  0
  9 10  1  0  0  0  0
  9  8  1  0  0  0  0
 10  8  1  1  0  0  0
 11 35  1  6  0  0  0
 11  3  1  0  0  0  0
 12 10  1  0  0  0  0
 14 13  1  6  0  0  0
 14 15  1  0  0  0  0
 17 19  1  6  0  0  0
 17 16  1  0  0  0  0
 17 18  1  0  0  0  0
 18 16  1  1  0  0  0
 19 20  2  0  0  0  0
 21 22  1  6  0  0  0
 21 19  1  0  0  0  0
 23 21  1  0  0  0  0
 24 23  1  0  0  0  0
 25 24  1  0  0  0  0
 26 27  1  0  0  0  0
 28 31  1  1  0  0  0
 28 29  1  0  0  0  0
 28 27  1  0  0  0  0
 29 30  1  0  0  0  0
 32 34  1  0  0  0  0
 33 34  2  0  0  0  0
 34 31  1  0  0  0  0
 36 35  1  0  0  0  0
 37 36  1  0  0  0  0
M  END
>  <MODEL>
4

>  <REMARK>
 VINA RESULT:      -3.3      2.226      6.918
  Name = 
  14 active torsions:
  status: ('A' for Active; 'I' for Inactive)
    1  A    between atoms: C_1  and  C_5
    2  A    between atoms: C_1  and  C_23
    3  A    between atoms: C_2  and  C_6
    4  A    between atoms: C_5  and  C_26
    5  A    between atoms: C_6  and  C_8
    6  A    between atoms: C_6  and  C_31
    7  A    between atoms: C_7  and  C_14
    8  A    between atoms: C_7  and  C_31
    9  A    between atoms: C_8  and  C_19
   10  A    between atoms: C_9  and  C_30
   11  A    between atoms: C_11  and  C_26
   12  A    between atoms: C_20  and  C_25
   13  A    between atoms: O_27  and  C_33
   14  A    between atoms: C_29  and  C_33
                            x       y       z     vdW  Elec       q    Type
                         _______ _______ _______ _____ _____    ______ ____

>  <TORSDO>
F 14

$$$$
=
 OpenBabel11062409233D

 37 40  0  0  1  0  0  0  0  0999 V2000
  162.9250  206.7350  151.1130 C   0  0  0  0  0  2  0  0  0  0  0  0
  161.6970  208.7540  150.1150 C   0  0  2  0  0  3  0  0  0  0  0  0
  162.1160  205.7590  151.9600 C   0  0  2  0  0  3  0  0  0  0  0  0
  162.3690  208.1300  151.3590 C   0  0  1  0  0  3  0  0  0  0  0  0
  161.3810  204.7560  151.0570 C   0  0  2  0  0  3  0  0  0  0  0  0
  160.5400  207.9230  149.5310 C   0  0  0  0  0  2  0  0  0  0  0  0
  161.5050  208.0450  152.6180 C   0  0  2  0  0  3  0  0  0  0  0  0
  159.8010  206.0400  148.0990 C   0  0  0  0  0  2  0  0  0  0  0  0
  160.9990  206.8670  148.5220 C   0  0  2  0  0  3  0  0  0  0  0  0
  160.8460  205.4220  149.0060 C   0  0  1  0  0  3  0  0  0  0  0  0
  161.1620  206.5810  152.8210 C   0  0  2  0  0  3  0  0  0  0  0  0
  160.3580  205.3610  150.3170 O   0  0  0  0  0  0  0  0  0  0  0  0
  162.7510  208.2940  147.8840 C   0  0  0  0  0  1  0  0  0  0  0  0
  162.7120  209.2380  149.0710 C   0  0  1  0  0  3  0  0  0  0  0  0
  162.3690  210.5130  148.6170 O   0  0  0  0  0  1  0  0  0  0  0  0
  160.5530  210.1710  152.0670 O   0  0  0  0  0  0  0  0  0  0  0  0
  160.4460  210.1010  153.4700 C   0  0  2  0  0  3  0  0  0  0  0  0
  160.2500  208.9110  152.6080 C   0  0  2  0  0  3  0  0  0  0  0  0
  159.1280  210.6590  153.9100 C   0  0  0  0  0  0  0  0  0  0  0  0
  158.5010  211.5430  153.1270 C   0  0  0  0  0  2  0  0  0  0  0  0
  158.6340  210.3730  155.3040 C   0  0  2  0  0  3  0  0  0  0  0  0
  157.3530  211.1420  155.5880 C   0  0  0  0  0  1  0  0  0  0  0  0
  159.7030  210.6830  156.3460 C   0  0  0  0  0  2  0  0  0  0  0  0
  159.5410  212.0920  156.8990 C   0  0  0  0  0  2  0  0  0  0  0  0
  160.4480  212.9600  156.2920 O   0  0  0  0  0  1  0  0  0  0  0  0
  160.8800  203.5080  151.7950 C   0  0  0  0  0  2  0  0  0  0  0  0
  161.4290  202.1890  151.2540 C   0  0  0  0  0  2  0  0  0  0  0  0
  160.7450  201.7790  149.9620 C   0  0  2  0  0  3  0  0  0  0  0  0
  159.5060  200.9590  150.2950 C   0  0  0  0  0  2  0  0  0  0  0  0
  158.3540  201.3350  149.3830 C   0  0  0  0  0  1  0  0  0  0  0  0
  161.7200  200.9440  149.1410 C   0  0  0  0  0  2  0  0  0  0  0  0
  161.5320  199.8600  146.9030 O   0  0  0  0  0  0  0  0  0  0  0  0
  160.9160  202.0510  147.1850 O   0  0  0  0  0  1  0  0  0  0  0  0
  161.3760  200.9910  147.6910 C   0  0  0  0  0  0  0  0  0  0  0  0
  161.2770  206.1950  154.2940 C   0  0  0  0  0  2  0  0  0  0  0  0
  161.2230  207.3240  155.1140 O   0  0  0  0  0  0  0  0  0  0  0  0
  160.1380  207.0910  155.9580 C   0  0  0  0  0  1  0  0  0  0  0  0
  2 14  1  6  0  0  0
  2  4  1  0  0  0  0
  3  1  1  6  0  0  0
  3 11  1  0  0  0  0
  4  1  1  6  0  0  0
  4  7  1  0  0  0  0
  5 26  1  1  0  0  0
  5  3  1  0  0  0  0
  6  2  1  0  0  0  0
  7 18  1  6  0  0  0
  7 11  1  0  0  0  0
  9  8  1  6  0  0  0
  9 10  1  0  0  0  0
  9  6  1  0  0  0  0
 10  8  1  6  0  0  0
 10 12  1  0  0  0  0
 11 35  1  1  0  0  0
 12  5  1  0  0  0  0
 14 13  1  6  0  0  0
 15 14  1  0  0  0  0
 16 17  1  0  0  0  0
 17 19  1  6  0  0  0
 18 16  1  6  0  0  0
 18 17  1  0  0  0  0
 19 21  1  0  0  0  0
 20 19  2  0  0  0  0
 21 22  1  1  0  0  0
 21 23  1  0  0  0  0
 23 24  1  0  0  0  0
 25 24  1  0  0  0  0
 27 26  1  0  0  0  0
 28 31  1  6  0  0  0
 28 29  1  0  0  0  0
 28 27  1  0  0  0  0
 30 29  1  0  0  0  0
 32 34  2  0  0  0  0
 33 34  1  0  0  0  0
 34 31  1  0  0  0  0
 35 36  1  0  0  0  0
 36 37  1  0  0  0  0
M  END
>  <MODEL>
5

>  <REMARK>
 VINA RESULT:      -3.0      2.716      8.816
  Name = 
  14 active torsions:
  status: ('A' for Active; 'I' for Inactive)
    1  A    between atoms: C_1  and  C_5
    2  A    between atoms: C_1  and  C_23
    3  A    between atoms: C_2  and  C_6
    4  A    between atoms: C_5  and  C_26
    5  A    between atoms: C_6  and  C_8
    6  A    between atoms: C_6  and  C_31
    7  A    between atoms: C_7  and  C_14
    8  A    between atoms: C_7  and  C_31
    9  A    between atoms: C_8  and  C_19
   10  A    between atoms: C_9  and  C_30
   11  A    between atoms: C_11  and  C_26
   12  A    between atoms: C_20  and  C_25
   13  A    between atoms: O_27  and  C_33
   14  A    between atoms: C_29  and  C_33
                            x       y       z     vdW  Elec       q    Type
                         _______ _______ _______ _____ _____    ______ ____

>  <TORSDO>
F 14

$$$$
