=
 OpenBabel11062409513D

 34 34  0  0  1  0  0  0  0  0999 V2000
  160.9300  206.7530  150.2720 C   0  0  1  0  0  3  0  0  0  0  0  0
  159.8970  205.9150  149.8370 O   0  0  0  0  0  1  0  0  0  0  0  0
  162.8910  206.7600  151.6860 O   0  0  0  0  0  1  0  0  0  0  0  0
  161.6740  206.1040  151.4810 C   0  0  2  0  0  0  0  0  0  0  0  0
  161.9640  204.6240  151.1870 C   0  0  0  0  0  2  0  0  0  0  0  0
  161.6950  202.3950  151.9950 O   0  0  0  0  0  1  0  0  0  0  0  0
  161.0900  203.6520  151.9700 C   0  0  0  0  0  2  0  0  0  0  0  0
  160.8860  206.1990  152.8020 C   0  0  0  0  0  2  0  0  0  0  0  0
  160.8950  209.8580  155.0890 C   0  0  0  0  0  0  0  0  0  0  0  0
  160.6150  209.8990  153.7210 C   0  0  0  0  0  3  0  0  0  0  0  0
  160.6230  208.7240  152.9690 C   0  0  0  0  0  3  0  0  0  0  0  0
  161.1890  207.4520  154.9390 C   0  0  0  0  0  3  0  0  0  0  0  0
  160.9420  207.4960  153.5650 C   0  0  0  0  0  0  0  0  0  0  0  0
  161.1720  208.6240  155.6990 C   0  0  0  0  0  3  0  0  0  0  0  0
  160.8900  211.0500  155.8180 O   0  0  0  0  0  0  0  0  0  0  0  0
  159.4880  212.8780  156.4620 C   0  0  0  0  0  1  0  0  0  0  0  0
  160.2680  212.2360  155.3420 C   0  0  0  0  0  2  0  0  0  0  0  0
  161.7580  207.2510  149.0520 C   0  0  2  0  0  0  0  0  0  0  0  0
  163.0790  206.8100  149.1830 O   0  0  0  0  0  1  0  0  0  0  0  0
  162.1650  209.5500  150.0950 N   0  0  0  0  0  1  0  0  0  0  0  0
  161.7860  208.7600  148.9710 C   0  0  0  0  0  0  0  0  0  0  0  0
  161.4970  209.3320  147.8870 O   0  0  0  0  0  0  0  0  0  0  0  0
  161.1770  206.6650  147.7550 C   0  0  0  0  0  2  0  0  0  0  0  0
  162.1860  206.1040  146.7380 C   0  0  1  0  0  3  0  0  0  0  0  0
  162.5380  204.6410  147.0440 C   0  0  2  0  0  3  0  0  0  0  0  0
  163.4260  204.1530  146.1000 F   0  0  0  0  0  0  0  0  0  0  0  0
  161.3090  203.7270  147.0720 C   0  0  1  0  0  3  0  0  0  0  0  0
  161.4240  202.6580  146.0910 N   0  0  0  0  0  2  0  0  0  0  0  0
  160.7520  203.0610  144.9860 O   0  0  0  0  0  1  0  0  0  0  0  0
  161.1190  203.1880  148.3470 O   0  0  0  0  0  0  0  0  0  0  0  0
  160.2570  201.1950  149.2860 C   0  0  0  0  0  1  0  0  0  0  0  0
  161.0030  201.8140  148.1370 C   0  0  0  0  0  2  0  0  0  0  0  0
  161.7140  206.2370  145.4280 O   0  0  0  0  0  0  0  0  0  0  0  0
  160.3290  206.3660  145.5480 C   0  0  0  0  0  1  0  0  0  0  0  0
  1  2  1  6  0  0  0
  1  4  1  0  0  0  0
  4  3  1  1  0  0  0
  4  8  1  0  0  0  0
  5  4  1  0  0  0  0
  5  7  1  0  0  0  0
  7  6  1  0  0  0  0
  8 13  1  0  0  0  0
  9 14  1  0  0  0  0
  9 15  1  0  0  0  0
 10  9  2  0  0  0  0
 11 13  2  0  0  0  0
 11 10  1  0  0  0  0
 12 14  2  0  0  0  0
 13 12  1  0  0  0  0
 17 15  1  0  0  0  0
 17 16  1  0  0  0  0
 18 19  1  1  0  0  0
 18  1  1  0  0  0  0
 21 18  1  0  0  0  0
 21 20  1  0  0  0  0
 22 21  2  0  0  0  0
 23 18  1  0  0  0  0
 24 25  1  0  0  0  0
 24 23  1  1  0  0  0
 25 26  1  6  0  0  0
 25 27  1  0  0  0  0
 27 28  1  6  0  0  0
 27 30  1  0  0  0  0
 29 28  1  0  0  0  0
 32 30  1  0  0  0  0
 32 31  1  0  0  0  0
 33 34  1  0  0  0  0
 33 24  1  0  0  0  0
M  END
>  <MODEL>
1

>  <REMARK>
 VINA RESULT:      -5.9      0.000      0.000
  Name = 
  17 active torsions:
  status: ('A' for Active; 'I' for Inactive)
    1  A    between atoms: C_1  and  C_18
    2  A    between atoms: C_1  and  C_20
    3  A    between atoms: C_2  and  C_25
    4  A    between atoms: C_2  and  C_32
    5  A    between atoms: O_3  and  C_24
    6  A    between atoms: O_3  and  C_25
    7  A    between atoms: C_5  and  C_20
    8  A    between atoms: C_5  and  C_32
    9  A    between atoms: C_6  and  C_18
   10  A    between atoms: C_6  and  C_28
   11  A    between atoms: C_7  and  O_11
   12  A    between atoms: O_11  and  C_21
   13  A    between atoms: C_12  and  C_20
   14  A    between atoms: C_18  and  C_30
   15  A    between atoms: O_19  and  C_32
   16  A    between atoms: C_25  and  N_27
   17  A    between atoms: C_30  and  C_31
                            x       y       z     vdW  Elec       q    Type
                         _______ _______ _______ _____ _____    ______ ____

>  <TORSDO>
F 17

$$$$
=
 OpenBabel11062409513D

 34 34  0  0  1  0  0  0  0  0999 V2000
  161.8480  207.8920  153.1470 C   0  0  1  0  0  3  0  0  0  0  0  0
  161.5860  206.7760  153.9500 O   0  0  0  0  0  1  0  0  0  0  0  0
  163.0350  206.5160  151.5520 O   0  0  0  0  0  1  0  0  0  0  0  0
  162.0050  207.4550  151.6560 C   0  0  2  0  0  0  0  0  0  0  0  0
  162.3650  208.6690  150.7880 C   0  0  0  0  0  2  0  0  0  0  0  0
  162.5880  208.3430  148.4350 O   0  0  0  0  0  1  0  0  0  0  0  0
  161.6740  208.6890  149.4290 C   0  0  0  0  0  2  0  0  0  0  0  0
  160.7370  206.7950  151.0810 C   0  0  0  0  0  2  0  0  0  0  0  0
  160.8950  202.7880  149.4870 C   0  0  0  0  0  0  0  0  0  0  0  0
  160.7620  202.9790  150.8640 C   0  0  0  0  0  3  0  0  0  0  0  0
  160.7240  204.2700  151.3920 C   0  0  0  0  0  3  0  0  0  0  0  0
  160.9490  205.1960  149.1760 C   0  0  0  0  0  3  0  0  0  0  0  0
  160.8500  205.3880  150.5560 C   0  0  0  0  0  0  0  0  0  0  0  0
  160.9770  203.9050  148.6410 C   0  0  0  0  0  3  0  0  0  0  0  0
  160.9400  201.4850  148.9850 O   0  0  0  0  0  0  0  0  0  0  0  0
  161.6780  200.0930  147.1860 C   0  0  0  0  0  1  0  0  0  0  0  0
  160.7310  201.1860  147.6110 C   0  0  0  0  0  2  0  0  0  0  0  0
  160.8580  209.0400  153.4990 C   0  0  2  0  0  0  0  0  0  0  0  0
  159.8490  209.0890  152.5320 O   0  0  0  0  0  1  0  0  0  0  0  0
  160.8850  211.5530  153.0200 N   0  0  0  0  0  1  0  0  0  0  0  0
  161.5440  210.3870  153.5100 C   0  0  0  0  0  0  0  0  0  0  0  0
  162.7060  210.4920  153.9840 O   0  0  0  0  0  0  0  0  0  0  0  0
  160.2100  208.7680  154.8650 C   0  0  0  0  0  2  0  0  0  0  0  0
  160.1030  209.9630  155.8290 C   0  0  1  0  0  3  0  0  0  0  0  0
  158.6930  210.5710  155.8160 C   0  0  2  0  0  3  0  0  0  0  0  0
  158.3180  210.8850  154.5200 F   0  0  0  0  0  0  0  0  0  0  0  0
  158.5830  211.8370  156.6710 C   0  0  1  0  0  3  0  0  0  0  0  0
  159.2250  212.9710  156.0220 N   0  0  0  0  0  2  0  0  0  0  0  0
  160.2810  213.3230  156.7940 O   0  0  0  0  0  1  0  0  0  0  0  0
  157.2470  212.1370  156.9470 O   0  0  0  0  0  0  0  0  0  0  0  0
  155.5560  213.7090  156.4320 C   0  0  0  0  0  1  0  0  0  0  0  0
  156.9810  213.2860  156.2040 C   0  0  0  0  0  2  0  0  0  0  0  0
  160.4760  209.6020  157.1280 O   0  0  0  0  0  0  0  0  0  0  0  0
  161.2350  208.4400  156.9830 C   0  0  0  0  0  1  0  0  0  0  0  0
  1 18  1  0  0  0  0
  1  2  1  1  0  0  0
  4  3  1  6  0  0  0
  4  1  1  0  0  0  0
  5  4  1  0  0  0  0
  6  7  1  0  0  0  0
  7  5  1  0  0  0  0
  8  4  1  0  0  0  0
  9 10  1  0  0  0  0
 10 11  2  0  0  0  0
 12 13  2  0  0  0  0
 13  8  1  0  0  0  0
 13 11  1  0  0  0  0
 14 12  1  0  0  0  0
 14  9  2  0  0  0  0
 15  9  1  0  0  0  0
 16 17  1  0  0  0  0
 17 15  1  0  0  0  0
 18 19  1  6  0  0  0
 18 21  1  0  0  0  0
 18 23  1  0  0  0  0
 20 21  1  0  0  0  0
 21 22  2  0  0  0  0
 24 23  1  6  0  0  0
 24 33  1  0  0  0  0
 25 26  1  6  0  0  0
 25 24  1  0  0  0  0
 25 27  1  0  0  0  0
 27 28  1  6  0  0  0
 27 30  1  0  0  0  0
 28 29  1  0  0  0  0
 32 31  1  0  0  0  0
 32 30  1  0  0  0  0
 34 33  1  0  0  0  0
M  END
>  <MODEL>
2

>  <REMARK>
 VINA RESULT:      -5.4      3.506      9.494
  Name = 
  17 active torsions:
  status: ('A' for Active; 'I' for Inactive)
    1  A    between atoms: C_1  and  C_18
    2  A    between atoms: C_1  and  C_20
    3  A    between atoms: C_2  and  C_25
    4  A    between atoms: C_2  and  C_32
    5  A    between atoms: O_3  and  C_24
    6  A    between atoms: O_3  and  C_25
    7  A    between atoms: C_5  and  C_20
    8  A    between atoms: C_5  and  C_32
    9  A    between atoms: C_6  and  C_18
   10  A    between atoms: C_6  and  C_28
   11  A    between atoms: C_7  and  O_11
   12  A    between atoms: O_11  and  C_21
   13  A    between atoms: C_12  and  C_20
   14  A    between atoms: C_18  and  C_30
   15  A    between atoms: O_19  and  C_32
   16  A    between atoms: C_25  and  N_27
   17  A    between atoms: C_30  and  C_31
                            x       y       z     vdW  Elec       q    Type
                         _______ _______ _______ _____ _____    ______ ____

>  <TORSDO>
F 17

$$$$
=
 OpenBabel11062409513D

 34 34  0  0  1  0  0  0  0  0999 V2000
  160.9160  207.2510  150.2530 C   0  0  1  0  0  3  0  0  0  0  0  0
  160.1830  206.0710  150.0770 O   0  0  0  0  0  1  0  0  0  0  0  0
  162.8660  206.5250  151.4830 O   0  0  0  0  0  1  0  0  0  0  0  0
  161.6620  207.2190  151.6240 C   0  0  2  0  0  0  0  0  0  0  0  0
  160.8040  206.4950  152.6730 C   0  0  0  0  0  2  0  0  0  0  0  0
  160.8590  204.1110  152.6110 O   0  0  0  0  0  1  0  0  0  0  0  0
  161.4360  205.2230  153.2240 C   0  0  0  0  0  2  0  0  0  0  0  0
  162.0120  208.6220  152.1570 C   0  0  0  0  0  2  0  0  0  0  0  0
  159.1860  210.7940  154.5880 C   0  0  0  0  0  0  0  0  0  0  0  0
  160.1040  209.9360  155.1970 C   0  0  0  0  0  3  0  0  0  0  0  0
  161.0130  209.2170  154.4200 C   0  0  0  0  0  3  0  0  0  0  0  0
  160.1020  210.2060  152.4170 C   0  0  0  0  0  3  0  0  0  0  0  0
  160.9980  209.3220  153.0220 C   0  0  0  0  0  0  0  0  0  0  0  0
  159.1960  210.9360  153.1920 C   0  0  0  0  0  3  0  0  0  0  0  0
  158.2800  211.4950  155.3880 O   0  0  0  0  0  0  0  0  0  0  0  0
  156.1510  212.5130  155.7770 C   0  0  0  0  0  1  0  0  0  0  0  0
  156.8770  211.2680  155.3360 C   0  0  0  0  0  2  0  0  0  0  0  0
  161.7210  207.5720  148.9610 C   0  0  2  0  0  0  0  0  0  0  0  0
  163.0570  207.2010  149.1480 O   0  0  0  0  0  1  0  0  0  0  0  0
  162.3160  210.0000  149.5020 N   0  0  0  0  0  1  0  0  0  0  0  0
  161.6990  209.0480  148.6380 C   0  0  0  0  0  0  0  0  0  0  0  0
  161.1510  209.4470  147.5760 O   0  0  0  0  0  0  0  0  0  0  0  0
  161.1550  206.7670  147.7810 C   0  0  0  0  0  2  0  0  0  0  0  0
  162.1760  206.1790  146.7910 C   0  0  1  0  0  3  0  0  0  0  0  0
  162.5930  204.7560  147.1930 C   0  0  2  0  0  3  0  0  0  0  0  0
  163.5020  204.2460  146.2810 F   0  0  0  0  0  0  0  0  0  0  0  0
  161.4060  203.7930  147.2850 C   0  0  1  0  0  3  0  0  0  0  0  0
  161.5400  202.6980  146.3350 N   0  0  0  0  0  2  0  0  0  0  0  0
  160.8410  203.0470  145.2290 O   0  0  0  0  0  1  0  0  0  0  0  0
  161.2740  203.2880  148.5810 O   0  0  0  0  0  0  0  0  0  0  0  0
  160.1540  201.4370  149.5390 C   0  0  0  0  0  1  0  0  0  0  0  0
  161.0130  201.9290  148.4070 C   0  0  0  0  0  2  0  0  0  0  0  0
  161.6860  206.2010  145.4830 O   0  0  0  0  0  0  0  0  0  0  0  0
  160.3100  206.3960  145.6080 C   0  0  0  0  0  1  0  0  0  0  0  0
  1  2  1  6  0  0  0
  1  4  1  0  0  0  0
  4  3  1  6  0  0  0
  4  8  1  0  0  0  0
  4  5  1  0  0  0  0
  5  7  1  0  0  0  0
  6  7  1  0  0  0  0
  8 13  1  0  0  0  0
  9 10  1  0  0  0  0
  9 15  1  0  0  0  0
 11 10  2  0  0  0  0
 12 13  2  0  0  0  0
 12 14  1  0  0  0  0
 13 11  1  0  0  0  0
 14  9  2  0  0  0  0
 17 15  1  0  0  0  0
 17 16  1  0  0  0  0
 18 19  1  1  0  0  0
 18  1  1  0  0  0  0
 21 18  1  0  0  0  0
 21 20  1  0  0  0  0
 22 21  2  0  0  0  0
 23 18  1  0  0  0  0
 24 25  1  0  0  0  0
 24 23  1  1  0  0  0
 25 26  1  6  0  0  0
 25 27  1  0  0  0  0
 27 28  1  6  0  0  0
 27 30  1  0  0  0  0
 29 28  1  0  0  0  0
 32 30  1  0  0  0  0
 32 31  1  0  0  0  0
 33 34  1  0  0  0  0
 33 24  1  0  0  0  0
M  END
>  <MODEL>
3

>  <REMARK>
 VINA RESULT:      -5.3      1.243      1.725
  Name = 
  17 active torsions:
  status: ('A' for Active; 'I' for Inactive)
    1  A    between atoms: C_1  and  C_18
    2  A    between atoms: C_1  and  C_20
    3  A    between atoms: C_2  and  C_25
    4  A    between atoms: C_2  and  C_32
    5  A    between atoms: O_3  and  C_24
    6  A    between atoms: O_3  and  C_25
    7  A    between atoms: C_5  and  C_20
    8  A    between atoms: C_5  and  C_32
    9  A    between atoms: C_6  and  C_18
   10  A    between atoms: C_6  and  C_28
   11  A    between atoms: C_7  and  O_11
   12  A    between atoms: O_11  and  C_21
   13  A    between atoms: C_12  and  C_20
   14  A    between atoms: C_18  and  C_30
   15  A    between atoms: O_19  and  C_32
   16  A    between atoms: C_25  and  N_27
   17  A    between atoms: C_30  and  C_31
                            x       y       z     vdW  Elec       q    Type
                         _______ _______ _______ _____ _____    ______ ____

>  <TORSDO>
F 17

$$$$
=
 OpenBabel11062409513D

 34 34  0  0  1  0  0  0  0  0999 V2000
  160.4570  209.0820  152.8170 C   0  0  1  0  0  3  0  0  0  0  0  0
  159.7490  210.1260  152.2100 O   0  0  0  0  0  1  0  0  0  0  0  0
  162.6140  209.5670  151.8390 O   0  0  0  0  0  1  0  0  0  0  0  0
  161.6080  208.5990  151.8790 C   0  0  2  0  0  0  0  0  0  0  0  0
  161.0730  208.3940  150.4540 C   0  0  0  0  0  2  0  0  0  0  0  0
  162.5760  208.0860  148.6260 O   0  0  0  0  0  1  0  0  0  0  0  0
  161.9140  209.0610  149.3720 C   0  0  0  0  0  2  0  0  0  0  0  0
  162.2660  207.2880  152.3520 C   0  0  0  0  0  2  0  0  0  0  0  0
  160.7780  203.4760  150.9840 C   0  0  0  0  0  0  0  0  0  0  0  0
  161.2930  204.3880  150.0600 C   0  0  0  0  0  3  0  0  0  0  0  0
  161.7640  205.6290  150.4890 C   0  0  0  0  0  3  0  0  0  0  0  0
  161.2130  205.0640  152.7690 C   0  0  0  0  0  3  0  0  0  0  0  0
  161.6980  205.9890  151.8430 C   0  0  0  0  0  0  0  0  0  0  0  0
  160.7510  203.8150  152.3460 C   0  0  0  0  0  3  0  0  0  0  0  0
  160.3040  202.2430  150.5270 O   0  0  0  0  0  0  0  0  0  0  0  0
  160.6390  201.2980  148.3560 C   0  0  0  0  0  1  0  0  0  0  0  0
  161.1120  201.3380  149.7860 C   0  0  0  0  0  2  0  0  0  0  0  0
  160.7890  209.4540  154.2910 C   0  0  2  0  0  0  0  0  0  0  0  0
  162.0240  210.1100  154.3330 O   0  0  0  0  0  1  0  0  0  0  0  0
  161.8730  208.1440  156.2020 N   0  0  0  0  0  1  0  0  0  0  0  0
  160.8930  208.2290  155.1690 C   0  0  0  0  0  0  0  0  0  0  0  0
  160.0870  207.2740  155.0080 O   0  0  0  0  0  0  0  0  0  0  0  0
  159.7150  210.4060  154.8420 C   0  0  0  0  0  2  0  0  0  0  0  0
  160.2090  211.7430  155.4230 C   0  0  1  0  0  3  0  0  0  0  0  0
  159.4380  212.9310  154.8300 C   0  0  2  0  0  3  0  0  0  0  0  0
  159.3790  213.9700  155.7450 F   0  0  0  0  0  0  0  0  0  0  0  0
  158.0100  212.5670  154.4170 C   0  0  1  0  0  3  0  0  0  0  0  0
  157.1540  212.3810  155.5790 N   0  0  0  0  0  2  0  0  0  0  0  0
  156.0140  211.7960  155.1420 O   0  0  0  0  0  1  0  0  0  0  0  0
  157.4700  213.5450  153.5770 O   0  0  0  0  0  0  0  0  0  0  0  0
  158.2740  213.0340  151.4120 C   0  0  0  0  0  1  0  0  0  0  0  0
  158.4870  213.8330  152.6680 C   0  0  0  0  0  2  0  0  0  0  0  0
  160.1320  211.7480  156.8190 O   0  0  0  0  0  0  0  0  0  0  0  0
  161.4380  211.5350  157.2600 C   0  0  0  0  0  1  0  0  0  0  0  0
  1  2  1  6  0  0  0
  1 18  1  0  0  0  0
  4  3  1  6  0  0  0
  4  8  1  0  0  0  0
  4  1  1  0  0  0  0
  5  4  1  0  0  0  0
  6  7  1  0  0  0  0
  7  5  1  0  0  0  0
  9 14  1  0  0  0  0
 10 11  1  0  0  0  0
 10  9  2  0  0  0  0
 11 13  2  0  0  0  0
 13  8  1  0  0  0  0
 13 12  1  0  0  0  0
 14 12  2  0  0  0  0
 15  9  1  0  0  0  0
 16 17  1  0  0  0  0
 17 15  1  0  0  0  0
 18 19  1  1  0  0  0
 18 23  1  0  0  0  0
 18 21  1  0  0  0  0
 21 20  1  0  0  0  0
 22 21  2  0  0  0  0
 24 23  1  6  0  0  0
 24 33  1  0  0  0  0
 25 24  1  0  0  0  0
 25 26  1  1  0  0  0
 27 30  1  6  0  0  0
 27 25  1  0  0  0  0
 27 28  1  0  0  0  0
 29 28  1  0  0  0  0
 31 32  1  0  0  0  0
 32 30  1  0  0  0  0
 33 34  1  0  0  0  0
M  END
>  <MODEL>
4

>  <REMARK>
 VINA RESULT:      -5.2      4.017      9.155
  Name = 
  17 active torsions:
  status: ('A' for Active; 'I' for Inactive)
    1  A    between atoms: C_1  and  C_18
    2  A    between atoms: C_1  and  C_20
    3  A    between atoms: C_2  and  C_25
    4  A    between atoms: C_2  and  C_32
    5  A    between atoms: O_3  and  C_24
    6  A    between atoms: O_3  and  C_25
    7  A    between atoms: C_5  and  C_20
    8  A    between atoms: C_5  and  C_32
    9  A    between atoms: C_6  and  C_18
   10  A    between atoms: C_6  and  C_28
   11  A    between atoms: C_7  and  O_11
   12  A    between atoms: O_11  and  C_21
   13  A    between atoms: C_12  and  C_20
   14  A    between atoms: C_18  and  C_30
   15  A    between atoms: O_19  and  C_32
   16  A    between atoms: C_25  and  N_27
   17  A    between atoms: C_30  and  C_31
                            x       y       z     vdW  Elec       q    Type
                         _______ _______ _______ _____ _____    ______ ____

>  <TORSDO>
F 17

$$$$
=
 OpenBabel11062409513D

 34 34  0  0  1  0  0  0  0  0999 V2000
  161.4590  207.9120  153.8830 C   0  0  1  0  0  3  0  0  0  0  0  0
  160.5610  206.9980  154.4470 O   0  0  0  0  0  1  0  0  0  0  0  0
  162.7130  207.2920  151.9120 O   0  0  0  0  0  1  0  0  0  0  0  0
  161.4670  207.7670  152.3290 C   0  0  2  0  0  0  0  0  0  0  0  0
  161.2240  209.1340  151.6720 C   0  0  0  0  0  2  0  0  0  0  0  0
  161.9370  209.6830  149.4620 O   0  0  0  0  0  1  0  0  0  0  0  0
  162.3690  209.6110  150.7870 C   0  0  0  0  0  2  0  0  0  0  0  0
  160.4100  206.7740  151.8070 C   0  0  0  0  0  2  0  0  0  0  0  0
  161.2730  204.3420  148.3490 C   0  0  0  0  0  0  0  0  0  0  0  0
  161.2400  203.7550  149.6150 C   0  0  0  0  0  3  0  0  0  0  0  0
  160.9770  204.5340  150.7420 C   0  0  0  0  0  3  0  0  0  0  0  0
  160.7730  206.4960  149.3530 C   0  0  0  0  0  3  0  0  0  0  0  0
  160.7730  205.9160  150.6230 C   0  0  0  0  0  0  0  0  0  0  0  0
  161.0260  205.7180  148.2200 C   0  0  0  0  0  3  0  0  0  0  0  0
  161.5490  203.5410  147.2370 O   0  0  0  0  0  0  0  0  0  0  0  0
  162.9790  204.5960  145.6360 C   0  0  0  0  0  1  0  0  0  0  0  0
  161.5980  204.0590  145.9140 C   0  0  0  0  0  2  0  0  0  0  0  0
  161.2430  209.3200  154.5110 C   0  0  2  0  0  0  0  0  0  0  0  0
  161.7170  210.2950  153.6260 O   0  0  0  0  0  1  0  0  0  0  0  0
  161.8510  208.5320  156.8670 N   0  0  0  0  0  1  0  0  0  0  0  0
  162.0000  209.4770  155.8100 C   0  0  0  0  0  0  0  0  0  0  0  0
  162.7970  210.4420  155.9560 O   0  0  0  0  0  0  0  0  0  0  0  0
  159.7440  209.5630  154.7430 C   0  0  0  0  0  2  0  0  0  0  0  0
  159.3030  211.0240  154.9440 C   0  0  1  0  0  3  0  0  0  0  0  0
  158.4050  211.5030  153.7950 C   0  0  2  0  0  3  0  0  0  0  0  0
  158.4410  210.5970  152.7470 F   0  0  0  0  0  0  0  0  0  0  0  0
  158.8090  212.8800  153.2590 C   0  0  1  0  0  3  0  0  0  0  0  0
  159.0860  213.8090  154.3440 N   0  0  0  0  0  2  0  0  0  0  0  0
  157.8920  214.2690  154.7870 O   0  0  0  0  0  1  0  0  0  0  0  0
  159.9210  212.7800  152.4180 O   0  0  0  0  0  0  0  0  0  0  0  0
  158.3480  213.3900  150.7600 C   0  0  0  0  0  1  0  0  0  0  0  0
  159.6760  213.6960  151.3960 C   0  0  0  0  0  2  0  0  0  0  0  0
  158.6670  211.1970  156.1770 O   0  0  0  0  0  0  0  0  0  0  0  0
  159.6370  211.7420  157.0190 C   0  0  0  0  0  1  0  0  0  0  0  0
  1  2  1  1  0  0  0
  1 18  1  0  0  0  0
  4  3  1  6  0  0  0
  4  1  1  0  0  0  0
  5  4  1  0  0  0  0
  6  7  1  0  0  0  0
  7  5  1  0  0  0  0
  8  4  1  0  0  0  0
  9 10  1  0  0  0  0
 10 11  2  0  0  0  0
 12 13  2  0  0  0  0
 13 11  1  0  0  0  0
 13  8  1  0  0  0  0
 14  9  2  0  0  0  0
 14 12  1  0  0  0  0
 15  9  1  0  0  0  0
 16 17  1  0  0  0  0
 17 15  1  0  0  0  0
 18 19  1  6  0  0  0
 18 23  1  0  0  0  0
 18 21  1  0  0  0  0
 21 22  2  0  0  0  0
 21 20  1  0  0  0  0
 24 23  1  6  0  0  0
 24 33  1  0  0  0  0
 25 26  1  6  0  0  0
 25 24  1  0  0  0  0
 27 30  1  6  0  0  0
 27 25  1  0  0  0  0
 27 28  1  0  0  0  0
 28 29  1  0  0  0  0
 31 32  1  0  0  0  0
 32 30  1  0  0  0  0
 33 34  1  0  0  0  0
M  END
>  <MODEL>
5

>  <REMARK>
 VINA RESULT:      -5.2      3.567      9.082
  Name = 
  17 active torsions:
  status: ('A' for Active; 'I' for Inactive)
    1  A    between atoms: C_1  and  C_18
    2  A    between atoms: C_1  and  C_20
    3  A    between atoms: C_2  and  C_25
    4  A    between atoms: C_2  and  C_32
    5  A    between atoms: O_3  and  C_24
    6  A    between atoms: O_3  and  C_25
    7  A    between atoms: C_5  and  C_20
    8  A    between atoms: C_5  and  C_32
    9  A    between atoms: C_6  and  C_18
   10  A    between atoms: C_6  and  C_28
   11  A    between atoms: C_7  and  O_11
   12  A    between atoms: O_11  and  C_21
   13  A    between atoms: C_12  and  C_20
   14  A    between atoms: C_18  and  C_30
   15  A    between atoms: O_19  and  C_32
   16  A    between atoms: C_25  and  N_27
   17  A    between atoms: C_30  and  C_31
                            x       y       z     vdW  Elec       q    Type
                         _______ _______ _______ _____ _____    ______ ____

>  <TORSDO>
F 17

$$$$
=
 OpenBabel11062409513D

 34 34  0  0  1  0  0  0  0  0999 V2000
  160.6480  208.2040  151.8830 C   0  0  1  0  0  3  0  0  0  0  0  0
  160.5790  209.4280  151.2070 O   0  0  0  0  0  1  0  0  0  0  0  0
  162.7360  207.2000  151.1920 O   0  0  0  0  0  1  0  0  0  0  0  0
  161.3550  207.1370  150.9900 C   0  0  2  0  0  0  0  0  0  0  0  0
  161.0680  207.4190  149.5070 C   0  0  0  0  0  2  0  0  0  0  0  0
  162.0410  209.3750  148.5480 O   0  0  0  0  0  1  0  0  0  0  0  0
  162.2480  208.0100  148.7460 C   0  0  0  0  0  2  0  0  0  0  0  0
  160.9200  205.6930  151.3100 C   0  0  0  0  0  2  0  0  0  0  0  0
  161.0230  202.7290  148.1760 C   0  0  0  0  0  0  0  0  0  0  0  0
  161.4500  204.0310  147.9090 C   0  0  0  0  0  3  0  0  0  0  0  0
  161.4080  205.0020  148.9110 C   0  0  0  0  0  3  0  0  0  0  0  0
  160.5140  203.3820  150.4590 C   0  0  0  0  0  3  0  0  0  0  0  0
  160.9100  204.6930  150.1840 C   0  0  0  0  0  0  0  0  0  0  0  0
  160.5650  202.4040  149.4630 C   0  0  0  0  0  3  0  0  0  0  0  0
  161.0670  201.7780  147.1530 O   0  0  0  0  0  0  0  0  0  0  0  0
  159.8840  201.3570  145.1180 C   0  0  0  0  0  1  0  0  0  0  0  0
  160.9970  202.1290  145.7770 C   0  0  0  0  0  2  0  0  0  0  0  0
  161.1570  208.4300  153.3370 C   0  0  2  0  0  0  0  0  0  0  0  0
  162.4920  208.8460  153.2970 O   0  0  0  0  0  1  0  0  0  0  0  0
  160.0100  206.9050  155.0410 N   0  0  0  0  0  1  0  0  0  0  0  0
  161.0990  207.1610  154.1560 C   0  0  0  0  0  0  0  0  0  0  0  0
  162.0100  206.3000  154.0390 O   0  0  0  0  0  0  0  0  0  0  0  0
  160.3260  209.5310  154.0130 C   0  0  0  0  0  2  0  0  0  0  0  0
  161.0410  210.8660  154.2900 C   0  0  1  0  0  3  0  0  0  0  0  0
  160.1710  212.0640  153.8840 C   0  0  2  0  0  3  0  0  0  0  0  0
  159.9380  212.8810  154.9790 F   0  0  0  0  0  0  0  0  0  0  0  0
  158.8210  211.6460  153.2960 C   0  0  1  0  0  3  0  0  0  0  0  0
  157.7590  211.7430  154.2870 N   0  0  0  0  0  2  0  0  0  0  0  0
  157.1630  212.9460  154.1120 O   0  0  0  0  0  1  0  0  0  0  0  0
  158.5040  212.4220  152.1780 O   0  0  0  0  0  0  0  0  0  0  0  0
  159.6030  214.0660  150.8800 C   0  0  0  0  0  1  0  0  0  0  0  0
  159.7360  212.7670  151.6240 C   0  0  0  0  0  2  0  0  0  0  0  0
  161.4290  210.9650  155.6300 O   0  0  0  0  0  0  0  0  0  0  0  0
  160.4850  210.2250  156.3430 C   0  0  0  0  0  1  0  0  0  0  0  0
  1  2  1  6  0  0  0
  1 18  1  0  0  0  0
  4  3  1  1  0  0  0
  4  8  1  0  0  0  0
  4  1  1  0  0  0  0
  5  4  1  0  0  0  0
  6  7  1  0  0  0  0
  7  5  1  0  0  0  0
  9 14  1  0  0  0  0
 10  9  2  0  0  0  0
 10 11  1  0  0  0  0
 11 13  2  0  0  0  0
 13 12  1  0  0  0  0
 13  8  1  0  0  0  0
 14 12  2  0  0  0  0
 15  9  1  0  0  0  0
 16 17  1  0  0  0  0
 17 15  1  0  0  0  0
 18 19  1  6  0  0  0
 18 23  1  0  0  0  0
 18 21  1  0  0  0  0
 21 20  1  0  0  0  0
 22 21  2  0  0  0  0
 24 23  1  1  0  0  0
 24 33  1  0  0  0  0
 25 24  1  0  0  0  0
 25 26  1  1  0  0  0
 27 30  1  6  0  0  0
 27 25  1  0  0  0  0
 27 28  1  0  0  0  0
 29 28  1  0  0  0  0
 31 32  1  0  0  0  0
 32 30  1  0  0  0  0
 33 34  1  0  0  0  0
M  END
>  <MODEL>
6

>  <REMARK>
 VINA RESULT:      -5.0      3.535      9.021
  Name = 
  17 active torsions:
  status: ('A' for Active; 'I' for Inactive)
    1  A    between atoms: C_1  and  C_18
    2  A    between atoms: C_1  and  C_20
    3  A    between atoms: C_2  and  C_25
    4  A    between atoms: C_2  and  C_32
    5  A    between atoms: O_3  and  C_24
    6  A    between atoms: O_3  and  C_25
    7  A    between atoms: C_5  and  C_20
    8  A    between atoms: C_5  and  C_32
    9  A    between atoms: C_6  and  C_18
   10  A    between atoms: C_6  and  C_28
   11  A    between atoms: C_7  and  O_11
   12  A    between atoms: O_11  and  C_21
   13  A    between atoms: C_12  and  C_20
   14  A    between atoms: C_18  and  C_30
   15  A    between atoms: O_19  and  C_32
   16  A    between atoms: C_25  and  N_27
   17  A    between atoms: C_30  and  C_31
                            x       y       z     vdW  Elec       q    Type
                         _______ _______ _______ _____ _____    ______ ____

>  <TORSDO>
F 17

$$$$
=
 OpenBabel11062409513D

 34 34  0  0  1  0  0  0  0  0999 V2000
  160.9620  207.5180  149.8910 C   0  0  1  0  0  3  0  0  0  0  0  0
  161.2580  208.6250  149.0870 O   0  0  0  0  0  1  0  0  0  0  0  0
  162.5920  206.0700  148.8470 O   0  0  0  0  0  1  0  0  0  0  0  0
  161.2240  206.1970  149.1030 C   0  0  2  0  0  0  0  0  0  0  0  0
  160.4790  206.2290  147.7600 C   0  0  0  0  0  2  0  0  0  0  0  0
  160.7160  205.9780  145.3990 O   0  0  0  0  0  1  0  0  0  0  0  0
  161.3890  206.3920  146.5480 C   0  0  0  0  0  2  0  0  0  0  0  0
  160.7940  204.9340  149.8750 C   0  0  0  0  0  2  0  0  0  0  0  0
  161.2580  201.0830  147.9870 C   0  0  0  0  0  0  0  0  0  0  0  0
  161.5570  202.2440  147.2700 C   0  0  0  0  0  3  0  0  0  0  0  0
  161.3970  203.4950  147.8650 C   0  0  0  0  0  3  0  0  0  0  0  0
  160.6400  202.4430  149.9000 C   0  0  0  0  0  3  0  0  0  0  0  0
  160.9070  203.6060  149.1740 C   0  0  0  0  0  0  0  0  0  0  0  0
  160.8090  201.1870  149.3120 C   0  0  0  0  0  3  0  0  0  0  0  0
  161.4180  199.8410  147.3640 O   0  0  0  0  0  0  0  0  0  0  0  0
  161.5790  198.2620  145.5750 C   0  0  0  0  0  1  0  0  0  0  0  0
  161.0820  199.6200  146.0000 C   0  0  0  0  0  2  0  0  0  0  0  0
  161.6020  207.7000  151.2980 C   0  0  2  0  0  0  0  0  0  0  0  0
  162.8170  208.3790  151.1650 O   0  0  0  0  0  1  0  0  0  0  0  0
  160.8450  205.5940  152.5360 N   0  0  0  0  0  1  0  0  0  0  0  0
  161.8910  206.3720  151.9590 C   0  0  0  0  0  0  0  0  0  0  0  0
  163.0700  205.9290  151.9790 O   0  0  0  0  0  0  0  0  0  0  0  0
  160.6720  208.5390  152.1880 C   0  0  0  0  0  2  0  0  0  0  0  0
  161.2040  208.9160  153.5820 C   0  0  1  0  0  3  0  0  0  0  0  0
  161.2300  210.4390  153.7810 C   0  0  2  0  0  3  0  0  0  0  0  0
  162.1560  210.7810  154.7530 F   0  0  0  0  0  0  0  0  0  0  0  0
  159.8680  211.0080  154.1880 C   0  0  1  0  0  3  0  0  0  0  0  0
  159.6630  210.9110  155.6260 N   0  0  0  0  0  2  0  0  0  0  0  0
  158.4260  211.3990  155.8830 O   0  0  0  0  0  1  0  0  0  0  0  0
  159.7400  212.3360  153.7750 O   0  0  0  0  0  0  0  0  0  0  0  0
  158.5910  212.6380  151.7290 C   0  0  0  0  0  1  0  0  0  0  0  0
  159.8970  212.2930  152.3900 C   0  0  0  0  0  2  0  0  0  0  0  0
  160.4640  208.2960  154.5930 O   0  0  0  0  0  0  0  0  0  0  0  0
  161.4090  207.7100  155.4360 C   0  0  0  0  0  1  0  0  0  0  0  0
  1  2  1  6  0  0  0
  1 18  1  0  0  0  0
  4  3  1  6  0  0  0
  4  8  1  0  0  0  0
  4  1  1  0  0  0  0
  5  4  1  0  0  0  0
  6  7  1  0  0  0  0
  7  5  1  0  0  0  0
  9 14  1  0  0  0  0
 10 11  1  0  0  0  0
 10  9  2  0  0  0  0
 11 13  2  0  0  0  0
 13  8  1  0  0  0  0
 13 12  1  0  0  0  0
 14 12  2  0  0  0  0
 15  9  1  0  0  0  0
 16 17  1  0  0  0  0
 17 15  1  0  0  0  0
 18 19  1  6  0  0  0
 18 21  1  0  0  0  0
 18 23  1  0  0  0  0
 21 22  2  0  0  0  0
 21 20  1  0  0  0  0
 24 23  1  6  0  0  0
 24 25  1  0  0  0  0
 24 33  1  0  0  0  0
 25 27  1  0  0  0  0
 25 26  1  1  0  0  0
 27 30  1  1  0  0  0
 27 28  1  0  0  0  0
 28 29  1  0  0  0  0
 31 32  1  0  0  0  0
 32 30  1  0  0  0  0
 33 34  1  0  0  0  0
M  END
>  <MODEL>
7

>  <REMARK>
 VINA RESULT:      -5.0      2.974      9.055
  Name = 
  17 active torsions:
  status: ('A' for Active; 'I' for Inactive)
    1  A    between atoms: C_1  and  C_18
    2  A    between atoms: C_1  and  C_20
    3  A    between atoms: C_2  and  C_25
    4  A    between atoms: C_2  and  C_32
    5  A    between atoms: O_3  and  C_24
    6  A    between atoms: O_3  and  C_25
    7  A    between atoms: C_5  and  C_20
    8  A    between atoms: C_5  and  C_32
    9  A    between atoms: C_6  and  C_18
   10  A    between atoms: C_6  and  C_28
   11  A    between atoms: C_7  and  O_11
   12  A    between atoms: O_11  and  C_21
   13  A    between atoms: C_12  and  C_20
   14  A    between atoms: C_18  and  C_30
   15  A    between atoms: O_19  and  C_32
   16  A    between atoms: C_25  and  N_27
   17  A    between atoms: C_30  and  C_31
                            x       y       z     vdW  Elec       q    Type
                         _______ _______ _______ _____ _____    ______ ____

>  <TORSDO>
F 17

$$$$
=
 OpenBabel11062409513D

 34 34  0  0  1  0  0  0  0  0999 V2000
  162.3360  207.1170  150.9400 C   0  0  1  0  0  3  0  0  0  0  0  0
  163.2730  207.0450  149.9020 O   0  0  0  0  0  1  0  0  0  0  0  0
  160.3530  208.4430  151.3310 O   0  0  0  0  0  1  0  0  0  0  0  0
  161.7050  208.5440  150.9930 C   0  0  2  0  0  0  0  0  0  0  0  0
  161.8130  209.2190  149.6180 C   0  0  0  0  0  2  0  0  0  0  0  0
  161.7610  211.3250  148.4970 O   0  0  0  0  0  1  0  0  0  0  0  0
  162.1650  210.7010  149.6780 C   0  0  0  0  0  2  0  0  0  0  0  0
  162.3630  209.4590  152.0450 C   0  0  0  0  0  2  0  0  0  0  0  0
  159.7560  210.8820  155.1750 C   0  0  0  0  0  0  0  0  0  0  0  0
  159.8810  211.6150  153.9930 C   0  0  0  0  0  3  0  0  0  0  0  0
  160.7310  211.1730  152.9800 C   0  0  0  0  0  3  0  0  0  0  0  0
  161.3430  209.2580  154.3140 C   0  0  0  0  0  3  0  0  0  0  0  0
  161.4930  210.0080  153.1450 C   0  0  0  0  0  0  0  0  0  0  0  0
  160.4840  209.6910  155.3270 C   0  0  0  0  0  3  0  0  0  0  0  0
  158.9040  211.3520  156.1790 O   0  0  0  0  0  0  0  0  0  0  0  0
  157.2090  213.0290  155.9950 C   0  0  0  0  0  1  0  0  0  0  0  0
  158.6390  212.7350  156.3720 C   0  0  0  0  0  2  0  0  0  0  0  0
  161.3990  205.8760  150.8940 C   0  0  2  0  0  0  0  0  0  0  0  0
  160.1340  206.2720  150.4470 O   0  0  0  0  0  1  0  0  0  0  0  0
  160.7630  203.9120  152.4050 N   0  0  0  0  0  1  0  0  0  0  0  0
  161.2250  205.2540  152.2600 C   0  0  0  0  0  0  0  0  0  0  0  0
  161.5160  205.9170  153.2900 O   0  0  0  0  0  0  0  0  0  0  0  0
  161.9580  204.8370  149.9100 C   0  0  0  0  0  2  0  0  0  0  0  0
  161.1130  204.5460  148.6570 C   0  0  1  0  0  3  0  0  0  0  0  0
  161.9930  204.4010  147.4070 C   0  0  2  0  0  3  0  0  0  0  0  0
  162.8390  205.4920  147.2860 F   0  0  0  0  0  0  0  0  0  0  0  0
  161.1780  204.2760  146.1170 C   0  0  1  0  0  3  0  0  0  0  0  0
  161.2800  205.4810  145.3070 N   0  0  0  0  0  2  0  0  0  0  0  0
  160.1960  206.2410  145.5900 O   0  0  0  0  0  1  0  0  0  0  0  0
  161.5880  203.1650  145.3750 O   0  0  0  0  0  0  0  0  0  0  0  0
  159.8070  201.6700  144.9430 C   0  0  0  0  0  1  0  0  0  0  0  0
  160.8730  202.0960  145.9130 C   0  0  0  0  0  2  0  0  0  0  0  0
  160.3140  203.4130  148.8360 O   0  0  0  0  0  0  0  0  0  0  0  0
  161.1530  202.4580  149.4100 C   0  0  0  0  0  1  0  0  0  0  0  0
  1  2  1  6  0  0  0
  1  4  1  0  0  0  0
  4  3  1  1  0  0  0
  4  8  1  0  0  0  0
  5  7  1  0  0  0  0
  5  4  1  0  0  0  0
  6  7  1  0  0  0  0
  8 13  1  0  0  0  0
  9 14  1  0  0  0  0
  9 15  1  0  0  0  0
 10  9  2  0  0  0  0
 11 13  2  0  0  0  0
 11 10  1  0  0  0  0
 12 14  2  0  0  0  0
 13 12  1  0  0  0  0
 15 17  1  0  0  0  0
 16 17  1  0  0  0  0
 18 19  1  6  0  0  0
 18  1  1  0  0  0  0
 18 21  1  0  0  0  0
 21 20  1  0  0  0  0
 21 22  2  0  0  0  0
 23 18  1  0  0  0  0
 24 33  1  0  0  0  0
 24 23  1  1  0  0  0
 25 26  1  6  0  0  0
 25 24  1  0  0  0  0
 27 28  1  6  0  0  0
 27 25  1  0  0  0  0
 28 29  1  0  0  0  0
 30 32  1  0  0  0  0
 30 27  1  0  0  0  0
 31 32  1  0  0  0  0
 33 34  1  0  0  0  0
M  END
>  <MODEL>
8

>  <REMARK>
 VINA RESULT:      -4.9      1.996      3.832
  Name = 
  17 active torsions:
  status: ('A' for Active; 'I' for Inactive)
    1  A    between atoms: C_1  and  C_18
    2  A    between atoms: C_1  and  C_20
    3  A    between atoms: C_2  and  C_25
    4  A    between atoms: C_2  and  C_32
    5  A    between atoms: O_3  and  C_24
    6  A    between atoms: O_3  and  C_25
    7  A    between atoms: C_5  and  C_20
    8  A    between atoms: C_5  and  C_32
    9  A    between atoms: C_6  and  C_18
   10  A    between atoms: C_6  and  C_28
   11  A    between atoms: C_7  and  O_11
   12  A    between atoms: O_11  and  C_21
   13  A    between atoms: C_12  and  C_20
   14  A    between atoms: C_18  and  C_30
   15  A    between atoms: O_19  and  C_32
   16  A    between atoms: C_25  and  N_27
   17  A    between atoms: C_30  and  C_31
                            x       y       z     vdW  Elec       q    Type
                         _______ _______ _______ _____ _____    ______ ____

>  <TORSDO>
F 17

$$$$
=
 OpenBabel11062409513D

 34 34  0  0  1  0  0  0  0  0999 V2000
  162.1980  205.5600  149.3550 C   0  0  1  0  0  3  0  0  0  0  0  0
  162.2020  205.4730  147.9580 O   0  0  0  0  0  1  0  0  0  0  0  0
  160.6030  207.2850  149.9270 O   0  0  0  0  0  1  0  0  0  0  0  0
  161.9730  207.0400  149.7990 C   0  0  2  0  0  0  0  0  0  0  0  0
  162.5410  207.9980  148.7420 C   0  0  0  0  0  2  0  0  0  0  0  0
  162.2060  210.3540  148.5650 O   0  0  0  0  0  1  0  0  0  0  0  0
  161.5910  209.1220  148.3460 C   0  0  0  0  0  2  0  0  0  0  0  0
  162.6160  207.3700  151.1610 C   0  0  0  0  0  2  0  0  0  0  0  0
  160.4630  209.7540  154.0420 C   0  0  0  0  0  0  0  0  0  0  0  0
  160.5250  208.3680  154.2000 C   0  0  0  0  0  3  0  0  0  0  0  0
  161.2060  207.5850  153.2670 C   0  0  0  0  0  3  0  0  0  0  0  0
  161.7740  209.5620  152.0070 C   0  0  0  0  0  3  0  0  0  0  0  0
  161.8080  208.1730  152.1460 C   0  0  0  0  0  0  0  0  0  0  0  0
  161.1030  210.3510  152.9440 C   0  0  0  0  0  3  0  0  0  0  0  0
  159.7660  210.5140  154.9850 O   0  0  0  0  0  0  0  0  0  0  0  0
  161.3770  211.0200  156.6790 C   0  0  0  0  0  1  0  0  0  0  0  0
  160.3700  211.5800  155.7070 C   0  0  0  0  0  2  0  0  0  0  0  0
  161.2930  204.4450  149.9530 C   0  0  2  0  0  0  0  0  0  0  0  0
  159.9510  204.7910  149.7620 O   0  0  0  0  0  1  0  0  0  0  0  0
  160.4550  203.8610  152.2980 N   0  0  0  0  0  1  0  0  0  0  0  0
  161.5140  204.2780  151.4390 C   0  0  0  0  0  0  0  0  0  0  0  0
  162.6560  204.4850  151.9270 O   0  0  0  0  0  0  0  0  0  0  0  0
  161.5580  203.1150  149.2290 C   0  0  0  0  0  2  0  0  0  0  0  0
  160.3770  202.4990  148.4590 C   0  0  1  0  0  3  0  0  0  0  0  0
  160.8590  201.5030  147.3950 C   0  0  2  0  0  3  0  0  0  0  0  0
  162.0450  200.9090  147.7950 F   0  0  0  0  0  0  0  0  0  0  0  0
  161.0810  202.1540  146.0270 C   0  0  1  0  0  3  0  0  0  0  0  0
  160.0130  201.8120  145.0990 N   0  0  0  0  0  2  0  0  0  0  0  0
  160.0690  200.4730  144.9080 O   0  0  0  0  0  1  0  0  0  0  0  0
  161.1830  203.5430  146.1480 O   0  0  0  0  0  0  0  0  0  0  0  0
  160.8460  205.5300  144.9100 C   0  0  0  0  0  1  0  0  0  0  0  0
  160.9320  204.0290  144.8660 C   0  0  0  0  0  2  0  0  0  0  0  0
  159.4640  201.8950  149.3280 O   0  0  0  0  0  0  0  0  0  0  0  0
  160.2070  200.9610  150.0520 C   0  0  0  0  0  1  0  0  0  0  0  0
  1  2  1  6  0  0  0
  1  4  1  0  0  0  0
  1 18  1  0  0  0  0
  4  3  1  1  0  0  0
  4  8  1  0  0  0  0
  5  4  1  0  0  0  0
  7  6  1  0  0  0  0
  7  5  1  0  0  0  0
  8 13  1  0  0  0  0
  9 10  1  0  0  0  0
  9 15  1  0  0  0  0
 11 10  2  0  0  0  0
 12 13  2  0  0  0  0
 12 14  1  0  0  0  0
 13 11  1  0  0  0  0
 14  9  2  0  0  0  0
 15 17  1  0  0  0  0
 17 16  1  0  0  0  0
 18 19  1  6  0  0  0
 18 21  1  0  0  0  0
 21 22  2  0  0  0  0
 21 20  1  0  0  0  0
 23 18  1  0  0  0  0
 24 23  1  1  0  0  0
 24 33  1  0  0  0  0
 25 26  1  1  0  0  0
 25 24  1  0  0  0  0
 27 28  1  6  0  0  0
 27 30  1  0  0  0  0
 27 25  1  0  0  0  0
 29 28  1  0  0  0  0
 32 31  1  0  0  0  0
 32 30  1  0  0  0  0
 33 34  1  0  0  0  0
M  END
>  <MODEL>
9

>  <REMARK>
 VINA RESULT:      -4.8      2.000      4.081
  Name = 
  17 active torsions:
  status: ('A' for Active; 'I' for Inactive)
    1  A    between atoms: C_1  and  C_18
    2  A    between atoms: C_1  and  C_20
    3  A    between atoms: C_2  and  C_25
    4  A    between atoms: C_2  and  C_32
    5  A    between atoms: O_3  and  C_24
    6  A    between atoms: O_3  and  C_25
    7  A    between atoms: C_5  and  C_20
    8  A    between atoms: C_5  and  C_32
    9  A    between atoms: C_6  and  C_18
   10  A    between atoms: C_6  and  C_28
   11  A    between atoms: C_7  and  O_11
   12  A    between atoms: O_11  and  C_21
   13  A    between atoms: C_12  and  C_20
   14  A    between atoms: C_18  and  C_30
   15  A    between atoms: O_19  and  C_32
   16  A    between atoms: C_25  and  N_27
   17  A    between atoms: C_30  and  C_31
                            x       y       z     vdW  Elec       q    Type
                         _______ _______ _______ _____ _____    ______ ____

>  <TORSDO>
F 17

$$$$
