=
 OpenBabel11052422493D

 28 31  0  0  1  0  0  0  0  0999 V2000
  160.1280  203.7400  145.2480 C   0  0  1  0  0  3  0  0  0  0  0  0
  160.9350  204.3200  144.2270 O   0  0  0  0  0  0  0  0  0  0  0  0
  161.9340  205.2490  144.4970 C   0  0  0  0  0  0  0  0  0  0  0  0
  161.5600  199.2370  146.2360 C   0  0  0  0  0  1  0  0  0  0  0  0
  162.3980  205.9550  143.5660 O   0  0  0  0  0  0  0  0  0  0  0  0
  162.7060  203.6860  146.5450 S   0  0  0  0  0  0  0  0  0  0  0  0
  162.4980  205.3650  145.8670 C   0  0  2  0  0  3  0  0  0  0  0  0
  160.8780  201.6290  146.0830 C   0  0  0  0  0  0  0  0  0  0  0  0
  159.8460  201.4600  145.0830 C   0  0  0  0  0  0  0  0  0  0  0  0
  161.6550  200.6750  146.6110 C   0  0  0  0  0  3  0  0  0  0  0  0
  159.4130  200.3630  144.6430 O   0  0  0  0  0  0  0  0  0  0  0  0
  159.3710  202.6830  144.6700 O   0  0  0  0  0  0  0  0  0  0  0  0
  160.9430  203.1010  146.4240 C   0  0  2  0  0  0  0  0  0  0  0  0
  161.6520  206.2470  146.7740 C   0  0  0  0  0  3  0  0  0  0  0  0
  162.4590  207.2080  147.3540 F   0  0  0  0  0  0  0  0  0  0  0  0
  160.6630  206.8810  146.0440 F   0  0  0  0  0  0  0  0  0  0  0  0
  160.2100  203.3870  147.6090 O   0  0  0  0  0  0  0  0  0  0  0  0
  160.3920  205.4000  149.4850 C   0  0  0  0  0  2  0  0  0  0  0  0
  160.9000  203.7130  151.2090 C   0  0  2  0  0  3  0  0  0  0  0  0
  160.9070  202.9540  148.7560 C   0  0  1  0  0  3  0  0  0  0  0  0
  161.2060  206.1450  151.7130 C   0  0  0  0  0  0  0  0  0  0  0  0
  161.1700  204.1090  149.7540 C   0  0  1  0  0  3  0  0  0  0  0  0
  160.9810  201.2570  150.6240 C   0  0  0  0  0  2  0  0  0  0  0  0
  161.3710  204.7710  152.0950 N   0  0  0  0  0  2  0  0  0  0  0  0
  161.5360  202.3680  151.5340 C   0  0  0  0  0  2  0  0  0  0  0  0
  161.6660  207.4160  152.8250 Cl  0  0  0  0  0  0  0  0  0  0  0  0
  160.7860  206.4620  150.4810 C   0  0  0  0  0  3  0  0  0  0  0  0
  160.1800  201.7790  149.4210 C   0  0  0  0  0  2  0  0  0  0  0  0
  1  2  1  6  0  0  0
  1 13  1  0  0  0  0
  2  3  1  0  0  0  0
  3  7  1  0  0  0  0
  4 10  1  0  0  0  0
  5  3  2  0  0  0  0
  7  6  1  0  0  0  0
  7 14  1  1  0  0  0
  8 13  1  0  0  0  0
  8 10  2  0  0  0  0
  9  8  1  0  0  0  0
 11  9  2  0  0  0  0
 12  9  1  0  0  0  0
 12  1  1  0  0  0  0
 13  6  1  0  0  0  0
 13 17  1  1  0  0  0
 14 15  1  0  0  0  0
 16 14  1  0  0  0  0
 18 27  1  0  0  0  0
 19 25  1  1  0  0  0
 19 24  1  0  0  0  0
 20 17  1  6  0  0  0
 20 28  1  0  0  0  0
 20 22  1  0  0  0  0
 21 24  1  0  0  0  0
 21 26  1  0  0  0  0
 22 18  1  6  0  0  0
 22 19  1  0  0  0  0
 23 25  1  0  0  0  0
 27 21  2  0  0  0  0
 28 23  1  0  0  0  0
M  END
>  <MODEL>
1

>  <REMARK>
 VINA RESULT:      -5.9      0.000      0.000
  Name = 
  3 active torsions:
  status: ('A' for Active; 'I' for Inactive)
    1  A    between atoms: C_6  and  C_11
    2  A    between atoms: C_10  and  O_17
    3  A    between atoms: O_17  and  C_27
                            x       y       z     vdW  Elec       q    Type
                         _______ _______ _______ _____ _____    ______ ____

>  <TORSDO>
F 3

$$$$
=
 OpenBabel11052422493D

 28 31  0  0  1  0  0  0  0  0999 V2000
  161.6610  210.7840  154.4210 C   0  0  1  0  0  3  0  0  0  0  0  0
  160.8360  211.9090  154.7110 O   0  0  0  0  0  0  0  0  0  0  0  0
  159.8510  212.3610  153.8400 C   0  0  0  0  0  0  0  0  0  0  0  0
  160.2170  206.8980  156.8950 C   0  0  0  0  0  1  0  0  0  0  0  0
  159.3710  213.5150  153.9840 O   0  0  0  0  0  0  0  0  0  0  0  0
  159.1110  209.7990  153.4940 S   0  0  0  0  0  0  0  0  0  0  0  0
  159.3170  211.4640  152.7830 C   0  0  2  0  0  3  0  0  0  0  0  0
  160.9140  208.6970  155.3180 C   0  0  0  0  0  0  0  0  0  0  0  0
  161.9230  209.3000  156.1620 C   0  0  0  0  0  0  0  0  0  0  0  0
  160.1420  207.6430  155.6070 C   0  0  0  0  0  3  0  0  0  0  0  0
  162.3380  208.8450  157.2600 O   0  0  0  0  0  0  0  0  0  0  0  0
  162.3970  210.4580  155.5940 O   0  0  0  0  0  0  0  0  0  0  0  0
  160.8670  209.4910  154.0310 C   0  0  2  0  0  0  0  0  0  0  0  0
  160.1900  211.4490  151.5350 C   0  0  0  0  0  3  0  0  0  0  0  0
  159.9850  212.6170  150.8240 F   0  0  0  0  0  0  0  0  0  0  0  0
  161.5260  211.3710  151.8830 F   0  0  0  0  0  0  0  0  0  0  0  0
  161.6280  208.8580  153.0090 O   0  0  0  0  0  0  0  0  0  0  0  0
  161.7780  208.3970  150.2950 C   0  0  0  0  0  2  0  0  0  0  0  0
  161.4610  205.9880  150.7110 C   0  0  2  0  0  3  0  0  0  0  0  0
  161.0850  207.6000  152.6750 C   0  0  1  0  0  3  0  0  0  0  0  0
  161.3100  206.8820  148.3790 C   0  0  0  0  0  0  0  0  0  0  0  0
  161.0020  207.3850  151.1430 C   0  0  1  0  0  3  0  0  0  0  0  0
  161.2170  205.1090  153.0670 C   0  0  0  0  0  2  0  0  0  0  0  0
  161.1540  205.7920  149.3000 N   0  0  0  0  0  2  0  0  0  0  0  0
  160.8330  204.9140  151.5890 C   0  0  0  0  0  2  0  0  0  0  0  0
  161.0530  206.6170  146.6680 Cl  0  0  0  0  0  0  0  0  0  0  0  0
  161.5630  208.1190  148.8270 C   0  0  0  0  0  3  0  0  0  0  0  0
  161.8580  206.4730  153.3690 C   0  0  0  0  0  2  0  0  0  0  0  0
  1  2  1  1  0  0  0
  1 12  1  0  0  0  0
  3  5  2  0  0  0  0
  3  2  1  0  0  0  0
  6 13  1  0  0  0  0
  7 14  1  6  0  0  0
  7  6  1  0  0  0  0
  7  3  1  0  0  0  0
  8 10  2  0  0  0  0
  8  9  1  0  0  0  0
  9 11  2  0  0  0  0
 10  4  1  0  0  0  0
 12  9  1  0  0  0  0
 13 17  1  6  0  0  0
 13  1  1  0  0  0  0
 13  8  1  0  0  0  0
 14 16  1  0  0  0  0
 15 14  1  0  0  0  0
 19 22  1  0  0  0  0
 19 25  1  1  0  0  0
 20 17  1  6  0  0  0
 20 28  1  0  0  0  0
 21 27  2  0  0  0  0
 21 24  1  0  0  0  0
 22 18  1  6  0  0  0
 22 20  1  0  0  0  0
 23 28  1  0  0  0  0
 24 19  1  0  0  0  0
 25 23  1  0  0  0  0
 26 21  1  0  0  0  0
 27 18  1  0  0  0  0
M  END
>  <MODEL>
2

>  <REMARK>
 VINA RESULT:      -5.6      6.211      9.234
  Name = 
  3 active torsions:
  status: ('A' for Active; 'I' for Inactive)
    1  A    between atoms: C_6  and  C_11
    2  A    between atoms: C_10  and  O_17
    3  A    between atoms: O_17  and  C_27
                            x       y       z     vdW  Elec       q    Type
                         _______ _______ _______ _____ _____    ______ ____

>  <TORSDO>
F 3

$$$$
=
 OpenBabel11052422493D

 28 31  0  0  1  0  0  0  0  0999 V2000
  162.1250  203.4020  148.4700 C   0  0  1  0  0  3  0  0  0  0  0  0
  161.2970  202.2550  148.6480 O   0  0  0  0  0  0  0  0  0  0  0  0
  160.5080  202.0670  149.7770 C   0  0  0  0  0  0  0  0  0  0  0  0
  160.1150  206.5240  145.3850 C   0  0  0  0  0  1  0  0  0  0  0  0
  160.0480  200.9250  150.0350 O   0  0  0  0  0  0  0  0  0  0  0  0
  159.7640  204.6430  149.5740 S   0  0  0  0  0  0  0  0  0  0  0  0
  160.1540  203.2200  150.6440 C   0  0  2  0  0  3  0  0  0  0  0  0
  161.1550  205.1910  147.2170 C   0  0  0  0  0  0  0  0  0  0  0  0
  162.0050  204.3690  146.3840 C   0  0  0  0  0  0  0  0  0  0  0  0
  160.3080  206.1460  146.8130 C   0  0  0  0  0  3  0  0  0  0  0  0
  162.1920  204.5110  145.1470 O   0  0  0  0  0  0  0  0  0  0  0  0
  162.6160  203.3930  147.1350 O   0  0  0  0  0  0  0  0  0  0  0  0
  161.3770  204.7660  148.6510 C   0  0  2  0  0  0  0  0  0  0  0  0
  161.2450  203.5480  151.6550 C   0  0  0  0  0  3  0  0  0  0  0  0
  160.6670  203.7700  152.8900 F   0  0  0  0  0  0  0  0  0  0  0  0
  162.1320  202.4920  151.7640 F   0  0  0  0  0  0  0  0  0  0  0  0
  162.2950  205.6320  149.3080 O   0  0  0  0  0  0  0  0  0  0  0  0
  161.9750  206.5280  151.8950 C   0  0  0  0  0  2  0  0  0  0  0  0
  161.9620  208.8490  151.0640 C   0  0  2  0  0  3  0  0  0  0  0  0
  161.8160  206.9580  149.3320 C   0  0  1  0  0  3  0  0  0  0  0  0
  161.2960  208.3660  153.4270 C   0  0  0  0  0  0  0  0  0  0  0  0
  161.4680  207.4290  150.7660 C   0  0  1  0  0  3  0  0  0  0  0  0
  162.2470  209.3360  148.6020 C   0  0  0  0  0  2  0  0  0  0  0  0
  161.4150  209.2950  152.3390 N   0  0  0  0  0  0  0  0  0  0  0  0
  161.6110  209.7970  149.9260 C   0  0  0  0  0  2  0  0  0  0  0  0
  160.7480  208.9270  154.9910 Cl  0  0  0  0  0  0  0  0  0  0  0  0
  161.5140  207.0580  153.2310 C   0  0  0  0  0  2  0  0  0  0  0  0
  162.8060  207.9060  148.6440 C   0  0  0  0  0  2  0  0  0  0  0  0
  1 12  1  6  0  0  0
  1  2  1  0  0  0  0
  1 13  1  0  0  0  0
  2  3  1  0  0  0  0
  3  5  2  0  0  0  0
  3  7  1  0  0  0  0
  4 10  1  0  0  0  0
  6  7  1  0  0  0  0
  7 14  1  1  0  0  0
  8 13  1  0  0  0  0
  9 12  1  0  0  0  0
  9  8  1  0  0  0  0
 10  8  2  0  0  0  0
 11  9  2  0  0  0  0
 13 17  1  1  0  0  0
 13  6  1  0  0  0  0
 14 16  1  0  0  0  0
 14 15  1  0  0  0  0
 18 27  1  0  0  0  0
 19 25  1  6  0  0  0
 19 24  1  0  0  0  0
 20 17  1  1  0  0  0
 20 22  1  0  0  0  0
 21 26  1  0  0  0  0
 22 19  1  0  0  0  0
 22 18  1  1  0  0  0
 23 28  1  0  0  0  0
 23 25  1  0  0  0  0
 24 21  2  0  0  0  0
 27 21  1  0  0  0  0
 28 20  1  0  0  0  0
M  END
>  <MODEL>
3

>  <REMARK>
 VINA RESULT:      -5.0      3.115      5.338
  Name = 
  3 active torsions:
  status: ('A' for Active; 'I' for Inactive)
    1  A    between atoms: C_6  and  C_11
    2  A    between atoms: C_10  and  O_17
    3  A    between atoms: O_17  and  C_27
                            x       y       z     vdW  Elec       q    Type
                         _______ _______ _______ _____ _____    ______ ____

>  <TORSDO>
F 3

$$$$
=
 OpenBabel11052422493D

 28 31  0  0  1  0  0  0  0  0999 V2000
  160.4330  211.7870  155.0410 C   0  0  1  0  0  3  0  0  0  0  0  0
  159.2070  212.0540  155.7180 O   0  0  0  0  0  0  0  0  0  0  0  0
  158.0700  212.5060  155.0590 C   0  0  0  0  0  0  0  0  0  0  0  0
  161.0790  207.0400  154.4410 C   0  0  0  0  0  1  0  0  0  0  0  0
  157.1290  213.0180  155.7170 O   0  0  0  0  0  0  0  0  0  0  0  0
  158.5550  210.6710  153.1540 S   0  0  0  0  0  0  0  0  0  0  0  0
  157.9340  212.3280  153.5900 C   0  0  2  0  0  3  0  0  0  0  0  0
  160.7760  209.5130  154.3850 C   0  0  0  0  0  0  0  0  0  0  0  0
  161.4540  209.8080  155.6290 C   0  0  0  0  0  0  0  0  0  0  0  0
  160.5880  208.3090  153.8330 C   0  0  0  0  0  3  0  0  0  0  0  0
  162.1010  208.9890  156.3320 O   0  0  0  0  0  0  0  0  0  0  0  0
  161.3120  211.1370  155.9520 O   0  0  0  0  0  0  0  0  0  0  0  0
  160.2900  210.8260  153.8120 C   0  0  2  0  0  0  0  0  0  0  0  0
  158.6340  213.4270  152.8020 C   0  0  0  0  0  3  0  0  0  0  0  0
  157.7620  213.9340  151.8580 F   0  0  0  0  0  0  0  0  0  0  0  0
  159.0200  214.4530  153.6450 F   0  0  0  0  0  0  0  0  0  0  0  0
  161.1860  211.3190  152.8230 O   0  0  0  0  0  0  0  0  0  0  0  0
  161.0810  212.8430  150.5280 C   0  0  0  0  0  2  0  0  0  0  0  0
  161.8670  210.9010  149.2310 C   0  0  2  0  0  3  0  0  0  0  0  0
  161.1710  210.5060  151.6710 C   0  0  1  0  0  3  0  0  0  0  0  0
  160.9880  212.9210  148.0440 C   0  0  0  0  0  0  0  0  0  0  0  0
  160.9430  211.3250  150.3770 C   0  0  1  0  0  3  0  0  0  0  0  0
  162.3910  208.7120  150.3790 C   0  0  0  0  0  2  0  0  0  0  0  0
  161.4500  211.5620  148.0010 N   0  0  0  0  0  0  0  0  0  0  0  0
  161.8930  209.3850  149.0870 C   0  0  0  0  0  2  0  0  0  0  0  0
  160.5970  213.7520  146.5550 Cl  0  0  0  0  0  0  0  0  0  0  0  0
  160.7700  213.5270  149.2190 C   0  0  0  0  0  2  0  0  0  0  0  0
  162.4440  209.6540  151.5910 C   0  0  0  0  0  2  0  0  0  0  0  0
  1  2  1  1  0  0  0
  1 12  1  0  0  0  0
  3  5  2  0  0  0  0
  3  2  1  0  0  0  0
  6  7  1  0  0  0  0
  6 13  1  0  0  0  0
  7 14  1  6  0  0  0
  7  3  1  0  0  0  0
  8  9  1  0  0  0  0
  9 12  1  0  0  0  0
  9 11  2  0  0  0  0
 10  8  2  0  0  0  0
 10  4  1  0  0  0  0
 13 17  1  6  0  0  0
 13  8  1  0  0  0  0
 13  1  1  0  0  0  0
 14 16  1  0  0  0  0
 15 14  1  0  0  0  0
 19 25  1  6  0  0  0
 19 22  1  0  0  0  0
 20 17  1  1  0  0  0
 21 27  1  0  0  0  0
 22 18  1  1  0  0  0
 22 20  1  0  0  0  0
 23 28  1  0  0  0  0
 24 21  2  0  0  0  0
 24 19  1  0  0  0  0
 25 23  1  0  0  0  0
 26 21  1  0  0  0  0
 27 18  1  0  0  0  0
 28 20  1  0  0  0  0
M  END
>  <MODEL>
4

>  <REMARK>
 VINA RESULT:      -3.7      8.153     10.612
  Name = 
  3 active torsions:
  status: ('A' for Active; 'I' for Inactive)
    1  A    between atoms: C_6  and  C_11
    2  A    between atoms: C_10  and  O_17
    3  A    between atoms: O_17  and  C_27
                            x       y       z     vdW  Elec       q    Type
                         _______ _______ _______ _____ _____    ______ ____

>  <TORSDO>
F 3

$$$$
=
 OpenBabel11052422493D

 28 31  0  0  1  0  0  0  0  0999 V2000
  160.5560  207.5050  153.3200 C   0  0  1  0  0  3  0  0  0  0  0  0
  161.5620  206.5130  153.1330 O   0  0  0  0  0  0  0  0  0  0  0  0
  162.3040  206.4090  151.9610 C   0  0  0  0  0  0  0  0  0  0  0  0
  162.1570  211.0840  156.1360 C   0  0  0  0  0  1  0  0  0  0  0  0
  162.9430  205.3530  151.7190 O   0  0  0  0  0  0  0  0  0  0  0  0
  162.5890  209.0820  152.0110 S   0  0  0  0  0  0  0  0  0  0  0  0
  162.3950  207.5600  151.0270 C   0  0  2  0  0  3  0  0  0  0  0  0
  161.2650  209.4980  154.4330 C   0  0  0  0  0  0  0  0  0  0  0  0
  160.6250  208.5840  155.3530 C   0  0  0  0  0  0  0  0  0  0  0  0
  161.9510  210.6060  154.7400 C   0  0  0  0  0  3  0  0  0  0  0  0
  160.4900  208.7540  156.5930 O   0  0  0  0  0  0  0  0  0  0  0  0
  160.1540  207.4790  154.6840 O   0  0  0  0  0  0  0  0  0  0  0  0
  161.0370  208.9680  153.0340 C   0  0  2  0  0  0  0  0  0  0  0  0
  161.2060  207.6400  150.0800 C   0  0  0  0  0  3  0  0  0  0  0  0
  161.6130  208.2080  148.8880 F   0  0  0  0  0  0  0  0  0  0  0  0
  160.7110  206.3740  149.8210 F   0  0  0  0  0  0  0  0  0  0  0  0
  159.9420  209.6250  152.4070 O   0  0  0  0  0  0  0  0  0  0  0  0
  160.7390  211.1500  150.2520 C   0  0  0  0  0  2  0  0  0  0  0  0
  159.7020  213.1260  151.2990 C   0  0  2  0  0  3  0  0  0  0  0  0
  159.9260  210.9990  152.7210 C   0  0  1  0  0  3  0  0  0  0  0  0
  161.2020  213.4060  149.3150 C   0  0  0  0  0  0  0  0  0  0  0  0
  160.5270  211.8680  151.5880 C   0  0  1  0  0  3  0  0  0  0  0  0
  158.5080  212.9320  153.5170 C   0  0  0  0  0  2  0  0  0  0  0  0
  160.4380  213.9880  150.3820 N   0  0  0  0  0  2  0  0  0  0  0  0
  159.3330  213.8440  152.5900 C   0  0  0  0  0  2  0  0  0  0  0  0
  161.9910  214.4430  148.1470 Cl  0  0  0  0  0  0  0  0  0  0  0  0
  161.3890  212.0810  149.2580 C   0  0  0  0  0  3  0  0  0  0  0  0
  158.5110  211.4530  153.0990 C   0  0  0  0  0  2  0  0  0  0  0  0
  1  2  1  1  0  0  0
  1 12  1  0  0  0  0
  3  2  1  0  0  0  0
  5  3  2  0  0  0  0
  6 13  1  0  0  0  0
  7 14  1  1  0  0  0
  7  3  1  0  0  0  0
  7  6  1  0  0  0  0
  8 10  2  0  0  0  0
  8  9  1  0  0  0  0
  9 11  2  0  0  0  0
 10  4  1  0  0  0  0
 12  9  1  0  0  0  0
 13 17  1  6  0  0  0
 13  1  1  0  0  0  0
 13  8  1  0  0  0  0
 15 14  1  0  0  0  0
 16 14  1  0  0  0  0
 19 22  1  0  0  0  0
 19 25  1  1  0  0  0
 20 17  1  6  0  0  0
 20 28  1  0  0  0  0
 21 24  1  0  0  0  0
 22 18  1  6  0  0  0
 22 20  1  0  0  0  0
 24 19  1  0  0  0  0
 25 23  1  0  0  0  0
 26 21  1  0  0  0  0
 27 21  2  0  0  0  0
 27 18  1  0  0  0  0
 28 23  1  0  0  0  0
M  END
>  <MODEL>
5

>  <REMARK>
 VINA RESULT:      -3.7      6.247      9.450
  Name = 
  3 active torsions:
  status: ('A' for Active; 'I' for Inactive)
    1  A    between atoms: C_6  and  C_11
    2  A    between atoms: C_10  and  O_17
    3  A    between atoms: O_17  and  C_27
                            x       y       z     vdW  Elec       q    Type
                         _______ _______ _______ _____ _____    ______ ____

>  <TORSDO>
F 3

$$$$
=
 OpenBabel11052422493D

 28 31  0  0  1  0  0  0  0  0999 V2000
  160.8080  211.5410  155.1520 C   0  0  1  0  0  3  0  0  0  0  0  0
  160.6420  212.5910  156.1010 O   0  0  0  0  0  0  0  0  0  0  0  0
  159.4700  213.3330  156.2010 C   0  0  0  0  0  0  0  0  0  0  0  0
  160.3700  207.2190  157.2570 C   0  0  0  0  0  1  0  0  0  0  0  0
  159.4750  214.4280  156.8190 O   0  0  0  0  0  0  0  0  0  0  0  0
  158.1000  211.0270  156.0100 S   0  0  0  0  0  0  0  0  0  0  0  0
  158.2000  212.8080  155.6370 C   0  0  2  0  0  3  0  0  0  0  0  0
  160.3230  209.3400  155.9490 C   0  0  0  0  0  0  0  0  0  0  0  0
  161.7440  209.6120  155.9930 C   0  0  0  0  0  0  0  0  0  0  0  0
  159.6830  208.3000  156.4970 C   0  0  0  0  0  3  0  0  0  0  0  0
  162.6330  208.8400  156.4380 O   0  0  0  0  0  0  0  0  0  0  0  0
  162.0130  210.8500  155.4590 O   0  0  0  0  0  0  0  0  0  0  0  0
  159.6690  210.4660  155.1790 C   0  0  2  0  0  0  0  0  0  0  0  0
  158.0630  213.0880  154.1470 C   0  0  0  0  0  3  0  0  0  0  0  0
  156.9970  212.3660  153.6450 F   0  0  0  0  0  0  0  0  0  0  0  0
  157.8280  214.4340  153.9300 F   0  0  0  0  0  0  0  0  0  0  0  0
  159.4450  210.0980  153.8230 O   0  0  0  0  0  0  0  0  0  0  0  0
  160.2550  207.5750  153.0640 C   0  0  0  0  0  2  0  0  0  0  0  0
  161.6950  208.5840  151.3360 C   0  0  2  0  0  3  0  0  0  0  0  0
  160.6400  210.1500  153.0770 C   0  0  1  0  0  3  0  0  0  0  0  0
  161.9270  206.1550  151.8910 C   0  0  0  0  0  0  0  0  0  0  0  0
  161.2080  208.7400  152.7800 C   0  0  1  0  0  3  0  0  0  0  0  0
  161.7670  211.0900  151.0220 C   0  0  0  0  0  2  0  0  0  0  0  0
  162.4030  207.3180  151.1970 N   0  0  0  0  0  0  0  0  0  0  0  0
  162.5540  209.7700  150.9210 C   0  0  0  0  0  2  0  0  0  0  0  0
  162.7070  204.6100  151.6340 Cl  0  0  0  0  0  0  0  0  0  0  0  0
  160.9480  206.2600  152.8000 C   0  0  0  0  0  2  0  0  0  0  0  0
  160.4440  210.9680  151.7950 C   0  0  0  0  0  2  0  0  0  0  0  0
  1 13  1  0  0  0  0
  1 12  1  1  0  0  0
  1  2  1  0  0  0  0
  2  3  1  0  0  0  0
  3  5  2  0  0  0  0
  7 14  1  6  0  0  0
  7  6  1  0  0  0  0
  7  3  1  0  0  0  0
  8  9  1  0  0  0  0
  8 10  2  0  0  0  0
  9 11  2  0  0  0  0
 10  4  1  0  0  0  0
 12  9  1  0  0  0  0
 13 17  1  6  0  0  0
 13  8  1  0  0  0  0
 13  6  1  0  0  0  0
 15 14  1  0  0  0  0
 16 14  1  0  0  0  0
 19 25  1  1  0  0  0
 19 22  1  0  0  0  0
 20 17  1  6  0  0  0
 21 27  1  0  0  0  0
 22 18  1  6  0  0  0
 22 20  1  0  0  0  0
 23 28  1  0  0  0  0
 24 19  1  0  0  0  0
 24 21  2  0  0  0  0
 25 23  1  0  0  0  0
 26 21  1  0  0  0  0
 27 18  1  0  0  0  0
 28 20  1  0  0  0  0
M  END
>  <MODEL>
6

>  <REMARK>
 VINA RESULT:      -3.7      7.653     10.752
  Name = 
  3 active torsions:
  status: ('A' for Active; 'I' for Inactive)
    1  A    between atoms: C_6  and  C_11
    2  A    between atoms: C_10  and  O_17
    3  A    between atoms: O_17  and  C_27
                            x       y       z     vdW  Elec       q    Type
                         _______ _______ _______ _____ _____    ______ ____

>  <TORSDO>
F 3

$$$$
=
 OpenBabel11052422493D

 28 31  0  0  1  0  0  0  0  0999 V2000
  158.7750  209.7670  155.3440 C   0  0  1  0  0  3  0  0  0  0  0  0
  159.4360  208.9550  156.3110 O   0  0  0  0  0  0  0  0  0  0  0  0
  160.6160  208.2720  156.0350 C   0  0  0  0  0  0  0  0  0  0  0  0
  159.5790  214.4530  156.1800 C   0  0  0  0  0  1  0  0  0  0  0  0
  160.9890  207.3390  156.7930 O   0  0  0  0  0  0  0  0  0  0  0  0
  161.5200  210.5000  154.8330 S   0  0  0  0  0  0  0  0  0  0  0  0
  161.4670  208.6790  154.8890 C   0  0  2  0  0  3  0  0  0  0  0  0
  159.3060  212.0970  155.4150 C   0  0  0  0  0  0  0  0  0  0  0  0
  158.0730  211.8190  156.1190 C   0  0  0  0  0  0  0  0  0  0  0  0
  159.9990  213.2420  155.4210 C   0  0  0  0  0  3  0  0  0  0  0  0
  157.3720  212.6560  156.7470 O   0  0  0  0  0  0  0  0  0  0  0  0
  157.7410  210.4900  156.0030 O   0  0  0  0  0  0  0  0  0  0  0  0
  159.6960  210.8400  154.6700 C   0  0  2  0  0  0  0  0  0  0  0  0
  160.9980  208.0800  153.5700 C   0  0  0  0  0  3  0  0  0  0  0  0
  161.9600  208.3030  152.6030 F   0  0  0  0  0  0  0  0  0  0  0  0
  160.8100  206.7160  153.7020 F   0  0  0  0  0  0  0  0  0  0  0  0
  159.2910  210.9030  153.3070 O   0  0  0  0  0  0  0  0  0  0  0  0
  160.8410  210.8680  151.0270 C   0  0  0  0  0  2  0  0  0  0  0  0
  159.9770  213.1000  150.4360 C   0  0  2  0  0  3  0  0  0  0  0  0
  159.4590  212.2020  152.7860 C   0  0  1  0  0  3  0  0  0  0  0  0
  161.9240  212.1450  149.1880 C   0  0  0  0  0  0  0  0  0  0  0  0
  160.4610  212.2350  151.6050 C   0  0  1  0  0  3  0  0  0  0  0  0
  158.2830  214.2580  151.9100 C   0  0  0  0  0  2  0  0  0  0  0  0
  161.0550  213.2530  149.4670 N   0  0  0  0  0  0  0  0  0  0  0  0
  159.4580  214.4430  150.9330 C   0  0  0  0  0  2  0  0  0  0  0  0
  163.1440  212.2910  147.9430 Cl  0  0  0  0  0  0  0  0  0  0  0  0
  161.8670  211.0330  149.9340 C   0  0  0  0  0  2  0  0  0  0  0  0
  158.1060  212.8140  152.4050 C   0  0  0  0  0  2  0  0  0  0  0  0
  1 12  1  1  0  0  0
  1  2  1  0  0  0  0
  3  2  1  0  0  0  0
  3  5  2  0  0  0  0
  6  7  1  0  0  0  0
  7 14  1  6  0  0  0
  7  3  1  0  0  0  0
  8 10  2  0  0  0  0
  8  9  1  0  0  0  0
  9 11  2  0  0  0  0
 10  4  1  0  0  0  0
 12  9  1  0  0  0  0
 13 17  1  6  0  0  0
 13  6  1  0  0  0  0
 13  1  1  0  0  0  0
 13  8  1  0  0  0  0
 14 16  1  0  0  0  0
 15 14  1  0  0  0  0
 19 25  1  1  0  0  0
 19 22  1  0  0  0  0
 20 17  1  6  0  0  0
 21 24  2  0  0  0  0
 21 27  1  0  0  0  0
 22 18  1  6  0  0  0
 22 20  1  0  0  0  0
 23 28  1  0  0  0  0
 24 19  1  0  0  0  0
 25 23  1  0  0  0  0
 26 21  1  0  0  0  0
 27 18  1  0  0  0  0
 28 20  1  0  0  0  0
M  END
>  <MODEL>
7

>  <REMARK>
 VINA RESULT:      -3.7      8.545     11.418
  Name = 
  3 active torsions:
  status: ('A' for Active; 'I' for Inactive)
    1  A    between atoms: C_6  and  C_11
    2  A    between atoms: C_10  and  O_17
    3  A    between atoms: O_17  and  C_27
                            x       y       z     vdW  Elec       q    Type
                         _______ _______ _______ _____ _____    ______ ____

>  <TORSDO>
F 3

$$$$
=
 OpenBabel11052422493D

 28 31  0  0  1  0  0  0  0  0999 V2000
  161.5950  211.4960  139.8720 C   0  0  1  0  0  3  0  0  0  0  0  0
  163.0180  211.4350  139.9090 O   0  0  0  0  0  0  0  0  0  0  0  0
  163.8220  212.1450  139.0230 C   0  0  0  0  0  0  0  0  0  0  0  0
  159.8930  214.3220  143.3960 C   0  0  0  0  0  1  0  0  0  0  0  0
  165.0310  211.8280  138.8860 O   0  0  0  0  0  0  0  0  0  0  0  0
  162.2340  214.2760  139.4310 S   0  0  0  0  0  0  0  0  0  0  0  0
  163.2750  213.3130  138.2860 C   0  0  2  0  0  3  0  0  0  0  0  0
  160.5910  213.0860  141.3480 C   0  0  0  0  0  0  0  0  0  0  0  0
  160.5830  211.7590  141.9240 C   0  0  0  0  0  0  0  0  0  0  0  0
  160.2970  214.2370  141.9650 C   0  0  0  0  0  3  0  0  0  0  0  0
  160.1640  211.4520  143.0710 O   0  0  0  0  0  0  0  0  0  0  0  0
  161.0920  210.8450  141.0330 O   0  0  0  0  0  0  0  0  0  0  0  0
  161.0140  212.9500  139.9020 C   0  0  2  0  0  0  0  0  0  0  0  0
  162.5190  212.9090  137.0280 C   0  0  0  0  0  3  0  0  0  0  0  0
  162.3680  211.5350  137.0110 F   0  0  0  0  0  0  0  0  0  0  0  0
  161.2650  213.4920  137.0120 F   0  0  0  0  0  0  0  0  0  0  0  0
  159.8860  212.9400  139.0350 O   0  0  0  0  0  0  0  0  0  0  0  0
  157.1910  213.3090  139.4820 C   0  0  0  0  0  2  0  0  0  0  0  0
  156.7690  211.0180  138.6750 C   0  0  2  0  0  3  0  0  0  0  0  0
  159.2070  211.7060  139.0970 C   0  0  1  0  0  3  0  0  0  0  0  0
  154.9460  212.2940  139.8210 C   0  0  0  0  0  0  0  0  0  0  0  0
  157.7250  211.8740  139.5130 C   0  0  1  0  0  3  0  0  0  0  0  0
  158.6720  209.5640  137.8720 C   0  0  0  0  0  2  0  0  0  0  0  0
  155.4350  211.0660  139.2600 N   0  0  0  0  0  0  0  0  0  0  0  0
  157.2880  209.5930  138.5450 C   0  0  0  0  0  2  0  0  0  0  0  0
  153.3040  212.3820  140.4190 Cl  0  0  0  0  0  0  0  0  0  0  0  0
  155.7640  213.3450  139.9710 C   0  0  0  0  0  2  0  0  0  0  0  0
  159.3460  210.9420  137.7760 C   0  0  0  0  0  2  0  0  0  0  0  0
  1 13  1  0  0  0  0
  1  2  1  1  0  0  0
  1 12  1  0  0  0  0
  3  2  1  0  0  0  0
  5  3  2  0  0  0  0
  6 13  1  0  0  0  0
  7 14  1  6  0  0  0
  7  3  1  0  0  0  0
  7  6  1  0  0  0  0
  8  9  1  0  0  0  0
  8 10  2  0  0  0  0
  9 11  2  0  0  0  0
 10  4  1  0  0  0  0
 12  9  1  0  0  0  0
 13 17  1  6  0  0  0
 13  8  1  0  0  0  0
 15 14  1  0  0  0  0
 16 14  1  0  0  0  0
 18 27  1  0  0  0  0
 19 25  1  1  0  0  0
 19 24  1  0  0  0  0
 19 22  1  0  0  0  0
 20 17  1  6  0  0  0
 20 22  1  0  0  0  0
 21 27  1  0  0  0  0
 21 26  1  0  0  0  0
 22 18  1  6  0  0  0
 23 25  1  0  0  0  0
 24 21  2  0  0  0  0
 28 23  1  0  0  0  0
 28 20  1  0  0  0  0
M  END
>  <MODEL>
8

>  <REMARK>
 VINA RESULT:      -3.4     11.019     12.748
  Name = 
  3 active torsions:
  status: ('A' for Active; 'I' for Inactive)
    1  A    between atoms: C_6  and  C_11
    2  A    between atoms: C_10  and  O_17
    3  A    between atoms: O_17  and  C_27
                            x       y       z     vdW  Elec       q    Type
                         _______ _______ _______ _____ _____    ______ ____

>  <TORSDO>
F 3

$$$$
=
 OpenBabel11052422493D

 28 31  0  0  1  0  0  0  0  0999 V2000
  159.5060  210.5950  154.2470 C   0  0  1  0  0  3  0  0  0  0  0  0
  160.0020  211.3170  155.3710 O   0  0  0  0  0  0  0  0  0  0  0  0
  161.0920  210.8860  156.1180 C   0  0  0  0  0  0  0  0  0  0  0  0
  160.8810  212.6720  150.1120 C   0  0  0  0  0  1  0  0  0  0  0  0
  161.2980  211.3700  157.2610 O   0  0  0  0  0  0  0  0  0  0  0  0
  162.3470  210.3400  153.8030 S   0  0  0  0  0  0  0  0  0  0  0  0
  162.0500  209.9040  155.5480 C   0  0  2  0  0  3  0  0  0  0  0  0
  160.3380  211.2970  152.1190 C   0  0  0  0  0  0  0  0  0  0  0  0
  159.0430  211.8820  152.3950 C   0  0  0  0  0  0  0  0  0  0  0  0
  161.1760  211.6210  151.1270 C   0  0  0  0  0  3  0  0  0  0  0  0
  158.4290  212.7010  151.6620 O   0  0  0  0  0  0  0  0  0  0  0  0
  158.5440  211.4080  153.5850 O   0  0  0  0  0  0  0  0  0  0  0  0
  160.5960  210.2470  153.1770 C   0  0  2  0  0  0  0  0  0  0  0  0
  161.5750  208.4660  155.7040 C   0  0  0  0  0  3  0  0  0  0  0  0
  162.3090  207.8520  156.7030 F   0  0  0  0  0  0  0  0  0  0  0  0
  160.2380  208.4360  156.0550 F   0  0  0  0  0  0  0  0  0  0  0  0
  160.2750  208.9460  152.6990 O   0  0  0  0  0  0  0  0  0  0  0  0
  160.4560  206.1960  152.7320 C   0  0  0  0  0  2  0  0  0  0  0  0
  161.5700  206.2670  150.5340 C   0  0  2  0  0  3  0  0  0  0  0  0
  161.2420  208.4880  151.7810 C   0  0  1  0  0  3  0  0  0  0  0  0
  161.5360  204.1370  151.8480 C   0  0  0  0  0  0  0  0  0  0  0  0
  161.4850  206.9630  151.8970 C   0  0  1  0  0  3  0  0  0  0  0  0
  161.9660  208.4690  149.3620 C   0  0  0  0  0  2  0  0  0  0  0  0
  162.0090  204.8890  150.7200 N   0  0  0  0  0  0  0  0  0  0  0  0
  162.4810  207.0360  149.5870 C   0  0  0  0  0  2  0  0  0  0  0  0
  161.9700  202.4500  152.0090 Cl  0  0  0  0  0  0  0  0  0  0  0  0
  160.8410  204.7390  152.8220 C   0  0  0  0  0  2  0  0  0  0  0  0
  160.8720  208.9010  150.3510 C   0  0  0  0  0  2  0  0  0  0  0  0
  1 12  1  6  0  0  0
  1  2  1  0  0  0  0
  2  3  1  0  0  0  0
  3  5  2  0  0  0  0
  4 10  1  0  0  0  0
  6  7  1  0  0  0  0
  7 14  1  6  0  0  0
  7  3  1  0  0  0  0
  8  9  1  0  0  0  0
  8 13  1  0  0  0  0
  9 12  1  0  0  0  0
 10  8  2  0  0  0  0
 11  9  2  0  0  0  0
 13 17  1  6  0  0  0
 13  6  1  0  0  0  0
 13  1  1  0  0  0  0
 14 16  1  0  0  0  0
 14 15  1  0  0  0  0
 18 27  1  0  0  0  0
 19 25  1  6  0  0  0
 19 24  1  0  0  0  0
 19 22  1  0  0  0  0
 20 22  1  0  0  0  0
 20 17  1  1  0  0  0
 21 26  1  0  0  0  0
 21 27  1  0  0  0  0
 22 18  1  1  0  0  0
 23 25  1  0  0  0  0
 23 28  1  0  0  0  0
 24 21  2  0  0  0  0
 28 20  1  0  0  0  0
M  END
>  <MODEL>
9

>  <REMARK>
 VINA RESULT:      -3.2      6.430      9.565
  Name = 
  3 active torsions:
  status: ('A' for Active; 'I' for Inactive)
    1  A    between atoms: C_6  and  C_11
    2  A    between atoms: C_10  and  O_17
    3  A    between atoms: O_17  and  C_27
                            x       y       z     vdW  Elec       q    Type
                         _______ _______ _______ _____ _____    ______ ____

>  <TORSDO>
F 3

$$$$
