=
 OpenBabel11062408233D

 32 36  0  0  1  0  0  0  0  0999 V2000
  160.1940  210.8060  152.1330 C   0  0  0  0  0  0  0  0  0  0  0  0
  161.9820  211.1810  150.3960 C   0  0  2  0  0  3  0  0  0  0  0  0
  159.0170  211.1990  152.7780 C   0  0  0  0  0  3  0  0  0  0  0  0
  160.6480  211.5110  151.0090 C   0  0  0  0  0  0  0  0  0  0  0  0
  161.9580  211.3510  148.8890 C   0  0  0  0  0  2  0  0  0  0  0  0
  162.6180  209.8510  150.8370 C   0  0  0  0  0  2  0  0  0  0  0  0
  159.8820  212.5780  150.4930 C   0  0  0  0  0  0  0  0  0  0  0  0
  160.2140  213.2290  149.1750 C   0  0  0  0  0  2  0  0  0  0  0  0
  158.7030  212.9570  151.1450 C   0  0  0  0  0  3  0  0  0  0  0  0
  161.7060  208.9170  151.5130 N   0  0  0  0  0  0  0  0  0  0  0  0
  160.9050  209.5560  152.5720 C   0  0  1  0  0  3  0  0  0  0  0  0
  161.5770  212.8050  148.5900 C   0  0  2  0  0  3  0  0  0  0  0  0
  158.2810  212.2830  152.2930 C   0  0  0  0  0  3  0  0  0  0  0  0
  160.8350  209.8020  156.2100 C   0  0  0  0  0  0  0  0  0  0  0  0
  164.0390  211.1390  157.2610 F   0  0  0  0  0  0  0  0  0  0  0  0
  159.5760  209.7590  156.7100 F   0  0  0  0  0  0  0  0  0  0  0  0
  163.5000  210.7240  155.0820 N   0  0  0  0  0  0  0  0  0  0  0  0
  161.6390  209.6420  153.8840 C   0  0  0  0  0  0  0  0  0  0  0  0
  161.7270  210.6090  156.7780 C   0  0  0  0  0  3  0  0  0  0  0  0
  162.7090  210.4410  153.9140 C   0  0  0  0  0  3  0  0  0  0  0  0
  161.2280  208.8720  155.1100 C   0  0  2  0  0  3  0  0  0  0  0  0
  160.2140  207.9660  154.8610 F   0  0  0  0  0  0  0  0  0  0  0  0
  163.1250  210.7720  156.3290 C   0  0  0  0  0  0  0  0  0  0  0  0
  161.7270  213.1510  147.2290 O   0  0  0  0  0  0  0  0  0  0  0  0
  160.7020  212.5370  146.4890 C   0  0  0  0  0  1  0  0  0  0  0  0
  160.8210  208.3130  150.5210 C   0  0  0  0  0  2  0  0  0  0  0  0
  161.7380  206.0460  150.9090 C   0  0  0  0  0  2  0  0  0  0  0  0
  160.5170  205.1470  149.0850 C   0  0  0  0  0  2  0  0  0  0  0  0
  160.6390  206.5710  148.8200 N   0  0  0  0  0  0  0  0  0  0  0  0
  161.3550  206.7070  147.5640 C   0  0  0  0  0  1  0  0  0  0  0  0
  160.7950  204.9320  150.5520 C   0  0  0  0  0  2  0  0  0  0  0  0
  161.5000  207.1200  149.8660 C   0  0  1  0  0  3  0  0  0  0  0  0
  1 11  1  0  0  0  0
  1  3  1  0  0  0  0
  2  5  1  6  0  0  0
  2  6  1  0  0  0  0
  2  4  1  0  0  0  0
  4  1  2  0  0  0  0
  6 10  1  0  0  0  0
  7  4  1  0  0  0  0
  7  9  2  0  0  0  0
  8  7  1  0  0  0  0
  9 13  1  0  0  0  0
 10 11  1  0  0  0  0
 11 18  1  1  0  0  0
 12 24  1  6  0  0  0
 12  5  1  0  0  0  0
 12  8  1  0  0  0  0
 13  3  2  0  0  0  0
 14 16  1  0  0  0  0
 14 19  2  0  0  0  0
 17 23  2  0  0  0  0
 18 20  2  0  0  0  0
 18 21  1  0  0  0  0
 20 17  1  0  0  0  0
 21 22  1  6  0  0  0
 21 14  1  0  0  0  0
 23 19  1  0  0  0  0
 23 15  1  0  0  0  0
 25 24  1  0  0  0  0
 26 10  1  0  0  0  0
 28 31  1  0  0  0  0
 29 28  1  0  0  0  0
 29 32  1  0  0  0  0
 30 29  1  0  0  0  0
 31 27  1  0  0  0  0
 32 26  1  1  0  0  0
 32 27  1  0  0  0  0
M  END
>  <MODEL>
1

>  <REMARK>
 VINA RESULT:      -5.0      0.000      0.000
  Name = 
  4 active torsions:
  status: ('A' for Active; 'I' for Inactive)
    1  A    between atoms: O_13  and  C_29
    2  A    between atoms: C_16  and  C_27
    3  A    between atoms: N_24  and  C_28
    4  A    between atoms: C_28  and  C_32
                            x       y       z     vdW  Elec       q    Type
                         _______ _______ _______ _____ _____    ______ ____

>  <TORSDO>
F 4

$$$$
=
 OpenBabel11062408233D

 32 36  0  0  1  0  0  0  0  0999 V2000
  160.2910  211.6030  152.2570 C   0  0  0  0  0  0  0  0  0  0  0  0
  158.3700  211.0450  153.7920 C   0  0  2  0  0  3  0  0  0  0  0  0
  160.8260  212.3210  151.1830 C   0  0  0  0  0  3  0  0  0  0  0  0
  159.0050  211.9020  152.7300 C   0  0  0  0  0  0  0  0  0  0  0  0
  157.5020  211.8680  154.7240 C   0  0  0  0  0  2  0  0  0  0  0  0
  159.3140  210.0890  154.5410 C   0  0  0  0  0  2  0  0  0  0  0  0
  158.2780  212.9700  152.1610 C   0  0  0  0  0  0  0  0  0  0  0  0
  156.9880  213.4630  152.7640 C   0  0  0  0  0  2  0  0  0  0  0  0
  158.8270  213.6830  151.0900 C   0  0  0  0  0  3  0  0  0  0  0  0
  160.7470  210.3760  154.3830 N   0  0  0  0  0  0  0  0  0  0  0  0
  161.1410  210.5970  152.9810 C   0  0  1  0  0  3  0  0  0  0  0  0
  156.4250  212.5540  153.8760 C   0  0  2  0  0  3  0  0  0  0  0  0
  160.0880  213.3490  150.5900 C   0  0  0  0  0  3  0  0  0  0  0  0
  161.7390  208.8300  149.8470 C   0  0  0  0  0  0  0  0  0  0  0  0
  160.9080  205.3440  150.4010 F   0  0  0  0  0  0  0  0  0  0  0  0
  161.8090  209.6670  148.7830 F   0  0  0  0  0  0  0  0  0  0  0  0
  160.7690  206.9440  152.0210 N   0  0  0  0  0  0  0  0  0  0  0  0
  161.4120  209.3120  152.2430 C   0  0  0  0  0  0  0  0  0  0  0  0
  161.1500  207.6470  149.6990 C   0  0  0  0  0  3  0  0  0  0  0  0
  160.7190  208.2430  152.6400 C   0  0  0  0  0  3  0  0  0  0  0  0
  162.4150  209.1990  151.1260 C   0  0  2  0  0  3  0  0  0  0  0  0
  163.1660  210.3480  150.9600 F   0  0  0  0  0  0  0  0  0  0  0  0
  160.9850  206.6450  150.7720 C   0  0  0  0  0  0  0  0  0  0  0  0
  155.4230  213.1790  154.6490 O   0  0  0  0  0  0  0  0  0  0  0  0
  155.8430  213.2200  155.9890 C   0  0  0  0  0  1  0  0  0  0  0  0
  161.0900  211.5470  155.1840 C   0  0  0  0  0  2  0  0  0  0  0  0
  160.4670  210.2630  157.2070 C   0  0  0  0  0  2  0  0  0  0  0  0
  162.5390  209.1090  157.2170 C   0  0  0  0  0  2  0  0  0  0  0  0
  162.7720  210.3390  156.4780 N   0  0  0  0  0  0  0  0  0  0  0  0
  163.8010  211.0720  157.1920 C   0  0  0  0  0  1  0  0  0  0  0  0
  161.0490  208.8790  157.2610 C   0  0  0  0  0  2  0  0  0  0  0  0
  161.5420  211.1230  156.5730 C   0  0  1  0  0  3  0  0  0  0  0  0
  1  4  1  0  0  0  0
  1 11  1  0  0  0  0
  2  6  1  1  0  0  0
  2  5  1  0  0  0  0
  3  1  2  0  0  0  0
  4  2  1  0  0  0  0
  7  4  2  0  0  0  0
  7  8  1  0  0  0  0
  8 12  1  0  0  0  0
  9  7  1  0  0  0  0
 10  6  1  0  0  0  0
 10 26  1  0  0  0  0
 11 18  1  6  0  0  0
 11 10  1  0  0  0  0
 12 24  1  1  0  0  0
 12  5  1  0  0  0  0
 13  9  2  0  0  0  0
 13  3  1  0  0  0  0
 14 21  1  0  0  0  0
 15 23  1  0  0  0  0
 16 14  1  0  0  0  0
 17 20  1  0  0  0  0
 18 20  2  0  0  0  0
 19 14  2  0  0  0  0
 19 23  1  0  0  0  0
 21 22  1  6  0  0  0
 21 18  1  0  0  0  0
 23 17  2  0  0  0  0
 24 25  1  0  0  0  0
 27 31  1  0  0  0  0
 28 31  1  0  0  0  0
 29 32  1  0  0  0  0
 29 30  1  0  0  0  0
 29 28  1  0  0  0  0
 32 26  1  6  0  0  0
 32 27  1  0  0  0  0
M  END
>  <MODEL>
2

>  <REMARK>
 VINA RESULT:      -5.0      3.054      6.441
  Name = 
  4 active torsions:
  status: ('A' for Active; 'I' for Inactive)
    1  A    between atoms: O_13  and  C_29
    2  A    between atoms: C_16  and  C_27
    3  A    between atoms: N_24  and  C_28
    4  A    between atoms: C_28  and  C_32
                            x       y       z     vdW  Elec       q    Type
                         _______ _______ _______ _____ _____    ______ ____

>  <TORSDO>
F 4

$$$$
=
 OpenBabel11062408233D

 32 36  0  0  1  0  0  0  0  0999 V2000
  161.5130  210.3430  151.3120 C   0  0  0  0  0  0  0  0  0  0  0  0
  159.4750  210.6650  152.7610 C   0  0  2  0  0  3  0  0  0  0  0  0
  162.2880  210.6900  150.2010 C   0  0  0  0  0  3  0  0  0  0  0  0
  160.3910  211.1110  151.6530 C   0  0  0  0  0  0  0  0  0  0  0  0
  158.9100  211.8470  153.5240 C   0  0  0  0  0  2  0  0  0  0  0  0
  160.0210  209.5610  153.6840 C   0  0  0  0  0  2  0  0  0  0  0  0
  160.0810  212.2700  150.9100 C   0  0  0  0  0  0  0  0  0  0  0  0
  159.0170  213.2400  151.3570 C   0  0  0  0  0  2  0  0  0  0  0  0
  160.8680  212.6090  149.8040 C   0  0  0  0  0  3  0  0  0  0  0  0
  161.4710  209.3350  153.5960 N   0  0  0  0  0  0  0  0  0  0  0  0
  161.9540  209.2200  152.2090 C   0  0  1  0  0  3  0  0  0  0  0  0
  158.1500  212.7270  152.5260 C   0  0  2  0  0  3  0  0  0  0  0  0
  161.9560  211.8140  149.4390 C   0  0  0  0  0  3  0  0  0  0  0  0
  161.1890  207.0210  149.4030 C   0  0  0  0  0  0  0  0  0  0  0  0
  160.2240  203.8090  150.7840 F   0  0  0  0  0  0  0  0  0  0  0  0
  160.9680  207.7030  148.2530 F   0  0  0  0  0  0  0  0  0  0  0  0
  160.8540  205.5920  152.0620 N   0  0  0  0  0  0  0  0  0  0  0  0
  161.7970  207.8300  151.6510 C   0  0  0  0  0  0  0  0  0  0  0  0
  160.4560  205.9420  149.6630 C   0  0  0  0  0  3  0  0  0  0  0  0
  161.1760  206.9450  152.4330 C   0  0  0  0  0  3  0  0  0  0  0  0
  162.3150  207.4220  150.2980 C   0  0  2  0  0  3  0  0  0  0  0  0
  163.0810  208.4030  149.6970 F   0  0  0  0  0  0  0  0  0  0  0  0
  160.5740  205.1150  150.8820 C   0  0  0  0  0  0  0  0  0  0  0  0
  157.3960  213.7470  153.1450 O   0  0  0  0  0  0  0  0  0  0  0  0
  156.5540  213.1680  154.1090 C   0  0  0  0  0  1  0  0  0  0  0  0
  162.1660  210.4240  154.2750 C   0  0  0  0  0  2  0  0  0  0  0  0
  161.7000  211.4890  156.4610 C   0  0  0  0  0  2  0  0  0  0  0  0
  160.3140  209.6870  157.1390 C   0  0  0  0  0  2  0  0  0  0  0  0
  161.1960  209.1490  156.1170 N   0  0  0  0  0  0  0  0  0  0  0  0
  161.9560  208.0780  156.7360 C   0  0  0  0  0  1  0  0  0  0  0  0
  160.3340  211.1900  157.0120 C   0  0  0  0  0  2  0  0  0  0  0  0
  162.1440  210.2090  155.7800 C   0  0  1  0  0  3  0  0  0  0  0  0
  1  4  1  0  0  0  0
  1 11  1  0  0  0  0
  2  5  1  1  0  0  0
  2  6  1  0  0  0  0
  3  1  2  0  0  0  0
  4  2  1  0  0  0  0
  7  8  1  0  0  0  0
  7  4  2  0  0  0  0
  8 12  1  0  0  0  0
  9  7  1  0  0  0  0
 10  6  1  0  0  0  0
 10 26  1  0  0  0  0
 11 18  1  6  0  0  0
 11 10  1  0  0  0  0
 12 24  1  1  0  0  0
 12  5  1  0  0  0  0
 13  9  2  0  0  0  0
 13  3  1  0  0  0  0
 14 19  2  0  0  0  0
 14 21  1  0  0  0  0
 15 23  1  0  0  0  0
 16 14  1  0  0  0  0
 17 20  1  0  0  0  0
 18 20  2  0  0  0  0
 19 23  1  0  0  0  0
 21 22  1  6  0  0  0
 21 18  1  0  0  0  0
 23 17  2  0  0  0  0
 24 25  1  0  0  0  0
 27 31  1  0  0  0  0
 29 30  1  0  0  0  0
 29 28  1  0  0  0  0
 31 28  1  0  0  0  0
 32 26  1  6  0  0  0
 32 29  1  0  0  0  0
 32 27  1  0  0  0  0
M  END
>  <MODEL>
3

>  <REMARK>
 VINA RESULT:      -4.5      2.951      6.198
  Name = 
  4 active torsions:
  status: ('A' for Active; 'I' for Inactive)
    1  A    between atoms: O_13  and  C_29
    2  A    between atoms: C_16  and  C_27
    3  A    between atoms: N_24  and  C_28
    4  A    between atoms: C_28  and  C_32
                            x       y       z     vdW  Elec       q    Type
                         _______ _______ _______ _____ _____    ______ ____

>  <TORSDO>
F 4

$$$$
=
 OpenBabel11062408233D

 32 36  0  0  1  0  0  0  0  0999 V2000
  160.7680  207.9400  153.7820 C   0  0  0  0  0  0  0  0  0  0  0  0
  162.2980  209.9230  154.0750 C   0  0  2  0  0  3  0  0  0  0  0  0
  160.1610  206.7830  154.2810 C   0  0  0  0  0  3  0  0  0  0  0  0
  161.5290  208.7550  154.6330 C   0  0  0  0  0  0  0  0  0  0  0  0
  162.3340  211.0820  155.0530 C   0  0  0  0  0  2  0  0  0  0  0  0
  161.9250  210.3560  152.6470 C   0  0  0  0  0  2  0  0  0  0  0  0
  161.6290  208.4390  156.0040 C   0  0  0  0  0  0  0  0  0  0  0  0
  162.2570  209.3860  156.9940 C   0  0  0  0  0  2  0  0  0  0  0  0
  161.0130  207.2810  156.4900 C   0  0  0  0  0  3  0  0  0  0  0  0
  160.6500  209.8220  152.1450 N   0  0  0  0  0  0  0  0  0  0  0  0
  160.5040  208.3730  152.3670 C   0  0  1  0  0  3  0  0  0  0  0  0
  162.9870  210.5810  156.3460 C   0  0  2  0  0  3  0  0  0  0  0  0
  160.2960  206.4460  155.6300 C   0  0  0  0  0  3  0  0  0  0  0  0
  161.7650  208.0730  148.9580 C   0  0  0  0  0  0  0  0  0  0  0  0
  161.8870  204.5370  148.1630 F   0  0  0  0  0  0  0  0  0  0  0  0
  161.6710  209.2350  148.2650 F   0  0  0  0  0  0  0  0  0  0  0  0
  161.2100  205.3510  150.1840 N   0  0  0  0  0  0  0  0  0  0  0  0
  161.1640  207.5500  151.2920 C   0  0  0  0  0  0  0  0  0  0  0  0
  161.5330  206.9250  148.3270 C   0  0  0  0  0  3  0  0  0  0  0  0
  160.7660  206.2810  151.1900 C   0  0  0  0  0  3  0  0  0  0  0  0
  162.2300  208.0920  150.3770 C   0  0  2  0  0  3  0  0  0  0  0  0
  162.6460  209.3620  150.7300 F   0  0  0  0  0  0  0  0  0  0  0  0
  161.5800  205.5900  148.9580 C   0  0  0  0  0  0  0  0  0  0  0  0
  163.2750  211.6170  157.2610 O   0  0  0  0  0  0  0  0  0  0  0  0
  164.6600  211.8500  157.2610 C   0  0  0  0  0  1  0  0  0  0  0  0
  159.5490  210.5350  152.7870 C   0  0  0  0  0  2  0  0  0  0  0  0
  159.8620  212.5380  151.3650 C   0  0  0  0  0  2  0  0  0  0  0  0
  158.2800  213.7810  152.6210 C   0  0  0  0  0  2  0  0  0  0  0  0
  158.7510  212.7270  153.5050 N   0  0  0  0  0  0  0  0  0  0  0  0
  159.3560  213.3780  154.6530 C   0  0  0  0  0  1  0  0  0  0  0  0
  158.6270  213.3800  151.2100 C   0  0  0  0  0  2  0  0  0  0  0  0
  159.8210  212.0310  152.7930 C   0  0  1  0  0  3  0  0  0  0  0  0
  1  3  2  0  0  0  0
  1  4  1  0  0  0  0
  2  6  1  6  0  0  0
  2  4  1  0  0  0  0
  2  5  1  0  0  0  0
  3 13  1  0  0  0  0
  4  7  2  0  0  0  0
  5 12  1  0  0  0  0
  7  9  1  0  0  0  0
  7  8  1  0  0  0  0
 10 11  1  0  0  0  0
 10  6  1  0  0  0  0
 10 26  1  0  0  0  0
 11 18  1  6  0  0  0
 11  1  1  0  0  0  0
 12  8  1  0  0  0  0
 12 24  1  1  0  0  0
 13  9  2  0  0  0  0
 14 21  1  0  0  0  0
 15 23  1  0  0  0  0
 16 14  1  0  0  0  0
 17 20  1  0  0  0  0
 19 14  2  0  0  0  0
 19 23  1  0  0  0  0
 20 18  2  0  0  0  0
 21 22  1  1  0  0  0
 21 18  1  0  0  0  0
 23 17  2  0  0  0  0
 24 25  1  0  0  0  0
 27 32  1  0  0  0  0
 28 29  1  0  0  0  0
 29 30  1  0  0  0  0
 31 27  1  0  0  0  0
 31 28  1  0  0  0  0
 32 26  1  6  0  0  0
 32 29  1  0  0  0  0
M  END
>  <MODEL>
4

>  <REMARK>
 VINA RESULT:      -4.2      3.211      7.225
  Name = 
  4 active torsions:
  status: ('A' for Active; 'I' for Inactive)
    1  A    between atoms: O_13  and  C_29
    2  A    between atoms: C_16  and  C_27
    3  A    between atoms: N_24  and  C_28
    4  A    between atoms: C_28  and  C_32
                            x       y       z     vdW  Elec       q    Type
                         _______ _______ _______ _____ _____    ______ ____

>  <TORSDO>
F 4

$$$$
=
 OpenBabel11062408233D

 32 36  0  0  1  0  0  0  0  0999 V2000
  160.0920  211.8860  155.2870 C   0  0  0  0  0  0  0  0  0  0  0  0
  159.4390  210.2330  153.5000 C   0  0  2  0  0  3  0  0  0  0  0  0
  160.8840  212.2520  156.3800 C   0  0  0  0  0  3  0  0  0  0  0  0
  160.3670  210.7030  154.5870 C   0  0  0  0  0  0  0  0  0  0  0  0
  160.1970  209.5490  152.3780 C   0  0  0  0  0  2  0  0  0  0  0  0
  158.4190  211.2660  152.9890 C   0  0  0  0  0  2  0  0  0  0  0  0
  161.4810  209.9160  154.9480 C   0  0  0  0  0  0  0  0  0  0  0  0
  161.9410  208.7540  154.1040 C   0  0  0  0  0  2  0  0  0  0  0  0
  162.2680  210.2960  156.0400 C   0  0  0  0  0  3  0  0  0  0  0  0
  158.7030  212.6590  153.3620 N   0  0  0  0  0  0  0  0  0  0  0  0
  159.0250  212.8210  154.7900 C   0  0  1  0  0  3  0  0  0  0  0  0
  160.9550  208.3620  152.9840 C   0  0  2  0  0  3  0  0  0  0  0  0
  161.9610  211.4500  156.7650 C   0  0  0  0  0  3  0  0  0  0  0  0
  155.8500  211.4560  155.9530 C   0  0  0  0  0  0  0  0  0  0  0  0
  153.9020  214.2220  157.2580 F   0  0  0  0  0  0  0  0  0  0  0  0
  155.5930  210.2280  155.4390 F   0  0  0  0  0  0  0  0  0  0  0  0
  156.0100  214.4530  156.4160 N   0  0  0  0  0  0  0  0  0  0  0  0
  157.7980  212.9390  155.6540 C   0  0  0  0  0  0  0  0  0  0  0  0
  154.8450  212.3130  156.1080 C   0  0  0  0  0  3  0  0  0  0  0  0
  157.2290  214.1450  155.7150 C   0  0  0  0  0  3  0  0  0  0  0  0
  157.2250  211.7850  156.4330 C   0  0  2  0  0  3  0  0  0  0  0  0
  158.0280  210.6610  156.3990 F   0  0  0  0  0  0  0  0  0  0  0  0
  154.9800  213.6860  156.6360 C   0  0  0  0  0  0  0  0  0  0  0  0
  161.5300  207.5150  152.0120 O   0  0  0  0  0  0  0  0  0  0  0  0
  161.8290  208.2750  150.8680 C   0  0  0  0  0  1  0  0  0  0  0  0
  159.8070  213.1560  152.5460 C   0  0  0  0  0  2  0  0  0  0  0  0
  160.3960  214.4500  150.5190 C   0  0  0  0  0  2  0  0  0  0  0  0
  158.4390  213.7330  149.3880 C   0  0  0  0  0  2  0  0  0  0  0  0
  158.1510  213.5980  150.8060 N   0  0  0  0  0  0  0  0  0  0  0  0
  157.0130  214.4530  151.0890 C   0  0  0  0  0  1  0  0  0  0  0  0
  159.9370  213.8230  149.2330 C   0  0  0  0  0  2  0  0  0  0  0  0
  159.2970  214.1570  151.5210 C   0  0  1  0  0  3  0  0  0  0  0  0
  1  3  1  0  0  0  0
  2  5  1  6  0  0  0
  2  4  1  0  0  0  0
  3 13  2  0  0  0  0
  4  7  1  0  0  0  0
  4  1  2  0  0  0  0
  5 12  1  0  0  0  0
  6 10  1  0  0  0  0
  6  2  1  0  0  0  0
  7  9  2  0  0  0  0
  8  7  1  0  0  0  0
  9 13  1  0  0  0  0
 10 11  1  0  0  0  0
 11  1  1  0  0  0  0
 11 18  1  1  0  0  0
 12 24  1  6  0  0  0
 12  8  1  0  0  0  0
 14 19  2  0  0  0  0
 14 21  1  0  0  0  0
 16 14  1  0  0  0  0
 17 23  2  0  0  0  0
 18 20  2  0  0  0  0
 18 21  1  0  0  0  0
 19 23  1  0  0  0  0
 20 17  1  0  0  0  0
 21 22  1  6  0  0  0
 23 15  1  0  0  0  0
 25 24  1  0  0  0  0
 26 10  1  0  0  0  0
 27 32  1  0  0  0  0
 28 29  1  0  0  0  0
 29 30  1  0  0  0  0
 29 32  1  0  0  0  0
 31 28  1  0  0  0  0
 31 27  1  0  0  0  0
 32 26  1  1  0  0  0
M  END
>  <MODEL>
5

>  <REMARK>
 VINA RESULT:      -3.7      3.667      6.556
  Name = 
  4 active torsions:
  status: ('A' for Active; 'I' for Inactive)
    1  A    between atoms: O_13  and  C_29
    2  A    between atoms: C_16  and  C_27
    3  A    between atoms: N_24  and  C_28
    4  A    between atoms: C_28  and  C_32
                            x       y       z     vdW  Elec       q    Type
                         _______ _______ _______ _____ _____    ______ ____

>  <TORSDO>
F 4

$$$$
=
 OpenBabel11062408233D

 32 36  0  0  1  0  0  0  0  0999 V2000
  160.2250  211.7800  155.2130 C   0  0  0  0  0  0  0  0  0  0  0  0
  159.5430  210.0890  153.4720 C   0  0  2  0  0  3  0  0  0  0  0  0
  161.0290  212.1660  156.2900 C   0  0  0  0  0  3  0  0  0  0  0  0
  160.4840  210.5780  154.5400 C   0  0  0  0  0  0  0  0  0  0  0  0
  160.2860  209.3700  152.3620 C   0  0  0  0  0  2  0  0  0  0  0  0
  158.5290  211.1180  152.9440 C   0  0  0  0  0  2  0  0  0  0  0  0
  161.5940  209.7890  154.9120 C   0  0  0  0  0  0  0  0  0  0  0  0
  162.0360  208.6030  154.0940 C   0  0  0  0  0  2  0  0  0  0  0  0
  162.3920  210.1900  155.9890 C   0  0  0  0  0  3  0  0  0  0  0  0
  158.8280  212.5180  153.2790 N   0  0  0  0  0  0  0  0  0  0  0  0
  159.1630  212.7130  154.7000 C   0  0  1  0  0  3  0  0  0  0  0  0
  161.0380  208.1930  152.9920 C   0  0  2  0  0  3  0  0  0  0  0  0
  162.1020  211.3640  156.6870 C   0  0  0  0  0  3  0  0  0  0  0  0
  155.8880  211.5150  155.7660 C   0  0  0  0  0  0  0  0  0  0  0  0
  154.1470  214.3250  157.2590 F   0  0  0  0  0  0  0  0  0  0  0  0
  155.5420  210.3480  155.1690 F   0  0  0  0  0  0  0  0  0  0  0  0
  156.2710  214.4530  156.4340 N   0  0  0  0  0  0  0  0  0  0  0  0
  157.9430  212.8630  155.5700 C   0  0  0  0  0  0  0  0  0  0  0  0
  154.9490  212.4330  155.9800 C   0  0  0  0  0  3  0  0  0  0  0  0
  157.4670  214.1020  155.7140 C   0  0  0  0  0  3  0  0  0  0  0  0
  157.2810  211.7060  156.2680 C   0  0  2  0  0  3  0  0  0  0  0  0
  157.9980  210.5290  156.1570 F   0  0  0  0  0  0  0  0  0  0  0  0
  155.1850  213.7530  156.6010 C   0  0  0  0  0  0  0  0  0  0  0  0
  161.5980  207.3160  152.0370 O   0  0  0  0  0  0  0  0  0  0  0  0
  162.0300  208.0670  150.9300 C   0  0  0  0  0  1  0  0  0  0  0  0
  159.9300  212.9840  152.4420 C   0  0  0  0  0  2  0  0  0  0  0  0
  158.1350  213.1750  150.7480 C   0  0  0  0  0  2  0  0  0  0  0  0
  159.5210  214.4370  149.2970 C   0  0  0  0  0  2  0  0  0  0  0  0
  160.4220  213.6890  150.1570 N   0  0  0  0  0  0  0  0  0  0  0  0
  161.2240  212.8410  149.2940 C   0  0  0  0  0  1  0  0  0  0  0  0
  158.1670  214.4530  149.9600 C   0  0  0  0  0  2  0  0  0  0  0  0
  159.5880  212.8070  150.9710 C   0  0  1  0  0  3  0  0  0  0  0  0
  1  3  1  0  0  0  0
  2  5  1  6  0  0  0
  2  4  1  0  0  0  0
  3 13  2  0  0  0  0
  4  7  1  0  0  0  0
  4  1  2  0  0  0  0
  5 12  1  0  0  0  0
  6 10  1  0  0  0  0
  6  2  1  0  0  0  0
  7  9  2  0  0  0  0
  8  7  1  0  0  0  0
  9 13  1  0  0  0  0
 10 11  1  0  0  0  0
 11  1  1  0  0  0  0
 11 18  1  1  0  0  0
 12 24  1  6  0  0  0
 12  8  1  0  0  0  0
 14 19  2  0  0  0  0
 14 21  1  0  0  0  0
 16 14  1  0  0  0  0
 17 23  2  0  0  0  0
 18 20  2  0  0  0  0
 18 21  1  0  0  0  0
 19 23  1  0  0  0  0
 20 17  1  0  0  0  0
 21 22  1  6  0  0  0
 23 15  1  0  0  0  0
 25 24  1  0  0  0  0
 26 10  1  0  0  0  0
 27 32  1  0  0  0  0
 28 31  1  0  0  0  0
 28 29  1  0  0  0  0
 29 32  1  0  0  0  0
 30 29  1  0  0  0  0
 31 27  1  0  0  0  0
 32 26  1  1  0  0  0
M  END
>  <MODEL>
6

>  <REMARK>
 VINA RESULT:      -3.4      3.547      6.371
  Name = 
  4 active torsions:
  status: ('A' for Active; 'I' for Inactive)
    1  A    between atoms: O_13  and  C_29
    2  A    between atoms: C_16  and  C_27
    3  A    between atoms: N_24  and  C_28
    4  A    between atoms: C_28  and  C_32
                            x       y       z     vdW  Elec       q    Type
                         _______ _______ _______ _____ _____    ______ ____

>  <TORSDO>
F 4

$$$$
=
 OpenBabel11062408233D

 32 36  0  0  1  0  0  0  0  0999 V2000
  160.7050  209.2840  151.7200 C   0  0  0  0  0  0  0  0  0  0  0  0
  161.3280  210.0560  154.0370 C   0  0  2  0  0  3  0  0  0  0  0  0
  160.6070  208.2770  150.7540 C   0  0  0  0  0  3  0  0  0  0  0  0
  161.0870  208.9640  153.0300 C   0  0  0  0  0  0  0  0  0  0  0  0
  160.9090  209.6290  155.4310 C   0  0  0  0  0  2  0  0  0  0  0  0
  160.8040  211.4520  153.6570 C   0  0  0  0  0  2  0  0  0  0  0  0
  161.3130  207.6170  153.3870 C   0  0  0  0  0  0  0  0  0  0  0  0
  161.5220  207.2000  154.8200 C   0  0  0  0  0  2  0  0  0  0  0  0
  161.2080  206.6200  152.4120 C   0  0  0  0  0  3  0  0  0  0  0  0
  159.8410  211.4760  152.5460 N   0  0  0  0  0  0  0  0  0  0  0  0
  160.2810  210.6860  151.3830 C   0  0  1  0  0  3  0  0  0  0  0  0
  161.7160  208.3780  155.7970 C   0  0  2  0  0  3  0  0  0  0  0  0
  160.8740  206.9490  151.0970 C   0  0  0  0  0  3  0  0  0  0  0  0
  160.7730  213.1790  148.7670 C   0  0  0  0  0  0  0  0  0  0  0  0
  163.9760  212.4910  147.2120 F   0  0  0  0  0  0  0  0  0  0  0  0
  159.6180  213.7930  148.4110 F   0  0  0  0  0  0  0  0  0  0  0  0
  163.1340  211.2770  148.9510 N   0  0  0  0  0  0  0  0  0  0  0  0
  161.2050  211.4530  150.4750 C   0  0  0  0  0  0  0  0  0  0  0  0
  161.6710  212.8990  147.8270 C   0  0  0  0  0  3  0  0  0  0  0  0
  162.1930  210.7560  149.9080 C   0  0  0  0  0  3  0  0  0  0  0  0
  161.0640  212.9280  150.2100 C   0  0  2  0  0  3  0  0  0  0  0  0
  160.1050  213.5280  151.0060 F   0  0  0  0  0  0  0  0  0  0  0  0
  162.9600  212.2180  148.0670 C   0  0  0  0  0  0  0  0  0  0  0  0
  161.5770  208.0040  157.1510 O   0  0  0  0  0  0  0  0  0  0  0  0
  160.5310  207.0720  157.2590 C   0  0  0  0  0  1  0  0  0  0  0  0
  158.5530  210.9820  153.0210 C   0  0  0  0  0  2  0  0  0  0  0  0
  158.0150  213.3340  153.5750 C   0  0  0  0  0  2  0  0  0  0  0  0
  155.8220  212.7590  154.2700 C   0  0  0  0  0  2  0  0  0  0  0  0
  156.6090  211.5430  154.3880 N   0  0  0  0  0  0  0  0  0  0  0  0
  156.5650  211.1460  155.7840 C   0  0  0  0  0  1  0  0  0  0  0  0
  156.5730  213.7010  153.3640 C   0  0  0  0  0  2  0  0  0  0  0  0
  157.9920  211.9080  154.0890 C   0  0  1  0  0  3  0  0  0  0  0  0
  1  4  1  0  0  0  0
  2  6  1  6  0  0  0
  2  5  1  0  0  0  0
  3 13  1  0  0  0  0
  3  1  2  0  0  0  0
  4  7  2  0  0  0  0
  4  2  1  0  0  0  0
  5 12  1  0  0  0  0
  7  8  1  0  0  0  0
  8 12  1  0  0  0  0
  9  7  1  0  0  0  0
 10 26  1  0  0  0  0
 10  6  1  0  0  0  0
 11 18  1  1  0  0  0
 11  1  1  0  0  0  0
 11 10  1  0  0  0  0
 12 24  1  1  0  0  0
 13  9  2  0  0  0  0
 14 21  1  0  0  0  0
 15 23  1  0  0  0  0
 16 14  1  0  0  0  0
 17 20  1  0  0  0  0
 19 23  1  0  0  0  0
 19 14  2  0  0  0  0
 20 18  2  0  0  0  0
 21 18  1  0  0  0  0
 21 22  1  1  0  0  0
 23 17  2  0  0  0  0
 24 25  1  0  0  0  0
 27 32  1  0  0  0  0
 28 29  1  0  0  0  0
 29 30  1  0  0  0  0
 31 27  1  0  0  0  0
 31 28  1  0  0  0  0
 32 26  1  6  0  0  0
 32 29  1  0  0  0  0
M  END
>  <MODEL>
7

>  <REMARK>
 VINA RESULT:      -3.1      3.863      7.404
  Name = 
  4 active torsions:
  status: ('A' for Active; 'I' for Inactive)
    1  A    between atoms: O_13  and  C_29
    2  A    between atoms: C_16  and  C_27
    3  A    between atoms: N_24  and  C_28
    4  A    between atoms: C_28  and  C_32
                            x       y       z     vdW  Elec       q    Type
                         _______ _______ _______ _____ _____    ______ ____

>  <TORSDO>
F 4

$$$$
=
 OpenBabel11062408233D

 32 36  0  0  1  0  0  0  0  0999 V2000
  160.5750  211.0440  155.1310 C   0  0  0  0  0  0  0  0  0  0  0  0
  159.9330  209.0660  153.7060 C   0  0  2  0  0  3  0  0  0  0  0  0
  161.2240  211.5860  156.2450 C   0  0  0  0  0  3  0  0  0  0  0  0
  160.7340  209.6860  154.8190 C   0  0  0  0  0  0  0  0  0  0  0  0
  160.7260  207.9980  152.9780 C   0  0  0  0  0  2  0  0  0  0  0  0
  159.2330  210.0470  152.7500 C   0  0  0  0  0  2  0  0  0  0  0  0
  161.5980  208.8830  155.5950 C   0  0  0  0  0  0  0  0  0  0  0  0
  161.9630  207.4810  155.1810 C   0  0  0  0  0  2  0  0  0  0  0  0
  162.2430  209.4400  156.7040 C   0  0  0  0  0  3  0  0  0  0  0  0
  159.7110  211.4360  152.8210 N   0  0  0  0  0  0  0  0  0  0  0  0
  159.8090  211.9420  154.2010 C   0  0  1  0  0  3  0  0  0  0  0  0
  161.1270  206.9330  154.0060 C   0  0  2  0  0  3  0  0  0  0  0  0
  162.0440  210.7810  157.0390 C   0  0  0  0  0  3  0  0  0  0  0  0
  156.3880  211.3280  155.3050 C   0  0  0  0  0  0  0  0  0  0  0  0
  154.5750  214.4520  154.9800 F   0  0  0  0  0  0  0  0  0  0  0  0
  156.0780  210.0090  155.3270 F   0  0  0  0  0  0  0  0  0  0  0  0
  156.7870  214.2210  154.4710 N   0  0  0  0  0  0  0  0  0  0  0  0
  158.4970  212.4660  154.7230 C   0  0  0  0  0  0  0  0  0  0  0  0
  155.4620  212.2020  154.9180 C   0  0  0  0  0  3  0  0  0  0  0  0
  158.0500  213.5970  154.1740 C   0  0  0  0  0  3  0  0  0  0  0  0
  157.7140  211.7870  155.8150 C   0  0  2  0  0  3  0  0  0  0  0  0
  158.3990  210.7330  156.3910 F   0  0  0  0  0  0  0  0  0  0  0  0
  155.6650  213.6620  154.8260 C   0  0  0  0  0  0  0  0  0  0  0  0
  161.6870  205.7770  153.4190 O   0  0  0  0  0  0  0  0  0  0  0  0
  161.8660  206.0070  152.0450 C   0  0  0  0  0  1  0  0  0  0  0  0
  161.0130  211.5260  152.1670 C   0  0  0  0  0  2  0  0  0  0  0  0
  160.4720  212.4430  149.9320 C   0  0  0  0  0  2  0  0  0  0  0  0
  162.4530  211.5430  148.9890 C   0  0  0  0  0  2  0  0  0  0  0  0
  162.1720  210.7390  150.1680 N   0  0  0  0  0  0  0  0  0  0  0  0
  161.9880  209.3730  149.7130 C   0  0  0  0  0  1  0  0  0  0  0  0
  161.6750  212.8280  149.1180 C   0  0  0  0  0  2  0  0  0  0  0  0
  160.8850  211.1960  150.6880 C   0  0  1  0  0  3  0  0  0  0  0  0
  1  3  1  0  0  0  0
  2  6  1  6  0  0  0
  2  4  1  0  0  0  0
  3 13  2  0  0  0  0
  4  1  2  0  0  0  0
  4  7  1  0  0  0  0
  5  2  1  0  0  0  0
  5 12  1  0  0  0  0
  6 10  1  0  0  0  0
  7  9  2  0  0  0  0
  8  7  1  0  0  0  0
  9 13  1  0  0  0  0
 10 11  1  0  0  0  0
 11 18  1  1  0  0  0
 11  1  1  0  0  0  0
 12 24  1  6  0  0  0
 12  8  1  0  0  0  0
 14 16  1  0  0  0  0
 14 21  1  0  0  0  0
 17 23  2  0  0  0  0
 18 21  1  0  0  0  0
 19 14  2  0  0  0  0
 20 17  1  0  0  0  0
 20 18  2  0  0  0  0
 21 22  1  6  0  0  0
 23 19  1  0  0  0  0
 23 15  1  0  0  0  0
 25 24  1  0  0  0  0
 26 10  1  0  0  0  0
 27 32  1  0  0  0  0
 28 31  1  0  0  0  0
 28 29  1  0  0  0  0
 29 32  1  0  0  0  0
 30 29  1  0  0  0  0
 31 27  1  0  0  0  0
 32 26  1  1  0  0  0
M  END
>  <MODEL>
8

>  <REMARK>
 VINA RESULT:      -2.8      3.214      6.087
  Name = 
  4 active torsions:
  status: ('A' for Active; 'I' for Inactive)
    1  A    between atoms: O_13  and  C_29
    2  A    between atoms: C_16  and  C_27
    3  A    between atoms: N_24  and  C_28
    4  A    between atoms: C_28  and  C_32
                            x       y       z     vdW  Elec       q    Type
                         _______ _______ _______ _____ _____    ______ ____

>  <TORSDO>
F 4

$$$$
=
 OpenBabel11062408233D

 32 36  0  0  1  0  0  0  0  0999 V2000
  161.2720  210.3620  151.0980 C   0  0  0  0  0  0  0  0  0  0  0  0
  159.0020  211.1340  151.8760 C   0  0  2  0  0  3  0  0  0  0  0  0
  162.3510  210.4430  150.2120 C   0  0  0  0  0  3  0  0  0  0  0  0
  160.2290  211.2960  151.0200 C   0  0  0  0  0  0  0  0  0  0  0  0
  158.4430  212.4770  152.3050 C   0  0  0  0  0  2  0  0  0  0  0  0
  159.1180  210.1340  153.0400 C   0  0  0  0  0  2  0  0  0  0  0  0
  160.3000  212.3520  150.0870 C   0  0  0  0  0  0  0  0  0  0  0  0
  159.3150  213.4920  150.1010 C   0  0  0  0  0  2  0  0  0  0  0  0
  161.3870  212.4230  149.2090 C   0  0  0  0  0  3  0  0  0  0  0  0
  160.4900  209.7350  153.3850 N   0  0  0  0  0  0  0  0  0  0  0  0
  161.2930  209.3520  152.2110 C   0  0  1  0  0  3  0  0  0  0  0  0
  158.1090  213.2700  151.0370 C   0  0  2  0  0  3  0  0  0  0  0  0
  162.4000  211.4630  149.2580 C   0  0  0  0  0  3  0  0  0  0  0  0
  161.7720  205.7920  152.8410 C   0  0  0  0  0  0  0  0  0  0  0  0
  161.3620  204.0730  149.6740 F   0  0  0  0  0  0  0  0  0  0  0  0
  162.4060  205.5520  154.0150 F   0  0  0  0  0  0  0  0  0  0  0  0
  161.1400  206.3310  149.9190 N   0  0  0  0  0  0  0  0  0  0  0  0
  161.0780  207.9180  151.8030 C   0  0  0  0  0  0  0  0  0  0  0  0
  162.0490  205.0240  151.7900 C   0  0  0  0  0  3  0  0  0  0  0  0
  161.2230  207.6430  150.5040 C   0  0  0  0  0  3  0  0  0  0  0  0
  160.7020  206.8320  152.7750 C   0  0  2  0  0  3  0  0  0  0  0  0
  160.4220  207.3150  154.0390 F   0  0  0  0  0  0  0  0  0  0  0  0
  161.4510  205.1810  150.4490 C   0  0  0  0  0  0  0  0  0  0  0  0
  157.3830  214.4530  151.2960 O   0  0  0  0  0  0  0  0  0  0  0  0
  156.1010  214.3300  150.7340 C   0  0  0  0  0  1  0  0  0  0  0  0
  161.1420  210.8320  154.0930 C   0  0  0  0  0  2  0  0  0  0  0  0
  162.3040  210.4380  156.2440 C   0  0  0  0  0  2  0  0  0  0  0  0
  161.2340  212.2940  157.2600 C   0  0  0  0  0  2  0  0  0  0  0  0
  160.3800  211.8990  156.1530 N   0  0  0  0  0  0  0  0  0  0  0  0
  159.0910  211.5440  156.7190 C   0  0  0  0  0  1  0  0  0  0  0  0
  162.5940  211.6890  157.0250 C   0  0  0  0  0  2  0  0  0  0  0  0
  160.9550  210.6770  155.5950 C   0  0  1  0  0  3  0  0  0  0  0  0
  1 11  1  0  0  0  0
  2  5  1  1  0  0  0
  2  6  1  0  0  0  0
  3  1  2  0  0  0  0
  4  1  1  0  0  0  0
  4  2  1  0  0  0  0
  6 10  1  0  0  0  0
  7  8  1  0  0  0  0
  7  4  2  0  0  0  0
  8 12  1  0  0  0  0
  9 13  2  0  0  0  0
  9  7  1  0  0  0  0
 10 26  1  0  0  0  0
 11 18  1  6  0  0  0
 11 10  1  0  0  0  0
 12 24  1  1  0  0  0
 12  5  1  0  0  0  0
 13  3  1  0  0  0  0
 14 16  1  0  0  0  0
 15 23  1  0  0  0  0
 17 23  2  0  0  0  0
 17 20  1  0  0  0  0
 18 21  1  0  0  0  0
 19 14  2  0  0  0  0
 20 18  2  0  0  0  0
 21 14  1  0  0  0  0
 21 22  1  1  0  0  0
 23 19  1  0  0  0  0
 25 24  1  0  0  0  0
 27 31  1  0  0  0  0
 29 30  1  0  0  0  0
 29 28  1  0  0  0  0
 31 28  1  0  0  0  0
 32 26  1  6  0  0  0
 32 29  1  0  0  0  0
 32 27  1  0  0  0  0
M  END
>  <MODEL>
9

>  <REMARK>
 VINA RESULT:      -2.5      2.222      5.937
  Name = 
  4 active torsions:
  status: ('A' for Active; 'I' for Inactive)
    1  A    between atoms: O_13  and  C_29
    2  A    between atoms: C_16  and  C_27
    3  A    between atoms: N_24  and  C_28
    4  A    between atoms: C_28  and  C_32
                            x       y       z     vdW  Elec       q    Type
                         _______ _______ _______ _____ _____    ______ ____

>  <TORSDO>
F 4

$$$$
