=
 OpenBabel11062407503D

 34 37  0  0  1  0  0  0  0  0999 V2000
  160.7680  208.0190  155.3410 C   0  0  0  0  0  0  0  0  0  0  0  0
  161.2410  206.9350  153.0370 C   0  0  1  0  0  3  0  0  0  0  0  0
  161.5960  209.3860  153.3410 C   0  0  2  0  0  3  0  0  0  0  0  0
  160.0800  206.7930  157.2600 O   0  0  0  0  0  1  0  0  0  0  0  0
  162.4550  206.2790  153.6870 C   0  0  0  0  0  1  0  0  0  0  0  0
  160.8290  208.4250  151.1280 C   0  0  0  0  0  2  0  0  0  0  0  0
  160.7810  208.1830  153.8350 C   0  0  2  0  0  3  0  0  0  0  0  0
  160.0670  210.5700  151.8060 O   0  0  0  0  0  0  0  0  0  0  0  0
  160.1540  206.9660  155.8820 C   0  0  0  0  0  3  0  0  0  0  0  0
  161.5530  210.6060  154.2750 C   0  0  1  0  0  3  0  0  0  0  0  0
  161.3470  209.0630  156.2080 C   0  0  0  0  0  3  0  0  0  0  0  0
  161.5640  207.2540  151.6210 N   0  0  2  0  0  0  0  0  0  0  0  0
  160.2600  211.7600  152.5430 C   0  0  0  0  0  2  0  0  0  0  0  0
  160.3180  211.4670  154.0350 C   0  0  1  0  0  3  0  0  0  0  0  0
  161.2110  209.7250  151.8720 C   0  0  1  0  0  0  0  0  0  0  0  0
  161.7350  210.2410  155.7210 C   0  0  0  0  0  3  0  0  0  0  0  0
  162.6680  207.3750  149.2070 F   0  0  0  0  0  0  0  0  0  0  0  0
  161.2270  204.7700  151.4230 C   0  0  0  0  0  2  0  0  0  0  0  0
  162.1740  206.1110  149.4850 C   0  0  1  0  0  3  0  0  0  0  0  0
  161.2470  206.1370  150.7120 C   0  0  2  0  0  3  0  0  0  0  0  0
  161.0370  203.4520  149.3650 N   0  0  0  0  0  2  0  0  0  0  0  0
  160.5080  204.4330  148.4290 C   0  0  0  0  0  2  0  0  0  0  0  0
  161.4910  205.5830  148.2170 C   0  0  0  0  0  2  0  0  0  0  0  0
  160.4200  203.7340  150.6520 C   0  0  0  0  0  2  0  0  0  0  0  0
  159.1490  210.8010  154.4320 O   0  0  0  0  0  0  0  0  0  0  0  0
  158.2950  211.8000  154.9140 C   0  0  2  0  0  3  0  0  0  0  0  0
  158.5400  212.0440  156.3700 C   0  0  0  0  0  0  0  0  0  0  0  0
  158.6370  213.3470  156.8410 O   0  0  0  0  0  0  0  0  0  0  0  0
  158.6290  211.0800  157.1770 O   0  0  0  0  0  1  0  0  0  0  0  0
  155.9010  212.3730  154.5960 C   0  0  0  0  0  2  0  0  0  0  0  0
  156.8570  211.4470  154.6510 C   0  0  0  0  0  3  0  0  0  0  0  0
  162.4310  210.3570  151.1750 C   0  0  0  0  0  2  0  0  0  0  0  0
  161.9590  211.7620  149.1560 C   0  0  0  0  0  1  0  0  0  0  0  0
  162.3270  210.3760  149.6520 C   0  0  0  0  0  2  0  0  0  0  0  0
  1  9  2  0  0  0  0
  1 11  1  0  0  0  0
  2  5  1  1  0  0  0
  2  7  1  0  0  0  0
  3  7  1  0  0  0  0
  3 10  1  0  0  0  0
  6 12  1  0  0  0  0
  6 15  1  0  0  0  0
  7  1  1  0  0  0  0
  8 15  1  0  0  0  0
  8 13  1  0  0  0  0
  9  4  1  0  0  0  0
 10 16  1  0  0  0  0
 12  2  1  0  0  0  0
 13 14  1  0  0  0  0
 14 10  1  0  0  0  0
 14 25  1  0  0  0  0
 15  3  1  0  0  0  0
 16 11  2  0  0  0  0
 17 19  1  0  0  0  0
 19 20  1  0  0  0  0
 20 18  1  0  0  0  0
 20 12  1  0  0  0  0
 21 24  1  0  0  0  0
 22 21  1  0  0  0  0
 23 22  1  0  0  0  0
 23 19  1  0  0  0  0
 24 18  1  0  0  0  0
 25 26  1  0  0  0  0
 26 27  1  0  0  0  0
 27 28  2  0  0  0  0
 27 29  1  0  0  0  0
 30 31  2  0  0  0  0
 31 26  1  0  0  0  0
 32 15  1  0  0  0  0
 33 34  1  0  0  0  0
 34 32  1  0  0  0  0
M  END
>  <MODEL>
1

>  <REMARK>
 VINA RESULT:      -5.6      0.000      0.000
  Name = 
  7 active torsions:
  status: ('A' for Active; 'I' for Inactive)
    1  A    between atoms: C_7  and  C_23
    2  A    between atoms: O_12  and  C_23
    3  A    between atoms: O_12  and  C_28
    4  A    between atoms: C_14  and  N_25
    5  A    between atoms: C_17  and  C_29
    6  A    between atoms: C_23  and  C_27
    7  A    between atoms: C_29  and  C_31
                            x       y       z     vdW  Elec       q    Type
                         _______ _______ _______ _____ _____    ______ ____

>  <TORSDO>
F 7

$$$$
=
 OpenBabel11062407503D

 34 37  0  0  1  0  0  0  0  0999 V2000
  162.0800  208.1240  150.3130 C   0  0  0  0  0  0  0  0  0  0  0  0
  161.1280  209.7330  152.1040 C   0  0  1  0  0  3  0  0  0  0  0  0
  161.9580  207.4810  152.7880 C   0  0  2  0  0  3  0  0  0  0  0  0
  162.3000  208.6910  148.0130 O   0  0  0  0  0  1  0  0  0  0  0  0
  162.3860  210.5710  151.9030 C   0  0  0  0  0  1  0  0  0  0  0  0
  160.0250  208.5970  153.9830 C   0  0  0  0  0  2  0  0  0  0  0  0
  161.3410  208.2730  151.6260 C   0  0  2  0  0  3  0  0  0  0  0  0
  160.0590  206.2340  153.7530 O   0  0  0  0  0  0  0  0  0  0  0  0
  161.6790  208.8240  149.2500 C   0  0  0  0  0  3  0  0  0  0  0  0
  162.5890  206.1420  152.3770 C   0  0  1  0  0  3  0  0  0  0  0  0
  163.1740  207.1430  150.1820 C   0  0  0  0  0  3  0  0  0  0  0  0
  160.7200  209.8100  153.5320 N   0  0  2  0  0  0  0  0  0  0  0  0
  160.7830  205.0300  153.6030 C   0  0  0  0  0  2  0  0  0  0  0  0
  161.5540  205.0250  152.2910 C   0  0  1  0  0  3  0  0  0  0  0  0
  160.9290  207.3440  153.9470 C   0  0  1  0  0  0  0  0  0  0  0  0
  163.4310  206.2500  151.1370 C   0  0  0  0  0  3  0  0  0  0  0  0
  161.2840  211.2740  155.6760 F   0  0  0  0  0  0  0  0  0  0  0  0
  159.3930  211.6850  152.5100 C   0  0  0  0  0  2  0  0  0  0  0  0
  160.3940  211.9180  154.8330 C   0  0  1  0  0  3  0  0  0  0  0  0
  159.8140  210.9440  153.7930 C   0  0  2  0  0  3  0  0  0  0  0  0
  158.2960  213.5410  153.6750 N   0  0  0  0  0  2  0  0  0  0  0  0
  158.0270  212.9580  154.9810 C   0  0  0  0  0  2  0  0  0  0  0  0
  159.3230  212.5900  155.7010 C   0  0  0  0  0  2  0  0  0  0  0  0
  158.1070  212.4780  152.7000 C   0  0  0  0  0  2  0  0  0  0  0  0
  160.6720  205.2300  151.2220 O   0  0  0  0  0  0  0  0  0  0  0  0
  161.0500  204.3040  150.2420 C   0  0  2  0  0  3  0  0  0  0  0  0
  160.8680  204.8830  148.8740 C   0  0  0  0  0  0  0  0  0  0  0  0
  161.4800  204.2770  147.7850 O   0  0  0  0  0  0  0  0  0  0  0  0
  160.1410  205.8970  148.6970 O   0  0  0  0  0  1  0  0  0  0  0  0
  160.8450  201.8320  150.1480 C   0  0  0  0  0  2  0  0  0  0  0  0
  160.2890  203.0170  150.3990 C   0  0  0  0  0  3  0  0  0  0  0  0
  161.6960  207.2450  155.2800 C   0  0  0  0  0  2  0  0  0  0  0  0
  160.1930  206.9480  157.2600 C   0  0  0  0  0  1  0  0  0  0  0  0
  160.9970  207.9420  156.4440 C   0  0  0  0  0  2  0  0  0  0  0  0
  1  7  1  0  0  0  0
  2  5  1  1  0  0  0
  2 12  1  0  0  0  0
  3 15  1  0  0  0  0
  4  9  1  0  0  0  0
  7  2  1  0  0  0  0
  7  3  1  0  0  0  0
  8 15  1  0  0  0  0
  9  1  2  0  0  0  0
 10  3  1  0  0  0  0
 11  1  1  0  0  0  0
 11 16  2  0  0  0  0
 12 20  1  0  0  0  0
 12  6  1  0  0  0  0
 13  8  1  0  0  0  0
 14 10  1  0  0  0  0
 14 13  1  0  0  0  0
 15  6  1  0  0  0  0
 15 32  1  0  0  0  0
 16 10  1  0  0  0  0
 18 24  1  0  0  0  0
 18 20  1  0  0  0  0
 19 17  1  0  0  0  0
 19 23  1  0  0  0  0
 20 19  1  0  0  0  0
 21 22  1  0  0  0  0
 22 23  1  0  0  0  0
 24 21  1  0  0  0  0
 25 14  1  0  0  0  0
 26 31  1  0  0  0  0
 26 25  1  0  0  0  0
 27 26  1  0  0  0  0
 28 27  2  0  0  0  0
 29 27  1  0  0  0  0
 30 31  2  0  0  0  0
 32 34  1  0  0  0  0
 34 33  1  0  0  0  0
M  END
>  <MODEL>
2

>  <REMARK>
 VINA RESULT:      -4.5      3.155      7.793
  Name = 
  7 active torsions:
  status: ('A' for Active; 'I' for Inactive)
    1  A    between atoms: C_7  and  C_23
    2  A    between atoms: O_12  and  C_23
    3  A    between atoms: O_12  and  C_28
    4  A    between atoms: C_14  and  N_25
    5  A    between atoms: C_17  and  C_29
    6  A    between atoms: C_23  and  C_27
    7  A    between atoms: C_29  and  C_31
                            x       y       z     vdW  Elec       q    Type
                         _______ _______ _______ _____ _____    ______ ____

>  <TORSDO>
F 7

$$$$
=
 OpenBabel11062407503D

 34 37  0  0  1  0  0  0  0  0999 V2000
  157.5410  213.0150  139.2800 C   0  0  0  0  0  0  0  0  0  0  0  0
  159.5350  213.0200  140.9310 C   0  0  1  0  0  3  0  0  0  0  0  0
  159.6660  211.6550  138.8470 C   0  0  2  0  0  3  0  0  0  0  0  0
  155.5760  214.3210  139.5790 O   0  0  0  0  0  1  0  0  0  0  0  0
  159.8000  214.4530  140.4790 C   0  0  0  0  0  1  0  0  0  0  0  0
  160.7900  210.9090  140.9900 C   0  0  0  0  0  2  0  0  0  0  0  0
  158.6980  212.2440  139.8820 C   0  0  2  0  0  3  0  0  0  0  0  0
  159.8950  209.2860  139.5050 O   0  0  0  0  0  0  0  0  0  0  0  0
  156.6760  213.6350  140.0830 C   0  0  0  0  0  3  0  0  0  0  0  0
  158.9970  211.1950  137.5430 C   0  0  1  0  0  3  0  0  0  0  0  0
  157.3170  213.0020  137.8220 C   0  0  0  0  0  3  0  0  0  0  0  0
  160.8340  212.3580  141.2230 N   0  0  2  0  0  0  0  0  0  0  0  0
  159.5260  208.8950  138.1990 C   0  0  0  0  0  2  0  0  0  0  0  0
  158.4190  209.7890  137.6610 C   0  0  1  0  0  3  0  0  0  0  0  0
  160.5450  210.5530  139.5060 C   0  0  1  0  0  0  0  0  0  0  0  0
  158.0020  212.1900  137.0160 C   0  0  0  0  0  3  0  0  0  0  0  0
  162.8930  213.9970  141.5970 F   0  0  0  0  0  0  0  0  0  0  0  0
  160.0710  212.6590  143.6000 C   0  0  0  0  0  2  0  0  0  0  0  0
  162.2120  213.7480  142.7770 C   0  0  1  0  0  3  0  0  0  0  0  0
  161.2570  212.5520  142.6230 C   0  0  2  0  0  3  0  0  0  0  0  0
  161.4300  213.3180  145.5300 N   0  0  0  0  0  2  0  0  0  0  0  0
  162.7500  212.8420  145.1430 C   0  0  0  0  0  2  0  0  0  0  0  0
  163.2500  213.5580  143.8890 C   0  0  0  0  0  2  0  0  0  0  0  0
  160.4750  212.3380  145.0330 C   0  0  0  0  0  2  0  0  0  0  0  0
  157.3220  209.7620  138.5340 O   0  0  0  0  0  0  0  0  0  0  0  0
  156.1920  209.6710  137.7120 C   0  0  2  0  0  3  0  0  0  0  0  0
  154.9960  210.2550  138.3960 C   0  0  0  0  0  0  0  0  0  0  0  0
  153.8290  210.4680  137.6750 O   0  0  0  0  0  0  0  0  0  0  0  0
  155.0280  210.5280  139.6250 O   0  0  0  0  0  1  0  0  0  0  0  0
  155.0880  207.4600  137.9430 C   0  0  0  0  0  2  0  0  0  0  0  0
  155.9460  208.2470  137.2960 C   0  0  0  0  0  3  0  0  0  0  0  0
  161.9020  210.5000  138.7760 C   0  0  0  0  0  2  0  0  0  0  0  0
  163.6330  212.2400  138.2810 C   0  0  0  0  0  1  0  0  0  0  0  0
  162.2230  211.7650  137.9840 C   0  0  0  0  0  2  0  0  0  0  0  0
  1  7  1  0  0  0  0
  1  9  2  0  0  0  0
  2  5  1  6  0  0  0
  2 12  1  0  0  0  0
  3 15  1  0  0  0  0
  3  7  1  0  0  0  0
  4  9  1  0  0  0  0
  6 12  1  0  0  0  0
  7  2  1  0  0  0  0
  8 15  1  0  0  0  0
 10 14  1  0  0  0  0
 10  3  1  0  0  0  0
 11  1  1  0  0  0  0
 12 20  1  0  0  0  0
 13  8  1  0  0  0  0
 14 13  1  0  0  0  0
 14 25  1  0  0  0  0
 15  6  1  0  0  0  0
 16 10  1  0  0  0  0
 16 11  2  0  0  0  0
 17 19  1  0  0  0  0
 18 24  1  0  0  0  0
 19 23  1  0  0  0  0
 20 19  1  0  0  0  0
 20 18  1  0  0  0  0
 22 21  1  0  0  0  0
 23 22  1  0  0  0  0
 24 21  1  0  0  0  0
 26 27  1  0  0  0  0
 26 25  1  0  0  0  0
 27 29  1  0  0  0  0
 28 27  2  0  0  0  0
 31 26  1  0  0  0  0
 31 30  2  0  0  0  0
 32 15  1  0  0  0  0
 34 33  1  0  0  0  0
 34 32  1  0  0  0  0
M  END
>  <MODEL>
3

>  <REMARK>
 VINA RESULT:      -4.0     10.704     14.750
  Name = 
  7 active torsions:
  status: ('A' for Active; 'I' for Inactive)
    1  A    between atoms: C_7  and  C_23
    2  A    between atoms: O_12  and  C_23
    3  A    between atoms: O_12  and  C_28
    4  A    between atoms: C_14  and  N_25
    5  A    between atoms: C_17  and  C_29
    6  A    between atoms: C_23  and  C_27
    7  A    between atoms: C_29  and  C_31
                            x       y       z     vdW  Elec       q    Type
                         _______ _______ _______ _____ _____    ______ ____

>  <TORSDO>
F 7

$$$$
=
 OpenBabel11062407503D

 34 37  0  0  1  0  0  0  0  0999 V2000
  159.4880  211.4090  155.2670 C   0  0  0  0  0  0  0  0  0  0  0  0
  160.6050  210.4750  153.1270 C   0  0  1  0  0  3  0  0  0  0  0  0
  159.8590  212.8550  153.1880 C   0  0  2  0  0  3  0  0  0  0  0  0
  159.1900  210.1460  157.2610 O   0  0  0  0  0  1  0  0  0  0  0  0
  161.9100  210.4530  153.9170 C   0  0  0  0  0  1  0  0  0  0  0  0
  159.7990  211.5040  151.0470 C   0  0  0  0  0  2  0  0  0  0  0  0
  159.5820  211.4560  153.7570 C   0  0  2  0  0  3  0  0  0  0  0  0
  158.1380  213.1550  151.4430 O   0  0  0  0  0  0  0  0  0  0  0  0
  159.3240  210.2360  155.8790 C   0  0  0  0  0  3  0  0  0  0  0  0
  159.2100  214.0010  153.9800 C   0  0  1  0  0  3  0  0  0  0  0  0
  159.4790  212.6590  156.0520 C   0  0  0  0  0  3  0  0  0  0  0  0
  160.9060  210.8010  151.7080 N   0  0  2  0  0  0  0  0  0  0  0  0
  157.7340  214.3610  152.0580 C   0  0  0  0  0  2  0  0  0  0  0  0
  157.7580  214.2270  153.5740 C   0  0  1  0  0  3  0  0  0  0  0  0
  159.5180  212.8910  151.6700 C   0  0  1  0  0  0  0  0  0  0  0  0
  159.3810  213.8530  155.4660 C   0  0  0  0  0  3  0  0  0  0  0  0
  162.3700  211.1750  149.5220 F   0  0  0  0  0  0  0  0  0  0  0  0
  161.4900  208.3560  151.7680 C   0  0  0  0  0  2  0  0  0  0  0  0
  162.2940  209.8360  149.8680 C   0  0  1  0  0  3  0  0  0  0  0  0
  161.1840  209.5950  150.9060 C   0  0  2  0  0  3  0  0  0  0  0  0
  162.1890  206.9440  149.8910 N   0  0  0  0  0  2  0  0  0  0  0  0
  161.5580  207.6120  148.7630 C   0  0  0  0  0  2  0  0  0  0  0  0
  162.1080  209.0260  148.5790 C   0  0  0  0  0  2  0  0  0  0  0  0
  161.2630  207.0560  151.0080 C   0  0  0  0  0  2  0  0  0  0  0  0
  156.9470  213.1530  153.9670 O   0  0  0  0  0  0  0  0  0  0  0  0
  156.1780  213.6360  155.0340 C   0  0  2  0  0  3  0  0  0  0  0  0
  155.7580  212.5140  155.9290 C   0  0  0  0  0  0  0  0  0  0  0  0
  155.4590  212.7720  157.2600 O   0  0  0  0  0  1  0  0  0  0  0  0
  155.6440  211.3420  155.4800 O   0  0  0  0  0  0  0  0  0  0  0  0
  154.3430  214.0670  153.4190 C   0  0  0  0  0  2  0  0  0  0  0  0
  154.9920  214.4110  154.5300 C   0  0  0  0  0  3  0  0  0  0  0  0
  160.4210  213.9360  150.9850 C   0  0  0  0  0  2  0  0  0  0  0  0
  161.2430  213.8670  148.6210 C   0  0  0  0  0  1  0  0  0  0  0  0
  160.0660  214.1910  149.5220 C   0  0  0  0  0  2  0  0  0  0  0  0
  1  9  2  0  0  0  0
  1 11  1  0  0  0  0
  2  7  1  0  0  0  0
  2  5  1  1  0  0  0
  3  7  1  0  0  0  0
  3 10  1  0  0  0  0
  6 15  1  0  0  0  0
  6 12  1  0  0  0  0
  7  1  1  0  0  0  0
  8 15  1  0  0  0  0
  8 13  1  0  0  0  0
  9  4  1  0  0  0  0
 10 16  1  0  0  0  0
 12  2  1  0  0  0  0
 13 14  1  0  0  0  0
 14 25  1  0  0  0  0
 14 10  1  0  0  0  0
 15  3  1  0  0  0  0
 16 11  2  0  0  0  0
 17 19  1  0  0  0  0
 19 20  1  0  0  0  0
 20 12  1  0  0  0  0
 20 18  1  0  0  0  0
 21 24  1  0  0  0  0
 22 21  1  0  0  0  0
 23 22  1  0  0  0  0
 23 19  1  0  0  0  0
 24 18  1  0  0  0  0
 25 26  1  0  0  0  0
 26 27  1  0  0  0  0
 27 28  1  0  0  0  0
 29 27  2  0  0  0  0
 30 31  2  0  0  0  0
 31 26  1  0  0  0  0
 32 15  1  0  0  0  0
 33 34  1  0  0  0  0
 34 32  1  0  0  0  0
M  END
>  <MODEL>
4

>  <REMARK>
 VINA RESULT:      -3.2      2.291      3.575
  Name = 
  7 active torsions:
  status: ('A' for Active; 'I' for Inactive)
    1  A    between atoms: C_7  and  C_23
    2  A    between atoms: O_12  and  C_23
    3  A    between atoms: O_12  and  C_28
    4  A    between atoms: C_14  and  N_25
    5  A    between atoms: C_17  and  C_29
    6  A    between atoms: C_23  and  C_27
    7  A    between atoms: C_29  and  C_31
                            x       y       z     vdW  Elec       q    Type
                         _______ _______ _______ _____ _____    ______ ____

>  <TORSDO>
F 7

$$$$
=
 OpenBabel11062407503D

 34 37  0  0  1  0  0  0  0  0999 V2000
  160.8170  211.2840  151.4540 C   0  0  0  0  0  0  0  0  0  0  0  0
  159.2890  212.0340  153.4050 C   0  0  1  0  0  3  0  0  0  0  0  0
  161.0270  210.2890  153.8040 C   0  0  2  0  0  3  0  0  0  0  0  0
  160.7310  212.2270  149.2720 O   0  0  0  0  0  1  0  0  0  0  0  0
  160.0540  213.3540  153.3890 C   0  0  0  0  0  1  0  0  0  0  0  0
  158.8210  210.2660  155.0460 C   0  0  0  0  0  2  0  0  0  0  0  0
  160.1080  210.9000  152.7360 C   0  0  2  0  0  3  0  0  0  0  0  0
  159.8770  208.2140  154.4850 O   0  0  0  0  0  0  0  0  0  0  0  0
  160.1340  211.8910  150.4830 C   0  0  0  0  0  3  0  0  0  0  0  0
  162.1710  209.4320  153.2390 C   0  0  1  0  0  3  0  0  0  0  0  0
  162.2260  210.9040  151.2410 C   0  0  0  0  0  3  0  0  0  0  0  0
  158.9120  211.7130  154.8070 N   0  0  2  0  0  0  0  0  0  0  0  0
  161.0490  207.4790  154.2020 C   0  0  0  0  0  2  0  0  0  0  0  0
  161.7250  208.0050  152.9450 C   0  0  1  0  0  3  0  0  0  0  0  0
  160.1790  209.5480  154.8780 C   0  0  1  0  0  0  0  0  0  0  0  0
  162.8620  210.0780  152.0720 C   0  0  0  0  0  3  0  0  0  0  0  0
  158.8370  213.0040  157.1280 F   0  0  0  0  0  0  0  0  0  0  0  0
  156.8650  212.9190  153.9870 C   0  0  0  0  0  2  0  0  0  0  0  0
  157.7290  213.2860  156.3460 C   0  0  1  0  0  3  0  0  0  0  0  0
  157.6070  212.2900  155.1800 C   0  0  2  0  0  3  0  0  0  0  0  0
  155.0970  213.9450  155.3400 N   0  0  0  0  0  2  0  0  0  0  0  0
  155.1520  213.1490  156.5570 C   0  0  0  0  0  2  0  0  0  0  0  0
  156.4990  213.3060  157.2610 C   0  0  0  0  0  2  0  0  0  0  0  0
  155.3670  213.0340  154.2370 C   0  0  0  0  0  2  0  0  0  0  0  0
  160.8230  207.9650  151.8720 O   0  0  0  0  0  0  0  0  0  0  0  0
  161.3370  207.0100  150.9860 C   0  0  2  0  0  3  0  0  0  0  0  0
  161.0600  207.4040  149.5690 C   0  0  0  0  0  0  0  0  0  0  0  0
  161.6610  208.5380  149.0410 O   0  0  0  0  0  1  0  0  0  0  0  0
  160.3090  206.7000  148.8420 O   0  0  0  0  0  0  0  0  0  0  0  0
  161.5720  204.5680  151.3640 C   0  0  0  0  0  2  0  0  0  0  0  0
  160.7900  205.6450  151.2940 C   0  0  0  0  0  3  0  0  0  0  0  0
  160.9350  209.5930  156.2210 C   0  0  0  0  0  2  0  0  0  0  0  0
  163.1310  210.6550  156.7830 C   0  0  0  0  0  1  0  0  0  0  0  0
  161.6690  210.9080  156.4700 C   0  0  0  0  0  2  0  0  0  0  0  0
  1  7  1  0  0  0  0
  2  5  1  1  0  0  0
  2 12  1  0  0  0  0
  3 15  1  0  0  0  0
  4  9  1  0  0  0  0
  7  2  1  0  0  0  0
  7  3  1  0  0  0  0
  8 15  1  0  0  0  0
  9  1  2  0  0  0  0
 10  3  1  0  0  0  0
 11  1  1  0  0  0  0
 11 16  2  0  0  0  0
 12  6  1  0  0  0  0
 12 20  1  0  0  0  0
 13  8  1  0  0  0  0
 14 10  1  0  0  0  0
 14 13  1  0  0  0  0
 15  6  1  0  0  0  0
 15 32  1  0  0  0  0
 16 10  1  0  0  0  0
 18 24  1  0  0  0  0
 18 20  1  0  0  0  0
 19 17  1  0  0  0  0
 19 23  1  0  0  0  0
 20 19  1  0  0  0  0
 21 22  1  0  0  0  0
 22 23  1  0  0  0  0
 24 21  1  0  0  0  0
 25 14  1  0  0  0  0
 26 31  1  0  0  0  0
 26 25  1  0  0  0  0
 27 26  1  0  0  0  0
 28 27  1  0  0  0  0
 29 27  2  0  0  0  0
 31 30  2  0  0  0  0
 32 34  1  0  0  0  0
 34 33  1  0  0  0  0
M  END
>  <MODEL>
5

>  <REMARK>
 VINA RESULT:      -3.0      3.342      7.845
  Name = 
  7 active torsions:
  status: ('A' for Active; 'I' for Inactive)
    1  A    between atoms: C_7  and  C_23
    2  A    between atoms: O_12  and  C_23
    3  A    between atoms: O_12  and  C_28
    4  A    between atoms: C_14  and  N_25
    5  A    between atoms: C_17  and  C_29
    6  A    between atoms: C_23  and  C_27
    7  A    between atoms: C_29  and  C_31
                            x       y       z     vdW  Elec       q    Type
                         _______ _______ _______ _____ _____    ______ ____

>  <TORSDO>
F 7

$$$$
