=
 OpenBabel11062410553D

 32 33  0  0  1  0  0  0  0  0999 V2000
  160.6230  204.9510  150.1660 C   0  0  2  0  0  3  0  0  0  0  0  0
  161.7820  203.0300  151.5320 C   0  0  0  0  0  2  0  0  0  0  0  0
  161.3960  204.4950  151.4110 C   0  0  0  0  0  0  0  0  0  0  0  0
  160.5970  203.5730  152.3140 C   0  0  0  0  0  2  0  0  0  0  0  0
  162.1410  205.4300  152.1550 O   0  0  0  0  0  0  0  0  0  0  0  0
  161.3940  205.7190  153.3040 C   0  0  0  0  0  2  0  0  0  0  0  0
  161.5250  207.1850  153.6540 C   0  0  0  0  0  2  0  0  0  0  0  0
  160.4870  207.5260  154.7070 C   0  0  0  0  0  2  0  0  0  0  0  0
  161.1450  207.7570  156.0560 C   0  0  2  0  0  3  0  0  0  0  0  0
  160.2620  207.2000  157.1610 C   0  0  0  0  0  1  0  0  0  0  0  0
  161.3410  209.2570  156.2570 C   0  0  0  0  0  2  0  0  0  0  0  0
  160.4110  210.1020  155.3870 C   0  0  1  0  0  3  0  0  0  0  0  0
  159.3070  210.7410  156.2100 C   0  0  0  0  0  1  0  0  0  0  0  0
  161.1270  211.0830  154.6990 O   0  0  0  0  0  0  0  0  0  0  0  0
  160.2370  211.5780  153.7430 C   0  0  0  0  0  2  0  0  0  0  0  0
  160.0940  210.5690  152.6260 C   0  0  0  0  0  1  0  0  0  0  0  0
  160.9920  204.1710  148.9380 C   0  0  0  0  0  0  0  0  0  0  0  0
  161.4490  204.8340  147.9120 N   0  0  0  0  0  0  0  0  0  0  0  0
  160.7470  202.7510  148.9140 N   0  0  0  0  0  2  0  0  0  0  0  0
  163.2250  204.7760  146.2690 C   0  0  0  0  0  2  0  0  0  0  0  0
  160.9820  204.8470  145.5400 C   0  0  1  0  0  3  0  0  0  0  0  0
  161.8520  205.5100  144.5780 N   0  0  0  0  0  2  0  0  0  0  0  0
  163.1770  205.1240  144.8590 N   0  0  0  0  0  2  0  0  0  0  0  0
  160.2270  203.7270  144.8580 C   0  0  0  0  0  1  0  0  0  0  0  0
  161.8520  204.2840  146.6280 C   0  0  2  0  0  3  0  0  0  0  0  0
  160.8690  201.8600  147.7720 C   0  0  0  0  0  2  0  0  0  0  0  0
  161.4310  200.5310  148.2250 C   0  0  0  0  0  1  0  0  0  0  0  0
  160.6570  206.4670  149.9540 C   0  0  0  0  0  2  0  0  0  0  0  0
  161.9710  206.9450  149.9360 O   0  0  0  0  0  0  0  0  0  0  0  0
  161.8410  208.3300  150.0450 C   0  0  0  0  0  2  0  0  0  0  0  0
  162.0710  208.9750  148.6950 C   0  0  0  0  0  2  0  0  0  0  0  0
  162.0950  210.3640  148.8290 O   0  0  0  0  0  1  0  0  0  0  0  0
  1 28  1  6  0  0  0
  1  3  1  0  0  0  0
  2  4  1  0  0  0  0
  3  2  1  0  0  0  0
  3  5  1  0  0  0  0
  3  4  1  0  0  0  0
  5  6  1  0  0  0  0
  6  7  1  0  0  0  0
  7  8  1  0  0  0  0
  8  9  1  0  0  0  0
  9 11  1  0  0  0  0
  9 10  1  1  0  0  0
 12 13  1  1  0  0  0
 12 11  1  0  0  0  0
 14 12  1  0  0  0  0
 15 14  1  0  0  0  0
 16 15  1  0  0  0  0
 17  1  1  0  0  0  0
 18 17  2  0  0  0  0
 19 17  1  0  0  0  0
 20 25  1  0  0  0  0
 21 24  1  6  0  0  0
 21 25  1  0  0  0  0
 22 23  1  0  0  0  0
 22 21  1  0  0  0  0
 23 20  1  0  0  0  0
 25 18  1  1  0  0  0
 26 27  1  0  0  0  0
 26 19  1  0  0  0  0
 29 28  1  0  0  0  0
 29 30  1  0  0  0  0
 31 32  1  0  0  0  0
 31 30  1  0  0  0  0
M  END
>  <MODEL>
1

>  <REMARK>
 VINA RESULT:      -6.5      0.000      0.000
  Name = 
  17 active torsions:
  status: ('A' for Active; 'I' for Inactive)
    1  A    between atoms: C_1  and  O_20
    2  A    between atoms: C_2  and  C_9
    3  A    between atoms: C_2  and  C_23
    4  A    between atoms: C_4  and  C_5
    5  A    between atoms: C_4  and  O_13
    6  A    between atoms: C_6  and  N_31
    7  A    between atoms: C_8  and  C_23
    8  A    between atoms: C_8  and  O_28
    9  A    between atoms: C_9  and  C_10
   10  A    between atoms: C_10  and  C_19
   11  A    between atoms: O_13  and  C_15
   12  A    between atoms: C_14  and  C_26
   13  A    between atoms: C_14  and  O_28
   14  A    between atoms: C_15  and  C_26
   15  A    between atoms: C_16  and  C_26
   16  A    between atoms: C_19  and  O_20
   17  A    between atoms: N_27  and  C_32
                            x       y       z     vdW  Elec       q    Type
                         _______ _______ _______ _____ _____    ______ ____

>  <TORSDO>
F 17

$$$$
=
 OpenBabel11062410553D

 32 33  0  0  1  0  0  0  0  0999 V2000
  161.7660  208.9960  151.8610 C   0  0  2  0  0  3  0  0  0  0  0  0
  161.3450  206.4180  152.1340 C   0  0  0  0  0  2  0  0  0  0  0  0
  161.3890  207.6440  151.2380 C   0  0  0  0  0  0  0  0  0  0  0  0
  162.5340  206.6490  151.2180 C   0  0  0  0  0  2  0  0  0  0  0  0
  160.6470  207.6060  150.0410 O   0  0  0  0  0  0  0  0  0  0  0  0
  161.3270  206.7410  149.1740 C   0  0  0  0  0  2  0  0  0  0  0  0
  160.3710  206.1860  148.1400 C   0  0  0  0  0  2  0  0  0  0  0  0
  161.1640  205.8030  146.9050 C   0  0  0  0  0  2  0  0  0  0  0  0
  162.0940  204.6390  147.2030 C   0  0  2  0  0  3  0  0  0  0  0  0
  163.3020  204.6990  146.2820 C   0  0  0  0  0  1  0  0  0  0  0  0
  161.3370  203.3340  146.9790 C   0  0  0  0  0  2  0  0  0  0  0  0
  160.9420  202.6430  148.2840 C   0  0  1  0  0  3  0  0  0  0  0  0
  161.2860  201.1640  148.2560 C   0  0  0  0  0  1  0  0  0  0  0  0
  161.5530  203.2570  149.3790 O   0  0  0  0  0  0  0  0  0  0  0  0
  160.6020  203.2050  150.4000 C   0  0  0  0  0  2  0  0  0  0  0  0
  161.2780  202.7910  151.6880 C   0  0  0  0  0  1  0  0  0  0  0  0
  160.9670  209.3090  153.0930 C   0  0  0  0  0  0  0  0  0  0  0  0
  160.2910  210.4240  153.1110 N   0  0  0  0  0  0  0  0  0  0  0  0
  161.0490  208.4170  154.2210 N   0  0  0  0  0  2  0  0  0  0  0  0
  158.1110  211.3090  153.6770 C   0  0  0  0  0  2  0  0  0  0  0  0
  160.0290  212.2240  154.7030 C   0  0  1  0  0  3  0  0  0  0  0  0
  158.9900  213.2360  154.5720 N   0  0  0  0  0  2  0  0  0  0  0  0
  157.7750  212.5730  154.3100 N   0  0  0  0  0  2  0  0  0  0  0  0
  160.4190  212.0800  156.1580 C   0  0  0  0  0  1  0  0  0  0  0  0
  159.4660  210.9250  154.1980 C   0  0  2  0  0  3  0  0  0  0  0  0
  160.4990  208.6330  155.5500 C   0  0  0  0  0  2  0  0  0  0  0  0
  159.7470  207.3970  155.9920 C   0  0  0  0  0  1  0  0  0  0  0  0
  161.7900  210.1430  150.8470 C   0  0  0  0  0  2  0  0  0  0  0  0
  162.5390  209.8020  149.7160 O   0  0  0  0  0  0  0  0  0  0  0  0
  161.9270  210.4920  148.6700 C   0  0  0  0  0  2  0  0  0  0  0  0
  162.1800  211.9770  148.8160 C   0  0  0  0  0  2  0  0  0  0  0  0
  163.1620  212.3830  147.9100 O   0  0  0  0  0  1  0  0  0  0  0  0
  1 28  1  6  0  0  0
  1 17  1  0  0  0  0
  3  1  1  0  0  0  0
  3  2  1  0  0  0  0
  4  3  1  0  0  0  0
  4  2  1  0  0  0  0
  5  3  1  0  0  0  0
  6  5  1  0  0  0  0
  7  6  1  0  0  0  0
  8  9  1  0  0  0  0
  8  7  1  0  0  0  0
  9 10  1  6  0  0  0
 11  9  1  0  0  0  0
 11 12  1  0  0  0  0
 12 13  1  6  0  0  0
 12 14  1  0  0  0  0
 14 15  1  0  0  0  0
 15 16  1  0  0  0  0
 17 18  2  0  0  0  0
 17 19  1  0  0  0  0
 19 26  1  0  0  0  0
 20 25  1  0  0  0  0
 20 23  1  0  0  0  0
 21 24  1  1  0  0  0
 22 21  1  0  0  0  0
 23 22  1  0  0  0  0
 25 18  1  6  0  0  0
 25 21  1  0  0  0  0
 26 27  1  0  0  0  0
 29 28  1  0  0  0  0
 30 31  1  0  0  0  0
 30 29  1  0  0  0  0
 32 31  1  0  0  0  0
M  END
>  <MODEL>
2

>  <REMARK>
 VINA RESULT:      -6.5      3.654      8.592
  Name = 
  17 active torsions:
  status: ('A' for Active; 'I' for Inactive)
    1  A    between atoms: C_1  and  O_20
    2  A    between atoms: C_2  and  C_9
    3  A    between atoms: C_2  and  C_23
    4  A    between atoms: C_4  and  C_5
    5  A    between atoms: C_4  and  O_13
    6  A    between atoms: C_6  and  N_31
    7  A    between atoms: C_8  and  C_23
    8  A    between atoms: C_8  and  O_28
    9  A    between atoms: C_9  and  C_10
   10  A    between atoms: C_10  and  C_19
   11  A    between atoms: O_13  and  C_15
   12  A    between atoms: C_14  and  C_26
   13  A    between atoms: C_14  and  O_28
   14  A    between atoms: C_15  and  C_26
   15  A    between atoms: C_16  and  C_26
   16  A    between atoms: C_19  and  O_20
   17  A    between atoms: N_27  and  C_32
                            x       y       z     vdW  Elec       q    Type
                         _______ _______ _______ _____ _____    ______ ____

>  <TORSDO>
F 17

$$$$
=
 OpenBabel11062410553D

 32 33  0  0  1  0  0  0  0  0999 V2000
  161.8950  209.6570  151.3080 C   0  0  2  0  0  3  0  0  0  0  0  0
  162.6360  207.4540  150.0840 C   0  0  0  0  0  2  0  0  0  0  0  0
  161.6800  208.1630  151.0280 C   0  0  0  0  0  0  0  0  0  0  0  0
  161.2570  207.8700  149.6010 C   0  0  0  0  0  2  0  0  0  0  0  0
  160.9690  207.3720  151.9520 O   0  0  0  0  0  0  0  0  0  0  0  0
  161.8910  206.4770  152.5100 C   0  0  0  0  0  2  0  0  0  0  0  0
  161.2510  205.1170  152.6890 C   0  0  0  0  0  2  0  0  0  0  0  0
  161.7760  204.1900  151.6090 C   0  0  0  0  0  2  0  0  0  0  0  0
  160.6300  203.5090  150.8810 C   0  0  2  0  0  3  0  0  0  0  0  0
  160.9490  202.0350  150.6850 C   0  0  0  0  0  1  0  0  0  0  0  0
  160.4390  204.1820  149.5250 C   0  0  0  0  0  2  0  0  0  0  0  0
  161.5300  203.8160  148.5190 C   0  0  1  0  0  3  0  0  0  0  0  0
  161.0630  202.7340  147.5620 C   0  0  0  0  0  1  0  0  0  0  0  0
  161.9470  204.9410  147.8050 O   0  0  0  0  0  0  0  0  0  0  0  0
  162.2200  204.4730  146.5180 C   0  0  0  0  0  2  0  0  0  0  0  0
  162.3600  205.6500  145.5790 C   0  0  0  0  0  1  0  0  0  0  0  0
  161.3150  210.0890  152.6230 C   0  0  0  0  0  0  0  0  0  0  0  0
  161.9740  209.7850  153.7060 N   0  0  0  0  0  0  0  0  0  0  0  0
  160.0280  210.7370  152.6370 N   0  0  0  0  0  2  0  0  0  0  0  0
  162.7180  210.7920  155.7770 C   0  0  0  0  0  2  0  0  0  0  0  0
  161.4280  208.8190  155.8540 C   0  0  1  0  0  3  0  0  0  0  0  0
  162.3390  208.8770  156.9890 N   0  0  0  0  0  2  0  0  0  0  0  0
  162.8010  210.2020  157.1010 N   0  0  0  0  0  2  0  0  0  0  0  0
  160.0030  208.7010  156.3490 C   0  0  0  0  0  1  0  0  0  0  0  0
  161.5900  210.0940  155.0740 C   0  0  2  0  0  3  0  0  0  0  0  0
  159.2270  211.0680  153.8040 C   0  0  0  0  0  2  0  0  0  0  0  0
  158.2430  212.1610  153.4480 C   0  0  0  0  0  1  0  0  0  0  0  0
  161.4840  210.5570  150.1390 C   0  0  0  0  0  2  0  0  0  0  0  0
  162.6030  211.0160  149.4370 O   0  0  0  0  0  0  0  0  0  0  0  0
  162.0810  211.5670  148.2670 C   0  0  0  0  0  2  0  0  0  0  0  0
  162.4240  213.0390  148.1940 C   0  0  0  0  0  2  0  0  0  0  0  0
  161.3140  213.8050  148.5540 O   0  0  0  0  0  1  0  0  0  0  0  0
  1 28  1  6  0  0  0
  1 17  1  0  0  0  0
  2  3  1  0  0  0  0
  3  1  1  0  0  0  0
  3  5  1  0  0  0  0
  4  2  1  0  0  0  0
  4  3  1  0  0  0  0
  5  6  1  0  0  0  0
  6  7  1  0  0  0  0
  8  7  1  0  0  0  0
  9 10  1  6  0  0  0
  9  8  1  0  0  0  0
 11  9  1  0  0  0  0
 12 13  1  6  0  0  0
 12 11  1  0  0  0  0
 14 12  1  0  0  0  0
 15 14  1  0  0  0  0
 16 15  1  0  0  0  0
 17 19  1  0  0  0  0
 17 18  2  0  0  0  0
 19 26  1  0  0  0  0
 20 23  1  0  0  0  0
 21 24  1  1  0  0  0
 21 22  1  0  0  0  0
 22 23  1  0  0  0  0
 25 18  1  6  0  0  0
 25 20  1  0  0  0  0
 25 21  1  0  0  0  0
 27 26  1  0  0  0  0
 29 28  1  0  0  0  0
 30 29  1  0  0  0  0
 31 30  1  0  0  0  0
 31 32  1  0  0  0  0
M  END
>  <MODEL>
3

>  <REMARK>
 VINA RESULT:      -6.4      3.630      8.332
  Name = 
  17 active torsions:
  status: ('A' for Active; 'I' for Inactive)
    1  A    between atoms: C_1  and  O_20
    2  A    between atoms: C_2  and  C_9
    3  A    between atoms: C_2  and  C_23
    4  A    between atoms: C_4  and  C_5
    5  A    between atoms: C_4  and  O_13
    6  A    between atoms: C_6  and  N_31
    7  A    between atoms: C_8  and  C_23
    8  A    between atoms: C_8  and  O_28
    9  A    between atoms: C_9  and  C_10
   10  A    between atoms: C_10  and  C_19
   11  A    between atoms: O_13  and  C_15
   12  A    between atoms: C_14  and  C_26
   13  A    between atoms: C_14  and  O_28
   14  A    between atoms: C_15  and  C_26
   15  A    between atoms: C_16  and  C_26
   16  A    between atoms: C_19  and  O_20
   17  A    between atoms: N_27  and  C_32
                            x       y       z     vdW  Elec       q    Type
                         _______ _______ _______ _____ _____    ______ ____

>  <TORSDO>
F 17

$$$$
=
 OpenBabel11062410553D

 32 33  0  0  1  0  0  0  0  0999 V2000
  162.1700  209.7350  151.0740 C   0  0  2  0  0  3  0  0  0  0  0  0
  161.0150  207.4230  151.5440 C   0  0  0  0  0  2  0  0  0  0  0  0
  161.7060  208.3610  150.5690 C   0  0  0  0  0  0  0  0  0  0  0  0
  162.4730  207.2030  151.1780 C   0  0  0  0  0  2  0  0  0  0  0  0
  161.4720  208.1630  149.1940 O   0  0  0  0  0  0  0  0  0  0  0  0
  161.5960  206.7870  148.9590 C   0  0  0  0  0  2  0  0  0  0  0  0
  160.4440  206.3010  148.1060 C   0  0  0  0  0  2  0  0  0  0  0  0
  161.0080  205.6900  146.8370 C   0  0  0  0  0  2  0  0  0  0  0  0
  162.0060  204.5930  147.1650 C   0  0  2  0  0  3  0  0  0  0  0  0
  163.2100  204.7020  146.2430 C   0  0  0  0  0  1  0  0  0  0  0  0
  161.3300  203.2390  146.9750 C   0  0  0  0  0  2  0  0  0  0  0  0
  160.8860  202.6040  148.2920 C   0  0  1  0  0  3  0  0  0  0  0  0
  161.2480  201.1300  148.3490 C   0  0  0  0  0  1  0  0  0  0  0  0
  161.4410  203.2770  149.3820 O   0  0  0  0  0  0  0  0  0  0  0  0
  160.7750  202.7670  150.4990 C   0  0  0  0  0  2  0  0  0  0  0  0
  160.8520  203.7730  151.6260 C   0  0  0  0  0  1  0  0  0  0  0  0
  161.4810  210.1490  152.3410 C   0  0  0  0  0  0  0  0  0  0  0  0
  162.0560  209.8490  153.4720 N   0  0  0  0  0  0  0  0  0  0  0  0
  160.1860  210.7760  152.2560 N   0  0  0  0  0  2  0  0  0  0  0  0
  162.6240  210.8380  155.6060 C   0  0  0  0  0  2  0  0  0  0  0  0
  161.3400  208.8590  155.5580 C   0  0  1  0  0  3  0  0  0  0  0  0
  162.1550  208.9090  156.7650 N   0  0  0  0  0  2  0  0  0  0  0  0
  162.6000  210.2350  156.9270 N   0  0  0  0  0  2  0  0  0  0  0  0
  159.8800  208.7310  155.9340 C   0  0  0  0  0  1  0  0  0  0  0  0
  161.5600  210.1420  154.8070 C   0  0  2  0  0  3  0  0  0  0  0  0
  159.2900  211.0870  153.3580 C   0  0  0  0  0  2  0  0  0  0  0  0
  159.2070  212.5870  153.5340 C   0  0  0  0  0  1  0  0  0  0  0  0
  162.1500  210.8170  149.9910 C   0  0  0  0  0  2  0  0  0  0  0  0
  161.2530  211.8390  150.3150 O   0  0  0  0  0  0  0  0  0  0  0  0
  161.2270  212.6550  149.1840 C   0  0  0  0  0  2  0  0  0  0  0  0
  162.3510  212.2700  148.2460 C   0  0  0  0  0  2  0  0  0  0  0  0
  162.8720  213.4100  147.6330 O   0  0  0  0  0  1  0  0  0  0  0  0
  1 28  1  6  0  0  0
  1 17  1  0  0  0  0
  3  1  1  0  0  0  0
  3  4  1  0  0  0  0
  3  2  1  0  0  0  0
  4  2  1  0  0  0  0
  5  3  1  0  0  0  0
  6  5  1  0  0  0  0
  7  6  1  0  0  0  0
  8  9  1  0  0  0  0
  8  7  1  0  0  0  0
  9 10  1  6  0  0  0
 11  9  1  0  0  0  0
 11 12  1  0  0  0  0
 12 13  1  6  0  0  0
 12 14  1  0  0  0  0
 14 15  1  0  0  0  0
 15 16  1  0  0  0  0
 17 18  2  0  0  0  0
 19 17  1  0  0  0  0
 19 26  1  0  0  0  0
 20 23  1  0  0  0  0
 21 24  1  1  0  0  0
 21 22  1  0  0  0  0
 22 23  1  0  0  0  0
 25 18  1  6  0  0  0
 25 21  1  0  0  0  0
 25 20  1  0  0  0  0
 26 27  1  0  0  0  0
 28 29  1  0  0  0  0
 30 29  1  0  0  0  0
 31 30  1  0  0  0  0
 32 31  1  0  0  0  0
M  END
>  <MODEL>
4

>  <REMARK>
 VINA RESULT:      -6.4      3.624      8.730
  Name = 
  17 active torsions:
  status: ('A' for Active; 'I' for Inactive)
    1  A    between atoms: C_1  and  O_20
    2  A    between atoms: C_2  and  C_9
    3  A    between atoms: C_2  and  C_23
    4  A    between atoms: C_4  and  C_5
    5  A    between atoms: C_4  and  O_13
    6  A    between atoms: C_6  and  N_31
    7  A    between atoms: C_8  and  C_23
    8  A    between atoms: C_8  and  O_28
    9  A    between atoms: C_9  and  C_10
   10  A    between atoms: C_10  and  C_19
   11  A    between atoms: O_13  and  C_15
   12  A    between atoms: C_14  and  C_26
   13  A    between atoms: C_14  and  O_28
   14  A    between atoms: C_15  and  C_26
   15  A    between atoms: C_16  and  C_26
   16  A    between atoms: C_19  and  O_20
   17  A    between atoms: N_27  and  C_32
                            x       y       z     vdW  Elec       q    Type
                         _______ _______ _______ _____ _____    ______ ____

>  <TORSDO>
F 17

$$$$
=
 OpenBabel11062410553D

 32 33  0  0  1  0  0  0  0  0999 V2000
  161.4870  205.1300  150.7040 C   0  0  2  0  0  3  0  0  0  0  0  0
  162.3750  206.0890  152.9820 C   0  0  0  0  0  2  0  0  0  0  0  0
  161.3040  206.0700  151.9050 C   0  0  0  0  0  0  0  0  0  0  0  0
  161.0750  205.3390  153.2140 C   0  0  0  0  0  2  0  0  0  0  0  0
  160.4730  207.2010  151.7900 O   0  0  0  0  0  0  0  0  0  0  0  0
  160.9360  208.1380  152.7230 C   0  0  0  0  0  2  0  0  0  0  0  0
  161.1900  209.4660  152.0430 C   0  0  0  0  0  2  0  0  0  0  0  0
  160.8920  210.5790  153.0290 C   0  0  0  0  0  2  0  0  0  0  0  0
  159.3990  210.8480  153.1020 C   0  0  2  0  0  3  0  0  0  0  0  0
  159.0540  212.0640  152.2570 C   0  0  0  0  0  1  0  0  0  0  0  0
  159.0160  211.1030  154.5560 C   0  0  0  0  0  2  0  0  0  0  0  0
  160.0790  210.6270  155.5450 C   0  0  1  0  0  3  0  0  0  0  0  0
  160.5500  211.7580  156.4430 C   0  0  0  0  0  1  0  0  0  0  0  0
  159.6020  209.5670  156.3190 O   0  0  0  0  0  0  0  0  0  0  0  0
  160.5840  208.5780  156.2230 C   0  0  0  0  0  2  0  0  0  0  0  0
  159.9400  207.2200  156.3860 C   0  0  0  0  0  1  0  0  0  0  0  0
  161.6960  205.8710  149.4160 C   0  0  0  0  0  0  0  0  0  0  0  0
  161.5030  205.2190  148.3030 N   0  0  0  0  0  0  0  0  0  0  0  0
  162.1800  207.2280  149.4630 N   0  0  0  0  0  2  0  0  0  0  0  0
  160.3660  206.3360  146.4820 C   0  0  0  0  0  2  0  0  0  0  0  0
  161.8860  204.5970  145.9990 C   0  0  1  0  0  3  0  0  0  0  0  0
  160.8340  204.6490  144.9920 N   0  0  0  0  0  2  0  0  0  0  0  0
  160.1890  205.8960  145.1090 N   0  0  0  0  0  2  0  0  0  0  0  0
  163.2370  204.7500  145.3330 C   0  0  0  0  0  1  0  0  0  0  0  0
  161.6590  205.7360  146.9530 C   0  0  2  0  0  3  0  0  0  0  0  0
  162.6080  208.0440  148.3390 C   0  0  0  0  0  2  0  0  0  0  0  0
  162.1080  209.4600  148.5230 C   0  0  0  0  0  1  0  0  0  0  0  0
  160.4070  204.0490  150.6130 C   0  0  0  0  0  2  0  0  0  0  0  0
  160.9750  202.7750  150.5140 O   0  0  0  0  0  0  0  0  0  0  0  0
  160.1310  202.0810  149.6460 C   0  0  0  0  0  2  0  0  0  0  0  0
  160.8570  201.7840  148.3520 C   0  0  0  0  0  2  0  0  0  0  0  0
  161.4240  200.5100  148.4060 O   0  0  0  0  0  1  0  0  0  0  0  0
  1 28  1  6  0  0  0
  1  3  1  0  0  0  0
  2  4  1  0  0  0  0
  3  2  1  0  0  0  0
  3  4  1  0  0  0  0
  5  3  1  0  0  0  0
  5  6  1  0  0  0  0
  7  6  1  0  0  0  0
  7  8  1  0  0  0  0
  8  9  1  0  0  0  0
  9 10  1  6  0  0  0
  9 11  1  0  0  0  0
 11 12  1  0  0  0  0
 12 14  1  0  0  0  0
 12 13  1  1  0  0  0
 15 14  1  0  0  0  0
 15 16  1  0  0  0  0
 17 19  1  0  0  0  0
 17  1  1  0  0  0  0
 18 17  2  0  0  0  0
 20 25  1  0  0  0  0
 21 24  1  6  0  0  0
 21 25  1  0  0  0  0
 22 23  1  0  0  0  0
 22 21  1  0  0  0  0
 23 20  1  0  0  0  0
 25 18  1  1  0  0  0
 26 27  1  0  0  0  0
 26 19  1  0  0  0  0
 29 28  1  0  0  0  0
 30 29  1  0  0  0  0
 31 32  1  0  0  0  0
 31 30  1  0  0  0  0
M  END
>  <MODEL>
5

>  <REMARK>
 VINA RESULT:      -6.4      1.891      4.286
  Name = 
  17 active torsions:
  status: ('A' for Active; 'I' for Inactive)
    1  A    between atoms: C_1  and  O_20
    2  A    between atoms: C_2  and  C_9
    3  A    between atoms: C_2  and  C_23
    4  A    between atoms: C_4  and  C_5
    5  A    between atoms: C_4  and  O_13
    6  A    between atoms: C_6  and  N_31
    7  A    between atoms: C_8  and  C_23
    8  A    between atoms: C_8  and  O_28
    9  A    between atoms: C_9  and  C_10
   10  A    between atoms: C_10  and  C_19
   11  A    between atoms: O_13  and  C_15
   12  A    between atoms: C_14  and  C_26
   13  A    between atoms: C_14  and  O_28
   14  A    between atoms: C_15  and  C_26
   15  A    between atoms: C_16  and  C_26
   16  A    between atoms: C_19  and  O_20
   17  A    between atoms: N_27  and  C_32
                            x       y       z     vdW  Elec       q    Type
                         _______ _______ _______ _____ _____    ______ ____

>  <TORSDO>
F 17

$$$$
=
 OpenBabel11062410553D

 32 33  0  0  1  0  0  0  0  0999 V2000
  161.5360  208.6410  152.6720 C   0  0  2  0  0  3  0  0  0  0  0  0
  160.4460  206.9160  154.3260 C   0  0  0  0  0  2  0  0  0  0  0  0
  161.0770  207.2070  152.9750 C   0  0  0  0  0  0  0  0  0  0  0  0
  161.8910  206.5290  154.0600 C   0  0  0  0  0  2  0  0  0  0  0  0
  160.7880  206.3250  151.9150 O   0  0  0  0  0  0  0  0  0  0  0  0
  161.1560  205.0440  152.3470 C   0  0  0  0  0  2  0  0  0  0  0  0
  161.5320  204.1850  151.1590 C   0  0  0  0  0  2  0  0  0  0  0  0
  160.7350  204.6470  149.9550 C   0  0  0  0  0  2  0  0  0  0  0  0
  160.7230  203.5790  148.8750 C   0  0  2  0  0  3  0  0  0  0  0  0
  160.7500  202.2010  149.5160 C   0  0  0  0  0  1  0  0  0  0  0  0
  161.9500  203.7620  147.9880 C   0  0  0  0  0  2  0  0  0  0  0  0
  161.5960  204.0290  146.5260 C   0  0  1  0  0  3  0  0  0  0  0  0
  162.5300  205.0520  145.9050 C   0  0  0  0  0  1  0  0  0  0  0  0
  161.6170  202.8470  145.7840 O   0  0  0  0  0  0  0  0  0  0  0  0
  160.4360  202.8670  145.0380 C   0  0  0  0  0  2  0  0  0  0  0  0
  159.8880  201.4610  144.9360 C   0  0  0  0  0  1  0  0  0  0  0  0
  161.1290  209.6170  153.7360 C   0  0  0  0  0  0  0  0  0  0  0  0
  159.9510  210.1680  153.6360 N   0  0  0  0  0  0  0  0  0  0  0  0
  162.0790  209.9650  154.7620 N   0  0  0  0  0  2  0  0  0  0  0  0
  158.4940  210.4440  155.5480 C   0  0  0  0  0  2  0  0  0  0  0  0
  158.4030  212.0180  153.7920 C   0  0  1  0  0  3  0  0  0  0  0  0
  157.1000  211.8920  154.4320 N   0  0  0  0  0  2  0  0  0  0  0  0
  157.2900  211.2480  155.6700 N   0  0  0  0  0  2  0  0  0  0  0  0
  158.8650  213.4570  153.8560 C   0  0  0  0  0  1  0  0  0  0  0  0
  159.3650  211.1410  154.5430 C   0  0  2  0  0  3  0  0  0  0  0  0
  161.9410  211.0070  155.7660 C   0  0  0  0  0  2  0  0  0  0  0  0
  162.7220  210.6240  157.0040 C   0  0  0  0  0  1  0  0  0  0  0  0
  161.1790  209.1040  151.2560 C   0  0  0  0  0  2  0  0  0  0  0  0
  162.1200  210.0170  150.7710 O   0  0  0  0  0  0  0  0  0  0  0  0
  162.1830  209.7620  149.4010 C   0  0  0  0  0  2  0  0  0  0  0  0
  161.7370  208.3430  149.1220 C   0  0  0  0  0  2  0  0  0  0  0  0
  162.6110  207.7390  148.2170 O   0  0  0  0  0  1  0  0  0  0  0  0
  1 28  1  6  0  0  0
  1  3  1  0  0  0  0
  1 17  1  0  0  0  0
  3  4  1  0  0  0  0
  3  2  1  0  0  0  0
  4  2  1  0  0  0  0
  5  6  1  0  0  0  0
  5  3  1  0  0  0  0
  7  6  1  0  0  0  0
  8  7  1  0  0  0  0
  9 10  1  1  0  0  0
  9  8  1  0  0  0  0
 11  9  1  0  0  0  0
 12 13  1  6  0  0  0
 12 11  1  0  0  0  0
 14 12  1  0  0  0  0
 15 14  1  0  0  0  0
 16 15  1  0  0  0  0
 17 19  1  0  0  0  0
 18 17  2  0  0  0  0
 19 26  1  0  0  0  0
 20 23  1  0  0  0  0
 21 24  1  1  0  0  0
 21 22  1  0  0  0  0
 21 25  1  0  0  0  0
 22 23  1  0  0  0  0
 25 18  1  6  0  0  0
 25 20  1  0  0  0  0
 26 27  1  0  0  0  0
 29 28  1  0  0  0  0
 30 29  1  0  0  0  0
 31 30  1  0  0  0  0
 32 31  1  0  0  0  0
M  END
>  <MODEL>
6

>  <REMARK>
 VINA RESULT:      -6.4      3.782      8.928
  Name = 
  17 active torsions:
  status: ('A' for Active; 'I' for Inactive)
    1  A    between atoms: C_1  and  O_20
    2  A    between atoms: C_2  and  C_9
    3  A    between atoms: C_2  and  C_23
    4  A    between atoms: C_4  and  C_5
    5  A    between atoms: C_4  and  O_13
    6  A    between atoms: C_6  and  N_31
    7  A    between atoms: C_8  and  C_23
    8  A    between atoms: C_8  and  O_28
    9  A    between atoms: C_9  and  C_10
   10  A    between atoms: C_10  and  C_19
   11  A    between atoms: O_13  and  C_15
   12  A    between atoms: C_14  and  C_26
   13  A    between atoms: C_14  and  O_28
   14  A    between atoms: C_15  and  C_26
   15  A    between atoms: C_16  and  C_26
   16  A    between atoms: C_19  and  O_20
   17  A    between atoms: N_27  and  C_32
                            x       y       z     vdW  Elec       q    Type
                         _______ _______ _______ _____ _____    ______ ____

>  <TORSDO>
F 17

$$$$
=
 OpenBabel11062410553D

 32 33  0  0  1  0  0  0  0  0999 V2000
  161.6190  209.1030  152.0660 C   0  0  2  0  0  3  0  0  0  0  0  0
  161.7880  206.5080  152.4320 C   0  0  0  0  0  2  0  0  0  0  0  0
  161.4130  207.6770  151.5370 C   0  0  0  0  0  0  0  0  0  0  0  0
  162.7110  206.9270  151.3010 C   0  0  0  0  0  2  0  0  0  0  0  0
  160.4820  207.4380  150.5070 O   0  0  0  0  0  0  0  0  0  0  0  0
  161.1830  206.8120  149.4680 C   0  0  0  0  0  2  0  0  0  0  0  0
  160.4580  205.5550  149.0370 C   0  0  0  0  0  2  0  0  0  0  0  0
  161.2940  204.3540  149.4350 C   0  0  0  0  0  2  0  0  0  0  0  0
  160.4560  203.3440  150.2000 C   0  0  2  0  0  3  0  0  0  0  0  0
  161.2720  202.7580  151.3400 C   0  0  0  0  0  1  0  0  0  0  0  0
  160.0300  202.2340  149.2440 C   0  0  0  0  0  2  0  0  0  0  0  0
  161.0740  201.9400  148.1680 C   0  0  1  0  0  3  0  0  0  0  0  0
  161.5820  200.5120  148.2620 C   0  0  0  0  0  1  0  0  0  0  0  0
  160.5590  202.1830  146.8940 O   0  0  0  0  0  0  0  0  0  0  0  0
  161.5840  202.8390  146.2080 C   0  0  0  0  0  2  0  0  0  0  0  0
  160.9810  203.8530  145.2620 C   0  0  0  0  0  1  0  0  0  0  0  0
  160.8860  209.3550  153.3520 C   0  0  0  0  0  0  0  0  0  0  0  0
  160.2320  210.4770  153.4680 N   0  0  0  0  0  0  0  0  0  0  0  0
  161.0060  208.3970  154.4210 N   0  0  0  0  0  2  0  0  0  0  0  0
  158.0820  211.3120  154.1990 C   0  0  0  0  0  2  0  0  0  0  0  0
  160.0480  212.2130  155.1410 C   0  0  1  0  0  3  0  0  0  0  0  0
  158.9910  213.2150  155.1110 N   0  0  0  0  0  2  0  0  0  0  0  0
  157.7700  212.5460  154.8990 N   0  0  0  0  0  2  0  0  0  0  0  0
  160.5280  212.0200  156.5630 C   0  0  0  0  0  1  0  0  0  0  0  0
  159.4700  210.9260  154.6220 C   0  0  2  0  0  3  0  0  0  0  0  0
  160.5240  208.5420  155.7850 C   0  0  0  0  0  2  0  0  0  0  0  0
  159.7050  207.3280  156.1640 C   0  0  0  0  0  1  0  0  0  0  0  0
  161.3740  210.1820  151.0080 C   0  0  0  0  0  2  0  0  0  0  0  0
  162.4900  210.3390  150.1790 O   0  0  0  0  0  0  0  0  0  0  0  0
  161.9550  210.5410  148.9060 C   0  0  0  0  0  2  0  0  0  0  0  0
  161.9570  212.0180  148.5770 C   0  0  0  0  0  2  0  0  0  0  0  0
  161.2150  212.2470  147.4170 O   0  0  0  0  0  1  0  0  0  0  0  0
  1 28  1  6  0  0  0
  1 17  1  0  0  0  0
  3  1  1  0  0  0  0
  3  2  1  0  0  0  0
  4  3  1  0  0  0  0
  4  2  1  0  0  0  0
  5  3  1  0  0  0  0
  6  5  1  0  0  0  0
  7  8  1  0  0  0  0
  7  6  1  0  0  0  0
  8  9  1  0  0  0  0
  9 10  1  1  0  0  0
 11  9  1  0  0  0  0
 12 13  1  6  0  0  0
 12 11  1  0  0  0  0
 14 12  1  0  0  0  0
 15 14  1  0  0  0  0
 16 15  1  0  0  0  0
 17 18  2  0  0  0  0
 17 19  1  0  0  0  0
 19 26  1  0  0  0  0
 20 25  1  0  0  0  0
 20 23  1  0  0  0  0
 21 24  1  1  0  0  0
 22 21  1  0  0  0  0
 23 22  1  0  0  0  0
 25 18  1  6  0  0  0
 25 21  1  0  0  0  0
 26 27  1  0  0  0  0
 29 28  1  0  0  0  0
 30 29  1  0  0  0  0
 31 30  1  0  0  0  0
 32 31  1  0  0  0  0
M  END
>  <MODEL>
7

>  <REMARK>
 VINA RESULT:      -6.1      3.846      8.720
  Name = 
  17 active torsions:
  status: ('A' for Active; 'I' for Inactive)
    1  A    between atoms: C_1  and  O_20
    2  A    between atoms: C_2  and  C_9
    3  A    between atoms: C_2  and  C_23
    4  A    between atoms: C_4  and  C_5
    5  A    between atoms: C_4  and  O_13
    6  A    between atoms: C_6  and  N_31
    7  A    between atoms: C_8  and  C_23
    8  A    between atoms: C_8  and  O_28
    9  A    between atoms: C_9  and  C_10
   10  A    between atoms: C_10  and  C_19
   11  A    between atoms: O_13  and  C_15
   12  A    between atoms: C_14  and  C_26
   13  A    between atoms: C_14  and  O_28
   14  A    between atoms: C_15  and  C_26
   15  A    between atoms: C_16  and  C_26
   16  A    between atoms: C_19  and  O_20
   17  A    between atoms: N_27  and  C_32
                            x       y       z     vdW  Elec       q    Type
                         _______ _______ _______ _____ _____    ______ ____

>  <TORSDO>
F 17

$$$$
=
 OpenBabel11062410553D

 32 33  0  0  1  0  0  0  0  0999 V2000
  160.9300  208.5250  152.5930 C   0  0  2  0  0  3  0  0  0  0  0  0
  162.7850  210.1460  151.6810 C   0  0  0  0  0  2  0  0  0  0  0  0
  161.8840  208.9410  151.4650 C   0  0  0  0  0  0  0  0  0  0  0  0
  161.5290  210.2750  150.8350 C   0  0  0  0  0  2  0  0  0  0  0  0
  162.2770  207.9980  150.4950 O   0  0  0  0  0  0  0  0  0  0  0  0
  161.9540  208.5460  149.2470 C   0  0  0  0  0  2  0  0  0  0  0  0
  161.8290  207.4470  148.2140 C   0  0  0  0  0  2  0  0  0  0  0  0
  160.8140  206.4340  148.7070 C   0  0  0  0  0  2  0  0  0  0  0  0
  161.4270  205.0460  148.7740 C   0  0  2  0  0  3  0  0  0  0  0  0
  161.6400  204.5100  147.3670 C   0  0  0  0  0  1  0  0  0  0  0  0
  160.4820  204.1260  149.5400 C   0  0  0  0  0  2  0  0  0  0  0  0
  161.2040  203.2340  150.5480 C   0  0  1  0  0  3  0  0  0  0  0  0
  161.2450  203.8700  151.9260 C   0  0  0  0  0  1  0  0  0  0  0  0
  160.6050  201.9750  150.6190 O   0  0  0  0  0  0  0  0  0  0  0  0
  160.1700  201.7070  149.3190 C   0  0  0  0  0  2  0  0  0  0  0  0
  161.1710  200.8030  148.6350 C   0  0  0  0  0  1  0  0  0  0  0  0
  160.6430  209.6440  153.5510 C   0  0  0  0  0  0  0  0  0  0  0  0
  159.5640  210.3500  153.3540 N   0  0  0  0  0  0  0  0  0  0  0  0
  161.6040  209.9420  154.5820 N   0  0  0  0  0  2  0  0  0  0  0  0
  158.1340  211.0070  155.1930 C   0  0  0  0  0  2  0  0  0  0  0  0
  158.2780  212.3960  153.2910 C   0  0  1  0  0  3  0  0  0  0  0  0
  156.9630  212.5090  153.9070 N   0  0  0  0  0  2  0  0  0  0  0  0
  157.0490  211.9720  155.2060 N   0  0  0  0  0  2  0  0  0  0  0  0
  158.9300  213.7600  153.2280 C   0  0  0  0  0  1  0  0  0  0  0  0
  159.1040  211.4780  154.1480 C   0  0  2  0  0  3  0  0  0  0  0  0
  161.5950  211.0820  155.4850 C   0  0  0  0  0  2  0  0  0  0  0  0
  162.4990  210.8000  156.6640 C   0  0  0  0  0  1  0  0  0  0  0  0
  161.3450  207.2240  153.2880 C   0  0  0  0  0  2  0  0  0  0  0  0
  160.3100  206.7260  154.0860 O   0  0  0  0  0  0  0  0  0  0  0  0
  160.8100  206.7910  155.3870 C   0  0  0  0  0  2  0  0  0  0  0  0
  159.7150  207.2280  156.3360 C   0  0  0  0  0  2  0  0  0  0  0  0
  160.1980  208.2160  157.1970 O   0  0  0  0  0  1  0  0  0  0  0  0
  1 28  1  1  0  0  0
  1 17  1  0  0  0  0
  3  2  1  0  0  0  0
  3  1  1  0  0  0  0
  4  3  1  0  0  0  0
  4  2  1  0  0  0  0
  5  3  1  0  0  0  0
  6  5  1  0  0  0  0
  7  8  1  0  0  0  0
  7  6  1  0  0  0  0
  8  9  1  0  0  0  0
  9 10  1  6  0  0  0
  9 11  1  0  0  0  0
 11 12  1  0  0  0  0
 12 14  1  0  0  0  0
 12 13  1  1  0  0  0
 15 14  1  0  0  0  0
 16 15  1  0  0  0  0
 17 19  1  0  0  0  0
 18 17  2  0  0  0  0
 19 26  1  0  0  0  0
 20 23  1  0  0  0  0
 21 24  1  1  0  0  0
 21 22  1  0  0  0  0
 21 25  1  0  0  0  0
 22 23  1  0  0  0  0
 25 18  1  6  0  0  0
 25 20  1  0  0  0  0
 26 27  1  0  0  0  0
 28 29  1  0  0  0  0
 29 30  1  0  0  0  0
 30 31  1  0  0  0  0
 31 32  1  0  0  0  0
M  END
>  <MODEL>
8

>  <REMARK>
 VINA RESULT:      -6.0      3.833      8.992
  Name = 
  17 active torsions:
  status: ('A' for Active; 'I' for Inactive)
    1  A    between atoms: C_1  and  O_20
    2  A    between atoms: C_2  and  C_9
    3  A    between atoms: C_2  and  C_23
    4  A    between atoms: C_4  and  C_5
    5  A    between atoms: C_4  and  O_13
    6  A    between atoms: C_6  and  N_31
    7  A    between atoms: C_8  and  C_23
    8  A    between atoms: C_8  and  O_28
    9  A    between atoms: C_9  and  C_10
   10  A    between atoms: C_10  and  C_19
   11  A    between atoms: O_13  and  C_15
   12  A    between atoms: C_14  and  C_26
   13  A    between atoms: C_14  and  O_28
   14  A    between atoms: C_15  and  C_26
   15  A    between atoms: C_16  and  C_26
   16  A    between atoms: C_19  and  O_20
   17  A    between atoms: N_27  and  C_32
                            x       y       z     vdW  Elec       q    Type
                         _______ _______ _______ _____ _____    ______ ____

>  <TORSDO>
F 17

$$$$
=
 OpenBabel11062410553D

 32 33  0  0  1  0  0  0  0  0999 V2000
  161.6460  207.1790  150.2830 C   0  0  2  0  0  3  0  0  0  0  0  0
  162.0890  206.6480  152.8170 C   0  0  0  0  0  2  0  0  0  0  0  0
  161.5050  206.2270  151.4790 C   0  0  0  0  0  0  0  0  0  0  0  0
  162.8260  205.6450  151.9460 C   0  0  0  0  0  2  0  0  0  0  0  0
  160.4800  205.2600  151.4890 O   0  0  0  0  0  0  0  0  0  0  0  0
  160.9600  204.1720  152.2290 C   0  0  0  0  0  2  0  0  0  0  0  0
  161.1270  202.9660  151.3300 C   0  0  0  0  0  2  0  0  0  0  0  0
  160.5410  203.2920  149.9690 C   0  0  0  0  0  2  0  0  0  0  0  0
  160.4550  202.0440  149.1080 C   0  0  2  0  0  3  0  0  0  0  0  0
  161.1450  200.8860  149.8100 C   0  0  0  0  0  1  0  0  0  0  0  0
  161.1390  202.3210  147.7720 C   0  0  0  0  0  2  0  0  0  0  0  0
  160.5680  201.4880  146.6260 C   0  0  1  0  0  3  0  0  0  0  0  0
  160.6920  202.2110  145.2960 C   0  0  0  0  0  1  0  0  0  0  0  0
  161.1940  200.2420  146.5550 O   0  0  0  0  0  0  0  0  0  0  0  0
  160.7750  199.6940  145.3400 C   0  0  0  0  0  2  0  0  0  0  0  0
  161.2540  198.2630  145.2470 C   0  0  0  0  0  1  0  0  0  0  0  0
  161.7220  208.6200  150.6960 C   0  0  0  0  0  0  0  0  0  0  0  0
  161.1750  208.9550  151.8320 N   0  0  0  0  0  0  0  0  0  0  0  0
  162.3110  209.5740  149.7910 N   0  0  0  0  0  2  0  0  0  0  0  0
  162.0040  210.3500  153.6270 C   0  0  0  0  0  2  0  0  0  0  0  0
  159.7480  210.5440  152.9650 C   0  0  1  0  0  3  0  0  0  0  0  0
  159.8920  210.8480  154.3820 N   0  0  0  0  0  2  0  0  0  0  0  0
  161.2570  211.0800  154.6360 N   0  0  0  0  0  2  0  0  0  0  0  0
  159.1240  211.7240  152.2510 C   0  0  0  0  0  1  0  0  0  0  0  0
  161.1220  210.2870  152.4130 C   0  0  2  0  0  3  0  0  0  0  0  0
  162.3190  211.0210  149.9280 C   0  0  0  0  0  2  0  0  0  0  0  0
  161.7620  211.6520  148.6710 C   0  0  0  0  0  1  0  0  0  0  0  0
  160.6190  206.9190  149.1780 C   0  0  0  0  0  2  0  0  0  0  0  0
  161.1640  207.1620  147.9140 O   0  0  0  0  0  0  0  0  0  0  0  0
  161.7830  205.9620  147.5620 C   0  0  0  0  0  2  0  0  0  0  0  0
  161.7590  205.7920  146.0590 C   0  0  0  0  0  2  0  0  0  0  0  0
  160.4840  206.0750  145.5680 O   0  0  0  0  0  1  0  0  0  0  0  0
  1 28  1  6  0  0  0
  1 17  1  0  0  0  0
  1  3  1  0  0  0  0
  3  5  1  0  0  0  0
  3  4  1  0  0  0  0
  3  2  1  0  0  0  0
  4  2  1  0  0  0  0
  5  6  1  0  0  0  0
  7  6  1  0  0  0  0
  8  7  1  0  0  0  0
  9 10  1  1  0  0  0
  9  8  1  0  0  0  0
 11  9  1  0  0  0  0
 12 13  1  6  0  0  0
 12 11  1  0  0  0  0
 14 12  1  0  0  0  0
 15 14  1  0  0  0  0
 16 15  1  0  0  0  0
 17 18  2  0  0  0  0
 19 26  1  0  0  0  0
 19 17  1  0  0  0  0
 20 23  1  0  0  0  0
 21 24  1  6  0  0  0
 21 22  1  0  0  0  0
 22 23  1  0  0  0  0
 25 18  1  1  0  0  0
 25 21  1  0  0  0  0
 25 20  1  0  0  0  0
 27 26  1  0  0  0  0
 29 28  1  0  0  0  0
 30 29  1  0  0  0  0
 31 30  1  0  0  0  0
 32 31  1  0  0  0  0
M  END
>  <MODEL>
9

>  <REMARK>
 VINA RESULT:      -6.0      3.466      8.594
  Name = 
  17 active torsions:
  status: ('A' for Active; 'I' for Inactive)
    1  A    between atoms: C_1  and  O_20
    2  A    between atoms: C_2  and  C_9
    3  A    between atoms: C_2  and  C_23
    4  A    between atoms: C_4  and  C_5
    5  A    between atoms: C_4  and  O_13
    6  A    between atoms: C_6  and  N_31
    7  A    between atoms: C_8  and  C_23
    8  A    between atoms: C_8  and  O_28
    9  A    between atoms: C_9  and  C_10
   10  A    between atoms: C_10  and  C_19
   11  A    between atoms: O_13  and  C_15
   12  A    between atoms: C_14  and  C_26
   13  A    between atoms: C_14  and  O_28
   14  A    between atoms: C_15  and  C_26
   15  A    between atoms: C_16  and  C_26
   16  A    between atoms: C_19  and  O_20
   17  A    between atoms: N_27  and  C_32
                            x       y       z     vdW  Elec       q    Type
                         _______ _______ _______ _____ _____    ______ ____

>  <TORSDO>
F 17

$$$$
