=
 OpenBabel11062408193D

 32 35  0  0  1  0  0  0  0  0999 V2000
  160.4940  209.2790  154.5760 N   0  0  0  0  0  0  0  0  0  0  0  0
  162.3730  210.5900  149.8420 S   0  0  0  0  0  0  0  0  0  0  0  0
  161.3140  208.8470  153.4340 C   0  0  1  0  0  3  0  0  0  0  0  0
  161.8730  208.1180  149.3130 C   0  0  0  0  0  2  0  0  0  0  0  0
  161.3360  208.3960  150.6880 C   0  0  1  0  0  3  0  0  0  0  0  0
  160.6650  207.6360  152.7000 C   0  0  1  0  0  3  0  0  0  0  0  0
  161.3870  207.2810  151.5360 O   0  0  0  0  0  0  0  0  0  0  0  0
  162.2650  209.4290  151.2060 C   0  0  2  0  0  3  0  0  0  0  0  0
  162.1120  209.3410  148.6510 O   0  0  0  0  0  0  0  0  0  0  0  0
  161.6440  210.0030  152.4620 C   0  0  0  0  0  2  0  0  0  0  0  0
  160.6220  206.4230  153.6210 C   0  0  0  0  0  2  0  0  0  0  0  0
  161.5800  205.3390  153.1580 C   0  0  0  0  0  2  0  0  0  0  0  0
  160.8200  204.2300  152.4570 C   0  0  0  0  0  1  0  0  0  0  0  0
  160.7950  208.2530  155.9570 S   0  0  0  0  0  0  0  0  0  0  0  0
  159.5140  207.0230  156.0660 C   0  0  0  0  0  1  0  0  0  0  0  0
  160.7770  209.0690  157.2190 O   0  0  0  0  0  0  0  0  0  0  0  0
  162.1230  207.5600  155.8240 O   0  0  0  0  0  0  0  0  0  0  0  0
  160.5710  210.7400  154.8130 C   0  0  1  0  0  3  0  0  0  0  0  0
  157.4730  212.8810  154.2750 C   0  0  0  0  0  3  0  0  0  0  0  0
  157.1440  211.5300  156.2550 C   0  0  0  0  0  3  0  0  0  0  0  0
  159.2140  211.3520  154.9980 C   0  0  0  0  0  0  0  0  0  0  0  0
  156.6760  212.5040  155.3640 C   0  0  0  0  0  0  0  0  0  0  0  0
  158.4080  210.9630  156.0770 C   0  0  0  0  0  3  0  0  0  0  0  0
  158.7400  212.3190  154.0940 C   0  0  0  0  0  0  0  0  0  0  0  0
  159.6950  212.8290  152.7100 Cl  0  0  0  0  0  0  0  0  0  0  0  0
  155.2990  213.0730  155.5250 C   0  0  0  0  0  3  0  0  0  0  0  0
  155.3630  214.4490  156.1670 C   0  0  0  0  0  2  0  0  0  0  0  0
  154.9670  213.2510  156.9970 C   0  0  0  0  0  2  0  0  0  0  0  0
  161.5900  211.2240  155.8130 C   0  0  0  0  0  0  0  0  0  0  0  0
  162.9430  210.7910  155.6990 N   0  0  0  0  0  2  0  0  0  0  0  0
  161.2570  212.0110  156.7400 O   0  0  0  0  0  0  0  0  0  0  0  0
  163.8810  211.2050  156.5830 O   0  0  0  0  0  1  0  0  0  0  0  0
  1 18  1  0  0  0  0
  1 14  1  0  0  0  0
  2  8  1  0  0  0  0
  3  1  1  1  0  0  0
  5  4  1  6  0  0  0
  5  8  1  0  0  0  0
  5  7  1  0  0  0  0
  6  3  1  0  0  0  0
  6 11  1  1  0  0  0
  7  6  1  0  0  0  0
  8 10  1  1  0  0  0
  9  4  1  0  0  0  0
  9  2  1  0  0  0  0
 10  3  1  0  0  0  0
 12 11  1  0  0  0  0
 13 12  1  0  0  0  0
 14 15  1  0  0  0  0
 14 16  2  0  0  0  0
 17 14  2  0  0  0  0
 18 21  1  0  0  0  0
 18 29  1  1  0  0  0
 19 22  1  0  0  0  0
 21 23  2  0  0  0  0
 22 26  1  0  0  0  0
 22 20  2  0  0  0  0
 23 20  1  0  0  0  0
 24 19  2  0  0  0  0
 24 21  1  0  0  0  0
 25 24  1  0  0  0  0
 26 27  1  0  0  0  0
 26 28  1  0  0  0  0
 27 28  1  0  0  0  0
 29 31  2  0  0  0  0
 30 29  1  0  0  0  0
 30 32  1  0  0  0  0
M  END
>  <MODEL>
1

>  <REMARK>
 VINA RESULT:      -5.4      0.000      0.000
  Name = 
  8 active torsions:
  status: ('A' for Active; 'I' for Inactive)
    1  A    between atoms: C_1  and  C_27
    2  A    between atoms: S_2  and  N_5
    3  A    between atoms: N_5  and  C_10
    4  A    between atoms: N_5  and  C_27
    5  A    between atoms: C_6  and  C_13
    6  A    between atoms: C_6  and  C_25
    7  A    between atoms: C_7  and  C_19
    8  A    between atoms: C_16  and  C_27
                            x       y       z     vdW  Elec       q    Type
                         _______ _______ _______ _____ _____    ______ ____

>  <TORSDO>
F 8

$$$$
=
 OpenBabel11062408193D

 32 35  0  0  1  0  0  0  0  0999 V2000
  160.9920  210.5720  154.8550 N   0  0  0  0  0  0  0  0  0  0  0  0
  156.1640  211.1260  156.8630 S   0  0  0  0  0  0  0  0  0  0  0  0
  159.8250  211.4570  154.9780 C   0  0  1  0  0  3  0  0  0  0  0  0
  155.6960  212.2530  154.5940 C   0  0  0  0  0  2  0  0  0  0  0  0
  157.0870  211.6910  154.5330 C   0  0  1  0  0  3  0  0  0  0  0  0
  159.1380  211.6820  153.5990 C   0  0  1  0  0  3  0  0  0  0  0  0
  157.9500  212.4410  153.7220 O   0  0  0  0  0  0  0  0  0  0  0  0
  157.5500  211.7920  155.9380 C   0  0  2  0  0  3  0  0  0  0  0  0
  155.0060  211.6680  155.6760 O   0  0  0  0  0  0  0  0  0  0  0  0
  158.8210  210.9780  156.0520 C   0  0  0  0  0  2  0  0  0  0  0  0
  160.0790  212.4210  152.6550 C   0  0  0  0  0  2  0  0  0  0  0  0
  159.3130  213.1580  151.5700 C   0  0  0  0  0  2  0  0  0  0  0  0
  160.1170  213.1860  150.2850 C   0  0  0  0  0  1  0  0  0  0  0  0
  162.0350  210.7530  156.2460 S   0  0  0  0  0  0  0  0  0  0  0  0
  161.7330  212.3310  157.0060 C   0  0  0  0  0  1  0  0  0  0  0  0
  163.4750  210.6990  155.8190 O   0  0  0  0  0  0  0  0  0  0  0  0
  161.7670  209.6690  157.2530 O   0  0  0  0  0  0  0  0  0  0  0  0
  160.6220  209.1860  154.4860 C   0  0  1  0  0  3  0  0  0  0  0  0
  161.5730  207.1240  151.4340 C   0  0  0  0  0  3  0  0  0  0  0  0
  162.1970  209.4270  151.0350 C   0  0  0  0  0  3  0  0  0  0  0  0
  161.1470  208.8040  153.1340 C   0  0  0  0  0  0  0  0  0  0  0  0
  162.1480  208.0950  150.6050 C   0  0  0  0  0  0  0  0  0  0  0  0
  161.7060  209.7770  152.2950 C   0  0  0  0  0  3  0  0  0  0  0  0
  161.0830  207.4680  152.6970 C   0  0  0  0  0  0  0  0  0  0  0  0
  160.3720  206.2080  153.6950 Cl  0  0  0  0  0  0  0  0  0  0  0  0
  162.6260  207.7290  149.2320 C   0  0  0  0  0  3  0  0  0  0  0  0
  161.5500  208.0260  148.1980 C   0  0  0  0  0  2  0  0  0  0  0  0
  161.7800  206.6050  148.6580 C   0  0  0  0  0  2  0  0  0  0  0  0
  160.8210  208.1180  155.5310 C   0  0  0  0  0  0  0  0  0  0  0  0
  159.7090  207.6870  156.3120 N   0  0  0  0  0  2  0  0  0  0  0  0
  161.9550  207.5990  155.7120 O   0  0  0  0  0  0  0  0  0  0  0  0
  159.8540  206.7320  157.2600 O   0  0  0  0  0  1  0  0  0  0  0  0
  1 14  1  0  0  0  0
  3  1  1  6  0  0  0
  3 10  1  0  0  0  0
  4  9  1  0  0  0  0
  5  4  1  1  0  0  0
  5  8  1  0  0  0  0
  6 11  1  6  0  0  0
  6  7  1  0  0  0  0
  6  3  1  0  0  0  0
  7  5  1  0  0  0  0
  8 10  1  6  0  0  0
  8  2  1  0  0  0  0
  9  2  1  0  0  0  0
 12 11  1  0  0  0  0
 13 12  1  0  0  0  0
 14 15  1  0  0  0  0
 14 17  2  0  0  0  0
 16 14  2  0  0  0  0
 18  1  1  0  0  0  0
 18 29  1  1  0  0  0
 19 24  1  0  0  0  0
 20 23  2  0  0  0  0
 21 18  1  0  0  0  0
 22 20  1  0  0  0  0
 22 19  2  0  0  0  0
 23 21  1  0  0  0  0
 24 21  2  0  0  0  0
 24 25  1  0  0  0  0
 26 22  1  0  0  0  0
 27 28  1  0  0  0  0
 27 26  1  0  0  0  0
 28 26  1  0  0  0  0
 29 31  2  0  0  0  0
 29 30  1  0  0  0  0
 30 32  1  0  0  0  0
M  END
>  <MODEL>
2

>  <REMARK>
 VINA RESULT:      -4.7      2.664      6.937
  Name = 
  8 active torsions:
  status: ('A' for Active; 'I' for Inactive)
    1  A    between atoms: C_1  and  C_27
    2  A    between atoms: S_2  and  N_5
    3  A    between atoms: N_5  and  C_10
    4  A    between atoms: N_5  and  C_27
    5  A    between atoms: C_6  and  C_13
    6  A    between atoms: C_6  and  C_25
    7  A    between atoms: C_7  and  C_19
    8  A    between atoms: C_16  and  C_27
                            x       y       z     vdW  Elec       q    Type
                         _______ _______ _______ _____ _____    ______ ____

>  <TORSDO>
F 8

$$$$
=
 OpenBabel11062408193D

 32 35  0  0  1  0  0  0  0  0999 V2000
  161.1600  210.4550  154.4540 N   0  0  0  0  0  0  0  0  0  0  0  0
  157.8070  213.3790  157.2580 S   0  0  0  0  0  0  0  0  0  0  0  0
  160.4110  211.7180  154.5140 C   0  0  1  0  0  3  0  0  0  0  0  0
  156.8250  213.9080  154.9340 C   0  0  0  0  0  2  0  0  0  0  0  0
  157.8820  212.8590  154.7420 C   0  0  1  0  0  3  0  0  0  0  0  0
  159.3350  211.7920  153.3900 C   0  0  1  0  0  3  0  0  0  0  0  0
  158.5350  212.9530  153.5060 O   0  0  0  0  0  0  0  0  0  0  0  0
  158.8560  213.1650  155.8170 C   0  0  2  0  0  3  0  0  0  0  0  0
  156.4730  213.9680  156.3000 O   0  0  0  0  0  0  0  0  0  0  0  0
  159.8070  211.9900  155.9110 C   0  0  0  0  0  2  0  0  0  0  0  0
  160.0030  211.8090  152.0210 C   0  0  0  0  0  2  0  0  0  0  0  0
  159.6570  213.0700  151.2490 C   0  0  0  0  0  2  0  0  0  0  0  0
  160.5870  213.2320  150.0630 C   0  0  0  0  0  1  0  0  0  0  0  0
  162.4250  210.4460  155.6590 S   0  0  0  0  0  0  0  0  0  0  0  0
  162.0140  211.5950  156.9520 C   0  0  0  0  0  1  0  0  0  0  0  0
  163.7270  210.8730  155.0400 O   0  0  0  0  0  0  0  0  0  0  0  0
  162.5780  209.0750  156.2580 O   0  0  0  0  0  0  0  0  0  0  0  0
  160.2740  209.2670  154.4220 C   0  0  1  0  0  3  0  0  0  0  0  0
  162.0660  207.6000  151.5090 C   0  0  0  0  0  3  0  0  0  0  0  0
  160.8340  205.9120  152.7260 C   0  0  0  0  0  3  0  0  0  0  0  0
  160.7650  208.2250  153.4610 C   0  0  0  0  0  0  0  0  0  0  0  0
  161.6660  206.2660  151.6570 C   0  0  0  0  0  0  0  0  0  0  0  0
  160.3800  206.8860  153.6180 C   0  0  0  0  0  3  0  0  0  0  0  0
  161.6140  208.5800  152.3970 C   0  0  0  0  0  0  0  0  0  0  0  0
  162.1480  210.2390  152.1640 Cl  0  0  0  0  0  0  0  0  0  0  0  0
  162.1950  205.2120  150.7320 C   0  0  0  0  0  3  0  0  0  0  0  0
  161.3170  205.0990  149.4960 C   0  0  0  0  0  2  0  0  0  0  0  0
  161.1970  204.0740  150.5990 C   0  0  0  0  0  2  0  0  0  0  0  0
  159.8320  208.7010  155.7470 C   0  0  0  0  0  0  0  0  0  0  0  0
  160.1650  207.3550  156.0800 N   0  0  0  0  0  2  0  0  0  0  0  0
  159.1810  209.4070  156.5630 O   0  0  0  0  0  0  0  0  0  0  0  0
  159.7810  206.8160  157.2610 O   0  0  0  0  0  1  0  0  0  0  0  0
  1 14  1  0  0  0  0
  3  1  1  1  0  0  0
  3 10  1  0  0  0  0
  4  9  1  0  0  0  0
  5  4  1  6  0  0  0
  5  8  1  0  0  0  0
  6 11  1  6  0  0  0
  6  7  1  0  0  0  0
  6  3  1  0  0  0  0
  7  5  1  0  0  0  0
  8 10  1  1  0  0  0
  8  2  1  0  0  0  0
  9  2  1  0  0  0  0
 12 11  1  0  0  0  0
 13 12  1  0  0  0  0
 14 17  2  0  0  0  0
 14 15  1  0  0  0  0
 16 14  2  0  0  0  0
 18  1  1  0  0  0  0
 18 29  1  1  0  0  0
 19 22  2  0  0  0  0
 19 24  1  0  0  0  0
 20 23  2  0  0  0  0
 21 23  1  0  0  0  0
 21 18  1  0  0  0  0
 22 20  1  0  0  0  0
 24 21  2  0  0  0  0
 25 24  1  0  0  0  0
 26 22  1  0  0  0  0
 27 28  1  0  0  0  0
 27 26  1  0  0  0  0
 28 26  1  0  0  0  0
 29 30  1  0  0  0  0
 29 31  2  0  0  0  0
 30 32  1  0  0  0  0
M  END
>  <MODEL>
3

>  <REMARK>
 VINA RESULT:      -3.3      2.523      6.916
  Name = 
  8 active torsions:
  status: ('A' for Active; 'I' for Inactive)
    1  A    between atoms: C_1  and  C_27
    2  A    between atoms: S_2  and  N_5
    3  A    between atoms: N_5  and  C_10
    4  A    between atoms: N_5  and  C_27
    5  A    between atoms: C_6  and  C_13
    6  A    between atoms: C_6  and  C_25
    7  A    between atoms: C_7  and  C_19
    8  A    between atoms: C_16  and  C_27
                            x       y       z     vdW  Elec       q    Type
                         _______ _______ _______ _____ _____    ______ ____

>  <TORSDO>
F 8

$$$$
=
 OpenBabel11062408193D

 32 35  0  0  1  0  0  0  0  0999 V2000
  160.2230  210.2110  153.1230 N   0  0  0  0  0  0  0  0  0  0  0  0
  157.4430  211.8860  157.2600 S   0  0  0  0  0  0  0  0  0  0  0  0
  159.4900  211.3400  153.7140 C   0  0  1  0  0  3  0  0  0  0  0  0
  156.0340  213.0440  155.4400 C   0  0  0  0  0  2  0  0  0  0  0  0
  157.0430  212.1800  154.7390 C   0  0  1  0  0  3  0  0  0  0  0  0
  158.2200  211.6870  152.8820 C   0  0  1  0  0  3  0  0  0  0  0  0
  157.4480  212.6980  153.5010 O   0  0  0  0  0  0  0  0  0  0  0  0
  158.2010  212.2020  155.6640 C   0  0  2  0  0  3  0  0  0  0  0  0
  155.9470  212.6530  156.7930 O   0  0  0  0  0  0  0  0  0  0  0  0
  159.1600  211.1220  155.2090 C   0  0  0  0  0  2  0  0  0  0  0  0
  158.6150  212.1730  151.4940 C   0  0  0  0  0  2  0  0  0  0  0  0
  157.9460  213.4940  151.1560 C   0  0  0  0  0  2  0  0  0  0  0  0
  157.2070  213.3860  149.8360 C   0  0  0  0  0  1  0  0  0  0  0  0
  161.4210  210.7950  151.9930 S   0  0  0  0  0  0  0  0  0  0  0  0
  161.2390  209.9360  150.4460 C   0  0  0  0  0  1  0  0  0  0  0  0
  162.8020  210.5290  152.5240 O   0  0  0  0  0  0  0  0  0  0  0  0
  161.2490  212.2700  151.7530 O   0  0  0  0  0  0  0  0  0  0  0  0
  160.6940  209.2410  154.1390 C   0  0  1  0  0  3  0  0  0  0  0  0
  160.9210  205.4790  153.6220 C   0  0  0  0  0  3  0  0  0  0  0  0
  161.9850  206.5810  151.7500 C   0  0  0  0  0  3  0  0  0  0  0  0
  161.0090  207.9040  153.5380 C   0  0  0  0  0  0  0  0  0  0  0  0
  161.6170  205.4020  152.4090 C   0  0  0  0  0  0  0  0  0  0  0  0
  161.6890  207.8240  152.3150 C   0  0  0  0  0  3  0  0  0  0  0  0
  160.6240  206.7200  154.1930 C   0  0  0  0  0  0  0  0  0  0  0  0
  159.7480  206.7570  155.7160 Cl  0  0  0  0  0  0  0  0  0  0  0  0
  161.8870  204.0700  151.7770 C   0  0  0  0  0  3  0  0  0  0  0  0
  160.8280  203.7520  150.7330 C   0  0  0  0  0  2  0  0  0  0  0  0
  160.7640  203.0960  152.0920 C   0  0  0  0  0  2  0  0  0  0  0  0
  161.7370  209.7190  155.1170 C   0  0  0  0  0  0  0  0  0  0  0  0
  161.9310  209.0090  156.3370 N   0  0  0  0  0  2  0  0  0  0  0  0
  162.4410  210.7330  154.8610 O   0  0  0  0  0  0  0  0  0  0  0  0
  162.8570  209.4140  157.2380 O   0  0  0  0  0  1  0  0  0  0  0  0
  1 18  1  0  0  0  0
  3  1  1  6  0  0  0
  3 10  1  0  0  0  0
  4  9  1  0  0  0  0
  5  4  1  1  0  0  0
  5  8  1  0  0  0  0
  6 11  1  6  0  0  0
  6  7  1  0  0  0  0
  6  3  1  0  0  0  0
  7  5  1  0  0  0  0
  8 10  1  6  0  0  0
  8  2  1  0  0  0  0
  9  2  1  0  0  0  0
 12 11  1  0  0  0  0
 13 12  1  0  0  0  0
 14 16  2  0  0  0  0
 14  1  1  0  0  0  0
 15 14  1  0  0  0  0
 17 14  2  0  0  0  0
 18 29  1  6  0  0  0
 19 24  1  0  0  0  0
 20 23  2  0  0  0  0
 20 22  1  0  0  0  0
 21 18  1  0  0  0  0
 21 24  2  0  0  0  0
 22 19  2  0  0  0  0
 23 21  1  0  0  0  0
 24 25  1  0  0  0  0
 26 28  1  0  0  0  0
 26 22  1  0  0  0  0
 27 26  1  0  0  0  0
 27 28  1  0  0  0  0
 29 30  1  0  0  0  0
 30 32  1  0  0  0  0
 31 29  2  0  0  0  0
M  END
>  <MODEL>
4

>  <REMARK>
 VINA RESULT:      -3.3      2.765      7.274
  Name = 
  8 active torsions:
  status: ('A' for Active; 'I' for Inactive)
    1  A    between atoms: C_1  and  C_27
    2  A    between atoms: S_2  and  N_5
    3  A    between atoms: N_5  and  C_10
    4  A    between atoms: N_5  and  C_27
    5  A    between atoms: C_6  and  C_13
    6  A    between atoms: C_6  and  C_25
    7  A    between atoms: C_7  and  C_19
    8  A    between atoms: C_16  and  C_27
                            x       y       z     vdW  Elec       q    Type
                         _______ _______ _______ _____ _____    ______ ____

>  <TORSDO>
F 8

$$$$
=
 OpenBabel11062408193D

 32 35  0  0  1  0  0  0  0  0999 V2000
  161.4770  210.0520  154.0890 N   0  0  0  0  0  0  0  0  0  0  0  0
  157.6680  213.6610  153.7470 S   0  0  0  0  0  0  0  0  0  0  0  0
  161.0370  211.2920  153.4330 C   0  0  1  0  0  3  0  0  0  0  0  0
  158.2270  213.5490  151.2340 C   0  0  0  0  0  2  0  0  0  0  0  0
  159.0270  212.4770  151.9160 C   0  0  1  0  0  3  0  0  0  0  0  0
  160.7860  211.0680  151.9130 C   0  0  1  0  0  3  0  0  0  0  0  0
  160.2560  212.2250  151.2930 O   0  0  0  0  0  0  0  0  0  0  0  0
  159.2840  213.0540  153.2570 C   0  0  2  0  0  3  0  0  0  0  0  0
  157.1980  213.9810  152.0970 O   0  0  0  0  0  0  0  0  0  0  0  0
  159.8190  211.9390  154.1320 C   0  0  0  0  0  2  0  0  0  0  0  0
  162.0880  210.7060  151.2100 C   0  0  0  0  0  2  0  0  0  0  0  0
  161.9610  210.8330  149.7020 C   0  0  0  0  0  2  0  0  0  0  0  0
  161.9560  209.4600  149.0580 C   0  0  0  0  0  1  0  0  0  0  0  0
  162.2120  210.4150  155.6330 S   0  0  0  0  0  0  0  0  0  0  0  0
  161.2060  211.5980  156.4990 C   0  0  0  0  0  1  0  0  0  0  0  0
  163.5760  211.0130  155.4250 O   0  0  0  0  0  0  0  0  0  0  0  0
  162.3300  209.1710  156.4700 O   0  0  0  0  0  0  0  0  0  0  0  0
  160.4300  209.0030  154.0900 C   0  0  1  0  0  3  0  0  0  0  0  0
  161.9310  205.6600  153.0710 C   0  0  0  0  0  3  0  0  0  0  0  0
  160.8200  206.6250  151.1510 C   0  0  0  0  0  3  0  0  0  0  0  0
  160.8260  207.8120  153.2690 C   0  0  0  0  0  0  0  0  0  0  0  0
  161.5750  205.5910  151.7180 C   0  0  0  0  0  0  0  0  0  0  0  0
  160.4540  207.7320  151.9200 C   0  0  0  0  0  3  0  0  0  0  0  0
  161.5700  206.7670  153.8450 C   0  0  0  0  0  0  0  0  0  0  0  0
  162.0440  206.8000  155.5370 Cl  0  0  0  0  0  0  0  0  0  0  0  0
  161.9210  204.3790  150.9070 C   0  0  0  0  0  3  0  0  0  0  0  0
  160.6600  203.6320  150.5020 C   0  0  0  0  0  2  0  0  0  0  0  0
  161.5070  203.1140  151.6400 C   0  0  0  0  0  2  0  0  0  0  0  0
  159.8190  208.6400  155.4200 C   0  0  0  0  0  0  0  0  0  0  0  0
  159.8590  207.2860  155.8620 N   0  0  0  0  0  2  0  0  0  0  0  0
  159.2830  209.5230  156.1430 O   0  0  0  0  0  0  0  0  0  0  0  0
  159.3170  206.9270  157.0490 O   0  0  0  0  0  1  0  0  0  0  0  0
  1 18  1  0  0  0  0
  1 14  1  0  0  0  0
  3  1  1  1  0  0  0
  3 10  1  0  0  0  0
  4  9  1  0  0  0  0
  5  4  1  6  0  0  0
  5  8  1  0  0  0  0
  6 11  1  6  0  0  0
  6  3  1  0  0  0  0
  7  6  1  0  0  0  0
  7  5  1  0  0  0  0
  8  2  1  0  0  0  0
  8 10  1  1  0  0  0
  9  2  1  0  0  0  0
 12 11  1  0  0  0  0
 13 12  1  0  0  0  0
 14 17  2  0  0  0  0
 14 15  1  0  0  0  0
 16 14  2  0  0  0  0
 18 29  1  1  0  0  0
 19 24  1  0  0  0  0
 20 22  1  0  0  0  0
 20 23  2  0  0  0  0
 21 24  2  0  0  0  0
 21 18  1  0  0  0  0
 22 19  2  0  0  0  0
 23 21  1  0  0  0  0
 24 25  1  0  0  0  0
 26 28  1  0  0  0  0
 26 22  1  0  0  0  0
 27 26  1  0  0  0  0
 27 28  1  0  0  0  0
 29 30  1  0  0  0  0
 29 31  2  0  0  0  0
 30 32  1  0  0  0  0
M  END
>  <MODEL>
5

>  <REMARK>
 VINA RESULT:      -2.8      3.032      6.500
  Name = 
  8 active torsions:
  status: ('A' for Active; 'I' for Inactive)
    1  A    between atoms: C_1  and  C_27
    2  A    between atoms: S_2  and  N_5
    3  A    between atoms: N_5  and  C_10
    4  A    between atoms: N_5  and  C_27
    5  A    between atoms: C_6  and  C_13
    6  A    between atoms: C_6  and  C_25
    7  A    between atoms: C_7  and  C_19
    8  A    between atoms: C_16  and  C_27
                            x       y       z     vdW  Elec       q    Type
                         _______ _______ _______ _____ _____    ______ ____

>  <TORSDO>
F 8

$$$$
=
 OpenBabel11062408193D

 32 35  0  0  1  0  0  0  0  0999 V2000
  160.8400  209.2730  151.8850 N   0  0  0  0  0  0  0  0  0  0  0  0
  159.7770  209.9340  156.9920 S   0  0  0  0  0  0  0  0  0  0  0  0
  160.5990  210.2500  152.9560 C   0  0  1  0  0  3  0  0  0  0  0  0
  158.2690  211.8270  156.1050 C   0  0  0  0  0  2  0  0  0  0  0  0
  158.8050  211.0890  154.9120 C   0  0  1  0  0  3  0  0  0  0  0  0
  159.2820  211.0440  152.7100 C   0  0  1  0  0  3  0  0  0  0  0  0
  158.9810  211.9080  153.7900 O   0  0  0  0  0  0  0  0  0  0  0  0
  160.1350  210.6260  155.3760 C   0  0  2  0  0  3  0  0  0  0  0  0
  158.4510  211.0370  157.2610 O   0  0  0  0  0  0  0  0  0  0  0  0
  160.6360  209.6150  154.3660 C   0  0  0  0  0  2  0  0  0  0  0  0
  159.4010  211.8850  151.4460 C   0  0  0  0  0  2  0  0  0  0  0  0
  158.3500  212.9820  151.4060 C   0  0  0  0  0  2  0  0  0  0  0  0
  158.9880  214.3070  151.0390 C   0  0  0  0  0  1  0  0  0  0  0  0
  162.4060  209.5480  151.1600 S   0  0  0  0  0  0  0  0  0  0  0  0
  162.2040  210.4840  149.6610 C   0  0  0  0  0  1  0  0  0  0  0  0
  163.0520  208.2350  150.8170 O   0  0  0  0  0  0  0  0  0  0  0  0
  163.2970  210.3170  152.0960 O   0  0  0  0  0  0  0  0  0  0  0  0
  160.5440  207.8820  152.3030 C   0  0  1  0  0  3  0  0  0  0  0  0
  161.1400  204.6480  150.3910 C   0  0  0  0  0  3  0  0  0  0  0  0
  160.8030  206.4360  148.7970 C   0  0  0  0  0  3  0  0  0  0  0  0
  160.7230  206.9070  151.1780 C   0  0  0  0  0  0  0  0  0  0  0  0
  161.0730  205.0880  149.0630 C   0  0  0  0  0  0  0  0  0  0  0  0
  160.6370  207.3410  149.8490 C   0  0  0  0  0  3  0  0  0  0  0  0
  160.9770  205.5490  151.4470 C   0  0  0  0  0  0  0  0  0  0  0  0
  161.0730  204.9420  153.0940 Cl  0  0  0  0  0  0  0  0  0  0  0  0
  161.1980  204.1080  147.9360 C   0  0  0  0  0  3  0  0  0  0  0  0
  162.4990  204.3290  147.1810 C   0  0  0  0  0  2  0  0  0  0  0  0
  161.1990  204.8330  146.6010 C   0  0  0  0  0  2  0  0  0  0  0  0
  161.1390  207.4130  153.6060 C   0  0  0  0  0  0  0  0  0  0  0  0
  160.2740  207.0660  154.6850 N   0  0  0  0  0  2  0  0  0  0  0  0
  162.3870  207.3150  153.7450 O   0  0  0  0  0  0  0  0  0  0  0  0
  160.7760  206.6430  155.8690 O   0  0  0  0  0  1  0  0  0  0  0  0
  1 18  1  0  0  0  0
  2  9  1  0  0  0  0
  3  1  1  6  0  0  0
  3 10  1  0  0  0  0
  4  9  1  0  0  0  0
  5  8  1  0  0  0  0
  5  4  1  1  0  0  0
  6 11  1  6  0  0  0
  6  3  1  0  0  0  0
  6  7  1  0  0  0  0
  7  5  1  0  0  0  0
  8 10  1  6  0  0  0
  8  2  1  0  0  0  0
 12 11  1  0  0  0  0
 13 12  1  0  0  0  0
 14  1  1  0  0  0  0
 14 17  2  0  0  0  0
 15 14  1  0  0  0  0
 16 14  2  0  0  0  0
 18 29  1  1  0  0  0
 19 24  1  0  0  0  0
 20 22  1  0  0  0  0
 20 23  2  0  0  0  0
 21 24  2  0  0  0  0
 21 18  1  0  0  0  0
 22 19  2  0  0  0  0
 23 21  1  0  0  0  0
 24 25  1  0  0  0  0
 26 22  1  0  0  0  0
 27 26  1  0  0  0  0
 28 27  1  0  0  0  0
 28 26  1  0  0  0  0
 29 31  2  0  0  0  0
 29 30  1  0  0  0  0
 30 32  1  0  0  0  0
M  END
>  <MODEL>
6

>  <REMARK>
 VINA RESULT:      -2.7      2.832      7.854
  Name = 
  8 active torsions:
  status: ('A' for Active; 'I' for Inactive)
    1  A    between atoms: C_1  and  C_27
    2  A    between atoms: S_2  and  N_5
    3  A    between atoms: N_5  and  C_10
    4  A    between atoms: N_5  and  C_27
    5  A    between atoms: C_6  and  C_13
    6  A    between atoms: C_6  and  C_25
    7  A    between atoms: C_7  and  C_19
    8  A    between atoms: C_16  and  C_27
                            x       y       z     vdW  Elec       q    Type
                         _______ _______ _______ _____ _____    ______ ____

>  <TORSDO>
F 8

$$$$
=
 OpenBabel11062408193D

 32 35  0  0  1  0  0  0  0  0999 V2000
  160.2780  212.4430  148.0850 N   0  0  0  0  0  0  0  0  0  0  0  0
  158.6170  214.4510  152.6530 S   0  0  0  0  0  0  0  0  0  0  0  0
  159.3590  213.3940  148.7290 C   0  0  1  0  0  3  0  0  0  0  0  0
  156.3160  214.3400  151.4980 C   0  0  0  0  0  2  0  0  0  0  0  0
  157.3040  213.6740  150.5850 C   0  0  1  0  0  3  0  0  0  0  0  0
  157.8740  212.9750  148.5200 C   0  0  1  0  0  3  0  0  0  0  0  0
  156.9870  213.8190  149.2280 O   0  0  0  0  0  0  0  0  0  0  0  0
  158.5610  214.4110  150.8590 C   0  0  2  0  0  3  0  0  0  0  0  0
  156.8770  214.4530  152.7880 O   0  0  0  0  0  0  0  0  0  0  0  0
  159.6900  213.6280  150.2220 C   0  0  0  0  0  2  0  0  0  0  0  0
  157.5120  213.0360  147.0410 C   0  0  0  0  0  2  0  0  0  0  0  0
  156.9040  214.3780  146.6730 C   0  0  0  0  0  2  0  0  0  0  0  0
  156.3320  214.3280  145.2700 C   0  0  0  0  0  1  0  0  0  0  0  0
  160.6000  212.9360  146.4400 S   0  0  0  0  0  0  0  0  0  0  0  0
  159.5760  211.9940  145.3330 C   0  0  0  0  0  1  0  0  0  0  0  0
  162.0390  212.6730  146.0960 O   0  0  0  0  0  0  0  0  0  0  0  0
  160.2970  214.3980  146.2550 O   0  0  0  0  0  0  0  0  0  0  0  0
  161.4600  212.1340  148.9230 C   0  0  1  0  0  3  0  0  0  0  0  0
  161.6410  208.7710  150.6900 C   0  0  0  0  0  3  0  0  0  0  0  0
  161.9850  208.4180  148.3220 C   0  0  0  0  0  3  0  0  0  0  0  0
  161.6070  210.6630  149.1690 C   0  0  0  0  0  0  0  0  0  0  0  0
  161.8990  207.9030  149.6210 C   0  0  0  0  0  0  0  0  0  0  0  0
  161.8470  209.7900  148.0980 C   0  0  0  0  0  3  0  0  0  0  0  0
  161.5050  210.1450  150.4730 C   0  0  0  0  0  0  0  0  0  0  0  0
  161.1820  211.1870  151.8510 Cl  0  0  0  0  0  0  0  0  0  0  0  0
  161.9940  206.4260  149.8540 C   0  0  0  0  0  3  0  0  0  0  0  0
  160.9810  205.6860  148.9940 C   0  0  0  0  0  2  0  0  0  0  0  0
  160.7050  205.9010  150.4630 C   0  0  0  0  0  2  0  0  0  0  0  0
  162.7570  212.8150  148.5630 C   0  0  0  0  0  0  0  0  0  0  0  0
  163.9140  212.0250  148.3020 N   0  0  0  0  0  2  0  0  0  0  0  0
  162.8220  214.0710  148.4830 O   0  0  0  0  0  0  0  0  0  0  0  0
  165.0930  212.6060  147.9790 O   0  0  0  0  0  1  0  0  0  0  0  0
  1 18  1  0  0  0  0
  2  9  1  0  0  0  0
  3  1  1  1  0  0  0
  3 10  1  0  0  0  0
  4  9  1  0  0  0  0
  5  8  1  0  0  0  0
  5  4  1  1  0  0  0
  6 11  1  6  0  0  0
  6  3  1  0  0  0  0
  6  7  1  0  0  0  0
  7  5  1  0  0  0  0
  8 10  1  1  0  0  0
  8  2  1  0  0  0  0
 12 11  1  0  0  0  0
 13 12  1  0  0  0  0
 14  1  1  0  0  0  0
 15 14  1  0  0  0  0
 16 14  2  0  0  0  0
 17 14  2  0  0  0  0
 18 29  1  6  0  0  0
 18 21  1  0  0  0  0
 20 22  1  0  0  0  0
 21 24  2  0  0  0  0
 22 26  1  0  0  0  0
 22 19  2  0  0  0  0
 23 20  2  0  0  0  0
 23 21  1  0  0  0  0
 24 19  1  0  0  0  0
 24 25  1  0  0  0  0
 26 28  1  0  0  0  0
 27 26  1  0  0  0  0
 27 28  1  0  0  0  0
 30 29  1  0  0  0  0
 31 29  2  0  0  0  0
 32 30  1  0  0  0  0
M  END
>  <MODEL>
7

>  <REMARK>
 VINA RESULT:      -2.6      5.206      8.913
  Name = 
  8 active torsions:
  status: ('A' for Active; 'I' for Inactive)
    1  A    between atoms: C_1  and  C_27
    2  A    between atoms: S_2  and  N_5
    3  A    between atoms: N_5  and  C_10
    4  A    between atoms: N_5  and  C_27
    5  A    between atoms: C_6  and  C_13
    6  A    between atoms: C_6  and  C_25
    7  A    between atoms: C_7  and  C_19
    8  A    between atoms: C_16  and  C_27
                            x       y       z     vdW  Elec       q    Type
                         _______ _______ _______ _____ _____    ______ ____

>  <TORSDO>
F 8

$$$$
=
 OpenBabel11062408193D

 32 35  0  0  1  0  0  0  0  0999 V2000
  159.9710  210.3460  152.6430 N   0  0  0  0  0  0  0  0  0  0  0  0
  155.6740  211.0630  155.5870 S   0  0  0  0  0  0  0  0  0  0  0  0
  159.4110  210.2990  154.0020 C   0  0  1  0  0  3  0  0  0  0  0  0
  157.3700  212.0580  157.2520 C   0  0  0  0  0  2  0  0  0  0  0  0
  158.1140  211.7630  155.9820 C   0  0  1  0  0  3  0  0  0  0  0  0
  160.0630  211.3740  154.9190 C   0  0  1  0  0  3  0  0  0  0  0  0
  159.4540  211.4130  156.1960 O   0  0  0  0  0  0  0  0  0  0  0  0
  157.3970  210.5840  155.4410 C   0  0  2  0  0  3  0  0  0  0  0  0
  155.9840  212.0530  156.9910 O   0  0  0  0  0  0  0  0  0  0  0  0
  157.8670  210.3860  154.0150 C   0  0  0  0  0  2  0  0  0  0  0  0
  161.5460  211.0780  155.1080 C   0  0  0  0  0  2  0  0  0  0  0  0
  161.9400  211.1230  156.5750 C   0  0  0  0  0  2  0  0  0  0  0  0
  163.4120  210.7960  156.7330 C   0  0  0  0  0  1  0  0  0  0  0  0
  159.8800  211.9710  152.0090 S   0  0  0  0  0  0  0  0  0  0  0  0
  158.1820  212.3740  151.6660 C   0  0  0  0  0  1  0  0  0  0  0  0
  160.6600  212.0690  150.7280 O   0  0  0  0  0  0  0  0  0  0  0  0
  160.4220  212.9600  153.0050 O   0  0  0  0  0  0  0  0  0  0  0  0
  161.2890  209.6740  152.5450 C   0  0  1  0  0  3  0  0  0  0  0  0
  161.1080  206.0020  153.5180 C   0  0  0  0  0  3  0  0  0  0  0  0
  160.8260  206.1810  151.1220 C   0  0  0  0  0  3  0  0  0  0  0  0
  161.1560  208.1840  152.4550 C   0  0  0  0  0  0  0  0  0  0  0  0
  160.9210  205.3880  152.2730 C   0  0  0  0  0  0  0  0  0  0  0  0
  160.9500  207.5690  151.2120 C   0  0  0  0  0  3  0  0  0  0  0  0
  161.2350  207.3900  153.6140 C   0  0  0  0  0  0  0  0  0  0  0  0
  161.4680  208.1060  155.2020 Cl  0  0  0  0  0  0  0  0  0  0  0  0
  160.7340  203.9040  152.1830 C   0  0  0  0  0  3  0  0  0  0  0  0
  161.8940  203.2660  151.4340 C   0  0  0  0  0  2  0  0  0  0  0  0
  160.5730  203.4760  150.7340 C   0  0  0  0  0  2  0  0  0  0  0  0
  162.2840  210.2490  151.5690 C   0  0  0  0  0  0  0  0  0  0  0  0
  161.9630  210.2830  150.1810 N   0  0  0  0  0  2  0  0  0  0  0  0
  163.3880  210.7050  151.9700 O   0  0  0  0  0  0  0  0  0  0  0  0
  162.8360  210.7900  149.2780 O   0  0  0  0  0  1  0  0  0  0  0  0
  2  9  1  0  0  0  0
  3  1  1  6  0  0  0
  3 10  1  0  0  0  0
  3  6  1  0  0  0  0
  5  7  1  0  0  0  0
  5  4  1  1  0  0  0
  6 11  1  1  0  0  0
  6  7  1  0  0  0  0
  8 10  1  6  0  0  0
  8  2  1  0  0  0  0
  8  5  1  0  0  0  0
  9  4  1  0  0  0  0
 11 12  1  0  0  0  0
 12 13  1  0  0  0  0
 14  1  1  0  0  0  0
 14 17  2  0  0  0  0
 15 14  1  0  0  0  0
 16 14  2  0  0  0  0
 18 29  1  6  0  0  0
 18  1  1  0  0  0  0
 19 24  1  0  0  0  0
 20 23  2  0  0  0  0
 20 22  1  0  0  0  0
 21 18  1  0  0  0  0
 21 24  2  0  0  0  0
 22 19  2  0  0  0  0
 23 21  1  0  0  0  0
 24 25  1  0  0  0  0
 26 22  1  0  0  0  0
 27 26  1  0  0  0  0
 28 27  1  0  0  0  0
 28 26  1  0  0  0  0
 29 31  2  0  0  0  0
 30 29  1  0  0  0  0
 32 30  1  0  0  0  0
M  END
>  <MODEL>
8

>  <REMARK>
 VINA RESULT:      -2.5      2.692      7.370
  Name = 
  8 active torsions:
  status: ('A' for Active; 'I' for Inactive)
    1  A    between atoms: C_1  and  C_27
    2  A    between atoms: S_2  and  N_5
    3  A    between atoms: N_5  and  C_10
    4  A    between atoms: N_5  and  C_27
    5  A    between atoms: C_6  and  C_13
    6  A    between atoms: C_6  and  C_25
    7  A    between atoms: C_7  and  C_19
    8  A    between atoms: C_16  and  C_27
                            x       y       z     vdW  Elec       q    Type
                         _______ _______ _______ _____ _____    ______ ____

>  <TORSDO>
F 8

$$$$
