=
 OpenBabel11062409083D

 37 44  0  0  1  0  0  0  0  0999 V2000
  159.7090  212.5880  153.5970 C   0  0  0  0  0  0  0  0  0  0  0  0
  160.1960  210.2540  155.5030 C   0  0  1  0  0  0  0  0  0  0  0  0
  158.8450  212.4820  152.3850 C   0  0  1  0  0  3  0  0  0  0  0  0
  160.7710  211.0930  156.6370 C   0  0  1  0  0  0  0  0  0  0  0  0
  160.7150  208.5400  151.8560 C   0  0  0  0  0  2  0  0  0  0  0  0
  160.1400  213.2570  155.9500 C   0  0  0  0  0  2  0  0  0  0  0  0
  157.7470  211.6360  152.6590 O   0  0  0  0  0  0  0  0  0  0  0  0
  161.3730  210.6160  153.2380 C   0  0  1  0  0  3  0  0  0  0  0  0
  160.2150  207.9190  153.1420 C   0  0  0  0  0  2  0  0  0  0  0  0
  156.5100  213.0450  154.2950 C   0  0  1  0  0  3  0  0  0  0  0  0
  161.1560  212.1400  153.4520 C   0  0  0  0  0  2  0  0  0  0  0  0
  161.2280  208.2280  154.2230 C   0  0  0  0  0  2  0  0  0  0  0  0
  157.0310  212.1900  155.4190 C   0  0  0  0  0  2  0  0  0  0  0  0
  159.9180  212.2270  156.9640 N   0  0  0  0  0  2  0  0  0  0  0  0
  161.2630  209.7320  154.5180 C   0  0  2  0  0  3  0  0  0  0  0  0
  159.2190  213.0550  154.7750 C   0  0  0  0  0  0  0  0  0  0  0  0
  160.7290  210.0680  151.9380 C   0  0  1  0  0  3  0  0  0  0  0  0
  160.1730  209.7200  156.9630 C   0  0  1  0  0  0  0  0  0  0  0  0
  157.7830  213.4700  155.0480 C   0  0  1  0  0  3  0  0  0  0  0  0
  156.5940  212.3930  152.9080 C   0  0  0  0  0  2  0  0  0  0  0  0
  159.1290  209.2780  155.9580 C   0  0  0  0  0  2  0  0  0  0  0  0
  163.1170  210.1750  157.0010 C   0  0  0  0  0  3  0  0  0  0  0  0
  162.2510  211.2750  156.9160 C   0  0  0  0  0  0  0  0  0  0  0  0
  162.7880  212.5710  156.9640 C   0  0  0  0  0  3  0  0  0  0  0  0
  164.6670  214.0180  157.2090 F   0  0  0  0  0  0  0  0  0  0  0  0
  165.0100  211.6590  157.2610 C   0  0  0  0  0  3  0  0  0  0  0  0
  164.1610  212.7630  157.1480 C   0  0  0  0  0  0  0  0  0  0  0  0
  164.4880  210.3650  157.1830 C   0  0  0  0  0  3  0  0  0  0  0  0
  161.4670  210.6000  150.7040 C   0  0  0  0  0  0  0  0  0  0  0  0
  161.5900  209.6720  149.5190 C   0  0  0  0  0  2  0  0  0  0  0  0
  161.4800  212.0860  150.3850 C   0  0  0  0  0  1  0  0  0  0  0  0
  162.7880  209.9160  150.4220 C   0  0  0  0  0  2  0  0  0  0  0  0
  158.8110  213.7960  150.2150 C   0  0  0  0  0  1  0  0  0  0  0  0
  158.5440  213.8400  151.7090 C   0  0  0  0  0  2  0  0  0  0  0  0
  161.1890  208.6050  157.2120 C   0  0  0  0  0  2  0  0  0  0  0  0
  159.9480  206.2420  157.2590 C   0  0  0  0  0  3  0  0  0  0  0  0
  160.5090  207.3090  157.2370 C   0  0  0  0  0  0  0  0  0  0  0  0
  1 16  2  0  0  0  0
  2 21  1  6  0  0  0
  2  4  1  0  0  0  0
  2 18  1  0  0  0  0
  3 34  1  1  0  0  0
  3  7  1  0  0  0  0
  3  1  1  0  0  0  0
  4 23  1  1  0  0  0
  4 18  1  0  0  0  0
  4 14  1  0  0  0  0
  5 17  1  0  0  0  0
  5  9  1  0  0  0  0
  6 14  1  0  0  0  0
  7 20  1  0  0  0  0
  8 11  1  1  0  0  0
  8 15  1  0  0  0  0
  9 12  1  0  0  0  0
 10 20  1  6  0  0  0
 10 19  1  0  0  0  0
 10 13  1  0  0  0  0
 11  1  1  0  0  0  0
 15 12  1  6  0  0  0
 15  2  1  0  0  0  0
 16 19  1  0  0  0  0
 16  6  1  0  0  0  0
 17 29  1  6  0  0  0
 17  8  1  0  0  0  0
 18 35  1  1  0  0  0
 19 13  1  1  0  0  0
 21 18  1  0  0  0  0
 22 28  1  0  0  0  0
 23 24  1  0  0  0  0
 23 22  2  0  0  0  0
 24 27  2  0  0  0  0
 27 25  1  0  0  0  0
 27 26  1  0  0  0  0
 28 26  2  0  0  0  0
 30 32  1  0  0  0  0
 30 29  1  0  0  0  0
 31 29  1  0  0  0  0
 32 29  1  0  0  0  0
 33 34  1  0  0  0  0
 35 37  1  0  0  0  0
 37 36  3  0  0  0  0
M  END
>  <MODEL>
1

>  <REMARK>
 VINA RESULT:       5.1      0.000      0.000
  Name = 
  5 active torsions:
  status: ('A' for Active; 'I' for Inactive)
    1  A    between atoms: C_3  and  C_30
    2  A    between atoms: C_5  and  C_23
    3  A    between atoms: C_6  and  C_7
    4  A    between atoms: C_14  and  C_31
    5  A    between atoms: C_14  and  C_37
                            x       y       z     vdW  Elec       q    Type
                         _______ _______ _______ _____ _____    ______ ____

>  <TORSDO>
F 5

$$$$
=
 OpenBabel11062409083D

 37 44  0  0  1  0  0  0  0  0999 V2000
  160.6610  210.2190  155.6310 C   0  0  0  0  0  0  0  0  0  0  0  0
  159.8080  212.2900  153.5580 C   0  0  1  0  0  0  0  0  0  0  0  0
  161.9950  209.5500  155.6130 C   0  0  1  0  0  3  0  0  0  0  0  0
  158.6130  212.8170  154.3430 C   0  0  1  0  0  0  0  0  0  0  0  0
  161.4160  209.3510  151.2600 C   0  0  0  0  0  2  0  0  0  0  0  0
  159.0500  211.9110  156.4740 C   0  0  0  0  0  2  0  0  0  0  0  0
  162.9770  210.4680  155.1780 O   0  0  0  0  0  0  0  0  0  0  0  0
  159.7880  209.7330  153.2250 C   0  0  1  0  0  3  0  0  0  0  0  0
  161.3640  210.8410  151.0070 C   0  0  0  0  0  2  0  0  0  0  0  0
  162.9920  212.0350  157.1110 C   0  0  1  0  0  3  0  0  0  0  0  0
  159.5720  209.6090  154.7590 C   0  0  0  0  0  2  0  0  0  0  0  0
  159.9240  211.2800  151.1550 C   0  0  0  0  0  2  0  0  0  0  0  0
  162.1850  213.0220  156.3120 C   0  0  0  0  0  2  0  0  0  0  0  0
  158.9680  213.1570  155.7140 N   0  0  0  0  0  2  0  0  0  0  0  0
  159.4570  211.1270  152.6070 C   0  0  2  0  0  3  0  0  0  0  0  0
  160.4350  211.3240  156.3870 C   0  0  0  0  0  0  0  0  0  0  0  0
  161.0630  209.0130  152.7110 C   0  0  1  0  0  3  0  0  0  0  0  0
  159.2460  213.7110  153.2720 C   0  0  1  0  0  0  0  0  0  0  0  0
  161.4590  212.0500  157.2440 C   0  0  1  0  0  3  0  0  0  0  0  0
  163.7020  210.9650  156.2720 C   0  0  0  0  0  2  0  0  0  0  0  0
  160.7040  213.3870  153.0180 C   0  0  0  0  0  2  0  0  0  0  0  0
  156.6760  211.1920  154.6320 C   0  0  0  0  0  3  0  0  0  0  0  0
  157.1730  212.3970  154.1160 C   0  0  0  0  0  0  0  0  0  0  0  0
  156.2870  213.2870  153.4880 C   0  0  0  0  0  3  0  0  0  0  0  0
  154.0960  213.8110  152.7110 F   0  0  0  0  0  0  0  0  0  0  0  0
  154.4610  211.7360  153.8250 C   0  0  0  0  0  3  0  0  0  0  0  0
  154.9390  212.9530  153.3330 C   0  0  0  0  0  0  0  0  0  0  0  0
  155.3290  210.8570  154.4780 C   0  0  0  0  0  3  0  0  0  0  0  0
  160.9030  207.4930  152.8170 C   0  0  0  0  0  0  0  0  0  0  0  0
  160.4160  206.9390  154.1350 C   0  0  0  0  0  2  0  0  0  0  0  0
  160.5820  206.6560  151.5890 C   0  0  0  0  0  1  0  0  0  0  0  0
  161.8840  206.8240  153.7560 C   0  0  0  0  0  2  0  0  0  0  0  0
  161.1470  207.8180  157.2610 C   0  0  0  0  0  1  0  0  0  0  0  0
  162.3020  208.7290  156.8860 C   0  0  0  0  0  2  0  0  0  0  0  0
  158.4760  213.7990  151.9530 C   0  0  0  0  0  2  0  0  0  0  0  0
  160.1440  214.4330  149.9680 C   0  0  0  0  0  3  0  0  0  0  0  0
  159.3920  214.1460  150.8650 C   0  0  0  0  0  0  0  0  0  0  0  0
  1 16  2  0  0  0  0
  2 21  1  1  0  0  0
  2  4  1  0  0  0  0
  3  1  1  0  0  0  0
  3 34  1  1  0  0  0
  4 23  1  6  0  0  0
  4 14  1  0  0  0  0
  7  3  1  0  0  0  0
  7 20  1  0  0  0  0
  8 11  1  1  0  0  0
  9 12  1  0  0  0  0
  9  5  1  0  0  0  0
 10 20  1  6  0  0  0
 10 19  1  0  0  0  0
 11  1  1  0  0  0  0
 13 10  1  0  0  0  0
 14  6  1  0  0  0  0
 15 12  1  6  0  0  0
 15  8  1  0  0  0  0
 15  2  1  0  0  0  0
 16  6  1  0  0  0  0
 16 19  1  0  0  0  0
 17  5  1  6  0  0  0
 17 29  1  0  0  0  0
 17  8  1  0  0  0  0
 18 35  1  6  0  0  0
 18  2  1  0  0  0  0
 18  4  1  0  0  0  0
 19 13  1  6  0  0  0
 21 18  1  0  0  0  0
 23 22  2  0  0  0  0
 24 23  1  0  0  0  0
 25 27  1  0  0  0  0
 26 28  2  0  0  0  0
 27 24  2  0  0  0  0
 27 26  1  0  0  0  0
 28 22  1  0  0  0  0
 29 32  1  0  0  0  0
 29 30  1  0  0  0  0
 31 29  1  0  0  0  0
 32 30  1  0  0  0  0
 34 33  1  0  0  0  0
 36 37  3  0  0  0  0
 37 35  1  0  0  0  0
M  END
>  <MODEL>
2

>  <REMARK>
 VINA RESULT:       5.6      2.483      6.372
  Name = 
  5 active torsions:
  status: ('A' for Active; 'I' for Inactive)
    1  A    between atoms: C_3  and  C_30
    2  A    between atoms: C_5  and  C_23
    3  A    between atoms: C_6  and  C_7
    4  A    between atoms: C_14  and  C_31
    5  A    between atoms: C_14  and  C_37
                            x       y       z     vdW  Elec       q    Type
                         _______ _______ _______ _____ _____    ______ ____

>  <TORSDO>
F 5

$$$$
=
 OpenBabel11062409083D

 37 44  0  0  1  0  0  0  0  0999 V2000
  161.0280  209.7470  155.3330 C   0  0  0  0  0  0  0  0  0  0  0  0
  159.3030  211.9740  154.1580 C   0  0  1  0  0  0  0  0  0  0  0  0
  162.4260  209.4790  154.8850 C   0  0  1  0  0  3  0  0  0  0  0  0
  158.2490  211.9540  155.2580 C   0  0  1  0  0  0  0  0  0  0  0  0
  160.8780  210.2350  150.8420 C   0  0  0  0  0  2  0  0  0  0  0  0
  159.3570  210.6900  156.9090 C   0  0  0  0  0  2  0  0  0  0  0  0
  163.0690  210.7000  154.5860 O   0  0  0  0  0  0  0  0  0  0  0  0
  159.7240  209.6710  153.0790 C   0  0  1  0  0  3  0  0  0  0  0  0
  160.4660  211.6730  151.0620 C   0  0  0  0  0  2  0  0  0  0  0  0
  163.2270  211.6790  156.8680 C   0  0  1  0  0  3  0  0  0  0  0  0
  159.9110  209.1120  154.5170 C   0  0  0  0  0  2  0  0  0  0  0  0
  159.0450  211.6670  151.5800 C   0  0  0  0  0  2  0  0  0  0  0  0
  162.0700  212.5880  156.5540 C   0  0  0  0  0  2  0  0  0  0  0  0
  158.8440  212.0200  156.5850 N   0  0  0  0  0  2  0  0  0  0  0  0
  158.9790  211.0370  152.9760 C   0  0  2  0  0  3  0  0  0  0  0  0
  160.7700  210.5280  156.4140 C   0  0  0  0  0  0  0  0  0  0  0  0
  160.9580  209.4630  152.1610 C   0  0  1  0  0  3  0  0  0  0  0  0
  158.4130  213.2220  154.4140 C   0  0  1  0  0  0  0  0  0  0  0  0
  161.8000  211.2580  157.2600 C   0  0  1  0  0  3  0  0  0  0  0  0
  163.9180  211.0790  155.6360 C   0  0  0  0  0  2  0  0  0  0  0  0
  159.8020  213.3660  153.8280 C   0  0  0  0  0  2  0  0  0  0  0  0
  156.6510  210.3130  154.1490 C   0  0  0  0  0  3  0  0  0  0  0  0
  156.9130  211.2420  155.1650 C   0  0  0  0  0  0  0  0  0  0  0  0
  155.9660  211.4200  156.1870 C   0  0  0  0  0  3  0  0  0  0  0  0
  153.8430  210.9100  157.1440 F   0  0  0  0  0  0  0  0  0  0  0  0
  154.4950  209.8170  155.1280 C   0  0  0  0  0  3  0  0  0  0  0  0
  154.7570  210.7190  156.1620 C   0  0  0  0  0  0  0  0  0  0  0  0
  155.4440  209.6120  154.1230 C   0  0  0  0  0  3  0  0  0  0  0  0
  161.1400  207.9780  151.8300 C   0  0  0  0  0  0  0  0  0  0  0  0
  162.3080  207.6050  150.9470 C   0  0  0  0  0  2  0  0  0  0  0  0
  160.6690  206.9020  152.7940 C   0  0  0  0  0  1  0  0  0  0  0  0
  160.8990  207.6260  150.3770 C   0  0  0  0  0  2  0  0  0  0  0  0
  162.3220  207.9600  156.9140 C   0  0  0  0  0  1  0  0  0  0  0  0
  163.1890  208.4740  155.7800 C   0  0  0  0  0  2  0  0  0  0  0  0
  157.3490  213.4340  153.3350 C   0  0  0  0  0  2  0  0  0  0  0  0
  155.1230  214.4130  154.4360 C   0  0  0  0  0  3  0  0  0  0  0  0
  156.1280  213.9720  153.9400 C   0  0  0  0  0  0  0  0  0  0  0  0
  1 16  2  0  0  0  0
  2 21  1  1  0  0  0
  2 18  1  0  0  0  0
  2  4  1  0  0  0  0
  3  1  1  0  0  0  0
  3 34  1  1  0  0  0
  4 23  1  6  0  0  0
  4 14  1  0  0  0  0
  5  9  1  0  0  0  0
  7  3  1  0  0  0  0
  7 20  1  0  0  0  0
  8 11  1  1  0  0  0
  9 12  1  0  0  0  0
 10 20  1  6  0  0  0
 10 19  1  0  0  0  0
 11  1  1  0  0  0  0
 13 10  1  0  0  0  0
 14  6  1  0  0  0  0
 15 12  1  6  0  0  0
 15  8  1  0  0  0  0
 15  2  1  0  0  0  0
 16  6  1  0  0  0  0
 16 19  1  0  0  0  0
 17  5  1  6  0  0  0
 17  8  1  0  0  0  0
 18 35  1  6  0  0  0
 18  4  1  0  0  0  0
 19 13  1  6  0  0  0
 21 18  1  0  0  0  0
 22 23  1  0  0  0  0
 23 24  2  0  0  0  0
 26 27  2  0  0  0  0
 27 24  1  0  0  0  0
 27 25  1  0  0  0  0
 28 22  2  0  0  0  0
 28 26  1  0  0  0  0
 29 17  1  0  0  0  0
 29 31  1  0  0  0  0
 30 29  1  0  0  0  0
 32 30  1  0  0  0  0
 32 29  1  0  0  0  0
 34 33  1  0  0  0  0
 35 37  1  0  0  0  0
 37 36  3  0  0  0  0
M  END
>  <MODEL>
3

>  <REMARK>
 VINA RESULT:       5.8      2.582      6.140
  Name = 
  5 active torsions:
  status: ('A' for Active; 'I' for Inactive)
    1  A    between atoms: C_3  and  C_30
    2  A    between atoms: C_5  and  C_23
    3  A    between atoms: C_6  and  C_7
    4  A    between atoms: C_14  and  C_31
    5  A    between atoms: C_14  and  C_37
                            x       y       z     vdW  Elec       q    Type
                         _______ _______ _______ _____ _____    ______ ____

>  <TORSDO>
F 5

$$$$
=
 OpenBabel11062409083D

 37 44  0  0  1  0  0  0  0  0999 V2000
  159.6920  212.7790  152.4960 C   0  0  0  0  0  0  0  0  0  0  0  0
  160.4610  210.0790  153.6930 C   0  0  1  0  0  0  0  0  0  0  0  0
  158.8800  212.9150  151.2510 C   0  0  1  0  0  3  0  0  0  0  0  0
  160.8860  210.6230  155.0510 C   0  0  1  0  0  0  0  0  0  0  0  0
  161.3020  209.5680  149.7520 C   0  0  0  0  0  2  0  0  0  0  0  0
  159.9700  212.7920  154.9640 C   0  0  0  0  0  2  0  0  0  0  0  0
  157.9080  211.8910  151.2060 O   0  0  0  0  0  0  0  0  0  0  0  0
  161.6270  211.2260  151.7010 C   0  0  1  0  0  3  0  0  0  0  0  0
  160.8670  208.5450  150.7760 C   0  0  0  0  0  2  0  0  0  0  0  0
  156.4460  212.5980  153.0920 C   0  0  1  0  0  3  0  0  0  0  0  0
  161.1910  212.5830  152.3210 C   0  0  0  0  0  2  0  0  0  0  0  0
  161.7990  208.6580  151.9620 C   0  0  0  0  0  2  0  0  0  0  0  0
  157.0570  211.5310  153.9600 C   0  0  0  0  0  2  0  0  0  0  0  0
  159.8730  211.4950  155.6300 N   0  0  0  0  0  2  0  0  0  0  0  0
  161.6140  210.0050  152.6700 C   0  0  2  0  0  3  0  0  0  0  0  0
  159.1140  212.8200  153.7240 C   0  0  0  0  0  0  0  0  0  0  0  0
  161.0970  210.9970  150.2610 C   0  0  1  0  0  3  0  0  0  0  0  0
  160.4810  209.1500  154.9400 C   0  0  1  0  0  0  0  0  0  0  0  0
  157.6280  212.9490  154.0130 C   0  0  1  0  0  3  0  0  0  0  0  0
  156.6530  212.3890  151.5860 C   0  0  0  0  0  2  0  0  0  0  0  0
  159.5340  208.8840  153.7880 C   0  0  0  0  0  2  0  0  0  0  0  0
  162.6740  211.0530  156.8100 C   0  0  0  0  0  3  0  0  0  0  0  0
  162.3180  210.9070  155.4620 C   0  0  0  0  0  0  0  0  0  0  0  0
  163.3290  210.8980  154.4880 C   0  0  0  0  0  3  0  0  0  0  0  0
  165.6310  211.0910  153.9010 F   0  0  0  0  0  0  0  0  0  0  0  0
  165.0050  211.2590  156.1950 C   0  0  0  0  0  3  0  0  0  0  0  0
  164.6650  211.0850  154.8510 C   0  0  0  0  0  0  0  0  0  0  0  0
  164.0090  211.2390  157.1750 C   0  0  0  0  0  3  0  0  0  0  0  0
  161.7810  211.9520  149.2760 C   0  0  0  0  0  0  0  0  0  0  0  0
  161.3080  213.3870  149.2640 C   0  0  0  0  0  2  0  0  0  0  0  0
  163.2200  211.7260  148.8440 C   0  0  0  0  0  1  0  0  0  0  0  0
  160.8880  212.4370  148.1530 C   0  0  0  0  0  2  0  0  0  0  0  0
  157.6140  214.4480  149.6750 C   0  0  0  0  0  1  0  0  0  0  0  0
  158.4060  214.3590  150.9670 C   0  0  0  0  0  2  0  0  0  0  0  0
  161.6390  208.1510  154.9270 C   0  0  0  0  0  2  0  0  0  0  0  0
  160.8230  205.8280  153.8960 C   0  0  0  0  0  3  0  0  0  0  0  0
  161.1910  206.8760  154.3630 C   0  0  0  0  0  0  0  0  0  0  0  0
  1 16  2  0  0  0  0
  2 21  1  6  0  0  0
  2 18  1  0  0  0  0
  2  4  1  0  0  0  0
  3 34  1  1  0  0  0
  3  1  1  0  0  0  0
  4 23  1  1  0  0  0
  4 14  1  0  0  0  0
  5 17  1  0  0  0  0
  5  9  1  0  0  0  0
  6 14  1  0  0  0  0
  7  3  1  0  0  0  0
  7 20  1  0  0  0  0
  8 11  1  1  0  0  0
  8 15  1  0  0  0  0
  9 12  1  0  0  0  0
 10 20  1  6  0  0  0
 10 13  1  0  0  0  0
 10 19  1  0  0  0  0
 11  1  1  0  0  0  0
 15 12  1  6  0  0  0
 15  2  1  0  0  0  0
 16 19  1  0  0  0  0
 16  6  1  0  0  0  0
 17 29  1  6  0  0  0
 17  8  1  0  0  0  0
 18 35  1  1  0  0  0
 18  4  1  0  0  0  0
 19 13  1  1  0  0  0
 21 18  1  0  0  0  0
 22 28  1  0  0  0  0
 23 22  2  0  0  0  0
 24 27  2  0  0  0  0
 24 23  1  0  0  0  0
 25 27  1  0  0  0  0
 26 28  2  0  0  0  0
 27 26  1  0  0  0  0
 30 29  1  0  0  0  0
 31 29  1  0  0  0  0
 32 30  1  0  0  0  0
 32 29  1  0  0  0  0
 33 34  1  0  0  0  0
 36 37  3  0  0  0  0
 37 35  1  0  0  0  0
M  END
>  <MODEL>
4

>  <REMARK>
 VINA RESULT:       7.4      1.567      2.169
  Name = 
  5 active torsions:
  status: ('A' for Active; 'I' for Inactive)
    1  A    between atoms: C_3  and  C_30
    2  A    between atoms: C_5  and  C_23
    3  A    between atoms: C_6  and  C_7
    4  A    between atoms: C_14  and  C_31
    5  A    between atoms: C_14  and  C_37
                            x       y       z     vdW  Elec       q    Type
                         _______ _______ _______ _____ _____    ______ ____

>  <TORSDO>
F 5

$$$$
