=
 OpenBabel11052421473D

 30 32  0  0  1  0  0  0  0  0999 V2000
  159.0980  212.3230  154.2290 C   0  0  2  0  0  0  0  0  0  0  0  0
  159.5160  211.3740  155.3760 C   0  0  1  0  0  3  0  0  0  0  0  0
  161.7760  209.9830  155.2110 C   0  0  1  0  0  3  0  0  0  0  0  0
  159.0070  211.5900  152.8570 C   0  0  2  0  0  3  0  0  0  0  0  0
  160.0160  213.3740  154.1180 O   0  0  0  0  0  1  0  0  0  0  0  0
  157.6990  212.8860  154.5970 C   0  0  2  0  0  3  0  0  0  0  0  0
  161.8980  209.7000  153.7110 C   0  0  2  0  0  3  0  0  0  0  0  0
  156.8280  213.3440  153.4210 C   0  0  0  0  0  2  0  0  0  0  0  0
  159.0620  209.1300  156.5090 C   0  0  0  0  0  2  0  0  0  0  0  0
  158.7140  210.0550  155.3640 C   0  0  0  0  0  2  0  0  0  0  0  0
  162.3430  208.2600  156.7100 O   0  0  0  0  0  0  0  0  0  0  0  0
  160.1020  208.1410  156.0380 C   0  0  0  0  0  2  0  0  0  0  0  0
  161.0490  211.2810  155.6150 C   0  0  2  0  0  3  0  0  0  0  0  0
  160.3280  210.9950  152.3890 C   0  0  0  0  0  2  0  0  0  0  0  0
  162.8230  210.5750  153.1180 O   0  0  0  0  0  1  0  0  0  0  0  0
  160.5820  209.7190  153.0530 N   0  0  0  0  0  0  0  0  0  0  0  0
  158.4420  212.4600  151.7220 C   0  0  0  0  0  2  0  0  0  0  0  0
  161.4590  208.7670  156.0410 C   0  0  0  0  0  0  0  0  0  0  0  0
  161.3320  211.5980  156.9530 O   0  0  0  0  0  1  0  0  0  0  0  0
  157.6760  213.6900  152.2080 C   0  0  0  0  0  2  0  0  0  0  0  0
  160.5820  208.6760  152.0360 C   0  0  0  0  0  2  0  0  0  0  0  0
  161.5760  207.5860  152.4110 C   0  0  2  0  0  3  0  0  0  0  0  0
  162.3430  207.1760  151.1660 C   0  0  0  0  0  1  0  0  0  0  0  0
  160.8390  206.4100  152.9570 C   0  0  0  0  0  3  0  0  0  0  0  0
  161.4330  205.4810  153.4830 O   0  0  0  0  0  0  0  0  0  0  0  0
  157.7190  213.9140  155.7330 C   0  0  0  0  0  2  0  0  0  0  0  0
  156.0520  212.1750  157.2580 O   0  0  0  0  0  0  0  0  0  0  0  0
  156.3680  214.2260  156.1810 N   0  0  0  0  0  2  0  0  0  0  0  0
  154.1690  213.6240  157.2580 C   0  0  0  0  0  1  0  0  0  0  0  0
  155.5700  213.2820  156.8990 C   0  0  0  0  0  0  0  0  0  0  0  0
  1  5  1  6  0  0  0
  1  6  1  0  0  0  0
  1  2  1  0  0  0  0
  2 10  1  6  0  0  0
  2 13  1  0  0  0  0
  3 13  1  0  0  0  0
  3 18  1  1  0  0  0
  4 17  1  6  0  0  0
  4  1  1  0  0  0  0
  6 26  1  1  0  0  0
  7 15  1  6  0  0  0
  7  3  1  0  0  0  0
  8  6  1  0  0  0  0
 10  9  1  0  0  0  0
 12 18  1  0  0  0  0
 12  9  1  0  0  0  0
 13 19  1  1  0  0  0
 14  4  1  0  0  0  0
 14 16  1  0  0  0  0
 16  7  1  0  0  0  0
 17 20  1  0  0  0  0
 18 11  2  0  0  0  0
 20  8  1  0  0  0  0
 21 22  1  0  0  0  0
 21 16  1  0  0  0  0
 22 23  1  6  0  0  0
 22 24  1  0  0  0  0
 24 25  2  0  0  0  0
 26 28  1  0  0  0  0
 28 30  1  0  0  0  0
 30 27  2  0  0  0  0
 30 29  1  0  0  0  0
M  END
>  <MODEL>
1

>  <REMARK>
 VINA RESULT:      -4.0      0.000      0.000
  Name = 
  5 active torsions:
  status: ('A' for Active; 'I' for Inactive)
    1  A    between atoms: C_7  and  C_10
    2  A    between atoms: C_7  and  C_15
    3  A    between atoms: C_8  and  C_12
    4  A    between atoms: N_9  and  C_12
    5  A    between atoms: C_10  and  N_25
                            x       y       z     vdW  Elec       q    Type
                         _______ _______ _______ _____ _____    ______ ____

>  <TORSDO>
F 5

$$$$
=
 OpenBabel11052421473D

 30 32  0  0  1  0  0  0  0  0999 V2000
  160.4760  209.4650  154.8670 C   0  0  2  0  0  0  0  0  0  0  0  0
  159.8960  210.3960  153.7760 C   0  0  1  0  0  3  0  0  0  0  0  0
  159.6390  213.0020  154.2340 C   0  0  1  0  0  3  0  0  0  0  0  0
  159.6810  209.5510  156.2040 C   0  0  2  0  0  3  0  0  0  0  0  0
  161.8130  209.7950  155.1170 O   0  0  0  0  0  1  0  0  0  0  0  0
  160.3880  208.0160  154.3160 C   0  0  2  0  0  3  0  0  0  0  0  0
  159.3300  213.0600  155.7330 C   0  0  2  0  0  3  0  0  0  0  0  0
  160.3270  206.9010  155.3670 C   0  0  0  0  0  2  0  0  0  0  0  0
  157.7720  211.1320  152.5630 C   0  0  0  0  0  2  0  0  0  0  0  0
  158.3620  210.2740  153.6610 C   0  0  0  0  0  2  0  0  0  0  0  0
  158.4580  214.4530  152.8070 O   0  0  0  0  0  0  0  0  0  0  0  0
  157.3120  212.4410  153.1610 C   0  0  0  0  0  2  0  0  0  0  0  0
  160.5080  211.8240  153.7500 C   0  0  2  0  0  3  0  0  0  0  0  0
  159.6980  210.9330  156.8420 C   0  0  0  0  0  2  0  0  0  0  0  0
  160.4780  213.4190  156.4600 O   0  0  0  0  0  1  0  0  0  0  0  0
  158.7180  211.8080  156.2040 N   0  0  0  0  0  0  0  0  0  0  0  0
  160.1260  208.5270  157.2610 C   0  0  0  0  0  2  0  0  0  0  0  0
  158.4720  213.3640  153.3540 C   0  0  0  0  0  0  0  0  0  0  0  0
  161.0140  212.0910  152.4690 O   0  0  0  0  0  1  0  0  0  0  0  0
  160.9220  207.3550  156.6900 C   0  0  0  0  0  2  0  0  0  0  0  0
  157.7110  212.1550  157.1980 C   0  0  0  0  0  2  0  0  0  0  0  0
  156.3780  212.4210  156.5140 C   0  0  2  0  0  3  0  0  0  0  0  0
  155.6600  213.5330  157.2610 C   0  0  0  0  0  1  0  0  0  0  0  0
  155.5500  211.1810  156.5430 C   0  0  0  0  0  3  0  0  0  0  0  0
  155.4860  210.4420  155.5720 O   0  0  0  0  0  0  0  0  0  0  0  0
  161.3990  207.7080  153.2080 C   0  0  0  0  0  2  0  0  0  0  0  0
  161.9840  206.9100  150.5340 O   0  0  0  0  0  0  0  0  0  0  0  0
  161.1900  206.3710  152.6660 N   0  0  0  0  0  2  0  0  0  0  0  0
  161.1480  204.6990  150.7780 C   0  0  0  0  0  1  0  0  0  0  0  0
  161.4590  206.0580  151.2970 C   0  0  0  0  0  0  0  0  0  0  0  0
  1  5  1  1  0  0  0
  1  4  1  0  0  0  0
  2 10  1  1  0  0  0
  2  1  1  0  0  0  0
  3 18  1  6  0  0  0
  3  7  1  0  0  0  0
  4 14  1  1  0  0  0
  4 17  1  0  0  0  0
  6 26  1  6  0  0  0
  6  1  1  0  0  0  0
  6  8  1  0  0  0  0
  7 16  1  0  0  0  0
  7 15  1  1  0  0  0
  8 20  1  0  0  0  0
  9 12  1  0  0  0  0
  9 10  1  0  0  0  0
 11 18  2  0  0  0  0
 12 18  1  0  0  0  0
 13 19  1  6  0  0  0
 13  2  1  0  0  0  0
 13  3  1  0  0  0  0
 16 14  1  0  0  0  0
 16 21  1  0  0  0  0
 20 17  1  0  0  0  0
 22 24  1  0  0  0  0
 22 21  1  0  0  0  0
 22 23  1  1  0  0  0
 25 24  2  0  0  0  0
 27 30  2  0  0  0  0
 28 26  1  0  0  0  0
 29 30  1  0  0  0  0
 30 28  1  0  0  0  0
M  END
>  <MODEL>
2

>  <REMARK>
 VINA RESULT:      -3.0      1.935      6.978
  Name = 
  5 active torsions:
  status: ('A' for Active; 'I' for Inactive)
    1  A    between atoms: C_7  and  C_10
    2  A    between atoms: C_7  and  C_15
    3  A    between atoms: C_8  and  C_12
    4  A    between atoms: N_9  and  C_12
    5  A    between atoms: C_10  and  N_25
                            x       y       z     vdW  Elec       q    Type
                         _______ _______ _______ _____ _____    ______ ____

>  <TORSDO>
F 5

$$$$
=
 OpenBabel11052421473D

 30 32  0  0  1  0  0  0  0  0999 V2000
  161.1160  208.5000  152.5120 C   0  0  2  0  0  0  0  0  0  0  0  0
  161.1740  208.8520  154.0180 C   0  0  1  0  0  3  0  0  0  0  0  0
  159.3610  210.4750  155.0870 C   0  0  1  0  0  3  0  0  0  0  0  0
  161.1410  209.7660  151.6060 C   0  0  2  0  0  3  0  0  0  0  0  0
  159.9530  207.7710  152.2360 O   0  0  0  0  0  1  0  0  0  0  0  0
  162.3640  207.6300  152.2050 C   0  0  2  0  0  3  0  0  0  0  0  0
  159.0450  211.4420  153.9420 C   0  0  2  0  0  3  0  0  0  0  0  0
  162.8570  207.6520  150.7530 C   0  0  0  0  0  2  0  0  0  0  0  0
  162.3920  210.2100  155.8050 C   0  0  0  0  0  2  0  0  0  0  0  0
  162.2740  209.8880  154.3320 C   0  0  0  0  0  2  0  0  0  0  0  0
  159.5420  211.3600  157.2600 O   0  0  0  0  0  0  0  0  0  0  0  0
  161.5760  211.4470  156.1010 C   0  0  0  0  0  2  0  0  0  0  0  0
  159.7880  209.0470  154.6920 C   0  0  2  0  0  3  0  0  0  0  0  0
  159.9570  210.6990  151.8190 C   0  0  0  0  0  2  0  0  0  0  0  0
  157.8320  211.0940  153.3230 O   0  0  0  0  0  1  0  0  0  0  0  0
  160.1670  211.5380  152.9960 N   0  0  0  0  0  0  0  0  0  0  0  0
  161.2450  209.4550  150.1040 C   0  0  0  0  0  2  0  0  0  0  0  0
  160.1270  211.1010  156.2230 C   0  0  0  0  0  0  0  0  0  0  0  0
  159.6810  208.1880  155.7960 O   0  0  0  0  0  1  0  0  0  0  0  0
  161.7410  208.0430  149.7970 C   0  0  0  0  0  2  0  0  0  0  0  0
  160.2510  212.9230  152.5510 C   0  0  0  0  0  2  0  0  0  0  0  0
  159.5070  213.0900  151.2340 C   0  0  2  0  0  3  0  0  0  0  0  0
  160.4590  213.6750  150.2060 C   0  0  0  0  0  1  0  0  0  0  0  0
  158.3520  214.0130  151.4310 C   0  0  0  0  0  3  0  0  0  0  0  0
  157.2510  213.7540  150.9690 O   0  0  0  0  0  0  0  0  0  0  0  0
  162.2860  206.2060  152.7640 C   0  0  0  0  0  2  0  0  0  0  0  0
  160.4620  204.0150  152.7590 O   0  0  0  0  0  0  0  0  0  0  0  0
  162.1510  205.2290  151.6910 N   0  0  0  0  0  2  0  0  0  0  0  0
  161.2140  203.1110  150.6930 C   0  0  0  0  0  1  0  0  0  0  0  0
  161.2490  204.1240  151.7820 C   0  0  0  0  0  0  0  0  0  0  0  0
  1  5  1  6  0  0  0
  1  2  1  0  0  0  0
  2 10  1  6  0  0  0
  2 13  1  0  0  0  0
  3 18  1  6  0  0  0
  4 17  1  6  0  0  0
  4 14  1  0  0  0  0
  4  1  1  0  0  0  0
  6  1  1  0  0  0  0
  6 26  1  6  0  0  0
  7 15  1  6  0  0  0
  7  3  1  0  0  0  0
  8  6  1  0  0  0  0
  9 12  1  0  0  0  0
 10  9  1  0  0  0  0
 12 18  1  0  0  0  0
 13  3  1  0  0  0  0
 13 19  1  1  0  0  0
 14 16  1  0  0  0  0
 16  7  1  0  0  0  0
 18 11  2  0  0  0  0
 20 17  1  0  0  0  0
 20  8  1  0  0  0  0
 21 16  1  0  0  0  0
 22 23  1  6  0  0  0
 22 24  1  0  0  0  0
 22 21  1  0  0  0  0
 25 24  2  0  0  0  0
 28 30  1  0  0  0  0
 28 26  1  0  0  0  0
 29 30  1  0  0  0  0
 30 27  2  0  0  0  0
M  END
>  <MODEL>
3

>  <REMARK>
 VINA RESULT:      -2.2      2.576      6.711
  Name = 
  5 active torsions:
  status: ('A' for Active; 'I' for Inactive)
    1  A    between atoms: C_7  and  C_10
    2  A    between atoms: C_7  and  C_15
    3  A    between atoms: C_8  and  C_12
    4  A    between atoms: N_9  and  C_12
    5  A    between atoms: C_10  and  N_25
                            x       y       z     vdW  Elec       q    Type
                         _______ _______ _______ _____ _____    ______ ____

>  <TORSDO>
F 5

$$$$
=
 OpenBabel11052421473D

 30 32  0  0  1  0  0  0  0  0999 V2000
  161.7050  206.1940  150.7390 C   0  0  2  0  0  0  0  0  0  0  0  0
  161.2590  204.7140  150.7990 C   0  0  1  0  0  3  0  0  0  0  0  0
  161.9560  203.0230  148.8690 C   0  0  1  0  0  3  0  0  0  0  0  0
  161.2570  206.8960  149.4220 C   0  0  2  0  0  3  0  0  0  0  0  0
  163.0990  206.2790  150.8420 O   0  0  0  0  0  1  0  0  0  0  0  0
  161.0470  206.9120  151.9470 C   0  0  2  0  0  3  0  0  0  0  0  0
  161.9800  203.9130  147.6230 C   0  0  2  0  0  3  0  0  0  0  0  0
  160.8310  208.4230  151.7950 C   0  0  0  0  0  2  0  0  0  0  0  0
  159.2960  203.1050  150.5110 C   0  0  0  0  0  2  0  0  0  0  0  0
  159.7770  204.5360  150.4070 C   0  0  0  0  0  2  0  0  0  0  0  0
  161.0570  200.8580  148.6630 O   0  0  0  0  0  0  0  0  0  0  0  0
  159.4120  202.4520  149.1530 C   0  0  0  0  0  2  0  0  0  0  0  0
  162.2840  203.7040  150.2140 C   0  0  2  0  0  3  0  0  0  0  0  0
  161.8450  206.2750  148.1630 C   0  0  0  0  0  2  0  0  0  0  0  0
  163.3000  204.2610  147.2910 O   0  0  0  0  0  1  0  0  0  0  0  0
  161.0980  205.0790  147.7800 N   0  0  0  0  0  0  0  0  0  0  0  0
  161.5410  208.4060  149.3930 C   0  0  0  0  0  2  0  0  0  0  0  0
  160.8220  202.0320  148.8930 C   0  0  0  0  0  0  0  0  0  0  0  0
  162.5910  202.7360  151.1830 O   0  0  0  0  0  1  0  0  0  0  0  0
  161.7870  209.0170  150.7720 C   0  0  0  0  0  2  0  0  0  0  0  0
  160.4720  205.3360  146.4900 C   0  0  0  0  0  2  0  0  0  0  0  0
  161.1740  204.5350  145.4030 C   0  0  2  0  0  3  0  0  0  0  0  0
  161.5620  205.4760  144.2760 C   0  0  0  0  0  1  0  0  0  0  0  0
  160.2500  203.4850  144.8860 C   0  0  0  0  0  3  0  0  0  0  0  0
  160.4550  202.3000  145.1030 O   0  0  0  0  0  0  0  0  0  0  0  0
  161.6670  206.5530  153.3010 C   0  0  0  0  0  2  0  0  0  0  0  0
  161.5810  208.3900  155.4790 O   0  0  0  0  0  0  0  0  0  0  0  0
  160.6610  206.5580  154.3550 N   0  0  0  0  0  2  0  0  0  0  0  0
  159.7060  207.3850  156.5380 C   0  0  0  0  0  1  0  0  0  0  0  0
  160.7120  207.4790  155.4470 C   0  0  0  0  0  0  0  0  0  0  0  0
  1  2  1  0  0  0  0
  1  5  1  1  0  0  0
  1  6  1  0  0  0  0
  2 10  1  6  0  0  0
  3 18  1  1  0  0  0
  3 13  1  0  0  0  0
  4 14  1  6  0  0  0
  4  1  1  0  0  0  0
  6 26  1  1  0  0  0
  7 15  1  1  0  0  0
  7 16  1  0  0  0  0
  7  3  1  0  0  0  0
  8  6  1  0  0  0  0
 10  9  1  0  0  0  0
 11 18  2  0  0  0  0
 12  9  1  0  0  0  0
 13  2  1  0  0  0  0
 13 19  1  1  0  0  0
 16 14  1  0  0  0  0
 17  4  1  0  0  0  0
 17 20  1  0  0  0  0
 18 12  1  0  0  0  0
 20  8  1  0  0  0  0
 21 16  1  0  0  0  0
 22 23  1  6  0  0  0
 22 21  1  0  0  0  0
 24 25  2  0  0  0  0
 24 22  1  0  0  0  0
 26 28  1  0  0  0  0
 28 30  1  0  0  0  0
 30 27  2  0  0  0  0
 30 29  1  0  0  0  0
M  END
>  <MODEL>
4

>  <REMARK>
 VINA RESULT:      -1.6      4.573      8.166
  Name = 
  5 active torsions:
  status: ('A' for Active; 'I' for Inactive)
    1  A    between atoms: C_7  and  C_10
    2  A    between atoms: C_7  and  C_15
    3  A    between atoms: C_8  and  C_12
    4  A    between atoms: N_9  and  C_12
    5  A    between atoms: C_10  and  N_25
                            x       y       z     vdW  Elec       q    Type
                         _______ _______ _______ _____ _____    ______ ____

>  <TORSDO>
F 5

$$$$
=
 OpenBabel11052421473D

 30 32  0  0  1  0  0  0  0  0999 V2000
  159.7250  211.4280  152.8920 C   0  0  2  0  0  0  0  0  0  0  0  0
  160.7740  210.6190  153.6900 C   0  0  1  0  0  3  0  0  0  0  0  0
  160.0000  208.8980  155.5630 C   0  0  1  0  0  3  0  0  0  0  0  0
  158.7840  212.2550  153.8180 C   0  0  2  0  0  3  0  0  0  0  0  0
  158.9460  210.5650  152.1120 O   0  0  0  0  0  1  0  0  0  0  0  0
  160.5110  212.3990  151.9700 C   0  0  2  0  0  3  0  0  0  0  0  0
  158.7350  209.5510  156.1290 C   0  0  2  0  0  3  0  0  0  0  0  0
  159.7680  213.6710  151.5450 C   0  0  0  0  0  2  0  0  0  0  0  0
  162.5390  210.7220  155.5330 C   0  0  0  0  0  2  0  0  0  0  0  0
  161.4680  211.4720  154.7730 C   0  0  0  0  0  2  0  0  0  0  0  0
  161.4880  207.8790  157.0740 O   0  0  0  0  0  0  0  0  0  0  0  0
  161.9360  210.1620  156.8010 C   0  0  0  0  0  2  0  0  0  0  0  0
  160.3250  209.1840  154.0830 C   0  0  2  0  0  3  0  0  0  0  0  0
  157.9550  211.4030  154.7700 C   0  0  0  0  0  2  0  0  0  0  0  0
  157.5860  208.9350  155.6070 O   0  0  0  0  0  1  0  0  0  0  0  0
  158.7490  211.0080  155.9310 N   0  0  0  0  0  0  0  0  0  0  0  0
  157.8320  213.1940  153.0590 C   0  0  0  0  0  2  0  0  0  0  0  0
  161.1720  208.9110  156.5080 C   0  0  0  0  0  0  0  0  0  0  0  0
  161.2610  208.2550  153.6050 O   0  0  0  0  0  1  0  0  0  0  0  0
  158.2610  213.4820  151.6220 C   0  0  0  0  0  2  0  0  0  0  0  0
  158.1530  211.6200  157.1110 C   0  0  0  0  0  2  0  0  0  0  0  0
  157.0220  212.5500  156.6970 C   0  0  2  0  0  3  0  0  0  0  0  0
  157.3090  213.9400  157.2400 C   0  0  0  0  0  1  0  0  0  0  0  0
  155.7350  212.0470  157.2610 C   0  0  0  0  0  3  0  0  0  0  0  0
  155.1630  211.0870  156.7670 O   0  0  0  0  0  0  0  0  0  0  0  0
  161.2030  211.7140  150.7880 C   0  0  0  0  0  2  0  0  0  0  0  0
  162.3510  211.0540  148.2620 O   0  0  0  0  0  0  0  0  0  0  0  0
  161.0630  212.5020  149.5700 N   0  0  0  0  0  2  0  0  0  0  0  0
  161.6010  213.0220  147.1620 C   0  0  0  0  0  1  0  0  0  0  0  0
  161.7120  212.1360  148.3500 C   0  0  0  0  0  0  0  0  0  0  0  0
  1  5  1  6  0  0  0
  1  2  1  0  0  0  0
  1  4  1  0  0  0  0
  2 13  1  0  0  0  0
  2 10  1  1  0  0  0
  3  7  1  0  0  0  0
  3 18  1  1  0  0  0
  4 17  1  6  0  0  0
  4 14  1  0  0  0  0
  6 26  1  6  0  0  0
  6  1  1  0  0  0  0
  7 15  1  6  0  0  0
  8 20  1  0  0  0  0
  8  6  1  0  0  0  0
  9 12  1  0  0  0  0
 10  9  1  0  0  0  0
 13 19  1  1  0  0  0
 13  3  1  0  0  0  0
 14 16  1  0  0  0  0
 16  7  1  0  0  0  0
 16 21  1  0  0  0  0
 18 12  1  0  0  0  0
 18 11  2  0  0  0  0
 20 17  1  0  0  0  0
 22 21  1  0  0  0  0
 22 23  1  1  0  0  0
 22 24  1  0  0  0  0
 25 24  2  0  0  0  0
 27 30  2  0  0  0  0
 28 26  1  0  0  0  0
 29 30  1  0  0  0  0
 30 28  1  0  0  0  0
M  END
>  <MODEL>
5

>  <REMARK>
 VINA RESULT:      -1.6      2.481      5.974
  Name = 
  5 active torsions:
  status: ('A' for Active; 'I' for Inactive)
    1  A    between atoms: C_7  and  C_10
    2  A    between atoms: C_7  and  C_15
    3  A    between atoms: C_8  and  C_12
    4  A    between atoms: N_9  and  C_12
    5  A    between atoms: C_10  and  N_25
                            x       y       z     vdW  Elec       q    Type
                         _______ _______ _______ _____ _____    ______ ____

>  <TORSDO>
F 5

$$$$
