=
 OpenBabel11052422123D

 25 27  0  0  1  0  0  0  0  0999 V2000
  161.4570  205.8960  147.9910 C   0  0  0  0  0  0  0  0  0  0  0  0
  161.2400  204.9410  149.0080 C   0  0  0  0  0  0  0  0  0  0  0  0
  161.5750  207.6440  149.6790 C   0  0  0  0  0  3  0  0  0  0  0  0
  161.3820  206.6990  150.6870 C   0  0  0  0  0  3  0  0  0  0  0  0
  160.9950  204.3890  151.3610 C   0  0  0  0  0  0  0  0  0  0  0  0
  160.9730  204.7480  152.7050 O   0  0  0  0  0  1  0  0  0  0  0  0
  161.0280  203.6300  148.7010 N   0  0  0  0  0  0  0  0  0  0  0  0
  161.6080  207.2450  148.3420 C   0  0  0  0  0  3  0  0  0  0  0  0
  160.7980  203.0550  151.0070 C   0  0  0  0  0  3  0  0  0  0  0  0
  160.8090  202.6910  149.6590 C   0  0  0  0  0  0  0  0  0  0  0  0
  161.2110  205.3490  150.3630 C   0  0  0  0  0  0  0  0  0  0  0  0
  161.5080  205.5300  146.5580 C   0  0  0  0  0  0  0  0  0  0  0  0
  162.1430  204.8970  144.4680 C   0  0  0  0  0  3  0  0  0  0  0  0
  160.5240  205.8500  145.5430 C   0  0  0  0  0  0  0  0  0  0  0  0
  160.9750  205.4220  144.2670 N   0  0  0  0  0  0  0  0  0  0  0  0
  163.8360  204.5720  146.4380 C   0  0  0  0  0  1  0  0  0  0  0  0
  159.4180  206.4190  145.7400 O   0  0  0  0  0  0  0  0  0  0  0  0
  162.5040  204.9560  145.8910 C   0  0  0  0  0  0  0  0  0  0  0  0
  160.6180  201.2660  149.2740 C   0  0  0  0  0  2  0  0  0  0  0  0
  161.5810  200.9010  148.3160 O   0  0  0  0  0  0  0  0  0  0  0  0
  160.9340  200.5780  147.1010 C   0  0  2  0  0  3  0  0  0  0  0  0
  161.5210  199.3450  146.4230 C   0  0  0  0  0  1  0  0  0  0  0  0
  160.8180  201.7570  146.1360 C   0  0  0  0  0  2  0  0  0  0  0  0
  159.9910  201.3660  144.9280 C   0  0  0  0  0  2  0  0  0  0  0  0
  159.3100  202.4840  144.4500 O   0  0  0  0  0  1  0  0  0  0  0  0
  1  8  2  0  0  0  0
  1  2  1  0  0  0  0
  2 11  1  0  0  0  0
  3  4  2  0  0  0  0
  5  6  1  0  0  0  0
  7  2  2  0  0  0  0
  7 10  1  0  0  0  0
  8  3  1  0  0  0  0
  9  5  1  0  0  0  0
 10  9  2  0  0  0  0
 11  4  1  0  0  0  0
 11  5  2  0  0  0  0
 12  1  1  0  0  0  0
 13 18  1  0  0  0  0
 14 17  2  0  0  0  0
 14 12  1  0  0  0  0
 15 13  2  0  0  0  0
 15 14  1  0  0  0  0
 18 16  1  0  0  0  0
 18 12  2  0  0  0  0
 19 10  1  0  0  0  0
 20 19  1  0  0  0  0
 21 22  1  6  0  0  0
 21 20  1  0  0  0  0
 23 21  1  0  0  0  0
 24 23  1  0  0  0  0
 25 24  1  0  0  0  0
M  END
>  <MODEL>
1

>  <REMARK>
 VINA RESULT:      -7.7      0.000      0.000
  Name = 
  6 active torsions:
  status: ('A' for Active; 'I' for Inactive)
    1  A    between atoms: C_1  and  C_5
    2  A    between atoms: C_2  and  C_12
    3  A    between atoms: C_6  and  O_15
    4  A    between atoms: C_6  and  C_23
    5  A    between atoms: C_12  and  C_21
    6  A    between atoms: O_15  and  C_21
                            x       y       z     vdW  Elec       q    Type
                         _______ _______ _______ _____ _____    ______ ____

>  <TORSDO>
F 6

$$$$
=
 OpenBabel11052422123D

 25 27  0  0  1  0  0  0  0  0999 V2000
  161.2470  203.1340  147.2170 C   0  0  0  0  0  0  0  0  0  0  0  0
  161.1410  203.6620  148.5220 C   0  0  0  0  0  0  0  0  0  0  0  0
  161.0470  200.8860  148.1270 C   0  0  0  0  0  3  0  0  0  0  0  0
  160.9210  201.4070  149.4160 C   0  0  0  0  0  3  0  0  0  0  0  0
  160.8650  203.3290  150.9130 C   0  0  0  0  0  0  0  0  0  0  0  0
  160.6830  202.5060  152.0190 O   0  0  0  0  0  1  0  0  0  0  0  0
  161.2320  205.0040  148.7420 N   0  0  0  0  0  0  0  0  0  0  0  0
  161.2130  201.7440  147.0380 C   0  0  0  0  0  3  0  0  0  0  0  0
  160.9470  204.7100  151.0940 C   0  0  0  0  0  3  0  0  0  0  0  0
  161.1410  205.5390  149.9880 C   0  0  0  0  0  0  0  0  0  0  0  0
  160.9700  202.7900  149.6230 C   0  0  0  0  0  0  0  0  0  0  0  0
  161.4170  203.9940  146.0250 C   0  0  0  0  0  0  0  0  0  0  0  0
  161.2710  204.9760  143.9790 C   0  0  0  0  0  3  0  0  0  0  0  0
  162.5550  204.8380  145.7160 C   0  0  0  0  0  0  0  0  0  0  0  0
  162.3980  205.4260  144.4340 N   0  0  0  0  0  0  0  0  0  0  0  0
  159.4090  203.2760  144.6830 C   0  0  0  0  0  1  0  0  0  0  0  0
  163.5480  205.0410  146.4630 O   0  0  0  0  0  0  0  0  0  0  0  0
  160.6380  204.0740  144.9510 C   0  0  0  0  0  0  0  0  0  0  0  0
  161.2090  207.0150  150.1700 C   0  0  0  0  0  2  0  0  0  0  0  0
  161.7700  207.3120  151.4260 O   0  0  0  0  0  0  0  0  0  0  0  0
  161.2700  208.5550  151.8780 C   0  0  2  0  0  3  0  0  0  0  0  0
  162.1910  209.7230  151.5450 C   0  0  0  0  0  1  0  0  0  0  0  0
  160.8650  208.5520  153.3510 C   0  0  0  0  0  2  0  0  0  0  0  0
  161.0660  207.1730  153.9470 C   0  0  0  0  0  2  0  0  0  0  0  0
  160.2960  207.0500  155.1030 O   0  0  0  0  0  1  0  0  0  0  0  0
  1  2  1  0  0  0  0
  2  7  2  0  0  0  0
  2 11  1  0  0  0  0
  3  4  2  0  0  0  0
  4 11  1  0  0  0  0
  5  9  1  0  0  0  0
  5  6  1  0  0  0  0
  7 10  1  0  0  0  0
  8  1  2  0  0  0  0
  8  3  1  0  0  0  0
 10 19  1  0  0  0  0
 10  9  2  0  0  0  0
 11  5  2  0  0  0  0
 12  1  1  0  0  0  0
 13 15  2  0  0  0  0
 13 18  1  0  0  0  0
 14 12  1  0  0  0  0
 14 17  2  0  0  0  0
 15 14  1  0  0  0  0
 16 18  1  0  0  0  0
 18 12  2  0  0  0  0
 19 20  1  0  0  0  0
 20 21  1  0  0  0  0
 21 22  1  1  0  0  0
 21 23  1  0  0  0  0
 23 24  1  0  0  0  0
 24 25  1  0  0  0  0
M  END
>  <MODEL>
2

>  <REMARK>
 VINA RESULT:      -7.6      2.062      5.876
  Name = 
  6 active torsions:
  status: ('A' for Active; 'I' for Inactive)
    1  A    between atoms: C_1  and  C_5
    2  A    between atoms: C_2  and  C_12
    3  A    between atoms: C_6  and  O_15
    4  A    between atoms: C_6  and  C_23
    5  A    between atoms: C_12  and  C_21
    6  A    between atoms: O_15  and  C_21
                            x       y       z     vdW  Elec       q    Type
                         _______ _______ _______ _____ _____    ______ ____

>  <TORSDO>
F 6

$$$$
=
 OpenBabel11052422123D

 25 27  0  0  1  0  0  0  0  0999 V2000
  161.8500  206.4040  147.9100 C   0  0  0  0  0  0  0  0  0  0  0  0
  161.5290  205.7110  149.0980 C   0  0  0  0  0  0  0  0  0  0  0  0
  161.9950  208.4770  149.1780 C   0  0  0  0  0  3  0  0  0  0  0  0
  161.6990  207.7900  150.3560 C   0  0  0  0  0  3  0  0  0  0  0  0
  161.1440  205.7090  151.4970 C   0  0  0  0  0  0  0  0  0  0  0  0
  161.0820  206.3590  152.7250 O   0  0  0  0  0  1  0  0  0  0  0  0
  161.2530  204.3770  149.0750 N   0  0  0  0  0  0  0  0  0  0  0  0
  162.0650  207.7890  147.9650 C   0  0  0  0  0  3  0  0  0  0  0  0
  160.8840  204.3410  151.4330 C   0  0  0  0  0  3  0  0  0  0  0  0
  160.9340  203.6860  150.2010 C   0  0  0  0  0  0  0  0  0  0  0  0
  161.4630  206.4120  150.3260 C   0  0  0  0  0  0  0  0  0  0  0  0
  161.9440  205.7280  146.5980 C   0  0  0  0  0  0  0  0  0  0  0  0
  161.5270  204.7860  144.5710 C   0  0  0  0  0  3  0  0  0  0  0  0
  163.0180  204.8680  146.1380 C   0  0  0  0  0  0  0  0  0  0  0  0
  162.7000  204.3210  144.8680 N   0  0  0  0  0  0  0  0  0  0  0  0
  159.6560  206.2450  145.6780 C   0  0  0  0  0  1  0  0  0  0  0  0
  164.0890  204.6300  146.7550 O   0  0  0  0  0  0  0  0  0  0  0  0
  161.0280  205.6640  145.6370 C   0  0  0  0  0  0  0  0  0  0  0  0
  160.6760  202.2220  150.1280 C   0  0  0  0  0  2  0  0  0  0  0  0
  159.7830  201.9500  149.0760 O   0  0  0  0  0  0  0  0  0  0  0  0
  160.4450  201.1880  148.0850 C   0  0  2  0  0  3  0  0  0  0  0  0
  161.6560  200.4340  148.6250 C   0  0  0  0  0  1  0  0  0  0  0  0
  160.7850  201.9820  146.8260 C   0  0  0  0  0  2  0  0  0  0  0  0
  160.5460  201.1350  145.5920 C   0  0  0  0  0  2  0  0  0  0  0  0
  159.6430  201.7830  144.7510 O   0  0  0  0  0  1  0  0  0  0  0  0
  1  8  2  0  0  0  0
  1  2  1  0  0  0  0
  2 11  1  0  0  0  0
  3  4  2  0  0  0  0
  5  6  1  0  0  0  0
  7  2  2  0  0  0  0
  7 10  1  0  0  0  0
  8  3  1  0  0  0  0
  9  5  1  0  0  0  0
 10  9  2  0  0  0  0
 11  4  1  0  0  0  0
 11  5  2  0  0  0  0
 12  1  1  0  0  0  0
 13 15  2  0  0  0  0
 13 18  1  0  0  0  0
 14 12  1  0  0  0  0
 14 17  2  0  0  0  0
 15 14  1  0  0  0  0
 18 16  1  0  0  0  0
 18 12  2  0  0  0  0
 19 10  1  0  0  0  0
 20 19  1  0  0  0  0
 21 22  1  1  0  0  0
 21 20  1  0  0  0  0
 23 21  1  0  0  0  0
 24 23  1  0  0  0  0
 25 24  1  0  0  0  0
M  END
>  <MODEL>
3

>  <REMARK>
 VINA RESULT:      -7.6      1.450      1.922
  Name = 
  6 active torsions:
  status: ('A' for Active; 'I' for Inactive)
    1  A    between atoms: C_1  and  C_5
    2  A    between atoms: C_2  and  C_12
    3  A    between atoms: C_6  and  O_15
    4  A    between atoms: C_6  and  C_23
    5  A    between atoms: C_12  and  C_21
    6  A    between atoms: O_15  and  C_21
                            x       y       z     vdW  Elec       q    Type
                         _______ _______ _______ _____ _____    ______ ____

>  <TORSDO>
F 6

$$$$
=
 OpenBabel11052422123D

 25 27  0  0  1  0  0  0  0  0999 V2000
  161.2860  202.9960  147.0350 C   0  0  0  0  0  0  0  0  0  0  0  0
  161.1410  203.3850  148.3840 C   0  0  0  0  0  0  0  0  0  0  0  0
  161.1410  200.6620  147.7080 C   0  0  0  0  0  3  0  0  0  0  0  0
  160.9770  201.0440  149.0400 C   0  0  0  0  0  3  0  0  0  0  0  0
  160.8340  202.8020  150.7230 C   0  0  0  0  0  0  0  0  0  0  0  0
  160.6580  201.8650  151.7360 O   0  0  0  0  0  1  0  0  0  0  0  0
  161.1850  204.7000  148.7400 N   0  0  0  0  0  0  0  0  0  0  0  0
  161.2990  201.6310  146.7150 C   0  0  0  0  0  3  0  0  0  0  0  0
  160.8690  204.1590  151.0440 C   0  0  0  0  0  3  0  0  0  0  0  0
  161.0560  205.1020  150.0320 C   0  0  0  0  0  0  0  0  0  0  0  0
  160.9780  202.4000  149.3870 C   0  0  0  0  0  0  0  0  0  0  0  0
  161.4500  203.9770  145.9400 C   0  0  0  0  0  0  0  0  0  0  0  0
  161.2800  205.1820  144.0180 C   0  0  0  0  0  3  0  0  0  0  0  0
  162.6020  204.8240  145.6950 C   0  0  0  0  0  0  0  0  0  0  0  0
  162.4290  205.5530  144.4900 N   0  0  0  0  0  0  0  0  0  0  0  0
  159.3920  203.4570  144.5810 C   0  0  0  0  0  1  0  0  0  0  0  0
  163.6170  204.9200  146.4330 O   0  0  0  0  0  0  0  0  0  0  0  0
  160.6480  204.1930  144.9020 C   0  0  0  0  0  0  0  0  0  0  0  0
  161.0750  206.5520  150.3650 C   0  0  0  0  0  2  0  0  0  0  0  0
  162.1850  206.8380  151.1790 O   0  0  0  0  0  0  0  0  0  0  0  0
  161.7710  207.6290  152.2750 C   0  0  2  0  0  3  0  0  0  0  0  0
  161.0440  206.8250  153.3480 C   0  0  0  0  0  1  0  0  0  0  0  0
  160.9860  208.8750  151.8700 C   0  0  0  0  0  2  0  0  0  0  0  0
  161.9380  209.9860  151.4710 C   0  0  0  0  0  2  0  0  0  0  0  0
  162.1070  209.9790  150.0880 O   0  0  0  0  0  1  0  0  0  0  0  0
  1  2  1  0  0  0  0
  2  7  2  0  0  0  0
  2 11  1  0  0  0  0
  3  4  2  0  0  0  0
  4 11  1  0  0  0  0
  5  9  1  0  0  0  0
  5  6  1  0  0  0  0
  7 10  1  0  0  0  0
  8  1  2  0  0  0  0
  8  3  1  0  0  0  0
 10 19  1  0  0  0  0
 10  9  2  0  0  0  0
 11  5  2  0  0  0  0
 12  1  1  0  0  0  0
 13 15  2  0  0  0  0
 13 18  1  0  0  0  0
 14 12  1  0  0  0  0
 14 17  2  0  0  0  0
 15 14  1  0  0  0  0
 16 18  1  0  0  0  0
 18 12  2  0  0  0  0
 19 20  1  0  0  0  0
 20 21  1  0  0  0  0
 21 22  1  1  0  0  0
 23 21  1  0  0  0  0
 24 23  1  0  0  0  0
 25 24  1  0  0  0  0
M  END
>  <MODEL>
4

>  <REMARK>
 VINA RESULT:      -7.5      2.195      5.587
  Name = 
  6 active torsions:
  status: ('A' for Active; 'I' for Inactive)
    1  A    between atoms: C_1  and  C_5
    2  A    between atoms: C_2  and  C_12
    3  A    between atoms: C_6  and  O_15
    4  A    between atoms: C_6  and  C_23
    5  A    between atoms: C_12  and  C_21
    6  A    between atoms: O_15  and  C_21
                            x       y       z     vdW  Elec       q    Type
                         _______ _______ _______ _____ _____    ______ ____

>  <TORSDO>
F 6

$$$$
=
 OpenBabel11052422123D

 25 27  0  0  1  0  0  0  0  0999 V2000
  161.2140  202.9880  147.0920 C   0  0  0  0  0  0  0  0  0  0  0  0
  161.0900  203.5510  148.3810 C   0  0  0  0  0  0  0  0  0  0  0  0
  161.0990  200.7630  148.0690 C   0  0  0  0  0  3  0  0  0  0  0  0
  160.9550  201.3170  149.3420 C   0  0  0  0  0  3  0  0  0  0  0  0
  160.8270  203.2800  150.7810 C   0  0  0  0  0  0  0  0  0  0  0  0
  160.6760  202.4840  151.9120 O   0  0  0  0  0  1  0  0  0  0  0  0
  161.1290  204.9020  148.5600 N   0  0  0  0  0  0  0  0  0  0  0  0
  161.2320  201.5930  146.9550 C   0  0  0  0  0  3  0  0  0  0  0  0
  160.8570  204.6670  150.9200 C   0  0  0  0  0  3  0  0  0  0  0  0
  161.0190  205.4700  149.7900 C   0  0  0  0  0  0  0  0  0  0  0  0
  160.9510  202.7060  149.5080 C   0  0  0  0  0  0  0  0  0  0  0  0
  161.3510  203.8180  145.8750 C   0  0  0  0  0  0  0  0  0  0  0  0
  161.9570  205.3620  144.3180 C   0  0  0  0  0  3  0  0  0  0  0  0
  160.3900  203.9460  144.7960 C   0  0  0  0  0  0  0  0  0  0  0  0
  160.8310  204.9150  143.8570 N   0  0  0  0  0  0  0  0  0  0  0  0
  163.4580  205.0790  146.4440 C   0  0  0  0  0  1  0  0  0  0  0  0
  159.3160  203.2990  144.6830 O   0  0  0  0  0  0  0  0  0  0  0  0
  162.3040  204.6970  145.5810 C   0  0  0  0  0  0  0  0  0  0  0  0
  161.0320  206.9510  149.9280 C   0  0  0  0  0  2  0  0  0  0  0  0
  161.7400  207.3130  151.0890 O   0  0  0  0  0  0  0  0  0  0  0  0
  161.2120  208.5210  151.6010 C   0  0  2  0  0  3  0  0  0  0  0  0
  161.9560  209.7540  151.1030 C   0  0  0  0  0  1  0  0  0  0  0  0
  161.0570  208.5250  153.1210 C   0  0  0  0  0  2  0  0  0  0  0  0
  161.2080  207.1190  153.6670 C   0  0  0  0  0  2  0  0  0  0  0  0
  160.3630  206.9530  154.7620 O   0  0  0  0  0  1  0  0  0  0  0  0
  1  2  1  0  0  0  0
  2  7  2  0  0  0  0
  2 11  1  0  0  0  0
  3  4  2  0  0  0  0
  4 11  1  0  0  0  0
  5  9  1  0  0  0  0
  5  6  1  0  0  0  0
  7 10  1  0  0  0  0
  8  1  2  0  0  0  0
  8  3  1  0  0  0  0
 10 19  1  0  0  0  0
 10  9  2  0  0  0  0
 11  5  2  0  0  0  0
 12  1  1  0  0  0  0
 13 18  1  0  0  0  0
 14 12  1  0  0  0  0
 15 13  2  0  0  0  0
 15 14  1  0  0  0  0
 17 14  2  0  0  0  0
 18 12  2  0  0  0  0
 18 16  1  0  0  0  0
 19 20  1  0  0  0  0
 20 21  1  0  0  0  0
 21 22  1  1  0  0  0
 21 23  1  0  0  0  0
 23 24  1  0  0  0  0
 24 25  1  0  0  0  0
M  END
>  <MODEL>
5

>  <REMARK>
 VINA RESULT:      -7.4      1.712      5.666
  Name = 
  6 active torsions:
  status: ('A' for Active; 'I' for Inactive)
    1  A    between atoms: C_1  and  C_5
    2  A    between atoms: C_2  and  C_12
    3  A    between atoms: C_6  and  O_15
    4  A    between atoms: C_6  and  C_23
    5  A    between atoms: C_12  and  C_21
    6  A    between atoms: O_15  and  C_21
                            x       y       z     vdW  Elec       q    Type
                         _______ _______ _______ _____ _____    ______ ____

>  <TORSDO>
F 6

$$$$
=
 OpenBabel11052422123D

 25 27  0  0  1  0  0  0  0  0999 V2000
  161.3260  205.1060  147.9720 C   0  0  0  0  0  0  0  0  0  0  0  0
  161.4060  206.2120  148.8460 C   0  0  0  0  0  0  0  0  0  0  0  0
  160.8710  203.6570  149.8740 C   0  0  0  0  0  3  0  0  0  0  0  0
  160.9280  204.7530  150.7360 C   0  0  0  0  0  3  0  0  0  0  0  0
  161.2770  207.1390  151.0880 C   0  0  0  0  0  0  0  0  0  0  0  0
  161.0650  207.0040  152.4560 O   0  0  0  0  0  1  0  0  0  0  0  0
  161.7110  207.4540  148.3740 N   0  0  0  0  0  0  0  0  0  0  0  0
  161.0730  203.8340  148.5040 C   0  0  0  0  0  3  0  0  0  0  0  0
  161.5760  208.3960  150.5630 C   0  0  0  0  0  3  0  0  0  0  0  0
  161.8000  208.5350  149.1930 C   0  0  0  0  0  0  0  0  0  0  0  0
  161.1960  206.0300  150.2340 C   0  0  0  0  0  0  0  0  0  0  0  0
  161.5250  205.2330  146.5120 C   0  0  0  0  0  0  0  0  0  0  0  0
  162.3770  205.3380  144.4060 C   0  0  0  0  0  3  0  0  0  0  0  0
  160.6170  205.8440  145.5600 C   0  0  0  0  0  0  0  0  0  0  0  0
  161.2040  205.8710  144.2680 N   0  0  0  0  0  0  0  0  0  0  0  0
  163.9050  204.4260  146.3260 C   0  0  0  0  0  1  0  0  0  0  0  0
  159.4680  206.2890  145.8160 O   0  0  0  0  0  0  0  0  0  0  0  0
  162.6070  204.9350  145.8000 C   0  0  0  0  0  0  0  0  0  0  0  0
  162.1010  209.8770  148.6230 C   0  0  0  0  0  2  0  0  0  0  0  0
  162.0130  210.8520  149.6330 O   0  0  0  0  0  0  0  0  0  0  0  0
  162.1080  212.1370  149.0510 C   0  0  2  0  0  3  0  0  0  0  0  0
  160.7980  212.9150  149.1120 C   0  0  0  0  0  1  0  0  0  0  0  0
  162.7010  212.1310  147.6440 C   0  0  0  0  0  2  0  0  0  0  0  0
  162.0830  213.2360  146.8100 C   0  0  0  0  0  2  0  0  0  0  0  0
  162.3760  213.0220  145.4650 O   0  0  0  0  0  1  0  0  0  0  0  0
  1  8  2  0  0  0  0
  1  2  1  0  0  0  0
  2 11  1  0  0  0  0
  3  4  2  0  0  0  0
  5  6  1  0  0  0  0
  7  2  2  0  0  0  0
  7 10  1  0  0  0  0
  8  3  1  0  0  0  0
  9  5  1  0  0  0  0
 10  9  2  0  0  0  0
 11  4  1  0  0  0  0
 11  5  2  0  0  0  0
 12  1  1  0  0  0  0
 13 18  1  0  0  0  0
 14 17  2  0  0  0  0
 14 12  1  0  0  0  0
 15 13  2  0  0  0  0
 15 14  1  0  0  0  0
 18 16  1  0  0  0  0
 18 12  2  0  0  0  0
 19 10  1  0  0  0  0
 19 20  1  0  0  0  0
 21 22  1  6  0  0  0
 21 20  1  0  0  0  0
 23 21  1  0  0  0  0
 24 23  1  0  0  0  0
 25 24  1  0  0  0  0
M  END
>  <MODEL>
6

>  <REMARK>
 VINA RESULT:      -7.3      3.116      6.390
  Name = 
  6 active torsions:
  status: ('A' for Active; 'I' for Inactive)
    1  A    between atoms: C_1  and  C_5
    2  A    between atoms: C_2  and  C_12
    3  A    between atoms: C_6  and  O_15
    4  A    between atoms: C_6  and  C_23
    5  A    between atoms: C_12  and  C_21
    6  A    between atoms: O_15  and  C_21
                            x       y       z     vdW  Elec       q    Type
                         _______ _______ _______ _____ _____    ______ ____

>  <TORSDO>
F 6

$$$$
=
 OpenBabel11052422123D

 25 27  0  0  1  0  0  0  0  0999 V2000
  161.2250  203.2180  147.6650 C   0  0  0  0  0  0  0  0  0  0  0  0
  161.0950  203.8400  148.9260 C   0  0  0  0  0  0  0  0  0  0  0  0
  161.1110  201.0400  148.7440 C   0  0  0  0  0  3  0  0  0  0  0  0
  160.9620  201.6520  149.9890 C   0  0  0  0  0  3  0  0  0  0  0  0
  160.8260  203.6800  151.3360 C   0  0  0  0  0  0  0  0  0  0  0  0
  160.6730  202.9370  152.5010 O   0  0  0  0  0  1  0  0  0  0  0  0
  161.1320  205.1980  149.0430 N   0  0  0  0  0  0  0  0  0  0  0  0
  161.2460  201.8180  147.5930 C   0  0  0  0  0  3  0  0  0  0  0  0
  160.8530  205.0720  151.4100 C   0  0  0  0  0  3  0  0  0  0  0  0
  161.0160  205.8220  150.2440 C   0  0  0  0  0  0  0  0  0  0  0  0
  160.9550  203.0480  150.0910 C   0  0  0  0  0  0  0  0  0  0  0  0
  161.3640  203.9910  146.4110 C   0  0  0  0  0  0  0  0  0  0  0  0
  161.3220  204.7200  144.2570 C   0  0  0  0  0  3  0  0  0  0  0  0
  162.2670  205.0990  146.1670 C   0  0  0  0  0  0  0  0  0  0  0  0
  162.1860  205.5110  144.8120 N   0  0  0  0  0  0  0  0  0  0  0  0
  159.8950  202.6190  144.8920 C   0  0  0  0  0  1  0  0  0  0  0  0
  163.0200  205.6390  147.0190 O   0  0  0  0  0  0  0  0  0  0  0  0
  160.7950  203.7560  145.2330 C   0  0  0  0  0  0  0  0  0  0  0  0
  161.0260  207.3080  150.3140 C   0  0  0  0  0  2  0  0  0  0  0  0
  161.7340  207.8300  149.2150 O   0  0  0  0  0  0  0  0  0  0  0  0
  162.2020  209.1260  149.5330 C   0  0  2  0  0  3  0  0  0  0  0  0
  161.8680  209.5460  150.9600 C   0  0  0  0  0  1  0  0  0  0  0  0
  161.7960  210.1910  148.5160 C   0  0  0  0  0  2  0  0  0  0  0  0
  162.3140  211.5490  148.9450 C   0  0  0  0  0  2  0  0  0  0  0  0
  161.2670  212.4690  148.9380 O   0  0  0  0  0  1  0  0  0  0  0  0
  1  2  1  0  0  0  0
  2  7  2  0  0  0  0
  2 11  1  0  0  0  0
  3  4  2  0  0  0  0
  4 11  1  0  0  0  0
  5  9  1  0  0  0  0
  5  6  1  0  0  0  0
  7 10  1  0  0  0  0
  8  1  2  0  0  0  0
  8  3  1  0  0  0  0
 10 19  1  0  0  0  0
 10  9  2  0  0  0  0
 11  5  2  0  0  0  0
 12  1  1  0  0  0  0
 13 15  2  0  0  0  0
 13 18  1  0  0  0  0
 14 12  1  0  0  0  0
 14 17  2  0  0  0  0
 15 14  1  0  0  0  0
 16 18  1  0  0  0  0
 18 12  2  0  0  0  0
 20 21  1  0  0  0  0
 20 19  1  0  0  0  0
 21 22  1  1  0  0  0
 23 24  1  0  0  0  0
 23 21  1  0  0  0  0
 25 24  1  0  0  0  0
M  END
>  <MODEL>
7

>  <REMARK>
 VINA RESULT:      -7.1      2.405      5.675
  Name = 
  6 active torsions:
  status: ('A' for Active; 'I' for Inactive)
    1  A    between atoms: C_1  and  C_5
    2  A    between atoms: C_2  and  C_12
    3  A    between atoms: C_6  and  O_15
    4  A    between atoms: C_6  and  C_23
    5  A    between atoms: C_12  and  C_21
    6  A    between atoms: O_15  and  C_21
                            x       y       z     vdW  Elec       q    Type
                         _______ _______ _______ _____ _____    ______ ____

>  <TORSDO>
F 6

$$$$
=
 OpenBabel11052422123D

 25 27  0  0  1  0  0  0  0  0999 V2000
  161.3010  207.0500  151.9410 C   0  0  0  0  0  0  0  0  0  0  0  0
  161.1470  206.1420  150.8710 C   0  0  0  0  0  0  0  0  0  0  0  0
  161.2060  205.1930  153.5110 C   0  0  0  0  0  3  0  0  0  0  0  0
  161.0750  204.2920  152.4540 C   0  0  0  0  0  3  0  0  0  0  0  0
  160.8920  203.8660  150.0610 C   0  0  0  0  0  0  0  0  0  0  0  0
  160.7980  202.4950  150.2770 O   0  0  0  0  0  1  0  0  0  0  0  0
  161.0700  206.5850  149.5850 N   0  0  0  0  0  0  0  0  0  0  0  0
  161.3130  206.5620  153.2550 C   0  0  0  0  0  3  0  0  0  0  0  0
  160.8320  204.3580  148.7580 C   0  0  0  0  0  3  0  0  0  0  0  0
  160.9150  205.7340  148.5370 C   0  0  0  0  0  0  0  0  0  0  0  0
  161.0420  204.7550  151.1340 C   0  0  0  0  0  0  0  0  0  0  0  0
  161.4270  208.5090  151.7310 C   0  0  0  0  0  0  0  0  0  0  0  0
  161.2110  210.7720  151.8070 C   0  0  0  0  0  3  0  0  0  0  0  0
  162.0140  209.1760  150.5840 C   0  0  0  0  0  0  0  0  0  0  0  0
  161.8540  210.5820  150.6970 N   0  0  0  0  0  0  0  0  0  0  0  0
  160.0790  209.3470  153.6880 C   0  0  0  0  0  1  0  0  0  0  0  0
  162.5930  208.6130  149.6190 O   0  0  0  0  0  0  0  0  0  0  0  0
  160.9260  209.4930  152.4710 C   0  0  0  0  0  0  0  0  0  0  0  0
  160.8710  206.2660  147.1470 C   0  0  0  0  0  2  0  0  0  0  0  0
  162.1480  206.1760  146.5650 O   0  0  0  0  0  0  0  0  0  0  0  0
  162.0630  205.4350  145.3630 C   0  0  2  0  0  3  0  0  0  0  0  0
  160.8320  205.7840  144.5350 C   0  0  0  0  0  1  0  0  0  0  0  0
  162.2060  203.9270  145.5620 C   0  0  0  0  0  2  0  0  0  0  0  0
  160.8930  203.2320  145.2580 C   0  0  0  0  0  2  0  0  0  0  0  0
  160.8320  202.0280  145.9570 O   0  0  0  0  0  1  0  0  0  0  0  0
  1  8  1  0  0  0  0
  2 11  1  0  0  0  0
  2  1  2  0  0  0  0
  4  3  1  0  0  0  0
  5  6  1  0  0  0  0
  5 11  1  0  0  0  0
  7  2  1  0  0  0  0
  8  3  2  0  0  0  0
  9  5  2  0  0  0  0
 10  9  1  0  0  0  0
 10  7  2  0  0  0  0
 11  4  2  0  0  0  0
 12  1  1  0  0  0  0
 12 18  2  0  0  0  0
 13 18  1  0  0  0  0
 14 15  1  0  0  0  0
 14 12  1  0  0  0  0
 15 13  2  0  0  0  0
 17 14  2  0  0  0  0
 18 16  1  0  0  0  0
 19 10  1  0  0  0  0
 20 19  1  0  0  0  0
 21 22  1  1  0  0  0
 21 23  1  0  0  0  0
 21 20  1  0  0  0  0
 24 23  1  0  0  0  0
 24 25  1  0  0  0  0
M  END
>  <MODEL>
8

>  <REMARK>
 VINA RESULT:      -6.9      2.728      5.237
  Name = 
  6 active torsions:
  status: ('A' for Active; 'I' for Inactive)
    1  A    between atoms: C_1  and  C_5
    2  A    between atoms: C_2  and  C_12
    3  A    between atoms: C_6  and  O_15
    4  A    between atoms: C_6  and  C_23
    5  A    between atoms: C_12  and  C_21
    6  A    between atoms: O_15  and  C_21
                            x       y       z     vdW  Elec       q    Type
                         _______ _______ _______ _____ _____    ______ ____

>  <TORSDO>
F 6

$$$$
=
 OpenBabel11052422123D

 25 27  0  0  1  0  0  0  0  0999 V2000
  161.4230  208.3130  151.3610 C   0  0  0  0  0  0  0  0  0  0  0  0
  161.3380  207.2470  150.4390 C   0  0  0  0  0  0  0  0  0  0  0  0
  162.1530  209.7870  149.5670 C   0  0  0  0  0  3  0  0  0  0  0  0
  162.0490  208.7400  148.6500 C   0  0  0  0  0  3  0  0  0  0  0  0
  161.5550  206.4020  148.1720 C   0  0  0  0  0  0  0  0  0  0  0  0
  161.8380  206.5820  146.8220 O   0  0  0  0  0  1  0  0  0  0  0  0
  160.9890  205.9950  150.8490 N   0  0  0  0  0  0  0  0  0  0  0  0
  161.8460  209.5720  150.9120 C   0  0  0  0  0  3  0  0  0  0  0  0
  161.1800  205.1390  148.6290 C   0  0  0  0  0  3  0  0  0  0  0  0
  160.9070  204.9500  149.9850 C   0  0  0  0  0  0  0  0  0  0  0  0
  161.6460  207.4690  149.0760 C   0  0  0  0  0  0  0  0  0  0  0  0
  161.1040  208.1470  152.7960 C   0  0  0  0  0  0  0  0  0  0  0  0
  160.4830  208.4470  154.9630 C   0  0  0  0  0  3  0  0  0  0  0  0
  161.5560  207.0820  153.6710 C   0  0  0  0  0  0  0  0  0  0  0  0
  161.1290  207.3240  155.0020 N   0  0  0  0  0  0  0  0  0  0  0  0
  159.9200  210.3290  153.2320 C   0  0  0  0  0  1  0  0  0  0  0  0
  162.2260  206.0750  153.3220 O   0  0  0  0  0  0  0  0  0  0  0  0
  160.4560  208.9860  153.5970 C   0  0  0  0  0  0  0  0  0  0  0  0
  160.4870  203.6090  150.4770 C   0  0  0  0  0  2  0  0  0  0  0  0
  160.0490  202.8230  149.3960 O   0  0  0  0  0  0  0  0  0  0  0  0
  160.4930  201.4920  149.5750 C   0  0  2  0  0  3  0  0  0  0  0  0
  161.3090  201.3040  150.8490 C   0  0  0  0  0  1  0  0  0  0  0  0
  161.2040  200.9140  148.3530 C   0  0  0  0  0  2  0  0  0  0  0  0
  160.8520  201.7140  147.1150 C   0  0  0  0  0  2  0  0  0  0  0  0
  160.8310  200.8690  146.0070 O   0  0  0  0  0  1  0  0  0  0  0  0
  1 12  1  0  0  0  0
  2  7  1  0  0  0  0
  2  1  2  0  0  0  0
  3  8  2  0  0  0  0
  4 11  2  0  0  0  0
  4  3  1  0  0  0  0
  5  9  2  0  0  0  0
  5 11  1  0  0  0  0
  6  5  1  0  0  0  0
  8  1  1  0  0  0  0
  9 10  1  0  0  0  0
 10 19  1  0  0  0  0
 10  7  2  0  0  0  0
 11  2  1  0  0  0  0
 12 18  2  0  0  0  0
 12 14  1  0  0  0  0
 13 15  2  0  0  0  0
 14 15  1  0  0  0  0
 16 18  1  0  0  0  0
 17 14  2  0  0  0  0
 18 13  1  0  0  0  0
 20 21  1  0  0  0  0
 20 19  1  0  0  0  0
 21 22  1  1  0  0  0
 23 21  1  0  0  0  0
 24 23  1  0  0  0  0
 25 24  1  0  0  0  0
M  END
>  <MODEL>
9

>  <REMARK>
 VINA RESULT:      -6.6      2.721      5.650
  Name = 
  6 active torsions:
  status: ('A' for Active; 'I' for Inactive)
    1  A    between atoms: C_1  and  C_5
    2  A    between atoms: C_2  and  C_12
    3  A    between atoms: C_6  and  O_15
    4  A    between atoms: C_6  and  C_23
    5  A    between atoms: C_12  and  C_21
    6  A    between atoms: O_15  and  C_21
                            x       y       z     vdW  Elec       q    Type
                         _______ _______ _______ _____ _____    ______ ____

>  <TORSDO>
F 6

$$$$
