=
 OpenBabel11062410243D

 43 48  0  0  1  0  0  0  0  0999 V2000
  161.1590  202.3140  147.5530 C   0  0  0  0  0  0  0  0  0  0  0  0
  161.8370  207.2400  148.6840 C   0  0  0  0  0  0  0  0  0  0  0  0
  161.0860  206.3260  150.8090 C   0  0  0  0  0  3  0  0  0  0  0  0
  161.6720  204.6410  147.4370 C   0  0  0  0  0  0  0  0  0  0  0  0
  160.3660  202.4670  148.8190 C   0  0  0  0  0  2  0  0  0  0  0  0
  161.3000  201.1730  147.0400 O   0  0  0  0  0  0  0  0  0  0  0  0
  161.1330  204.8380  148.7960 C   0  0  0  0  0  0  0  0  0  0  0  0
  161.7070  203.4620  146.8960 N   0  0  0  0  0  0  0  0  0  0  0  0
  160.5660  203.8160  149.4490 C   0  0  0  0  0  3  0  0  0  0  0  0
  161.3150  207.5530  151.4380 C   0  0  0  0  0  0  0  0  0  0  0  0
  161.3370  206.1540  149.4400 C   0  0  0  0  0  0  0  0  0  0  0  0
  162.0140  207.1240  147.1880 C   0  0  0  0  0  2  0  0  0  0  0  0
  162.0650  208.4800  149.3040 C   0  0  0  0  0  0  0  0  0  0  0  0
  161.8010  208.6190  150.6750 C   0  0  0  0  0  3  0  0  0  0  0  0
  162.2570  205.7490  146.7580 N   0  0  0  0  0  2  0  0  0  0  0  0
  161.0320  207.7050  152.8810 C   0  0  0  0  0  0  0  0  0  0  0  0
  161.3780  206.4880  153.9350 S   0  0  0  0  0  0  0  0  0  0  0  0
  160.4570  208.9340  153.3490 N   0  0  0  0  0  2  0  0  0  0  0  0
  160.6720  211.4340  152.5030 O   0  0  0  0  0  0  0  0  0  0  0  0
  161.2950  210.4490  153.4510 S   0  0  0  0  0  0  0  0  0  0  0  0
  162.7410  210.2420  153.0940 O   0  0  0  0  0  0  0  0  0  0  0  0
  161.1760  211.0600  155.1400 C   0  0  2  0  0  3  0  0  0  0  0  0
  160.1390  208.9900  156.5530 S   0  0  0  0  0  0  0  0  0  0  0  0
  162.3260  210.5170  155.9610 C   0  0  0  0  0  2  0  0  0  0  0  0
  159.8980  210.6670  155.8840 C   0  0  1  0  0  0  0  0  0  0  0  0
  159.7380  211.5360  156.9460 F   0  0  0  0  0  0  0  0  0  0  0  0
  161.9550  209.1250  156.4350 C   0  0  0  0  0  2  0  0  0  0  0  0
  158.6490  210.7370  155.0050 C   0  0  0  0  0  2  0  0  0  0  0  0
  157.9490  211.9980  155.2010 N   0  0  0  0  0  0  0  0  0  0  0  0
  156.8260  213.7920  153.9170 C   0  0  0  0  0  2  0  0  0  0  0  0
  155.7090  212.9240  155.6830 C   0  0  0  0  0  2  0  0  0  0  0  0
  156.4090  214.0610  155.2330 O   0  0  0  0  0  0  0  0  0  0  0  0
  156.6080  211.6760  155.6900 C   0  0  0  0  0  2  0  0  0  0  0  0
  157.8520  212.6480  153.8890 C   0  0  0  0  0  2  0  0  0  0  0  0
  162.5140  209.5640  148.5260 O   0  0  0  0  0  0  0  0  0  0  0  0
  161.5420  213.1560  148.7780 C   0  0  0  0  0  3  0  0  0  0  0  0
  160.5080  213.2030  147.8360 C   0  0  0  0  0  0  0  0  0  0  0  0
  160.8280  210.8420  147.3850 C   0  0  0  0  0  3  0  0  0  0  0  0
  162.2120  211.9560  149.0220 C   0  0  0  0  0  3  0  0  0  0  0  0
  161.8560  210.7860  148.3300 C   0  0  0  0  0  0  0  0  0  0  0  0
  160.1560  212.0430  147.1400 C   0  0  0  0  0  3  0  0  0  0  0  0
  158.5960  214.4460  147.0570 N   0  0  0  0  0  2  0  0  0  0  0  0
  159.7910  214.4520  147.5480 C   0  0  0  0  0  3  0  0  0  0  0  0
  1  5  1  0  0  0  0
  2 13  2  0  0  0  0
  2 11  1  0  0  0  0
  3 10  1  0  0  0  0
  4  7  1  0  0  0  0
  5  9  1  0  0  0  0
  6  1  2  0  0  0  0
  7 11  1  0  0  0  0
  7  9  2  0  0  0  0
  8  4  2  0  0  0  0
  8  1  1  0  0  0  0
 10 16  1  0  0  0  0
 11  3  2  0  0  0  0
 12  2  1  0  0  0  0
 13 14  1  0  0  0  0
 14 10  2  0  0  0  0
 15 12  1  0  0  0  0
 15  4  1  0  0  0  0
 16 18  1  0  0  0  0
 16 17  2  0  0  0  0
 18 20  1  0  0  0  0
 19 20  2  0  0  0  0
 21 20  2  0  0  0  0
 22 20  1  6  0  0  0
 22 25  1  0  0  0  0
 22 24  1  0  0  0  0
 24 27  1  0  0  0  0
 25 23  1  0  0  0  0
 25 26  1  1  0  0  0
 27 23  1  0  0  0  0
 28 29  1  0  0  0  0
 28 25  1  0  0  0  0
 29 33  1  0  0  0  0
 30 32  1  0  0  0  0
 31 33  1  0  0  0  0
 32 31  1  0  0  0  0
 34 30  1  0  0  0  0
 34 29  1  0  0  0  0
 35 13  1  0  0  0  0
 36 39  1  0  0  0  0
 37 36  2  0  0  0  0
 38 40  1  0  0  0  0
 40 35  1  0  0  0  0
 40 39  2  0  0  0  0
 41 38  2  0  0  0  0
 41 37  1  0  0  0  0
 42 43  2  0  0  0  0
 43 37  1  0  0  0  0
M  END
>  <MODEL>
1

>  <REMARK>
 VINA RESULT:      -7.9      0.000      0.000
  Name = 
  9 active torsions:
  status: ('A' for Active; 'I' for Inactive)
    1  A    between atoms: O_1  and  C_34
    2  A    between atoms: O_1  and  C_35
    3  A    between atoms: C_2  and  N_6
    4  A    between atoms: C_2  and  C_27
    5  A    between atoms: C_4  and  S_12
    6  A    between atoms: N_6  and  S_12
    7  A    between atoms: N_11  and  C_14
    8  A    between atoms: C_14  and  C_22
    9  A    between atoms: C_19  and  C_37
                            x       y       z     vdW  Elec       q    Type
                         _______ _______ _______ _____ _____    ______ ____

>  <TORSDO>
F 9

$$$$
=
 OpenBabel11062410243D

 43 48  0  0  1  0  0  0  0  0999 V2000
  160.9190  209.1340  155.9160 C   0  0  0  0  0  0  0  0  0  0  0  0
  161.4380  207.6760  151.0580 C   0  0  0  0  0  0  0  0  0  0  0  0
  161.6200  210.0950  150.8870 C   0  0  0  0  0  3  0  0  0  0  0  0
  161.1040  207.8390  153.9210 C   0  0  0  0  0  0  0  0  0  0  0  0
  160.6340  210.4020  155.1660 C   0  0  0  0  0  2  0  0  0  0  0  0
  160.9830  209.1530  157.1740 O   0  0  0  0  0  0  0  0  0  0  0  0
  161.0830  209.0710  153.1080 C   0  0  0  0  0  0  0  0  0  0  0  0
  161.0620  207.8930  155.2170 N   0  0  0  0  0  0  0  0  0  0  0  0
  160.9070  210.2610  153.6950 C   0  0  0  0  0  3  0  0  0  0  0  0
  161.9330  209.9940  149.5290 C   0  0  0  0  0  0  0  0  0  0  0  0
  161.3690  208.9530  151.6620 C   0  0  0  0  0  0  0  0  0  0  0  0
  161.0650  206.4330  151.8310 C   0  0  0  0  0  2  0  0  0  0  0  0
  161.7450  207.5620  149.6910 C   0  0  0  0  0  0  0  0  0  0  0  0
  161.9890  208.7250  148.9450 C   0  0  0  0  0  3  0  0  0  0  0  0
  161.2770  206.5840  153.2680 N   0  0  0  0  0  2  0  0  0  0  0  0
  162.1850  211.2180  148.7380 C   0  0  0  0  0  0  0  0  0  0  0  0
  163.7240  211.6750  148.3730 S   0  0  0  0  0  0  0  0  0  0  0  0
  161.0660  211.9960  148.2890 N   0  0  0  0  0  2  0  0  0  0  0  0
  162.1660  214.3950  148.5070 O   0  0  0  0  0  0  0  0  0  0  0  0
  160.8430  213.6870  148.6000 S   0  0  0  0  0  0  0  0  0  0  0  0
  160.2630  213.8690  149.9740 O   0  0  0  0  0  0  0  0  0  0  0  0
  159.7030  214.3520  147.3750 C   0  0  2  0  0  3  0  0  0  0  0  0
  158.5790  212.1700  146.2210 S   0  0  0  0  0  0  0  0  0  0  0  0
  158.2900  214.2960  147.9120 C   0  0  0  0  0  2  0  0  0  0  0  0
  159.6810  213.6080  146.0370 C   0  0  1  0  0  0  0  0  0  0  0  0
  159.1350  214.4530  145.0890 F   0  0  0  0  0  0  0  0  0  0  0  0
  157.7440  212.9020  147.6690 C   0  0  0  0  0  2  0  0  0  0  0  0
  161.0720  213.1830  145.5670 C   0  0  0  0  0  2  0  0  0  0  0  0
  161.3820  213.7670  144.2710 N   0  0  0  0  0  0  0  0  0  0  0  0
  163.3150  214.3520  142.8380 C   0  0  0  0  0  2  0  0  0  0  0  0
  161.6280  213.1830  141.8830 C   0  0  0  0  0  2  0  0  0  0  0  0
  162.2360  214.4530  141.9410 O   0  0  0  0  0  0  0  0  0  0  0  0
  161.0930  212.7520  143.2590 C   0  0  0  0  0  2  0  0  0  0  0  0
  162.8170  214.0750  144.2650 C   0  0  0  0  0  2  0  0  0  0  0  0
  161.7590  206.2870  149.0950 O   0  0  0  0  0  0  0  0  0  0  0  0
  160.4220  206.3480  145.6130 C   0  0  0  0  0  3  0  0  0  0  0  0
  161.2170  205.3590  145.0210 C   0  0  0  0  0  0  0  0  0  0  0  0
  162.3390  205.0100  147.1420 C   0  0  0  0  0  3  0  0  0  0  0  0
  160.5850  206.6620  146.9640 C   0  0  0  0  0  3  0  0  0  0  0  0
  161.5430  205.9900  147.7410 C   0  0  0  0  0  0  0  0  0  0  0  0
  162.1770  204.6950  145.7910 C   0  0  0  0  0  3  0  0  0  0  0  0
  161.5910  205.7540  142.6740 N   0  0  0  0  0  2  0  0  0  0  0  0
  161.0770  205.0140  143.6010 C   0  0  0  0  0  3  0  0  0  0  0  0
  1  6  2  0  0  0  0
  2 11  1  0  0  0  0
  2 12  1  0  0  0  0
  3 11  2  0  0  0  0
  4  8  2  0  0  0  0
  5  1  1  0  0  0  0
  7  9  2  0  0  0  0
  7  4  1  0  0  0  0
  8  1  1  0  0  0  0
  9  5  1  0  0  0  0
 10  3  1  0  0  0  0
 11  7  1  0  0  0  0
 12 15  1  0  0  0  0
 13  2  2  0  0  0  0
 14 10  2  0  0  0  0
 14 13  1  0  0  0  0
 15  4  1  0  0  0  0
 16 10  1  0  0  0  0
 17 16  2  0  0  0  0
 18 20  1  0  0  0  0
 18 16  1  0  0  0  0
 19 20  2  0  0  0  0
 20 21  2  0  0  0  0
 22 24  1  0  0  0  0
 22 20  1  1  0  0  0
 23 27  1  0  0  0  0
 25 26  1  6  0  0  0
 25 23  1  0  0  0  0
 25 22  1  0  0  0  0
 27 24  1  0  0  0  0
 28 25  1  0  0  0  0
 29 28  1  0  0  0  0
 30 34  1  0  0  0  0
 31 32  1  0  0  0  0
 31 33  1  0  0  0  0
 32 30  1  0  0  0  0
 33 29  1  0  0  0  0
 34 29  1  0  0  0  0
 35 13  1  0  0  0  0
 36 39  1  0  0  0  0
 37 36  2  0  0  0  0
 37 41  1  0  0  0  0
 38 40  1  0  0  0  0
 39 40  2  0  0  0  0
 40 35  1  0  0  0  0
 41 38  2  0  0  0  0
 42 43  2  0  0  0  0
 43 37  1  0  0  0  0
M  END
>  <MODEL>
2

>  <REMARK>
 VINA RESULT:      -6.6      4.020      8.689
  Name = 
  9 active torsions:
  status: ('A' for Active; 'I' for Inactive)
    1  A    between atoms: O_1  and  C_34
    2  A    between atoms: O_1  and  C_35
    3  A    between atoms: C_2  and  N_6
    4  A    between atoms: C_2  and  C_27
    5  A    between atoms: C_4  and  S_12
    6  A    between atoms: N_6  and  S_12
    7  A    between atoms: N_11  and  C_14
    8  A    between atoms: C_14  and  C_22
    9  A    between atoms: C_19  and  C_37
                            x       y       z     vdW  Elec       q    Type
                         _______ _______ _______ _____ _____    ______ ____

>  <TORSDO>
F 9

$$$$
=
 OpenBabel11062410243D

 43 48  0  0  1  0  0  0  0  0999 V2000
  161.6720  211.7390  148.0680 C   0  0  0  0  0  0  0  0  0  0  0  0
  161.9200  207.7270  151.2040 C   0  0  0  0  0  0  0  0  0  0  0  0
  160.8290  209.3960  152.5960 C   0  0  0  0  0  3  0  0  0  0  0  0
  162.0670  209.5750  148.9910 C   0  0  0  0  0  0  0  0  0  0  0  0
  161.4740  212.3700  149.4160 C   0  0  0  0  0  2  0  0  0  0  0  0
  161.5620  212.4410  147.0280 O   0  0  0  0  0  0  0  0  0  0  0  0
  161.6410  210.0540  150.3210 C   0  0  0  0  0  0  0  0  0  0  0  0
  162.0400  210.3600  147.9580 N   0  0  0  0  0  0  0  0  0  0  0  0
  161.3270  211.3430  150.5020 C   0  0  0  0  0  3  0  0  0  0  0  0
  160.6270  208.4500  153.6040 C   0  0  0  0  0  0  0  0  0  0  0  0
  161.4730  209.0540  151.3980 C   0  0  0  0  0  0  0  0  0  0  0  0
  162.7150  207.3490  149.9760 C   0  0  0  0  0  2  0  0  0  0  0  0
  161.7280  206.7670  152.2140 C   0  0  0  0  0  0  0  0  0  0  0  0
  161.0820  207.1430  153.4010 C   0  0  0  0  0  3  0  0  0  0  0  0
  162.4110  208.2020  148.8300 N   0  0  0  0  0  2  0  0  0  0  0  0
  159.9520  208.8430  154.8600 C   0  0  0  0  0  0  0  0  0  0  0  0
  159.7900  207.7670  156.0950 S   0  0  0  0  0  0  0  0  0  0  0  0
  159.4460  210.1800  154.9850 N   0  0  0  0  0  2  0  0  0  0  0  0
  161.5310  211.8030  155.1560 O   0  0  0  0  0  0  0  0  0  0  0  0
  160.2360  211.4660  155.8400 S   0  0  0  0  0  0  0  0  0  0  0  0
  160.5030  211.0330  157.2540 O   0  0  0  0  0  0  0  0  0  0  0  0
  159.1510  212.9030  155.8480 C   0  0  2  0  0  3  0  0  0  0  0  0
  156.6780  211.9050  155.3530 S   0  0  0  0  0  0  0  0  0  0  0  0
  158.4150  212.9780  157.1680 C   0  0  0  0  0  2  0  0  0  0  0  0
  158.0750  212.9110  154.7590 C   0  0  1  0  0  0  0  0  0  0  0  0
  157.6370  214.2120  154.6030 F   0  0  0  0  0  0  0  0  0  0  0  0
  157.2080  212.0630  157.0920 C   0  0  0  0  0  2  0  0  0  0  0  0
  158.5880  212.4050  153.4100 C   0  0  0  0  0  2  0  0  0  0  0  0
  157.7220  212.8490  152.3280 N   0  0  0  0  0  0  0  0  0  0  0  0
  155.8780  214.4360  151.8690 C   0  0  0  0  0  2  0  0  0  0  0  0
  157.6310  214.4380  150.4370 C   0  0  0  0  0  2  0  0  0  0  0  0
  156.2800  214.0630  150.5730 O   0  0  0  0  0  0  0  0  0  0  0  0
  158.5220  213.7170  151.4640 C   0  0  0  0  0  2  0  0  0  0  0  0
  156.6340  213.6250  152.9330 C   0  0  0  0  0  2  0  0  0  0  0  0
  162.2250  205.4640  152.0250 O   0  0  0  0  0  0  0  0  0  0  0  0
  160.8170  203.7350  149.0330 C   0  0  0  0  0  3  0  0  0  0  0  0
  160.6990  202.4310  149.5290 C   0  0  0  0  0  0  0  0  0  0  0  0
  161.5860  203.1750  151.6600 C   0  0  0  0  0  3  0  0  0  0  0  0
  161.3150  204.7520  149.8500 C   0  0  0  0  0  3  0  0  0  0  0  0
  161.6990  204.4810  151.1740 C   0  0  0  0  0  0  0  0  0  0  0  0
  161.0880  202.1560  150.8440 C   0  0  0  0  0  3  0  0  0  0  0  0
  160.9790  200.6350  147.9480 N   0  0  0  0  0  2  0  0  0  0  0  0
  160.1900  201.3380  148.6920 C   0  0  0  0  0  3  0  0  0  0  0  0
  1  5  1  0  0  0  0
  2 11  2  0  0  0  0
  2 13  1  0  0  0  0
  3 10  2  0  0  0  0
  4  7  1  0  0  0  0
  5  9  1  0  0  0  0
  6  1  2  0  0  0  0
  7  9  2  0  0  0  0
  7 11  1  0  0  0  0
  8  1  1  0  0  0  0
  8  4  2  0  0  0  0
 10 16  1  0  0  0  0
 11  3  1  0  0  0  0
 12  2  1  0  0  0  0
 13 14  2  0  0  0  0
 14 10  1  0  0  0  0
 15  4  1  0  0  0  0
 15 12  1  0  0  0  0
 16 18  1  0  0  0  0
 16 17  2  0  0  0  0
 18 20  1  0  0  0  0
 19 20  2  0  0  0  0
 20 21  2  0  0  0  0
 22 20  1  1  0  0  0
 22 24  1  0  0  0  0
 23 27  1  0  0  0  0
 25 26  1  6  0  0  0
 25 23  1  0  0  0  0
 25 22  1  0  0  0  0
 27 24  1  0  0  0  0
 28 25  1  0  0  0  0
 29 34  1  0  0  0  0
 29 28  1  0  0  0  0
 30 34  1  0  0  0  0
 31 32  1  0  0  0  0
 31 33  1  0  0  0  0
 32 30  1  0  0  0  0
 33 29  1  0  0  0  0
 35 13  1  0  0  0  0
 36 37  2  0  0  0  0
 36 39  1  0  0  0  0
 37 41  1  0  0  0  0
 39 40  2  0  0  0  0
 40 38  1  0  0  0  0
 40 35  1  0  0  0  0
 41 38  2  0  0  0  0
 42 43  2  0  0  0  0
 43 37  1  0  0  0  0
M  END
>  <MODEL>
3

>  <REMARK>
 VINA RESULT:      -5.5      2.556      6.345
  Name = 
  9 active torsions:
  status: ('A' for Active; 'I' for Inactive)
    1  A    between atoms: O_1  and  C_34
    2  A    between atoms: O_1  and  C_35
    3  A    between atoms: C_2  and  N_6
    4  A    between atoms: C_2  and  C_27
    5  A    between atoms: C_4  and  S_12
    6  A    between atoms: N_6  and  S_12
    7  A    between atoms: N_11  and  C_14
    8  A    between atoms: C_14  and  C_22
    9  A    between atoms: C_19  and  C_37
                            x       y       z     vdW  Elec       q    Type
                         _______ _______ _______ _____ _____    ______ ____

>  <TORSDO>
F 9

$$$$
=
 OpenBabel11062410243D

 43 48  0  0  1  0  0  0  0  0999 V2000
  161.7380  213.6280  147.1690 C   0  0  0  0  0  0  0  0  0  0  0  0
  160.2540  212.3860  151.8860 C   0  0  0  0  0  0  0  0  0  0  0  0
  161.2290  210.3050  151.0930 C   0  0  0  0  0  3  0  0  0  0  0  0
  160.8550  213.6960  149.3840 C   0  0  0  0  0  0  0  0  0  0  0  0
  161.7180  212.1280  147.1170 C   0  0  0  0  0  2  0  0  0  0  0  0
  162.1700  214.2810  146.1820 O   0  0  0  0  0  0  0  0  0  0  0  0
  161.0380  212.2360  149.5120 C   0  0  0  0  0  0  0  0  0  0  0  0
  161.2170  214.3230  148.3070 N   0  0  0  0  0  0  0  0  0  0  0  0
  161.4790  211.5200  148.4700 C   0  0  0  0  0  3  0  0  0  0  0  0
  161.0720  209.7290  152.3560 C   0  0  0  0  0  0  0  0  0  0  0  0
  160.8250  211.6240  150.8410 C   0  0  0  0  0  0  0  0  0  0  0  0
  159.7060  213.7700  151.6240 C   0  0  0  0  0  2  0  0  0  0  0  0
  160.0850  211.8160  153.1590 C   0  0  0  0  0  0  0  0  0  0  0  0
  160.4980  210.4930  153.3770 C   0  0  0  0  0  3  0  0  0  0  0  0
  160.3700  214.4310  150.5040 N   0  0  0  0  0  2  0  0  0  0  0  0
  161.5000  208.3320  152.5880 C   0  0  0  0  0  0  0  0  0  0  0  0
  161.2000  207.5940  154.0280 S   0  0  0  0  0  0  0  0  0  0  0  0
  162.1760  207.6310  151.5350 N   0  0  0  0  0  2  0  0  0  0  0  0
  160.0820  206.4370  150.4390 O   0  0  0  0  0  0  0  0  0  0  0  0
  161.5490  206.2460  150.7000 S   0  0  0  0  0  0  0  0  0  0  0  0
  161.7620  205.0190  151.5430 O   0  0  0  0  0  0  0  0  0  0  0  0
  162.4330  206.0630  149.1430 C   0  0  2  0  0  3  0  0  0  0  0  0
  160.5110  206.2240  147.2350 S   0  0  0  0  0  0  0  0  0  0  0  0
  162.6180  207.4200  148.4990 C   0  0  0  0  0  2  0  0  0  0  0  0
  161.7340  205.1880  148.0990 C   0  0  1  0  0  0  0  0  0  0  0  0
  162.6830  204.7810  147.1800 F   0  0  0  0  0  0  0  0  0  0  0  0
  161.3490  207.7640  147.7430 C   0  0  0  0  0  2  0  0  0  0  0  0
  161.0790  203.9460  148.7030 C   0  0  0  0  0  2  0  0  0  0  0  0
  161.4180  202.7560  147.9370 N   0  0  0  0  0  0  0  0  0  0  0  0
  161.1980  200.2920  148.0150 C   0  0  0  0  0  2  0  0  0  0  0  0
  160.5970  201.3280  146.0950 C   0  0  0  0  0  2  0  0  0  0  0  0
  161.5870  200.5140  146.6810 O   0  0  0  0  0  0  0  0  0  0  0  0
  160.4830  202.6830  146.8150 C   0  0  0  0  0  2  0  0  0  0  0  0
  161.2210  201.6010  148.8190 C   0  0  0  0  0  2  0  0  0  0  0  0
  159.4680  212.5720  154.1740 O   0  0  0  0  0  0  0  0  0  0  0  0
  157.0760  212.1590  157.0070 C   0  0  0  0  0  3  0  0  0  0  0  0
  156.0500  211.4520  156.3690 C   0  0  0  0  0  0  0  0  0  0  0  0
  157.3180  211.5020  154.3030 C   0  0  0  0  0  3  0  0  0  0  0  0
  158.2180  212.5320  156.2950 C   0  0  0  0  0  3  0  0  0  0  0  0
  158.3510  212.2010  154.9360 C   0  0  0  0  0  0  0  0  0  0  0  0
  156.1760  211.1290  155.0140 C   0  0  0  0  0  3  0  0  0  0  0  0
  154.1250  210.0440  156.7070 N   0  0  0  0  0  2  0  0  0  0  0  0
  154.8330  211.0560  157.0870 C   0  0  0  0  0  3  0  0  0  0  0  0
  1  8  1  0  0  0  0
  2 13  1  0  0  0  0
  3 10  2  0  0  0  0
  4  7  1  0  0  0  0
  4 15  1  0  0  0  0
  5  1  1  0  0  0  0
  5  9  1  0  0  0  0
  6  1  2  0  0  0  0
  7 11  1  0  0  0  0
  8  4  2  0  0  0  0
  9  7  2  0  0  0  0
 10 16  1  0  0  0  0
 10 14  1  0  0  0  0
 11  3  1  0  0  0  0
 11  2  2  0  0  0  0
 12  2  1  0  0  0  0
 13 14  2  0  0  0  0
 13 35  1  0  0  0  0
 15 12  1  0  0  0  0
 16 17  2  0  0  0  0
 18 16  1  0  0  0  0
 19 20  2  0  0  0  0
 20 18  1  0  0  0  0
 20 21  2  0  0  0  0
 22 20  1  1  0  0  0
 23 27  1  0  0  0  0
 23 25  1  0  0  0  0
 24 22  1  0  0  0  0
 25 26  1  6  0  0  0
 25 28  1  0  0  0  0
 25 22  1  0  0  0  0
 27 24  1  0  0  0  0
 29 28  1  0  0  0  0
 29 34  1  0  0  0  0
 30 34  1  0  0  0  0
 31 32  1  0  0  0  0
 31 33  1  0  0  0  0
 32 30  1  0  0  0  0
 33 29  1  0  0  0  0
 35 40  1  0  0  0  0
 37 36  1  0  0  0  0
 37 43  1  0  0  0  0
 38 40  2  0  0  0  0
 38 41  1  0  0  0  0
 39 36  2  0  0  0  0
 40 39  1  0  0  0  0
 41 37  2  0  0  0  0
 42 43  2  0  0  0  0
M  END
>  <MODEL>
4

>  <REMARK>
 VINA RESULT:      -5.4      3.152      9.359
  Name = 
  9 active torsions:
  status: ('A' for Active; 'I' for Inactive)
    1  A    between atoms: O_1  and  C_34
    2  A    between atoms: O_1  and  C_35
    3  A    between atoms: C_2  and  N_6
    4  A    between atoms: C_2  and  C_27
    5  A    between atoms: C_4  and  S_12
    6  A    between atoms: N_6  and  S_12
    7  A    between atoms: N_11  and  C_14
    8  A    between atoms: C_14  and  C_22
    9  A    between atoms: C_19  and  C_37
                            x       y       z     vdW  Elec       q    Type
                         _______ _______ _______ _____ _____    ______ ____

>  <TORSDO>
F 9

$$$$
=
 OpenBabel11062410243D

 43 48  0  0  1  0  0  0  0  0999 V2000
  159.4020  213.0480  141.7930 C   0  0  0  0  0  0  0  0  0  0  0  0
  158.2660  213.6610  146.7260 C   0  0  0  0  0  0  0  0  0  0  0  0
  160.3520  212.4150  146.8330 C   0  0  0  0  0  3  0  0  0  0  0  0
  158.3460  213.6720  143.8400 C   0  0  0  0  0  0  0  0  0  0  0  0
  160.2490  211.9990  142.4530 C   0  0  0  0  0  2  0  0  0  0  0  0
  159.5130  213.2540  140.5560 O   0  0  0  0  0  0  0  0  0  0  0  0
  159.3100  212.8500  144.5990 C   0  0  0  0  0  0  0  0  0  0  0  0
  158.4280  213.7770  142.5500 N   0  0  0  0  0  0  0  0  0  0  0  0
  160.2170  212.1090  143.9510 C   0  0  0  0  0  3  0  0  0  0  0  0
  160.3810  212.5480  148.2230 C   0  0  0  0  0  0  0  0  0  0  0  0
  159.3060  212.9590  146.0730 C   0  0  0  0  0  0  0  0  0  0  0  0
  157.0690  214.1630  145.9540 C   0  0  0  0  0  2  0  0  0  0  0  0
  158.2810  213.7960  148.1250 C   0  0  0  0  0  0  0  0  0  0  0  0
  159.3410  213.2370  148.8560 C   0  0  0  0  0  3  0  0  0  0  0  0
  157.3810  214.4390  144.5540 N   0  0  0  0  0  2  0  0  0  0  0  0
  161.4930  211.9560  148.9980 C   0  0  0  0  0  0  0  0  0  0  0  0
  162.9780  211.7600  148.3130 S   0  0  0  0  0  0  0  0  0  0  0  0
  161.2580  211.5600  150.3560 N   0  0  0  0  0  2  0  0  0  0  0  0
  163.0740  210.3300  151.8410 O   0  0  0  0  0  0  0  0  0  0  0  0
  161.8080  210.0780  151.0700 S   0  0  0  0  0  0  0  0  0  0  0  0
  162.0640  209.0690  149.9850 O   0  0  0  0  0  0  0  0  0  0  0  0
  160.5270  209.4600  152.1740 C   0  0  2  0  0  3  0  0  0  0  0  0
  161.7640  209.1660  154.5700 S   0  0  0  0  0  0  0  0  0  0  0  0
  160.0090  210.5910  153.0360 C   0  0  0  0  0  2  0  0  0  0  0  0
  160.9770  208.3600  153.1390 C   0  0  1  0  0  0  0  0  0  0  0  0
  159.8500  207.6950  153.5820 F   0  0  0  0  0  0  0  0  0  0  0  0
  160.9490  210.7590  154.2140 C   0  0  0  0  0  2  0  0  0  0  0  0
  161.9180  207.3440  152.4900 C   0  0  0  0  0  2  0  0  0  0  0  0
  161.1670  206.2410  151.9100 N   0  0  0  0  0  0  0  0  0  0  0  0
  161.2020  204.7010  149.9720 C   0  0  0  0  0  2  0  0  0  0  0  0
  160.9210  203.7840  152.0220 C   0  0  0  0  0  2  0  0  0  0  0  0
  160.2570  204.0940  150.8190 O   0  0  0  0  0  0  0  0  0  0  0  0
  161.4640  205.0500  152.7070 C   0  0  0  0  0  2  0  0  0  0  0  0
  161.6600  206.0530  150.5410 C   0  0  0  0  0  2  0  0  0  0  0  0
  157.2120  214.4530  148.7630 O   0  0  0  0  0  0  0  0  0  0  0  0
  157.3910  214.2900  152.4850 C   0  0  0  0  0  3  0  0  0  0  0  0
  156.0300  214.1980  152.7980 C   0  0  0  0  0  0  0  0  0  0  0  0
  155.4940  214.2700  150.4350 C   0  0  0  0  0  3  0  0  0  0  0  0
  157.7990  214.3690  151.1520 C   0  0  0  0  0  3  0  0  0  0  0  0
  156.8520  214.3530  150.1140 C   0  0  0  0  0  0  0  0  0  0  0  0
  155.0850  214.1910  151.7680 C   0  0  0  0  0  3  0  0  0  0  0  0
  155.9700  213.1880  154.9860 N   0  0  0  0  0  2  0  0  0  0  0  0
  155.5690  214.1250  154.1910 C   0  0  0  0  0  3  0  0  0  0  0  0
  1  5  1  0  0  0  0
  1  8  1  0  0  0  0
  2 13  1  0  0  0  0
  3 10  2  0  0  0  0
  4 15  1  0  0  0  0
  4  7  1  0  0  0  0
  5  9  1  0  0  0  0
  6  1  2  0  0  0  0
  7 11  1  0  0  0  0
  8  4  2  0  0  0  0
  9  7  2  0  0  0  0
 10 14  1  0  0  0  0
 10 16  1  0  0  0  0
 11  2  2  0  0  0  0
 11  3  1  0  0  0  0
 12  2  1  0  0  0  0
 13 35  1  0  0  0  0
 13 14  2  0  0  0  0
 15 12  1  0  0  0  0
 16 18  1  0  0  0  0
 17 16  2  0  0  0  0
 18 20  1  0  0  0  0
 20 19  2  0  0  0  0
 21 20  2  0  0  0  0
 22 20  1  1  0  0  0
 22 24  1  0  0  0  0
 22 25  1  0  0  0  0
 24 27  1  0  0  0  0
 25 26  1  1  0  0  0
 25 23  1  0  0  0  0
 27 23  1  0  0  0  0
 28 25  1  0  0  0  0
 29 28  1  0  0  0  0
 29 33  1  0  0  0  0
 30 34  1  0  0  0  0
 30 32  1  0  0  0  0
 31 33  1  0  0  0  0
 32 31  1  0  0  0  0
 34 29  1  0  0  0  0
 35 40  1  0  0  0  0
 36 37  1  0  0  0  0
 37 43  1  0  0  0  0
 38 41  1  0  0  0  0
 39 36  2  0  0  0  0
 40 38  2  0  0  0  0
 40 39  1  0  0  0  0
 41 37  2  0  0  0  0
 43 42  2  0  0  0  0
M  END
>  <MODEL>
5

>  <REMARK>
 VINA RESULT:      -5.3      3.284      7.806
  Name = 
  9 active torsions:
  status: ('A' for Active; 'I' for Inactive)
    1  A    between atoms: O_1  and  C_34
    2  A    between atoms: O_1  and  C_35
    3  A    between atoms: C_2  and  N_6
    4  A    between atoms: C_2  and  C_27
    5  A    between atoms: C_4  and  S_12
    6  A    between atoms: N_6  and  S_12
    7  A    between atoms: N_11  and  C_14
    8  A    between atoms: C_14  and  C_22
    9  A    between atoms: C_19  and  C_37
                            x       y       z     vdW  Elec       q    Type
                         _______ _______ _______ _____ _____    ______ ____

>  <TORSDO>
F 9

$$$$
