=
 OpenBabel11062408533D

 55 60  0  0  1  0  0  0  0  0999 V2000
  162.6690  213.4650  148.9070 C   0  0  0  0  0  3  0  0  0  0  0  0
  161.2330  213.4970  146.5050 C   0  0  0  0  0  0  0  0  0  0  0  0
  160.8550  212.6320  147.5370 C   0  0  0  0  0  3  0  0  0  0  0  0
  163.0550  214.3250  147.8730 C   0  0  0  0  0  3  0  0  0  0  0  0
  161.5680  212.6200  148.7380 C   0  0  0  0  0  0  0  0  0  0  0  0
  162.3400  214.3380  146.6710 C   0  0  0  0  0  3  0  0  0  0  0  0
  161.1820  211.7250  149.7890 C   0  0  0  0  0  0  0  0  0  0  0  0
  160.8520  210.9630  150.6640 C   0  0  0  0  0  0  0  0  0  0  0  0
  160.3090  212.1350  155.0510 C   0  0  0  0  0  2  0  0  0  0  0  0
  161.3380  212.0700  157.2500 O   0  0  0  0  0  0  0  0  0  0  0  0
  161.8300  210.5100  154.2440 C   0  0  0  0  0  0  0  0  0  0  0  0
  162.1610  210.7040  155.5670 O   0  0  0  0  0  0  0  0  0  0  0  0
  161.2990  211.6630  156.0610 C   0  0  0  0  0  0  0  0  0  0  0  0
  160.8360  211.5080  153.7540 C   0  0  1  0  0  3  0  0  0  0  0  0
  161.6950  209.2100  152.1380 C   0  0  2  0  0  3  0  0  0  0  0  0
  162.2350  209.4640  153.5270 C   0  0  0  0  0  3  0  0  0  0  0  0
  159.7840  210.7610  152.9320 C   0  0  2  0  0  3  0  0  0  0  0  0
  160.4510  210.0390  151.7320 C   0  0  1  0  0  3  0  0  0  0  0  0
  161.3110  206.8960  152.9920 C   0  0  0  0  0  3  0  0  0  0  0  0
  161.0840  205.0000  151.4900 C   0  0  0  0  0  0  0  0  0  0  0  0
  161.4480  207.2280  150.5960 C   0  0  0  0  0  3  0  0  0  0  0  0
  161.2520  205.8590  150.3940 C   0  0  0  0  0  3  0  0  0  0  0  0
  161.1140  205.5270  152.7890 C   0  0  0  0  0  3  0  0  0  0  0  0
  161.4790  207.7500  151.8980 C   0  0  0  0  0  0  0  0  0  0  0  0
  160.8850  203.5570  151.2720 C   0  0  0  0  0  0  0  0  0  0  0  0
  161.2660  202.6420  152.2470 O   0  0  0  0  0  1  0  0  0  0  0  0
  160.3630  203.1390  150.2040 O   0  0  0  0  0  0  0  0  0  0  0  0
  158.5000  211.5620  152.6350 C   0  0  2  0  0  3  0  0  0  0  0  0
  158.8140  212.9020  151.9850 C   0  0  0  0  0  1  0  0  0  0  0  0
  157.3350  210.7120  154.5640 O   0  0  0  0  0  1  0  0  0  0  0  0
  156.8720  212.8820  154.0000 O   0  0  0  0  0  0  0  0  0  0  0  0
  157.5430  211.6840  153.7880 C   0  0  0  0  0  0  0  0  0  0  0  0
  160.4890  213.4890  145.2170 C   0  0  0  0  0  2  0  0  0  0  0  0
  161.2530  214.1080  144.2260 O   0  0  0  0  0  0  0  0  0  0  0  0
  162.9200  212.9900  142.9540 C   0  0  0  0  0  1  0  0  0  0  0  0
  161.4380  213.1280  143.2500 C   0  0  2  0  0  3  0  0  0  0  0  0
  160.6880  213.5190  141.9890 C   0  0  0  0  0  2  0  0  0  0  0  0
  161.3830  212.9430  140.7610 C   0  0  0  0  0  2  0  0  0  0  0  0
  158.8110  211.6110  137.4580 C   0  0  2  0  0  3  0  0  0  0  0  0
  161.0770  211.3500  138.8100 C   0  0  0  0  0  0  0  0  0  0  0  0
  161.3360  210.5700  141.0310 O   0  0  0  0  0  1  0  0  0  0  0  0
  159.1650  213.5270  138.9960 O   0  0  0  0  0  0  0  0  0  0  0  0
  159.0170  213.1230  137.6400 C   0  0  0  0  0  2  0  0  0  0  0  0
  160.7790  211.6120  140.2850 C   0  0  1  0  0  0  0  0  0  0  0  0
  157.1580  212.1020  139.3300 C   0  0  0  0  0  2  0  0  0  0  0  0
  157.5400  211.1530  138.1920 C   0  0  1  0  0  3  0  0  0  0  0  0
  159.2760  211.6360  140.5970 C   0  0  0  0  0  2  0  0  0  0  0  0
  162.2120  211.5300  138.3960 O   0  0  0  0  0  0  0  0  0  0  0  0
  158.4240  212.7300  139.9200 C   0  0  1  0  0  3  0  0  0  0  0  0
  160.0700  210.7890  137.8260 C   0  0  1  0  0  3  0  0  0  0  0  0
  159.9170  209.2950  137.8630 C   0  0  0  0  0  0  0  0  0  0  0  0
  158.9940  208.6750  137.1270 C   0  0  0  0  0  2  0  0  0  0  0  0
  160.7010  208.5100  138.8560 C   0  0  0  0  0  1  0  0  0  0  0  0
  156.3790  210.9590  137.2250 C   0  0  0  0  0  2  0  0  0  0  0  0
  155.6500  212.1440  137.0780 O   0  0  0  0  0  1  0  0  0  0  0  0
  2  6  2  0  0  0  0
  2  3  1  0  0  0  0
  3  5  2  0  0  0  0
  4  1  2  0  0  0  0
  5  1  1  0  0  0  0
  5  7  1  0  0  0  0
  6  4  1  0  0  0  0
  7  8  3  0  0  0  0
  9 13  1  0  0  0  0
 11 12  1  0  0  0  0
 12 13  1  0  0  0  0
 13 10  2  0  0  0  0
 14 11  1  0  0  0  0
 14  9  1  1  0  0  0
 15 24  1  1  0  0  0
 15 16  1  0  0  0  0
 16 11  2  0  0  0  0
 17 28  1  6  0  0  0
 17 14  1  0  0  0  0
 18  8  1  6  0  0  0
 18 15  1  0  0  0  0
 18 17  1  0  0  0  0
 20 23  2  0  0  0  0
 21 24  1  0  0  0  0
 22 21  2  0  0  0  0
 22 20  1  0  0  0  0
 23 19  1  0  0  0  0
 24 19  2  0  0  0  0
 25 20  1  0  0  0  0
 25 26  1  0  0  0  0
 27 25  2  0  0  0  0
 28 29  1  1  0  0  0
 28 32  1  0  0  0  0
 32 31  2  0  0  0  0
 32 30  1  0  0  0  0
 33  2  1  0  0  0  0
 34 33  1  0  0  0  0
 36 35  1  6  0  0  0
 36 34  1  0  0  0  0
 37 36  1  0  0  0  0
 38 37  1  0  0  0  0
 39 43  1  1  0  0  0
 39 50  1  0  0  0  0
 39 46  1  0  0  0  0
 40 44  1  0  0  0  0
 42 49  1  0  0  0  0
 43 42  1  0  0  0  0
 44 47  1  0  0  0  0
 44 38  1  0  0  0  0
 44 41  1  1  0  0  0
 46 54  1  6  0  0  0
 46 45  1  0  0  0  0
 48 40  2  0  0  0  0
 49 45  1  6  0  0  0
 49 47  1  0  0  0  0
 50 51  1  1  0  0  0
 50 40  1  0  0  0  0
 51 53  1  0  0  0  0
 52 51  2  0  0  0  0
 55 54  1  0  0  0  0
M  END
>  <MODEL>
1

>  <REMARK>
 VINA RESULT:      -5.8      0.000      0.000
  Name = 
  14 active torsions:
  status: ('A' for Active; 'I' for Inactive)
    1  A    between atoms: C_1  and  C_53
    2  A    between atoms: C_2  and  C_44
    3  A    between atoms: C_8  and  C_22
    4  A    between atoms: C_8  and  C_43
    5  A    between atoms: C_10  and  C_32
    6  A    between atoms: C_11  and  C_38
    7  A    between atoms: C_19  and  C_40
    8  A    between atoms: C_19  and  C_45
    9  A    between atoms: C_20  and  C_22
   10  A    between atoms: C_27  and  C_54
   11  A    between atoms: C_28  and  C_49
   12  A    between atoms: C_33  and  C_52
   13  A    between atoms: C_43  and  O_51
   14  A    between atoms: O_51  and  C_54
                            x       y       z     vdW  Elec       q    Type
                         _______ _______ _______ _____ _____    ______ ____

>  <TORSDO>
F 14

$$$$
