=
 OpenBabel11062409593D

 43 48  0  0  1  0  0  0  0  0999 V2000
  161.1360  202.2960  149.1410 C   0  0  0  0  0  0  0  0  0  0  0  0
  160.7500  206.5730  151.9840 C   0  0  1  0  0  3  0  0  0  0  0  0
  162.2940  208.4670  150.5170 C   0  0  2  0  0  3  0  0  0  0  0  0
  161.1360  203.8990  150.9650 C   0  0  0  0  0  0  0  0  0  0  0  0
  161.0310  203.3400  148.2180 C   0  0  0  0  0  3  0  0  0  0  0  0
  161.1920  200.8870  148.6670 C   0  0  0  0  0  1  0  0  0  0  0  0
  161.0110  204.9530  150.0330 C   0  0  0  0  0  0  0  0  0  0  0  0
  161.1810  202.5750  150.5110 C   0  0  0  0  0  3  0  0  0  0  0  0
  160.9670  204.6620  148.6640 C   0  0  0  0  0  3  0  0  0  0  0  0
  162.2280  207.0630  150.0560 N   0  0  0  0  0  2  0  0  0  0  0  0
  160.9900  206.3950  150.4710 C   0  0  2  0  0  3  0  0  0  0  0  0
  161.5680  205.5660  152.7820 C   0  0  0  0  0  2  0  0  0  0  0  0
  161.1480  207.9890  152.4040 C   0  0  1  0  0  3  0  0  0  0  0  0
  161.1680  208.8390  151.2850 O   0  0  0  0  0  0  0  0  0  0  0  0
  161.1130  204.1540  152.4440 C   0  0  0  0  0  2  0  0  0  0  0  0
  162.4410  209.4110  149.3250 C   0  0  1  0  0  3  0  0  0  0  0  0
  161.7280  208.8340  148.1130 C   0  0  0  0  0  1  0  0  0  0  0  0
  161.8520  210.7790  149.6470 C   0  0  0  0  0  2  0  0  0  0  0  0
  162.1020  211.7370  148.5270 C   0  0  0  0  0  0  0  0  0  0  0  0
  163.2360  212.2730  148.4230 O   0  0  0  0  0  0  0  0  0  0  0  0
  161.1100  212.0530  147.5970 O   0  0  0  0  0  0  0  0  0  0  0  0
  161.0530  213.3120  146.9290 C   0  0  1  0  0  3  0  0  0  0  0  0
  159.8980  214.4530  145.1570 C   0  0  0  0  0  2  0  0  0  0  0  0
  161.9850  213.3200  145.7330 C   0  0  0  0  0  2  0  0  0  0  0  0
  159.6470  213.6250  146.4010 C   0  0  1  0  0  0  0  0  0  0  0  0
  158.8750  212.3720  145.9670 C   0  0  0  0  0  1  0  0  0  0  0  0
  161.2700  214.0710  144.6260 C   0  0  0  0  0  2  0  0  0  0  0  0
  158.8970  214.4140  147.3090 O   0  0  0  0  0  0  0  0  0  0  0  0
  157.9960  213.6000  148.0190 C   0  0  2  0  0  3  0  0  0  0  0  0
  157.2320  214.1730  151.6210 C   0  0  0  0  0  1  0  0  0  0  0  0
  156.2740  214.4530  149.4040 N   0  0  0  0  0  0  0  0  0  0  0  0
  157.2620  214.0810  150.1380 C   0  0  0  0  0  0  0  0  0  0  0  0
  156.6030  214.2350  148.0030 C   0  0  0  0  0  2  0  0  0  0  0  0
  158.3680  213.5650  149.4230 N   0  0  0  0  0  2  0  0  0  0  0  0
  160.2410  208.4780  153.3470 O   0  0  0  0  0  0  0  0  0  0  0  0
  160.6110  209.6150  156.8270 C   0  0  0  0  0  2  0  0  0  0  0  0
  160.4300  211.0800  156.3950 C   0  0  1  0  0  0  0  0  0  0  0  0
  159.0350  211.5380  156.7720 C   0  0  0  0  0  1  0  0  0  0  0  0
  161.5660  210.2490  154.2850 C   0  0  0  0  0  2  0  0  0  0  0  0
  160.1830  208.6420  155.7310 C   0  0  0  0  0  2  0  0  0  0  0  0
  161.0170  208.8260  154.4550 C   0  0  1  0  0  3  0  0  0  0  0  0
  161.3560  211.8650  157.0780 O   0  0  0  0  0  1  0  0  0  0  0  0
  160.6190  211.2850  154.8840 C   0  0  0  0  0  2  0  0  0  0  0  0
  1  8  1  0  0  0  0
  2 13  1  0  0  0  0
  2 12  1  1  0  0  0
  3 16  1  6  0  0  0
  3 14  1  0  0  0  0
  4 15  1  0  0  0  0
  5  9  1  0  0  0  0
  5  1  2  0  0  0  0
  6  1  1  0  0  0  0
  7  4  1  0  0  0  0
  8  4  2  0  0  0  0
  9  7  2  0  0  0  0
 10 11  1  0  0  0  0
 10  3  1  0  0  0  0
 11  7  1  1  0  0  0
 11  2  1  0  0  0  0
 13 35  1  1  0  0  0
 14 13  1  0  0  0  0
 15 12  1  0  0  0  0
 16 17  1  6  0  0  0
 16 18  1  0  0  0  0
 19 18  1  0  0  0  0
 20 19  2  0  0  0  0
 21 19  1  0  0  0  0
 22 21  1  6  0  0  0
 23 25  1  0  0  0  0
 24 22  1  0  0  0  0
 25 26  1  6  0  0  0
 25 22  1  0  0  0  0
 25 28  1  0  0  0  0
 27 23  1  0  0  0  0
 27 24  1  0  0  0  0
 29 28  1  6  0  0  0
 29 34  1  0  0  0  0
 31 32  2  0  0  0  0
 32 30  1  0  0  0  0
 33 29  1  0  0  0  0
 33 31  1  0  0  0  0
 34 32  1  0  0  0  0
 37 38  1  1  0  0  0
 37 36  1  0  0  0  0
 37 42  1  0  0  0  0
 39 41  1  0  0  0  0
 39 43  1  0  0  0  0
 40 36  1  0  0  0  0
 41 35  1  6  0  0  0
 41 40  1  0  0  0  0
 43 37  1  0  0  0  0
M  END
>  <MODEL>
1

>  <REMARK>
 VINA RESULT:      -9.2      0.000      0.000
  Name = 
  9 active torsions:
  status: ('A' for Active; 'I' for Inactive)
    1  A    between atoms: O_1  and  C_34
    2  A    between atoms: O_1  and  C_35
    3  A    between atoms: C_2  and  C_6
    4  A    between atoms: C_2  and  C_13
    5  A    between atoms: O_3  and  C_4
    6  A    between atoms: O_3  and  C_12
    7  A    between atoms: C_6  and  C_12
    8  A    between atoms: C_11  and  O_14
    9  A    between atoms: O_14  and  C_22
                            x       y       z     vdW  Elec       q    Type
                         _______ _______ _______ _____ _____    ______ ____

>  <TORSDO>
F 9

$$$$
=
 OpenBabel11062409593D

 43 48  0  0  1  0  0  0  0  0999 V2000
  161.1150  202.4010  149.3030 C   0  0  0  0  0  0  0  0  0  0  0  0
  160.8410  206.8240  151.9280 C   0  0  1  0  0  3  0  0  0  0  0  0
  162.2880  208.6450  150.2800 C   0  0  2  0  0  3  0  0  0  0  0  0
  161.1980  204.1010  151.0350 C   0  0  0  0  0  0  0  0  0  0  0  0
  160.9510  203.3930  148.3320 C   0  0  0  0  0  3  0  0  0  0  0  0
  161.1600  200.9690  148.9030 C   0  0  0  0  0  1  0  0  0  0  0  0
  161.0130  205.1020  150.0560 C   0  0  0  0  0  0  0  0  0  0  0  0
  161.2310  202.7540  150.6510 C   0  0  0  0  0  3  0  0  0  0  0  0
  160.8990  204.7370  148.7090 C   0  0  0  0  0  3  0  0  0  0  0  0
  162.2100  207.2180  149.8990 N   0  0  0  0  0  2  0  0  0  0  0  0
  161.0020  206.5650  150.4160 C   0  0  2  0  0  3  0  0  0  0  0  0
  161.7110  205.8670  152.7340 C   0  0  0  0  0  2  0  0  0  0  0  0
  161.2480  208.2630  152.2480 C   0  0  1  0  0  3  0  0  0  0  0  0
  161.2010  209.0510  151.0860 O   0  0  0  0  0  0  0  0  0  0  0  0
  161.2510  204.4360  152.4970 C   0  0  0  0  0  2  0  0  0  0  0  0
  162.3620  209.5240  149.0320 C   0  0  1  0  0  3  0  0  0  0  0  0
  161.5440  208.9050  147.9110 C   0  0  0  0  0  1  0  0  0  0  0  0
  161.8310  210.9210  149.3270 C   0  0  0  0  0  2  0  0  0  0  0  0
  162.3560  211.9050  148.3320 C   0  0  0  0  0  0  0  0  0  0  0  0
  163.5870  211.9140  148.0720 O   0  0  0  0  0  0  0  0  0  0  0  0
  161.5160  212.8150  147.6860 O   0  0  0  0  0  0  0  0  0  0  0  0
  160.2130  212.4670  147.2240 C   0  0  1  0  0  3  0  0  0  0  0  0
  158.4030  213.3080  145.8850 C   0  0  0  0  0  2  0  0  0  0  0  0
  159.1570  212.9770  148.1850 C   0  0  0  0  0  2  0  0  0  0  0  0
  159.9010  213.0800  145.8520 C   0  0  1  0  0  0  0  0  0  0  0  0
  160.5660  214.4470  145.6400 C   0  0  0  0  0  1  0  0  0  0  0  0
  158.0000  213.4750  147.3400 C   0  0  0  0  0  2  0  0  0  0  0  0
  160.1860  212.1880  144.7890 O   0  0  0  0  0  0  0  0  0  0  0  0
  160.5610  212.9130  143.6440 C   0  0  2  0  0  3  0  0  0  0  0  0
  162.3270  211.3110  140.7800 C   0  0  0  0  0  1  0  0  0  0  0  0
  160.1490  212.1710  141.4320 N   0  0  0  0  0  0  0  0  0  0  0  0
  161.3740  211.9290  141.7380 C   0  0  0  0  0  0  0  0  0  0  0  0
  159.4770  212.7790  142.5700 C   0  0  0  0  0  2  0  0  0  0  0  0
  161.7430  212.3140  143.0480 N   0  0  0  0  0  2  0  0  0  0  0  0
  160.3880  208.7970  153.2110 O   0  0  0  0  0  0  0  0  0  0  0  0
  161.4410  210.7500  156.1470 C   0  0  0  0  0  2  0  0  0  0  0  0
  160.1430  211.5710  156.0980 C   0  0  1  0  0  0  0  0  0  0  0  0
  159.2140  211.0940  157.1970 C   0  0  0  0  0  1  0  0  0  0  0  0
  160.3720  211.1670  153.6050 C   0  0  0  0  0  2  0  0  0  0  0  0
  161.3510  209.4920  155.2860 C   0  0  0  0  0  2  0  0  0  0  0  0
  161.1070  209.8350  153.8090 C   0  0  1  0  0  3  0  0  0  0  0  0
  160.4520  212.9100  156.3270 O   0  0  0  0  0  1  0  0  0  0  0  0
  159.4090  211.4510  154.7540 C   0  0  0  0  0  2  0  0  0  0  0  0
  1  8  1  0  0  0  0
  2 13  1  0  0  0  0
  2 12  1  1  0  0  0
  3 16  1  6  0  0  0
  3 14  1  0  0  0  0
  4 15  1  0  0  0  0
  5  9  1  0  0  0  0
  5  1  2  0  0  0  0
  6  1  1  0  0  0  0
  7 11  1  0  0  0  0
  7  4  1  0  0  0  0
  8  4  2  0  0  0  0
  9  7  2  0  0  0  0
 10  3  1  0  0  0  0
 11 10  1  1  0  0  0
 11  2  1  0  0  0  0
 13 35  1  1  0  0  0
 14 13  1  0  0  0  0
 15 12  1  0  0  0  0
 16 17  1  6  0  0  0
 16 18  1  0  0  0  0
 19 18  1  0  0  0  0
 20 19  2  0  0  0  0
 21 19  1  0  0  0  0
 22 21  1  1  0  0  0
 22 24  1  0  0  0  0
 23 27  1  0  0  0  0
 25 26  1  6  0  0  0
 25 23  1  0  0  0  0
 25 22  1  0  0  0  0
 27 24  1  0  0  0  0
 28 25  1  0  0  0  0
 29 28  1  1  0  0  0
 30 32  1  0  0  0  0
 31 32  2  0  0  0  0
 31 33  1  0  0  0  0
 32 34  1  0  0  0  0
 33 29  1  0  0  0  0
 34 29  1  0  0  0  0
 37 36  1  0  0  0  0
 37 42  1  0  0  0  0
 37 38  1  1  0  0  0
 39 41  1  0  0  0  0
 39 43  1  0  0  0  0
 40 36  1  0  0  0  0
 41 35  1  1  0  0  0
 41 40  1  0  0  0  0
 43 37  1  0  0  0  0
M  END
>  <MODEL>
2

>  <REMARK>
 VINA RESULT:      -9.0      2.146      3.486
  Name = 
  9 active torsions:
  status: ('A' for Active; 'I' for Inactive)
    1  A    between atoms: O_1  and  C_34
    2  A    between atoms: O_1  and  C_35
    3  A    between atoms: C_2  and  C_6
    4  A    between atoms: C_2  and  C_13
    5  A    between atoms: O_3  and  C_4
    6  A    between atoms: O_3  and  C_12
    7  A    between atoms: C_6  and  C_12
    8  A    between atoms: C_11  and  O_14
    9  A    between atoms: O_14  and  C_22
                            x       y       z     vdW  Elec       q    Type
                         _______ _______ _______ _____ _____    ______ ____

>  <TORSDO>
F 9

$$$$
=
 OpenBabel11062409593D

 43 48  0  0  1  0  0  0  0  0999 V2000
  161.0880  203.6330  149.7060 C   0  0  0  0  0  0  0  0  0  0  0  0
  160.8600  207.8940  152.5910 C   0  0  1  0  0  3  0  0  0  0  0  0
  162.1640  209.8430  150.9710 C   0  0  2  0  0  3  0  0  0  0  0  0
  161.2310  205.2350  151.5250 C   0  0  0  0  0  0  0  0  0  0  0  0
  160.8440  204.6720  148.8040 C   0  0  0  0  0  3  0  0  0  0  0  0
  161.1440  202.2270  149.2240 C   0  0  0  0  0  1  0  0  0  0  0  0
  160.9650  206.2840  150.6170 C   0  0  0  0  0  0  0  0  0  0  0  0
  161.2740  203.9140  151.0640 C   0  0  0  0  0  3  0  0  0  0  0  0
  160.7820  205.9910  149.2590 C   0  0  0  0  0  3  0  0  0  0  0  0
  162.0990  208.4370  150.5140 N   0  0  0  0  0  2  0  0  0  0  0  0
  160.9390  207.7240  151.0600 C   0  0  2  0  0  3  0  0  0  0  0  0
  161.7980  206.9180  153.2910 C   0  0  0  0  0  2  0  0  0  0  0  0
  161.2500  209.3230  152.9700 C   0  0  1  0  0  3  0  0  0  0  0  0
  161.1160  210.1740  151.8590 O   0  0  0  0  0  0  0  0  0  0  0  0
  161.3600  205.4890  152.9990 C   0  0  0  0  0  2  0  0  0  0  0  0
  162.1430  210.7920  149.7730 C   0  0  1  0  0  3  0  0  0  0  0  0
  161.8650  210.0140  148.4970 C   0  0  0  0  0  1  0  0  0  0  0  0
  161.0720  211.8590  149.9520 C   0  0  0  0  0  2  0  0  0  0  0  0
  161.3940  213.0700  149.1360 C   0  0  0  0  0  0  0  0  0  0  0  0
  161.0450  214.2030  149.5590 O   0  0  0  0  0  0  0  0  0  0  0  0
  162.0680  212.9760  147.9170 O   0  0  0  0  0  0  0  0  0  0  0  0
  161.8450  213.8850  146.8410 C   0  0  1  0  0  3  0  0  0  0  0  0
  160.8080  214.0230  144.6780 C   0  0  0  0  0  2  0  0  0  0  0  0
  162.9560  213.7740  145.8150 C   0  0  0  0  0  2  0  0  0  0  0  0
  160.5290  213.6000  146.1050 C   0  0  1  0  0  0  0  0  0  0  0  0
  160.1660  212.1100  146.0780 C   0  0  0  0  0  1  0  0  0  0  0  0
  162.3050  213.8970  144.4500 C   0  0  0  0  0  2  0  0  0  0  0  0
  159.4590  214.3910  146.5950 O   0  0  0  0  0  0  0  0  0  0  0  0
  158.3140  213.5930  146.7660 C   0  0  2  0  0  3  0  0  0  0  0  0
  156.1480  213.8680  149.7860 C   0  0  0  0  0  1  0  0  0  0  0  0
  156.2080  214.4530  147.4280 N   0  0  0  0  0  0  0  0  0  0  0  0
  156.7870  213.9230  148.4450 C   0  0  0  0  0  0  0  0  0  0  0  0
  157.0790  214.3480  146.2670 C   0  0  0  0  0  2  0  0  0  0  0  0
  158.0680  213.3850  148.1830 N   0  0  0  0  0  2  0  0  0  0  0  0
  160.4350  209.7790  154.0080 O   0  0  0  0  0  0  0  0  0  0  0  0
  159.4000  213.2200  154.8050 C   0  0  0  0  0  2  0  0  0  0  0  0
  157.9460  212.7630  155.0060 C   0  0  1  0  0  0  0  0  0  0  0  0
  157.6440  212.7110  156.4910 C   0  0  0  0  0  1  0  0  0  0  0  0
  158.5770  211.0800  153.2170 C   0  0  0  0  0  2  0  0  0  0  0  0
  160.3690  212.0400  154.7840 C   0  0  0  0  0  2  0  0  0  0  0  0
  160.0540  211.0700  153.6360 C   0  0  1  0  0  3  0  0  0  0  0  0
  157.0980  213.6950  154.4120 O   0  0  0  0  0  1  0  0  0  0  0  0
  157.6650  211.3780  154.4030 C   0  0  0  0  0  2  0  0  0  0  0  0
  1  8  1  0  0  0  0
  2 13  1  0  0  0  0
  2 12  1  1  0  0  0
  3 16  1  6  0  0  0
  3 14  1  0  0  0  0
  4 15  1  0  0  0  0
  5  9  1  0  0  0  0
  5  1  2  0  0  0  0
  6  1  1  0  0  0  0
  7 11  1  0  0  0  0
  7  4  1  0  0  0  0
  8  4  2  0  0  0  0
  9  7  2  0  0  0  0
 10  3  1  0  0  0  0
 11 10  1  1  0  0  0
 11  2  1  0  0  0  0
 13 35  1  1  0  0  0
 14 13  1  0  0  0  0
 15 12  1  0  0  0  0
 16 17  1  6  0  0  0
 16 18  1  0  0  0  0
 19 20  2  0  0  0  0
 19 18  1  0  0  0  0
 21 19  1  0  0  0  0
 22 21  1  1  0  0  0
 23 25  1  0  0  0  0
 24 22  1  0  0  0  0
 25 26  1  1  0  0  0
 25 28  1  0  0  0  0
 25 22  1  0  0  0  0
 27 23  1  0  0  0  0
 27 24  1  0  0  0  0
 29 28  1  1  0  0  0
 29 34  1  0  0  0  0
 31 32  2  0  0  0  0
 32 30  1  0  0  0  0
 33 29  1  0  0  0  0
 33 31  1  0  0  0  0
 34 32  1  0  0  0  0
 36 37  1  0  0  0  0
 37 38  1  1  0  0  0
 39 41  1  0  0  0  0
 39 43  1  0  0  0  0
 40 36  1  0  0  0  0
 41 35  1  1  0  0  0
 41 40  1  0  0  0  0
 42 37  1  0  0  0  0
 43 37  1  0  0  0  0
M  END
>  <MODEL>
3

>  <REMARK>
 VINA RESULT:      -8.3      1.640      2.049
  Name = 
  9 active torsions:
  status: ('A' for Active; 'I' for Inactive)
    1  A    between atoms: O_1  and  C_34
    2  A    between atoms: O_1  and  C_35
    3  A    between atoms: C_2  and  C_6
    4  A    between atoms: C_2  and  C_13
    5  A    between atoms: O_3  and  C_4
    6  A    between atoms: O_3  and  C_12
    7  A    between atoms: C_6  and  C_12
    8  A    between atoms: C_11  and  O_14
    9  A    between atoms: O_14  and  C_22
                            x       y       z     vdW  Elec       q    Type
                         _______ _______ _______ _____ _____    ______ ____

>  <TORSDO>
F 9

$$$$
=
 OpenBabel11062409593D

 43 48  0  0  1  0  0  0  0  0999 V2000
  160.9770  202.6840  150.0010 C   0  0  0  0  0  0  0  0  0  0  0  0
  161.9030  207.6930  149.2400 C   0  0  1  0  0  3  0  0  0  0  0  0
  160.7610  208.9200  151.5460 C   0  0  2  0  0  3  0  0  0  0  0  0
  161.1420  204.9130  149.0530 C   0  0  0  0  0  0  0  0  0  0  0  0
  161.2960  203.1920  151.2630 C   0  0  0  0  0  3  0  0  0  0  0  0
  160.7180  201.2290  149.8280 C   0  0  0  0  0  1  0  0  0  0  0  0
  161.4830  205.4240  150.3250 C   0  0  0  0  0  0  0  0  0  0  0  0
  160.9080  203.5420  148.8980 C   0  0  0  0  0  3  0  0  0  0  0  0
  161.5490  204.5570  151.4220 C   0  0  0  0  0  3  0  0  0  0  0  0
  160.6230  207.4600  151.3500 N   0  0  0  0  0  2  0  0  0  0  0  0
  161.7140  206.8970  150.5480 C   0  0  2  0  0  3  0  0  0  0  0  0
  160.8930  207.2500  148.1890 C   0  0  0  0  0  2  0  0  0  0  0  0
  161.7180  209.1860  149.5170 C   0  0  1  0  0  3  0  0  0  0  0  0
  161.8920  209.4510  150.8860 O   0  0  0  0  0  0  0  0  0  0  0  0
  161.1320  205.7890  147.8340 C   0  0  0  0  0  2  0  0  0  0  0  0
  160.8300  209.2510  153.0360 C   0  0  1  0  0  3  0  0  0  0  0  0
  161.6530  208.2020  153.7650 C   0  0  0  0  0  1  0  0  0  0  0  0
  161.4590  210.6210  153.2530 C   0  0  0  0  0  2  0  0  0  0  0  0
  161.3910  211.0100  154.6950 C   0  0  0  0  0  0  0  0  0  0  0  0
  162.2730  210.5860  155.4850 O   0  0  0  0  0  0  0  0  0  0  0  0
  160.3720  211.8280  155.1870 O   0  0  0  0  0  0  0  0  0  0  0  0
  159.0600  211.8460  154.6280 C   0  0  1  0  0  3  0  0  0  0  0  0
  156.9410  212.9600  154.8340 C   0  0  0  0  0  2  0  0  0  0  0  0
  158.1450  210.9100  155.3940 C   0  0  0  0  0  2  0  0  0  0  0  0
  158.4230  213.2410  154.6890 C   0  0  1  0  0  0  0  0  0  0  0  0
  158.8580  214.0470  155.9200 C   0  0  0  0  0  1  0  0  0  0  0  0
  156.7980  211.5990  155.4930 C   0  0  0  0  0  2  0  0  0  0  0  0
  158.6160  213.9710  153.4900 O   0  0  0  0  0  0  0  0  0  0  0  0
  158.6500  213.0900  152.3940 C   0  0  2  0  0  3  0  0  0  0  0  0
  157.0540  213.9300  149.1320 C   0  0  0  0  0  1  0  0  0  0  0  0
  159.2330  213.7560  150.1970 N   0  0  0  0  0  0  0  0  0  0  0  0
  157.9540  213.6700  150.2870 C   0  0  0  0  0  0  0  0  0  0  0  0
  159.8310  213.4410  151.4860 C   0  0  0  0  0  2  0  0  0  0  0  0
  157.4750  213.2940  151.5640 N   0  0  0  0  0  2  0  0  0  0  0  0
  162.6430  209.9250  148.7760 O   0  0  0  0  0  0  0  0  0  0  0  0
  160.7170  212.7050  147.3250 C   0  0  0  0  0  2  0  0  0  0  0  0
  161.8860  213.0630  146.3940 C   0  0  1  0  0  0  0  0  0  0  0  0
  161.5660  212.5830  144.9910 C   0  0  0  0  0  1  0  0  0  0  0  0
  163.2650  212.2050  148.3410 C   0  0  0  0  0  2  0  0  0  0  0  0
  160.8880  211.3210  147.9470 C   0  0  0  0  0  2  0  0  0  0  0  0
  162.1640  211.2370  148.7970 C   0  0  1  0  0  3  0  0  0  0  0  0
  162.0300  214.4480  146.3680 O   0  0  0  0  0  1  0  0  0  0  0  0
  163.2160  212.4310  146.8330 C   0  0  0  0  0  2  0  0  0  0  0  0
  1  5  1  0  0  0  0
  2 12  1  6  0  0  0
  2 13  1  0  0  0  0
  2 11  1  0  0  0  0
  3 16  1  1  0  0  0
  4  7  2  0  0  0  0
  5  9  2  0  0  0  0
  6  1  1  0  0  0  0
  7  9  1  0  0  0  0
  8  4  1  0  0  0  0
  8  1  2  0  0  0  0
 10  3  1  0  0  0  0
 11  7  1  6  0  0  0
 11 10  1  0  0  0  0
 13 35  1  6  0  0  0
 13 14  1  0  0  0  0
 14  3  1  0  0  0  0
 15 12  1  0  0  0  0
 15  4  1  0  0  0  0
 16 18  1  0  0  0  0
 16 17  1  1  0  0  0
 18 19  1  0  0  0  0
 19 21  1  0  0  0  0
 19 20  2  0  0  0  0
 22 25  1  0  0  0  0
 22 21  1  1  0  0  0
 22 24  1  0  0  0  0
 23 27  1  0  0  0  0
 24 27  1  0  0  0  0
 25 23  1  0  0  0  0
 25 26  1  1  0  0  0
 28 25  1  0  0  0  0
 29 28  1  1  0  0  0
 30 32  1  0  0  0  0
 31 32  2  0  0  0  0
 31 33  1  0  0  0  0
 32 34  1  0  0  0  0
 33 29  1  0  0  0  0
 34 29  1  0  0  0  0
 36 40  1  0  0  0  0
 37 38  1  6  0  0  0
 37 43  1  0  0  0  0
 37 36  1  0  0  0  0
 39 41  1  0  0  0  0
 40 41  1  0  0  0  0
 41 35  1  6  0  0  0
 42 37  1  0  0  0  0
 43 39  1  0  0  0  0
M  END
>  <MODEL>
4

>  <REMARK>
 VINA RESULT:      -8.3      1.814      6.378
  Name = 
  9 active torsions:
  status: ('A' for Active; 'I' for Inactive)
    1  A    between atoms: O_1  and  C_34
    2  A    between atoms: O_1  and  C_35
    3  A    between atoms: C_2  and  C_6
    4  A    between atoms: C_2  and  C_13
    5  A    between atoms: O_3  and  C_4
    6  A    between atoms: O_3  and  C_12
    7  A    between atoms: C_6  and  C_12
    8  A    between atoms: C_11  and  O_14
    9  A    between atoms: O_14  and  C_22
                            x       y       z     vdW  Elec       q    Type
                         _______ _______ _______ _____ _____    ______ ____

>  <TORSDO>
F 9

$$$$
=
 OpenBabel11062409593D

 43 48  0  0  1  0  0  0  0  0999 V2000
  160.8360  202.0490  146.2170 C   0  0  0  0  0  0  0  0  0  0  0  0
  161.7940  206.8870  147.7030 C   0  0  1  0  0  3  0  0  0  0  0  0
  160.9240  206.9140  150.4180 C   0  0  2  0  0  3  0  0  0  0  0  0
  160.9540  204.4700  146.3640 C   0  0  0  0  0  0  0  0  0  0  0  0
  161.2950  201.9430  147.5330 C   0  0  0  0  0  3  0  0  0  0  0  0
  160.5260  200.8220  145.4350 C   0  0  0  0  0  1  0  0  0  0  0  0
  161.4360  204.3630  147.6870 C   0  0  0  0  0  0  0  0  0  0  0  0
  160.6730  203.3100  145.6320 C   0  0  0  0  0  3  0  0  0  0  0  0
  161.5940  203.0960  148.2630 C   0  0  0  0  0  3  0  0  0  0  0  0
  160.7330  205.6950  149.6010 N   0  0  0  0  0  2  0  0  0  0  0  0
  161.7230  205.5820  148.5240 C   0  0  2  0  0  3  0  0  0  0  0  0
  160.6720  206.9390  146.6750 C   0  0  0  0  0  2  0  0  0  0  0  0
  161.6730  208.0890  148.6400 C   0  0  1  0  0  3  0  0  0  0  0  0
  161.9930  207.7140  149.9560 O   0  0  0  0  0  0  0  0  0  0  0  0
  160.8380  205.8010  145.6780 C   0  0  0  0  0  2  0  0  0  0  0  0
  161.1540  206.5410  151.8820 C   0  0  1  0  0  3  0  0  0  0  0  0
  162.5190  205.8910  152.0460 C   0  0  0  0  0  1  0  0  0  0  0  0
  161.0780  207.7760  152.7690 C   0  0  0  0  0  2  0  0  0  0  0  0
  160.8240  207.3890  154.1910 C   0  0  0  0  0  0  0  0  0  0  0  0
  160.3910  206.2340  154.4420 O   0  0  0  0  0  0  0  0  0  0  0  0
  161.0520  208.2750  155.2450 O   0  0  0  0  0  0  0  0  0  0  0  0
  160.1390  209.3140  155.5900 C   0  0  1  0  0  3  0  0  0  0  0  0
  160.0160  211.6970  155.8720 C   0  0  0  0  0  2  0  0  0  0  0  0
  160.1800  209.5820  157.0820 C   0  0  0  0  0  2  0  0  0  0  0  0
  160.4740  210.6380  154.8900 C   0  0  1  0  0  0  0  0  0  0  0  0
  161.9800  210.8370  154.6730 C   0  0  0  0  0  1  0  0  0  0  0  0
  160.0670  211.0840  157.2610 C   0  0  0  0  0  2  0  0  0  0  0  0
  159.7440  210.8080  153.6880 O   0  0  0  0  0  0  0  0  0  0  0  0
  159.3440  212.1500  153.5580 C   0  0  2  0  0  3  0  0  0  0  0  0
  159.2620  213.8770  150.2560 C   0  0  0  0  0  1  0  0  0  0  0  0
  157.7950  212.9020  151.9310 N   0  0  0  0  0  0  0  0  0  0  0  0
  158.9880  213.1690  151.5340 C   0  0  0  0  0  0  0  0  0  0  0  0
  157.8540  212.2140  153.2120 C   0  0  0  0  0  2  0  0  0  0  0  0
  160.0110  212.7530  152.4170 N   0  0  0  0  0  2  0  0  0  0  0  0
  162.5340  209.1070  148.2220 O   0  0  0  0  0  0  0  0  0  0  0  0
  160.8970  212.3280  147.5230 C   0  0  0  0  0  2  0  0  0  0  0  0
  162.2610  213.0060  147.3200 C   0  0  1  0  0  0  0  0  0  0  0  0
  162.4960  213.2120  145.8360 C   0  0  0  0  0  1  0  0  0  0  0  0
  162.9900  211.3120  149.0600 C   0  0  0  0  0  2  0  0  0  0  0  0
  161.0110  210.8060  147.5060 C   0  0  0  0  0  2  0  0  0  0  0  0
  161.9230  210.2950  148.6310 C   0  0  1  0  0  3  0  0  0  0  0  0
  162.2390  214.2510  147.9440 O   0  0  0  0  0  1  0  0  0  0  0  0
  163.4290  212.1840  147.8880 C   0  0  0  0  0  2  0  0  0  0  0  0
  1  5  1  0  0  0  0
  2 12  1  6  0  0  0
  2 11  1  0  0  0  0
  2 13  1  0  0  0  0
  3 16  1  1  0  0  0
  4  7  2  0  0  0  0
  5  9  2  0  0  0  0
  6  1  1  0  0  0  0
  7  9  1  0  0  0  0
  8  1  2  0  0  0  0
  8  4  1  0  0  0  0
 10  3  1  0  0  0  0
 11  7  1  6  0  0  0
 11 10  1  0  0  0  0
 13 35  1  6  0  0  0
 13 14  1  0  0  0  0
 14  3  1  0  0  0  0
 15  4  1  0  0  0  0
 15 12  1  0  0  0  0
 16 17  1  6  0  0  0
 16 18  1  0  0  0  0
 18 19  1  0  0  0  0
 19 20  2  0  0  0  0
 19 21  1  0  0  0  0
 22 21  1  1  0  0  0
 22 24  1  0  0  0  0
 23 27  1  0  0  0  0
 24 27  1  0  0  0  0
 25 26  1  6  0  0  0
 25 22  1  0  0  0  0
 25 23  1  0  0  0  0
 28 25  1  0  0  0  0
 29 28  1  6  0  0  0
 30 32  1  0  0  0  0
 31 33  1  0  0  0  0
 32 31  2  0  0  0  0
 32 34  1  0  0  0  0
 33 29  1  0  0  0  0
 34 29  1  0  0  0  0
 37 38  1  6  0  0  0
 37 36  1  0  0  0  0
 37 43  1  0  0  0  0
 37 42  1  0  0  0  0
 40 36  1  0  0  0  0
 40 41  1  0  0  0  0
 41 35  1  6  0  0  0
 41 39  1  0  0  0  0
 43 39  1  0  0  0  0
M  END
>  <MODEL>
5

>  <REMARK>
 VINA RESULT:      -7.7      1.958      6.783
  Name = 
  9 active torsions:
  status: ('A' for Active; 'I' for Inactive)
    1  A    between atoms: O_1  and  C_34
    2  A    between atoms: O_1  and  C_35
    3  A    between atoms: C_2  and  C_6
    4  A    between atoms: C_2  and  C_13
    5  A    between atoms: O_3  and  C_4
    6  A    between atoms: O_3  and  C_12
    7  A    between atoms: C_6  and  C_12
    8  A    between atoms: C_11  and  O_14
    9  A    between atoms: O_14  and  C_22
                            x       y       z     vdW  Elec       q    Type
                         _______ _______ _______ _____ _____    ______ ____

>  <TORSDO>
F 9

$$$$
=
 OpenBabel11062409593D

 43 48  0  0  1  0  0  0  0  0999 V2000
  160.8200  202.1140  146.2070 C   0  0  0  0  0  0  0  0  0  0  0  0
  161.8050  206.9360  147.7240 C   0  0  1  0  0  3  0  0  0  0  0  0
  160.8330  206.9830  150.4030 C   0  0  2  0  0  3  0  0  0  0  0  0
  160.9740  204.5320  146.3560 C   0  0  0  0  0  0  0  0  0  0  0  0
  161.2260  202.0020  147.5390 C   0  0  0  0  0  3  0  0  0  0  0  0
  160.5190  200.8900  145.4160 C   0  0  0  0  0  1  0  0  0  0  0  0
  161.4040  204.4190  147.6960 C   0  0  0  0  0  0  0  0  0  0  0  0
  160.7010  203.3750  145.6150 C   0  0  0  0  0  3  0  0  0  0  0  0
  161.5180  203.1500  148.2790 C   0  0  0  0  0  3  0  0  0  0  0  0
  160.6520  205.7670  149.5810 N   0  0  0  0  0  2  0  0  0  0  0  0
  161.6800  205.6350  148.5420 C   0  0  2  0  0  3  0  0  0  0  0  0
  160.7230  207.0060  146.6530 C   0  0  0  0  0  2  0  0  0  0  0  0
  161.6690  208.1430  148.6540 C   0  0  1  0  0  3  0  0  0  0  0  0
  161.9320  207.7640  149.9820 O   0  0  0  0  0  0  0  0  0  0  0  0
  160.9080  205.8630  145.6650 C   0  0  0  0  0  2  0  0  0  0  0  0
  161.0000  206.6090  151.8750 C   0  0  1  0  0  3  0  0  0  0  0  0
  161.9900  205.4640  152.0120 C   0  0  0  0  0  1  0  0  0  0  0  0
  161.5000  207.8020  152.6790 C   0  0  0  0  0  2  0  0  0  0  0  0
  160.8330  207.8530  154.0160 C   0  0  0  0  0  0  0  0  0  0  0  0
  160.7290  206.7940  154.6890 O   0  0  0  0  0  0  0  0  0  0  0  0
  160.3190  209.0430  154.5350 O   0  0  0  0  0  0  0  0  0  0  0  0
  160.6950  209.5520  155.8130 C   0  0  1  0  0  3  0  0  0  0  0  0
  161.4660  211.5580  156.8880 C   0  0  0  0  0  2  0  0  0  0  0  0
  162.1860  209.3860  156.0320 C   0  0  0  0  0  2  0  0  0  0  0  0
  160.3870  211.0490  155.9540 C   0  0  1  0  0  0  0  0  0  0  0  0
  160.5270  211.8180  154.6340 C   0  0  0  0  0  1  0  0  0  0  0  0
  162.6660  210.6370  156.7430 C   0  0  0  0  0  2  0  0  0  0  0  0
  159.1310  211.2830  156.5670 O   0  0  0  0  0  0  0  0  0  0  0  0
  158.1900  211.6680  155.5960 C   0  0  2  0  0  3  0  0  0  0  0  0
  154.8150  210.1020  155.3830 C   0  0  0  0  0  1  0  0  0  0  0  0
  155.9230  212.1480  156.0880 N   0  0  0  0  0  0  0  0  0  0  0  0
  156.0080  210.9600  155.6030 C   0  0  0  0  0  0  0  0  0  0  0  0
  157.2530  212.7310  156.1770 C   0  0  0  0  0  2  0  0  0  0  0  0
  157.3210  210.5470  155.2810 N   0  0  0  0  0  2  0  0  0  0  0  0
  162.5620  209.1440  148.2670 O   0  0  0  0  0  0  0  0  0  0  0  0
  160.9460  212.3620  147.5080 C   0  0  0  0  0  2  0  0  0  0  0  0
  162.3150  213.0280  147.2950 C   0  0  1  0  0  0  0  0  0  0  0  0
  162.5520  213.2060  145.8080 C   0  0  0  0  0  1  0  0  0  0  0  0
  163.0300  211.3610  149.0660 C   0  0  0  0  0  2  0  0  0  0  0  0
  161.0510  210.8390  147.5190 C   0  0  0  0  0  2  0  0  0  0  0  0
  161.9580  210.3430  148.6540 C   0  0  1  0  0  3  0  0  0  0  0  0
  162.2990  214.2850  147.8960 O   0  0  0  0  0  1  0  0  0  0  0  0
  163.4760  212.2100  147.8790 C   0  0  0  0  0  2  0  0  0  0  0  0
  1  5  1  0  0  0  0
  2 12  1  6  0  0  0
  2 11  1  0  0  0  0
  2 13  1  0  0  0  0
  3 16  1  1  0  0  0
  4  7  2  0  0  0  0
  5  9  2  0  0  0  0
  6  1  1  0  0  0  0
  7  9  1  0  0  0  0
  8  1  2  0  0  0  0
  8  4  1  0  0  0  0
 10  3  1  0  0  0  0
 11  7  1  6  0  0  0
 11 10  1  0  0  0  0
 13 35  1  6  0  0  0
 13 14  1  0  0  0  0
 14  3  1  0  0  0  0
 15  4  1  0  0  0  0
 15 12  1  0  0  0  0
 16 17  1  6  0  0  0
 16 18  1  0  0  0  0
 18 19  1  0  0  0  0
 19 21  1  0  0  0  0
 19 20  2  0  0  0  0
 22 21  1  6  0  0  0
 22 25  1  0  0  0  0
 22 24  1  0  0  0  0
 24 27  1  0  0  0  0
 25 26  1  6  0  0  0
 25 28  1  0  0  0  0
 25 23  1  0  0  0  0
 27 23  1  0  0  0  0
 29 33  1  0  0  0  0
 29 28  1  1  0  0  0
 30 32  1  0  0  0  0
 31 33  1  0  0  0  0
 32 31  2  0  0  0  0
 34 29  1  0  0  0  0
 34 32  1  0  0  0  0
 36 40  1  0  0  0  0
 37 38  1  6  0  0  0
 37 36  1  0  0  0  0
 37 43  1  0  0  0  0
 37 42  1  0  0  0  0
 40 41  1  0  0  0  0
 41 35  1  6  0  0  0
 41 39  1  0  0  0  0
 43 39  1  0  0  0  0
M  END
>  <MODEL>
6

>  <REMARK>
 VINA RESULT:      -7.6      2.548      7.151
  Name = 
  9 active torsions:
  status: ('A' for Active; 'I' for Inactive)
    1  A    between atoms: O_1  and  C_34
    2  A    between atoms: O_1  and  C_35
    3  A    between atoms: C_2  and  C_6
    4  A    between atoms: C_2  and  C_13
    5  A    between atoms: O_3  and  C_4
    6  A    between atoms: O_3  and  C_12
    7  A    between atoms: C_6  and  C_12
    8  A    between atoms: C_11  and  O_14
    9  A    between atoms: O_14  and  C_22
                            x       y       z     vdW  Elec       q    Type
                         _______ _______ _______ _____ _____    ______ ____

>  <TORSDO>
F 9

$$$$
=
 OpenBabel11062409593D

 43 48  0  0  1  0  0  0  0  0999 V2000
  161.4540  204.5430  146.8110 C   0  0  0  0  0  0  0  0  0  0  0  0
  161.1570  207.8080  150.7830 C   0  0  1  0  0  3  0  0  0  0  0  0
  162.3560  210.1830  149.7600 C   0  0  2  0  0  3  0  0  0  0  0  0
  161.5880  205.5730  149.0050 C   0  0  0  0  0  0  0  0  0  0  0  0
  161.1540  205.7840  146.2430 C   0  0  0  0  0  3  0  0  0  0  0  0
  161.5440  203.3330  145.9510 C   0  0  0  0  0  1  0  0  0  0  0  0
  161.2660  206.8240  148.4340 C   0  0  0  0  0  0  0  0  0  0  0  0
  161.6630  204.4370  148.1900 C   0  0  0  0  0  3  0  0  0  0  0  0
  161.0590  206.9180  147.0520 C   0  0  0  0  0  3  0  0  0  0  0  0
  162.3260  208.9610  148.9260 N   0  0  0  0  0  2  0  0  0  0  0  0
  161.2040  208.0790  149.2650 C   0  0  2  0  0  3  0  0  0  0  0  0
  162.1440  206.7120  151.1660 C   0  0  0  0  0  2  0  0  0  0  0  0
  161.5090  209.0870  151.5440 C   0  0  1  0  0  3  0  0  0  0  0  0
  161.3200  210.2100  150.7200 O   0  0  0  0  0  0  0  0  0  0  0  0
  161.7460  205.4070  150.4890 C   0  0  0  0  0  2  0  0  0  0  0  0
  162.2750  211.4290  148.8780 C   0  0  1  0  0  3  0  0  0  0  0  0
  163.6170  211.6830  148.2110 C   0  0  0  0  0  1  0  0  0  0  0  0
  161.2060  211.2600  147.8070 C   0  0  0  0  0  2  0  0  0  0  0  0
  160.8830  212.5750  147.1730 C   0  0  0  0  0  0  0  0  0  0  0  0
  160.2730  213.4450  147.8480 O   0  0  0  0  0  0  0  0  0  0  0  0
  161.2360  212.8610  145.8530 O   0  0  0  0  0  0  0  0  0  0  0  0
  160.3870  212.5650  144.7460 C   0  0  1  0  0  3  0  0  0  0  0  0
  159.7330  213.4140  142.5950 C   0  0  0  0  0  2  0  0  0  0  0  0
  159.0320  213.2230  144.9280 C   0  0  0  0  0  2  0  0  0  0  0  0
  160.9600  213.0840  143.4210 C   0  0  1  0  0  0  0  0  0  0  0  0
  161.7650  214.3800  143.5810 C   0  0  0  0  0  1  0  0  0  0  0  0
  158.6040  213.7270  143.5630 C   0  0  0  0  0  2  0  0  0  0  0  0
  161.6980  212.0900  142.7310 O   0  0  0  0  0  0  0  0  0  0  0  0
  161.4590  212.1900  141.3490 C   0  0  2  0  0  3  0  0  0  0  0  0
  164.1890  211.8200  138.8390 C   0  0  0  0  0  1  0  0  0  0  0  0
  162.2790  210.6330  139.7630 N   0  0  0  0  0  0  0  0  0  0  0  0
  163.0290  211.6770  139.7570 C   0  0  0  0  0  0  0  0  0  0  0  0
  161.2330  210.7940  140.7610 C   0  0  0  0  0  2  0  0  0  0  0  0
  162.6510  212.6810  140.6780 N   0  0  0  0  0  2  0  0  0  0  0  0
  160.7050  209.2010  152.6810 O   0  0  0  0  0  0  0  0  0  0  0  0
  161.6050  211.1420  155.6750 C   0  0  0  0  0  2  0  0  0  0  0  0
  160.1220  211.4150  155.9740 C   0  0  1  0  0  0  0  0  0  0  0  0
  159.6780  210.5290  157.1220 C   0  0  0  0  0  1  0  0  0  0  0  0
  159.9420  211.3460  153.4460 C   0  0  0  0  0  2  0  0  0  0  0  0
  161.7810  210.0230  154.6510 C   0  0  0  0  0  2  0  0  0  0  0  0
  161.1230  210.3760  153.3090 C   0  0  1  0  0  3  0  0  0  0  0  0
  159.9820  212.7470  156.3600 O   0  0  0  0  0  1  0  0  0  0  0  0
  159.2080  211.1460  154.7690 C   0  0  0  0  0  2  0  0  0  0  0  0
  1  8  1  0  0  0  0
  2 12  1  6  0  0  0
  2 13  1  0  0  0  0
  3 16  1  6  0  0  0
  3 14  1  0  0  0  0
  4 15  1  0  0  0  0
  5  1  2  0  0  0  0
  5  9  1  0  0  0  0
  6  1  1  0  0  0  0
  7  4  1  0  0  0  0
  8  4  2  0  0  0  0
  9  7  2  0  0  0  0
 10 11  1  0  0  0  0
 10  3  1  0  0  0  0
 11  7  1  6  0  0  0
 11  2  1  0  0  0  0
 13 35  1  1  0  0  0
 14 13  1  0  0  0  0
 15 12  1  0  0  0  0
 16 17  1  6  0  0  0
 18 16  1  0  0  0  0
 19 18  1  0  0  0  0
 19 20  2  0  0  0  0
 21 19  1  0  0  0  0
 22 24  1  0  0  0  0
 22 21  1  1  0  0  0
 23 25  1  0  0  0  0
 23 27  1  0  0  0  0
 25 26  1  1  0  0  0
 25 22  1  0  0  0  0
 27 24  1  0  0  0  0
 28 25  1  0  0  0  0
 29 28  1  1  0  0  0
 30 32  1  0  0  0  0
 31 33  1  0  0  0  0
 32 31  2  0  0  0  0
 32 34  1  0  0  0  0
 33 29  1  0  0  0  0
 34 29  1  0  0  0  0
 36 37  1  0  0  0  0
 37 42  1  0  0  0  0
 37 38  1  1  0  0  0
 39 43  1  0  0  0  0
 40 36  1  0  0  0  0
 41 35  1  1  0  0  0
 41 39  1  0  0  0  0
 41 40  1  0  0  0  0
 43 37  1  0  0  0  0
M  END
>  <MODEL>
7

>  <REMARK>
 VINA RESULT:      -7.5      3.222      4.825
  Name = 
  9 active torsions:
  status: ('A' for Active; 'I' for Inactive)
    1  A    between atoms: O_1  and  C_34
    2  A    between atoms: O_1  and  C_35
    3  A    between atoms: C_2  and  C_6
    4  A    between atoms: C_2  and  C_13
    5  A    between atoms: O_3  and  C_4
    6  A    between atoms: O_3  and  C_12
    7  A    between atoms: C_6  and  C_12
    8  A    between atoms: C_11  and  O_14
    9  A    between atoms: O_14  and  C_22
                            x       y       z     vdW  Elec       q    Type
                         _______ _______ _______ _____ _____    ______ ____

>  <TORSDO>
F 9

$$$$
=
 OpenBabel11062409593D

 43 48  0  0  1  0  0  0  0  0999 V2000
  161.2380  212.6750  148.1470 C   0  0  0  0  0  0  0  0  0  0  0  0
  160.3490  211.9740  153.1720 C   0  0  1  0  0  3  0  0  0  0  0  0
  160.3000  209.1350  153.4310 C   0  0  2  0  0  3  0  0  0  0  0  0
  160.3250  212.7680  150.3950 C   0  0  0  0  0  0  0  0  0  0  0  0
  162.0240  211.5770  148.5080 C   0  0  0  0  0  3  0  0  0  0  0  0
  161.3000  213.2110  146.7610 C   0  0  0  0  0  1  0  0  0  0  0  0
  161.1340  211.6710  150.7650 C   0  0  0  0  0  0  0  0  0  0  0  0
  160.3960  213.2720  149.0910 C   0  0  0  0  0  3  0  0  0  0  0  0
  161.9730  211.0790  149.8120 C   0  0  0  0  0  3  0  0  0  0  0  0
  160.4510  209.7450  152.0910 N   0  0  0  0  0  2  0  0  0  0  0  0
  161.0700  211.0740  152.1470 C   0  0  2  0  0  3  0  0  0  0  0  0
  159.0900  212.5790  152.5650 C   0  0  0  0  0  2  0  0  0  0  0  0
  159.9680  211.1480  154.4010 C   0  0  1  0  0  3  0  0  0  0  0  0
  160.7510  209.9830  154.4670 O   0  0  0  0  0  0  0  0  0  0  0  0
  159.4670  213.4820  151.3990 C   0  0  0  0  0  2  0  0  0  0  0  0
  161.0440  207.8020  153.4940 C   0  0  1  0  0  3  0  0  0  0  0  0
  160.5180  206.9670  154.6510 C   0  0  0  0  0  1  0  0  0  0  0  0
  160.8660  207.0270  152.1960 C   0  0  0  0  0  2  0  0  0  0  0  0
  161.8670  205.9190  152.1030 C   0  0  0  0  0  0  0  0  0  0  0  0
  163.0860  206.2050  151.9810 O   0  0  0  0  0  0  0  0  0  0  0  0
  161.4820  204.5770  152.1460 O   0  0  0  0  0  0  0  0  0  0  0  0
  161.8060  203.6500  151.1120 C   0  0  1  0  0  3  0  0  0  0  0  0
  160.8870  202.6340  149.1380 C   0  0  0  0  0  2  0  0  0  0  0  0
  161.3720  202.2500  151.5010 C   0  0  0  0  0  2  0  0  0  0  0  0
  161.1010  203.9840  149.7910 C   0  0  1  0  0  0  0  0  0  0  0  0
  159.7180  204.6180  149.9930 C   0  0  0  0  0  1  0  0  0  0  0  0
  160.8250  201.5970  150.2470 C   0  0  0  0  0  2  0  0  0  0  0  0
  161.9150  204.7630  148.9310 O   0  0  0  0  0  0  0  0  0  0  0  0
  161.8610  204.2460  147.6250 C   0  0  2  0  0  3  0  0  0  0  0  0
  160.4550  206.2040  144.7820 C   0  0  0  0  0  1  0  0  0  0  0  0
  162.5710  205.4490  145.7120 N   0  0  0  0  0  0  0  0  0  0  0  0
  161.2900  205.5040  145.7940 C   0  0  0  0  0  0  0  0  0  0  0  0
  163.0960  204.6960  146.8400 C   0  0  0  0  0  2  0  0  0  0  0  0
  160.7400  204.8330  146.9100 N   0  0  0  0  0  2  0  0  0  0  0  0
  160.1560  211.9050  155.5600 O   0  0  0  0  0  0  0  0  0  0  0  0
  156.5140  211.4320  155.7990 C   0  0  0  0  0  2  0  0  0  0  0  0
  156.2800  212.9370  155.5870 C   0  0  1  0  0  0  0  0  0  0  0  0
  155.7950  213.1670  154.1690 C   0  0  0  0  0  1  0  0  0  0  0  0
  158.4970  213.1170  156.8050 C   0  0  0  0  0  2  0  0  0  0  0  0
  157.9380  211.0220  155.4310 C   0  0  0  0  0  2  0  0  0  0  0  0
  158.9780  211.7510  156.2940 C   0  0  1  0  0  3  0  0  0  0  0  0
  155.2910  213.3640  156.4700 O   0  0  0  0  0  1  0  0  0  0  0  0
  157.5460  213.7780  155.8110 C   0  0  0  0  0  2  0  0  0  0  0  0
  1  5  2  0  0  0  0
  1  8  1  0  0  0  0
  2 12  1  6  0  0  0
  2 13  1  0  0  0  0
  3 16  1  6  0  0  0
  3 14  1  0  0  0  0
  4  7  1  0  0  0  0
  4 15  1  0  0  0  0
  5  9  1  0  0  0  0
  6  1  1  0  0  0  0
  8  4  2  0  0  0  0
  9  7  2  0  0  0  0
 10 11  1  0  0  0  0
 10  3  1  0  0  0  0
 11  7  1  6  0  0  0
 11  2  1  0  0  0  0
 13 14  1  0  0  0  0
 13 35  1  1  0  0  0
 15 12  1  0  0  0  0
 16 17  1  1  0  0  0
 18 16  1  0  0  0  0
 19 21  1  0  0  0  0
 19 18  1  0  0  0  0
 20 19  2  0  0  0  0
 22 24  1  0  0  0  0
 22 21  1  1  0  0  0
 23 25  1  0  0  0  0
 23 27  1  0  0  0  0
 25 26  1  1  0  0  0
 25 22  1  0  0  0  0
 27 24  1  0  0  0  0
 28 25  1  0  0  0  0
 29 28  1  1  0  0  0
 30 32  1  0  0  0  0
 31 32  2  0  0  0  0
 31 33  1  0  0  0  0
 32 34  1  0  0  0  0
 33 29  1  0  0  0  0
 34 29  1  0  0  0  0
 37 38  1  6  0  0  0
 37 36  1  0  0  0  0
 37 43  1  0  0  0  0
 37 42  1  0  0  0  0
 40 36  1  0  0  0  0
 40 41  1  0  0  0  0
 41 35  1  6  0  0  0
 41 39  1  0  0  0  0
 43 39  1  0  0  0  0
M  END
>  <MODEL>
8

>  <REMARK>
 VINA RESULT:      -7.1      3.028      8.232
  Name = 
  9 active torsions:
  status: ('A' for Active; 'I' for Inactive)
    1  A    between atoms: O_1  and  C_34
    2  A    between atoms: O_1  and  C_35
    3  A    between atoms: C_2  and  C_6
    4  A    between atoms: C_2  and  C_13
    5  A    between atoms: O_3  and  C_4
    6  A    between atoms: O_3  and  C_12
    7  A    between atoms: C_6  and  C_12
    8  A    between atoms: C_11  and  O_14
    9  A    between atoms: O_14  and  C_22
                            x       y       z     vdW  Elec       q    Type
                         _______ _______ _______ _____ _____    ______ ____

>  <TORSDO>
F 9

$$$$
=
 OpenBabel11062409593D

 43 48  0  0  1  0  0  0  0  0999 V2000
  161.5120  204.5590  146.8950 C   0  0  0  0  0  0  0  0  0  0  0  0
  161.1310  207.9580  150.7460 C   0  0  1  0  0  3  0  0  0  0  0  0
  162.3220  210.3070  149.6560 C   0  0  2  0  0  3  0  0  0  0  0  0
  161.6070  205.6670  149.0530 C   0  0  0  0  0  0  0  0  0  0  0  0
  161.2080  205.7770  146.2790 C   0  0  0  0  0  3  0  0  0  0  0  0
  161.6240  203.3210  146.0780 C   0  0  0  0  0  1  0  0  0  0  0  0
  161.2810  206.8940  148.4340 C   0  0  0  0  0  0  0  0  0  0  0  0
  161.7030  204.5040  148.2790 C   0  0  0  0  0  3  0  0  0  0  0  0
  161.0920  206.9380  147.0470 C   0  0  0  0  0  3  0  0  0  0  0  0
  162.3140  209.0570  148.8650 N   0  0  0  0  0  2  0  0  0  0  0  0
  161.1960  208.1760  149.2210 C   0  0  2  0  0  3  0  0  0  0  0  0
  162.1220  206.8850  151.1800 C   0  0  0  0  0  2  0  0  0  0  0  0
  161.4610  209.2660  151.4660 C   0  0  1  0  0  3  0  0  0  0  0  0
  161.2730  210.3580  150.6010 O   0  0  0  0  0  0  0  0  0  0  0  0
  161.7450  205.5540  150.5440 C   0  0  0  0  0  2  0  0  0  0  0  0
  162.2420  211.5210  148.7310 C   0  0  1  0  0  3  0  0  0  0  0  0
  163.6070  211.8060  148.1270 C   0  0  0  0  0  1  0  0  0  0  0  0
  161.2390  211.2760  147.6110 C   0  0  0  0  0  2  0  0  0  0  0  0
  160.7870  212.5720  147.0170 C   0  0  0  0  0  0  0  0  0  0  0  0
  160.5540  213.5460  147.7790 O   0  0  0  0  0  0  0  0  0  0  0  0
  160.6150  212.7280  145.6400 O   0  0  0  0  0  0  0  0  0  0  0  0
  161.2930  213.7310  144.8870 C   0  0  1  0  0  3  0  0  0  0  0  0
  162.5260  214.0450  142.8490 C   0  0  0  0  0  2  0  0  0  0  0  0
  162.7600  213.7780  145.2660 C   0  0  0  0  0  2  0  0  0  0  0  0
  161.2300  213.4650  143.3770 C   0  0  1  0  0  0  0  0  0  0  0  0
  161.2240  211.9700  143.0310 C   0  0  0  0  0  1  0  0  0  0  0  0
  163.5360  214.0120  143.9840 C   0  0  0  0  0  2  0  0  0  0  0  0
  160.1570  214.1510  142.7560 O   0  0  0  0  0  0  0  0  0  0  0  0
  159.7150  213.4290  141.6320 C   0  0  2  0  0  3  0  0  0  0  0  0
  156.4550  214.1510  139.9770 C   0  0  0  0  0  1  0  0  0  0  0  0
  158.8480  214.4520  139.6790 N   0  0  0  0  0  0  0  0  0  0  0  0
  157.8740  214.0210  140.3980 C   0  0  0  0  0  0  0  0  0  0  0  0
  160.1080  214.1740  140.3530 C   0  0  0  0  0  2  0  0  0  0  0  0
  158.2630  213.4000  141.6080 N   0  0  0  0  0  2  0  0  0  0  0  0
  160.6400  209.4110  152.5870 O   0  0  0  0  0  0  0  0  0  0  0  0
  161.4430  211.2120  155.6950 C   0  0  0  0  0  2  0  0  0  0  0  0
  159.9960  211.7210  155.8030 C   0  0  1  0  0  0  0  0  0  0  0  0
  159.2710  210.9280  156.8740 C   0  0  0  0  0  1  0  0  0  0  0  0
  160.1360  211.6580  153.2720 C   0  0  0  0  0  2  0  0  0  0  0  0
  161.5690  210.0700  154.6900 C   0  0  0  0  0  2  0  0  0  0  0  0
  161.1550  210.5110  153.2780 C   0  0  1  0  0  3  0  0  0  0  0  0
  160.0210  213.0620  156.1830 O   0  0  0  0  0  1  0  0  0  0  0  0
  159.2150  211.5900  154.4870 C   0  0  0  0  0  2  0  0  0  0  0  0
  1  8  1  0  0  0  0
  2 12  1  1  0  0  0
  2 13  1  0  0  0  0
  3 16  1  6  0  0  0
  3 14  1  0  0  0  0
  4 15  1  0  0  0  0
  5  1  2  0  0  0  0
  5  9  1  0  0  0  0
  6  1  1  0  0  0  0
  7  4  1  0  0  0  0
  8  4  2  0  0  0  0
  9  7  2  0  0  0  0
 10 11  1  0  0  0  0
 10  3  1  0  0  0  0
 11  7  1  6  0  0  0
 11  2  1  0  0  0  0
 13 35  1  1  0  0  0
 14 13  1  0  0  0  0
 15 12  1  0  0  0  0
 16 17  1  6  0  0  0
 18 16  1  0  0  0  0
 19 18  1  0  0  0  0
 19 20  2  0  0  0  0
 21 19  1  0  0  0  0
 22 24  1  0  0  0  0
 22 21  1  1  0  0  0
 23 25  1  0  0  0  0
 23 27  1  0  0  0  0
 25 26  1  6  0  0  0
 25 22  1  0  0  0  0
 27 24  1  0  0  0  0
 28 25  1  0  0  0  0
 29 28  1  1  0  0  0
 30 32  1  0  0  0  0
 31 33  1  0  0  0  0
 31 32  2  0  0  0  0
 32 34  1  0  0  0  0
 33 29  1  0  0  0  0
 34 29  1  0  0  0  0
 36 37  1  0  0  0  0
 37 42  1  0  0  0  0
 37 38  1  1  0  0  0
 39 41  1  0  0  0  0
 39 43  1  0  0  0  0
 40 36  1  0  0  0  0
 41 35  1  1  0  0  0
 41 40  1  0  0  0  0
 43 37  1  0  0  0  0
M  END
>  <MODEL>
9

>  <REMARK>
 VINA RESULT:      -6.9      2.928      4.164
  Name = 
  9 active torsions:
  status: ('A' for Active; 'I' for Inactive)
    1  A    between atoms: O_1  and  C_34
    2  A    between atoms: O_1  and  C_35
    3  A    between atoms: C_2  and  C_6
    4  A    between atoms: C_2  and  C_13
    5  A    between atoms: O_3  and  C_4
    6  A    between atoms: O_3  and  C_12
    7  A    between atoms: C_6  and  C_12
    8  A    between atoms: C_11  and  O_14
    9  A    between atoms: O_14  and  C_22
                            x       y       z     vdW  Elec       q    Type
                         _______ _______ _______ _____ _____    ______ ____

>  <TORSDO>
F 9

$$$$
