=
 OpenBabel11052422253D

 31 33  0  0  1  0  0  0  0  0999 V2000
  161.0140  208.8550  153.7120 C   0  0  2  0  0  3  0  0  0  0  0  0
  161.0390  207.8370  152.5720 C   0  0  2  0  0  3  0  0  0  0  0  0
  161.9650  205.5360  151.8920 C   0  0  0  0  0  2  0  0  0  0  0  0
  160.3740  208.3560  155.0140 C   0  0  0  0  0  2  0  0  0  0  0  0
  162.2310  210.5560  156.5030 C   0  0  1  0  0  3  0  0  0  0  0  0
  161.3550  206.3970  153.0090 C   0  0  0  0  0  2  0  0  0  0  0  0
  160.5800  211.3190  154.2920 C   0  0  0  0  0  2  0  0  0  0  0  0
  162.3930  209.7770  151.5120 C   0  0  0  0  0  2  0  0  0  0  0  0
  161.1010  205.3980  150.6280 C   0  0  0  0  0  2  0  0  0  0  0  0
  161.8970  211.6940  154.6520 O   0  0  0  0  0  0  0  0  0  0  0  0
  160.4810  210.2280  153.2050 C   0  0  1  0  0  0  0  0  0  0  0  0
  162.5100  210.6200  155.1270 O   0  0  0  0  0  0  0  0  0  0  0  0
  160.5050  206.7020  150.0750 C   0  0  0  0  0  2  0  0  0  0  0  0
  161.3300  208.3570  156.0400 O   0  0  0  0  0  0  0  0  0  0  0  0
  161.1120  209.5420  156.7590 C   0  0  0  0  0  2  0  0  0  0  0  0
  161.2490  210.6970  151.9520 C   0  0  0  0  0  2  0  0  0  0  0  0
  161.9760  208.3030  151.4380 C   0  0  2  0  0  3  0  0  0  0  0  0
  161.4670  207.9000  150.0490 C   0  0  0  0  0  2  0  0  0  0  0  0
  163.4810  210.1460  157.2610 C   0  0  0  0  0  2  0  0  0  0  0  0
  164.4940  211.0770  157.0410 O   0  0  0  0  0  1  0  0  0  0  0  0
  159.0160  210.1140  152.7500 C   0  0  0  0  0  2  0  0  0  0  0  0
  158.3700  211.4390  152.3570 C   0  0  0  0  0  2  0  0  0  0  0  0
  157.9090  213.5590  153.6340 C   0  0  0  0  0  0  0  0  0  0  0  0
  157.8680  212.1230  153.5430 N   0  0  0  0  0  0  0  0  0  0  0  0
  158.3750  214.2420  152.6830 O   0  0  0  0  0  0  0  0  0  0  0  0
  157.2500  211.3250  154.5950 C   0  0  0  0  0  2  0  0  0  0  0  0
  155.1220  210.3180  155.4240 C   0  0  0  0  0  1  0  0  0  0  0  0
  155.8000  211.0130  154.2580 C   0  0  0  0  0  2  0  0  0  0  0  0
  157.3760  214.2670  154.8360 C   0  0  0  0  0  2  0  0  0  0  0  0
  158.1580  213.8580  156.0660 C   0  0  0  0  0  2  0  0  0  0  0  0
  157.2290  213.8060  157.2610 C   0  0  0  0  0  1  0  0  0  0  0  0
  1  4  1  1  0  0  0
  2  6  1  1  0  0  0
  2  1  1  0  0  0  0
  3  6  1  0  0  0  0
  4 14  1  0  0  0  0
  5 15  1  0  0  0  0
  5 19  1  1  0  0  0
  7 10  1  0  0  0  0
  8 16  1  0  0  0  0
  9  3  1  0  0  0  0
 10 12  1  0  0  0  0
 11 21  1  6  0  0  0
 11  1  1  0  0  0  0
 11  7  1  0  0  0  0
 12  5  1  0  0  0  0
 13  9  1  0  0  0  0
 14 15  1  0  0  0  0
 16 11  1  0  0  0  0
 17 18  1  6  0  0  0
 17  8  1  0  0  0  0
 17  2  1  0  0  0  0
 18 13  1  0  0  0  0
 20 19  1  0  0  0  0
 22 21  1  0  0  0  0
 22 24  1  0  0  0  0
 23 29  1  0  0  0  0
 24 23  1  0  0  0  0
 24 26  1  0  0  0  0
 25 23  2  0  0  0  0
 28 26  1  0  0  0  0
 28 27  1  0  0  0  0
 29 30  1  0  0  0  0
 30 31  1  0  0  0  0
M  END
>  <MODEL>
1

>  <REMARK>
 VINA RESULT:      -4.3      0.000      0.000
  Name = 
  8 active torsions:
  status: ('A' for Active; 'I' for Inactive)
    1  A    between atoms: C_1  and  C_8
    2  A    between atoms: C_2  and  C_13
    3  A    between atoms: C_3  and  C_7
    4  A    between atoms: C_3  and  N_22
    5  A    between atoms: C_8  and  C_19
    6  A    between atoms: C_9  and  N_22
    7  A    between atoms: C_9  and  C_23
    8  A    between atoms: C_21  and  C_23
                            x       y       z     vdW  Elec       q    Type
                         _______ _______ _______ _____ _____    ______ ____

>  <TORSDO>
F 8

$$$$
=
 OpenBabel11052422253D

 31 33  0  0  1  0  0  0  0  0999 V2000
  159.2120  211.8660  155.2910 C   0  0  2  0  0  3  0  0  0  0  0  0
  157.9300  212.6770  155.4870 C   0  0  2  0  0  3  0  0  0  0  0  0
  156.2290  213.4330  157.2610 C   0  0  0  0  0  2  0  0  0  0  0  0
  160.4340  212.3910  156.0540 C   0  0  0  0  0  2  0  0  0  0  0  0
  161.5260  209.3410  155.9460 C   0  0  1  0  0  3  0  0  0  0  0  0
  157.7060  213.1790  156.9230 C   0  0  0  0  0  2  0  0  0  0  0  0
  160.6570  210.6490  153.5520 C   0  0  0  0  0  2  0  0  0  0  0  0
  157.0350  210.7000  154.0690 C   0  0  0  0  0  2  0  0  0  0  0  0
  155.5180  214.4530  156.3570 C   0  0  0  0  0  2  0  0  0  0  0  0
  160.4820  209.3210  154.0120 O   0  0  0  0  0  0  0  0  0  0  0  0
  159.4540  211.5880  153.7770 C   0  0  1  0  0  0  0  0  0  0  0  0
  160.2690  209.3690  155.3190 O   0  0  0  0  0  0  0  0  0  0  0  0
  155.7290  214.2740  154.8460 C   0  0  0  0  0  2  0  0  0  0  0  0
  160.8620  211.4280  156.9780 O   0  0  0  0  0  0  0  0  0  0  0  0
  161.9310  210.7590  156.3620 C   0  0  0  0  0  2  0  0  0  0  0  0
  158.2040  210.9700  153.1160 C   0  0  0  0  0  2  0  0  0  0  0  0
  156.7030  211.9030  154.9600 C   0  0  2  0  0  3  0  0  0  0  0  0
  155.6450  212.8250  154.3420 C   0  0  0  0  0  2  0  0  0  0  0  0
  161.4690  208.4430  157.1680 C   0  0  0  0  0  2  0  0  0  0  0  0
  160.8450  207.2400  156.8430 O   0  0  0  0  0  1  0  0  0  0  0  0
  159.6990  212.8980  153.0100 C   0  0  0  0  0  2  0  0  0  0  0  0
  160.3860  212.7230  151.6600 C   0  0  0  0  0  2  0  0  0  0  0  0
  160.1250  213.4620  149.2680 C   0  0  0  0  0  0  0  0  0  0  0  0
  159.6960  213.5040  150.6410 N   0  0  0  0  0  0  0  0  0  0  0  0
  161.1030  212.7420  148.9310 O   0  0  0  0  0  0  0  0  0  0  0  0
  158.5110  214.2600  151.0310 C   0  0  0  0  0  2  0  0  0  0  0  0
  156.1130  214.2230  150.3400 C   0  0  0  0  0  1  0  0  0  0  0  0
  157.2580  213.4060  150.9090 C   0  0  0  0  0  2  0  0  0  0  0  0
  159.4070  214.2420  148.2150 C   0  0  0  0  0  2  0  0  0  0  0  0
  159.0150  213.3280  147.0720 C   0  0  0  0  0  2  0  0  0  0  0  0
  157.6180  212.7950  147.3110 C   0  0  0  0  0  1  0  0  0  0  0  0
  1  2  1  0  0  0  0
  1  4  1  6  0  0  0
  2  6  1  1  0  0  0
  4 14  1  0  0  0  0
  5 15  1  0  0  0  0
  5 19  1  1  0  0  0
  6  3  1  0  0  0  0
  7 11  1  0  0  0  0
  7 10  1  0  0  0  0
  9  3  1  0  0  0  0
 10 12  1  0  0  0  0
 11 21  1  6  0  0  0
 11  1  1  0  0  0  0
 12  5  1  0  0  0  0
 13  9  1  0  0  0  0
 15 14  1  0  0  0  0
 16 11  1  0  0  0  0
 16  8  1  0  0  0  0
 17  8  1  6  0  0  0
 17  2  1  0  0  0  0
 18 13  1  0  0  0  0
 18 17  1  0  0  0  0
 20 19  1  0  0  0  0
 22 21  1  0  0  0  0
 23 24  1  0  0  0  0
 24 26  1  0  0  0  0
 24 22  1  0  0  0  0
 25 23  2  0  0  0  0
 27 28  1  0  0  0  0
 28 26  1  0  0  0  0
 29 23  1  0  0  0  0
 30 31  1  0  0  0  0
 30 29  1  0  0  0  0
M  END
>  <MODEL>
2

>  <REMARK>
 VINA RESULT:      -4.1      2.904      6.109
  Name = 
  8 active torsions:
  status: ('A' for Active; 'I' for Inactive)
    1  A    between atoms: C_1  and  C_8
    2  A    between atoms: C_2  and  C_13
    3  A    between atoms: C_3  and  C_7
    4  A    between atoms: C_3  and  N_22
    5  A    between atoms: C_8  and  C_19
    6  A    between atoms: C_9  and  N_22
    7  A    between atoms: C_9  and  C_23
    8  A    between atoms: C_21  and  C_23
                            x       y       z     vdW  Elec       q    Type
                         _______ _______ _______ _____ _____    ______ ____

>  <TORSDO>
F 8

$$$$
=
 OpenBabel11052422253D

 31 33  0  0  1  0  0  0  0  0999 V2000
  161.6340  204.6990  148.0140 C   0  0  2  0  0  3  0  0  0  0  0  0
  161.5070  203.8540  149.2810 C   0  0  2  0  0  3  0  0  0  0  0  0
  161.1320  201.4520  150.1200 C   0  0  0  0  0  2  0  0  0  0  0  0
  162.8150  204.3350  147.1060 C   0  0  0  0  0  2  0  0  0  0  0  0
  161.0500  205.5810  144.6910 C   0  0  1  0  0  3  0  0  0  0  0  0
  161.8150  202.3600  149.0850 C   0  0  0  0  0  2  0  0  0  0  0  0
  161.4900  207.0890  147.0840 C   0  0  0  0  0  2  0  0  0  0  0  0
  159.3500  205.2830  149.4410 C   0  0  0  0  0  2  0  0  0  0  0  0
  161.4840  201.7520  151.5860 C   0  0  0  0  0  2  0  0  0  0  0  0
  160.3420  206.9370  146.2680 O   0  0  0  0  0  0  0  0  0  0  0  0
  161.5140  206.2140  148.3550 C   0  0  1  0  0  0  0  0  0  0  0  0
  160.2910  205.6750  145.8690 O   0  0  0  0  0  0  0  0  0  0  0  0
  161.4240  203.2280  152.0040 C   0  0  0  0  0  2  0  0  0  0  0  0
  162.3380  203.8980  145.8620 O   0  0  0  0  0  0  0  0  0  0  0  0
  162.4340  205.0080  145.0080 C   0  0  0  0  0  2  0  0  0  0  0  0
  160.2450  206.5010  149.1850 C   0  0  0  0  0  2  0  0  0  0  0  0
  160.1330  204.0660  149.9490 C   0  0  2  0  0  3  0  0  0  0  0  0
  160.2060  204.0060  151.4800 C   0  0  0  0  0  2  0  0  0  0  0  0
  160.3390  204.6840  143.6930 C   0  0  0  0  0  2  0  0  0  0  0  0
  159.6660  203.6660  144.3670 O   0  0  0  0  0  1  0  0  0  0  0  0
  162.6800  206.6700  149.2470 C   0  0  0  0  0  2  0  0  0  0  0  0
  162.7330  208.1740  149.5020 C   0  0  0  0  0  2  0  0  0  0  0  0
  162.0600  209.7920  151.3080 C   0  0  0  0  0  0  0  0  0  0  0  0
  162.4070  208.4580  150.8930 N   0  0  0  0  0  0  0  0  0  0  0  0
  162.0310  210.7300  150.4670 O   0  0  0  0  0  0  0  0  0  0  0  0
  162.3570  207.3460  151.8360 C   0  0  0  0  0  2  0  0  0  0  0  0
  161.0780  206.6610  153.8660 C   0  0  0  0  0  1  0  0  0  0  0  0
  160.9760  207.2270  152.4620 C   0  0  0  0  0  2  0  0  0  0  0  0
  161.7020  210.0860  152.7280 C   0  0  0  0  0  2  0  0  0  0  0  0
  160.3990  210.8550  152.7840 C   0  0  0  0  0  2  0  0  0  0  0  0
  159.7750  210.6900  154.1540 C   0  0  0  0  0  1  0  0  0  0  0  0
  1  4  1  1  0  0  0
  1 11  1  0  0  0  0
  1  2  1  0  0  0  0
  2  6  1  6  0  0  0
  2 17  1  0  0  0  0
  3  9  1  0  0  0  0
  5 19  1  6  0  0  0
  5 15  1  0  0  0  0
  5 12  1  0  0  0  0
  6  3  1  0  0  0  0
  7 11  1  0  0  0  0
  9 13  1  0  0  0  0
 10  7  1  0  0  0  0
 11 16  1  0  0  0  0
 11 21  1  1  0  0  0
 12 10  1  0  0  0  0
 14  4  1  0  0  0  0
 15 14  1  0  0  0  0
 16  8  1  0  0  0  0
 17  8  1  1  0  0  0
 17 18  1  0  0  0  0
 18 13  1  0  0  0  0
 19 20  1  0  0  0  0
 21 22  1  0  0  0  0
 22 24  1  0  0  0  0
 23 29  1  0  0  0  0
 24 23  1  0  0  0  0
 24 26  1  0  0  0  0
 25 23  2  0  0  0  0
 26 28  1  0  0  0  0
 28 27  1  0  0  0  0
 29 30  1  0  0  0  0
 30 31  1  0  0  0  0
M  END
>  <MODEL>
3

>  <REMARK>
 VINA RESULT:      -4.1      4.990      8.038
  Name = 
  8 active torsions:
  status: ('A' for Active; 'I' for Inactive)
    1  A    between atoms: C_1  and  C_8
    2  A    between atoms: C_2  and  C_13
    3  A    between atoms: C_3  and  C_7
    4  A    between atoms: C_3  and  N_22
    5  A    between atoms: C_8  and  C_19
    6  A    between atoms: C_9  and  N_22
    7  A    between atoms: C_9  and  C_23
    8  A    between atoms: C_21  and  C_23
                            x       y       z     vdW  Elec       q    Type
                         _______ _______ _______ _____ _____    ______ ____

>  <TORSDO>
F 8

$$$$
=
 OpenBabel11052422253D

 31 33  0  0  1  0  0  0  0  0999 V2000
  161.0930  208.9670  153.9010 C   0  0  2  0  0  3  0  0  0  0  0  0
  161.0970  207.9460  152.7630 C   0  0  2  0  0  3  0  0  0  0  0  0
  162.1080  205.7010  152.0210 C   0  0  0  0  0  2  0  0  0  0  0  0
  160.5820  208.4380  155.2460 C   0  0  0  0  0  2  0  0  0  0  0  0
  162.4050  210.7540  156.5930 C   0  0  1  0  0  3  0  0  0  0  0  0
  161.5300  206.5300  153.1780 C   0  0  0  0  0  2  0  0  0  0  0  0
  160.5550  211.4040  154.5080 C   0  0  0  0  0  2  0  0  0  0  0  0
  162.2510  209.9580  151.6050 C   0  0  0  0  0  2  0  0  0  0  0  0
  161.1650  205.5040  150.8230 C   0  0  0  0  0  2  0  0  0  0  0  0
  161.8700  211.8600  154.7710 O   0  0  0  0  0  0  0  0  0  0  0  0
  160.4430  210.3030  153.4320 C   0  0  1  0  0  0  0  0  0  0  0  0
  162.5800  210.8270  155.2010 O   0  0  0  0  0  0  0  0  0  0  0  0
  160.4530  206.7660  150.3130 C   0  0  0  0  0  2  0  0  0  0  0  0
  161.6070  208.5020  156.2000 O   0  0  0  0  0  0  0  0  0  0  0  0
  161.3710  209.6760  156.9320 C   0  0  0  0  0  2  0  0  0  0  0  0
  161.0890  210.8100  152.1260 C   0  0  0  0  0  2  0  0  0  0  0  0
  161.9200  208.4610  151.5640 C   0  0  2  0  0  3  0  0  0  0  0  0
  161.3360  208.0200  150.2150 C   0  0  0  0  0  2  0  0  0  0  0  0
  163.7300  210.4240  157.2590 C   0  0  0  0  0  2  0  0  0  0  0  0
  164.7180  211.2950  156.8030 O   0  0  0  0  0  1  0  0  0  0  0  0
  158.9590  210.0990  153.0860 C   0  0  0  0  0  2  0  0  0  0  0  0
  158.3130  211.2690  152.3500 C   0  0  0  0  0  2  0  0  0  0  0  0
  157.0420  212.1190  154.3500 C   0  0  0  0  0  0  0  0  0  0  0  0
  157.9920  212.3360  153.2900 N   0  0  0  0  0  0  0  0  0  0  0  0
  156.4810  210.9990  154.4790 O   0  0  0  0  0  0  0  0  0  0  0  0
  158.7160  213.5970  153.1820 C   0  0  0  0  0  2  0  0  0  0  0  0
  159.9050  214.3000  151.1030 C   0  0  0  0  0  1  0  0  0  0  0  0
  158.5580  214.1960  151.7920 C   0  0  0  0  0  2  0  0  0  0  0  0
  156.7260  213.2020  155.3290 C   0  0  0  0  0  2  0  0  0  0  0  0
  156.9970  212.7180  156.7390 C   0  0  0  0  0  2  0  0  0  0  0  0
  158.4110  213.0880  157.1350 C   0  0  0  0  0  1  0  0  0  0  0  0
  1  4  1  1  0  0  0
  2  6  1  1  0  0  0
  2  1  1  0  0  0  0
  3  6  1  0  0  0  0
  4 14  1  0  0  0  0
  5 15  1  0  0  0  0
  5 19  1  1  0  0  0
  7 10  1  0  0  0  0
  8 16  1  0  0  0  0
  9  3  1  0  0  0  0
 10 12  1  0  0  0  0
 11 21  1  6  0  0  0
 11  1  1  0  0  0  0
 11  7  1  0  0  0  0
 12  5  1  0  0  0  0
 13  9  1  0  0  0  0
 14 15  1  0  0  0  0
 16 11  1  0  0  0  0
 17 18  1  6  0  0  0
 17  8  1  0  0  0  0
 17  2  1  0  0  0  0
 18 13  1  0  0  0  0
 20 19  1  0  0  0  0
 22 21  1  0  0  0  0
 22 24  1  0  0  0  0
 23 25  2  0  0  0  0
 23 29  1  0  0  0  0
 24 23  1  0  0  0  0
 26 24  1  0  0  0  0
 27 28  1  0  0  0  0
 28 26  1  0  0  0  0
 29 30  1  0  0  0  0
 30 31  1  0  0  0  0
M  END
>  <MODEL>
4

>  <REMARK>
 VINA RESULT:      -3.9      1.150      1.966
  Name = 
  8 active torsions:
  status: ('A' for Active; 'I' for Inactive)
    1  A    between atoms: C_1  and  C_8
    2  A    between atoms: C_2  and  C_13
    3  A    between atoms: C_3  and  C_7
    4  A    between atoms: C_3  and  N_22
    5  A    between atoms: C_8  and  C_19
    6  A    between atoms: C_9  and  N_22
    7  A    between atoms: C_9  and  C_23
    8  A    between atoms: C_21  and  C_23
                            x       y       z     vdW  Elec       q    Type
                         _______ _______ _______ _____ _____    ______ ____

>  <TORSDO>
F 8

$$$$
=
 OpenBabel11052422253D

 31 33  0  0  1  0  0  0  0  0999 V2000
  161.4680  204.6130  147.8800 C   0  0  2  0  0  3  0  0  0  0  0  0
  161.4160  204.0290  149.2920 C   0  0  2  0  0  3  0  0  0  0  0  0
  160.9490  201.8680  150.6060 C   0  0  0  0  0  2  0  0  0  0  0  0
  162.5090  203.9750  146.9520 C   0  0  0  0  0  2  0  0  0  0  0  0
  160.5900  204.9280  144.5200 C   0  0  1  0  0  3  0  0  0  0  0  0
  161.5810  202.5010  149.3570 C   0  0  0  0  0  2  0  0  0  0  0  0
  161.4100  206.7960  146.5280 C   0  0  0  0  0  2  0  0  0  0  0  0
  159.4090  205.6670  149.3780 C   0  0  0  0  0  2  0  0  0  0  0  0
  161.4840  202.3940  151.9470 C   0  0  0  0  0  2  0  0  0  0  0  0
  160.1700  206.6120  145.8690 O   0  0  0  0  0  0  0  0  0  0  0  0
  161.5050  206.1690  147.9350 C   0  0  1  0  0  0  0  0  0  0  0  0
  159.9760  205.3090  145.7250 O   0  0  0  0  0  0  0  0  0  0  0  0
  161.5860  203.9210  152.0790 C   0  0  0  0  0  2  0  0  0  0  0  0
  161.8630  203.3690  145.8650 O   0  0  0  0  0  0  0  0  0  0  0  0
  161.9520  204.2890  144.8090 C   0  0  0  0  0  2  0  0  0  0  0  0
  160.3630  206.7250  148.8110 C   0  0  0  0  0  2  0  0  0  0  0  0
  160.1450  204.4930  150.0340 C   0  0  2  0  0  3  0  0  0  0  0  0
  160.3820  204.7060  151.5340 C   0  0  0  0  0  2  0  0  0  0  0  0
  159.7040  203.9390  143.7840 C   0  0  0  0  0  2  0  0  0  0  0  0
  159.5060  202.8050  144.5690 O   0  0  0  0  0  1  0  0  0  0  0  0
  162.7960  206.6630  148.6100 C   0  0  0  0  0  2  0  0  0  0  0  0
  162.9630  208.1800  148.6230 C   0  0  0  0  0  2  0  0  0  0  0  0
  162.3580  208.0510  151.0630 C   0  0  0  0  0  0  0  0  0  0  0  0
  162.3200  208.7450  149.8030 N   0  0  0  0  0  0  0  0  0  0  0  0
  162.9540  206.9450  151.1600 O   0  0  0  0  0  0  0  0  0  0  0  0
  161.7120  210.0660  149.6950 C   0  0  0  0  0  2  0  0  0  0  0  0
  161.8030  212.2620  148.5120 C   0  0  0  0  0  1  0  0  0  0  0  0
  162.2420  210.8100  148.4790 C   0  0  0  0  0  2  0  0  0  0  0  0
  161.7200  208.6350  152.2810 C   0  0  0  0  0  2  0  0  0  0  0  0
  160.7900  207.6220  152.9140 C   0  0  0  0  0  2  0  0  0  0  0  0
  161.1310  207.4740  154.3820 C   0  0  0  0  0  1  0  0  0  0  0  0
  1  4  1  1  0  0  0
  1 11  1  0  0  0  0
  1  2  1  0  0  0  0
  2  6  1  6  0  0  0
  2 17  1  0  0  0  0
  3  9  1  0  0  0  0
  5 19  1  1  0  0  0
  5 15  1  0  0  0  0
  5 12  1  0  0  0  0
  6  3  1  0  0  0  0
  7 11  1  0  0  0  0
  9 13  1  0  0  0  0
 10  7  1  0  0  0  0
 11 21  1  1  0  0  0
 11 16  1  0  0  0  0
 12 10  1  0  0  0  0
 14  4  1  0  0  0  0
 15 14  1  0  0  0  0
 16  8  1  0  0  0  0
 17  8  1  6  0  0  0
 17 18  1  0  0  0  0
 18 13  1  0  0  0  0
 19 20  1  0  0  0  0
 21 22  1  0  0  0  0
 22 24  1  0  0  0  0
 23 25  2  0  0  0  0
 23 29  1  0  0  0  0
 24 23  1  0  0  0  0
 26 24  1  0  0  0  0
 28 27  1  0  0  0  0
 28 26  1  0  0  0  0
 29 30  1  0  0  0  0
 30 31  1  0  0  0  0
M  END
>  <MODEL>
5

>  <REMARK>
 VINA RESULT:      -3.8      5.216      8.618
  Name = 
  8 active torsions:
  status: ('A' for Active; 'I' for Inactive)
    1  A    between atoms: C_1  and  C_8
    2  A    between atoms: C_2  and  C_13
    3  A    between atoms: C_3  and  C_7
    4  A    between atoms: C_3  and  N_22
    5  A    between atoms: C_8  and  C_19
    6  A    between atoms: C_9  and  N_22
    7  A    between atoms: C_9  and  C_23
    8  A    between atoms: C_21  and  C_23
                            x       y       z     vdW  Elec       q    Type
                         _______ _______ _______ _____ _____    ______ ____

>  <TORSDO>
F 8

$$$$
=
 OpenBabel11052422253D

 31 33  0  0  1  0  0  0  0  0999 V2000
  158.9840  210.6650  154.7940 C   0  0  2  0  0  3  0  0  0  0  0  0
  159.7110  209.4350  155.3390 C   0  0  2  0  0  3  0  0  0  0  0  0
  159.6980  207.7250  157.2590 C   0  0  0  0  0  2  0  0  0  0  0  0
  157.5170  210.4340  154.4080 C   0  0  0  0  0  2  0  0  0  0  0  0
  157.1100  213.6020  154.9580 C   0  0  1  0  0  3  0  0  0  0  0  0
  158.8630  208.5550  156.2720 C   0  0  0  0  0  2  0  0  0  0  0  0
  159.2090  212.6940  153.2360 C   0  0  0  0  0  2  0  0  0  0  0  0
  161.5280  211.2540  155.6740 C   0  0  0  0  0  2  0  0  0  0  0  0
  160.7170  206.7720  156.6140 C   0  0  0  0  0  2  0  0  0  0  0  0
  159.1730  213.7220  154.2090 O   0  0  0  0  0  0  0  0  0  0  0  0
  159.8450  211.3680  153.7030 C   0  0  1  0  0  0  0  0  0  0  0  0
  158.4520  213.2880  155.2330 O   0  0  0  0  0  0  0  0  0  0  0  0
  161.5900  207.3740  155.5020 C   0  0  0  0  0  2  0  0  0  0  0  0
  156.6870  211.2310  155.2080 O   0  0  0  0  0  0  0  0  0  0  0  0
  156.3830  212.3600  154.4330 C   0  0  0  0  0  2  0  0  0  0  0  0
  161.2730  211.6500  154.2160 C   0  0  0  0  0  2  0  0  0  0  0  0
  161.0480  209.8330  155.9970 C   0  0  2  0  0  3  0  0  0  0  0  0
  162.1430  208.7780  155.7930 C   0  0  0  0  0  2  0  0  0  0  0  0
  156.4310  214.0990  156.2220 C   0  0  0  0  0  2  0  0  0  0  0  0
  155.0470  214.0310  156.0740 O   0  0  0  0  0  1  0  0  0  0  0  0
  160.0370  210.4540  152.4820 C   0  0  0  0  0  2  0  0  0  0  0  0
  161.4370  210.4900  151.8770 C   0  0  0  0  0  2  0  0  0  0  0  0
  161.9730  209.0730  149.8670 C   0  0  0  0  0  0  0  0  0  0  0  0
  161.7610  209.1990  151.2850 N   0  0  0  0  0  0  0  0  0  0  0  0
  161.8850  210.0850  149.1210 O   0  0  0  0  0  0  0  0  0  0  0  0
  161.9480  208.0560  152.1720 C   0  0  0  0  0  2  0  0  0  0  0  0
  161.3370  205.6370  152.2450 C   0  0  0  0  0  1  0  0  0  0  0  0
  160.8260  207.0430  151.9960 C   0  0  0  0  0  2  0  0  0  0  0  0
  162.3280  207.7560  149.2570 C   0  0  0  0  0  2  0  0  0  0  0  0
  161.2980  207.3760  148.2140 C   0  0  0  0  0  2  0  0  0  0  0  0
  160.6350  206.0740  148.6110 C   0  0  0  0  0  1  0  0  0  0  0  0
  1  4  1  6  0  0  0
  1  2  1  0  0  0  0
  2 17  1  0  0  0  0
  2  6  1  1  0  0  0
  4 14  1  0  0  0  0
  5 12  1  0  0  0  0
  5 19  1  1  0  0  0
  6  3  1  0  0  0  0
  7 11  1  0  0  0  0
  7 10  1  0  0  0  0
  9  3  1  0  0  0  0
 10 12  1  0  0  0  0
 11 21  1  6  0  0  0
 11 16  1  0  0  0  0
 11  1  1  0  0  0  0
 13 18  1  0  0  0  0
 13  9  1  0  0  0  0
 15  5  1  0  0  0  0
 15 14  1  0  0  0  0
 16  8  1  0  0  0  0
 17  8  1  6  0  0  0
 18 17  1  0  0  0  0
 20 19  1  0  0  0  0
 22 21  1  0  0  0  0
 23 24  1  0  0  0  0
 24 22  1  0  0  0  0
 24 26  1  0  0  0  0
 25 23  2  0  0  0  0
 28 26  1  0  0  0  0
 28 27  1  0  0  0  0
 29 23  1  0  0  0  0
 30 31  1  0  0  0  0
 30 29  1  0  0  0  0
M  END
>  <MODEL>
6

>  <REMARK>
 VINA RESULT:      -3.8      2.457      6.236
  Name = 
  8 active torsions:
  status: ('A' for Active; 'I' for Inactive)
    1  A    between atoms: C_1  and  C_8
    2  A    between atoms: C_2  and  C_13
    3  A    between atoms: C_3  and  C_7
    4  A    between atoms: C_3  and  N_22
    5  A    between atoms: C_8  and  C_19
    6  A    between atoms: C_9  and  N_22
    7  A    between atoms: C_9  and  C_23
    8  A    between atoms: C_21  and  C_23
                            x       y       z     vdW  Elec       q    Type
                         _______ _______ _______ _____ _____    ______ ____

>  <TORSDO>
F 8

$$$$
=
 OpenBabel11052422253D

 31 33  0  0  1  0  0  0  0  0999 V2000
  160.8310  208.9960  152.9570 C   0  0  2  0  0  3  0  0  0  0  0  0
  160.9870  208.2190  151.6490 C   0  0  2  0  0  3  0  0  0  0  0  0
  161.4740  205.8820  150.6940 C   0  0  0  0  0  2  0  0  0  0  0  0
  159.6800  208.5280  153.8560 C   0  0  0  0  0  2  0  0  0  0  0  0
  161.4060  209.7470  156.3140 C   0  0  1  0  0  3  0  0  0  0  0  0
  160.7580  206.7030  151.7770 C   0  0  0  0  0  2  0  0  0  0  0  0
  160.8640  211.3430  153.9990 C   0  0  0  0  0  2  0  0  0  0  0  0
  163.0670  209.7620  151.5400 C   0  0  0  0  0  2  0  0  0  0  0  0
  161.0910  206.2320  149.2470 C   0  0  0  0  0  2  0  0  0  0  0  0
  162.0270  211.2120  154.7960 O   0  0  0  0  0  0  0  0  0  0  0  0
  160.8710  210.5290  152.6880 C   0  0  1  0  0  0  0  0  0  0  0  0
  162.1470  209.9360  155.1340 O   0  0  0  0  0  0  0  0  0  0  0  0
  161.0720  207.7280  148.9000 C   0  0  0  0  0  2  0  0  0  0  0  0
  160.1930  208.0590  155.0740 O   0  0  0  0  0  0  0  0  0  0  0  0
  160.0490  209.1200  155.9810 C   0  0  0  0  0  2  0  0  0  0  0  0
  162.1140  210.9190  151.8620 C   0  0  0  0  0  2  0  0  0  0  0  0
  162.3410  208.5320  150.9810 C   0  0  2  0  0  3  0  0  0  0  0  0
  162.2550  208.5410  149.4490 C   0  0  0  0  0  2  0  0  0  0  0  0
  162.1730  208.8420  157.2610 C   0  0  0  0  0  2  0  0  0  0  0  0
  161.6070  207.5680  157.2600 O   0  0  0  0  0  1  0  0  0  0  0  0
  159.6730  210.9670  151.8280 C   0  0  0  0  0  2  0  0  0  0  0  0
  159.2880  212.4350  151.9790 C   0  0  0  0  0  2  0  0  0  0  0  0
  158.0220  213.3210  149.9910 C   0  0  0  0  0  0  0  0  0  0  0  0
  159.2670  213.0850  150.6740 N   0  0  0  0  0  0  0  0  0  0  0  0
  156.9330  212.9710  150.5200 O   0  0  0  0  0  0  0  0  0  0  0  0
  160.5280  213.5630  150.1170 C   0  0  0  0  0  2  0  0  0  0  0  0
  161.5720  213.3860  147.8580 C   0  0  0  0  0  1  0  0  0  0  0  0
  161.0460  212.6110  149.0510 C   0  0  0  0  0  2  0  0  0  0  0  0
  157.9930  214.0060  148.6640 C   0  0  0  0  0  2  0  0  0  0  0  0
  157.0810  213.2560  147.7150 C   0  0  0  0  0  2  0  0  0  0  0  0
  157.8990  212.6820  146.5780 C   0  0  0  0  0  1  0  0  0  0  0  0
  1  4  1  6  0  0  0
  2  6  1  1  0  0  0
  2  1  1  0  0  0  0
  3  6  1  0  0  0  0
  4 14  1  0  0  0  0
  5 19  1  1  0  0  0
  7 10  1  0  0  0  0
  8 16  1  0  0  0  0
  9  3  1  0  0  0  0
 10 12  1  0  0  0  0
 11 21  1  6  0  0  0
 11  1  1  0  0  0  0
 11  7  1  0  0  0  0
 12  5  1  0  0  0  0
 13  9  1  0  0  0  0
 13 18  1  0  0  0  0
 14 15  1  0  0  0  0
 15  5  1  0  0  0  0
 16 11  1  0  0  0  0
 17 18  1  6  0  0  0
 17  8  1  0  0  0  0
 17  2  1  0  0  0  0
 20 19  1  0  0  0  0
 21 22  1  0  0  0  0
 23 25  2  0  0  0  0
 23 24  1  0  0  0  0
 24 22  1  0  0  0  0
 26 24  1  0  0  0  0
 27 28  1  0  0  0  0
 28 26  1  0  0  0  0
 29 23  1  0  0  0  0
 30 29  1  0  0  0  0
 31 30  1  0  0  0  0
M  END
>  <MODEL>
7

>  <REMARK>
 VINA RESULT:      -3.4      2.440      4.058
  Name = 
  8 active torsions:
  status: ('A' for Active; 'I' for Inactive)
    1  A    between atoms: C_1  and  C_8
    2  A    between atoms: C_2  and  C_13
    3  A    between atoms: C_3  and  C_7
    4  A    between atoms: C_3  and  N_22
    5  A    between atoms: C_8  and  C_19
    6  A    between atoms: C_9  and  N_22
    7  A    between atoms: C_9  and  C_23
    8  A    between atoms: C_21  and  C_23
                            x       y       z     vdW  Elec       q    Type
                         _______ _______ _______ _____ _____    ______ ____

>  <TORSDO>
F 8

$$$$
=
 OpenBabel11052422253D

 31 33  0  0  1  0  0  0  0  0999 V2000
  160.4890  211.1080  152.6140 C   0  0  2  0  0  3  0  0  0  0  0  0
  160.4940  210.9690  154.1370 C   0  0  2  0  0  3  0  0  0  0  0  0
  160.1840  212.2910  156.3200 C   0  0  0  0  0  2  0  0  0  0  0  0
  159.1520  211.5490  152.0070 C   0  0  0  0  0  2  0  0  0  0  0  0
  160.9130  212.7220  149.5520 C   0  0  1  0  0  3  0  0  0  0  0  0
  159.7050  212.0610  154.8790 C   0  0  0  0  0  2  0  0  0  0  0  0
  161.2730  210.0190  150.4240 C   0  0  0  0  0  2  0  0  0  0  0  0
  162.9970  210.5450  153.6090 C   0  0  0  0  0  2  0  0  0  0  0  0
  160.1280  211.0560  157.2330 C   0  0  0  0  0  2  0  0  0  0  0  0
  162.2040  211.0030  150.0110 O   0  0  0  0  0  0  0  0  0  0  0  0
  161.1280  209.8510  151.9510 C   0  0  1  0  0  0  0  0  0  0  0  0
  161.8010  212.1700  150.4910 O   0  0  0  0  0  0  0  0  0  0  0  0
  160.7060  209.7590  156.6460 C   0  0  0  0  0  2  0  0  0  0  0  0
  159.3100  212.7850  151.3650 O   0  0  0  0  0  0  0  0  0  0  0  0
  159.4680  212.4880  150.0030 C   0  0  0  0  0  2  0  0  0  0  0  0
  162.5130  209.5420  152.5560 C   0  0  0  0  0  2  0  0  0  0  0  0
  161.9350  210.8480  154.6740 C   0  0  2  0  0  3  0  0  0  0  0  0
  162.0350  209.9200  155.8910 C   0  0  0  0  0  2  0  0  0  0  0  0
  161.1740  214.2110  149.4130 C   0  0  0  0  0  2  0  0  0  0  0  0
  161.9680  214.4500  148.2930 O   0  0  0  0  0  1  0  0  0  0  0  0
  160.2860  208.5950  152.2320 C   0  0  0  0  0  2  0  0  0  0  0  0
  161.0990  207.3500  152.5740 C   0  0  0  0  0  2  0  0  0  0  0  0
  161.0140  204.9360  151.8660 C   0  0  0  0  0  0  0  0  0  0  0  0
  160.9190  206.3350  151.5430 N   0  0  0  0  0  0  0  0  0  0  0  0
  161.2480  204.5730  153.0500 O   0  0  0  0  0  0  0  0  0  0  0  0
  160.5600  206.7690  150.1970 C   0  0  0  0  0  2  0  0  0  0  0  0
  161.3990  206.9580  147.8550 C   0  0  0  0  0  1  0  0  0  0  0  0
  161.7950  206.8870  149.3170 C   0  0  0  0  0  2  0  0  0  0  0  0
  160.8090  203.8910  150.8190 C   0  0  0  0  0  2  0  0  0  0  0  0
  161.3070  202.5510  151.3210 C   0  0  0  0  0  2  0  0  0  0  0  0
  161.0500  201.4920  150.2700 C   0  0  0  0  0  1  0  0  0  0  0  0
  1  4  1  6  0  0  0
  1  2  1  0  0  0  0
  2 17  1  0  0  0  0
  2  6  1  1  0  0  0
  3  9  1  0  0  0  0
  5 19  1  1  0  0  0
  5 15  1  0  0  0  0
  5 12  1  0  0  0  0
  6  3  1  0  0  0  0
  7 11  1  0  0  0  0
 10  7  1  0  0  0  0
 10 12  1  0  0  0  0
 11 21  1  1  0  0  0
 11 16  1  0  0  0  0
 11  1  1  0  0  0  0
 13  9  1  0  0  0  0
 14  4  1  0  0  0  0
 15 14  1  0  0  0  0
 16  8  1  0  0  0  0
 17  8  1  6  0  0  0
 17 18  1  0  0  0  0
 18 13  1  0  0  0  0
 20 19  1  0  0  0  0
 21 22  1  0  0  0  0
 23 25  2  0  0  0  0
 24 23  1  0  0  0  0
 24 22  1  0  0  0  0
 26 24  1  0  0  0  0
 27 28  1  0  0  0  0
 28 26  1  0  0  0  0
 29 30  1  0  0  0  0
 29 23  1  0  0  0  0
 31 30  1  0  0  0  0
M  END
>  <MODEL>
8

>  <REMARK>
 VINA RESULT:      -3.4      3.004      7.518
  Name = 
  8 active torsions:
  status: ('A' for Active; 'I' for Inactive)
    1  A    between atoms: C_1  and  C_8
    2  A    between atoms: C_2  and  C_13
    3  A    between atoms: C_3  and  C_7
    4  A    between atoms: C_3  and  N_22
    5  A    between atoms: C_8  and  C_19
    6  A    between atoms: C_9  and  N_22
    7  A    between atoms: C_9  and  C_23
    8  A    between atoms: C_21  and  C_23
                            x       y       z     vdW  Elec       q    Type
                         _______ _______ _______ _____ _____    ______ ____

>  <TORSDO>
F 8

$$$$
=
 OpenBabel11052422253D

 31 33  0  0  1  0  0  0  0  0999 V2000
  158.7070  210.7200  155.0470 C   0  0  2  0  0  3  0  0  0  0  0  0
  159.5790  209.5540  155.5130 C   0  0  2  0  0  3  0  0  0  0  0  0
  159.7320  207.6740  157.2610 C   0  0  0  0  0  2  0  0  0  0  0  0
  157.3050  210.3290  154.5620 C   0  0  0  0  0  2  0  0  0  0  0  0
  156.4280  213.3390  155.3840 C   0  0  1  0  0  3  0  0  0  0  0  0
  158.8280  208.4760  156.3120 C   0  0  0  0  0  2  0  0  0  0  0  0
  158.7040  212.9070  153.7010 C   0  0  0  0  0  2  0  0  0  0  0  0
  161.1030  211.5620  156.1150 C   0  0  0  0  0  2  0  0  0  0  0  0
  160.9010  206.9400  156.5850 C   0  0  0  0  0  2  0  0  0  0  0  0
  158.4820  213.8170  154.7630 O   0  0  0  0  0  0  0  0  0  0  0  0
  159.5030  211.6420  154.0760 C   0  0  1  0  0  0  0  0  0  0  0  0
  157.7890  213.1880  155.7000 O   0  0  0  0  0  0  0  0  0  0  0  0
  161.7240  207.7650  155.5840 C   0  0  0  0  0  2  0  0  0  0  0  0
  156.3380  210.9200  155.3870 O   0  0  0  0  0  0  0  0  0  0  0  0
  155.9080  212.0680  154.7050 C   0  0  0  0  0  2  0  0  0  0  0  0
  160.8540  212.0640  154.6890 C   0  0  0  0  0  2  0  0  0  0  0  0
  160.8180  210.0640  156.2770 C   0  0  2  0  0  3  0  0  0  0  0  0
  162.0590  209.1960  156.0350 C   0  0  0  0  0  2  0  0  0  0  0  0
  155.6350  213.6080  156.6500 C   0  0  0  0  0  2  0  0  0  0  0  0
  154.4160  214.2020  156.3270 O   0  0  0  0  0  1  0  0  0  0  0  0
  159.8730  210.8900  152.7860 C   0  0  0  0  0  2  0  0  0  0  0  0
  161.3580  210.5720  152.6410 C   0  0  0  0  0  2  0  0  0  0  0  0
  161.1330  208.2710  151.6460 C   0  0  0  0  0  0  0  0  0  0  0  0
  161.5660  209.6400  151.5400 N   0  0  0  0  0  0  0  0  0  0  0  0
  160.5630  207.8650  152.6940 O   0  0  0  0  0  0  0  0  0  0  0  0
  162.1460  210.1470  150.3020 C   0  0  0  0  0  2  0  0  0  0  0  0
  161.9570  211.9230  148.5590 C   0  0  0  0  0  1  0  0  0  0  0  0
  161.6200  211.5390  149.9870 C   0  0  0  0  0  2  0  0  0  0  0  0
  161.3230  207.3170  150.5130 C   0  0  0  0  0  2  0  0  0  0  0  0
  161.2100  205.8910  151.0130 C   0  0  0  0  0  2  0  0  0  0  0  0
  160.6560  205.0130  149.9100 C   0  0  0  0  0  1  0  0  0  0  0  0
  1  4  1  6  0  0  0
  1  2  1  0  0  0  0
  2 17  1  0  0  0  0
  2  6  1  1  0  0  0
  4 14  1  0  0  0  0
  5 12  1  0  0  0  0
  5 19  1  1  0  0  0
  6  3  1  0  0  0  0
  7 11  1  0  0  0  0
  7 10  1  0  0  0  0
  8 17  1  0  0  0  0
  9  3  1  0  0  0  0
 10 12  1  0  0  0  0
 11 21  1  6  0  0  0
 11 16  1  0  0  0  0
 11  1  1  0  0  0  0
 13 18  1  0  0  0  0
 13  9  1  0  0  0  0
 15  5  1  0  0  0  0
 15 14  1  0  0  0  0
 16  8  1  0  0  0  0
 17 18  1  6  0  0  0
 20 19  1  0  0  0  0
 22 21  1  0  0  0  0
 23 25  2  0  0  0  0
 24 23  1  0  0  0  0
 24 22  1  0  0  0  0
 26 24  1  0  0  0  0
 27 28  1  0  0  0  0
 28 26  1  0  0  0  0
 29 30  1  0  0  0  0
 29 23  1  0  0  0  0
 31 30  1  0  0  0  0
M  END
>  <MODEL>
9

>  <REMARK>
 VINA RESULT:      -3.4      2.316      6.382
  Name = 
  8 active torsions:
  status: ('A' for Active; 'I' for Inactive)
    1  A    between atoms: C_1  and  C_8
    2  A    between atoms: C_2  and  C_13
    3  A    between atoms: C_3  and  C_7
    4  A    between atoms: C_3  and  N_22
    5  A    between atoms: C_8  and  C_19
    6  A    between atoms: C_9  and  N_22
    7  A    between atoms: C_9  and  C_23
    8  A    between atoms: C_21  and  C_23
                            x       y       z     vdW  Elec       q    Type
                         _______ _______ _______ _____ _____    ______ ____

>  <TORSDO>
F 8

$$$$
