=
 OpenBabel11052423033D

 28 29  0  0  1  0  0  0  0  0999 V2000
  162.6990  206.0060  147.4840 O   0  0  0  0  0  0  0  0  0  0  0  0
  162.6540  203.2610  148.2790 O   0  0  0  0  0  1  0  0  0  0  0  0
  161.2160  204.6490  149.6130 C   0  0  1  0  0  3  0  0  0  0  0  0
  160.2870  206.9700  149.3020 C   0  0  0  0  0  3  0  0  0  0  0  0
  161.5030  204.0520  148.2220 C   0  0  1  0  0  3  0  0  0  0  0  0
  160.1170  205.6740  149.6040 C   0  0  0  0  0  3  0  0  0  0  0  0
  161.5810  207.6400  148.9110 C   0  0  2  0  0  3  0  0  0  0  0  0
  162.1250  207.2830  147.5240 C   0  0  0  0  0  2  0  0  0  0  0  0
  161.6580  205.1310  147.1360 C   0  0  2  0  0  3  0  0  0  0  0  0
  163.2000  204.6180  145.3750 O   0  0  0  0  0  1  0  0  0  0  0  0
  161.8460  204.5570  145.7070 C   0  0  2  0  0  0  0  0  0  0  0  0
  161.0980  205.3980  144.6590 C   0  0  0  0  0  2  0  0  0  0  0  0
  159.9870  206.2710  145.2280 C   0  0  0  0  0  1  0  0  0  0  0  0
  161.4220  203.0780  145.6140 C   0  0  0  0  0  2  0  0  0  0  0  0
  160.1290  202.8260  144.8450 C   0  0  0  0  0  2  0  0  0  0  0  0
  159.8210  201.3430  144.7930 C   0  0  0  0  0  1  0  0  0  0  0  0
  162.3430  209.0840  150.8670 C   0  0  0  0  0  1  0  0  0  0  0  0
  162.6080  207.8500  150.0250 C   0  0  0  0  0  2  0  0  0  0  0  0
  160.9140  203.5960  150.6910 C   0  0  1  0  0  3  0  0  0  0  0  0
  161.0770  202.1390  150.2330 C   0  0  0  0  0  2  0  0  0  0  0  0
  159.7820  201.5350  149.7030 C   0  0  0  0  0  2  0  0  0  0  0  0
  159.9740  201.0360  148.2830 C   0  0  0  0  0  2  0  0  0  0  0  0
  161.3300  200.3720  148.1360 C   0  0  0  0  0  1  0  0  0  0  0  0
  161.5880  203.9100  152.0260 C   0  0  0  0  0  2  0  0  0  0  0  0
  160.7970  204.9390  152.8180 C   0  0  0  0  0  2  0  0  0  0  0  0
  161.6880  206.0910  153.2430 C   0  0  2  0  0  3  0  0  0  0  0  0
  161.3010  206.5140  154.5270 O   0  0  0  0  0  0  0  0  0  0  0  0
  160.8750  207.3080  153.4470 C   0  0  0  0  0  2  0  0  0  0  0  0
  1  8  1  0  0  0  0
  3 19  1  1  0  0  0
  4  6  2  0  0  0  0
  5  2  1  1  0  0  0
  5  3  1  0  0  0  0
  6  3  1  0  0  0  0
  7  4  1  0  0  0  0
  7 18  1  1  0  0  0
  8  7  1  0  0  0  0
  9 11  1  6  0  0  0
  9  1  1  0  0  0  0
  9  5  1  0  0  0  0
 11 10  1  6  0  0  0
 12 13  1  0  0  0  0
 12 11  1  0  0  0  0
 14 11  1  0  0  0  0
 15 14  1  0  0  0  0
 16 15  1  0  0  0  0
 18 17  1  0  0  0  0
 19 20  1  6  0  0  0
 19 24  1  0  0  0  0
 21 20  1  0  0  0  0
 22 21  1  0  0  0  0
 23 22  1  0  0  0  0
 24 25  1  0  0  0  0
 26 25  1  6  0  0  0
 26 28  1  0  0  0  0
 26 27  1  0  0  0  0
 28 27  1  0  0  0  0
M  END
>  <MODEL>
1

>  <REMARK>
 VINA RESULT:      -6.0      0.000      0.000
  Name = 
  12 active torsions:
  status: ('A' for Active; 'I' for Inactive)
    1  A    between atoms: C_3  and  C_7
    2  A    between atoms: C_3  and  C_11
    3  A    between atoms: C_3  and  C_27
    4  A    between atoms: C_4  and  C_12
    5  A    between atoms: C_4  and  C_24
    6  A    between atoms: C_6  and  C_11
    7  A    between atoms: C_9  and  C_13
    8  A    between atoms: C_9  and  C_18
    9  A    between atoms: C_10  and  C_13
   10  A    between atoms: C_13  and  C_24
   11  A    between atoms: C_14  and  C_18
   12  A    between atoms: C_19  and  C_21
                            x       y       z     vdW  Elec       q    Type
                         _______ _______ _______ _____ _____    ______ ____

>  <TORSDO>
F 12

$$$$
=
 OpenBabel11052423033D

 28 29  0  0  1  0  0  0  0  0999 V2000
  160.6930  204.5170  150.0440 O   0  0  0  0  0  0  0  0  0  0  0  0
  160.0000  206.7750  148.4340 O   0  0  0  0  0  1  0  0  0  0  0  0
  161.4540  207.3360  150.2640 C   0  0  1  0  0  3  0  0  0  0  0  0
  162.9050  205.9620  151.7970 C   0  0  0  0  0  3  0  0  0  0  0  0
  161.2880  206.5700  148.9370 C   0  0  1  0  0  3  0  0  0  0  0  0
  162.7340  207.0140  150.9810 C   0  0  0  0  0  3  0  0  0  0  0  0
  161.8770  204.9150  152.1410 C   0  0  2  0  0  3  0  0  0  0  0  0
  161.5160  203.9370  151.0180 C   0  0  0  0  0  2  0  0  0  0  0  0
  161.5630  205.0640  149.0880 C   0  0  2  0  0  3  0  0  0  0  0  0
  162.7780  203.7840  147.4660 O   0  0  0  0  0  1  0  0  0  0  0  0
  161.5050  204.2820  147.7480 C   0  0  2  0  0  0  0  0  0  0  0  0
  161.1240  205.2010  146.5750 C   0  0  0  0  0  2  0  0  0  0  0  0
  162.2850  205.5690  145.6600 C   0  0  0  0  0  1  0  0  0  0  0  0
  160.5500  203.0740  147.8190 C   0  0  0  0  0  2  0  0  0  0  0  0
  161.2320  201.7110  147.7610 C   0  0  0  0  0  2  0  0  0  0  0  0
  161.0490  200.9690  149.0700 C   0  0  0  0  0  1  0  0  0  0  0  0
  161.1370  206.4560  154.0320 C   0  0  0  0  0  1  0  0  0  0  0  0
  160.7430  205.3470  153.0730 C   0  0  0  0  0  2  0  0  0  0  0  0
  161.3280  208.8610  150.1200 C   0  0  1  0  0  3  0  0  0  0  0  0
  161.6530  209.6580  151.3920 C   0  0  0  0  0  2  0  0  0  0  0  0
  160.5340  209.6100  152.4250 C   0  0  0  0  0  2  0  0  0  0  0  0
  160.3970  210.9520  153.1200 C   0  0  0  0  0  2  0  0  0  0  0  0
  160.1550  212.0510  152.1020 C   0  0  0  0  0  1  0  0  0  0  0  0
  162.0090  209.3920  148.8590 C   0  0  0  0  0  2  0  0  0  0  0  0
  162.3530  210.8670  148.9950 C   0  0  0  0  0  2  0  0  0  0  0  0
  161.5600  211.6970  148.0020 C   0  0  2  0  0  3  0  0  0  0  0  0
  162.4060  212.6750  147.4510 O   0  0  0  0  0  0  0  0  0  0  0  0
  161.5110  213.1050  148.4480 C   0  0  0  0  0  2  0  0  0  0  0  0
  1  8  1  0  0  0  0
  3 19  1  6  0  0  0
  3  6  1  0  0  0  0
  4  7  1  0  0  0  0
  5  2  1  1  0  0  0
  5  9  1  0  0  0  0
  5  3  1  0  0  0  0
  6  4  2  0  0  0  0
  7 18  1  6  0  0  0
  8  7  1  0  0  0  0
  9 11  1  6  0  0  0
  9  1  1  0  0  0  0
 11 10  1  6  0  0  0
 11 14  1  0  0  0  0
 12 11  1  0  0  0  0
 13 12  1  0  0  0  0
 15 14  1  0  0  0  0
 15 16  1  0  0  0  0
 18 17  1  0  0  0  0
 19 24  1  6  0  0  0
 19 20  1  0  0  0  0
 20 21  1  0  0  0  0
 21 22  1  0  0  0  0
 23 22  1  0  0  0  0
 24 25  1  0  0  0  0
 26 28  1  0  0  0  0
 26 25  1  1  0  0  0
 27 26  1  0  0  0  0
 27 28  1  0  0  0  0
M  END
>  <MODEL>
2

>  <REMARK>
 VINA RESULT:      -6.0      2.437      5.809
  Name = 
  12 active torsions:
  status: ('A' for Active; 'I' for Inactive)
    1  A    between atoms: C_3  and  C_7
    2  A    between atoms: C_3  and  C_11
    3  A    between atoms: C_3  and  C_27
    4  A    between atoms: C_4  and  C_12
    5  A    between atoms: C_4  and  C_24
    6  A    between atoms: C_6  and  C_11
    7  A    between atoms: C_9  and  C_13
    8  A    between atoms: C_9  and  C_18
    9  A    between atoms: C_10  and  C_13
   10  A    between atoms: C_13  and  C_24
   11  A    between atoms: C_14  and  C_18
   12  A    between atoms: C_19  and  C_21
                            x       y       z     vdW  Elec       q    Type
                         _______ _______ _______ _____ _____    ______ ____

>  <TORSDO>
F 12

$$$$
=
 OpenBabel11052423033D

 28 29  0  0  1  0  0  0  0  0999 V2000
  162.5820  207.1070  151.3660 O   0  0  0  0  0  0  0  0  0  0  0  0
  162.9100  207.5040  148.5540 O   0  0  0  0  0  1  0  0  0  0  0  0
  161.3460  205.7570  149.0810 C   0  0  1  0  0  3  0  0  0  0  0  0
  160.1210  205.1150  151.1860 C   0  0  0  0  0  3  0  0  0  0  0  0
  161.6660  207.2630  149.1450 C   0  0  1  0  0  3  0  0  0  0  0  0
  160.1270  205.3740  149.8690 C   0  0  0  0  0  3  0  0  0  0  0  0
  161.3070  205.1660  152.1170 C   0  0  2  0  0  3  0  0  0  0  0  0
  161.8510  206.5630  152.4300 C   0  0  0  0  0  2  0  0  0  0  0  0
  161.6500  207.8080  150.5840 C   0  0  2  0  0  3  0  0  0  0  0  0
  163.1010  209.5850  151.2790 O   0  0  0  0  0  1  0  0  0  0  0  0
  161.8670  209.3420  150.6720 C   0  0  2  0  0  0  0  0  0  0  0  0
  160.8030  210.0120  151.5570 C   0  0  0  0  0  2  0  0  0  0  0  0
  161.2960  210.4100  152.9420 C   0  0  0  0  0  1  0  0  0  0  0  0
  161.9080  210.0050  149.2810 C   0  0  0  0  0  2  0  0  0  0  0  0
  162.0310  211.5250  149.2970 C   0  0  0  0  0  2  0  0  0  0  0  0
  161.9630  212.0790  147.8880 C   0  0  0  0  0  1  0  0  0  0  0  0
  161.7060  202.6560  151.9230 C   0  0  0  0  0  1  0  0  0  0  0  0
  162.3320  204.0380  151.9840 C   0  0  0  0  0  2  0  0  0  0  0  0
  161.2130  205.2110  147.6500 C   0  0  1  0  0  3  0  0  0  0  0  0
  161.3190  206.2700  146.5430 C   0  0  0  0  0  2  0  0  0  0  0  0
  162.2230  205.8400  145.3950 C   0  0  0  0  0  2  0  0  0  0  0  0
  161.4050  205.5950  144.1400 C   0  0  0  0  0  2  0  0  0  0  0  0
  160.3940  204.4890  144.3770 C   0  0  0  0  0  1  0  0  0  0  0  0
  162.0720  203.9700  147.4110 C   0  0  0  0  0  2  0  0  0  0  0  0
  161.2250  202.7070  147.3840 C   0  0  0  0  0  2  0  0  0  0  0  0
  161.2100  202.0420  148.7480 C   0  0  2  0  0  3  0  0  0  0  0  0
  160.9220  200.6760  148.5840 O   0  0  0  0  0  0  0  0  0  0  0  0
  159.8670  201.4940  149.0270 C   0  0  0  0  0  2  0  0  0  0  0  0
  1  8  1  0  0  0  0
  3 19  1  6  0  0  0
  3  5  1  0  0  0  0
  3  6  1  0  0  0  0
  4  7  1  0  0  0  0
  5  2  1  1  0  0  0
  5  9  1  0  0  0  0
  6  4  2  0  0  0  0
  7 18  1  6  0  0  0
  7  8  1  0  0  0  0
  9 11  1  6  0  0  0
  9  1  1  0  0  0  0
 11 10  1  1  0  0  0
 11 12  1  0  0  0  0
 12 13  1  0  0  0  0
 14 15  1  0  0  0  0
 14 11  1  0  0  0  0
 16 15  1  0  0  0  0
 17 18  1  0  0  0  0
 19 20  1  6  0  0  0
 21 20  1  0  0  0  0
 22 23  1  0  0  0  0
 22 21  1  0  0  0  0
 24 19  1  0  0  0  0
 25 24  1  0  0  0  0
 26 25  1  6  0  0  0
 26 28  1  0  0  0  0
 27 26  1  0  0  0  0
 27 28  1  0  0  0  0
M  END
>  <MODEL>
3

>  <REMARK>
 VINA RESULT:      -5.8      1.997      6.254
  Name = 
  12 active torsions:
  status: ('A' for Active; 'I' for Inactive)
    1  A    between atoms: C_3  and  C_7
    2  A    between atoms: C_3  and  C_11
    3  A    between atoms: C_3  and  C_27
    4  A    between atoms: C_4  and  C_12
    5  A    between atoms: C_4  and  C_24
    6  A    between atoms: C_6  and  C_11
    7  A    between atoms: C_9  and  C_13
    8  A    between atoms: C_9  and  C_18
    9  A    between atoms: C_10  and  C_13
   10  A    between atoms: C_13  and  C_24
   11  A    between atoms: C_14  and  C_18
   12  A    between atoms: C_19  and  C_21
                            x       y       z     vdW  Elec       q    Type
                         _______ _______ _______ _____ _____    ______ ____

>  <TORSDO>
F 12

$$$$
=
 OpenBabel11052423033D

 28 29  0  0  1  0  0  0  0  0999 V2000
  160.6400  204.4970  150.2750 O   0  0  0  0  0  0  0  0  0  0  0  0
  160.0860  206.6450  148.4720 O   0  0  0  0  0  1  0  0  0  0  0  0
  161.4870  207.3000  150.3120 C   0  0  1  0  0  3  0  0  0  0  0  0
  162.8310  206.0040  152.0030 C   0  0  0  0  0  3  0  0  0  0  0  0
  161.3470  206.4390  149.0410 C   0  0  1  0  0  3  0  0  0  0  0  0
  162.7270  206.9940  151.1030 C   0  0  0  0  0  3  0  0  0  0  0  0
  161.7550  205.0180  152.3830 C   0  0  2  0  0  3  0  0  0  0  0  0
  161.4050  203.9680  151.3230 C   0  0  0  0  0  2  0  0  0  0  0  0
  161.5640  204.9410  149.3160 C   0  0  2  0  0  3  0  0  0  0  0  0
  160.3930  204.3890  147.3000 O   0  0  0  0  0  1  0  0  0  0  0  0
  161.5310  204.0610  148.0390 C   0  0  2  0  0  0  0  0  0  0  0  0
  161.4140  202.5680  148.3860 C   0  0  0  0  0  2  0  0  0  0  0  0
  160.7370  201.7230  147.3130 C   0  0  0  0  0  1  0  0  0  0  0  0
  162.7500  204.3090  147.1290 C   0  0  0  0  0  2  0  0  0  0  0  0
  162.4370  204.3740  145.6380 C   0  0  0  0  0  2  0  0  0  0  0  0
  162.3120  205.8150  145.1830 C   0  0  0  0  0  1  0  0  0  0  0  0
  161.0220  206.6420  154.2050 C   0  0  0  0  0  1  0  0  0  0  0  0
  160.6020  205.5560  153.2330 C   0  0  0  0  0  2  0  0  0  0  0  0
  161.4180  208.8120  150.0480 C   0  0  1  0  0  3  0  0  0  0  0  0
  161.8390  209.6940  151.2340 C   0  0  0  0  0  2  0  0  0  0  0  0
  160.7540  209.8160  152.2970 C   0  0  0  0  0  2  0  0  0  0  0  0
  161.3550  210.2690  153.6150 C   0  0  0  0  0  2  0  0  0  0  0  0
  160.2620  210.4790  154.6470 C   0  0  0  0  0  1  0  0  0  0  0  0
  162.0580  209.2080  148.7180 C   0  0  0  0  0  2  0  0  0  0  0  0
  162.4620  210.6740  148.7130 C   0  0  0  0  0  2  0  0  0  0  0  0
  161.4340  211.5110  147.9730 C   0  0  2  0  0  3  0  0  0  0  0  0
  162.0790  212.6230  147.4050 O   0  0  0  0  0  0  0  0  0  0  0  0
  161.3450  212.8540  148.5820 C   0  0  0  0  0  2  0  0  0  0  0  0
  1  8  1  0  0  0  0
  3 19  1  6  0  0  0
  3  6  1  0  0  0  0
  4  7  1  0  0  0  0
  5  2  1  1  0  0  0
  5  9  1  0  0  0  0
  5  3  1  0  0  0  0
  6  4  2  0  0  0  0
  7 18  1  6  0  0  0
  8  7  1  0  0  0  0
  9 11  1  6  0  0  0
  9  1  1  0  0  0  0
 11 10  1  6  0  0  0
 11 12  1  0  0  0  0
 13 12  1  0  0  0  0
 14 11  1  0  0  0  0
 15 14  1  0  0  0  0
 16 15  1  0  0  0  0
 18 17  1  0  0  0  0
 19 24  1  6  0  0  0
 19 20  1  0  0  0  0
 20 21  1  0  0  0  0
 21 22  1  0  0  0  0
 22 23  1  0  0  0  0
 25 24  1  0  0  0  0
 26 28  1  0  0  0  0
 26 25  1  1  0  0  0
 27 26  1  0  0  0  0
 27 28  1  0  0  0  0
M  END
>  <MODEL>
4

>  <REMARK>
 VINA RESULT:      -5.8      2.413      5.921
  Name = 
  12 active torsions:
  status: ('A' for Active; 'I' for Inactive)
    1  A    between atoms: C_3  and  C_7
    2  A    between atoms: C_3  and  C_11
    3  A    between atoms: C_3  and  C_27
    4  A    between atoms: C_4  and  C_12
    5  A    between atoms: C_4  and  C_24
    6  A    between atoms: C_6  and  C_11
    7  A    between atoms: C_9  and  C_13
    8  A    between atoms: C_9  and  C_18
    9  A    between atoms: C_10  and  C_13
   10  A    between atoms: C_13  and  C_24
   11  A    between atoms: C_14  and  C_18
   12  A    between atoms: C_19  and  C_21
                            x       y       z     vdW  Elec       q    Type
                         _______ _______ _______ _____ _____    ______ ____

>  <TORSDO>
F 12

$$$$
=
 OpenBabel11052423033D

 28 29  0  0  1  0  0  0  0  0999 V2000
  160.7340  211.2290  155.1790 O   0  0  0  0  0  0  0  0  0  0  0  0
  161.1540  210.6390  152.4140 O   0  0  0  0  0  1  0  0  0  0  0  0
  161.0310  208.6710  153.7870 C   0  0  1  0  0  3  0  0  0  0  0  0
  160.2060  208.2510  156.1300 C   0  0  0  0  0  3  0  0  0  0  0  0
  160.2890  209.8980  153.2240 C   0  0  1  0  0  3  0  0  0  0  0  0
  160.2450  207.9260  154.8280 C   0  0  0  0  0  3  0  0  0  0  0  0
  160.9180  209.4050  156.7900 C   0  0  2  0  0  3  0  0  0  0  0  0
  160.3750  210.8000  156.4630 C   0  0  0  0  0  2  0  0  0  0  0  0
  159.7040  210.7930  154.3310 C   0  0  2  0  0  3  0  0  0  0  0  0
  159.3750  213.1670  154.3240 O   0  0  0  0  0  1  0  0  0  0  0  0
  158.8630  211.9810  153.7930 C   0  0  2  0  0  0  0  0  0  0  0  0
  157.3990  211.8890  154.2540 C   0  0  0  0  0  2  0  0  0  0  0  0
  157.1780  211.0080  155.4760 C   0  0  0  0  0  1  0  0  0  0  0  0
  158.9390  212.1010  152.2580 C   0  0  0  0  0  2  0  0  0  0  0  0
  158.7970  213.5190  151.7160 C   0  0  0  0  0  2  0  0  0  0  0  0
  159.8810  213.8110  150.6970 C   0  0  0  0  0  1  0  0  0  0  0  0
  163.1260  210.5870  157.2610 C   0  0  0  0  0  1  0  0  0  0  0  0
  162.4330  209.2720  156.9540 C   0  0  0  0  0  2  0  0  0  0  0  0
  161.5020  207.6820  152.7090 C   0  0  1  0  0  3  0  0  0  0  0  0
  161.3150  206.2000  153.0670 C   0  0  0  0  0  2  0  0  0  0  0  0
  161.9240  205.2590  152.0350 C   0  0  0  0  0  2  0  0  0  0  0  0
  160.9480  204.1490  151.6900 C   0  0  0  0  0  2  0  0  0  0  0  0
  160.8630  203.9710  150.1860 C   0  0  0  0  0  1  0  0  0  0  0  0
  161.0080  208.0540  151.3120 C   0  0  0  0  0  2  0  0  0  0  0  0
  162.1690  208.2890  150.3580 C   0  0  0  0  0  2  0  0  0  0  0  0
  161.6880  208.3010  148.9190 C   0  0  2  0  0  3  0  0  0  0  0  0
  160.8550  207.1880  148.7100 O   0  0  0  0  0  0  0  0  0  0  0  0
  162.1680  207.0930  148.2170 C   0  0  0  0  0  2  0  0  0  0  0  0
  1  8  1  0  0  0  0
  3 19  1  6  0  0  0
  3  6  1  0  0  0  0
  4  7  1  0  0  0  0
  5  2  1  1  0  0  0
  5  3  1  0  0  0  0
  5  9  1  0  0  0  0
  6  4  2  0  0  0  0
  7 18  1  6  0  0  0
  8  7  1  0  0  0  0
  9 11  1  6  0  0  0
  9  1  1  0  0  0  0
 11 12  1  0  0  0  0
 11 10  1  1  0  0  0
 12 13  1  0  0  0  0
 14 11  1  0  0  0  0
 15 14  1  0  0  0  0
 16 15  1  0  0  0  0
 18 17  1  0  0  0  0
 19 24  1  6  0  0  0
 19 20  1  0  0  0  0
 21 20  1  0  0  0  0
 22 21  1  0  0  0  0
 23 22  1  0  0  0  0
 25 24  1  0  0  0  0
 26 25  1  1  0  0  0
 27 26  1  0  0  0  0
 28 27  1  0  0  0  0
 28 26  1  0  0  0  0
M  END
>  <MODEL>
5

>  <REMARK>
 VINA RESULT:      -5.7      3.796      8.411
  Name = 
  12 active torsions:
  status: ('A' for Active; 'I' for Inactive)
    1  A    between atoms: C_3  and  C_7
    2  A    between atoms: C_3  and  C_11
    3  A    between atoms: C_3  and  C_27
    4  A    between atoms: C_4  and  C_12
    5  A    between atoms: C_4  and  C_24
    6  A    between atoms: C_6  and  C_11
    7  A    between atoms: C_9  and  C_13
    8  A    between atoms: C_9  and  C_18
    9  A    between atoms: C_10  and  C_13
   10  A    between atoms: C_13  and  C_24
   11  A    between atoms: C_14  and  C_18
   12  A    between atoms: C_19  and  C_21
                            x       y       z     vdW  Elec       q    Type
                         _______ _______ _______ _____ _____    ______ ____

>  <TORSDO>
F 12

$$$$
=
 OpenBabel11052423033D

 28 29  0  0  1  0  0  0  0  0999 V2000
  162.5020  207.0830  151.4510 O   0  0  0  0  0  0  0  0  0  0  0  0
  163.0920  207.5100  148.6870 O   0  0  0  0  0  1  0  0  0  0  0  0
  161.4940  205.7510  149.0470 C   0  0  1  0  0  3  0  0  0  0  0  0
  160.0790  205.0830  151.0210 C   0  0  0  0  0  3  0  0  0  0  0  0
  161.7990  207.2580  149.1560 C   0  0  1  0  0  3  0  0  0  0  0  0
  160.2070  205.3550  149.7130 C   0  0  0  0  0  3  0  0  0  0  0  0
  161.1710  205.1290  152.0600 C   0  0  2  0  0  3  0  0  0  0  0  0
  161.6770  206.5260  152.4370 C   0  0  0  0  0  2  0  0  0  0  0  0
  161.6450  207.7880  150.5920 C   0  0  2  0  0  3  0  0  0  0  0  0
  163.0880  209.5650  151.3020 O   0  0  0  0  0  1  0  0  0  0  0  0
  161.8450  209.3220  150.7150 C   0  0  2  0  0  0  0  0  0  0  0  0
  160.7910  209.9550  151.6390 C   0  0  0  0  0  2  0  0  0  0  0  0
  161.3050  210.3110  153.0290 C   0  0  0  0  0  1  0  0  0  0  0  0
  161.8470  210.0210  149.3410 C   0  0  0  0  0  2  0  0  0  0  0  0
  161.9540  211.5420  149.3940 C   0  0  0  0  0  2  0  0  0  0  0  0
  161.6570  212.1430  148.0340 C   0  0  0  0  0  1  0  0  0  0  0  0
  161.6220  202.6530  151.6580 C   0  0  0  0  0  1  0  0  0  0  0  0
  162.2100  204.0060  152.0130 C   0  0  0  0  0  2  0  0  0  0  0  0
  161.4990  205.2190  147.6040 C   0  0  1  0  0  3  0  0  0  0  0  0
  161.9860  203.7710  147.4520 C   0  0  0  0  0  2  0  0  0  0  0  0
  160.8580  202.7940  147.1460 C   0  0  0  0  0  2  0  0  0  0  0  0
  160.5910  201.9020  148.3450 C   0  0  0  0  0  2  0  0  0  0  0  0
  161.5330  200.7130  148.3370 C   0  0  0  0  0  1  0  0  0  0  0  0
  160.1980  205.5220  146.8610 C   0  0  0  0  0  2  0  0  0  0  0  0
  160.4670  206.1990  145.5270 C   0  0  0  0  0  2  0  0  0  0  0  0
  160.7910  205.1720  144.4580 C   0  0  2  0  0  3  0  0  0  0  0  0
  162.1870  205.0870  144.3190 O   0  0  0  0  0  0  0  0  0  0  0  0
  161.4990  205.8190  143.3350 C   0  0  0  0  0  2  0  0  0  0  0  0
  1  8  1  0  0  0  0
  3 19  1  6  0  0  0
  3  5  1  0  0  0  0
  3  6  1  0  0  0  0
  4  7  1  0  0  0  0
  5  2  1  1  0  0  0
  5  9  1  0  0  0  0
  6  4  2  0  0  0  0
  7 18  1  6  0  0  0
  7  8  1  0  0  0  0
  9 11  1  6  0  0  0
  9  1  1  0  0  0  0
 11 10  1  1  0  0  0
 11 12  1  0  0  0  0
 12 13  1  0  0  0  0
 14 15  1  0  0  0  0
 14 11  1  0  0  0  0
 16 15  1  0  0  0  0
 17 18  1  0  0  0  0
 19 24  1  1  0  0  0
 20 19  1  0  0  0  0
 21 20  1  0  0  0  0
 21 22  1  0  0  0  0
 23 22  1  0  0  0  0
 25 24  1  0  0  0  0
 26 25  1  1  0  0  0
 27 26  1  0  0  0  0
 28 27  1  0  0  0  0
 28 26  1  0  0  0  0
M  END
>  <MODEL>
6

>  <REMARK>
 VINA RESULT:      -5.7      1.898      6.370
  Name = 
  12 active torsions:
  status: ('A' for Active; 'I' for Inactive)
    1  A    between atoms: C_3  and  C_7
    2  A    between atoms: C_3  and  C_11
    3  A    between atoms: C_3  and  C_27
    4  A    between atoms: C_4  and  C_12
    5  A    between atoms: C_4  and  C_24
    6  A    between atoms: C_6  and  C_11
    7  A    between atoms: C_9  and  C_13
    8  A    between atoms: C_9  and  C_18
    9  A    between atoms: C_10  and  C_13
   10  A    between atoms: C_13  and  C_24
   11  A    between atoms: C_14  and  C_18
   12  A    between atoms: C_19  and  C_21
                            x       y       z     vdW  Elec       q    Type
                         _______ _______ _______ _____ _____    ______ ____

>  <TORSDO>
F 12

$$$$
=
 OpenBabel11052423033D

 28 29  0  0  1  0  0  0  0  0999 V2000
  160.7230  206.8960  148.6390 O   0  0  0  0  0  0  0  0  0  0  0  0
  160.0820  204.6430  150.2780 O   0  0  0  0  0  1  0  0  0  0  0  0
  161.3490  204.0530  148.3220 C   0  0  1  0  0  3  0  0  0  0  0  0
  162.7160  205.3920  146.6840 C   0  0  0  0  0  3  0  0  0  0  0  0
  161.3290  204.8060  149.6670 C   0  0  1  0  0  3  0  0  0  0  0  0
  162.5740  204.3360  147.5000 C   0  0  0  0  0  3  0  0  0  0  0  0
  161.7040  206.4830  146.4420 C   0  0  2  0  0  3  0  0  0  0  0  0
  161.4810  207.4580  147.6030 C   0  0  0  0  0  2  0  0  0  0  0  0
  161.6490  206.3030  149.5100 C   0  0  2  0  0  3  0  0  0  0  0  0
  160.4650  207.5300  151.1930 O   0  0  0  0  0  1  0  0  0  0  0  0
  161.7380  207.0660  150.8580 C   0  0  2  0  0  0  0  0  0  0  0  0
  162.6410  208.3060  150.7450 C   0  0  0  0  0  2  0  0  0  0  0  0
  161.9600  209.6170  151.1170 C   0  0  0  0  0  1  0  0  0  0  0  0
  162.2100  206.1590  152.0110 C   0  0  0  0  0  2  0  0  0  0  0  0
  161.1990  205.9740  153.1380 C   0  0  0  0  0  2  0  0  0  0  0  0
  161.3950  207.0310  154.2070 C   0  0  0  0  0  1  0  0  0  0  0  0
  160.8150  205.7000  144.1850 C   0  0  0  0  0  1  0  0  0  0  0  0
  160.4770  206.1080  145.6070 C   0  0  0  0  0  2  0  0  0  0  0  0
  161.1750  202.5320  148.4600 C   0  0  1  0  0  3  0  0  0  0  0  0
  159.7890  202.0820  148.9450 C   0  0  0  0  0  2  0  0  0  0  0  0
  159.8410  201.3100  150.2570 C   0  0  0  0  0  2  0  0  0  0  0  0
  161.2700  201.2170  150.7590 C   0  0  0  0  0  2  0  0  0  0  0  0
  161.4820  202.1640  151.9250 C   0  0  0  0  0  1  0  0  0  0  0  0
  161.6870  201.7680  147.2390 C   0  0  0  0  0  2  0  0  0  0  0  0
  160.6030  200.8840  146.6440 C   0  0  0  0  0  2  0  0  0  0  0  0
  160.4430  201.1550  145.1600 C   0  0  2  0  0  3  0  0  0  0  0  0
  160.4940  202.5430  144.9440 O   0  0  0  0  0  0  0  0  0  0  0  0
  159.2200  201.9490  144.9210 C   0  0  0  0  0  2  0  0  0  0  0  0
  1  9  1  0  0  0  0
  3 19  1  1  0  0  0
  3  5  1  0  0  0  0
  4  6  2  0  0  0  0
  5  2  1  6  0  0  0
  6  3  1  0  0  0  0
  7 18  1  1  0  0  0
  7  4  1  0  0  0  0
  7  8  1  0  0  0  0
  8  1  1  0  0  0  0
  9  5  1  0  0  0  0
  9 11  1  1  0  0  0
 11 10  1  1  0  0  0
 11 14  1  0  0  0  0
 12 11  1  0  0  0  0
 12 13  1  0  0  0  0
 14 15  1  0  0  0  0
 15 16  1  0  0  0  0
 17 18  1  0  0  0  0
 19 24  1  6  0  0  0
 19 20  1  0  0  0  0
 20 21  1  0  0  0  0
 21 22  1  0  0  0  0
 22 23  1  0  0  0  0
 25 24  1  0  0  0  0
 26 25  1  1  0  0  0
 27 26  1  0  0  0  0
 28 27  1  0  0  0  0
 28 26  1  0  0  0  0
M  END
>  <MODEL>
7

>  <REMARK>
 VINA RESULT:      -5.5      1.655      5.997
  Name = 
  12 active torsions:
  status: ('A' for Active; 'I' for Inactive)
    1  A    between atoms: C_3  and  C_7
    2  A    between atoms: C_3  and  C_11
    3  A    between atoms: C_3  and  C_27
    4  A    between atoms: C_4  and  C_12
    5  A    between atoms: C_4  and  C_24
    6  A    between atoms: C_6  and  C_11
    7  A    between atoms: C_9  and  C_13
    8  A    between atoms: C_9  and  C_18
    9  A    between atoms: C_10  and  C_13
   10  A    between atoms: C_13  and  C_24
   11  A    between atoms: C_14  and  C_18
   12  A    between atoms: C_19  and  C_21
                            x       y       z     vdW  Elec       q    Type
                         _______ _______ _______ _____ _____    ______ ____

>  <TORSDO>
F 12

$$$$
=
 OpenBabel11052423033D

 28 29  0  0  1  0  0  0  0  0999 V2000
  161.9090  203.7820  148.0580 O   0  0  0  0  0  0  0  0  0  0  0  0
  162.4860  205.1470  150.5010 O   0  0  0  0  0  1  0  0  0  0  0  0
  161.6560  206.6070  148.7820 C   0  0  1  0  0  3  0  0  0  0  0  0
  160.4640  206.1990  146.6000 C   0  0  0  0  0  3  0  0  0  0  0  0
  161.3570  205.4260  149.7260 C   0  0  1  0  0  3  0  0  0  0  0  0
  160.5720  206.8480  147.7700 C   0  0  0  0  0  3  0  0  0  0  0  0
  161.3810  205.1180  146.0840 C   0  0  2  0  0  3  0  0  0  0  0  0
  161.2900  203.7670  146.8000 C   0  0  0  0  0  2  0  0  0  0  0  0
  160.9110  204.1630  148.9680 C   0  0  2  0  0  3  0  0  0  0  0  0
  159.3190  202.4300  149.4180 O   0  0  0  0  0  1  0  0  0  0  0  0
  160.5050  202.9890  149.8970 C   0  0  2  0  0  0  0  0  0  0  0  0
  160.2140  203.4760  151.3270 C   0  0  0  0  0  2  0  0  0  0  0  0
  161.1090  202.8630  152.3960 C   0  0  0  0  0  1  0  0  0  0  0  0
  161.5610  201.8670  149.9150 C   0  0  0  0  0  2  0  0  0  0  0  0
  161.0830  200.5260  149.3680 C   0  0  0  0  0  2  0  0  0  0  0  0
  161.5270  200.3500  147.9290 C   0  0  0  0  0  1  0  0  0  0  0  0
  163.8070  204.4560  145.6710 C   0  0  0  0  0  1  0  0  0  0  0  0
  162.7690  205.5620  145.6160 C   0  0  0  0  0  2  0  0  0  0  0  0
  161.9640  207.9230  149.5130 C   0  0  1  0  0  3  0  0  0  0  0  0
  162.1550  209.1410  148.5970 C   0  0  0  0  0  2  0  0  0  0  0  0
  162.0640  210.4660  149.3430 C   0  0  0  0  0  2  0  0  0  0  0  0
  162.3660  211.6220  148.4080 C   0  0  0  0  0  2  0  0  0  0  0  0
  161.2060  212.6000  148.3850 C   0  0  0  0  0  1  0  0  0  0  0  0
  161.0290  208.1730  150.6960 C   0  0  0  0  0  2  0  0  0  0  0  0
  161.7500  207.9820  152.0210 C   0  0  0  0  0  2  0  0  0  0  0  0
  160.8540  207.2790  153.0240 C   0  0  2  0  0  3  0  0  0  0  0  0
  161.3320  207.5380  154.3200 O   0  0  0  0  0  0  0  0  0  0  0  0
  161.6320  206.2750  153.7780 C   0  0  0  0  0  2  0  0  0  0  0  0
  1  9  1  0  0  0  0
  3 19  1  1  0  0  0
  3  5  1  0  0  0  0
  4  6  2  0  0  0  0
  5  2  1  6  0  0  0
  6  3  1  0  0  0  0
  7 18  1  1  0  0  0
  7  4  1  0  0  0  0
  7  8  1  0  0  0  0
  8  1  1  0  0  0  0
  9  5  1  0  0  0  0
  9 11  1  1  0  0  0
 11 10  1  6  0  0  0
 11 14  1  0  0  0  0
 11 12  1  0  0  0  0
 12 13  1  0  0  0  0
 15 14  1  0  0  0  0
 16 15  1  0  0  0  0
 18 17  1  0  0  0  0
 19 20  1  6  0  0  0
 19 24  1  0  0  0  0
 20 21  1  0  0  0  0
 22 21  1  0  0  0  0
 23 22  1  0  0  0  0
 24 25  1  0  0  0  0
 26 25  1  6  0  0  0
 26 28  1  0  0  0  0
 26 27  1  0  0  0  0
 28 27  1  0  0  0  0
M  END
>  <MODEL>
8

>  <REMARK>
 VINA RESULT:      -5.4      1.797      5.472
  Name = 
  12 active torsions:
  status: ('A' for Active; 'I' for Inactive)
    1  A    between atoms: C_3  and  C_7
    2  A    between atoms: C_3  and  C_11
    3  A    between atoms: C_3  and  C_27
    4  A    between atoms: C_4  and  C_12
    5  A    between atoms: C_4  and  C_24
    6  A    between atoms: C_6  and  C_11
    7  A    between atoms: C_9  and  C_13
    8  A    between atoms: C_9  and  C_18
    9  A    between atoms: C_10  and  C_13
   10  A    between atoms: C_13  and  C_24
   11  A    between atoms: C_14  and  C_18
   12  A    between atoms: C_19  and  C_21
                            x       y       z     vdW  Elec       q    Type
                         _______ _______ _______ _____ _____    ______ ____

>  <TORSDO>
F 12

$$$$
=
 OpenBabel11052423033D

 28 29  0  0  1  0  0  0  0  0999 V2000
  160.8060  211.3200  155.2450 O   0  0  0  0  0  0  0  0  0  0  0  0
  160.7900  210.5250  152.5000 O   0  0  0  0  0  1  0  0  0  0  0  0
  160.7590  208.6620  154.0190 C   0  0  1  0  0  3  0  0  0  0  0  0
  160.2590  208.4500  156.4780 C   0  0  0  0  0  3  0  0  0  0  0  0
  160.0120  209.8950  153.4760 C   0  0  1  0  0  3  0  0  0  0  0  0
  160.0920  208.0400  155.2120 C   0  0  0  0  0  3  0  0  0  0  0  0
  161.1200  209.5970  156.9450 C   0  0  2  0  0  3  0  0  0  0  0  0
  160.6130  210.9990  156.5960 C   0  0  0  0  0  2  0  0  0  0  0  0
  159.6430  210.8970  154.5840 C   0  0  2  0  0  3  0  0  0  0  0  0
  159.5940  213.2460  154.1120 O   0  0  0  0  0  1  0  0  0  0  0  0
  158.7990  212.0990  154.0830 C   0  0  2  0  0  0  0  0  0  0  0  0
  157.6010  212.3710  155.0090 C   0  0  0  0  0  2  0  0  0  0  0  0
  156.4830  211.3410  154.9120 C   0  0  0  0  0  1  0  0  0  0  0  0
  158.3240  211.9110  152.6290 C   0  0  0  0  0  2  0  0  0  0  0  0
  158.6660  213.0620  151.6870 C   0  0  0  0  0  2  0  0  0  0  0  0
  157.4110  213.8060  151.2790 C   0  0  0  0  0  1  0  0  0  0  0  0
  163.4350  210.6600  157.0390 C   0  0  0  0  0  1  0  0  0  0  0  0
  162.6340  209.3780  156.9040 C   0  0  0  0  0  2  0  0  0  0  0  0
  161.0160  207.5760  152.9610 C   0  0  1  0  0  3  0  0  0  0  0  0
  161.8900  208.0210  151.7790 C   0  0  0  0  0  2  0  0  0  0  0  0
  161.2080  207.8260  150.4310 C   0  0  0  0  0  2  0  0  0  0  0  0
  161.9870  208.5320  149.3360 C   0  0  0  0  0  2  0  0  0  0  0  0
  162.3870  207.5470  148.2540 C   0  0  0  0  0  1  0  0  0  0  0  0
  161.4320  206.2410  153.5780 C   0  0  0  0  0  2  0  0  0  0  0  0
  161.9520  205.2810  152.5190 C   0  0  0  0  0  2  0  0  0  0  0  0
  160.9170  204.2180  152.2030 C   0  0  2  0  0  3  0  0  0  0  0  0
  161.5650  203.1110  151.6260 O   0  0  0  0  0  0  0  0  0  0  0  0
  160.8800  203.9680  150.7470 C   0  0  0  0  0  2  0  0  0  0  0  0
  1  8  1  0  0  0  0
  3 19  1  6  0  0  0
  3  6  1  0  0  0  0
  4  7  1  0  0  0  0
  5  2  1  6  0  0  0
  5  3  1  0  0  0  0
  5  9  1  0  0  0  0
  6  4  2  0  0  0  0
  7 18  1  6  0  0  0
  8  7  1  0  0  0  0
  9 11  1  6  0  0  0
  9  1  1  0  0  0  0
 11 10  1  1  0  0  0
 11 12  1  0  0  0  0
 13 12  1  0  0  0  0
 14 11  1  0  0  0  0
 15 14  1  0  0  0  0
 16 15  1  0  0  0  0
 18 17  1  0  0  0  0
 19 20  1  6  0  0  0
 19 24  1  0  0  0  0
 21 20  1  0  0  0  0
 22 21  1  0  0  0  0
 23 22  1  0  0  0  0
 25 24  1  0  0  0  0
 26 25  1  6  0  0  0
 27 26  1  0  0  0  0
 28 27  1  0  0  0  0
 28 26  1  0  0  0  0
M  END
>  <MODEL>
9

>  <REMARK>
 VINA RESULT:      -5.3      4.025      8.596
  Name = 
  12 active torsions:
  status: ('A' for Active; 'I' for Inactive)
    1  A    between atoms: C_3  and  C_7
    2  A    between atoms: C_3  and  C_11
    3  A    between atoms: C_3  and  C_27
    4  A    between atoms: C_4  and  C_12
    5  A    between atoms: C_4  and  C_24
    6  A    between atoms: C_6  and  C_11
    7  A    between atoms: C_9  and  C_13
    8  A    between atoms: C_9  and  C_18
    9  A    between atoms: C_10  and  C_13
   10  A    between atoms: C_13  and  C_24
   11  A    between atoms: C_14  and  C_18
   12  A    between atoms: C_19  and  C_21
                            x       y       z     vdW  Elec       q    Type
                         _______ _______ _______ _____ _____    ______ ____

>  <TORSDO>
F 12

$$$$
