=
 OpenBabel11052423063D

 27 31  0  0  1  0  0  0  0  0999 V2000
  161.9740  206.6000  152.9730 C   0  0  0  0  0  2  0  0  0  0  0  0
  161.2300  207.5110  150.7530 C   0  0  0  0  0  0  0  0  0  0  0  0
  161.4610  209.3380  152.4320 O   0  0  0  0  0  0  0  0  0  0  0  0
  162.0310  210.5400  147.8590 C   0  0  0  0  0  2  0  0  0  0  0  0
  163.6340  212.1060  148.6950 O   0  0  0  0  0  1  0  0  0  0  0  0
  161.2060  207.1600  149.3830 C   0  0  0  0  0  3  0  0  0  0  0  0
  162.0250  211.2390  150.2390 C   0  0  1  0  0  3  0  0  0  0  0  0
  159.6420  209.3070  155.7290 C   0  0  0  0  0  2  0  0  0  0  0  0
  160.8100  211.9690  150.7830 C   0  0  0  0  0  1  0  0  0  0  0  0
  160.5260  208.4560  156.6370 C   0  0  0  0  0  2  0  0  0  0  0  0
  161.7290  209.7910  150.0830 C   0  0  0  0  0  0  0  0  0  0  0  0
  160.9960  206.4450  151.8090 C   0  0  1  0  0  3  0  0  0  0  0  0
  162.3000  211.7170  148.8060 C   0  0  2  0  0  3  0  0  0  0  0  0
  161.7280  209.4160  148.7660 C   0  0  0  0  0  0  0  0  0  0  0  0
  161.4120  207.5070  154.0630 C   0  0  2  0  0  3  0  0  0  0  0  0
  161.4660  208.8710  151.1080 C   0  0  0  0  0  0  0  0  0  0  0  0
  160.4750  209.8160  154.5600 C   0  0  0  0  0  2  0  0  0  0  0  0
  161.4560  208.1070  148.3860 C   0  0  0  0  0  3  0  0  0  0  0  0
  160.4740  207.0220  156.3280 N   0  0  0  0  0  2  0  0  0  0  0  0
  160.4080  206.7100  154.8950 C   0  0  0  0  0  2  0  0  0  0  0  0
  160.7100  208.7510  153.4900 C   0  0  1  0  0  3  0  0  0  0  0  0
  161.0290  202.3820  150.3870 C   0  0  0  0  0  3  0  0  0  0  0  0
  161.0130  205.0330  151.2940 C   0  0  0  0  0  0  0  0  0  0  0  0
  161.1890  203.9800  152.1990 C   0  0  0  0  0  3  0  0  0  0  0  0
  161.1980  202.6580  151.7470 C   0  0  0  0  0  3  0  0  0  0  0  0
  160.8510  203.4290  149.4770 C   0  0  0  0  0  3  0  0  0  0  0  0
  160.8420  204.7510  149.9290 C   0  0  0  0  0  3  0  0  0  0  0  0
  2 16  1  0  0  0  0
  2 12  1  0  0  0  0
  3 21  1  0  0  0  0
  4 14  1  0  0  0  0
  4 13  1  0  0  0  0
  6  2  2  0  0  0  0
  7  9  1  6  0  0  0
  8 10  1  0  0  0  0
 11  7  1  0  0  0  0
 11 16  2  0  0  0  0
 12 23  1  6  0  0  0
 12  1  1  0  0  0  0
 13  5  1  1  0  0  0
 13  7  1  0  0  0  0
 14 11  1  0  0  0  0
 15  1  1  6  0  0  0
 15 20  1  0  0  0  0
 16  3  1  0  0  0  0
 17  8  1  0  0  0  0
 18 14  2  0  0  0  0
 18  6  1  0  0  0  0
 19 10  1  0  0  0  0
 20 19  1  0  0  0  0
 21 15  1  0  0  0  0
 21 17  1  1  0  0  0
 22 25  1  0  0  0  0
 23 24  1  0  0  0  0
 25 24  2  0  0  0  0
 26 27  1  0  0  0  0
 26 22  2  0  0  0  0
 27 23  2  0  0  0  0
M  END
>  <MODEL>
1

>  <REMARK>
 VINA RESULT:      -8.1      0.000      0.000
  Name = 
  1 active torsions:
  status: ('A' for Active; 'I' for Inactive)
    1  A    between atoms: C_9  and  C_15
                            x       y       z     vdW  Elec       q    Type
                         _______ _______ _______ _____ _____    ______ ____

>  <TORSDO>
F 1

$$$$
=
 OpenBabel11052423063D

 27 31  0  0  1  0  0  0  0  0999 V2000
  160.2300  210.0880  152.1270 C   0  0  0  0  0  2  0  0  0  0  0  0
  161.5090  208.5650  150.5920 C   0  0  0  0  0  0  0  0  0  0  0  0
  160.8890  207.3880  152.7000 O   0  0  0  0  0  0  0  0  0  0  0  0
  161.4780  204.6830  148.8240 C   0  0  0  0  0  2  0  0  0  0  0  0
  159.7350  203.3400  149.7620 O   0  0  0  0  0  1  0  0  0  0  0  0
  161.8660  208.4400  149.2300 C   0  0  0  0  0  3  0  0  0  0  0  0
  160.9040  204.8210  151.2340 C   0  0  1  0  0  3  0  0  0  0  0  0
  161.8380  208.6880  156.1040 C   0  0  0  0  0  2  0  0  0  0  0  0
  161.9560  204.4320  152.2580 C   0  0  0  0  0  1  0  0  0  0  0  0
  160.7480  209.7040  156.4340 C   0  0  0  0  0  2  0  0  0  0  0  0
  161.2150  206.1560  150.6580 C   0  0  0  0  0  0  0  0  0  0  0  0
  161.4630  209.9380  151.2380 C   0  0  1  0  0  3  0  0  0  0  0  0
  160.9960  203.8690  150.0330 C   0  0  2  0  0  3  0  0  0  0  0  0
  161.5360  206.0690  149.3300 C   0  0  0  0  0  0  0  0  0  0  0  0
  160.5150  209.6540  153.5620 C   0  0  2  0  0  3  0  0  0  0  0  0
  161.2070  207.3850  151.3320 C   0  0  0  0  0  0  0  0  0  0  0  0
  161.3240  207.7410  155.0270 C   0  0  0  0  0  2  0  0  0  0  0  0
  161.8800  207.1960  148.5930 C   0  0  0  0  0  3  0  0  0  0  0  0
  160.8590  210.9520  155.6680 N   0  0  0  0  0  2  0  0  0  0  0  0
  161.2740  210.7740  154.2720 C   0  0  0  0  0  2  0  0  0  0  0  0
  161.3500  208.3630  153.6310 C   0  0  1  0  0  3  0  0  0  0  0  0
  161.7130  213.2710  148.5250 C   0  0  0  0  0  3  0  0  0  0  0  0
  161.5590  211.0900  150.2760 C   0  0  0  0  0  0  0  0  0  0  0  0
  160.7110  212.1900  150.4450 C   0  0  0  0  0  3  0  0  0  0  0  0
  160.7870  213.2780  149.5710 C   0  0  0  0  0  3  0  0  0  0  0  0
  162.5650  212.1760  148.3510 C   0  0  0  0  0  3  0  0  0  0  0  0
  162.4900  211.0880  149.2250 C   0  0  0  0  0  3  0  0  0  0  0  0
  2 12  1  0  0  0  0
  2 16  1  0  0  0  0
  3 21  1  0  0  0  0
  4 14  1  0  0  0  0
  4 13  1  0  0  0  0
  6  2  2  0  0  0  0
  7  9  1  1  0  0  0
  8 10  1  0  0  0  0
 11  7  1  0  0  0  0
 11 16  2  0  0  0  0
 12 23  1  6  0  0  0
 12  1  1  0  0  0  0
 13  5  1  6  0  0  0
 13  7  1  0  0  0  0
 14 11  1  0  0  0  0
 15  1  1  6  0  0  0
 15 21  1  0  0  0  0
 15 20  1  0  0  0  0
 16  3  1  0  0  0  0
 17  8  1  0  0  0  0
 18  6  1  0  0  0  0
 18 14  2  0  0  0  0
 19 10  1  0  0  0  0
 20 19  1  0  0  0  0
 21 17  1  1  0  0  0
 22 25  1  0  0  0  0
 23 24  1  0  0  0  0
 25 24  2  0  0  0  0
 26 22  2  0  0  0  0
 26 27  1  0  0  0  0
 27 23  2  0  0  0  0
M  END
>  <MODEL>
2

>  <REMARK>
 VINA RESULT:      -7.9      1.888      5.733
  Name = 
  1 active torsions:
  status: ('A' for Active; 'I' for Inactive)
    1  A    between atoms: C_9  and  C_15
                            x       y       z     vdW  Elec       q    Type
                         _______ _______ _______ _____ _____    ______ ____

>  <TORSDO>
F 1

$$$$
=
 OpenBabel11052423063D

 27 31  0  0  1  0  0  0  0  0999 V2000
  162.4390  209.2330  150.0900 C   0  0  0  0  0  2  0  0  0  0  0  0
  161.0870  210.1220  152.0120 C   0  0  0  0  0  0  0  0  0  0  0  0
  161.4470  207.6670  152.2380 O   0  0  0  0  0  0  0  0  0  0  0  0
  160.7810  210.1190  156.2670 C   0  0  0  0  0  2  0  0  0  0  0  0
  162.3040  208.5420  157.2230 O   0  0  0  0  0  1  0  0  0  0  0  0
  160.7970  211.3400  152.6690 C   0  0  0  0  0  3  0  0  0  0  0  0
  161.2270  207.9360  155.1740 C   0  0  1  0  0  3  0  0  0  0  0  0
  160.4560  205.2140  149.5580 C   0  0  0  0  0  2  0  0  0  0  0  0
  160.0810  206.9530  155.0120 C   0  0  0  0  0  1  0  0  0  0  0  0
  161.6330  205.2260  148.5860 C   0  0  0  0  0  2  0  0  0  0  0  0
  161.1030  209.0390  154.1850 C   0  0  0  0  0  0  0  0  0  0  0  0
  161.2500  210.0990  150.5030 C   0  0  1  0  0  3  0  0  0  0  0  0
  161.0970  208.6410  156.5320 C   0  0  2  0  0  3  0  0  0  0  0  0
  160.8500  210.2380  154.7970 C   0  0  0  0  0  0  0  0  0  0  0  0
  162.0240  207.7830  149.8570 C   0  0  2  0  0  3  0  0  0  0  0  0
  161.2110  208.9350  152.7910 C   0  0  0  0  0  0  0  0  0  0  0  0
  160.9210  205.7490  150.9060 C   0  0  0  0  0  2  0  0  0  0  0  0
  160.6800  211.4050  154.0610 C   0  0  0  0  0  3  0  0  0  0  0  0
  161.7080  206.4460  147.7710 N   0  0  0  0  0  2  0  0  0  0  0  0
  161.3570  207.6780  148.4860 C   0  0  0  0  0  2  0  0  0  0  0  0
  161.0470  207.2710  150.9300 C   0  0  1  0  0  3  0  0  0  0  0  0
  161.5360  213.9560  148.6110 C   0  0  0  0  0  3  0  0  0  0  0  0
  161.3410  211.4550  149.8580 C   0  0  0  0  0  0  0  0  0  0  0  0
  162.3180  211.6810  148.8820 C   0  0  0  0  0  3  0  0  0  0  0  0
  162.4160  212.9290  148.2610 C   0  0  0  0  0  3  0  0  0  0  0  0
  160.5550  213.7370  149.5840 C   0  0  0  0  0  3  0  0  0  0  0  0
  160.4560  212.4890  150.2060 C   0  0  0  0  0  3  0  0  0  0  0  0
  1 12  1  0  0  0  0
  2  6  2  0  0  0  0
  2 16  1  0  0  0  0
  3 16  1  0  0  0  0
  4 13  1  0  0  0  0
  6 18  1  0  0  0  0
  7  9  1  6  0  0  0
  7 13  1  0  0  0  0
  8 17  1  0  0  0  0
 10  8  1  0  0  0  0
 11 14  1  0  0  0  0
 11  7  1  0  0  0  0
 12 23  1  1  0  0  0
 12  2  1  0  0  0  0
 13  5  1  6  0  0  0
 14  4  1  0  0  0  0
 15 20  1  6  0  0  0
 15  1  1  0  0  0  0
 15 21  1  0  0  0  0
 16 11  2  0  0  0  0
 18 14  2  0  0  0  0
 19 20  1  0  0  0  0
 19 10  1  0  0  0  0
 21 17  1  1  0  0  0
 21  3  1  0  0  0  0
 22 26  1  0  0  0  0
 23 27  1  0  0  0  0
 24 23  2  0  0  0  0
 25 22  2  0  0  0  0
 25 24  1  0  0  0  0
 26 27  2  0  0  0  0
M  END
>  <MODEL>
3

>  <REMARK>
 VINA RESULT:      -7.2      2.478      7.011
  Name = 
  1 active torsions:
  status: ('A' for Active; 'I' for Inactive)
    1  A    between atoms: C_9  and  C_15
                            x       y       z     vdW  Elec       q    Type
                         _______ _______ _______ _____ _____    ______ ____

>  <TORSDO>
F 1

$$$$
=
 OpenBabel11052423063D

 27 31  0  0  1  0  0  0  0  0999 V2000
  162.3290  209.3290  150.9960 C   0  0  0  0  0  2  0  0  0  0  0  0
  161.1610  207.1900  150.3860 C   0  0  0  0  0  0  0  0  0  0  0  0
  161.8030  208.4660  148.3440 O   0  0  0  0  0  0  0  0  0  0  0  0
  161.4300  203.7390  147.8930 C   0  0  0  0  0  2  0  0  0  0  0  0
  163.2240  203.9640  146.3270 O   0  0  0  0  0  1  0  0  0  0  0  0
  160.8360  205.9300  150.9390 C   0  0  0  0  0  3  0  0  0  0  0  0
  161.9510  205.9250  146.8410 C   0  0  1  0  0  3  0  0  0  0  0  0
  160.7240  212.0240  147.7520 C   0  0  0  0  0  2  0  0  0  0  0  0
  160.9040  206.5780  145.9580 C   0  0  0  0  0  1  0  0  0  0  0  0
  161.7520  212.8590  148.5110 C   0  0  0  0  0  2  0  0  0  0  0  0
  161.5810  206.0700  148.2730 C   0  0  0  0  0  0  0  0  0  0  0  0
  161.1220  208.4300  151.2610 C   0  0  1  0  0  3  0  0  0  0  0  0
  161.9320  204.4070  146.6060 C   0  0  2  0  0  3  0  0  0  0  0  0
  161.2890  204.8600  148.8430 C   0  0  0  0  0  0  0  0  0  0  0  0
  162.0400  210.3490  149.8980 C   0  0  2  0  0  3  0  0  0  0  0  0
  161.5120  207.2630  149.0060 C   0  0  0  0  0  0  0  0  0  0  0  0
  161.3070  210.6430  147.4830 C   0  0  0  0  0  2  0  0  0  0  0  0
  160.9000  204.7620  150.1740 C   0  0  0  0  0  3  0  0  0  0  0  0
  161.5890  212.8050  149.9690 N   0  0  0  0  0  2  0  0  0  0  0  0
  161.2110  211.4860  150.4910 C   0  0  0  0  0  2  0  0  0  0  0  0
  161.2750  209.7360  148.7120 C   0  0  1  0  0  3  0  0  0  0  0  0
  160.6880  207.7010  155.4810 C   0  0  0  0  0  3  0  0  0  0  0  0
  160.9830  208.1600  152.7330 C   0  0  0  0  0  0  0  0  0  0  0  0
  160.6090  209.2050  153.5850 C   0  0  0  0  0  3  0  0  0  0  0  0
  160.4630  208.9770  154.9560 C   0  0  0  0  0  3  0  0  0  0  0  0
  161.0600  206.6510  154.6350 C   0  0  0  0  0  3  0  0  0  0  0  0
  161.2060  206.8790  153.2640 C   0  0  0  0  0  3  0  0  0  0  0  0
  1 12  1  0  0  0  0
  2  6  1  0  0  0  0
  2 12  1  0  0  0  0
  3 21  1  0  0  0  0
  3 16  1  0  0  0  0
  4 14  1  0  0  0  0
  7  9  1  6  0  0  0
  7 11  1  0  0  0  0
  8 10  1  0  0  0  0
 10 19  1  0  0  0  0
 11 14  2  0  0  0  0
 11 16  1  0  0  0  0
 12 23  1  1  0  0  0
 13  5  1  1  0  0  0
 13  7  1  0  0  0  0
 13  4  1  0  0  0  0
 14 18  1  0  0  0  0
 15 20  1  1  0  0  0
 15  1  1  0  0  0  0
 16  2  2  0  0  0  0
 17  8  1  0  0  0  0
 18  6  2  0  0  0  0
 19 20  1  0  0  0  0
 21 17  1  6  0  0  0
 21 15  1  0  0  0  0
 23 27  2  0  0  0  0
 23 24  1  0  0  0  0
 24 25  2  0  0  0  0
 25 22  1  0  0  0  0
 26 22  2  0  0  0  0
 27 26  1  0  0  0  0
M  END
>  <MODEL>
4

>  <REMARK>
 VINA RESULT:      -7.0      2.783      5.915
  Name = 
  1 active torsions:
  status: ('A' for Active; 'I' for Inactive)
    1  A    between atoms: C_9  and  C_15
                            x       y       z     vdW  Elec       q    Type
                         _______ _______ _______ _____ _____    ______ ____

>  <TORSDO>
F 1

$$$$
=
 OpenBabel11052423063D

 27 31  0  0  1  0  0  0  0  0999 V2000
  158.9730  211.5230  152.3840 C   0  0  0  0  0  2  0  0  0  0  0  0
  160.9900  210.0780  151.9890 C   0  0  0  0  0  0  0  0  0  0  0  0
  159.8390  209.4410  154.1060 O   0  0  0  0  0  0  0  0  0  0  0  0
  162.3310  206.0300  151.9060 C   0  0  0  0  0  2  0  0  0  0  0  0
  160.6340  204.5590  152.7320 O   0  0  0  0  0  1  0  0  0  0  0  0
  161.8530  209.6740  150.9450 C   0  0  0  0  0  3  0  0  0  0  0  0
  160.8700  206.6880  153.8010 C   0  0  1  0  0  3  0  0  0  0  0  0
  159.1750  211.9040  156.8750 C   0  0  0  0  0  2  0  0  0  0  0  0
  161.5060  206.9530  155.1540 C   0  0  0  0  0  1  0  0  0  0  0  0
  157.8780  212.5940  156.4610 C   0  0  0  0  0  2  0  0  0  0  0  0
  161.1310  207.8230  152.8780 C   0  0  0  0  0  0  0  0  0  0  0  0
  160.4560  211.4990  152.0190 C   0  0  1  0  0  3  0  0  0  0  0  0
  161.5810  205.5000  153.1360 C   0  0  2  0  0  3  0  0  0  0  0  0
  161.9420  207.4520  151.8390 C   0  0  0  0  0  0  0  0  0  0  0  0
  158.7650  211.6360  153.8910 C   0  0  2  0  0  3  0  0  0  0  0  0
  160.6470  209.1330  153.0000 C   0  0  0  0  0  0  0  0  0  0  0  0
  159.2880  210.5750  156.1400 C   0  0  0  0  0  2  0  0  0  0  0  0
  162.3310  208.3630  150.8630 C   0  0  0  0  0  3  0  0  0  0  0  0
  158.0450  213.5350  155.3460 N   0  0  0  0  0  2  0  0  0  0  0  0
  158.9830  213.0890  154.3090 C   0  0  0  0  0  2  0  0  0  0  0  0
  159.7290  210.7370  154.6860 C   0  0  1  0  0  3  0  0  0  0  0  0
  161.1410  213.8150  148.4560 C   0  0  0  0  0  3  0  0  0  0  0  0
  160.7010  212.2910  150.7650 C   0  0  0  0  0  0  0  0  0  0  0  0
  160.0540  213.5210  150.5990 C   0  0  0  0  0  3  0  0  0  0  0  0
  160.2720  214.2810  149.4460 C   0  0  0  0  0  3  0  0  0  0  0  0
  161.7930  212.5890  148.6160 C   0  0  0  0  0  3  0  0  0  0  0  0
  161.5750  211.8280  149.7680 C   0  0  0  0  0  3  0  0  0  0  0  0
  2 12  1  0  0  0  0
  2 16  1  0  0  0  0
  3 21  1  0  0  0  0
  4 13  1  0  0  0  0
  6  2  2  0  0  0  0
  7  9  1  1  0  0  0
 10  8  1  0  0  0  0
 11 16  2  0  0  0  0
 11  7  1  0  0  0  0
 12 23  1  6  0  0  0
 12  1  1  0  0  0  0
 13  5  1  6  0  0  0
 13  7  1  0  0  0  0
 14  4  1  0  0  0  0
 14 11  1  0  0  0  0
 15  1  1  6  0  0  0
 15 20  1  0  0  0  0
 15 21  1  0  0  0  0
 16  3  1  0  0  0  0
 17  8  1  0  0  0  0
 18  6  1  0  0  0  0
 18 14  2  0  0  0  0
 19 10  1  0  0  0  0
 20 19  1  0  0  0  0
 21 17  1  1  0  0  0
 22 26  2  0  0  0  0
 22 25  1  0  0  0  0
 24 23  1  0  0  0  0
 25 24  2  0  0  0  0
 26 27  1  0  0  0  0
 27 23  2  0  0  0  0
M  END
>  <MODEL>
5

>  <REMARK>
 VINA RESULT:      -6.5      2.746      6.368
  Name = 
  1 active torsions:
  status: ('A' for Active; 'I' for Inactive)
    1  A    between atoms: C_9  and  C_15
                            x       y       z     vdW  Elec       q    Type
                         _______ _______ _______ _____ _____    ______ ____

>  <TORSDO>
F 1

$$$$
=
 OpenBabel11052423063D

 27 31  0  0  1  0  0  0  0  0999 V2000
  162.3020  210.9890  150.3880 C   0  0  0  0  0  2  0  0  0  0  0  0
  160.2600  212.3310  150.9710 C   0  0  0  0  0  0  0  0  0  0  0  0
  160.6800  210.5630  152.6760 O   0  0  0  0  0  0  0  0  0  0  0  0
  158.3570  214.4530  154.1450 C   0  0  0  0  0  2  0  0  0  0  0  0
  159.5080  214.0960  156.2120 O   0  0  0  0  0  1  0  0  0  0  0  0
  159.6560  213.5770  150.6850 C   0  0  0  0  0  3  0  0  0  0  0  0
  159.3390  212.2440  154.7050 C   0  0  1  0  0  3  0  0  0  0  0  0
  160.9620  206.9140  151.7890 C   0  0  0  0  0  2  0  0  0  0  0  0
  158.4140  211.0480  154.8440 C   0  0  0  0  0  1  0  0  0  0  0  0
  162.4160  206.7450  151.3580 C   0  0  0  0  0  2  0  0  0  0  0  0
  159.5230  212.5880  153.2710 C   0  0  0  0  0  0  0  0  0  0  0  0
  160.9870  211.5750  149.8740 C   0  0  1  0  0  3  0  0  0  0  0  0
  158.6520  213.4830  155.2980 C   0  0  2  0  0  3  0  0  0  0  0  0
  158.9730  213.8060  152.9700 C   0  0  0  0  0  0  0  0  0  0  0  0
  162.1110  209.5810  150.9430 C   0  0  2  0  0  3  0  0  0  0  0  0
  160.1610  211.8100  152.2950 C   0  0  0  0  0  0  0  0  0  0  0  0
  160.8380  208.1750  152.6350 C   0  0  0  0  0  2  0  0  0  0  0  0
  159.0130  214.3190  151.6790 C   0  0  0  0  0  3  0  0  0  0  0  0
  162.7090  207.3290  150.0430 N   0  0  0  0  0  2  0  0  0  0  0  0
  162.0260  208.6000  149.7750 C   0  0  0  0  0  2  0  0  0  0  0  0
  160.8370  209.4530  151.7980 C   0  0  1  0  0  3  0  0  0  0  0  0
  161.7100  213.8330  146.2810 C   0  0  0  0  0  3  0  0  0  0  0  0
  161.2200  212.3610  148.6140 C   0  0  0  0  0  0  0  0  0  0  0  0
  162.3000  213.2500  148.5560 C   0  0  0  0  0  3  0  0  0  0  0  0
  162.5440  213.9850  147.3930 C   0  0  0  0  0  3  0  0  0  0  0  0
  160.6310  212.9450  146.3320 C   0  0  0  0  0  3  0  0  0  0  0  0
  160.3870  212.2100  147.4940 C   0  0  0  0  0  3  0  0  0  0  0  0
  1 15  1  0  0  0  0
  2 16  1  0  0  0  0
  4 13  1  0  0  0  0
  6  2  2  0  0  0  0
  6 18  1  0  0  0  0
  7  9  1  6  0  0  0
  7 13  1  0  0  0  0
  8 17  1  0  0  0  0
 10  8  1  0  0  0  0
 11  7  1  0  0  0  0
 12 23  1  6  0  0  0
 12  1  1  0  0  0  0
 12  2  1  0  0  0  0
 13  5  1  1  0  0  0
 14 11  1  0  0  0  0
 14  4  1  0  0  0  0
 15 20  1  6  0  0  0
 15 21  1  0  0  0  0
 16  3  1  0  0  0  0
 16 11  2  0  0  0  0
 18 14  2  0  0  0  0
 19 10  1  0  0  0  0
 20 19  1  0  0  0  0
 21 17  1  1  0  0  0
 21  3  1  0  0  0  0
 22 26  2  0  0  0  0
 22 25  1  0  0  0  0
 24 23  1  0  0  0  0
 25 24  2  0  0  0  0
 26 27  1  0  0  0  0
 27 23  2  0  0  0  0
M  END
>  <MODEL>
6

>  <REMARK>
 VINA RESULT:      -6.3      2.880      6.933
  Name = 
  1 active torsions:
  status: ('A' for Active; 'I' for Inactive)
    1  A    between atoms: C_9  and  C_15
                            x       y       z     vdW  Elec       q    Type
                         _______ _______ _______ _____ _____    ______ ____

>  <TORSDO>
F 1

$$$$
=
 OpenBabel11052423063D

 27 31  0  0  1  0  0  0  0  0999 V2000
  160.3970  207.3260  150.5500 C   0  0  0  0  0  2  0  0  0  0  0  0
  161.1870  206.9360  152.9030 C   0  0  0  0  0  0  0  0  0  0  0  0
  161.0860  209.3730  152.3900 O   0  0  0  0  0  0  0  0  0  0  0  0
  160.5680  208.1160  156.9550 C   0  0  0  0  0  2  0  0  0  0  0  0
  159.0770  209.9830  157.0750 O   0  0  0  0  0  1  0  0  0  0  0  0
  161.1790  205.9370  153.9040 C   0  0  0  0  0  3  0  0  0  0  0  0
  160.6350  209.9260  155.2590 C   0  0  1  0  0  3  0  0  0  0  0  0
  162.9190  210.9130  149.4840 C   0  0  0  0  0  2  0  0  0  0  0  0
  161.8990  210.7570  155.1280 C   0  0  0  0  0  1  0  0  0  0  0  0
  161.9870  210.6960  148.2950 C   0  0  0  0  0  2  0  0  0  0  0  0
  160.8350  208.5850  154.6510 C   0  0  0  0  0  0  0  0  0  0  0  0
  161.3560  206.5430  151.4460 C   0  0  1  0  0  3  0  0  0  0  0  0
  160.3830  209.6250  156.7440 C   0  0  2  0  0  3  0  0  0  0  0  0
  160.8020  207.5930  155.5950 C   0  0  0  0  0  0  0  0  0  0  0  0
  161.0250  208.6260  150.0550 C   0  0  2  0  0  3  0  0  0  0  0  0
  161.0430  208.2990  153.2940 C   0  0  0  0  0  0  0  0  0  0  0  0
  162.1140  210.8060  150.7730 C   0  0  0  0  0  2  0  0  0  0  0  0
  160.9850  206.2590  155.2500 C   0  0  0  0  0  3  0  0  0  0  0  0
  161.9420  209.3030  147.8320 N   0  0  0  0  0  2  0  0  0  0  0  0
  161.9790  208.3030  148.9060 C   0  0  0  0  0  2  0  0  0  0  0  0
  161.8030  209.3610  151.1600 C   0  0  1  0  0  3  0  0  0  0  0  0
  161.0420  202.3320  150.6090 C   0  0  0  0  0  3  0  0  0  0  0  0
  161.2430  205.0690  151.1740 C   0  0  0  0  0  0  0  0  0  0  0  0
  160.9020  204.6390  149.8860 C   0  0  0  0  0  3  0  0  0  0  0  0
  160.8010  203.2740  149.6050 C   0  0  0  0  0  3  0  0  0  0  0  0
  161.3850  202.7550  151.8970 C   0  0  0  0  0  3  0  0  0  0  0  0
  161.4870  204.1200  152.1800 C   0  0  0  0  0  3  0  0  0  0  0  0
  1 12  1  0  0  0  0
  2 16  2  0  0  0  0
  2  6  1  0  0  0  0
  3 16  1  0  0  0  0
  6 18  2  0  0  0  0
  7  9  1  1  0  0  0
  7 13  1  0  0  0  0
  8 17  1  0  0  0  0
 10  8  1  0  0  0  0
 11  7  1  0  0  0  0
 11 14  2  0  0  0  0
 12 23  1  1  0  0  0
 12  2  1  0  0  0  0
 13  4  1  0  0  0  0
 13  5  1  6  0  0  0
 14  4  1  0  0  0  0
 15 20  1  6  0  0  0
 15  1  1  0  0  0  0
 15 21  1  0  0  0  0
 16 11  1  0  0  0  0
 18 14  1  0  0  0  0
 19 10  1  0  0  0  0
 19 20  1  0  0  0  0
 21 17  1  6  0  0  0
 21  3  1  0  0  0  0
 22 26  1  0  0  0  0
 23 27  1  0  0  0  0
 24 23  2  0  0  0  0
 25 24  1  0  0  0  0
 25 22  2  0  0  0  0
 26 27  2  0  0  0  0
M  END
>  <MODEL>
7

>  <REMARK>
 VINA RESULT:      -6.3      2.152      5.407
  Name = 
  1 active torsions:
  status: ('A' for Active; 'I' for Inactive)
    1  A    between atoms: C_9  and  C_15
                            x       y       z     vdW  Elec       q    Type
                         _______ _______ _______ _____ _____    ______ ____

>  <TORSDO>
F 1

$$$$
=
 OpenBabel11052423063D

 27 31  0  0  1  0  0  0  0  0999 V2000
  162.5490  210.0030  152.2060 C   0  0  0  0  0  2  0  0  0  0  0  0
  161.0920  208.0640  152.8630 C   0  0  0  0  0  0  0  0  0  0  0  0
  161.9070  207.8120  150.5220 O   0  0  0  0  0  0  0  0  0  0  0  0
  160.8740  203.8040  152.8790 C   0  0  0  0  0  2  0  0  0  0  0  0
  162.6820  202.8600  151.6290 O   0  0  0  0  0  1  0  0  0  0  0  0
  160.5930  207.4170  154.0170 C   0  0  0  0  0  3  0  0  0  0  0  0
  161.6970  204.8760  150.7980 C   0  0  1  0  0  3  0  0  0  0  0  0
  161.3380  210.4350  147.8810 C   0  0  0  0  0  2  0  0  0  0  0  0
  160.7510  204.9990  149.6160 C   0  0  0  0  0  1  0  0  0  0  0  0
  162.4730  211.4330  148.0940 C   0  0  0  0  0  2  0  0  0  0  0  0
  161.3510  205.8770  151.8410 C   0  0  0  0  0  0  0  0  0  0  0  0
  161.2280  209.5760  152.8450 C   0  0  1  0  0  3  0  0  0  0  0  0
  161.4650  203.5250  151.4900 C   0  0  2  0  0  3  0  0  0  0  0  0
  160.8920  205.2760  152.9830 C   0  0  0  0  0  0  0  0  0  0  0  0
  162.4060  210.2060  150.7010 C   0  0  2  0  0  3  0  0  0  0  0  0
  161.4490  207.2710  151.7340 C   0  0  0  0  0  0  0  0  0  0  0  0
  161.7210  209.1050  148.5160 C   0  0  0  0  0  2  0  0  0  0  0  0
  160.4930  206.0250  154.0840 C   0  0  0  0  0  3  0  0  0  0  0  0
  162.3040  212.2660  149.2910 N   0  0  0  0  0  2  0  0  0  0  0  0
  161.7440  211.5600  150.4500 C   0  0  0  0  0  2  0  0  0  0  0  0
  161.5620  209.1060  150.0360 C   0  0  1  0  0  3  0  0  0  0  0  0
  160.7810  211.4950  156.6720 C   0  0  0  0  0  3  0  0  0  0  0  0
  161.0520  210.2410  154.1820 C   0  0  0  0  0  0  0  0  0  0  0  0
  162.1680  210.4120  155.0090 C   0  0  0  0  0  3  0  0  0  0  0  0
  162.0330  211.0360  156.2520 C   0  0  0  0  0  3  0  0  0  0  0  0
  159.6620  211.3290  155.8500 C   0  0  0  0  0  3  0  0  0  0  0  0
  159.7960  210.7050  154.6070 C   0  0  0  0  0  3  0  0  0  0  0  0
  1 12  1  0  0  0  0
  2  6  1  0  0  0  0
  3 16  1  0  0  0  0
  4 14  1  0  0  0  0
  6 18  2  0  0  0  0
  7  9  1  6  0  0  0
  7 13  1  0  0  0  0
  7 11  1  0  0  0  0
  8 10  1  0  0  0  0
  8 17  1  0  0  0  0
 10 19  1  0  0  0  0
 11 14  2  0  0  0  0
 12  2  1  0  0  0  0
 12 23  1  1  0  0  0
 13  5  1  1  0  0  0
 13  4  1  0  0  0  0
 14 18  1  0  0  0  0
 15 20  1  1  0  0  0
 15  1  1  0  0  0  0
 16 11  1  0  0  0  0
 16  2  2  0  0  0  0
 19 20  1  0  0  0  0
 21 17  1  6  0  0  0
 21  3  1  0  0  0  0
 21 15  1  0  0  0  0
 23 27  2  0  0  0  0
 23 24  1  0  0  0  0
 24 25  2  0  0  0  0
 25 22  1  0  0  0  0
 26 22  2  0  0  0  0
 27 26  1  0  0  0  0
M  END
>  <MODEL>
8

>  <REMARK>
 VINA RESULT:      -6.1      2.514      6.923
  Name = 
  1 active torsions:
  status: ('A' for Active; 'I' for Inactive)
    1  A    between atoms: C_9  and  C_15
                            x       y       z     vdW  Elec       q    Type
                         _______ _______ _______ _____ _____    ______ ____

>  <TORSDO>
F 1

$$$$
=
 OpenBabel11052423063D

 27 31  0  0  1  0  0  0  0  0999 V2000
  162.2860  204.4190  148.7540 C   0  0  0  0  0  2  0  0  0  0  0  0
  161.4410  206.7830  148.8420 C   0  0  0  0  0  0  0  0  0  0  0  0
  161.5900  205.8070  151.1300 O   0  0  0  0  0  0  0  0  0  0  0  0
  161.9910  210.5410  150.7860 C   0  0  0  0  0  2  0  0  0  0  0  0
  163.5080  210.3280  152.6230 O   0  0  0  0  0  1  0  0  0  0  0  0
  161.4110  207.9610  148.0590 C   0  0  0  0  0  3  0  0  0  0  0  0
  161.9880  208.5220  152.2290 C   0  0  1  0  0  3  0  0  0  0  0  0
  159.8440  202.6120  152.0910 C   0  0  0  0  0  2  0  0  0  0  0  0
  160.7410  208.2000  153.0320 C   0  0  0  0  0  1  0  0  0  0  0  0
  160.7980  201.5120  151.6350 C   0  0  0  0  0  2  0  0  0  0  0  0
  161.7810  208.1830  150.7970 C   0  0  0  0  0  0  0  0  0  0  0  0
  161.2970  205.4280  148.1730 C   0  0  1  0  0  3  0  0  0  0  0  0
  162.2040  210.0430  152.2220 C   0  0  2  0  0  3  0  0  0  0  0  0
  161.7770  209.3030  150.0090 C   0  0  0  0  0  0  0  0  0  0  0  0
  161.6900  203.6650  149.9390 C   0  0  2  0  0  3  0  0  0  0  0  0
  161.5980  206.9040  150.2540 C   0  0  0  0  0  0  0  0  0  0  0  0
  160.6200  203.9160  152.2300 C   0  0  0  0  0  2  0  0  0  0  0  0
  161.5810  209.2220  148.6360 C   0  0  0  0  0  3  0  0  0  0  0  0
  160.8310  201.3310  150.1780 N   0  0  0  0  0  2  0  0  0  0  0  0
  160.7560  202.5780  149.4080 C   0  0  0  0  0  2  0  0  0  0  0  0
  160.9000  204.5860  150.8850 C   0  0  1  0  0  3  0  0  0  0  0  0
  161.6140  205.4580  143.8800 C   0  0  0  0  0  3  0  0  0  0  0  0
  161.3920  205.4520  146.6730 C   0  0  0  0  0  0  0  0  0  0  0  0
  162.5940  205.0770  146.0620 C   0  0  0  0  0  3  0  0  0  0  0  0
  162.7060  205.0810  144.6680 C   0  0  0  0  0  3  0  0  0  0  0  0
  160.4100  205.8320  144.4840 C   0  0  0  0  0  3  0  0  0  0  0  0
  160.2980  205.8280  145.8770 C   0  0  0  0  0  3  0  0  0  0  0  0
  2 16  1  0  0  0  0
  4 13  1  0  0  0  0
  6 18  1  0  0  0  0
  6  2  2  0  0  0  0
  7  9  1  1  0  0  0
  8 17  1  0  0  0  0
 10  8  1  0  0  0  0
 11  7  1  0  0  0  0
 12 23  1  6  0  0  0
 12  1  1  0  0  0  0
 12  2  1  0  0  0  0
 13  7  1  0  0  0  0
 13  5  1  6  0  0  0
 14  4  1  0  0  0  0
 14 11  1  0  0  0  0
 15  1  1  6  0  0  0
 15 21  1  0  0  0  0
 16 11  2  0  0  0  0
 16  3  1  0  0  0  0
 18 14  2  0  0  0  0
 19 10  1  0  0  0  0
 20 15  1  0  0  0  0
 20 19  1  0  0  0  0
 21  3  1  0  0  0  0
 21 17  1  1  0  0  0
 22 26  2  0  0  0  0
 22 25  1  0  0  0  0
 24 23  1  0  0  0  0
 25 24  2  0  0  0  0
 26 27  1  0  0  0  0
 27 23  2  0  0  0  0
M  END
>  <MODEL>
9

>  <REMARK>
 VINA RESULT:      -5.3      2.877      5.120
  Name = 
  1 active torsions:
  status: ('A' for Active; 'I' for Inactive)
    1  A    between atoms: C_9  and  C_15
                            x       y       z     vdW  Elec       q    Type
                         _______ _______ _______ _____ _____    ______ ____

>  <TORSDO>
F 1

$$$$
