=
 OpenBabel11052422343D

 31 35  0  0  1  0  0  0  0  0999 V2000
  161.1940  201.4180  149.9200 C   0  0  0  0  0  0  0  0  0  0  0  0
  160.9820  205.1880  149.1890 C   0  0  1  0  0  3  0  0  0  0  0  0
  161.3530  205.2680  147.7120 C   0  0  0  0  0  0  0  0  0  0  0  0
  160.3730  206.5590  154.2250 O   0  0  0  0  0  0  0  0  0  0  0  0
  160.7740  207.5720  153.5910 C   0  0  0  0  0  0  0  0  0  0  0  0
  161.2040  204.3890  145.4530 C   0  0  0  0  0  0  0  0  0  0  0  0
  161.1140  203.8480  149.8930 C   0  0  0  0  0  0  0  0  0  0  0  0
  161.1310  201.4250  151.3160 C   0  0  0  0  0  3  0  0  0  0  0  0
  160.9620  204.2610  146.8190 C   0  0  0  0  0  3  0  0  0  0  0  0
  161.2180  206.2350  151.4550 C   0  0  0  0  0  0  0  0  0  0  0  0
  161.2600  200.2420  149.2520 F   0  0  0  0  0  0  0  0  0  0  0  0
  162.3020  207.6130  148.0460 C   0  0  0  0  0  2  0  0  0  0  0  0
  160.8470  203.4000  144.5990 F   0  0  0  0  0  0  0  0  0  0  0  0
  160.9880  205.0850  152.0230 N   0  0  0  0  0  0  0  0  0  0  0  0
  161.6920  206.2680  150.0220 C   0  0  2  0  0  3  0  0  0  0  0  0
  161.1840  207.4480  152.2210 N   0  0  0  0  0  2  0  0  0  0  0  0
  161.1720  202.6220  149.2120 C   0  0  0  0  0  3  0  0  0  0  0  0
  161.8060  205.5500  144.9740 C   0  0  0  0  0  3  0  0  0  0  0  0
  161.0500  203.8450  151.3030 C   0  0  0  0  0  0  0  0  0  0  0  0
  161.0560  202.6370  152.0060 C   0  0  0  0  0  3  0  0  0  0  0  0
  161.5290  207.6270  149.3590 C   0  0  0  0  0  2  0  0  0  0  0  0
  161.9090  206.4540  147.1710 C   0  0  0  0  0  0  0  0  0  0  0  0
  162.1390  206.5480  145.8330 N   0  0  0  0  0  0  0  0  0  0  0  0
  160.8720  211.4580  155.4150 C   0  0  0  0  0  0  0  0  0  0  0  0
  160.3240  210.0140  153.5580 C   0  0  0  0  0  3  0  0  0  0  0  0
  161.8630  208.0210  156.2810 O   0  0  0  0  0  1  0  0  0  0  0  0
  160.8950  212.6910  155.9770 F   0  0  0  0  0  0  0  0  0  0  0  0
  160.3470  211.2840  154.1350 C   0  0  0  0  0  3  0  0  0  0  0  0
  161.3540  209.0850  155.5470 C   0  0  0  0  0  0  0  0  0  0  0  0
  160.8230  208.8990  154.2490 C   0  0  0  0  0  0  0  0  0  0  0  0
  161.3730  210.3620  156.1170 C   0  0  0  0  0  3  0  0  0  0  0  0
  1  8  1  0  0  0  0
  2  3  1  6  0  0  0
  2  7  1  0  0  0  0
  2 15  1  0  0  0  0
  5  4  2  0  0  0  0
  5 30  1  0  0  0  0
  6  9  1  0  0  0  0
  7 19  2  0  0  0  0
  8 20  2  0  0  0  0
  9  3  2  0  0  0  0
 10 14  2  0  0  0  0
 10 16  1  0  0  0  0
 11  1  1  0  0  0  0
 12 21  1  0  0  0  0
 13  6  1  0  0  0  0
 15 21  1  6  0  0  0
 15 10  1  0  0  0  0
 16  5  1  0  0  0  0
 17  7  1  0  0  0  0
 17  1  2  0  0  0  0
 18  6  2  0  0  0  0
 18 23  1  0  0  0  0
 19 20  1  0  0  0  0
 19 14  1  0  0  0  0
 22  3  1  0  0  0  0
 22 12  1  0  0  0  0
 23 22  2  0  0  0  0
 24 27  1  0  0  0  0
 24 31  1  0  0  0  0
 25 28  1  0  0  0  0
 25 30  2  0  0  0  0
 28 24  2  0  0  0  0
 29 31  2  0  0  0  0
 29 26  1  0  0  0  0
 30 29  1  0  0  0  0
M  END
>  <MODEL>
1

>  <REMARK>
 VINA RESULT:     -11.0      0.000      0.000
  Name = 
  1 active torsions:
  status: ('A' for Active; 'I' for Inactive)
    1  A    between atoms: C_9  and  C_22
                            x       y       z     vdW  Elec       q    Type
                         _______ _______ _______ _____ _____    ______ ____

>  <TORSDO>
F 1

$$$$
=
 OpenBabel11052422343D

 31 35  0  0  1  0  0  0  0  0999 V2000
  161.2070  205.6650  153.6340 C   0  0  0  0  0  0  0  0  0  0  0  0
  160.9430  205.9770  149.8100 C   0  0  1  0  0  3  0  0  0  0  0  0
  161.0610  204.5310  149.3430 C   0  0  0  0  0  0  0  0  0  0  0  0
  161.2150  211.2250  149.7990 O   0  0  0  0  0  0  0  0  0  0  0  0
  161.5220  210.8160  148.6460 C   0  0  0  0  0  0  0  0  0  0  0  0
  160.5190  202.1790  149.6150 C   0  0  0  0  0  0  0  0  0  0  0  0
  161.1680  206.2790  151.2820 C   0  0  0  0  0  0  0  0  0  0  0  0
  161.3790  207.0050  153.9890 C   0  0  0  0  0  3  0  0  0  0  0  0
  160.5080  203.4870  150.0960 C   0  0  0  0  0  3  0  0  0  0  0  0
  161.5760  208.3640  149.3750 C   0  0  0  0  0  0  0  0  0  0  0  0
  161.1380  204.7140  154.5960 F   0  0  0  0  0  0  0  0  0  0  0  0
  162.0950  205.2950  147.1390 C   0  0  0  0  0  2  0  0  0  0  0  0
  160.0060  201.1710  150.3590 F   0  0  0  0  0  0  0  0  0  0  0  0
  161.4240  208.6470  150.6380 N   0  0  0  0  0  0  0  0  0  0  0  0
  161.8020  206.9300  148.9630 C   0  0  2  0  0  3  0  0  0  0  0  0
  161.6920  209.4120  148.4020 N   0  0  0  0  0  2  0  0  0  0  0  0
  161.0880  205.3050  152.2900 C   0  0  0  0  0  3  0  0  0  0  0  0
  161.0530  201.9220  148.3540 C   0  0  0  0  0  3  0  0  0  0  0  0
  161.3410  207.6310  151.6500 C   0  0  0  0  0  0  0  0  0  0  0  0
  161.4440  207.9870  152.9970 C   0  0  0  0  0  3  0  0  0  0  0  0
  161.5550  206.6770  147.4840 C   0  0  0  0  0  2  0  0  0  0  0  0
  161.5390  204.2290  148.0440 C   0  0  0  0  0  0  0  0  0  0  0  0
  161.5440  202.9420  147.6020 N   0  0  0  0  0  0  0  0  0  0  0  0
  161.9540  213.5830  145.3900 C   0  0  0  0  0  0  0  0  0  0  0  0
  160.6270  212.0170  146.6650 C   0  0  0  0  0  3  0  0  0  0  0  0
  164.0240  212.2640  148.1330 O   0  0  0  0  0  1  0  0  0  0  0  0
  162.0740  214.4530  144.3590 F   0  0  0  0  0  0  0  0  0  0  0  0
  160.7490  212.9140  145.6020 C   0  0  0  0  0  3  0  0  0  0  0  0
  162.9220  212.4600  147.3100 C   0  0  0  0  0  0  0  0  0  0  0  0
  161.7050  211.7770  147.5320 C   0  0  0  0  0  0  0  0  0  0  0  0
  163.0360  213.3560  146.2420 C   0  0  0  0  0  3  0  0  0  0  0  0
  1  8  1  0  0  0  0
  1 11  1  0  0  0  0
  2  3  1  1  0  0  0
  2  7  1  0  0  0  0
  3  9  1  0  0  0  0
  5  4  2  0  0  0  0
  6  9  2  0  0  0  0
  6 13  1  0  0  0  0
  7 19  2  0  0  0  0
  7 17  1  0  0  0  0
 10 14  2  0  0  0  0
 12 21  1  0  0  0  0
 12 22  1  0  0  0  0
 14 19  1  0  0  0  0
 15 21  1  6  0  0  0
 15 10  1  0  0  0  0
 15  2  1  0  0  0  0
 16  5  1  0  0  0  0
 16 10  1  0  0  0  0
 17  1  2  0  0  0  0
 18  6  1  0  0  0  0
 19 20  1  0  0  0  0
 20  8  2  0  0  0  0
 22  3  2  0  0  0  0
 23 22  1  0  0  0  0
 23 18  2  0  0  0  0
 24 28  2  0  0  0  0
 24 31  1  0  0  0  0
 25 30  2  0  0  0  0
 27 24  1  0  0  0  0
 28 25  1  0  0  0  0
 29 30  1  0  0  0  0
 29 26  1  0  0  0  0
 30  5  1  0  0  0  0
 31 29  2  0  0  0  0
M  END
>  <MODEL>
2

>  <REMARK>
 VINA RESULT:      -9.8      4.198      6.095
  Name = 
  1 active torsions:
  status: ('A' for Active; 'I' for Inactive)
    1  A    between atoms: C_9  and  C_22
                            x       y       z     vdW  Elec       q    Type
                         _______ _______ _______ _____ _____    ______ ____

>  <TORSDO>
F 1

$$$$
=
 OpenBabel11052422343D

 31 35  0  0  1  0  0  0  0  0999 V2000
  161.9580  210.7880  149.9990 C   0  0  0  0  0  0  0  0  0  0  0  0
  160.8920  207.3410  151.3290 C   0  0  1  0  0  3  0  0  0  0  0  0
  160.8920  207.5450  152.8390 C   0  0  0  0  0  0  0  0  0  0  0  0
  161.2120  204.9690  146.6500 O   0  0  0  0  0  0  0  0  0  0  0  0
  161.2630  204.0790  147.5430 C   0  0  0  0  0  0  0  0  0  0  0  0
  160.3950  208.9200  154.7780 C   0  0  0  0  0  0  0  0  0  0  0  0
  161.4270  208.4590  150.4510 C   0  0  0  0  0  0  0  0  0  0  0  0
  162.2160  210.4770  148.6620 C   0  0  0  0  0  3  0  0  0  0  0  0
  160.5000  208.7690  153.3970 C   0  0  0  0  0  3  0  0  0  0  0  0
  161.4440  205.7900  149.4370 C   0  0  0  0  0  0  0  0  0  0  0  0
  162.0840  212.0650  150.4330 F   0  0  0  0  0  0  0  0  0  0  0  0
  161.4430  205.0810  153.2040 C   0  0  0  0  0  2  0  0  0  0  0  0
  160.0400  210.1130  155.3120 F   0  0  0  0  0  0  0  0  0  0  0  0
  161.5660  206.8030  148.6270 N   0  0  0  0  0  0  0  0  0  0  0  0
  161.5620  206.0170  150.9250 C   0  0  2  0  0  3  0  0  0  0  0  0
  161.3630  204.4510  148.9260 N   0  0  0  0  0  2  0  0  0  0  0  0
  161.5520  209.7870  150.8850 C   0  0  0  0  0  3  0  0  0  0  0  0
  160.6460  207.8260  155.6040 C   0  0  0  0  0  3  0  0  0  0  0  0
  161.6890  208.1540  149.0980 C   0  0  0  0  0  0  0  0  0  0  0  0
  162.0790  209.1620  148.2110 C   0  0  0  0  0  3  0  0  0  0  0  0
  161.0030  204.8750  151.7600 C   0  0  0  0  0  2  0  0  0  0  0  0
  161.0810  206.4480  153.7160 C   0  0  0  0  0  0  0  0  0  0  0  0
  160.9770  206.6260  155.0610 N   0  0  0  0  0  0  0  0  0  0  0  0
  161.1530  199.8960  146.5770 C   0  0  0  0  0  0  0  0  0  0  0  0
  161.5080  201.6870  148.1600 C   0  0  0  0  0  3  0  0  0  0  0  0
  160.5910  203.1020  144.8570 O   0  0  0  0  0  1  0  0  0  0  0  0
  161.1220  198.5730  146.2890 F   0  0  0  0  0  0  0  0  0  0  0  0
  161.4770  200.3230  147.8650 C   0  0  0  0  0  3  0  0  0  0  0  0
  160.8880  202.2020  145.8740 C   0  0  0  0  0  0  0  0  0  0  0  0
  161.2160  202.6440  147.1760 C   0  0  0  0  0  0  0  0  0  0  0  0
  160.8600  200.8340  145.5860 C   0  0  0  0  0  3  0  0  0  0  0  0
  1 11  1  0  0  0  0
  1 17  1  0  0  0  0
  2  7  1  6  0  0  0
  2  3  1  0  0  0  0
  3  9  2  0  0  0  0
  3 22  1  0  0  0  0
  4  5  2  0  0  0  0
  5 16  1  0  0  0  0
  6 13  1  0  0  0  0
  6 18  2  0  0  0  0
  7 17  2  0  0  0  0
  8  1  2  0  0  0  0
  9  6  1  0  0  0  0
 10 15  1  0  0  0  0
 12 22  1  0  0  0  0
 14 19  1  0  0  0  0
 14 10  2  0  0  0  0
 15  2  1  0  0  0  0
 15 21  1  1  0  0  0
 16 10  1  0  0  0  0
 19  7  1  0  0  0  0
 20  8  1  0  0  0  0
 20 19  2  0  0  0  0
 21 12  1  0  0  0  0
 22 23  2  0  0  0  0
 23 18  1  0  0  0  0
 24 28  1  0  0  0  0
 26 29  1  0  0  0  0
 27 24  1  0  0  0  0
 28 25  2  0  0  0  0
 29 30  2  0  0  0  0
 30  5  1  0  0  0  0
 30 25  1  0  0  0  0
 31 29  1  0  0  0  0
 31 24  2  0  0  0  0
M  END
>  <MODEL>
3

>  <REMARK>
 VINA RESULT:      -9.2      3.244      9.250
  Name = 
  1 active torsions:
  status: ('A' for Active; 'I' for Inactive)
    1  A    between atoms: C_9  and  C_22
                            x       y       z     vdW  Elec       q    Type
                         _______ _______ _______ _____ _____    ______ ____

>  <TORSDO>
F 1

$$$$
=
 OpenBabel11052422343D

 31 35  0  0  1  0  0  0  0  0999 V2000
  160.8800  205.1230  145.4690 C   0  0  0  0  0  0  0  0  0  0  0  0
  161.3470  204.4890  149.2340 C   0  0  1  0  0  3  0  0  0  0  0  0
  161.1200  202.9860  149.3550 C   0  0  0  0  0  0  0  0  0  0  0  0
  161.5500  209.5860  150.4960 O   0  0  0  0  0  0  0  0  0  0  0  0
  161.2600  208.9380  151.5380 C   0  0  0  0  0  0  0  0  0  0  0  0
  161.4350  200.7340  148.5040 C   0  0  0  0  0  0  0  0  0  0  0  0
  161.0830  205.1510  147.8920 C   0  0  0  0  0  0  0  0  0  0  0  0
  160.8130  206.5180  145.4520 C   0  0  0  0  0  3  0  0  0  0  0  0
  161.5420  202.1140  148.3430 C   0  0  0  0  0  3  0  0  0  0  0  0
  160.9520  206.7440  150.2580 C   0  0  0  0  0  0  0  0  0  0  0  0
  160.8180  204.4280  144.3090 F   0  0  0  0  0  0  0  0  0  0  0  0
  160.2620  203.2770  151.7400 C   0  0  0  0  0  2  0  0  0  0  0  0
  161.8210  199.8970  147.5110 F   0  0  0  0  0  0  0  0  0  0  0  0
  161.0710  207.3080  149.0890 N   0  0  0  0  0  0  0  0  0  0  0  0
  160.6170  205.2740  150.3360 C   0  0  2  0  0  3  0  0  0  0  0  0
  160.9750  207.5330  151.4560 N   0  0  0  0  0  2  0  0  0  0  0  0
  161.0280  204.4440  146.6810 C   0  0  0  0  0  3  0  0  0  0  0  0
  160.9390  200.2240  149.7010 C   0  0  0  0  0  3  0  0  0  0  0  0
  161.0150  206.5610  147.8640 C   0  0  0  0  0  0  0  0  0  0  0  0
  160.8830  207.2360  146.6480 C   0  0  0  0  0  3  0  0  0  0  0  0
  160.9080  204.6560  151.6950 C   0  0  0  0  0  2  0  0  0  0  0  0
  160.6770  202.4200  150.5760 C   0  0  0  0  0  0  0  0  0  0  0  0
  160.5780  201.0680  150.7020 N   0  0  0  0  0  0  0  0  0  0  0  0
  161.1680  210.8130  155.4000 C   0  0  0  0  0  0  0  0  0  0  0  0
  161.6150  208.8990  153.9950 C   0  0  0  0  0  3  0  0  0  0  0  0
  160.3790  211.7120  151.9190 O   0  0  0  0  0  1  0  0  0  0  0  0
  161.1450  211.3900  156.6250 F   0  0  0  0  0  0  0  0  0  0  0  0
  161.5920  209.4920  155.2580 C   0  0  0  0  0  3  0  0  0  0  0  0
  160.7870  210.9530  153.0090 C   0  0  0  0  0  0  0  0  0  0  0  0
  161.2160  209.6150  152.8550 C   0  0  0  0  0  0  0  0  0  0  0  0
  160.7660  211.5400  154.2780 C   0  0  0  0  0  3  0  0  0  0  0  0
  1 17  1  0  0  0  0
  2  7  1  6  0  0  0
  2  3  1  0  0  0  0
  2 15  1  0  0  0  0
  3 22  1  0  0  0  0
  4  5  2  0  0  0  0
  5 30  1  0  0  0  0
  6 18  2  0  0  0  0
  8  1  2  0  0  0  0
  8 20  1  0  0  0  0
  9  6  1  0  0  0  0
  9  3  2  0  0  0  0
 10 15  1  0  0  0  0
 10 16  1  0  0  0  0
 11  1  1  0  0  0  0
 13  6  1  0  0  0  0
 14 10  2  0  0  0  0
 15 21  1  1  0  0  0
 16  5  1  0  0  0  0
 17  7  2  0  0  0  0
 18 23  1  0  0  0  0
 19  7  1  0  0  0  0
 19 14  1  0  0  0  0
 20 19  2  0  0  0  0
 21 12  1  0  0  0  0
 22 23  2  0  0  0  0
 22 12  1  0  0  0  0
 24 27  1  0  0  0  0
 25 28  2  0  0  0  0
 26 29  1  0  0  0  0
 28 24  1  0  0  0  0
 29 31  1  0  0  0  0
 30 29  2  0  0  0  0
 30 25  1  0  0  0  0
 31 24  2  0  0  0  0
M  END
>  <MODEL>
4

>  <REMARK>
 VINA RESULT:      -8.8      1.972      4.336
  Name = 
  1 active torsions:
  status: ('A' for Active; 'I' for Inactive)
    1  A    between atoms: C_9  and  C_22
                            x       y       z     vdW  Elec       q    Type
                         _______ _______ _______ _____ _____    ______ ____

>  <TORSDO>
F 1

$$$$
=
 OpenBabel11052422343D

 31 35  0  0  1  0  0  0  0  0999 V2000
  161.4560  208.2220  154.2230 C   0  0  0  0  0  0  0  0  0  0  0  0
  161.0310  207.5610  150.4580 C   0  0  1  0  0  3  0  0  0  0  0  0
  161.1490  206.0440  150.3650 C   0  0  0  0  0  0  0  0  0  0  0  0
  161.2290  212.6370  149.1150 O   0  0  0  0  0  0  0  0  0  0  0  0
  161.4940  211.9520  148.0900 C   0  0  0  0  0  0  0  0  0  0  0  0
  160.6510  203.8350  151.2430 C   0  0  0  0  0  0  0  0  0  0  0  0
  161.3110  208.2240  151.7950 C   0  0  0  0  0  0  0  0  0  0  0  0
  161.6250  209.6090  154.2210 C   0  0  0  0  0  3  0  0  0  0  0  0
  160.6420  205.2210  151.3800 C   0  0  0  0  0  3  0  0  0  0  0  0
  161.6120  209.7630  149.4100 C   0  0  0  0  0  0  0  0  0  0  0  0
  161.4400  207.5440  155.3950 F   0  0  0  0  0  0  0  0  0  0  0  0
  162.0810  206.2310  147.9970 C   0  0  0  0  0  2  0  0  0  0  0  0
  160.1830  203.0450  152.2380 F   0  0  0  0  0  0  0  0  0  0  0  0
  161.5080  210.3540  150.5670 N   0  0  0  0  0  0  0  0  0  0  0  0
  161.8410  208.2710  149.3620 C   0  0  2  0  0  3  0  0  0  0  0  0
  161.6740  210.5320  148.2000 N   0  0  0  0  0  2  0  0  0  0  0  0
  161.2870  207.5350  153.0180 C   0  0  0  0  0  3  0  0  0  0  0  0
  161.1360  203.2700  150.0650 C   0  0  0  0  0  3  0  0  0  0  0  0
  161.4810  209.6250  151.8040 C   0  0  0  0  0  0  0  0  0  0  0  0
  161.6350  210.3100  153.0120 C   0  0  0  0  0  3  0  0  0  0  0  0
  161.5360  207.6540  148.0060 C   0  0  0  0  0  2  0  0  0  0  0  0
  161.5770  205.4260  149.1640 C   0  0  0  0  0  0  0  0  0  0  0  0
  161.5810  204.0690  149.0610 N   0  0  0  0  0  0  0  0  0  0  0  0
  161.9530  213.8510  144.2660 C   0  0  0  0  0  0  0  0  0  0  0  0
  162.8690  213.1060  146.3740 C   0  0  0  0  0  3  0  0  0  0  0  0
  159.2620  212.2560  146.2060 O   0  0  0  0  0  1  0  0  0  0  0  0
  162.1140  214.4530  143.0630 F   0  0  0  0  0  0  0  0  0  0  0  0
  163.0370  213.7260  145.1350 C   0  0  0  0  0  3  0  0  0  0  0  0
  160.5250  212.7340  145.8770 C   0  0  0  0  0  0  0  0  0  0  0  0
  161.6180  212.6020  146.7640 C   0  0  0  0  0  0  0  0  0  0  0  0
  160.7020  213.3570  144.6370 C   0  0  0  0  0  3  0  0  0  0  0  0
  1 11  1  0  0  0  0
  2  3  1  1  0  0  0
  2  7  1  0  0  0  0
  3  9  1  0  0  0  0
  5 16  1  0  0  0  0
  5  4  2  0  0  0  0
  6  9  2  0  0  0  0
  6 13  1  0  0  0  0
  7 19  2  0  0  0  0
  7 17  1  0  0  0  0
  8  1  1  0  0  0  0
 10 14  2  0  0  0  0
 12 21  1  0  0  0  0
 12 22  1  0  0  0  0
 14 19  1  0  0  0  0
 15 21  1  6  0  0  0
 15 10  1  0  0  0  0
 15  2  1  0  0  0  0
 16 10  1  0  0  0  0
 17  1  2  0  0  0  0
 18  6  1  0  0  0  0
 19 20  1  0  0  0  0
 20  8  2  0  0  0  0
 22  3  2  0  0  0  0
 23 22  1  0  0  0  0
 23 18  2  0  0  0  0
 24 31  2  0  0  0  0
 24 28  1  0  0  0  0
 25 30  1  0  0  0  0
 27 24  1  0  0  0  0
 28 25  2  0  0  0  0
 29 26  1  0  0  0  0
 29 30  2  0  0  0  0
 30  5  1  0  0  0  0
 31 29  1  0  0  0  0
M  END
>  <MODEL>
5

>  <REMARK>
 VINA RESULT:      -8.8      4.617      7.351
  Name = 
  1 active torsions:
  status: ('A' for Active; 'I' for Inactive)
    1  A    between atoms: C_9  and  C_22
                            x       y       z     vdW  Elec       q    Type
                         _______ _______ _______ _____ _____    ______ ____

>  <TORSDO>
F 1

$$$$
=
 OpenBabel11052422343D

 31 35  0  0  1  0  0  0  0  0999 V2000
  161.8460  211.2120  149.9650 C   0  0  0  0  0  0  0  0  0  0  0  0
  160.9130  207.8130  151.5040 C   0  0  1  0  0  3  0  0  0  0  0  0
  160.9540  208.0950  153.0010 C   0  0  0  0  0  0  0  0  0  0  0  0
  161.1530  205.2090  146.9450 O   0  0  0  0  0  0  0  0  0  0  0  0
  161.2550  204.3690  147.8800 C   0  0  0  0  0  0  0  0  0  0  0  0
  160.4800  209.5560  154.8820 C   0  0  0  0  0  0  0  0  0  0  0  0
  161.3910  208.8960  150.5530 C   0  0  0  0  0  0  0  0  0  0  0  0
  162.0720  210.8380  148.6380 C   0  0  0  0  0  3  0  0  0  0  0  0
  160.5470  209.3370  153.5080 C   0  0  0  0  0  3  0  0  0  0  0  0
  161.4480  206.1800  149.6770 C   0  0  0  0  0  0  0  0  0  0  0  0
  161.9520  212.5120  150.3290 F   0  0  0  0  0  0  0  0  0  0  0  0
  161.5810  205.6680  153.4730 C   0  0  0  0  0  2  0  0  0  0  0  0
  160.1100  210.7670  155.3640 F   0  0  0  0  0  0  0  0  0  0  0  0
  161.5190  207.1520  148.8130 N   0  0  0  0  0  0  0  0  0  0  0  0
  161.6050  206.4870  151.1470 C   0  0  2  0  0  3  0  0  0  0  0  0
  161.3870  204.8150  149.2380 N   0  0  0  0  0  2  0  0  0  0  0  0
  161.4950  210.2480  150.9140 C   0  0  0  0  0  3  0  0  0  0  0  0
  160.7850  208.5140  155.7540 C   0  0  0  0  0  3  0  0  0  0  0  0
  161.6200  208.5290  149.2090 C   0  0  0  0  0  0  0  0  0  0  0  0
  161.9560  209.4980  148.2610 C   0  0  0  0  0  3  0  0  0  0  0  0
  161.1030  205.3760  152.0560 C   0  0  0  0  0  2  0  0  0  0  0  0
  161.1980  207.0500  153.9260 C   0  0  0  0  0  0  0  0  0  0  0  0
  161.1310  207.2960  155.2630 N   0  0  0  0  0  0  0  0  0  0  0  0
  161.1970  200.1800  146.9350 C   0  0  0  0  0  0  0  0  0  0  0  0
  161.2240  202.4970  146.2490 C   0  0  0  0  0  3  0  0  0  0  0  0
  161.2340  202.2890  149.9520 O   0  0  0  0  0  1  0  0  0  0  0  0
  161.1790  198.8630  146.6200 F   0  0  0  0  0  0  0  0  0  0  0  0
  161.2060  201.1400  145.9230 C   0  0  0  0  0  3  0  0  0  0  0  0
  161.2250  201.9360  148.6080 C   0  0  0  0  0  0  0  0  0  0  0  0
  161.2350  202.9160  147.5890 C   0  0  0  0  0  0  0  0  0  0  0  0
  161.2060  200.5780  148.2730 C   0  0  0  0  0  3  0  0  0  0  0  0
  1 11  1  0  0  0  0
  1 17  1  0  0  0  0
  2  7  1  6  0  0  0
  2  3  1  0  0  0  0
  3  9  2  0  0  0  0
  3 22  1  0  0  0  0
  4  5  2  0  0  0  0
  5 16  1  0  0  0  0
  6 13  1  0  0  0  0
  6 18  2  0  0  0  0
  7 17  2  0  0  0  0
  8  1  2  0  0  0  0
  9  6  1  0  0  0  0
 10 15  1  0  0  0  0
 12 22  1  0  0  0  0
 14 19  1  0  0  0  0
 14 10  2  0  0  0  0
 15  2  1  0  0  0  0
 15 21  1  1  0  0  0
 16 10  1  0  0  0  0
 19  7  1  0  0  0  0
 20  8  1  0  0  0  0
 20 19  2  0  0  0  0
 21 12  1  0  0  0  0
 22 23  2  0  0  0  0
 23 18  1  0  0  0  0
 24 31  1  0  0  0  0
 25 30  2  0  0  0  0
 27 24  1  0  0  0  0
 28 25  1  0  0  0  0
 28 24  2  0  0  0  0
 29 26  1  0  0  0  0
 30  5  1  0  0  0  0
 30 29  1  0  0  0  0
 31 29  2  0  0  0  0
M  END
>  <MODEL>
6

>  <REMARK>
 VINA RESULT:      -8.5      2.841      9.052
  Name = 
  1 active torsions:
  status: ('A' for Active; 'I' for Inactive)
    1  A    between atoms: C_9  and  C_22
                            x       y       z     vdW  Elec       q    Type
                         _______ _______ _______ _____ _____    ______ ____

>  <TORSDO>
F 1

$$$$
