=
 OpenBabel11062410223D

 43 47  0  0  1  0  0  0  0  0999 V2000
  161.0590  211.6600  150.3460 C   0  0  0  0  0  2  0  0  0  0  0  0
  161.9500  209.7760  149.1640 O   0  0  0  0  0  0  0  0  0  0  0  0
  162.3660  209.1220  150.3380 C   0  0  1  0  0  3  0  0  0  0  0  0
  161.8830  208.8850  152.6990 O   0  0  0  0  0  1  0  0  0  0  0  0
  162.1200  211.1560  149.3720 C   0  0  1  0  0  3  0  0  0  0  0  0
  161.2260  210.9450  151.6850 C   0  0  2  0  0  3  0  0  0  0  0  0
  161.3970  209.4290  151.5090 C   0  0  1  0  0  3  0  0  0  0  0  0
  156.8510  211.7620  156.3520 C   0  0  0  0  0  0  0  0  0  0  0  0
  160.0640  211.2510  152.5720 C   0  0  0  0  0  0  0  0  0  0  0  0
  157.8880  211.7990  154.1660 C   0  0  0  0  0  0  0  0  0  0  0  0
  158.0100  211.1940  156.8950 C   0  0  0  0  0  3  0  0  0  0  0  0
  155.7860  212.0190  157.1490 F   0  0  0  0  0  0  0  0  0  0  0  0
  159.0530  211.2210  154.7130 C   0  0  0  0  0  0  0  0  0  0  0  0
  156.7900  212.0680  154.9890 C   0  0  0  0  0  3  0  0  0  0  0  0
  159.1120  210.9220  156.0770 C   0  0  0  0  0  3  0  0  0  0  0  0
  160.1090  210.9580  153.9010 N   0  0  0  0  0  0  0  0  0  0  0  0
  158.9080  211.8260  152.0320 C   0  0  0  0  0  3  0  0  0  0  0  0
  157.8460  212.0860  152.8400 N   0  0  0  0  0  0  0  0  0  0  0  0
  161.7080  214.2210  147.0180 C   0  0  0  0  0  2  0  0  0  0  0  0
  159.7230  212.5490  147.1560 C   0  0  0  0  0  2  0  0  0  0  0  0
  160.3380  213.7890  146.5790 C   0  0  0  0  0  0  0  0  0  0  0  0
  162.1510  213.4340  148.2510 C   0  0  0  0  0  2  0  0  0  0  0  0
  162.0400  211.9090  148.0470 C   0  0  0  0  0  3  0  0  0  0  0  0
  159.7250  214.4530  145.7610 O   0  0  0  0  0  0  0  0  0  0  0  0
  160.7910  211.4630  147.2640 C   0  0  0  0  0  2  0  0  0  0  0  0
  162.5100  207.6880  150.0560 N   0  0  0  0  0  0  0  0  0  0  0  0
  162.9360  207.0560  151.1770 O   0  0  0  0  0  1  0  0  0  0  0  0
  160.9330  206.9800  149.4890 P   0  0  1  0  0  0  0  0  0  0  0  0
  161.2020  207.2690  147.6520 C   0  0  0  0  0  2  0  0  0  0  0  0
  161.2070  206.0360  146.8570 N   0  0  0  0  0  0  0  0  0  0  0  0
  162.6270  204.2610  145.9010 C   0  0  0  0  0  2  0  0  0  0  0  0
  160.7410  205.2060  144.5310 C   0  0  0  0  0  2  0  0  0  0  0  0
  161.3470  203.9400  145.1230 C   0  0  0  0  0  2  0  0  0  0  0  0
  160.4080  206.2240  145.6340 C   0  0  0  0  0  2  0  0  0  0  0  0
  162.5860  205.6510  146.5450 C   0  0  0  0  0  2  0  0  0  0  0  0
  161.3430  205.1560  149.5070 C   0  0  0  0  0  2  0  0  0  0  0  0
  160.6560  204.4820  150.6800 C   0  0  1  0  0  3  0  0  0  0  0  0
  160.1930  203.2250  150.2850 O   0  0  0  0  0  0  0  0  0  0  0  0
  160.8850  202.9430  149.1060 C   0  0  0  0  0  2  0  0  0  0  0  0
  160.4780  201.5780  148.5930 C   0  0  0  0  0  1  0  0  0  0  0  0
  161.6420  204.3300  151.8270 C   0  0  0  0  0  2  0  0  0  0  0  0
  161.2060  205.5270  153.6270 C   0  0  0  0  0  1  0  0  0  0  0  0
  160.9560  204.2880  153.0400 O   0  0  0  0  0  0  0  0  0  0  0  0
  1  6  1  0  0  0  0
  2  5  1  0  0  0  0
  2  3  1  0  0  0  0
  3 26  1  6  0  0  0
  3  7  1  0  0  0  0
  5 23  1  6  0  0  0
  5  1  1  0  0  0  0
  6  9  1  1  0  0  0
  7  6  1  0  0  0  0
  7  4  1  1  0  0  0
  8 11  1  0  0  0  0
  8 12  1  0  0  0  0
  9 16  1  0  0  0  0
 10 13  1  0  0  0  0
 10 14  1  0  0  0  0
 13 15  1  0  0  0  0
 14  8  2  0  0  0  0
 15 11  2  0  0  0  0
 16 13  2  0  0  0  0
 17  9  2  0  0  0  0
 17 18  1  0  0  0  0
 18 10  2  0  0  0  0
 19 22  1  0  0  0  0
 20 25  1  0  0  0  0
 21 19  1  0  0  0  0
 21 20  1  0  0  0  0
 23 22  1  0  0  0  0
 24 21  2  0  0  0  0
 25 23  1  0  0  0  0
 26 27  1  0  0  0  0
 28 29  1  6  0  0  0
 28 36  1  0  0  0  0
 28 26  1  0  0  0  0
 30 29  1  0  0  0  0
 31 35  1  0  0  0  0
 32 33  1  0  0  0  0
 32 34  1  0  0  0  0
 33 31  1  0  0  0  0
 34 30  1  0  0  0  0
 35 30  1  0  0  0  0
 37 36  1  6  0  0  0
 37 41  1  0  0  0  0
 38 37  1  0  0  0  0
 39 38  1  0  0  0  0
 40 39  1  0  0  0  0
 41 43  1  0  0  0  0
 43 42  1  0  0  0  0
M  END
>  <MODEL>
1

>  <REMARK>
 VINA RESULT:      -7.1      0.000      0.000
  Name = 
  12 active torsions:
  status: ('A' for Active; 'I' for Inactive)
    1  A    between atoms: N_2  and  C_13
    2  A    between atoms: N_2  and  P_41
    3  A    between atoms: O_3  and  C_4
    4  A    between atoms: O_3  and  C_12
    5  A    between atoms: C_4  and  C_15
    6  A    between atoms: C_4  and  C_22
    7  A    between atoms: C_8  and  C_34
    8  A    between atoms: N_11  and  C_14
    9  A    between atoms: C_14  and  P_41
   10  A    between atoms: C_15  and  O_42
   11  A    between atoms: C_22  and  P_41
   12  A    between atoms: C_28  and  C_35
                            x       y       z     vdW  Elec       q    Type
                         _______ _______ _______ _____ _____    ______ ____

>  <TORSDO>
F 12

$$$$
=
 OpenBabel11062410223D

 43 47  0  0  1  0  0  0  0  0999 V2000
  161.5970  208.8670  151.7830 C   0  0  0  0  0  2  0  0  0  0  0  0
  161.2790  210.9880  150.7150 O   0  0  0  0  0  0  0  0  0  0  0  0
  162.0840  210.6540  149.6100 C   0  0  1  0  0  3  0  0  0  0  0  0
  162.8640  208.7910  148.2750 O   0  0  0  0  0  1  0  0  0  0  0  0
  161.8440  210.3710  151.8450 C   0  0  1  0  0  3  0  0  0  0  0  0
  162.2680  208.2990  150.5350 C   0  0  2  0  0  3  0  0  0  0  0  0
  161.9690  209.1420  149.2870 C   0  0  1  0  0  3  0  0  0  0  0  0
  160.6770  202.3760  148.5370 C   0  0  0  0  0  0  0  0  0  0  0  0
  161.8470  206.8800  150.3330 C   0  0  0  0  0  0  0  0  0  0  0  0
  161.0280  204.2730  149.9980 C   0  0  0  0  0  0  0  0  0  0  0  0
  161.1640  203.1170  147.4530 C   0  0  0  0  0  3  0  0  0  0  0  0
  160.2720  201.0970  148.3540 F   0  0  0  0  0  0  0  0  0  0  0  0
  161.5120  205.0210  148.9050 C   0  0  0  0  0  0  0  0  0  0  0  0
  160.6120  202.9520  149.8100 C   0  0  0  0  0  3  0  0  0  0  0  0
  161.5800  204.4410  147.6350 C   0  0  0  0  0  3  0  0  0  0  0  0
  161.9040  206.3060  149.1000 N   0  0  0  0  0  0  0  0  0  0  0  0
  161.3690  206.1350  151.4170 C   0  0  0  0  0  3  0  0  0  0  0  0
  160.9680  204.8490  151.2260 N   0  0  0  0  0  0  0  0  0  0  0  0
  160.1220  210.3660  155.3290 C   0  0  0  0  0  2  0  0  0  0  0  0
  158.7120  211.1820  153.3050 C   0  0  0  0  0  2  0  0  0  0  0  0
  158.8390  210.9150  154.7740 C   0  0  0  0  0  0  0  0  0  0  0  0
  161.0320  209.8820  154.2010 C   0  0  0  0  0  2  0  0  0  0  0  0
  161.2600  210.9640  153.1250 C   0  0  0  0  0  3  0  0  0  0  0  0
  157.9000  211.1360  155.5200 O   0  0  0  0  0  0  0  0  0  0  0  0
  160.0100  211.8020  152.7920 C   0  0  0  0  0  2  0  0  0  0  0  0
  161.7250  211.5240  148.4830 N   0  0  0  0  0  0  0  0  0  0  0  0
  160.9700  210.8210  147.6040 O   0  0  0  0  0  1  0  0  0  0  0  0
  160.8220  212.9930  149.0620 P   0  0  1  0  0  0  0  0  0  0  0  0
  161.5490  214.2080  147.8270 C   0  0  0  0  0  2  0  0  0  0  0  0
  161.5790  213.7010  146.4510 N   0  0  0  0  0  0  0  0  0  0  0  0
  163.0400  213.0730  144.5670 C   0  0  0  0  0  2  0  0  0  0  0  0
  160.9180  214.3460  144.1130 C   0  0  0  0  0  2  0  0  0  0  0  0
  161.7140  213.0850  143.8010 C   0  0  0  0  0  2  0  0  0  0  0  0
  160.6240  214.4520  145.6180 C   0  0  0  0  0  2  0  0  0  0  0  0
  162.9410  213.7880  145.9180 C   0  0  0  0  0  2  0  0  0  0  0  0
  159.1740  212.7470  148.2150 C   0  0  0  0  0  2  0  0  0  0  0  0
  158.2460  213.9040  148.5410 C   0  0  1  0  0  3  0  0  0  0  0  0
  157.7570  214.4530  147.3540 O   0  0  0  0  0  0  0  0  0  0  0  0
  157.1850  213.3770  146.6720 C   0  0  0  0  0  2  0  0  0  0  0  0
  156.8160  213.8070  145.2680 C   0  0  0  0  0  1  0  0  0  0  0  0
  157.0900  213.4020  149.3920 C   0  0  0  0  0  2  0  0  0  0  0  0
  155.6350  214.1210  150.8850 C   0  0  0  0  0  1  0  0  0  0  0  0
  156.2090  214.4500  149.6580 O   0  0  0  0  0  0  0  0  0  0  0  0
  1  5  1  0  0  0  0
  2  5  1  0  0  0  0
  3 26  1  6  0  0  0
  3  2  1  0  0  0  0
  5 23  1  1  0  0  0
  6  9  1  6  0  0  0
  6  1  1  0  0  0  0
  7  4  1  6  0  0  0
  7  3  1  0  0  0  0
  7  6  1  0  0  0  0
  8 14  1  0  0  0  0
  9 17  1  0  0  0  0
 10 18  1  0  0  0  0
 11 15  1  0  0  0  0
 11  8  2  0  0  0  0
 12  8  1  0  0  0  0
 13 16  1  0  0  0  0
 13 10  1  0  0  0  0
 14 10  2  0  0  0  0
 15 13  2  0  0  0  0
 16  9  2  0  0  0  0
 18 17  2  0  0  0  0
 20 21  1  0  0  0  0
 21 19  1  0  0  0  0
 21 24  2  0  0  0  0
 22 19  1  0  0  0  0
 23 22  1  0  0  0  0
 25 23  1  0  0  0  0
 25 20  1  0  0  0  0
 26 28  1  0  0  0  0
 27 26  1  0  0  0  0
 28 29  1  6  0  0  0
 30 29  1  0  0  0  0
 31 35  1  0  0  0  0
 32 34  1  0  0  0  0
 33 32  1  0  0  0  0
 33 31  1  0  0  0  0
 34 30  1  0  0  0  0
 35 30  1  0  0  0  0
 36 28  1  0  0  0  0
 37 36  1  6  0  0  0
 37 41  1  0  0  0  0
 38 37  1  0  0  0  0
 39 38  1  0  0  0  0
 40 39  1  0  0  0  0
 41 43  1  0  0  0  0
 43 42  1  0  0  0  0
M  END
>  <MODEL>
2

>  <REMARK>
 VINA RESULT:      -6.9      3.545      8.562
  Name = 
  12 active torsions:
  status: ('A' for Active; 'I' for Inactive)
    1  A    between atoms: N_2  and  C_13
    2  A    between atoms: N_2  and  P_41
    3  A    between atoms: O_3  and  C_4
    4  A    between atoms: O_3  and  C_12
    5  A    between atoms: C_4  and  C_15
    6  A    between atoms: C_4  and  C_22
    7  A    between atoms: C_8  and  C_34
    8  A    between atoms: N_11  and  C_14
    9  A    between atoms: C_14  and  P_41
   10  A    between atoms: C_15  and  O_42
   11  A    between atoms: C_22  and  P_41
   12  A    between atoms: C_28  and  C_35
                            x       y       z     vdW  Elec       q    Type
                         _______ _______ _______ _____ _____    ______ ____

>  <TORSDO>
F 12

$$$$
=
 OpenBabel11062410223D

 43 47  0  0  1  0  0  0  0  0999 V2000
  161.5290  208.6020  148.6800 C   0  0  0  0  0  2  0  0  0  0  0  0
  162.3820  210.0090  150.4210 O   0  0  0  0  0  0  0  0  0  0  0  0
  161.6490  209.3590  151.4310 C   0  0  1  0  0  3  0  0  0  0  0  0
  160.6530  207.2370  152.0400 O   0  0  0  0  0  1  0  0  0  0  0  0
  161.5870  210.0120  149.2620 C   0  0  1  0  0  3  0  0  0  0  0  0
  160.8930  207.6630  149.7020 C   0  0  2  0  0  3  0  0  0  0  0  0
  161.4880  207.8510  151.1040 C   0  0  1  0  0  3  0  0  0  0  0  0
  161.2500  201.2800  148.8470 C   0  0  0  0  0  0  0  0  0  0  0  0
  161.0370  206.2470  149.2480 C   0  0  0  0  0  0  0  0  0  0  0  0
  161.3470  203.6530  148.3810 C   0  0  0  0  0  0  0  0  0  0  0  0
  160.8320  201.5510  150.1560 C   0  0  0  0  0  3  0  0  0  0  0  0
  161.4040  199.9980  148.4380 F   0  0  0  0  0  0  0  0  0  0  0  0
  160.9330  203.9250  149.7020 C   0  0  0  0  0  0  0  0  0  0  0  0
  161.5030  202.3300  147.9580 C   0  0  0  0  0  3  0  0  0  0  0  0
  160.6750  202.8740  150.5860 C   0  0  0  0  0  3  0  0  0  0  0  0
  160.7930  205.2150  150.1020 N   0  0  0  0  0  0  0  0  0  0  0  0
  161.4450  205.9740  147.9370 C   0  0  0  0  0  3  0  0  0  0  0  0
  161.5930  204.6840  147.5330 N   0  0  0  0  0  0  0  0  0  0  0  0
  162.6290  213.4690  147.8270 C   0  0  0  0  0  2  0  0  0  0  0  0
  160.4720  212.3840  146.8690 C   0  0  0  0  0  2  0  0  0  0  0  0
  161.4670  213.5050  146.8780 C   0  0  0  0  0  0  0  0  0  0  0  0
  162.4360  212.3730  148.8740 C   0  0  0  0  0  2  0  0  0  0  0  0
  162.1390  210.9990  148.2380 C   0  0  0  0  0  3  0  0  0  0  0  0
  161.3290  214.4510  146.1200 O   0  0  0  0  0  0  0  0  0  0  0  0
  161.2110  211.0560  147.0090 C   0  0  0  0  0  2  0  0  0  0  0  0
  162.2950  209.6140  152.7240 N   0  0  0  0  0  0  0  0  0  0  0  0
  163.4250  210.3340  152.5210 O   0  0  0  0  0  1  0  0  0  0  0  0
  161.1690  210.5020  153.8440 P   0  0  1  0  0  0  0  0  0  0  0  0
  159.6180  210.3180  152.8000 C   0  0  0  0  0  2  0  0  0  0  0  0
  159.0410  211.5970  152.3730 N   0  0  0  0  0  0  0  0  0  0  0  0
  159.5200  213.7670  151.3040 C   0  0  0  0  0  2  0  0  0  0  0  0
  158.0050  213.6870  153.3100 C   0  0  0  0  0  2  0  0  0  0  0  0
  158.1330  214.1120  151.8530 C   0  0  0  0  0  2  0  0  0  0  0  0
  158.2370  212.1750  153.4640 C   0  0  0  0  0  2  0  0  0  0  0  0
  160.1080  212.5080  151.9500 C   0  0  0  0  0  2  0  0  0  0  0  0
  160.7820  209.1610  155.0870 C   0  0  0  0  0  2  0  0  0  0  0  0
  160.6430  209.7630  156.4730 C   0  0  1  0  0  3  0  0  0  0  0  0
  161.5960  210.7700  156.6380 O   0  0  0  0  0  0  0  0  0  0  0  0
  162.7760  210.0970  156.9580 C   0  0  0  0  0  2  0  0  0  0  0  0
  163.8980  211.0990  157.1330 C   0  0  0  0  0  1  0  0  0  0  0  0
  159.2470  210.3420  156.6380 C   0  0  0  0  0  2  0  0  0  0  0  0
  158.0110  212.1340  156.9930 C   0  0  0  0  0  1  0  0  0  0  0  0
  159.3170  211.7330  156.7160 O   0  0  0  0  0  0  0  0  0  0  0  0
  1  5  1  0  0  0  0
  1  6  1  0  0  0  0
  2  3  1  0  0  0  0
  3 26  1  1  0  0  0
  5 23  1  6  0  0  0
  5  2  1  0  0  0  0
  6  9  1  6  0  0  0
  6  7  1  0  0  0  0
  7  3  1  0  0  0  0
  7  4  1  1  0  0  0
  8 11  1  0  0  0  0
  9 16  1  0  0  0  0
 10 13  1  0  0  0  0
 11 15  2  0  0  0  0
 12  8  1  0  0  0  0
 13 16  2  0  0  0  0
 13 15  1  0  0  0  0
 14 10  1  0  0  0  0
 14  8  2  0  0  0  0
 17  9  2  0  0  0  0
 18 17  1  0  0  0  0
 18 10  2  0  0  0  0
 19 22  1  0  0  0  0
 20 21  1  0  0  0  0
 20 25  1  0  0  0  0
 21 19  1  0  0  0  0
 23 22  1  0  0  0  0
 24 21  2  0  0  0  0
 25 23  1  0  0  0  0
 26 28  1  0  0  0  0
 27 26  1  0  0  0  0
 28 29  1  6  0  0  0
 28 36  1  0  0  0  0
 30 29  1  0  0  0  0
 30 34  1  0  0  0  0
 31 33  1  0  0  0  0
 31 35  1  0  0  0  0
 32 34  1  0  0  0  0
 33 32  1  0  0  0  0
 35 30  1  0  0  0  0
 37 36  1  6  0  0  0
 37 38  1  0  0  0  0
 37 41  1  0  0  0  0
 38 39  1  0  0  0  0
 39 40  1  0  0  0  0
 41 43  1  0  0  0  0
 43 42  1  0  0  0  0
M  END
>  <MODEL>
3

>  <REMARK>
 VINA RESULT:      -6.7      3.297      8.098
  Name = 
  12 active torsions:
  status: ('A' for Active; 'I' for Inactive)
    1  A    between atoms: N_2  and  C_13
    2  A    between atoms: N_2  and  P_41
    3  A    between atoms: O_3  and  C_4
    4  A    between atoms: O_3  and  C_12
    5  A    between atoms: C_4  and  C_15
    6  A    between atoms: C_4  and  C_22
    7  A    between atoms: C_8  and  C_34
    8  A    between atoms: N_11  and  C_14
    9  A    between atoms: C_14  and  P_41
   10  A    between atoms: C_15  and  O_42
   11  A    between atoms: C_22  and  P_41
   12  A    between atoms: C_28  and  C_35
                            x       y       z     vdW  Elec       q    Type
                         _______ _______ _______ _____ _____    ______ ____

>  <TORSDO>
F 12

$$$$
=
 OpenBabel11062410223D

 43 47  0  0  1  0  0  0  0  0999 V2000
  161.5100  208.1670  149.2900 C   0  0  0  0  0  2  0  0  0  0  0  0
  162.3930  209.8020  150.8020 O   0  0  0  0  0  0  0  0  0  0  0  0
  161.6180  209.3510  151.8860 C   0  0  1  0  0  3  0  0  0  0  0  0
  160.5260  207.3950  152.8060 O   0  0  0  0  0  1  0  0  0  0  0  0
  161.6170  209.6480  149.6410 C   0  0  1  0  0  3  0  0  0  0  0  0
  160.8200  207.4290  150.4350 C   0  0  2  0  0  3  0  0  0  0  0  0
  161.4000  207.8180  151.8020 C   0  0  1  0  0  3  0  0  0  0  0  0
  161.2180  201.3360  148.3570 C   0  0  0  0  0  0  0  0  0  0  0  0
  160.9130  205.9540  150.2170 C   0  0  0  0  0  0  0  0  0  0  0  0
  161.0470  203.2280  149.8560 C   0  0  0  0  0  0  0  0  0  0  0  0
  161.2660  202.2060  147.2610 C   0  0  0  0  0  3  0  0  0  0  0  0
  161.2790  199.9970  148.1620 F   0  0  0  0  0  0  0  0  0  0  0  0
  161.0890  204.1030  148.7500 C   0  0  0  0  0  0  0  0  0  0  0  0
  161.1130  201.8470  149.6550 C   0  0  0  0  0  3  0  0  0  0  0  0
  161.2000  203.5900  147.4550 C   0  0  0  0  0  3  0  0  0  0  0  0
  161.0160  205.4430  148.9590 N   0  0  0  0  0  0  0  0  0  0  0  0
  160.8740  205.0840  151.3120 C   0  0  0  0  0  3  0  0  0  0  0  0
  160.9400  203.7410  151.1090 N   0  0  0  0  0  0  0  0  0  0  0  0
  163.5700  212.5280  147.9100 C   0  0  0  0  0  2  0  0  0  0  0  0
  160.9840  212.5200  147.6520 C   0  0  0  0  0  2  0  0  0  0  0  0
  162.3170  213.1350  147.3480 C   0  0  0  0  0  0  0  0  0  0  0  0
  163.2320  211.4940  148.9830 C   0  0  0  0  0  2  0  0  0  0  0  0
  162.2260  210.4360  148.4840 C   0  0  0  0  0  3  0  0  0  0  0  0
  162.3850  214.1350  146.6520 O   0  0  0  0  0  0  0  0  0  0  0  0
  161.1080  210.9990  147.5850 C   0  0  0  0  0  2  0  0  0  0  0  0
  162.2530  209.7860  153.1370 N   0  0  0  0  0  0  0  0  0  0  0  0
  163.4230  210.4050  152.8470 O   0  0  0  0  0  1  0  0  0  0  0  0
  161.1570  210.9040  154.0630 P   0  0  1  0  0  0  0  0  0  0  0  0
  159.9200  211.2070  152.6810 C   0  0  0  0  0  2  0  0  0  0  0  0
  159.0700  212.3830  152.8990 N   0  0  0  0  0  0  0  0  0  0  0  0
  157.0450  213.2240  154.0260 C   0  0  0  0  0  2  0  0  0  0  0  0
  157.5300  213.9400  151.6650 C   0  0  0  0  0  2  0  0  0  0  0  0
  157.2640  214.4140  153.0880 C   0  0  0  0  0  2  0  0  0  0  0  0
  158.7690  213.0310  151.6110 C   0  0  0  0  0  2  0  0  0  0  0  0
  157.8460  211.9890  153.6020 C   0  0  0  0  0  2  0  0  0  0  0  0
  160.1370  209.6730  155.0300 C   0  0  0  0  0  2  0  0  0  0  0  0
  160.3540  209.8740  156.5190 C   0  0  1  0  0  3  0  0  0  0  0  0
  161.3980  209.0540  156.9490 O   0  0  0  0  0  0  0  0  0  0  0  0
  161.1590  207.8210  156.3390 C   0  0  0  0  0  2  0  0  0  0  0  0
  160.3000  206.9650  157.2460 C   0  0  0  0  0  1  0  0  0  0  0  0
  160.6980  211.3310  156.7890 C   0  0  0  0  0  2  0  0  0  0  0  0
  159.9570  213.4020  156.9400 C   0  0  0  0  0  1  0  0  0  0  0  0
  159.5280  212.0760  156.9290 O   0  0  0  0  0  0  0  0  0  0  0  0
  1  5  1  0  0  0  0
  1  6  1  0  0  0  0
  2  3  1  0  0  0  0
  3 26  1  1  0  0  0
  5 23  1  6  0  0  0
  5  2  1  0  0  0  0
  6  9  1  6  0  0  0
  6  7  1  0  0  0  0
  7  3  1  0  0  0  0
  7  4  1  1  0  0  0
  8 14  1  0  0  0  0
  9 17  1  0  0  0  0
 10 18  1  0  0  0  0
 11 15  1  0  0  0  0
 11  8  2  0  0  0  0
 12  8  1  0  0  0  0
 13 16  1  0  0  0  0
 13 10  1  0  0  0  0
 14 10  2  0  0  0  0
 15 13  2  0  0  0  0
 16  9  2  0  0  0  0
 18 17  2  0  0  0  0
 19 22  1  0  0  0  0
 21 20  1  0  0  0  0
 21 19  1  0  0  0  0
 23 22  1  0  0  0  0
 24 21  2  0  0  0  0
 25 20  1  0  0  0  0
 25 23  1  0  0  0  0
 26 28  1  0  0  0  0
 27 26  1  0  0  0  0
 28 29  1  6  0  0  0
 28 36  1  0  0  0  0
 29 30  1  0  0  0  0
 30 35  1  0  0  0  0
 32 33  1  0  0  0  0
 33 31  1  0  0  0  0
 34 32  1  0  0  0  0
 34 30  1  0  0  0  0
 35 31  1  0  0  0  0
 37 36  1  6  0  0  0
 37 41  1  0  0  0  0
 37 38  1  0  0  0  0
 39 38  1  0  0  0  0
 39 40  1  0  0  0  0
 41 43  1  0  0  0  0
 43 42  1  0  0  0  0
M  END
>  <MODEL>
4

>  <REMARK>
 VINA RESULT:      -6.5      3.388      8.206
  Name = 
  12 active torsions:
  status: ('A' for Active; 'I' for Inactive)
    1  A    between atoms: N_2  and  C_13
    2  A    between atoms: N_2  and  P_41
    3  A    between atoms: O_3  and  C_4
    4  A    between atoms: O_3  and  C_12
    5  A    between atoms: C_4  and  C_15
    6  A    between atoms: C_4  and  C_22
    7  A    between atoms: C_8  and  C_34
    8  A    between atoms: N_11  and  C_14
    9  A    between atoms: C_14  and  P_41
   10  A    between atoms: C_15  and  O_42
   11  A    between atoms: C_22  and  P_41
   12  A    between atoms: C_28  and  C_35
                            x       y       z     vdW  Elec       q    Type
                         _______ _______ _______ _____ _____    ______ ____

>  <TORSDO>
F 12

$$$$
=
 OpenBabel11062410223D

 43 47  0  0  1  0  0  0  0  0999 V2000
  161.2270  208.4650  150.9060 C   0  0  0  0  0  2  0  0  0  0  0  0
  161.1740  210.8480  150.6630 O   0  0  0  0  0  0  0  0  0  0  0  0
  162.2820  210.8750  149.7950 C   0  0  1  0  0  3  0  0  0  0  0  0
  163.4850  209.5700  148.1490 O   0  0  0  0  0  1  0  0  0  0  0  0
  161.3960  209.8180  151.5920 C   0  0  1  0  0  3  0  0  0  0  0  0
  162.2590  208.3380  149.7870 C   0  0  2  0  0  3  0  0  0  0  0  0
  162.3180  209.6000  148.9140 C   0  0  1  0  0  3  0  0  0  0  0  0
  160.8910  202.5730  147.2390 C   0  0  0  0  0  0  0  0  0  0  0  0
  161.9620  207.1310  148.9590 C   0  0  0  0  0  0  0  0  0  0  0  0
  161.4560  204.9210  147.3980 C   0  0  0  0  0  0  0  0  0  0  0  0
  160.8290  202.4910  148.6360 C   0  0  0  0  0  3  0  0  0  0  0  0
  160.6460  201.4750  146.4850 F   0  0  0  0  0  0  0  0  0  0  0  0
  161.4000  204.8350  148.8050 C   0  0  0  0  0  0  0  0  0  0  0  0
  161.2000  203.7880  146.6190 C   0  0  0  0  0  3  0  0  0  0  0  0
  161.0850  203.6210  149.4200 C   0  0  0  0  0  3  0  0  0  0  0  0
  161.6590  205.9410  149.5490 N   0  0  0  0  0  0  0  0  0  0  0  0
  162.0150  207.2130  147.5630 C   0  0  0  0  0  3  0  0  0  0  0  0
  161.7630  206.1070  146.8130 N   0  0  0  0  0  0  0  0  0  0  0  0
  158.9540  211.5970  154.0360 C   0  0  0  0  0  2  0  0  0  0  0  0
  161.3200  211.0090  154.9360 C   0  0  0  0  0  2  0  0  0  0  0  0
  159.9520  211.5810  155.1580 C   0  0  0  0  0  0  0  0  0  0  0  0
  159.6310  211.2630  152.7080 C   0  0  0  0  0  2  0  0  0  0  0  0
  160.4380  209.9490  152.7740 C   0  0  0  0  0  3  0  0  0  0  0  0
  159.6510  212.0430  156.2460 O   0  0  0  0  0  0  0  0  0  0  0  0
  161.2020  209.7390  154.0950 C   0  0  0  0  0  2  0  0  0  0  0  0
  162.2480  212.1230  149.0220 N   0  0  0  0  0  0  0  0  0  0  0  0
  163.3570  212.1930  148.2450 O   0  0  0  0  0  1  0  0  0  0  0  0
  160.7490  212.2060  147.9960 P   0  0  1  0  0  0  0  0  0  0  0  0
  160.2970  213.9850  148.3980 C   0  0  0  0  0  2  0  0  0  0  0  0
  158.9540  214.1360  148.9710 N   0  0  0  0  0  0  0  0  0  0  0  0
  157.6410  214.1270  151.0570 C   0  0  0  0  0  2  0  0  0  0  0  0
  156.7040  213.0160  149.0040 C   0  0  0  0  0  2  0  0  0  0  0  0
  156.4660  214.0710  150.0770 C   0  0  0  0  0  2  0  0  0  0  0  0
  157.9920  213.3120  148.2190 C   0  0  0  0  0  2  0  0  0  0  0  0
  158.9750  213.7770  150.3910 C   0  0  0  0  0  2  0  0  0  0  0  0
  161.4940  212.5240  146.3120 C   0  0  0  0  0  2  0  0  0  0  0  0
  160.5490  213.3680  145.4770 C   0  0  1  0  0  3  0  0  0  0  0  0
  161.2890  214.1530  144.5910 O   0  0  0  0  0  0  0  0  0  0  0  0
  162.6210  213.8170  144.8430 C   0  0  0  0  0  2  0  0  0  0  0  0
  163.4530  214.0840  143.6060 C   0  0  0  0  0  1  0  0  0  0  0  0
  159.6100  212.4590  144.6980 C   0  0  0  0  0  2  0  0  0  0  0  0
  160.1050  211.8030  142.6510 C   0  0  0  0  0  1  0  0  0  0  0  0
  159.5540  212.8660  143.3650 O   0  0  0  0  0  0  0  0  0  0  0  0
  1  5  1  0  0  0  0
  2  5  1  0  0  0  0
  3 26  1  6  0  0  0
  3  2  1  0  0  0  0
  5 23  1  1  0  0  0
  6  9  1  6  0  0  0
  6  1  1  0  0  0  0
  7  4  1  1  0  0  0
  7  6  1  0  0  0  0
  7  3  1  0  0  0  0
  8 11  1  0  0  0  0
  9 16  1  0  0  0  0
 10 13  1  0  0  0  0
 11 15  2  0  0  0  0
 12  8  1  0  0  0  0
 13 15  1  0  0  0  0
 13 16  2  0  0  0  0
 14  8  2  0  0  0  0
 14 10  1  0  0  0  0
 17  9  2  0  0  0  0
 18 10  2  0  0  0  0
 18 17  1  0  0  0  0
 19 21  1  0  0  0  0
 20 21  1  0  0  0  0
 21 24  2  0  0  0  0
 22 23  1  0  0  0  0
 22 19  1  0  0  0  0
 23 25  1  0  0  0  0
 25 20  1  0  0  0  0
 27 26  1  0  0  0  0
 28 36  1  6  0  0  0
 28 29  1  0  0  0  0
 28 26  1  0  0  0  0
 29 30  1  0  0  0  0
 30 35  1  0  0  0  0
 32 33  1  0  0  0  0
 33 31  1  0  0  0  0
 34 30  1  0  0  0  0
 34 32  1  0  0  0  0
 35 31  1  0  0  0  0
 37 41  1  6  0  0  0
 37 36  1  0  0  0  0
 38 39  1  0  0  0  0
 38 37  1  0  0  0  0
 40 39  1  0  0  0  0
 42 43  1  0  0  0  0
 43 41  1  0  0  0  0
M  END
>  <MODEL>
5

>  <REMARK>
 VINA RESULT:      -6.4      3.635      9.170
  Name = 
  12 active torsions:
  status: ('A' for Active; 'I' for Inactive)
    1  A    between atoms: N_2  and  C_13
    2  A    between atoms: N_2  and  P_41
    3  A    between atoms: O_3  and  C_4
    4  A    between atoms: O_3  and  C_12
    5  A    between atoms: C_4  and  C_15
    6  A    between atoms: C_4  and  C_22
    7  A    between atoms: C_8  and  C_34
    8  A    between atoms: N_11  and  C_14
    9  A    between atoms: C_14  and  P_41
   10  A    between atoms: C_15  and  O_42
   11  A    between atoms: C_22  and  P_41
   12  A    between atoms: C_28  and  C_35
                            x       y       z     vdW  Elec       q    Type
                         _______ _______ _______ _____ _____    ______ ____

>  <TORSDO>
F 12

$$$$
=
 OpenBabel11062410223D

 43 47  0  0  1  0  0  0  0  0999 V2000
  162.0720  209.6040  149.4560 C   0  0  0  0  0  2  0  0  0  0  0  0
  160.8860  209.0940  151.4750 O   0  0  0  0  0  0  0  0  0  0  0  0
  160.9380  210.4190  151.9470 C   0  0  1  0  0  3  0  0  0  0  0  0
  161.0600  212.7280  151.2290 O   0  0  0  0  0  1  0  0  0  0  0  0
  162.0850  208.8510  150.7830 C   0  0  1  0  0  3  0  0  0  0  0  0
  161.9680  211.1030  149.7320 C   0  0  2  0  0  3  0  0  0  0  0  0
  160.8800  211.4230  150.7670 C   0  0  1  0  0  3  0  0  0  0  0  0
  159.8350  213.8020  144.2760 C   0  0  0  0  0  0  0  0  0  0  0  0
  161.7210  211.8380  148.4550 C   0  0  0  0  0  0  0  0  0  0  0  0
  161.3170  213.1770  146.0840 C   0  0  0  0  0  0  0  0  0  0  0  0
  158.7920  213.0910  144.8820 C   0  0  0  0  0  3  0  0  0  0  0  0
  159.6220  214.4500  143.1060 F   0  0  0  0  0  0  0  0  0  0  0  0
  160.2680  212.4550  146.6900 C   0  0  0  0  0  0  0  0  0  0  0  0
  161.0970  213.8490  144.8780 C   0  0  0  0  0  3  0  0  0  0  0  0
  159.0070  212.4150  146.0890 C   0  0  0  0  0  3  0  0  0  0  0  0
  160.4980  211.8010  147.8570 N   0  0  0  0  0  0  0  0  0  0  0  0
  162.7600  212.5560  147.8530 C   0  0  0  0  0  3  0  0  0  0  0  0
  162.5360  213.2080  146.6810 N   0  0  0  0  0  0  0  0  0  0  0  0
  161.1640  205.2730  149.5770 C   0  0  0  0  0  2  0  0  0  0  0  0
  161.0810  205.7260  152.1350 C   0  0  0  0  0  2  0  0  0  0  0  0
  160.9310  204.7840  150.9780 C   0  0  0  0  0  0  0  0  0  0  0  0
  161.2440  206.7980  149.5460 C   0  0  0  0  0  2  0  0  0  0  0  0
  162.2740  207.3530  150.5530 C   0  0  0  0  0  3  0  0  0  0  0  0
  160.6120  203.6230  151.1720 O   0  0  0  0  0  0  0  0  0  0  0  0
  162.3010  206.6140  151.9040 C   0  0  0  0  0  2  0  0  0  0  0  0
  159.8690  210.6110  152.9350 N   0  0  0  0  0  0  0  0  0  0  0  0
  159.3450  209.4050  153.2620 O   0  0  0  0  0  1  0  0  0  0  0  0
  160.5040  211.4500  154.4190 P   0  0  1  0  0  0  0  0  0  0  0  0
  159.1320  212.7260  154.5640 C   0  0  0  0  0  2  0  0  0  0  0  0
  158.0190  212.2980  155.4190 N   0  0  0  0  0  0  0  0  0  0  0  0
  155.7030  211.4520  155.4390 C   0  0  0  0  0  2  0  0  0  0  0  0
  156.3930  213.2000  157.1110 C   0  0  0  0  0  2  0  0  0  0  0  0
  155.8020  211.8080  156.9250 C   0  0  0  0  0  2  0  0  0  0  0  0
  157.7940  213.2910  156.4840 C   0  0  0  0  0  2  0  0  0  0  0  0
  156.8150  212.0980  154.6070 C   0  0  0  0  0  2  0  0  0  0  0  0
  159.8990  210.2950  155.7590 C   0  0  0  0  0  2  0  0  0  0  0  0
  161.0660  209.8390  156.6160 C   0  0  1  0  0  3  0  0  0  0  0  0
  161.3500  208.5010  156.3360 O   0  0  0  0  0  0  0  0  0  0  0  0
  160.1320  207.8360  156.4950 C   0  0  0  0  0  2  0  0  0  0  0  0
  160.0600  206.6720  155.5300 C   0  0  0  0  0  1  0  0  0  0  0  0
  162.2840  210.6980  156.3140 C   0  0  0  0  0  2  0  0  0  0  0  0
  164.1260  211.4570  157.2600 C   0  0  0  0  0  1  0  0  0  0  0  0
  163.3510  210.3060  157.1210 O   0  0  0  0  0  0  0  0  0  0  0  0
  1  6  1  0  0  0  0
  1  5  1  0  0  0  0
  2  3  1  0  0  0  0
  3 26  1  1  0  0  0
  5 23  1  6  0  0  0
  5  2  1  0  0  0  0
  6  9  1  6  0  0  0
  6  7  1  0  0  0  0
  7  4  1  1  0  0  0
  7  3  1  0  0  0  0
  8 14  2  0  0  0  0
  8 11  1  0  0  0  0
 10 18  2  0  0  0  0
 10 13  1  0  0  0  0
 11 15  2  0  0  0  0
 12  8  1  0  0  0  0
 13 16  2  0  0  0  0
 14 10  1  0  0  0  0
 15 13  1  0  0  0  0
 16  9  1  0  0  0  0
 17  9  2  0  0  0  0
 18 17  1  0  0  0  0
 19 21  1  0  0  0  0
 21 24  2  0  0  0  0
 21 20  1  0  0  0  0
 22 19  1  0  0  0  0
 22 23  1  0  0  0  0
 23 25  1  0  0  0  0
 25 20  1  0  0  0  0
 26 27  1  0  0  0  0
 26 28  1  0  0  0  0
 28 29  1  1  0  0  0
 28 36  1  0  0  0  0
 29 30  1  0  0  0  0
 30 34  1  0  0  0  0
 31 33  1  0  0  0  0
 33 32  1  0  0  0  0
 34 32  1  0  0  0  0
 35 30  1  0  0  0  0
 35 31  1  0  0  0  0
 37 36  1  6  0  0  0
 38 39  1  0  0  0  0
 38 37  1  0  0  0  0
 40 39  1  0  0  0  0
 41 37  1  0  0  0  0
 41 43  1  0  0  0  0
 43 42  1  0  0  0  0
M  END
>  <MODEL>
6

>  <REMARK>
 VINA RESULT:      -6.4      3.527      8.935
  Name = 
  12 active torsions:
  status: ('A' for Active; 'I' for Inactive)
    1  A    between atoms: N_2  and  C_13
    2  A    between atoms: N_2  and  P_41
    3  A    between atoms: O_3  and  C_4
    4  A    between atoms: O_3  and  C_12
    5  A    between atoms: C_4  and  C_15
    6  A    between atoms: C_4  and  C_22
    7  A    between atoms: C_8  and  C_34
    8  A    between atoms: N_11  and  C_14
    9  A    between atoms: C_14  and  P_41
   10  A    between atoms: C_15  and  O_42
   11  A    between atoms: C_22  and  P_41
   12  A    between atoms: C_28  and  C_35
                            x       y       z     vdW  Elec       q    Type
                         _______ _______ _______ _____ _____    ______ ____

>  <TORSDO>
F 12

$$$$
=
 OpenBabel11062410223D

 43 47  0  0  1  0  0  0  0  0999 V2000
  161.6240  208.7050  151.3870 C   0  0  0  0  0  2  0  0  0  0  0  0
  161.2640  210.8830  150.4560 O   0  0  0  0  0  0  0  0  0  0  0  0
  162.0800  210.6390  149.3360 C   0  0  1  0  0  3  0  0  0  0  0  0
  162.9070  208.8840  147.8880 O   0  0  0  0  0  1  0  0  0  0  0  0
  161.8390  210.2080  151.5470 C   0  0  1  0  0  3  0  0  0  0  0  0
  162.3130  208.2340  150.1080 C   0  0  2  0  0  3  0  0  0  0  0  0
  162.0000  209.1490  148.9160 C   0  0  1  0  0  3  0  0  0  0  0  0
  160.8350  202.4270  147.7220 C   0  0  0  0  0  0  0  0  0  0  0  0
  161.9230  206.8220  149.8140 C   0  0  0  0  0  0  0  0  0  0  0  0
  161.1640  204.2250  149.3070 C   0  0  0  0  0  0  0  0  0  0  0  0
  161.2830  203.2560  146.6850 C   0  0  0  0  0  3  0  0  0  0  0  0
  160.4580  201.1540  147.4540 F   0  0  0  0  0  0  0  0  0  0  0  0
  161.6090  205.0610  148.2620 C   0  0  0  0  0  0  0  0  0  0  0  0
  160.7790  202.9100  149.0330 C   0  0  0  0  0  3  0  0  0  0  0  0
  161.6690  204.5740  146.9540 C   0  0  0  0  0  3  0  0  0  0  0  0
  161.9730  206.3390  148.5420 N   0  0  0  0  0  0  0  0  0  0  0  0
  161.4840  205.9900  150.8490 C   0  0  0  0  0  3  0  0  0  0  0  0
  161.1130  204.7110  150.5740 N   0  0  0  0  0  0  0  0  0  0  0  0
  161.6290  210.8310  155.3770 C   0  0  0  0  0  2  0  0  0  0  0  0
  160.0790  208.9970  154.3830 C   0  0  0  0  0  2  0  0  0  0  0  0
  160.5620  209.7910  155.5600 C   0  0  0  0  0  0  0  0  0  0  0  0
  162.2760  210.7020  153.9990 C   0  0  0  0  0  2  0  0  0  0  0  0
  161.2360  210.7040  152.8590 C   0  0  0  0  0  3  0  0  0  0  0  0
  160.0940  209.5870  156.6680 O   0  0  0  0  0  0  0  0  0  0  0  0
  159.9470  209.9220  153.1750 C   0  0  0  0  0  2  0  0  0  0  0  0
  161.7070  211.5720  148.2660 N   0  0  0  0  0  0  0  0  0  0  0  0
  160.4560  211.2750  147.8350 O   0  0  0  0  0  1  0  0  0  0  0  0
  161.7840  213.2920  148.8520 P   0  0  1  0  0  0  0  0  0  0  0  0
  162.6270  214.0120  147.3340 C   0  0  0  0  0  2  0  0  0  0  0  0
  162.0850  213.5110  146.0670 N   0  0  0  0  0  0  0  0  0  0  0  0
  162.6200  212.9540  143.7260 C   0  0  0  0  0  2  0  0  0  0  0  0
  160.4620  214.1340  144.2510 C   0  0  0  0  0  2  0  0  0  0  0  0
  161.0950  212.9090  143.6010 C   0  0  0  0  0  2  0  0  0  0  0  0
  160.8360  214.2210  145.7390 C   0  0  0  0  0  2  0  0  0  0  0  0
  163.0830  213.6600  145.0040 C   0  0  0  0  0  2  0  0  0  0  0  0
  160.0510  213.8730  148.4610 C   0  0  0  0  0  2  0  0  0  0  0  0
  159.0770  213.3260  149.4880 C   0  0  1  0  0  3  0  0  0  0  0  0
  159.3680  213.8720  150.7400 O   0  0  0  0  0  0  0  0  0  0  0  0
  158.6340  213.1030  151.6450 C   0  0  0  0  0  2  0  0  0  0  0  0
  158.8780  213.6060  153.0520 C   0  0  0  0  0  1  0  0  0  0  0  0
  157.6560  213.6910  149.0850 C   0  0  0  0  0  2  0  0  0  0  0  0
  157.0840  212.8040  147.1490 C   0  0  0  0  0  1  0  0  0  0  0  0
  157.0230  212.5830  148.5240 O   0  0  0  0  0  0  0  0  0  0  0  0
  1  5  1  0  0  0  0
  2  5  1  0  0  0  0
  3 26  1  6  0  0  0
  3  2  1  0  0  0  0
  5 23  1  1  0  0  0
  6  9  1  6  0  0  0
  6  1  1  0  0  0  0
  7  4  1  6  0  0  0
  7  3  1  0  0  0  0
  7  6  1  0  0  0  0
  8 14  1  0  0  0  0
  9 17  1  0  0  0  0
 10 18  1  0  0  0  0
 11 15  1  0  0  0  0
 11  8  2  0  0  0  0
 12  8  1  0  0  0  0
 13 16  1  0  0  0  0
 13 10  1  0  0  0  0
 14 10  2  0  0  0  0
 15 13  2  0  0  0  0
 16  9  2  0  0  0  0
 18 17  2  0  0  0  0
 19 21  1  0  0  0  0
 20 21  1  0  0  0  0
 21 24  2  0  0  0  0
 22 19  1  0  0  0  0
 23 25  1  0  0  0  0
 23 22  1  0  0  0  0
 25 20  1  0  0  0  0
 26 28  1  0  0  0  0
 27 26  1  0  0  0  0
 28 29  1  6  0  0  0
 30 29  1  0  0  0  0
 31 35  1  0  0  0  0
 32 34  1  0  0  0  0
 33 31  1  0  0  0  0
 33 32  1  0  0  0  0
 34 30  1  0  0  0  0
 35 30  1  0  0  0  0
 36 28  1  0  0  0  0
 37 36  1  6  0  0  0
 37 38  1  0  0  0  0
 38 39  1  0  0  0  0
 39 40  1  0  0  0  0
 41 37  1  0  0  0  0
 42 43  1  0  0  0  0
 43 41  1  0  0  0  0
M  END
>  <MODEL>
7

>  <REMARK>
 VINA RESULT:      -6.0      3.749      8.683
  Name = 
  12 active torsions:
  status: ('A' for Active; 'I' for Inactive)
    1  A    between atoms: N_2  and  C_13
    2  A    between atoms: N_2  and  P_41
    3  A    between atoms: O_3  and  C_4
    4  A    between atoms: O_3  and  C_12
    5  A    between atoms: C_4  and  C_15
    6  A    between atoms: C_4  and  C_22
    7  A    between atoms: C_8  and  C_34
    8  A    between atoms: N_11  and  C_14
    9  A    between atoms: C_14  and  P_41
   10  A    between atoms: C_15  and  O_42
   11  A    between atoms: C_22  and  P_41
   12  A    between atoms: C_28  and  C_35
                            x       y       z     vdW  Elec       q    Type
                         _______ _______ _______ _____ _____    ______ ____

>  <TORSDO>
F 12

$$$$
=
 OpenBabel11062410223D

 43 47  0  0  1  0  0  0  0  0999 V2000
  161.5750  208.7350  148.6970 C   0  0  0  0  0  2  0  0  0  0  0  0
  162.2660  210.0690  150.5630 O   0  0  0  0  0  0  0  0  0  0  0  0
  161.4500  209.3770  151.4770 C   0  0  1  0  0  3  0  0  0  0  0  0
  160.4130  207.2320  151.9080 O   0  0  0  0  0  1  0  0  0  0  0  0
  161.5760  210.1190  149.3400 C   0  0  1  0  0  3  0  0  0  0  0  0
  160.8550  207.7540  149.6200 C   0  0  2  0  0  3  0  0  0  0  0  0
  161.3240  207.8840  151.0760 C   0  0  1  0  0  3  0  0  0  0  0  0
  161.4190  201.4160  148.5680 C   0  0  0  0  0  0  0  0  0  0  0  0
  161.0430  206.3580  149.1220 C   0  0  0  0  0  0  0  0  0  0  0  0
  161.4350  203.8030  148.1750 C   0  0  0  0  0  0  0  0  0  0  0  0
  161.0000  201.6330  149.8860 C   0  0  0  0  0  3  0  0  0  0  0  0
  161.6140  200.1520  148.1200 F   0  0  0  0  0  0  0  0  0  0  0  0
  161.0200  204.0220  149.5050 C   0  0  0  0  0  0  0  0  0  0  0  0
  161.6330  202.5000  147.7100 C   0  0  0  0  0  3  0  0  0  0  0  0
  160.8010  202.9360  150.3570 C   0  0  0  0  0  3  0  0  0  0  0  0
  160.8390  205.2930  149.9450 N   0  0  0  0  0  0  0  0  0  0  0  0
  161.4530  206.1390  147.8020 C   0  0  0  0  0  3  0  0  0  0  0  0
  161.6420  204.8680  147.3580 N   0  0  0  0  0  0  0  0  0  0  0  0
  162.4790  213.6520  147.9980 C   0  0  0  0  0  2  0  0  0  0  0  0
  160.7220  212.2840  146.6590 C   0  0  0  0  0  2  0  0  0  0  0  0
  161.5510  213.5220  146.8250 C   0  0  0  0  0  0  0  0  0  0  0  0
  162.2000  212.5610  149.0300 C   0  0  0  0  0  2  0  0  0  0  0  0
  162.2120  211.1480  148.4090 C   0  0  0  0  0  3  0  0  0  0  0  0
  161.4660  214.4280  146.0130 O   0  0  0  0  0  0  0  0  0  0  0  0
  161.5680  211.0630  147.0130 C   0  0  0  0  0  2  0  0  0  0  0  0
  161.9790  209.5780  152.8310 N   0  0  0  0  0  0  0  0  0  0  0  0
  163.3050  209.8470  152.7540 O   0  0  0  0  0  1  0  0  0  0  0  0
  161.1050  210.9350  153.6710 P   0  0  1  0  0  0  0  0  0  0  0  0
  159.4730  210.7550  152.7570 C   0  0  0  0  0  2  0  0  0  0  0  0
  158.6920  211.9950  152.6990 N   0  0  0  0  0  0  0  0  0  0  0  0
  158.7940  214.4240  152.2940 C   0  0  0  0  0  2  0  0  0  0  0  0
  157.3700  213.5450  154.1720 C   0  0  0  0  0  2  0  0  0  0  0  0
  157.3860  214.3780  152.8960 C   0  0  0  0  0  2  0  0  0  0  0  0
  157.8400  212.1080  153.8960 C   0  0  0  0  0  2  0  0  0  0  0  0
  159.5900  213.1450  152.5680 C   0  0  0  0  0  2  0  0  0  0  0  0
  160.5860  210.0900  155.2550 C   0  0  0  0  0  2  0  0  0  0  0  0
  161.7220  209.2290  155.7800 C   0  0  1  0  0  3  0  0  0  0  0  0
  162.1210  209.7030  157.0310 O   0  0  0  0  0  0  0  0  0  0  0  0
  162.1150  211.0940  156.9050 C   0  0  0  0  0  2  0  0  0  0  0  0
  163.5090  211.6310  157.1500 C   0  0  0  0  0  1  0  0  0  0  0  0
  161.2520  207.7880  155.9010 C   0  0  0  0  0  2  0  0  0  0  0  0
  159.3210  206.9010  156.4890 C   0  0  0  0  0  1  0  0  0  0  0  0
  159.9180  207.6900  155.5070 O   0  0  0  0  0  0  0  0  0  0  0  0
  1  5  1  0  0  0  0
  1  6  1  0  0  0  0
  2  3  1  0  0  0  0
  3 26  1  1  0  0  0
  5 23  1  6  0  0  0
  5  2  1  0  0  0  0
  6  9  1  6  0  0  0
  6  7  1  0  0  0  0
  7  3  1  0  0  0  0
  7  4  1  1  0  0  0
  8 11  1  0  0  0  0
  9 16  1  0  0  0  0
 10 13  1  0  0  0  0
 11 15  2  0  0  0  0
 12  8  1  0  0  0  0
 13 16  2  0  0  0  0
 13 15  1  0  0  0  0
 14 10  1  0  0  0  0
 14  8  2  0  0  0  0
 17  9  2  0  0  0  0
 18 17  1  0  0  0  0
 18 10  2  0  0  0  0
 19 22  1  0  0  0  0
 20 21  1  0  0  0  0
 20 25  1  0  0  0  0
 21 19  1  0  0  0  0
 23 22  1  0  0  0  0
 24 21  2  0  0  0  0
 25 23  1  0  0  0  0
 26 28  1  0  0  0  0
 27 26  1  0  0  0  0
 28 29  1  6  0  0  0
 28 36  1  0  0  0  0
 30 29  1  0  0  0  0
 30 34  1  0  0  0  0
 31 35  1  0  0  0  0
 31 33  1  0  0  0  0
 33 32  1  0  0  0  0
 34 32  1  0  0  0  0
 35 30  1  0  0  0  0
 37 36  1  1  0  0  0
 37 41  1  0  0  0  0
 37 38  1  0  0  0  0
 39 38  1  0  0  0  0
 39 40  1  0  0  0  0
 43 41  1  0  0  0  0
 43 42  1  0  0  0  0
M  END
>  <MODEL>
8

>  <REMARK>
 VINA RESULT:      -5.4      3.317      8.097
  Name = 
  12 active torsions:
  status: ('A' for Active; 'I' for Inactive)
    1  A    between atoms: N_2  and  C_13
    2  A    between atoms: N_2  and  P_41
    3  A    between atoms: O_3  and  C_4
    4  A    between atoms: O_3  and  C_12
    5  A    between atoms: C_4  and  C_15
    6  A    between atoms: C_4  and  C_22
    7  A    between atoms: C_8  and  C_34
    8  A    between atoms: N_11  and  C_14
    9  A    between atoms: C_14  and  P_41
   10  A    between atoms: C_15  and  O_42
   11  A    between atoms: C_22  and  P_41
   12  A    between atoms: C_28  and  C_35
                            x       y       z     vdW  Elec       q    Type
                         _______ _______ _______ _____ _____    ______ ____

>  <TORSDO>
F 12

$$$$
=
 OpenBabel11062410223D

 43 47  0  0  1  0  0  0  0  0999 V2000
  161.2050  211.5660  150.3640 C   0  0  0  0  0  2  0  0  0  0  0  0
  162.1140  209.6980  149.1700 O   0  0  0  0  0  0  0  0  0  0  0  0
  162.5580  209.0510  150.3380 C   0  0  1  0  0  3  0  0  0  0  0  0
  162.1120  208.8050  152.7050 O   0  0  0  0  0  1  0  0  0  0  0  0
  162.2620  211.0810  149.3760 C   0  0  1  0  0  3  0  0  0  0  0  0
  161.4040  210.8530  151.7000 C   0  0  2  0  0  3  0  0  0  0  0  0
  161.6000  209.3410  151.5210 C   0  0  1  0  0  3  0  0  0  0  0  0
  156.1960  212.9640  154.8660 C   0  0  0  0  0  0  0  0  0  0  0  0
  160.2480  211.1380  152.6030 C   0  0  0  0  0  0  0  0  0  0  0  0
  158.1520  211.6520  154.3120 C   0  0  0  0  0  0  0  0  0  0  0  0
  156.3690  213.7200  153.6990 C   0  0  0  0  0  3  0  0  0  0  0  0
  155.1630  213.2350  155.6990 F   0  0  0  0  0  0  0  0  0  0  0  0
  158.3300  212.4170  153.1400 C   0  0  0  0  0  0  0  0  0  0  0  0
  157.0850  211.9280  155.1710 C   0  0  0  0  0  3  0  0  0  0  0  0
  157.4370  213.4480  152.8360 C   0  0  0  0  0  3  0  0  0  0  0  0
  159.3760  212.1430  152.3190 N   0  0  0  0  0  0  0  0  0  0  0  0
  160.0690  210.3780  153.7650 C   0  0  0  0  0  3  0  0  0  0  0  0
  159.0270  210.6520  154.5940 N   0  0  0  0  0  0  0  0  0  0  0  0
  161.8550  214.1510  147.0290 C   0  0  0  0  0  2  0  0  0  0  0  0
  159.8200  212.5520  147.2600 C   0  0  0  0  0  2  0  0  0  0  0  0
  160.4530  213.7670  146.6520 C   0  0  0  0  0  0  0  0  0  0  0  0
  162.3230  213.3530  148.2440 C   0  0  0  0  0  2  0  0  0  0  0  0
  162.1500  211.8320  148.0510 C   0  0  0  0  0  3  0  0  0  0  0  0
  159.8270  214.4500  145.8590 O   0  0  0  0  0  0  0  0  0  0  0  0
  160.8520  211.4290  147.3260 C   0  0  0  0  0  2  0  0  0  0  0  0
  162.7240  207.6210  150.0530 N   0  0  0  0  0  0  0  0  0  0  0  0
  163.1730  206.9960  151.1690 O   0  0  0  0  0  1  0  0  0  0  0  0
  161.1550  206.8850  149.5020 P   0  0  1  0  0  0  0  0  0  0  0  0
  161.3820  207.2100  147.6660 C   0  0  0  0  0  2  0  0  0  0  0  0
  161.4730  205.9880  146.8590 N   0  0  0  0  0  0  0  0  0  0  0  0
  163.0030  204.2810  145.9520 C   0  0  0  0  0  2  0  0  0  0  0  0
  161.1500  205.1710  144.5030 C   0  0  0  0  0  2  0  0  0  0  0  0
  161.7760  203.9220  145.1100 C   0  0  0  0  0  2  0  0  0  0  0  0
  160.7260  206.1620  145.6000 C   0  0  0  0  0  2  0  0  0  0  0  0
  162.8790  205.6600  146.6080 C   0  0  0  0  0  2  0  0  0  0  0  0
  161.6060  205.0710  149.4820 C   0  0  0  0  0  2  0  0  0  0  0  0
  161.1090  204.3980  150.7480 C   0  0  1  0  0  3  0  0  0  0  0  0
  160.5770  205.3630  151.6060 O   0  0  0  0  0  0  0  0  0  0  0  0
  161.5170  205.4880  152.6310 C   0  0  0  0  0  2  0  0  0  0  0  0
  160.8220  205.9130  153.9070 C   0  0  0  0  0  1  0  0  0  0  0  0
  160.0400  203.3770  150.3940 C   0  0  0  0  0  2  0  0  0  0  0  0
  160.5690  201.2910  149.9130 C   0  0  0  0  0  1  0  0  0  0  0  0
  160.3420  202.1510  150.9860 O   0  0  0  0  0  0  0  0  0  0  0  0
  1  6  1  0  0  0  0
  2  5  1  0  0  0  0
  2  3  1  0  0  0  0
  3 26  1  6  0  0  0
  3  7  1  0  0  0  0
  5 23  1  6  0  0  0
  5  1  1  0  0  0  0
  6  9  1  1  0  0  0
  7  6  1  0  0  0  0
  7  4  1  1  0  0  0
  8 14  1  0  0  0  0
  8 12  1  0  0  0  0
  9 17  1  0  0  0  0
 10 18  1  0  0  0  0
 10 14  2  0  0  0  0
 11  8  2  0  0  0  0
 13 10  1  0  0  0  0
 15 13  2  0  0  0  0
 15 11  1  0  0  0  0
 16  9  2  0  0  0  0
 16 13  1  0  0  0  0
 17 18  2  0  0  0  0
 19 22  1  0  0  0  0
 20 25  1  0  0  0  0
 21 19  1  0  0  0  0
 21 20  1  0  0  0  0
 23 22  1  0  0  0  0
 24 21  2  0  0  0  0
 25 23  1  0  0  0  0
 26 27  1  0  0  0  0
 28 29  1  6  0  0  0
 28 26  1  0  0  0  0
 30 29  1  0  0  0  0
 31 35  1  0  0  0  0
 32 33  1  0  0  0  0
 32 34  1  0  0  0  0
 33 31  1  0  0  0  0
 34 30  1  0  0  0  0
 35 30  1  0  0  0  0
 36 28  1  0  0  0  0
 37 36  1  6  0  0  0
 37 38  1  0  0  0  0
 38 39  1  0  0  0  0
 39 40  1  0  0  0  0
 41 37  1  0  0  0  0
 41 43  1  0  0  0  0
 42 43  1  0  0  0  0
M  END
>  <MODEL>
9

>  <REMARK>
 VINA RESULT:      -5.2      0.903      2.105
  Name = 
  12 active torsions:
  status: ('A' for Active; 'I' for Inactive)
    1  A    between atoms: N_2  and  C_13
    2  A    between atoms: N_2  and  P_41
    3  A    between atoms: O_3  and  C_4
    4  A    between atoms: O_3  and  C_12
    5  A    between atoms: C_4  and  C_15
    6  A    between atoms: C_4  and  C_22
    7  A    between atoms: C_8  and  C_34
    8  A    between atoms: N_11  and  C_14
    9  A    between atoms: C_14  and  P_41
   10  A    between atoms: C_15  and  O_42
   11  A    between atoms: C_22  and  P_41
   12  A    between atoms: C_28  and  C_35
                            x       y       z     vdW  Elec       q    Type
                         _______ _______ _______ _____ _____    ______ ____

>  <TORSDO>
F 12

$$$$
