=
 OpenBabel11062409163D

 37 39  0  0  1  0  0  0  0  0999 V2000
  160.5910  209.2680  152.2990 C   0  0  0  0  0  2  0  0  0  0  0  0
  163.5640  211.1050  155.0770 C   0  0  0  0  0  3  0  0  0  0  0  0
  159.9950  208.7200  153.6010 C   0  0  2  0  0  3  0  0  0  0  0  0
  162.3610  210.7060  154.4870 C   0  0  0  0  0  0  0  0  0  0  0  0
  162.2300  210.8230  153.0050 C   0  0  0  0  0  2  0  0  0  0  0  0
  161.3200  210.1980  155.2940 C   0  0  0  0  0  0  0  0  0  0  0  0
  162.7120  210.5120  157.2600 C   0  0  0  0  0  3  0  0  0  0  0  0
  162.0260  209.5040  152.4190 N   0  0  0  0  0  0  0  0  0  0  0  0
  161.5080  210.1100  156.6780 C   0  0  0  0  0  3  0  0  0  0  0  0
  159.9880  209.7580  154.7430 C   0  0  1  0  0  3  0  0  0  0  0  0
  163.7460  211.0110  156.4650 C   0  0  0  0  0  0  0  0  0  0  0  0
  164.9400  211.4030  157.0750 O   0  0  0  0  0  0  0  0  0  0  0  0
  165.8960  212.2340  156.4300 C   0  0  0  0  0  1  0  0  0  0  0  0
  160.2040  207.0000  155.7600 S   0  0  0  0  0  1  0  0  0  0  0  0
  160.6430  207.3970  154.0360 C   0  0  1  0  0  3  0  0  0  0  0  0
  160.1960  206.2490  153.1380 C   0  0  0  0  0  2  0  0  0  0  0  0
  162.7300  205.9360  153.0840 C   0  0  0  0  0  1  0  0  0  0  0  0
  161.3820  205.6010  152.4340 C   0  0  2  0  0  3  0  0  0  0  0  0
  160.0640  205.2890  150.5090 O   0  0  0  0  0  0  0  0  0  0  0  0
  161.2990  205.7500  150.9620 N   0  0  0  0  0  0  0  0  0  0  0  0
  161.1410  204.5290  150.1820 C   0  0  2  0  0  0  0  0  0  0  0  0
  161.5270  204.6650  148.7230 C   0  0  0  0  0  1  0  0  0  0  0  0
  160.6190  201.9760  150.1270 C   0  0  0  0  0  1  0  0  0  0  0  0
  161.6840  203.0310  151.9310 O   0  0  0  0  0  0  0  0  0  0  0  0
  161.1570  203.1730  150.8400 C   0  0  0  0  0  0  0  0  0  0  0  0
  162.6470  209.4540  151.0910 C   0  0  0  0  0  2  0  0  0  0  0  0
  161.9150  208.5400  150.1070 C   0  0  0  0  0  1  0  0  0  0  0  0
  158.8990  210.8440  154.7120 C   0  0  1  0  0  3  0  0  0  0  0  0
  157.8840  210.7450  155.8200 C   0  0  0  0  0  0  0  0  0  0  0  0
  158.2470  211.0800  157.0580 C   0  0  0  0  0  2  0  0  0  0  0  0
  155.5120  211.3830  156.1660 C   0  0  0  0  0  1  0  0  0  0  0  0
  156.4590  210.3750  155.5410 C   0  0  0  0  0  2  0  0  0  0  0  0
  159.4850  212.2480  154.5980 C   0  0  0  0  0  2  0  0  0  0  0  0
  158.4020  213.2450  154.2310 C   0  0  0  0  0  2  0  0  0  0  0  0
  158.3980  213.4520  152.7310 C   0  0  0  0  0  2  0  0  0  0  0  0
  156.3710  213.9000  153.4730 C   0  0  0  0  0  1  0  0  0  0  0  0
  157.0940  213.6920  152.3000 O   0  0  0  0  0  0  0  0  0  0  0  0
  1  8  1  0  0  0  0
  1  3  1  0  0  0  0
  2 11  1  0  0  0  0
  3 15  1  1  0  0  0
  3 10  1  0  0  0  0
  4  2  2  0  0  0  0
  4  6  1  0  0  0  0
  5  4  1  0  0  0  0
  6  9  2  0  0  0  0
  8  5  1  0  0  0  0
  9  7  1  0  0  0  0
 10 28  1  6  0  0  0
 10  6  1  0  0  0  0
 11 12  1  0  0  0  0
 11  7  2  0  0  0  0
 13 12  1  0  0  0  0
 15 14  1  1  0  0  0
 16 15  1  0  0  0  0
 18 17  1  1  0  0  0
 18 16  1  0  0  0  0
 19 20  1  0  0  0  0
 20 18  1  0  0  0  0
 21 22  1  6  0  0  0
 21 19  1  0  0  0  0
 21 25  1  0  0  0  0
 21 20  1  0  0  0  0
 23 25  1  0  0  0  0
 25 24  2  0  0  0  0
 26  8  1  0  0  0  0
 27 26  1  0  0  0  0
 28 33  1  1  0  0  0
 28 29  1  0  0  0  0
 29 30  2  0  0  0  0
 32 29  1  0  0  0  0
 32 31  1  0  0  0  0
 34 33  1  0  0  0  0
 35 34  1  0  0  0  0
 37 35  1  0  0  0  0
 37 36  1  0  0  0  0
M  END
>  <MODEL>
1

>  <REMARK>
 VINA RESULT:      -2.5      0.000      0.000
  Name = 
  14 active torsions:
  status: ('A' for Active; 'I' for Inactive)
    1  A    between atoms: C_1  and  C_12
    2  A    between atoms: C_1  and  C_36
    3  A    between atoms: O_3  and  C_32
    4  A    between atoms: N_6  and  C_37
    5  A    between atoms: C_8  and  C_35
    6  A    between atoms: C_10  and  C_14
    7  A    between atoms: C_14  and  C_27
    8  A    between atoms: C_17  and  C_26
    9  A    between atoms: C_17  and  C_33
   10  A    between atoms: C_22  and  N_24
   11  A    between atoms: C_26  and  O_34
   12  A    between atoms: C_27  and  C_37
   13  A    between atoms: C_29  and  C_36
   14  A    between atoms: C_33  and  C_36
                            x       y       z     vdW  Elec       q    Type
                         _______ _______ _______ _____ _____    ______ ____

>  <TORSDO>
F 14

$$$$
=
 OpenBabel11062409163D

 37 39  0  0  1  0  0  0  0  0999 V2000
  162.3500  210.7520  154.5170 C   0  0  0  0  0  2  0  0  0  0  0  0
  158.3860  211.5790  156.3980 C   0  0  0  0  0  3  0  0  0  0  0  0
  161.4830  210.1990  153.3790 C   0  0  2  0  0  3  0  0  0  0  0  0
  159.4380  211.5170  155.4790 C   0  0  0  0  0  0  0  0  0  0  0  0
  160.8150  211.8280  155.9630 C   0  0  0  0  0  2  0  0  0  0  0  0
  159.1780  211.1560  154.1390 C   0  0  0  0  0  0  0  0  0  0  0  0
  156.8180  210.9370  154.6730 C   0  0  0  0  0  3  0  0  0  0  0  0
  161.6710  210.6590  155.8060 N   0  0  0  0  0  0  0  0  0  0  0  0
  157.8640  210.8730  153.7500 C   0  0  0  0  0  3  0  0  0  0  0  0
  160.2500  211.0780  153.0830 C   0  0  1  0  0  3  0  0  0  0  0  0
  157.0720  211.2900  156.0000 C   0  0  0  0  0  0  0  0  0  0  0  0
  156.0050  211.3450  156.9010 O   0  0  0  0  0  0  0  0  0  0  0  0
  155.1490  212.4740  157.0110 C   0  0  0  0  0  1  0  0  0  0  0  0
  160.0160  208.5460  155.0450 S   0  0  0  0  0  1  0  0  0  0  0  0
  161.0990  208.7280  153.5900 C   0  0  1  0  0  3  0  0  0  0  0  0
  160.3800  208.1690  152.3680 C   0  0  0  0  0  2  0  0  0  0  0  0
  162.1450  206.3460  152.6560 C   0  0  0  0  0  1  0  0  0  0  0  0
  161.1980  207.0750  151.6940 C   0  0  2  0  0  3  0  0  0  0  0  0
  160.7640  207.7200  149.4720 O   0  0  0  0  0  0  0  0  0  0  0  0
  161.7790  207.5320  150.4100 N   0  0  0  0  0  0  0  0  0  0  0  0
  161.5900  206.6650  149.2530 C   0  0  2  0  0  0  0  0  0  0  0  0
  162.5640  206.9140  148.1200 C   0  0  0  0  0  1  0  0  0  0  0  0
  161.3990  204.1510  148.5920 C   0  0  0  0  0  1  0  0  0  0  0  0
  160.0250  205.1640  150.2000 O   0  0  0  0  0  0  0  0  0  0  0  0
  160.9180  205.3220  149.3840 C   0  0  0  0  0  0  0  0  0  0  0  0
  162.6650  210.6280  156.8850 C   0  0  0  0  0  2  0  0  0  0  0  0
  163.9750  211.3350  156.5320 C   0  0  0  0  0  1  0  0  0  0  0  0
  160.4710  212.3690  152.2750 C   0  0  1  0  0  3  0  0  0  0  0  0
  160.8950  212.1510  150.8480 C   0  0  0  0  0  0  0  0  0  0  0  0
  160.6780  213.1170  149.9550 C   0  0  0  0  0  2  0  0  0  0  0  0
  162.1000  211.0270  148.9930 C   0  0  0  0  0  1  0  0  0  0  0  0
  161.6380  210.9170  150.4340 C   0  0  0  0  0  2  0  0  0  0  0  0
  159.2880  213.3260  152.3800 C   0  0  0  0  0  2  0  0  0  0  0  0
  158.2580  213.0120  151.3110 C   0  0  0  0  0  2  0  0  0  0  0  0
  157.2400  214.1310  151.2500 C   0  0  0  0  0  2  0  0  0  0  0  0
  157.0110  213.2330  149.2500 C   0  0  0  0  0  1  0  0  0  0  0  0
  156.2870  213.8390  150.2760 O   0  0  0  0  0  0  0  0  0  0  0  0
  1  8  1  0  0  0  0
  3 15  1  1  0  0  0
  3  1  1  0  0  0  0
  4  5  1  0  0  0  0
  4  2  2  0  0  0  0
  6  4  1  0  0  0  0
  7 11  2  0  0  0  0
  8  5  1  0  0  0  0
  8 26  1  0  0  0  0
  9  6  2  0  0  0  0
  9  7  1  0  0  0  0
 10 28  1  1  0  0  0
 10  3  1  0  0  0  0
 10  6  1  0  0  0  0
 11  2  1  0  0  0  0
 11 12  1  0  0  0  0
 12 13  1  0  0  0  0
 15 14  1  1  0  0  0
 16 15  1  0  0  0  0
 18 16  1  0  0  0  0
 18 17  1  1  0  0  0
 19 20  1  0  0  0  0
 20 18  1  0  0  0  0
 21 22  1  6  0  0  0
 21 25  1  0  0  0  0
 21 19  1  0  0  0  0
 21 20  1  0  0  0  0
 23 25  1  0  0  0  0
 25 24  2  0  0  0  0
 27 26  1  0  0  0  0
 28 33  1  6  0  0  0
 29 28  1  0  0  0  0
 30 29  2  0  0  0  0
 31 32  1  0  0  0  0
 32 29  1  0  0  0  0
 34 33  1  0  0  0  0
 35 34  1  0  0  0  0
 36 37  1  0  0  0  0
 37 35  1  0  0  0  0
M  END
>  <MODEL>
2

>  <REMARK>
 VINA RESULT:      -2.1      2.177      4.768
  Name = 
  14 active torsions:
  status: ('A' for Active; 'I' for Inactive)
    1  A    between atoms: C_1  and  C_12
    2  A    between atoms: C_1  and  C_36
    3  A    between atoms: O_3  and  C_32
    4  A    between atoms: N_6  and  C_37
    5  A    between atoms: C_8  and  C_35
    6  A    between atoms: C_10  and  C_14
    7  A    between atoms: C_14  and  C_27
    8  A    between atoms: C_17  and  C_26
    9  A    between atoms: C_17  and  C_33
   10  A    between atoms: C_22  and  N_24
   11  A    between atoms: C_26  and  O_34
   12  A    between atoms: C_27  and  C_37
   13  A    between atoms: C_29  and  C_36
   14  A    between atoms: C_33  and  C_36
                            x       y       z     vdW  Elec       q    Type
                         _______ _______ _______ _____ _____    ______ ____

>  <TORSDO>
F 14

$$$$
=
 OpenBabel11062409163D

 37 39  0  0  1  0  0  0  0  0999 V2000
  158.8810  211.0830  152.1050 C   0  0  0  0  0  2  0  0  0  0  0  0
  161.4180  211.1230  155.7780 C   0  0  0  0  0  3  0  0  0  0  0  0
  160.2300  210.8810  151.4040 C   0  0  2  0  0  3  0  0  0  0  0  0
  160.8510  210.7550  154.5540 C   0  0  0  0  0  0  0  0  0  0  0  0
  159.3680  210.8460  154.4090 C   0  0  0  0  0  2  0  0  0  0  0  0
  161.6830  210.3240  153.4980 C   0  0  0  0  0  0  0  0  0  0  0  0
  163.6250  210.6340  154.9230 C   0  0  0  0  0  3  0  0  0  0  0  0
  159.0310  211.8050  153.3650 N   0  0  0  0  0  0  0  0  0  0  0  0
  163.0660  210.2660  153.6980 C   0  0  0  0  0  3  0  0  0  0  0  0
  161.1550  209.8980  152.1530 C   0  0  1  0  0  3  0  0  0  0  0  0
  162.8060  211.0640  155.9700 C   0  0  0  0  0  0  0  0  0  0  0  0
  163.3940  211.4280  157.1840 O   0  0  0  0  0  0  0  0  0  0  0  0
  164.6230  212.1380  157.2610 C   0  0  0  0  0  1  0  0  0  0  0  0
  162.2200  211.9690  149.8190 S   0  0  0  0  0  1  0  0  0  0  0  0
  160.9380  212.2070  151.0910 C   0  0  1  0  0  3  0  0  0  0  0  0
  159.9460  213.2540  150.6000 C   0  0  0  0  0  2  0  0  0  0  0  0
  161.5180  214.4510  148.9810 C   0  0  0  0  0  1  0  0  0  0  0  0
  160.2230  213.6460  149.1530 C   0  0  2  0  0  3  0  0  0  0  0  0
  158.0660  213.1690  148.3430 O   0  0  0  0  0  0  0  0  0  0  0  0
  159.0150  214.1800  148.4840 N   0  0  0  0  0  0  0  0  0  0  0  0
  158.6580  213.5940  147.1980 C   0  0  2  0  0  0  0  0  0  0  0  0
  157.7400  214.4530  146.3520 C   0  0  0  0  0  1  0  0  0  0  0  0
  159.5450  212.4060  145.0530 C   0  0  0  0  0  1  0  0  0  0  0  0
  160.3040  211.8940  147.2120 O   0  0  0  0  0  0  0  0  0  0  0  0
  159.5350  212.5600  146.5390 C   0  0  0  0  0  0  0  0  0  0  0  0
  157.7700  212.4750  153.7010 C   0  0  0  0  0  2  0  0  0  0  0  0
  157.5070  212.5680  155.2050 C   0  0  0  0  0  1  0  0  0  0  0  0
  160.8640  208.3940  152.0080 C   0  0  1  0  0  3  0  0  0  0  0  0
  161.1360  207.8320  150.6390 C   0  0  0  0  0  0  0  0  0  0  0  0
  161.9190  208.5170  149.8050 C   0  0  0  0  0  2  0  0  0  0  0  0
  160.7690  206.2830  148.7360 C   0  0  0  0  0  1  0  0  0  0  0  0
  160.6280  206.4810  150.2340 C   0  0  0  0  0  2  0  0  0  0  0  0
  161.5270  207.5690  153.1060 C   0  0  0  0  0  2  0  0  0  0  0  0
  160.4840  206.7900  153.8850 C   0  0  0  0  0  2  0  0  0  0  0  0
  160.1100  207.5600  155.1340 C   0  0  0  0  0  2  0  0  0  0  0  0
  160.6370  207.3140  157.2610 C   0  0  0  0  0  1  0  0  0  0  0  0
  159.9880  206.6750  156.2050 O   0  0  0  0  0  0  0  0  0  0  0  0
  1  8  1  0  0  0  0
  2 11  1  0  0  0  0
  3 15  1  1  0  0  0
  3  1  1  0  0  0  0
  3 10  1  0  0  0  0
  4  2  2  0  0  0  0
  5  4  1  0  0  0  0
  6  9  2  0  0  0  0
  6  4  1  0  0  0  0
  7 11  2  0  0  0  0
  8 26  1  0  0  0  0
  8  5  1  0  0  0  0
  9  7  1  0  0  0  0
 10 28  1  1  0  0  0
 10  6  1  0  0  0  0
 11 12  1  0  0  0  0
 12 13  1  0  0  0  0
 15 14  1  6  0  0  0
 16 15  1  0  0  0  0
 18 17  1  1  0  0  0
 18 16  1  0  0  0  0
 19 20  1  0  0  0  0
 20 18  1  0  0  0  0
 21 22  1  6  0  0  0
 21 19  1  0  0  0  0
 21 20  1  0  0  0  0
 23 25  1  0  0  0  0
 25 21  1  0  0  0  0
 25 24  2  0  0  0  0
 26 27  1  0  0  0  0
 28 33  1  1  0  0  0
 29 28  1  0  0  0  0
 30 29  2  0  0  0  0
 31 32  1  0  0  0  0
 32 29  1  0  0  0  0
 33 34  1  0  0  0  0
 34 35  1  0  0  0  0
 35 37  1  0  0  0  0
 37 36  1  0  0  0  0
M  END
>  <MODEL>
3

>  <REMARK>
 VINA RESULT:      -1.3      3.571      6.955
  Name = 
  14 active torsions:
  status: ('A' for Active; 'I' for Inactive)
    1  A    between atoms: C_1  and  C_12
    2  A    between atoms: C_1  and  C_36
    3  A    between atoms: O_3  and  C_32
    4  A    between atoms: N_6  and  C_37
    5  A    between atoms: C_8  and  C_35
    6  A    between atoms: C_10  and  C_14
    7  A    between atoms: C_14  and  C_27
    8  A    between atoms: C_17  and  C_26
    9  A    between atoms: C_17  and  C_33
   10  A    between atoms: C_22  and  N_24
   11  A    between atoms: C_26  and  O_34
   12  A    between atoms: C_27  and  C_37
   13  A    between atoms: C_29  and  C_36
   14  A    between atoms: C_33  and  C_36
                            x       y       z     vdW  Elec       q    Type
                         _______ _______ _______ _____ _____    ______ ____

>  <TORSDO>
F 14

$$$$
=
 OpenBabel11062409163D

 37 39  0  0  1  0  0  0  0  0999 V2000
  161.3970  211.5470  154.4200 C   0  0  0  0  0  2  0  0  0  0  0  0
  157.4800  211.6540  156.5590 C   0  0  0  0  0  3  0  0  0  0  0  0
  160.5930  210.7590  153.3780 C   0  0  2  0  0  3  0  0  0  0  0  0
  158.4590  211.7540  155.5660 C   0  0  0  0  0  0  0  0  0  0  0  0
  159.7690  212.3710  155.9280 C   0  0  0  0  0  2  0  0  0  0  0  0
  158.1930  211.2660  154.2680 C   0  0  0  0  0  0  0  0  0  0  0  0
  155.9720  210.5990  154.9920 C   0  0  0  0  0  3  0  0  0  0  0  0
  160.8390  211.3950  155.7600 N   0  0  0  0  0  0  0  0  0  0  0  0
  156.9450  210.6950  153.9950 C   0  0  0  0  0  3  0  0  0  0  0  0
  159.1860  211.3450  153.1370 C   0  0  1  0  0  3  0  0  0  0  0  0
  156.2320  211.0770  156.2780 C   0  0  0  0  0  0  0  0  0  0  0  0
  155.2400  210.9660  157.2550 O   0  0  0  0  0  0  0  0  0  0  0  0
  153.9770  210.3650  157.0020 C   0  0  0  0  0  1  0  0  0  0  0  0
  159.4240  208.9230  155.0880 S   0  0  0  0  0  1  0  0  0  0  0  0
  160.5410  209.2560  153.6860 C   0  0  1  0  0  3  0  0  0  0  0  0
  160.0590  208.4660  152.4750 C   0  0  0  0  0  2  0  0  0  0  0  0
  161.6990  206.6970  153.3140 C   0  0  0  0  0  1  0  0  0  0  0  0
  161.0480  207.3690  152.0990 C   0  0  2  0  0  3  0  0  0  0  0  0
  161.2110  208.2930  149.9400 O   0  0  0  0  0  0  0  0  0  0  0  0
  161.9560  207.7950  151.0090 N   0  0  0  0  0  0  0  0  0  0  0  0
  161.8280  207.1010  149.7330 C   0  0  2  0  0  0  0  0  0  0  0  0
  163.0390  207.2220  148.8310 C   0  0  0  0  0  1  0  0  0  0  0  0
  161.3070  204.5540  149.9160 C   0  0  0  0  0  1  0  0  0  0  0  0
  159.7280  206.1400  149.2150 O   0  0  0  0  0  0  0  0  0  0  0  0
  160.8800  205.9410  149.5650 C   0  0  0  0  0  0  0  0  0  0  0  0
  161.8860  211.6360  156.7590 C   0  0  0  0  0  2  0  0  0  0  0  0
  162.7490  210.4070  157.0510 C   0  0  0  0  0  1  0  0  0  0  0  0
  159.0780  212.6030  152.2560 C   0  0  1  0  0  3  0  0  0  0  0  0
  158.4990  213.8060  152.9500 C   0  0  0  0  0  0  0  0  0  0  0  0
  159.2430  214.4510  153.8500 C   0  0  0  0  0  2  0  0  0  0  0  0
  156.1640  214.1460  153.7150 C   0  0  0  0  0  1  0  0  0  0  0  0
  157.1510  214.3470  152.5810 C   0  0  0  0  0  2  0  0  0  0  0  0
  160.3890  212.9270  151.5480 C   0  0  0  0  0  2  0  0  0  0  0  0
  160.2480  214.1950  150.7280 C   0  0  0  0  0  2  0  0  0  0  0  0
  160.2970  213.8490  149.2550 C   0  0  0  0  0  2  0  0  0  0  0  0
  161.4040  212.7380  147.7050 C   0  0  0  0  0  1  0  0  0  0  0  0
  161.5700  213.3820  148.9310 O   0  0  0  0  0  0  0  0  0  0  0  0
  1  8  1  0  0  0  0
  3 15  1  1  0  0  0
  3  1  1  0  0  0  0
  4  5  1  0  0  0  0
  4  2  2  0  0  0  0
  6  4  1  0  0  0  0
  7 11  2  0  0  0  0
  8  5  1  0  0  0  0
  8 26  1  0  0  0  0
  9  6  2  0  0  0  0
  9  7  1  0  0  0  0
 10 28  1  1  0  0  0
 10  3  1  0  0  0  0
 10  6  1  0  0  0  0
 11  2  1  0  0  0  0
 11 12  1  0  0  0  0
 13 12  1  0  0  0  0
 15 14  1  1  0  0  0
 16 15  1  0  0  0  0
 18 16  1  0  0  0  0
 18 17  1  1  0  0  0
 19 20  1  0  0  0  0
 20 18  1  0  0  0  0
 21 22  1  6  0  0  0
 21 19  1  0  0  0  0
 21 20  1  0  0  0  0
 24 25  2  0  0  0  0
 25 21  1  0  0  0  0
 25 23  1  0  0  0  0
 26 27  1  0  0  0  0
 28 33  1  1  0  0  0
 28 29  1  0  0  0  0
 29 30  2  0  0  0  0
 32 29  1  0  0  0  0
 32 31  1  0  0  0  0
 34 33  1  0  0  0  0
 35 34  1  0  0  0  0
 36 37  1  0  0  0  0
 37 35  1  0  0  0  0
M  END
>  <MODEL>
4

>  <REMARK>
 VINA RESULT:      -1.2      2.411      4.930
  Name = 
  14 active torsions:
  status: ('A' for Active; 'I' for Inactive)
    1  A    between atoms: C_1  and  C_12
    2  A    between atoms: C_1  and  C_36
    3  A    between atoms: O_3  and  C_32
    4  A    between atoms: N_6  and  C_37
    5  A    between atoms: C_8  and  C_35
    6  A    between atoms: C_10  and  C_14
    7  A    between atoms: C_14  and  C_27
    8  A    between atoms: C_17  and  C_26
    9  A    between atoms: C_17  and  C_33
   10  A    between atoms: C_22  and  N_24
   11  A    between atoms: C_26  and  O_34
   12  A    between atoms: C_27  and  C_37
   13  A    between atoms: C_29  and  C_36
   14  A    between atoms: C_33  and  C_36
                            x       y       z     vdW  Elec       q    Type
                         _______ _______ _______ _____ _____    ______ ____

>  <TORSDO>
F 14

$$$$
=
 OpenBabel11062409163D

 37 39  0  0  1  0  0  0  0  0999 V2000
  161.2190  208.1000  155.1410 C   0  0  0  0  0  2  0  0  0  0  0  0
  157.7880  210.9570  155.1090 C   0  0  0  0  0  3  0  0  0  0  0  0
  161.6920  208.9480  153.9540 C   0  0  2  0  0  3  0  0  0  0  0  0
  159.0830  210.4300  155.1070 C   0  0  0  0  0  0  0  0  0  0  0  0
  159.3860  209.3020  156.0360 C   0  0  0  0  0  2  0  0  0  0  0  0
  160.0540  210.9600  154.2300 C   0  0  0  0  0  0  0  0  0  0  0  0
  158.4100  212.5380  153.3890 C   0  0  0  0  0  3  0  0  0  0  0  0
  159.7650  208.1190  155.2730 N   0  0  0  0  0  0  0  0  0  0  0  0
  159.7050  212.0150  153.3800 C   0  0  0  0  0  3  0  0  0  0  0  0
  161.4740  210.4600  154.1710 C   0  0  1  0  0  3  0  0  0  0  0  0
  157.4450  212.0130  154.2520 C   0  0  0  0  0  0  0  0  0  0  0  0
  156.1570  212.5550  154.2370 O   0  0  0  0  0  0  0  0  0  0  0  0
  155.8960  213.9230  154.5220 C   0  0  0  0  0  1  0  0  0  0  0  0
  162.1960  208.9300  151.2330 S   0  0  0  0  0  1  0  0  0  0  0  0
  161.1030  208.4720  152.6170 C   0  0  1  0  0  3  0  0  0  0  0  0
  160.9100  206.9600  152.6120 C   0  0  0  0  0  2  0  0  0  0  0  0
  163.0610  206.1070  151.5290 C   0  0  0  0  0  1  0  0  0  0  0  0
  161.5490  206.3240  151.3830 C   0  0  2  0  0  3  0  0  0  0  0  0
  159.8340  206.4610  149.7780 O   0  0  0  0  0  0  0  0  0  0  0  0
  161.0870  206.9600  150.1280 N   0  0  0  0  0  0  0  0  0  0  0  0
  160.8680  206.0830  148.9840 C   0  0  2  0  0  0  0  0  0  0  0  0
  160.8630  206.7920  147.6450 C   0  0  0  0  0  1  0  0  0  0  0  0
  160.3300  203.6830  149.8460 C   0  0  0  0  0  1  0  0  0  0  0  0
  162.1120  204.1580  148.3970 O   0  0  0  0  0  0  0  0  0  0  0  0
  161.1900  204.6120  149.0530 C   0  0  0  0  0  0  0  0  0  0  0  0
  159.3190  206.9130  155.9790 C   0  0  0  0  0  2  0  0  0  0  0  0
  160.4600  205.9710  156.3640 C   0  0  0  0  0  1  0  0  0  0  0  0
  162.4690  211.1990  155.0840 C   0  0  1  0  0  3  0  0  0  0  0  0
  162.2360  210.9990  156.5570 C   0  0  0  0  0  0  0  0  0  0  0  0
  163.1250  210.2970  157.2610 C   0  0  0  0  0  2  0  0  0  0  0  0
  161.1210  213.1570  157.0660 C   0  0  0  0  0  1  0  0  0  0  0  0
  161.0850  211.6520  157.2610 C   0  0  0  0  0  2  0  0  0  0  0  0
  163.9190  210.9340  154.6930 C   0  0  0  0  0  2  0  0  0  0  0  0
  164.8620  211.6050  155.6740 C   0  0  0  0  0  2  0  0  0  0  0  0
  166.1770  211.9010  154.9850 C   0  0  0  0  0  2  0  0  0  0  0  0
  168.0310  212.7440  155.8310 C   0  0  0  0  0  1  0  0  0  0  0  0
  166.7170  213.0770  155.5020 O   0  0  0  0  0  0  0  0  0  0  0  0
  1  8  1  0  0  0  0
  3 15  1  6  0  0  0
  3 10  1  0  0  0  0
  3  1  1  0  0  0  0
  4  2  1  0  0  0  0
  4  5  1  0  0  0  0
  6  4  2  0  0  0  0
  7 11  1  0  0  0  0
  8 26  1  0  0  0  0
  8  5  1  0  0  0  0
  9  7  2  0  0  0  0
  9  6  1  0  0  0  0
 10  6  1  0  0  0  0
 10 28  1  1  0  0  0
 11  2  2  0  0  0  0
 12 11  1  0  0  0  0
 12 13  1  0  0  0  0
 15 14  1  6  0  0  0
 16 15  1  0  0  0  0
 18 17  1  1  0  0  0
 18 16  1  0  0  0  0
 19 20  1  0  0  0  0
 20 18  1  0  0  0  0
 21 22  1  6  0  0  0
 21 25  1  0  0  0  0
 21 19  1  0  0  0  0
 21 20  1  0  0  0  0
 24 25  2  0  0  0  0
 25 23  1  0  0  0  0
 26 27  1  0  0  0  0
 28 33  1  6  0  0  0
 28 29  1  0  0  0  0
 29 30  2  0  0  0  0
 29 32  1  0  0  0  0
 31 32  1  0  0  0  0
 33 34  1  0  0  0  0
 35 37  1  0  0  0  0
 35 34  1  0  0  0  0
 37 36  1  0  0  0  0
M  END
>  <MODEL>
5

>  <REMARK>
 VINA RESULT:      -0.2      1.968      5.342
  Name = 
  14 active torsions:
  status: ('A' for Active; 'I' for Inactive)
    1  A    between atoms: C_1  and  C_12
    2  A    between atoms: C_1  and  C_36
    3  A    between atoms: O_3  and  C_32
    4  A    between atoms: N_6  and  C_37
    5  A    between atoms: C_8  and  C_35
    6  A    between atoms: C_10  and  C_14
    7  A    between atoms: C_14  and  C_27
    8  A    between atoms: C_17  and  C_26
    9  A    between atoms: C_17  and  C_33
   10  A    between atoms: C_22  and  N_24
   11  A    between atoms: C_26  and  O_34
   12  A    between atoms: C_27  and  C_37
   13  A    between atoms: C_29  and  C_36
   14  A    between atoms: C_33  and  C_36
                            x       y       z     vdW  Elec       q    Type
                         _______ _______ _______ _____ _____    ______ ____

>  <TORSDO>
F 14

$$$$
=
 OpenBabel11062409163D

 37 39  0  0  1  0  0  0  0  0999 V2000
  162.0540  210.5980  152.1050 C   0  0  0  0  0  2  0  0  0  0  0  0
  161.7650  207.5840  148.8240 C   0  0  0  0  0  3  0  0  0  0  0  0
  160.8180  209.8600  152.6360 C   0  0  2  0  0  3  0  0  0  0  0  0
  161.8210  208.1740  150.0910 C   0  0  0  0  0  0  0  0  0  0  0  0
  162.8310  209.2470  150.3240 C   0  0  0  0  0  2  0  0  0  0  0  0
  160.9250  207.7540  151.0990 C   0  0  0  0  0  0  0  0  0  0  0  0
  159.9500  206.1610  149.5470 C   0  0  0  0  0  3  0  0  0  0  0  0
  162.1590  210.4980  150.6530 N   0  0  0  0  0  0  0  0  0  0  0  0
  159.9990  206.7460  150.8150 C   0  0  0  0  0  3  0  0  0  0  0  0
  160.9260  208.3270  152.4930 C   0  0  1  0  0  3  0  0  0  0  0  0
  160.8300  206.5750  148.5450 C   0  0  0  0  0  0  0  0  0  0  0  0
  160.7560  205.9730  147.2870 O   0  0  0  0  0  0  0  0  0  0  0  0
  161.2520  204.6660  147.0310 C   0  0  0  0  0  1  0  0  0  0  0  0
  158.1120  210.0840  153.1720 S   0  0  0  0  0  1  0  0  0  0  0  0
  159.5080  210.3990  152.0430 C   0  0  1  0  0  3  0  0  0  0  0  0
  159.6010  211.8970  151.7820 C   0  0  0  0  0  2  0  0  0  0  0  0
  157.6410  213.5230  151.9720 C   0  0  0  0  0  1  0  0  0  0  0  0
  158.6860  212.6810  152.7150 C   0  0  2  0  0  3  0  0  0  0  0  0
  159.7650  212.4460  154.7930 O   0  0  0  0  0  0  0  0  0  0  0  0
  159.4440  213.3610  153.7910 N   0  0  0  0  0  0  0  0  0  0  0  0
  158.8360  213.3810  155.1160 C   0  0  2  0  0  0  0  0  0  0  0  0
  159.3840  214.4510  156.0380 C   0  0  0  0  0  1  0  0  0  0  0  0
  156.2450  213.6650  155.1330 C   0  0  0  0  0  1  0  0  0  0  0  0
  157.3200  211.6460  155.6500 O   0  0  0  0  0  0  0  0  0  0  0  0
  157.4570  212.8200  155.3530 C   0  0  0  0  0  0  0  0  0  0  0  0
  162.9400  211.6270  150.1370 C   0  0  0  0  0  2  0  0  0  0  0  0
  162.5360  212.0580  148.7260 C   0  0  0  0  0  1  0  0  0  0  0  0
  161.8020  207.5750  153.5110 C   0  0  1  0  0  3  0  0  0  0  0  0
  161.2520  207.5490  154.9110 C   0  0  0  0  0  0  0  0  0  0  0  0
  160.0740  206.9630  155.1310 C   0  0  0  0  0  2  0  0  0  0  0  0
  161.8740  209.5820  156.1910 C   0  0  0  0  0  1  0  0  0  0  0  0
  162.0420  208.0780  156.0700 C   0  0  0  0  0  2  0  0  0  0  0  0
  162.1890  206.1830  153.0230 C   0  0  0  0  0  2  0  0  0  0  0  0
  161.2400  205.1420  153.5870 C   0  0  0  0  0  2  0  0  0  0  0  0
  160.8200  204.1950  152.4830 C   0  0  0  0  0  2  0  0  0  0  0  0
  161.5790  202.7830  150.9690 C   0  0  0  0  0  1  0  0  0  0  0  0
  161.9010  203.9660  151.6320 O   0  0  0  0  0  0  0  0  0  0  0  0
  1  3  1  0  0  0  0
  2  4  1  0  0  0  0
  3 15  1  6  0  0  0
  4  5  1  0  0  0  0
  4  6  2  0  0  0  0
  5  8  1  0  0  0  0
  6 10  1  0  0  0  0
  7  9  2  0  0  0  0
  8  1  1  0  0  0  0
  9  6  1  0  0  0  0
 10  3  1  0  0  0  0
 10 28  1  6  0  0  0
 11  2  2  0  0  0  0
 11  7  1  0  0  0  0
 12 11  1  0  0  0  0
 13 12  1  0  0  0  0
 15 14  1  1  0  0  0
 16 15  1  0  0  0  0
 16 18  1  0  0  0  0
 18 17  1  6  0  0  0
 18 20  1  0  0  0  0
 19 21  1  0  0  0  0
 20 19  1  0  0  0  0
 20 21  1  0  0  0  0
 21 25  1  0  0  0  0
 21 22  1  1  0  0  0
 23 25  1  0  0  0  0
 25 24  2  0  0  0  0
 26  8  1  0  0  0  0
 27 26  1  0  0  0  0
 28 33  1  6  0  0  0
 28 29  1  0  0  0  0
 29 30  2  0  0  0  0
 29 32  1  0  0  0  0
 32 31  1  0  0  0  0
 33 34  1  0  0  0  0
 35 34  1  0  0  0  0
 36 37  1  0  0  0  0
 37 35  1  0  0  0  0
M  END
>  <MODEL>
6

>  <REMARK>
 VINA RESULT:       0.4      2.383      7.971
  Name = 
  14 active torsions:
  status: ('A' for Active; 'I' for Inactive)
    1  A    between atoms: C_1  and  C_12
    2  A    between atoms: C_1  and  C_36
    3  A    between atoms: O_3  and  C_32
    4  A    between atoms: N_6  and  C_37
    5  A    between atoms: C_8  and  C_35
    6  A    between atoms: C_10  and  C_14
    7  A    between atoms: C_14  and  C_27
    8  A    between atoms: C_17  and  C_26
    9  A    between atoms: C_17  and  C_33
   10  A    between atoms: C_22  and  N_24
   11  A    between atoms: C_26  and  O_34
   12  A    between atoms: C_27  and  C_37
   13  A    between atoms: C_29  and  C_36
   14  A    between atoms: C_33  and  C_36
                            x       y       z     vdW  Elec       q    Type
                         _______ _______ _______ _____ _____    ______ ____

>  <TORSDO>
F 14

$$$$
