=
 OpenBabel11062410403D

 32 38  0  0  1  0  0  0  0  0999 V2000
  161.6300  203.6820  146.9810 C   0  0  0  0  0  2  0  0  0  0  0  0
  161.2300  207.4220  150.4020 C   0  0  0  0  0  0  0  0  0  0  0  0
  162.3130  211.5860  148.0790 C   0  0  0  0  0  3  0  0  0  0  0  0
  162.2480  212.2790  149.2900 C   0  0  0  0  0  3  0  0  0  0  0  0
  160.9590  207.8110  153.0260 C   0  0  0  0  0  0  0  0  0  0  0  0
  160.8890  206.6720  153.7440 C   0  0  0  0  0  0  0  0  0  0  0  0
  160.9310  205.3090  149.2140 C   0  0  0  0  0  0  0  0  0  0  0  0
  161.4720  207.3870  147.8740 C   0  0  0  0  0  3  0  0  0  0  0  0
  160.8170  209.2180  155.1470 C   0  0  0  0  0  0  0  0  0  0  0  0
  161.4890  205.1810  146.7470 C   0  0  0  0  0  2  0  0  0  0  0  0
  162.0850  210.2070  148.0450 C   0  0  0  0  0  3  0  0  0  0  0  0
  161.5360  208.1090  149.2000 C   0  0  0  0  0  0  0  0  0  0  0  0
  161.7950  209.5020  149.2250 C   0  0  0  0  0  0  0  0  0  0  0  0
  161.4420  209.5120  151.6170 C   0  0  0  0  0  0  0  0  0  0  0  0
  160.6460  208.1000  155.8570 C   0  0  0  0  0  3  0  0  0  0  0  0
  161.4140  205.9290  148.0020 N   0  0  0  0  0  0  0  0  0  0  0  0
  160.5410  206.7290  155.2190 C   0  0  0  0  0  3  0  0  0  0  0  0
  160.6670  203.8360  149.2830 C   0  0  0  0  0  2  0  0  0  0  0  0
  160.5040  203.2180  147.8930 C   0  0  2  0  0  3  0  0  0  0  0  0
  161.9580  211.5960  150.4730 C   0  0  0  0  0  3  0  0  0  0  0  0
  161.7350  210.2140  150.4490 C   0  0  0  0  0  0  0  0  0  0  0  0
  161.2730  210.0890  152.9090 N   0  0  0  0  0  0  0  0  0  0  0  0
  160.8640  206.0060  150.3430 C   0  0  0  0  0  3  0  0  0  0  0  0
  161.2290  205.0750  153.1060 Cl  0  0  0  0  0  0  0  0  0  0  0  0
  160.9040  210.5320  155.8390 C   0  0  0  0  0  1  0  0  0  0  0  0
  161.2460  208.1410  151.6150 C   0  0  0  0  0  0  0  0  0  0  0  0
  160.9730  209.1080  153.6950 C   0  0  0  0  0  0  0  0  0  0  0  0
  161.8960  199.7840  148.0480 C   0  0  0  0  0  2  0  0  0  0  0  0
  160.4350  201.6890  147.9340 C   0  0  0  0  0  3  0  0  0  0  0  0
  161.5490  199.9860  146.5890 C   0  0  0  0  0  2  0  0  0  0  0  0
  160.4630  201.0450  146.5530 C   0  0  0  0  0  2  0  0  0  0  0  0
  161.5920  201.1020  148.7170 C   0  0  0  0  0  2  0  0  0  0  0  0
  1 19  1  0  0  0  0
  2 26  2  0  0  0  0
  3  4  1  0  0  0  0
  4 20  2  0  0  0  0
  5 27  2  0  0  0  0
  5  6  1  0  0  0  0
  6 17  2  0  0  0  0
  7 18  1  0  0  0  0
  7 23  2  0  0  0  0
  8 16  1  0  0  0  0
  8 12  2  0  0  0  0
  9 25  1  0  0  0  0
  9 15  2  0  0  0  0
 10  1  1  0  0  0  0
 10 16  1  0  0  0  0
 11  3  2  0  0  0  0
 11 13  1  0  0  0  0
 12 13  1  0  0  0  0
 12  2  1  0  0  0  0
 13 21  2  0  0  0  0
 14 22  2  0  0  0  0
 16  7  1  0  0  0  0
 17 15  1  0  0  0  0
 19 29  1  1  0  0  0
 19 18  1  0  0  0  0
 21 20  1  0  0  0  0
 21 14  1  0  0  0  0
 22 27  1  0  0  0  0
 23  2  1  0  0  0  0
 24  6  1  0  0  0  0
 26 14  1  0  0  0  0
 26  5  1  0  0  0  0
 27  9  1  0  0  0  0
 28 32  1  0  0  0  0
 29 32  1  0  0  0  0
 30 28  1  0  0  0  0
 31 30  1  0  0  0  0
 31 29  1  0  0  0  0
M  END
>  <MODEL>
1

>  <REMARK>
 VINA RESULT:      -8.5      0.000      0.000
  Name = 
  1 active torsions:
  status: ('A' for Active; 'I' for Inactive)
    1  A    between atoms: C_10  and  C_24
                            x       y       z     vdW  Elec       q    Type
                         _______ _______ _______ _____ _____    ______ ____

>  <TORSDO>
F 1

$$$$
=
 OpenBabel11062410403D

 32 38  0  0  1  0  0  0  0  0999 V2000
  162.5930  204.8120  146.9590 C   0  0  0  0  0  2  0  0  0  0  0  0
  161.3210  208.2660  150.4670 C   0  0  0  0  0  0  0  0  0  0  0  0
  161.7420  212.6540  148.3490 C   0  0  0  0  0  3  0  0  0  0  0  0
  161.4830  213.2700  149.5750 C   0  0  0  0  0  3  0  0  0  0  0  0
  160.8390  208.4860  153.0800 C   0  0  0  0  0  0  0  0  0  0  0  0
  160.9420  207.3240  153.7550 C   0  0  0  0  0  0  0  0  0  0  0  0
  161.4840  206.1870  149.1950 C   0  0  0  0  0  0  0  0  0  0  0  0
  161.7040  208.3830  147.9580 C   0  0  0  0  0  3  0  0  0  0  0  0
  160.3230  209.7510  155.2310 C   0  0  0  0  0  0  0  0  0  0  0  0
  162.1910  206.2680  146.7650 C   0  0  0  0  0  2  0  0  0  0  0  0
  161.7750  211.2590  148.2570 C   0  0  0  0  0  3  0  0  0  0  0  0
  161.5600  209.0480  149.3080 C   0  0  0  0  0  0  0  0  0  0  0  0
  161.5560  210.4630  149.3930 C   0  0  0  0  0  0  0  0  0  0  0  0
  161.0760  210.3050  151.7580 C   0  0  0  0  0  0  0  0  0  0  0  0
  160.3230  208.5920  155.8940 C   0  0  0  0  0  3  0  0  0  0  0  0
  161.9100  206.9360  148.0360 N   0  0  0  0  0  0  0  0  0  0  0  0
  160.5090  207.2530  155.2070 C   0  0  0  0  0  3  0  0  0  0  0  0
  161.4930  204.6880  149.2010 C   0  0  0  0  0  2  0  0  0  0  0  0
  161.5240  204.1110  147.7850 C   0  0  2  0  0  3  0  0  0  0  0  0
  161.2590  212.4960  150.7150 C   0  0  0  0  0  3  0  0  0  0  0  0
  161.2980  211.0990  150.6340 C   0  0  0  0  0  0  0  0  0  0  0  0
  160.7330  210.7860  153.0550 N   0  0  0  0  0  0  0  0  0  0  0  0
  161.2270  206.8110  150.3400 C   0  0  0  0  0  3  0  0  0  0  0  0
  161.6050  205.8450  153.0890 Cl  0  0  0  0  0  0  0  0  0  0  0  0
  160.1270  211.0290  155.9700 C   0  0  0  0  0  1  0  0  0  0  0  0
  161.1370  208.9230  151.7000 C   0  0  0  0  0  0  0  0  0  0  0  0
  160.5760  209.7340  153.7890 C   0  0  0  0  0  0  0  0  0  0  0  0
  160.6220  200.5860  147.0650 C   0  0  0  0  0  2  0  0  0  0  0  0
  161.7370  202.5950  147.7720 C   0  0  0  0  0  3  0  0  0  0  0  0
  160.3260  200.7590  148.5390 C   0  0  0  0  0  2  0  0  0  0  0  0
  161.2050  201.8990  149.0190 C   0  0  0  0  0  2  0  0  0  0  0  0
  161.0550  201.9490  146.5820 C   0  0  0  0  0  2  0  0  0  0  0  0
  1 19  1  0  0  0  0
  2 26  2  0  0  0  0
  3  4  1  0  0  0  0
  4 20  2  0  0  0  0
  5  6  2  0  0  0  0
  5 27  1  0  0  0  0
  6 17  1  0  0  0  0
  7 18  1  0  0  0  0
  7 23  2  0  0  0  0
  8 16  1  0  0  0  0
  8 12  2  0  0  0  0
  9 15  1  0  0  0  0
  9 25  1  0  0  0  0
 10  1  1  0  0  0  0
 10 16  1  0  0  0  0
 11  3  2  0  0  0  0
 11 13  1  0  0  0  0
 12 13  1  0  0  0  0
 12  2  1  0  0  0  0
 13 21  2  0  0  0  0
 14 22  2  0  0  0  0
 16  7  1  0  0  0  0
 17 15  2  0  0  0  0
 19 29  1  1  0  0  0
 19 18  1  0  0  0  0
 21 20  1  0  0  0  0
 21 14  1  0  0  0  0
 22 27  1  0  0  0  0
 23  2  1  0  0  0  0
 24  6  1  0  0  0  0
 26 14  1  0  0  0  0
 26  5  1  0  0  0  0
 27  9  2  0  0  0  0
 28 30  1  0  0  0  0
 29 31  1  0  0  0  0
 30 31  1  0  0  0  0
 32 28  1  0  0  0  0
 32 29  1  0  0  0  0
M  END
>  <MODEL>
2

>  <REMARK>
 VINA RESULT:      -7.7      0.950      1.272
  Name = 
  1 active torsions:
  status: ('A' for Active; 'I' for Inactive)
    1  A    between atoms: C_10  and  C_24
                            x       y       z     vdW  Elec       q    Type
                         _______ _______ _______ _____ _____    ______ ____

>  <TORSDO>
F 1

$$$$
=
 OpenBabel11062410403D

 32 38  0  0  1  0  0  0  0  0999 V2000
  162.3000  212.5340  148.6330 C   0  0  0  0  0  2  0  0  0  0  0  0
  161.3690  207.7820  150.1840 C   0  0  0  0  0  0  0  0  0  0  0  0
  161.1770  207.9010  155.0690 C   0  0  0  0  0  3  0  0  0  0  0  0
  161.0720  206.5090  155.0990 C   0  0  0  0  0  3  0  0  0  0  0  0
  161.2840  205.2810  149.2650 C   0  0  0  0  0  0  0  0  0  0  0  0
  161.5640  205.1710  147.9510 C   0  0  0  0  0  0  0  0  0  0  0  0
  161.4650  209.8170  148.8360 C   0  0  0  0  0  0  0  0  0  0  0  0
  161.3510  210.0370  151.3540 C   0  0  0  0  0  3  0  0  0  0  0  0
  161.0270  202.7540  149.4750 C   0  0  0  0  0  0  0  0  0  0  0  0
  161.7820  212.0530  149.9820 C   0  0  0  0  0  2  0  0  0  0  0  0
  161.2840  208.5720  153.8470 C   0  0  0  0  0  3  0  0  0  0  0  0
  161.3760  208.5260  151.3910 C   0  0  0  0  0  0  0  0  0  0  0  0
  161.2950  207.8560  152.6380 C   0  0  0  0  0  0  0  0  0  0  0  0
  161.1970  205.7370  151.4780 C   0  0  0  0  0  0  0  0  0  0  0  0
  161.2040  202.6420  148.1560 C   0  0  0  0  0  3  0  0  0  0  0  0
  161.6590  210.5960  150.0370 N   0  0  0  0  0  0  0  0  0  0  0  0
  161.3660  203.8430  147.2450 C   0  0  0  0  0  3  0  0  0  0  0  0
  161.5710  210.4400  147.4770 C   0  0  0  0  0  2  0  0  0  0  0  0
  161.4190  211.9620  147.5330 C   0  0  2  0  0  3  0  0  0  0  0  0
  161.0770  205.7800  153.9070 C   0  0  0  0  0  3  0  0  0  0  0  0
  161.1910  206.4430  152.6800 C   0  0  0  0  0  0  0  0  0  0  0  0
  161.0290  204.3280  151.3460 N   0  0  0  0  0  0  0  0  0  0  0  0
  161.3490  208.4950  148.9060 C   0  0  0  0  0  3  0  0  0  0  0  0
  162.2090  206.4660  146.9620 Cl  0  0  0  0  0  0  0  0  0  0  0  0
  160.8670  201.5310  150.3090 C   0  0  0  0  0  1  0  0  0  0  0  0
  161.3360  206.3750  150.2570 C   0  0  0  0  0  0  0  0  0  0  0  0
  161.0550  204.0890  150.0750 C   0  0  0  0  0  0  0  0  0  0  0  0
  160.9500  214.4530  144.8260 C   0  0  0  0  0  2  0  0  0  0  0  0
  161.7230  212.6320  146.1900 C   0  0  0  0  0  3  0  0  0  0  0  0
  160.2840  213.1980  144.3040 C   0  0  0  0  0  2  0  0  0  0  0  0
  160.9420  212.0370  145.0250 C   0  0  0  0  0  2  0  0  0  0  0  0
  161.4030  214.1130  146.2250 C   0  0  0  0  0  2  0  0  0  0  0  0
  1 10  1  0  0  0  0
  2 26  2  0  0  0  0
  2 12  1  0  0  0  0
  3  4  1  0  0  0  0
  5 27  1  0  0  0  0
  5 26  1  0  0  0  0
  6  5  2  0  0  0  0
  7 23  2  0  0  0  0
  7 16  1  0  0  0  0
  8 12  2  0  0  0  0
  9 27  2  0  0  0  0
  9 25  1  0  0  0  0
 10 16  1  0  0  0  0
 11  3  2  0  0  0  0
 12 13  1  0  0  0  0
 13 21  2  0  0  0  0
 13 11  1  0  0  0  0
 14 21  1  0  0  0  0
 15  9  1  0  0  0  0
 16  8  1  0  0  0  0
 17  6  1  0  0  0  0
 17 15  2  0  0  0  0
 18 19  1  0  0  0  0
 18  7  1  0  0  0  0
 19 29  1  6  0  0  0
 19  1  1  0  0  0  0
 20  4  2  0  0  0  0
 21 20  1  0  0  0  0
 22 14  2  0  0  0  0
 23  2  1  0  0  0  0
 24  6  1  0  0  0  0
 26 14  1  0  0  0  0
 27 22  1  0  0  0  0
 28 32  1  0  0  0  0
 29 32  1  0  0  0  0
 30 28  1  0  0  0  0
 30 31  1  0  0  0  0
 31 29  1  0  0  0  0
M  END
>  <MODEL>
3

>  <REMARK>
 VINA RESULT:      -7.5      2.166      7.833
  Name = 
  1 active torsions:
  status: ('A' for Active; 'I' for Inactive)
    1  A    between atoms: C_10  and  C_24
                            x       y       z     vdW  Elec       q    Type
                         _______ _______ _______ _____ _____    ______ ____

>  <TORSDO>
F 1

$$$$
=
 OpenBabel11062410403D

 32 38  0  0  1  0  0  0  0  0999 V2000
  162.1490  212.7450  148.8460 C   0  0  0  0  0  2  0  0  0  0  0  0
  161.3660  207.8160  149.8170 C   0  0  0  0  0  0  0  0  0  0  0  0
  161.2280  207.3370  154.6820 C   0  0  0  0  0  3  0  0  0  0  0  0
  161.1610  205.9490  154.5430 C   0  0  0  0  0  3  0  0  0  0  0  0
  161.3380  205.4430  148.6020 C   0  0  0  0  0  0  0  0  0  0  0  0
  161.6060  205.5010  147.2820 C   0  0  0  0  0  0  0  0  0  0  0  0
  161.3910  210.0000  148.7250 C   0  0  0  0  0  0  0  0  0  0  0  0
  161.3000  209.9110  151.2520 C   0  0  0  0  0  3  0  0  0  0  0  0
  161.1530  202.9030  148.5070 C   0  0  0  0  0  0  0  0  0  0  0  0
  161.6590  212.0900  150.1300 C   0  0  0  0  0  2  0  0  0  0  0  0
  161.3020  208.1540  153.5490 C   0  0  0  0  0  3  0  0  0  0  0  0
  161.3660  208.4080  151.1050 C   0  0  0  0  0  0  0  0  0  0  0  0
  161.3180  207.5910  152.2620 C   0  0  0  0  0  0  0  0  0  0  0  0
  161.2650  205.6250  150.8550 C   0  0  0  0  0  0  0  0  0  0  0  0
  161.3170  202.9570  147.1820 C   0  0  0  0  0  3  0  0  0  0  0  0
  161.5770  210.6340  150.0100 N   0  0  0  0  0  0  0  0  0  0  0  0
  161.4350  204.2630  146.4220 C   0  0  0  0  0  3  0  0  0  0  0  0
  161.4630  210.7870  147.4510 C   0  0  0  0  0  2  0  0  0  0  0  0
  161.2710  212.2850  147.6920 C   0  0  2  0  0  3  0  0  0  0  0  0
  161.1720  205.3710  153.2720 C   0  0  0  0  0  3  0  0  0  0  0  0
  161.2540  206.1800  152.1330 C   0  0  0  0  0  0  0  0  0  0  0  0
  161.1330  204.2380  150.5540 N   0  0  0  0  0  0  0  0  0  0  0  0
  161.3120  208.6780  148.6350 C   0  0  0  0  0  3  0  0  0  0  0  0
  162.2040  206.9240  146.4530 Cl  0  0  0  0  0  0  0  0  0  0  0  0
  161.0360  201.5840  149.1870 C   0  0  0  0  0  1  0  0  0  0  0  0
  161.3720  206.4100  149.7190 C   0  0  0  0  0  0  0  0  0  0  0  0
  161.1510  204.1560  149.2640 C   0  0  0  0  0  0  0  0  0  0  0  0
  161.7930  212.8490  144.0640 C   0  0  0  0  0  2  0  0  0  0  0  0
  161.5410  213.1220  146.4380 C   0  0  0  0  0  3  0  0  0  0  0  0
  163.1860  212.8730  144.6540 C   0  0  0  0  0  2  0  0  0  0  0  0
  163.0230  213.2610  146.1120 C   0  0  0  0  0  2  0  0  0  0  0  0
  160.8750  212.5210  145.2160 C   0  0  0  0  0  2  0  0  0  0  0  0
  1 10  1  0  0  0  0
  2 12  1  0  0  0  0
  4  3  1  0  0  0  0
  5 27  1  0  0  0  0
  5 26  1  0  0  0  0
  6  5  2  0  0  0  0
  7 16  1  0  0  0  0
  9 25  1  0  0  0  0
  9 27  2  0  0  0  0
 11  3  2  0  0  0  0
 12  8  2  0  0  0  0
 12 13  1  0  0  0  0
 13 11  1  0  0  0  0
 14 21  1  0  0  0  0
 15  9  1  0  0  0  0
 16 10  1  0  0  0  0
 16  8  1  0  0  0  0
 17 15  2  0  0  0  0
 17  6  1  0  0  0  0
 18 19  1  0  0  0  0
 18  7  1  0  0  0  0
 19 29  1  6  0  0  0
 19  1  1  0  0  0  0
 20  4  2  0  0  0  0
 21 13  2  0  0  0  0
 21 20  1  0  0  0  0
 22 14  2  0  0  0  0
 23  7  2  0  0  0  0
 23  2  1  0  0  0  0
 24  6  1  0  0  0  0
 26  2  2  0  0  0  0
 26 14  1  0  0  0  0
 27 22  1  0  0  0  0
 28 30  1  0  0  0  0
 28 32  1  0  0  0  0
 30 31  1  0  0  0  0
 31 29  1  0  0  0  0
 32 29  1  0  0  0  0
M  END
>  <MODEL>
4

>  <REMARK>
 VINA RESULT:      -7.4      2.117      7.943
  Name = 
  1 active torsions:
  status: ('A' for Active; 'I' for Inactive)
    1  A    between atoms: C_10  and  C_24
                            x       y       z     vdW  Elec       q    Type
                         _______ _______ _______ _____ _____    ______ ____

>  <TORSDO>
F 1

$$$$
=
 OpenBabel11062410403D

 32 38  0  0  1  0  0  0  0  0999 V2000
  161.7750  213.8950  148.6870 C   0  0  0  0  0  2  0  0  0  0  0  0
  161.1900  209.3140  150.8140 C   0  0  0  0  0  0  0  0  0  0  0  0
  160.9270  210.0210  155.6450 C   0  0  0  0  0  3  0  0  0  0  0  0
  160.9290  208.6390  155.8470 C   0  0  0  0  0  3  0  0  0  0  0  0
  161.3080  206.7190  150.2120 C   0  0  0  0  0  0  0  0  0  0  0  0
  161.6120  206.4700  148.9230 C   0  0  0  0  0  0  0  0  0  0  0  0
  161.1480  211.1680  149.2240 C   0  0  0  0  0  0  0  0  0  0  0  0
  160.9850  211.6880  151.6950 C   0  0  0  0  0  3  0  0  0  0  0  0
  161.2420  204.2250  150.7340 C   0  0  0  0  0  0  0  0  0  0  0  0
  161.2770  213.5460  150.0830 C   0  0  0  0  0  2  0  0  0  0  0  0
  160.9980  210.5410  154.3500 C   0  0  0  0  0  3  0  0  0  0  0  0
  161.1240  210.2000  151.9190 C   0  0  0  0  0  0  0  0  0  0  0  0
  161.0790  209.6850  153.2390 C   0  0  0  0  0  0  0  0  0  0  0  0
  161.1580  207.4380  152.3510 C   0  0  0  0  0  0  0  0  0  0  0  0
  161.4430  203.9660  149.4400 C   0  0  0  0  0  3  0  0  0  0  0  0
  161.2650  212.1020  150.3190 N   0  0  0  0  0  0  0  0  0  0  0  0
  161.5250  205.0540  148.3870 C   0  0  0  0  0  3  0  0  0  0  0  0
  161.2220  211.6250  147.7980 C   0  0  0  0  0  2  0  0  0  0  0  0
  160.9540  213.1250  147.6640 C   0  0  2  0  0  3  0  0  0  0  0  0
  161.0040  207.7710  154.7560 C   0  0  0  0  0  3  0  0  0  0  0  0
  161.0830  208.2840  153.4560 C   0  0  0  0  0  0  0  0  0  0  0  0
  161.0990  206.0140  152.3950 N   0  0  0  0  0  0  0  0  0  0  0  0
  161.1320  209.8600  149.4560 C   0  0  0  0  0  3  0  0  0  0  0  0
  162.1690  207.6790  147.7830 Cl  0  0  0  0  0  0  0  0  0  0  0  0
  161.1650  203.1070  151.7130 C   0  0  0  0  0  1  0  0  0  0  0  0
  161.2640  207.9280  151.0610 C   0  0  0  0  0  0  0  0  0  0  0  0
  161.1600  205.6230  151.1640 C   0  0  0  0  0  0  0  0  0  0  0  0
  161.6290  212.8180  144.0300 C   0  0  0  0  0  2  0  0  0  0  0  0
  161.2240  213.6460  146.2490 C   0  0  0  0  0  3  0  0  0  0  0  0
  162.9800  213.1180  144.6410 C   0  0  0  0  0  2  0  0  0  0  0  0
  162.7050  213.8390  145.9480 C   0  0  0  0  0  2  0  0  0  0  0  0
  160.6790  212.7000  145.1970 C   0  0  0  0  0  2  0  0  0  0  0  0
  1 10  1  0  0  0  0
  2 26  2  0  0  0  0
  2 12  1  0  0  0  0
  3  4  1  0  0  0  0
  5 26  1  0  0  0  0
  5 27  1  0  0  0  0
  6  5  2  0  0  0  0
  7 23  2  0  0  0  0
  7 16  1  0  0  0  0
  8 12  2  0  0  0  0
  9 27  2  0  0  0  0
  9 25  1  0  0  0  0
 10 16  1  0  0  0  0
 11  3  2  0  0  0  0
 12 13  1  0  0  0  0
 13 21  2  0  0  0  0
 13 11  1  0  0  0  0
 14 22  2  0  0  0  0
 14 21  1  0  0  0  0
 15  9  1  0  0  0  0
 16  8  1  0  0  0  0
 17  6  1  0  0  0  0
 17 15  2  0  0  0  0
 18  7  1  0  0  0  0
 19 29  1  6  0  0  0
 19 18  1  0  0  0  0
 19  1  1  0  0  0  0
 20  4  2  0  0  0  0
 21 20  1  0  0  0  0
 23  2  1  0  0  0  0
 24  6  1  0  0  0  0
 26 14  1  0  0  0  0
 27 22  1  0  0  0  0
 28 30  1  0  0  0  0
 28 32  1  0  0  0  0
 30 31  1  0  0  0  0
 31 29  1  0  0  0  0
 32 29  1  0  0  0  0
M  END
>  <MODEL>
5

>  <REMARK>
 VINA RESULT:      -6.2      2.378      7.666
  Name = 
  1 active torsions:
  status: ('A' for Active; 'I' for Inactive)
    1  A    between atoms: C_10  and  C_24
                            x       y       z     vdW  Elec       q    Type
                         _______ _______ _______ _____ _____    ______ ____

>  <TORSDO>
F 1

$$$$
=
 OpenBabel11062410403D

 32 38  0  0  1  0  0  0  0  0999 V2000
  162.2990  210.9520  150.0180 C   0  0  0  0  0  2  0  0  0  0  0  0
  161.2700  206.0460  149.1660 C   0  0  0  0  0  0  0  0  0  0  0  0
  160.8940  203.8980  153.5430 C   0  0  0  0  0  3  0  0  0  0  0  0
  160.7770  202.6530  152.9220 C   0  0  0  0  0  3  0  0  0  0  0  0
  161.1990  204.2550  147.1910 C   0  0  0  0  0  0  0  0  0  0  0  0
  161.5270  204.7580  145.9850 C   0  0  0  0  0  0  0  0  0  0  0  0
  161.4340  208.4700  148.9160 C   0  0  0  0  0  0  0  0  0  0  0  0
  161.2260  207.5040  151.2450 C   0  0  0  0  0  3  0  0  0  0  0  0
  160.9130  201.9240  146.2010 C   0  0  0  0  0  0  0  0  0  0  0  0
  161.7250  209.9150  150.9750 C   0  0  0  0  0  2  0  0  0  0  0  0
  161.0530  205.0550  152.7740 C   0  0  0  0  0  3  0  0  0  0  0  0
  161.2370  206.1470  150.5800 C   0  0  0  0  0  0  0  0  0  0  0  0
  161.1030  204.9790  151.3720 C   0  0  0  0  0  0  0  0  0  0  0  0
  161.0320  203.6390  149.3610 C   0  0  0  0  0  0  0  0  0  0  0  0
  161.1380  202.4300  144.9860 C   0  0  0  0  0  3  0  0  0  0  0  0
  161.5880  208.6010  150.3460 N   0  0  0  0  0  0  0  0  0  0  0  0
  161.3450  203.9120  144.7390 C   0  0  0  0  0  3  0  0  0  0  0  0
  161.5960  209.6480  148.0030 C   0  0  0  0  0  2  0  0  0  0  0  0
  161.4550  210.9740  148.7520 C   0  0  2  0  0  3  0  0  0  0  0  0
  160.8210  202.5580  151.5300 C   0  0  0  0  0  3  0  0  0  0  0  0
  160.9870  203.7100  150.7520 C   0  0  0  0  0  0  0  0  0  0  0  0
  160.8570  202.4550  148.5870 N   0  0  0  0  0  0  0  0  0  0  0  0
  161.3050  207.2690  148.3620 C   0  0  0  0  0  3  0  0  0  0  0  0
  162.2200  206.3470  145.7270 Cl  0  0  0  0  0  0  0  0  0  0  0  0
  160.7110  200.4590  146.3700 C   0  0  0  0  0  1  0  0  0  0  0  0
  161.2230  204.7650  148.5780 C   0  0  0  0  0  0  0  0  0  0  0  0
  160.9290  202.8300  147.3510 C   0  0  0  0  0  0  0  0  0  0  0  0
  163.5660  213.8090  147.6270 C   0  0  0  0  0  2  0  0  0  0  0  0
  161.8160  212.1820  147.8820 C   0  0  0  0  0  3  0  0  0  0  0  0
  162.4850  214.4520  148.4680 C   0  0  0  0  0  2  0  0  0  0  0  0
  161.3010  213.5040  148.4380 C   0  0  0  0  0  2  0  0  0  0  0  0
  163.3160  212.3230  147.7240 C   0  0  0  0  0  2  0  0  0  0  0  0
  1 10  1  0  0  0  0
  2 12  1  0  0  0  0
  4  3  1  0  0  0  0
  5 27  1  0  0  0  0
  5 26  1  0  0  0  0
  6  5  2  0  0  0  0
  7 16  1  0  0  0  0
  9 25  1  0  0  0  0
  9 27  2  0  0  0  0
 11  3  2  0  0  0  0
 12  8  2  0  0  0  0
 12 13  1  0  0  0  0
 13 11  1  0  0  0  0
 14 21  1  0  0  0  0
 15  9  1  0  0  0  0
 16 10  1  0  0  0  0
 16  8  1  0  0  0  0
 17 15  2  0  0  0  0
 17  6  1  0  0  0  0
 18 19  1  0  0  0  0
 18  7  1  0  0  0  0
 19 29  1  6  0  0  0
 19  1  1  0  0  0  0
 20  4  2  0  0  0  0
 21 13  2  0  0  0  0
 21 20  1  0  0  0  0
 22 14  2  0  0  0  0
 23  7  2  0  0  0  0
 23  2  1  0  0  0  0
 24  6  1  0  0  0  0
 26  2  2  0  0  0  0
 26 14  1  0  0  0  0
 27 22  1  0  0  0  0
 28 32  1  0  0  0  0
 28 30  1  0  0  0  0
 29 31  1  0  0  0  0
 31 30  1  0  0  0  0
 32 29  1  0  0  0  0
M  END
>  <MODEL>
6

>  <REMARK>
 VINA RESULT:      -5.7      2.434      8.741
  Name = 
  1 active torsions:
  status: ('A' for Active; 'I' for Inactive)
    1  A    between atoms: C_10  and  C_24
                            x       y       z     vdW  Elec       q    Type
                         _______ _______ _______ _____ _____    ______ ____

>  <TORSDO>
F 1

$$$$
=
 OpenBabel11062410403D

 32 38  0  0  1  0  0  0  0  0999 V2000
  161.5740  208.7870  154.5220 C   0  0  0  0  0  2  0  0  0  0  0  0
  161.0090  205.8460  150.4130 C   0  0  0  0  0  0  0  0  0  0  0  0
  161.2880  201.2100  151.9420 C   0  0  0  0  0  3  0  0  0  0  0  0
  161.2480  200.7710  150.6170 C   0  0  0  0  0  3  0  0  0  0  0  0
  160.9460  205.9940  147.7510 C   0  0  0  0  0  0  0  0  0  0  0  0
  161.1010  207.2430  147.2690 C   0  0  0  0  0  0  0  0  0  0  0  0
  160.8840  207.7240  151.9690 C   0  0  0  0  0  0  0  0  0  0  0  0
  161.0050  205.3780  152.9100 C   0  0  0  0  0  3  0  0  0  0  0  0
  160.8230  205.0400  145.3910 C   0  0  0  0  0  0  0  0  0  0  0  0
  161.2100  207.3100  154.4460 C   0  0  0  0  0  2  0  0  0  0  0  0
  161.2460  202.5780  152.2310 C   0  0  0  0  0  3  0  0  0  0  0  0
  161.1000  204.9120  151.4750 C   0  0  0  0  0  0  0  0  0  0  0  0
  161.1700  203.5240  151.1960 C   0  0  0  0  0  0  0  0  0  0  0  0
  161.0540  204.0090  148.8300 C   0  0  0  0  0  0  0  0  0  0  0  0
  160.8750  206.2820  144.9040 C   0  0  0  0  0  3  0  0  0  0  0  0
  161.1580  206.8260  153.0670 N   0  0  0  0  0  0  0  0  0  0  0  0
  160.8950  207.5120  145.7910 C   0  0  0  0  0  3  0  0  0  0  0  0
  160.8290  209.2080  152.1730 C   0  0  0  0  0  2  0  0  0  0  0  0
  160.6160  209.5770  153.6420 C   0  0  2  0  0  3  0  0  0  0  0  0
  161.1700  201.6960  149.5750 C   0  0  0  0  0  3  0  0  0  0  0  0
  161.1340  203.0670  149.8540 C   0  0  0  0  0  0  0  0  0  0  0  0
  160.9370  203.7120  147.4400 N   0  0  0  0  0  0  0  0  0  0  0  0
  160.8340  207.2660  150.7240 C   0  0  0  0  0  3  0  0  0  0  0  0
  161.5890  208.6240  148.2300 Cl  0  0  0  0  0  0  0  0  0  0  0  0
  160.7990  203.8780  144.4610 C   0  0  0  0  0  1  0  0  0  0  0  0
  161.0460  205.3690  149.0870 C   0  0  0  0  0  0  0  0  0  0  0  0
  160.8500  204.8550  146.8430 C   0  0  0  0  0  0  0  0  0  0  0  0
  159.7060  212.8410  155.1500 C   0  0  0  0  0  2  0  0  0  0  0  0
  160.7580  211.0800  153.8980 C   0  0  0  0  0  3  0  0  0  0  0  0
  159.1470  212.9040  153.7460 C   0  0  0  0  0  2  0  0  0  0  0  0
  159.9720  211.9380  152.9160 C   0  0  0  0  0  2  0  0  0  0  0  0
  160.2840  211.4530  155.2890 C   0  0  0  0  0  2  0  0  0  0  0  0
  2 23  1  0  0  0  0
  2 12  1  0  0  0  0
  3 11  1  0  0  0  0
  4  3  2  0  0  0  0
  5 26  1  0  0  0  0
  6  5  1  0  0  0  0
  6 24  1  0  0  0  0
  7 18  1  0  0  0  0
  7 16  1  0  0  0  0
  8 16  1  0  0  0  0
  9 27  1  0  0  0  0
 10  1  1  0  0  0  0
 12  8  2  0  0  0  0
 13 12  1  0  0  0  0
 13 11  2  0  0  0  0
 14 26  1  0  0  0  0
 14 21  1  0  0  0  0
 15  9  2  0  0  0  0
 15 17  1  0  0  0  0
 16 10  1  0  0  0  0
 17  6  2  0  0  0  0
 18 19  1  0  0  0  0
 19 29  1  6  0  0  0
 19  1  1  0  0  0  0
 20 21  2  0  0  0  0
 20  4  1  0  0  0  0
 21 13  1  0  0  0  0
 22 14  2  0  0  0  0
 23  7  2  0  0  0  0
 25  9  1  0  0  0  0
 26  2  2  0  0  0  0
 27 22  1  0  0  0  0
 27  5  2  0  0  0  0
 28 32  1  0  0  0  0
 29 32  1  0  0  0  0
 30 28  1  0  0  0  0
 31 30  1  0  0  0  0
 31 29  1  0  0  0  0
M  END
>  <MODEL>
7

>  <REMARK>
 VINA RESULT:      -5.7      2.360      8.937
  Name = 
  1 active torsions:
  status: ('A' for Active; 'I' for Inactive)
    1  A    between atoms: C_10  and  C_24
                            x       y       z     vdW  Elec       q    Type
                         _______ _______ _______ _____ _____    ______ ____

>  <TORSDO>
F 1

$$$$
