=
 OpenBabel11062407453D

 34 39  0  0  1  0  0  0  0  0999 V2000
  161.5910  204.5730  150.8350 C   0  0  0  0  0  0  0  0  0  0  0  0
  160.6890  205.5830  148.8310 C   0  0  0  0  0  0  0  0  0  0  0  0
  161.2160  207.0390  150.8750 C   0  0  0  0  0  0  0  0  0  0  0  0
  161.3170  209.4550  151.0230 C   0  0  0  0  0  0  0  0  0  0  0  0
  161.2300  203.2540  148.8800 N   0  0  0  0  0  0  0  0  0  0  0  0
  160.7460  204.3320  148.2110 C   0  0  0  0  0  3  0  0  0  0  0  0
  162.0960  208.5890  148.6420 S   0  0  0  0  0  0  0  0  0  0  0  0
  161.2150  205.7380  150.1330 C   0  0  0  0  0  0  0  0  0  0  0  0
  161.6500  210.7080  150.3130 C   0  0  0  0  0  2  0  0  0  0  0  0
  161.6290  203.3440  150.1740 C   0  0  0  0  0  3  0  0  0  0  0  0
  161.0510  206.9870  152.2790 C   0  0  0  0  0  0  0  0  0  0  0  0
  161.9340  204.6350  152.2900 C   0  0  0  0  0  2  0  0  0  0  0  0
  160.0460  206.6210  148.1710 O   0  0  0  0  0  1  0  0  0  0  0  0
  161.0140  209.4090  152.3800 C   0  0  0  0  0  3  0  0  0  0  0  0
  160.8660  208.1740  153.0310 C   0  0  0  0  0  0  0  0  0  0  0  0
  162.5250  210.2990  149.1360 C   0  0  2  0  0  3  0  0  0  0  0  0
  161.4180  208.3010  150.2720 C   0  0  0  0  0  0  0  0  0  0  0  0
  161.1940  205.7180  152.9330 N   0  0  0  0  0  2  0  0  0  0  0  0
  160.0800  209.3440  156.5640 C   0  0  0  0  0  0  0  0  0  0  0  0
  160.0840  208.1350  157.2610 C   0  0  0  0  0  3  0  0  0  0  0  0
  160.5770  208.1670  154.4900 C   0  0  0  0  0  0  0  0  0  0  0  0
  160.3380  206.9400  156.5830 C   0  0  0  0  0  3  0  0  0  0  0  0
  160.3290  209.3600  155.1890 C   0  0  0  0  0  3  0  0  0  0  0  0
  160.5860  206.9570  155.2070 C   0  0  0  0  0  3  0  0  0  0  0  0
  159.8380  210.5040  157.2210 F   0  0  0  0  0  0  0  0  0  0  0  0
  162.3180  211.2410  147.9990 C   0  0  0  0  0  3  0  0  0  0  0  0
  161.4150  212.1510  148.0660 N   0  0  0  0  0  0  0  0  0  0  0  0
  161.6320  212.4130  145.6520 C   0  0  0  0  0  2  0  0  0  0  0  0
  161.2100  213.0640  146.9740 C   0  0  1  0  0  3  0  0  0  0  0  0
  161.3760  213.3460  144.4680 C   0  0  1  0  0  3  0  0  0  0  0  0
  159.9150  213.7990  144.4380 C   0  0  0  0  0  2  0  0  0  0  0  0
  159.5050  214.4350  145.7660 C   0  0  0  0  0  2  0  0  0  0  0  0
  159.7380  213.4580  146.9120 C   0  0  0  0  0  2  0  0  0  0  0  0
  162.2260  214.4530  144.5300 O   0  0  0  0  0  1  0  0  0  0  0  0
  1 12  1  0  0  0  0
  2  8  1  0  0  0  0
  3 11  1  0  0  0  0
  4 14  2  0  0  0  0
  5 10  2  0  0  0  0
  6  2  2  0  0  0  0
  6  5  1  0  0  0  0
  7 16  1  0  0  0  0
  7 17  1  0  0  0  0
  8  1  2  0  0  0  0
  8  3  1  0  0  0  0
  9  4  1  0  0  0  0
 10  1  1  0  0  0  0
 11 18  1  0  0  0  0
 11 15  2  0  0  0  0
 12 18  1  0  0  0  0
 13  2  1  0  0  0  0
 14 15  1  0  0  0  0
 15 21  1  0  0  0  0
 16 26  1  6  0  0  0
 16  9  1  0  0  0  0
 17  3  2  0  0  0  0
 17  4  1  0  0  0  0
 19 25  1  0  0  0  0
 19 20  1  0  0  0  0
 21 23  1  0  0  0  0
 21 24  2  0  0  0  0
 22 20  2  0  0  0  0
 23 19  2  0  0  0  0
 24 22  1  0  0  0  0
 26 27  2  0  0  0  0
 28 29  1  0  0  0  0
 29 27  1  1  0  0  0
 30 34  1  1  0  0  0
 30 28  1  0  0  0  0
 31 30  1  0  0  0  0
 31 32  1  0  0  0  0
 32 33  1  0  0  0  0
 33 29  1  0  0  0  0
M  END
>  <MODEL>
1

>  <REMARK>
 VINA RESULT:      -7.6      0.000      0.000
  Name = 
  3 active torsions:
  status: ('A' for Active; 'I' for Inactive)
    1  A    between atoms: C_3  and  C_29
    2  A    between atoms: C_12  and  C_28
    3  A    between atoms: C_13  and  N_17
                            x       y       z     vdW  Elec       q    Type
                         _______ _______ _______ _____ _____    ______ ____

>  <TORSDO>
F 3

$$$$
=
 OpenBabel11062407453D

 34 39  0  0  1  0  0  0  0  0999 V2000
  161.5480  205.3450  152.1070 C   0  0  0  0  0  0  0  0  0  0  0  0
  160.7370  205.7600  149.8670 C   0  0  0  0  0  0  0  0  0  0  0  0
  161.1290  207.7210  151.4720 C   0  0  0  0  0  0  0  0  0  0  0  0
  161.1800  210.0920  150.9760 C   0  0  0  0  0  0  0  0  0  0  0  0
  161.3150  203.5450  150.5590 N   0  0  0  0  0  0  0  0  0  0  0  0
  160.8490  204.3920  149.6060 C   0  0  0  0  0  3  0  0  0  0  0  0
  162.1010  208.6500  148.9510 S   0  0  0  0  0  0  0  0  0  0  0  0
  161.1900  206.2710  151.1040 C   0  0  0  0  0  0  0  0  0  0  0  0
  161.5300  211.1220  149.9750 C   0  0  0  0  0  2  0  0  0  0  0  0
  161.6420  203.9870  151.8000 C   0  0  0  0  0  3  0  0  0  0  0  0
  160.8900  208.0370  152.8300 C   0  0  0  0  0  0  0  0  0  0  0  0
  161.8110  205.8020  153.5080 C   0  0  0  0  0  2  0  0  0  0  0  0
  160.1120  206.5660  148.9250 O   0  0  0  0  0  1  0  0  0  0  0  0
  160.8060  210.3980  152.2810 C   0  0  0  0  0  3  0  0  0  0  0  0
  160.6450  209.3760  153.2290 C   0  0  0  0  0  0  0  0  0  0  0  0
  162.4730  210.4420  148.9910 C   0  0  2  0  0  3  0  0  0  0  0  0
  161.3410  208.7830  150.5650 C   0  0  0  0  0  0  0  0  0  0  0  0
  161.0200  206.9930  153.8040 N   0  0  0  0  0  2  0  0  0  0  0  0
  158.7650  210.8050  156.2110 C   0  0  0  0  0  0  0  0  0  0  0  0
  159.6300  210.4840  157.2600 C   0  0  0  0  0  3  0  0  0  0  0  0
  160.2780  209.7460  154.6220 C   0  0  0  0  0  0  0  0  0  0  0  0
  160.8200  209.8020  156.9980 C   0  0  0  0  0  3  0  0  0  0  0  0
  159.0900  210.4420  154.9010 C   0  0  0  0  0  3  0  0  0  0  0  0
  161.1430  209.4380  155.6870 C   0  0  0  0  0  3  0  0  0  0  0  0
  157.6130  211.4710  156.4630 F   0  0  0  0  0  0  0  0  0  0  0  0
  162.3100  211.0430  147.6370 C   0  0  0  0  0  3  0  0  0  0  0  0
  161.2360  211.6740  147.3310 N   0  0  0  0  0  0  0  0  0  0  0  0
  159.5850  212.3420  145.6660 C   0  0  0  0  0  2  0  0  0  0  0  0
  161.0720  212.2580  146.0260 C   0  0  1  0  0  3  0  0  0  0  0  0
  159.3820  213.0060  144.3030 C   0  0  1  0  0  3  0  0  0  0  0  0
  160.0560  214.3790  144.2610 C   0  0  0  0  0  2  0  0  0  0  0  0
  161.5340  214.2810  144.6340 C   0  0  0  0  0  2  0  0  0  0  0  0
  161.6900  213.6530  146.0140 C   0  0  0  0  0  2  0  0  0  0  0  0
  159.8800  212.1900  143.2860 O   0  0  0  0  0  1  0  0  0  0  0  0
  1 12  1  0  0  0  0
  2  8  1  0  0  0  0
  3 11  1  0  0  0  0
  4 14  2  0  0  0  0
  5 10  2  0  0  0  0
  6  2  2  0  0  0  0
  6  5  1  0  0  0  0
  7 16  1  0  0  0  0
  7 17  1  0  0  0  0
  8  3  1  0  0  0  0
  8  1  2  0  0  0  0
  9  4  1  0  0  0  0
 10  1  1  0  0  0  0
 11 15  2  0  0  0  0
 11 18  1  0  0  0  0
 12 18  1  0  0  0  0
 13  2  1  0  0  0  0
 14 15  1  0  0  0  0
 15 21  1  0  0  0  0
 16 26  1  6  0  0  0
 16  9  1  0  0  0  0
 17  4  1  0  0  0  0
 17  3  2  0  0  0  0
 19 25  1  0  0  0  0
 19 20  1  0  0  0  0
 21 23  1  0  0  0  0
 21 24  2  0  0  0  0
 22 20  2  0  0  0  0
 23 19  2  0  0  0  0
 24 22  1  0  0  0  0
 27 26  2  0  0  0  0
 28 29  1  0  0  0  0
 29 27  1  1  0  0  0
 30 34  1  6  0  0  0
 30 28  1  0  0  0  0
 31 30  1  0  0  0  0
 31 32  1  0  0  0  0
 32 33  1  0  0  0  0
 33 29  1  0  0  0  0
M  END
>  <MODEL>
2

>  <REMARK>
 VINA RESULT:      -7.2      1.397      1.669
  Name = 
  3 active torsions:
  status: ('A' for Active; 'I' for Inactive)
    1  A    between atoms: C_3  and  C_29
    2  A    between atoms: C_12  and  C_28
    3  A    between atoms: C_13  and  N_17
                            x       y       z     vdW  Elec       q    Type
                         _______ _______ _______ _____ _____    ______ ____

>  <TORSDO>
F 3

$$$$
=
 OpenBabel11062407453D

 34 39  0  0  1  0  0  0  0  0999 V2000
  161.3700  207.1490  153.7730 C   0  0  0  0  0  0  0  0  0  0  0  0
  160.9430  206.9180  151.4040 C   0  0  0  0  0  0  0  0  0  0  0  0
  160.7420  209.2160  152.5240 C   0  0  0  0  0  0  0  0  0  0  0  0
  160.5460  211.3930  151.4800 C   0  0  0  0  0  0  0  0  0  0  0  0
  161.6920  205.0470  152.6920 N   0  0  0  0  0  0  0  0  0  0  0  0
  161.2960  205.5700  151.5030 C   0  0  0  0  0  3  0  0  0  0  0  0
  162.0270  209.7430  150.0270 S   0  0  0  0  0  0  0  0  0  0  0  0
  161.0780  207.7560  152.5330 C   0  0  0  0  0  0  0  0  0  0  0  0
  160.9260  212.2300  150.3220 C   0  0  0  0  0  2  0  0  0  0  0  0
  161.7130  205.7970  153.8230 C   0  0  0  0  0  3  0  0  0  0  0  0
  160.2100  209.7670  153.7130 C   0  0  0  0  0  0  0  0  0  0  0  0
  161.2980  207.9360  155.0440 C   0  0  0  0  0  2  0  0  0  0  0  0
  160.3980  207.3740  150.2120 O   0  0  0  0  0  1  0  0  0  0  0  0
  159.8930  211.8980  152.6000 C   0  0  0  0  0  3  0  0  0  0  0  0
  159.7050  211.0930  153.7340 C   0  0  0  0  0  0  0  0  0  0  0  0
  162.1250  211.5390  149.6860 C   0  0  2  0  0  3  0  0  0  0  0  0
  160.9660  210.0790  151.4280 C   0  0  0  0  0  0  0  0  0  0  0  0
  160.3030  208.9980  154.9200 N   0  0  0  0  0  2  0  0  0  0  0  0
  157.0560  211.9910  156.3100 C   0  0  0  0  0  0  0  0  0  0  0  0
  157.7700  212.8460  157.1520 C   0  0  0  0  0  3  0  0  0  0  0  0
  159.0340  211.6800  154.9240 C   0  0  0  0  0  0  0  0  0  0  0  0
  159.1120  213.1270  156.8830 C   0  0  0  0  0  3  0  0  0  0  0  0
  157.6830  211.4160  155.2010 C   0  0  0  0  0  3  0  0  0  0  0  0
  159.7380  212.5500  155.7750 C   0  0  0  0  0  3  0  0  0  0  0  0
  155.7530  211.7220  156.5660 F   0  0  0  0  0  0  0  0  0  0  0  0
  162.1350  211.7940  148.2170 C   0  0  0  0  0  3  0  0  0  0  0  0
  161.0800  212.2210  147.6240 N   0  0  0  0  0  0  0  0  0  0  0  0
  159.6480  212.4940  145.6710 C   0  0  0  0  0  2  0  0  0  0  0  0
  161.0830  212.4710  146.2070 C   0  0  1  0  0  3  0  0  0  0  0  0
  159.6210  212.8090  144.1740 C   0  0  1  0  0  3  0  0  0  0  0  0
  160.3600  214.1170  143.8800 C   0  0  0  0  0  2  0  0  0  0  0  0
  161.7840  214.0840  144.4320 C   0  0  0  0  0  2  0  0  0  0  0  0
  161.7630  213.8080  145.9310 C   0  0  0  0  0  2  0  0  0  0  0  0
  160.1860  211.7590  143.4470 O   0  0  0  0  0  1  0  0  0  0  0  0
  1 10  1  0  0  0  0
  1 12  1  0  0  0  0
  2  6  2  0  0  0  0
  2  8  1  0  0  0  0
  3  8  1  0  0  0  0
  3 11  1  0  0  0  0
  4 14  2  0  0  0  0
  5 10  2  0  0  0  0
  6  5  1  0  0  0  0
  7 17  1  0  0  0  0
  8  1  2  0  0  0  0
  9  4  1  0  0  0  0
 11 15  2  0  0  0  0
 11 18  1  0  0  0  0
 13  2  1  0  0  0  0
 14 15  1  0  0  0  0
 15 21  1  0  0  0  0
 16 26  1  6  0  0  0
 16  7  1  0  0  0  0
 16  9  1  0  0  0  0
 17  4  1  0  0  0  0
 17  3  2  0  0  0  0
 18 12  1  0  0  0  0
 19 25  1  0  0  0  0
 19 20  1  0  0  0  0
 21 23  1  0  0  0  0
 21 24  2  0  0  0  0
 22 20  2  0  0  0  0
 23 19  2  0  0  0  0
 24 22  1  0  0  0  0
 27 26  2  0  0  0  0
 28 29  1  0  0  0  0
 29 27  1  1  0  0  0
 30 34  1  6  0  0  0
 30 28  1  0  0  0  0
 31 30  1  0  0  0  0
 31 32  1  0  0  0  0
 32 33  1  0  0  0  0
 33 29  1  0  0  0  0
M  END
>  <MODEL>
3

>  <REMARK>
 VINA RESULT:      -6.6      2.267      3.306
  Name = 
  3 active torsions:
  status: ('A' for Active; 'I' for Inactive)
    1  A    between atoms: C_3  and  C_29
    2  A    between atoms: C_12  and  C_28
    3  A    between atoms: C_13  and  N_17
                            x       y       z     vdW  Elec       q    Type
                         _______ _______ _______ _____ _____    ______ ____

>  <TORSDO>
F 3

$$$$
=
 OpenBabel11062407453D

 34 39  0  0  1  0  0  0  0  0999 V2000
  160.8870  212.5720  149.8890 C   0  0  0  0  0  0  0  0  0  0  0  0
  162.3230  211.1960  148.5130 C   0  0  0  0  0  0  0  0  0  0  0  0
  161.3960  210.2740  150.7190 C   0  0  0  0  0  0  0  0  0  0  0  0
  161.4150  207.9920  151.5290 C   0  0  0  0  0  0  0  0  0  0  0  0
  161.6410  213.3640  147.7680 N   0  0  0  0  0  0  0  0  0  0  0  0
  162.3440  212.2200  147.5630 C   0  0  0  0  0  3  0  0  0  0  0  0
  161.2010  208.0890  148.8890 S   0  0  0  0  0  0  0  0  0  0  0  0
  161.5000  211.3220  149.6540 C   0  0  0  0  0  0  0  0  0  0  0  0
  161.3490  206.5630  151.1540 C   0  0  0  0  0  2  0  0  0  0  0  0
  160.9380  213.5670  148.9110 C   0  0  0  0  0  3  0  0  0  0  0  0
  161.2010  210.7170  152.0480 C   0  0  0  0  0  0  0  0  0  0  0  0
  160.1960  212.8510  151.1870 C   0  0  0  0  0  2  0  0  0  0  0  0
  163.1750  210.1140  148.3390 O   0  0  0  0  0  1  0  0  0  0  0  0
  161.3660  208.4330  152.8480 C   0  0  0  0  0  3  0  0  0  0  0  0
  161.2680  209.8040  153.1320 C   0  0  0  0  0  0  0  0  0  0  0  0
  160.7720  206.5290  149.7450 C   0  0  2  0  0  3  0  0  0  0  0  0
  161.4320  208.8840  150.4750 C   0  0  0  0  0  0  0  0  0  0  0  0
  160.8190  212.0830  152.2610 N   0  0  0  0  0  2  0  0  0  0  0  0
  162.2370  211.0330  156.5980 C   0  0  0  0  0  0  0  0  0  0  0  0
  161.0070  210.9920  157.2580 C   0  0  0  0  0  3  0  0  0  0  0  0
  161.1830  210.2340  154.5530 C   0  0  0  0  0  0  0  0  0  0  0  0
  159.8640  210.5680  156.5760 C   0  0  0  0  0  3  0  0  0  0  0  0
  162.3240  210.6520  155.2560 C   0  0  0  0  0  3  0  0  0  0  0  0
  159.9520  210.1890  155.2330 C   0  0  0  0  0  3  0  0  0  0  0  0
  163.3480  211.4400  157.2600 F   0  0  0  0  0  0  0  0  0  0  0  0
  161.3160  205.3570  149.0040 C   0  0  0  0  0  3  0  0  0  0  0  0
  160.6620  204.2530  148.9620 N   0  0  0  0  0  0  0  0  0  0  0  0
  160.4500  201.8410  148.6790 C   0  0  0  0  0  2  0  0  0  0  0  0
  161.1800  203.1170  148.2470 C   0  0  1  0  0  3  0  0  0  0  0  0
  160.9480  200.6260  147.8960 C   0  0  1  0  0  3  0  0  0  0  0  0
  160.8320  200.8650  146.3890 C   0  0  0  0  0  2  0  0  0  0  0  0
  161.5540  202.1470  145.9750 C   0  0  0  0  0  2  0  0  0  0  0  0
  161.0000  203.3370  146.7490 C   0  0  0  0  0  2  0  0  0  0  0  0
  162.2690  200.3340  148.2400 O   0  0  0  0  0  1  0  0  0  0  0  0
  1 12  1  0  0  0  0
  2  8  2  0  0  0  0
  3 11  1  0  0  0  0
  4 14  2  0  0  0  0
  5 10  1  0  0  0  0
  6  5  2  0  0  0  0
  6  2  1  0  0  0  0
  7 16  1  0  0  0  0
  7 17  1  0  0  0  0
  8  1  1  0  0  0  0
  8  3  1  0  0  0  0
  9  4  1  0  0  0  0
 10  1  2  0  0  0  0
 11 18  1  0  0  0  0
 11 15  2  0  0  0  0
 12 18  1  0  0  0  0
 13  2  1  0  0  0  0
 14 15  1  0  0  0  0
 15 21  1  0  0  0  0
 16 26  1  6  0  0  0
 16  9  1  0  0  0  0
 17  3  2  0  0  0  0
 17  4  1  0  0  0  0
 19 20  1  0  0  0  0
 19 25  1  0  0  0  0
 21 24  2  0  0  0  0
 21 23  1  0  0  0  0
 22 20  2  0  0  0  0
 23 19  2  0  0  0  0
 24 22  1  0  0  0  0
 27 26  2  0  0  0  0
 29 28  1  0  0  0  0
 29 27  1  1  0  0  0
 30 34  1  6  0  0  0
 30 28  1  0  0  0  0
 31 30  1  0  0  0  0
 32 31  1  0  0  0  0
 32 33  1  0  0  0  0
 33 29  1  0  0  0  0
M  END
>  <MODEL>
4

>  <REMARK>
 VINA RESULT:      -6.0      2.436      7.307
  Name = 
  3 active torsions:
  status: ('A' for Active; 'I' for Inactive)
    1  A    between atoms: C_3  and  C_29
    2  A    between atoms: C_12  and  C_28
    3  A    between atoms: C_13  and  N_17
                            x       y       z     vdW  Elec       q    Type
                         _______ _______ _______ _____ _____    ______ ____

>  <TORSDO>
F 3

$$$$
=
 OpenBabel11062407453D

 34 39  0  0  1  0  0  0  0  0999 V2000
  161.5770  209.4200  155.3740 C   0  0  0  0  0  0  0  0  0  0  0  0
  160.4550  207.2990  155.0730 C   0  0  0  0  0  0  0  0  0  0  0  0
  161.1420  208.6870  153.0290 C   0  0  0  0  0  0  0  0  0  0  0  0
  161.1920  208.0240  150.7000 C   0  0  0  0  0  0  0  0  0  0  0  0
  161.0600  208.0530  157.2600 N   0  0  0  0  0  0  0  0  0  0  0  0
  160.4830  207.1220  156.4580 C   0  0  0  0  0  3  0  0  0  0  0  0
  161.7560  205.9920  152.3070 S   0  0  0  0  0  0  0  0  0  0  0  0
  161.1020  208.4180  154.5020 C   0  0  0  0  0  0  0  0  0  0  0  0
  161.4210  206.9120  149.7520 C   0  0  0  0  0  2  0  0  0  0  0  0
  161.5820  209.1990  156.7520 C   0  0  0  0  0  3  0  0  0  0  0  0
  161.1190  210.0400  152.6160 C   0  0  0  0  0  0  0  0  0  0  0  0
  162.0600  210.7320  154.8390 C   0  0  0  0  0  2  0  0  0  0  0  0
  159.7220  206.4050  154.3050 O   0  0  0  0  0  1  0  0  0  0  0  0
  161.0260  209.3450  150.2950 C   0  0  0  0  0  3  0  0  0  0  0  0
  160.9770  210.3760  151.2450 C   0  0  0  0  0  0  0  0  0  0  0  0
  162.1850  205.8520  150.5330 C   0  0  2  0  0  3  0  0  0  0  0  0
  161.2490  207.6870  152.0380 C   0  0  0  0  0  0  0  0  0  0  0  0
  161.3590  211.0560  153.6000 N   0  0  0  0  0  2  0  0  0  0  0  0
  161.3530  213.5460  149.1770 C   0  0  0  0  0  0  0  0  0  0  0  0
  160.5910  214.4500  149.9190 C   0  0  0  0  0  3  0  0  0  0  0  0
  160.8340  211.7780  150.7700 C   0  0  0  0  0  0  0  0  0  0  0  0
  159.9540  214.0290  151.0890 C   0  0  0  0  0  3  0  0  0  0  0  0
  161.4770  212.2200  149.6030 C   0  0  0  0  0  3  0  0  0  0  0  0
  160.0770  212.7030  151.5130 C   0  0  0  0  0  3  0  0  0  0  0  0
  161.9760  213.9540  148.0450 F   0  0  0  0  0  0  0  0  0  0  0  0
  161.8410  204.4970  150.0150 C   0  0  0  0  0  3  0  0  0  0  0  0
  161.1130  204.3670  148.9660 N   0  0  0  0  0  0  0  0  0  0  0  0
  161.2760  202.9110  147.0180 C   0  0  0  0  0  2  0  0  0  0  0  0
  160.7790  203.0630  148.4600 C   0  0  1  0  0  3  0  0  0  0  0  0
  160.9770  201.5130  146.4740 C   0  0  1  0  0  3  0  0  0  0  0  0
  161.5580  200.4350  147.3930 C   0  0  0  0  0  2  0  0  0  0  0  0
  161.0630  200.6080  148.8280 C   0  0  0  0  0  2  0  0  0  0  0  0
  161.4170  201.9970  149.3450 C   0  0  0  0  0  2  0  0  0  0  0  0
  159.6000  201.3330  146.3260 O   0  0  0  0  0  1  0  0  0  0  0  0
  1 10  1  0  0  0  0
  2  6  2  0  0  0  0
  3  8  1  0  0  0  0
  4 17  1  0  0  0  0
  6  5  1  0  0  0  0
  8  2  1  0  0  0  0
  8  1  2  0  0  0  0
  9 16  1  0  0  0  0
  9  4  1  0  0  0  0
 10  5  2  0  0  0  0
 11  3  1  0  0  0  0
 11 18  1  0  0  0  0
 12  1  1  0  0  0  0
 13  2  1  0  0  0  0
 14  4  2  0  0  0  0
 14 15  1  0  0  0  0
 15 11  2  0  0  0  0
 16 26  1  6  0  0  0
 16  7  1  0  0  0  0
 17  7  1  0  0  0  0
 17  3  2  0  0  0  0
 18 12  1  0  0  0  0
 19 23  2  0  0  0  0
 19 20  1  0  0  0  0
 20 22  2  0  0  0  0
 21 15  1  0  0  0  0
 21 24  2  0  0  0  0
 22 24  1  0  0  0  0
 23 21  1  0  0  0  0
 25 19  1  0  0  0  0
 27 26  2  0  0  0  0
 28 29  1  0  0  0  0
 29 27  1  1  0  0  0
 29 33  1  0  0  0  0
 30 34  1  1  0  0  0
 30 28  1  0  0  0  0
 30 31  1  0  0  0  0
 31 32  1  0  0  0  0
 32 33  1  0  0  0  0
M  END
>  <MODEL>
5

>  <REMARK>
 VINA RESULT:      -5.4      3.802      8.027
  Name = 
  3 active torsions:
  status: ('A' for Active; 'I' for Inactive)
    1  A    between atoms: C_3  and  C_29
    2  A    between atoms: C_12  and  C_28
    3  A    between atoms: C_13  and  N_17
                            x       y       z     vdW  Elec       q    Type
                         _______ _______ _______ _____ _____    ______ ____

>  <TORSDO>
F 3

$$$$
=
 OpenBabel11062407453D

 34 39  0  0  1  0  0  0  0  0999 V2000
  160.2730  209.4690  154.9820 C   0  0  0  0  0  0  0  0  0  0  0  0
  160.6800  208.5750  152.7720 C   0  0  0  0  0  0  0  0  0  0  0  0
  159.5880  210.8790  153.0420 C   0  0  0  0  0  0  0  0  0  0  0  0
  159.2070  212.5770  151.3560 C   0  0  0  0  0  0  0  0  0  0  0  0
  161.4160  207.3920  154.7160 N   0  0  0  0  0  0  0  0  0  0  0  0
  161.2990  207.4730  153.3650 C   0  0  0  0  0  3  0  0  0  0  0  0
  161.4220  211.2030  150.8750 S   0  0  0  0  0  0  0  0  0  0  0  0
  160.2460  209.6480  153.5830 C   0  0  0  0  0  0  0  0  0  0  0  0
  159.7160  213.2030  150.1170 C   0  0  0  0  0  2  0  0  0  0  0  0
  160.9000  208.3480  155.5290 C   0  0  0  0  0  3  0  0  0  0  0  0
  158.5930  211.4890  153.8420 C   0  0  0  0  0  0  0  0  0  0  0  0
  159.6180  210.4610  155.8910 C   0  0  0  0  0  2  0  0  0  0  0  0
  160.4420  208.5460  151.4050 O   0  0  0  0  0  1  0  0  0  0  0  0
  158.1340  213.0900  152.0790 C   0  0  0  0  0  3  0  0  0  0  0  0
  157.8010  212.5490  153.3310 C   0  0  0  0  0  0  0  0  0  0  0  0
  161.1840  212.8060  150.0240 C   0  0  2  0  0  3  0  0  0  0  0  0
  159.9270  211.4930  151.8160 C   0  0  0  0  0  0  0  0  0  0  0  0
  158.4860  211.0890  155.2150 N   0  0  0  0  0  2  0  0  0  0  0  0
  154.4310  214.1030  154.1610 C   0  0  0  0  0  0  0  0  0  0  0  0
  154.5620  214.3260  155.5330 C   0  0  0  0  0  3  0  0  0  0  0  0
  156.6700  213.1470  154.0890 C   0  0  0  0  0  0  0  0  0  0  0  0
  155.7430  213.9700  156.1880 C   0  0  0  0  0  3  0  0  0  0  0  0
  155.4800  213.5210  153.4440 C   0  0  0  0  0  3  0  0  0  0  0  0
  156.7910  213.3860  155.4690 C   0  0  0  0  0  3  0  0  0  0  0  0
  153.2870  214.4530  153.5250 F   0  0  0  0  0  0  0  0  0  0  0  0
  161.5920  212.7070  148.5940 C   0  0  0  0  0  3  0  0  0  0  0  0
  160.7250  212.8570  147.6590 N   0  0  0  0  0  0  0  0  0  0  0  0
  159.9600  213.2180  145.3730 C   0  0  0  0  0  2  0  0  0  0  0  0
  161.1120  212.7640  146.2770 C   0  0  1  0  0  3  0  0  0  0  0  0
  160.3630  213.1760  143.8990 C   0  0  1  0  0  3  0  0  0  0  0  0
  161.6320  213.9980  143.6580 C   0  0  0  0  0  2  0  0  0  0  0  0
  162.7670  213.5420  144.5750 C   0  0  0  0  0  2  0  0  0  0  0  0
  162.3380  213.6380  146.0340 C   0  0  0  0  0  2  0  0  0  0  0  0
  160.5540  211.8570  143.4840 O   0  0  0  0  0  1  0  0  0  0  0  0
  1 10  1  0  0  0  0
  1 12  1  0  0  0  0
  2  6  2  0  0  0  0
  2  8  1  0  0  0  0
  3  8  1  0  0  0  0
  3 11  1  0  0  0  0
  4 17  1  0  0  0  0
  4 14  2  0  0  0  0
  5 10  2  0  0  0  0
  6  5  1  0  0  0  0
  7 17  1  0  0  0  0
  8  1  2  0  0  0  0
  9  4  1  0  0  0  0
 11 18  1  0  0  0  0
 13  2  1  0  0  0  0
 14 15  1  0  0  0  0
 15 11  2  0  0  0  0
 15 21  1  0  0  0  0
 16 26  1  6  0  0  0
 16  9  1  0  0  0  0
 16  7  1  0  0  0  0
 17  3  2  0  0  0  0
 18 12  1  0  0  0  0
 19 20  1  0  0  0  0
 20 22  2  0  0  0  0
 21 24  2  0  0  0  0
 23 21  1  0  0  0  0
 23 19  2  0  0  0  0
 24 22  1  0  0  0  0
 25 19  1  0  0  0  0
 27 26  2  0  0  0  0
 28 29  1  0  0  0  0
 29 27  1  1  0  0  0
 30 34  1  1  0  0  0
 30 28  1  0  0  0  0
 31 30  1  0  0  0  0
 31 32  1  0  0  0  0
 32 33  1  0  0  0  0
 33 29  1  0  0  0  0
M  END
>  <MODEL>
6

>  <REMARK>
 VINA RESULT:      -4.9      3.902      5.332
  Name = 
  3 active torsions:
  status: ('A' for Active; 'I' for Inactive)
    1  A    between atoms: C_3  and  C_29
    2  A    between atoms: C_12  and  C_28
    3  A    between atoms: C_13  and  N_17
                            x       y       z     vdW  Elec       q    Type
                         _______ _______ _______ _____ _____    ______ ____

>  <TORSDO>
F 3

$$$$
