=
 OpenBabel11052422163D

 25 28  0  0  1  0  0  0  0  0999 V2000
  160.9430  204.5270  150.8210 C   0  0  0  0  0  0  0  0  0  0  0  0
  160.7830  205.8660  150.4430 C   0  0  0  0  0  0  0  0  0  0  0  0
  161.4560  205.1140  153.1110 C   0  0  0  0  0  3  0  0  0  0  0  0
  160.8400  203.3380  150.1310 C   0  0  0  0  0  0  0  0  0  0  0  0
  161.9830  207.1540  148.5040 C   0  0  2  0  0  3  0  0  0  0  0  0
  160.7880  200.6780  149.3630 C   0  0  0  0  0  3  0  0  0  0  0  0
  161.3230  206.4670  152.7590 C   0  0  0  0  0  3  0  0  0  0  0  0
  161.1000  202.3450  151.0540 C   0  0  0  0  0  0  0  0  0  0  0  0
  161.0830  200.9990  150.7010 C   0  0  0  0  0  3  0  0  0  0  0  0
  160.9600  208.3200  151.0520 C   0  0  1  0  0  3  0  0  0  0  0  0
  160.9070  209.2670  152.2430 C   0  0  0  0  0  1  0  0  0  0  0  0
  160.3840  206.3060  148.7430 S   0  0  0  0  0  0  0  0  0  0  0  0
  160.5220  201.6950  148.4210 C   0  0  0  0  0  3  0  0  0  0  0  0
  161.2610  204.1640  152.1150 C   0  0  0  0  0  0  0  0  0  0  0  0
  161.3520  202.8560  152.2420 O   0  0  0  0  0  0  0  0  0  0  0  0
  162.1720  208.6410  150.1820 C   0  0  0  0  0  2  0  0  0  0  0  0
  160.5450  203.0490  148.8010 C   0  0  0  0  0  3  0  0  0  0  0  0
  161.8470  208.5140  148.8230 O   0  0  0  0  0  0  0  0  0  0  0  0
  160.9790  206.8590  151.4390 C   0  0  0  0  0  0  0  0  0  0  0  0
  162.5050  206.9810  147.0790 C   0  0  0  0  0  2  0  0  0  0  0  0
  162.1780  205.6140  146.4860 C   0  0  2  0  0  3  0  0  0  0  0  0
  163.3530  204.9190  146.1950 O   0  0  0  0  0  1  0  0  0  0  0  0
  161.3670  205.7770  145.2450 C   0  0  0  0  0  0  0  0  0  0  0  0
  160.0970  206.3310  145.3220 O   0  0  0  0  0  1  0  0  0  0  0  0
  161.8330  205.4340  144.1260 O   0  0  0  0  0  0  0  0  0  0  0  0
  1 14  1  0  0  0  0
  2  1  2  0  0  0  0
  2 19  1  0  0  0  0
  4  1  1  0  0  0  0
  4  8  1  0  0  0  0
  5 20  1  6  0  0  0
  5 12  1  0  0  0  0
  5 18  1  0  0  0  0
  6  9  1  0  0  0  0
  7  3  1  0  0  0  0
  8 15  1  0  0  0  0
  9  8  2  0  0  0  0
 10 19  1  0  0  0  0
 10 11  1  1  0  0  0
 12  2  1  0  0  0  0
 13 17  1  0  0  0  0
 13  6  2  0  0  0  0
 14 15  1  0  0  0  0
 14  3  2  0  0  0  0
 16 10  1  0  0  0  0
 17  4  2  0  0  0  0
 18 16  1  0  0  0  0
 19  7  2  0  0  0  0
 21 22  1  6  0  0  0
 21 20  1  0  0  0  0
 23 24  1  0  0  0  0
 23 21  1  0  0  0  0
 25 23  2  0  0  0  0
M  END
>  <MODEL>
1

>  <REMARK>
 VINA RESULT:      -9.7      0.000      0.000
  Name = 
  3 active torsions:
  status: ('A' for Active; 'I' for Inactive)
    1  A    between atoms: C_2  and  C_21
    2  A    between atoms: C_6  and  C_15
    3  A    between atoms: C_15  and  C_21
                            x       y       z     vdW  Elec       q    Type
                         _______ _______ _______ _____ _____    ______ ____

>  <TORSDO>
F 3

$$$$
=
 OpenBabel11052422163D

 25 28  0  0  1  0  0  0  0  0999 V2000
  161.4140  205.5950  150.1210 C   0  0  0  0  0  0  0  0  0  0  0  0
  161.8110  206.7100  150.8690 C   0  0  0  0  0  0  0  0  0  0  0  0
  161.0690  206.9140  148.1230 C   0  0  0  0  0  3  0  0  0  0  0  0
  161.2800  204.2580  150.4280 C   0  0  0  0  0  0  0  0  0  0  0  0
  160.8300  207.5680  153.1410 C   0  0  2  0  0  3  0  0  0  0  0  0
  160.8220  201.5280  150.3810 C   0  0  0  0  0  3  0  0  0  0  0  0
  161.4430  208.0550  148.8510 C   0  0  0  0  0  3  0  0  0  0  0  0
  160.8600  203.6470  149.2650 C   0  0  0  0  0  0  0  0  0  0  0  0
  160.6210  202.2760  149.2070 C   0  0  0  0  0  3  0  0  0  0  0  0
  162.1060  209.2240  151.0120 C   0  0  1  0  0  3  0  0  0  0  0  0
  162.3580  210.4530  150.1510 C   0  0  0  0  0  1  0  0  0  0  0  0
  162.2480  206.5500  152.6090 S   0  0  0  0  0  0  0  0  0  0  0  0
  161.2520  202.1560  151.5710 C   0  0  0  0  0  3  0  0  0  0  0  0
  161.0620  205.6940  148.7890 C   0  0  0  0  0  0  0  0  0  0  0  0
  160.7330  204.5210  148.2880 O   0  0  0  0  0  0  0  0  0  0  0  0
  160.9560  209.4920  151.9800 C   0  0  0  0  0  2  0  0  0  0  0  0
  161.4880  203.5420  151.6050 C   0  0  0  0  0  3  0  0  0  0  0  0
  161.2230  208.9130  153.2300 O   0  0  0  0  0  0  0  0  0  0  0  0
  161.8250  207.9710  150.2150 C   0  0  0  0  0  0  0  0  0  0  0  0
  160.2540  207.0820  154.4700 C   0  0  0  0  0  2  0  0  0  0  0  0
  160.9750  207.6660  155.6810 C   0  0  2  0  0  3  0  0  0  0  0  0
  160.7930  206.8440  156.7950 O   0  0  0  0  0  1  0  0  0  0  0  0
  160.4570  209.0330  155.9730 C   0  0  0  0  0  0  0  0  0  0  0  0
  161.3340  210.0260  156.3900 O   0  0  0  0  0  1  0  0  0  0  0  0
  159.2360  209.3000  155.8240 O   0  0  0  0  0  0  0  0  0  0  0  0
  1  4  1  0  0  0  0
  1  2  2  0  0  0  0
  2 12  1  0  0  0  0
  3 14  2  0  0  0  0
  3  7  1  0  0  0  0
  4 17  1  0  0  0  0
  5 18  1  0  0  0  0
  5 20  1  1  0  0  0
  6 13  1  0  0  0  0
  7 19  2  0  0  0  0
  8  4  2  0  0  0  0
  9  8  1  0  0  0  0
  9  6  2  0  0  0  0
 10 11  1  6  0  0  0
 10 16  1  0  0  0  0
 12  5  1  0  0  0  0
 13 17  2  0  0  0  0
 14  1  1  0  0  0  0
 15 14  1  0  0  0  0
 15  8  1  0  0  0  0
 16 18  1  0  0  0  0
 19  2  1  0  0  0  0
 19 10  1  0  0  0  0
 20 21  1  0  0  0  0
 21 23  1  0  0  0  0
 21 22  1  1  0  0  0
 23 24  1  0  0  0  0
 25 23  2  0  0  0  0
M  END
>  <MODEL>
2

>  <REMARK>
 VINA RESULT:      -8.3      3.152      5.964
  Name = 
  3 active torsions:
  status: ('A' for Active; 'I' for Inactive)
    1  A    between atoms: C_2  and  C_21
    2  A    between atoms: C_6  and  C_15
    3  A    between atoms: C_15  and  C_21
                            x       y       z     vdW  Elec       q    Type
                         _______ _______ _______ _____ _____    ______ ____

>  <TORSDO>
F 3

$$$$
=
 OpenBabel11052422163D

 25 28  0  0  1  0  0  0  0  0999 V2000
  160.9710  204.0990  148.0680 C   0  0  0  0  0  0  0  0  0  0  0  0
  160.7320  204.5490  149.3720 C   0  0  0  0  0  0  0  0  0  0  0  0
  161.2330  201.8030  148.7850 C   0  0  0  0  0  3  0  0  0  0  0  0
  161.0280  204.7410  146.8490 C   0  0  0  0  0  0  0  0  0  0  0  0
  161.9810  206.4390  150.6870 C   0  0  2  0  0  3  0  0  0  0  0  0
  161.2670  205.3900  144.1680 C   0  0  0  0  0  3  0  0  0  0  0  0
  161.0170  202.2260  150.1060 C   0  0  0  0  0  3  0  0  0  0  0  0
  161.2910  203.7560  145.9190 C   0  0  0  0  0  0  0  0  0  0  0  0
  161.4170  204.0480  144.5640 C   0  0  0  0  0  3  0  0  0  0  0  0
  160.6470  204.0380  151.8540 C   0  0  1  0  0  3  0  0  0  0  0  0
  160.4130  202.9000  152.8370 C   0  0  0  0  0  1  0  0  0  0  0  0
  160.4450  206.2940  149.7110 S   0  0  0  0  0  0  0  0  0  0  0  0
  160.9980  206.3960  145.1220 C   0  0  0  0  0  3  0  0  0  0  0  0
  161.2060  202.7680  147.7840 C   0  0  0  0  0  0  0  0  0  0  0  0
  161.3960  202.5750  146.4940 O   0  0  0  0  0  0  0  0  0  0  0  0
  161.8980  204.8200  152.2480 C   0  0  0  0  0  2  0  0  0  0  0  0
  160.8740  206.0770  146.4860 C   0  0  0  0  0  3  0  0  0  0  0  0
  161.7030  206.1940  152.0410 O   0  0  0  0  0  0  0  0  0  0  0  0
  160.7560  203.5860  150.4160 C   0  0  0  0  0  0  0  0  0  0  0  0
  162.6360  207.8070  150.5070 C   0  0  0  0  0  2  0  0  0  0  0  0
  161.9700  208.6500  149.4240 C   0  0  2  0  0  3  0  0  0  0  0  0
  162.6480  208.5060  148.2120 O   0  0  0  0  0  1  0  0  0  0  0  0
  161.9570  210.0840  149.8300 C   0  0  0  0  0  0  0  0  0  0  0  0
  162.1160  211.0720  148.8680 O   0  0  0  0  0  0  0  0  0  0  0  0
  161.7850  210.4070  151.0350 O   0  0  0  0  0  1  0  0  0  0  0  0
  1  2  2  0  0  0  0
  2 12  1  0  0  0  0
  2 19  1  0  0  0  0
  3  7  1  0  0  0  0
  4  1  1  0  0  0  0
  5 20  1  1  0  0  0
  5 18  1  0  0  0  0
  6  9  2  0  0  0  0
  6 13  1  0  0  0  0
  7 19  2  0  0  0  0
  8 15  1  0  0  0  0
  8  4  2  0  0  0  0
  9  8  1  0  0  0  0
 10 16  1  0  0  0  0
 10 11  1  1  0  0  0
 12  5  1  0  0  0  0
 13 17  2  0  0  0  0
 14  1  1  0  0  0  0
 14  3  2  0  0  0  0
 15 14  1  0  0  0  0
 17  4  1  0  0  0  0
 18 16  1  0  0  0  0
 19 10  1  0  0  0  0
 21 22  1  6  0  0  0
 21 23  1  0  0  0  0
 21 20  1  0  0  0  0
 23 25  1  0  0  0  0
 24 23  2  0  0  0  0
M  END
>  <MODEL>
3

>  <REMARK>
 VINA RESULT:      -7.5      1.909      4.968
  Name = 
  3 active torsions:
  status: ('A' for Active; 'I' for Inactive)
    1  A    between atoms: C_2  and  C_21
    2  A    between atoms: C_6  and  C_15
    3  A    between atoms: C_15  and  C_21
                            x       y       z     vdW  Elec       q    Type
                         _______ _______ _______ _____ _____    ______ ____

>  <TORSDO>
F 3

$$$$
=
 OpenBabel11052422163D

 25 28  0  0  1  0  0  0  0  0999 V2000
  161.5730  208.3430  150.6820 C   0  0  0  0  0  0  0  0  0  0  0  0
  161.8420  207.0140  150.3300 C   0  0  0  0  0  0  0  0  0  0  0  0
  160.7460  207.7170  152.8680 C   0  0  0  0  0  3  0  0  0  0  0  0
  161.7320  209.5400  150.0190 C   0  0  0  0  0  0  0  0  0  0  0  0
  161.0010  205.6960  148.2290 C   0  0  2  0  0  3  0  0  0  0  0  0
  161.7920  212.2060  149.2730 C   0  0  0  0  0  3  0  0  0  0  0  0
  160.9840  206.3730  152.5370 C   0  0  0  0  0  3  0  0  0  0  0  0
  161.2950  210.5140  150.8940 C   0  0  0  0  0  0  0  0  0  0  0  0
  161.3120  211.8630  150.5500 C   0  0  0  0  0  3  0  0  0  0  0  0
  161.6740  204.5500  150.9000 C   0  0  1  0  0  3  0  0  0  0  0  0
  161.5850  203.5960  152.0830 C   0  0  0  0  0  1  0  0  0  0  0  0
  162.5100  206.6040  148.7090 S   0  0  0  0  0  0  0  0  0  0  0  0
  162.2370  211.2080  148.3790 C   0  0  0  0  0  3  0  0  0  0  0  0
  161.0490  208.6820  151.9140 C   0  0  0  0  0  0  0  0  0  0  0  0
  160.8880  209.9850  152.0290 O   0  0  0  0  0  0  0  0  0  0  0  0
  160.6210  204.1890  149.8560 C   0  0  0  0  0  2  0  0  0  0  0  0
  162.2120  209.8510  148.7480 C   0  0  0  0  0  3  0  0  0  0  0  0
  161.1420  204.3400  148.5620 O   0  0  0  0  0  0  0  0  0  0  0  0
  161.5390  206.0060  151.2830 C   0  0  0  0  0  0  0  0  0  0  0  0
  160.6930  205.8600  146.7420 C   0  0  0  0  0  2  0  0  0  0  0  0
  161.6660  205.1010  145.8440 C   0  0  2  0  0  3  0  0  0  0  0  0
  162.1830  205.9510  144.8650 O   0  0  0  0  0  1  0  0  0  0  0  0
  160.9720  203.9500  145.1990 C   0  0  0  0  0  0  0  0  0  0  0  0
  161.2140  202.6600  145.6520 O   0  0  0  0  0  1  0  0  0  0  0  0
  160.1530  204.1400  144.2610 O   0  0  0  0  0  0  0  0  0  0  0  0
  1 14  1  0  0  0  0
  2  1  2  0  0  0  0
  2 19  1  0  0  0  0
  4  1  1  0  0  0  0
  4  8  1  0  0  0  0
  5 20  1  6  0  0  0
  5 18  1  0  0  0  0
  5 12  1  0  0  0  0
  6  9  1  0  0  0  0
  7  3  1  0  0  0  0
  8 15  1  0  0  0  0
  9  8  2  0  0  0  0
 10 19  1  0  0  0  0
 10 11  1  1  0  0  0
 12  2  1  0  0  0  0
 13 17  1  0  0  0  0
 13  6  2  0  0  0  0
 14 15  1  0  0  0  0
 14  3  2  0  0  0  0
 16 10  1  0  0  0  0
 17  4  2  0  0  0  0
 18 16  1  0  0  0  0
 19  7  2  0  0  0  0
 21 22  1  6  0  0  0
 21 20  1  0  0  0  0
 23 24  1  0  0  0  0
 23 21  1  0  0  0  0
 25 23  2  0  0  0  0
M  END
>  <MODEL>
4

>  <REMARK>
 VINA RESULT:      -7.0      2.034      5.390
  Name = 
  3 active torsions:
  status: ('A' for Active; 'I' for Inactive)
    1  A    between atoms: C_2  and  C_21
    2  A    between atoms: C_6  and  C_15
    3  A    between atoms: C_15  and  C_21
                            x       y       z     vdW  Elec       q    Type
                         _______ _______ _______ _____ _____    ______ ____

>  <TORSDO>
F 3

$$$$
=
 OpenBabel11052422163D

 25 28  0  0  1  0  0  0  0  0999 V2000
  161.5310  207.2580  150.4520 C   0  0  0  0  0  0  0  0  0  0  0  0
  161.8170  208.6010  150.7310 C   0  0  0  0  0  0  0  0  0  0  0  0
  161.5450  207.6320  148.0620 C   0  0  0  0  0  3  0  0  0  0  0  0
  161.3260  206.1560  151.2540 C   0  0  0  0  0  0  0  0  0  0  0  0
  160.4860  210.2540  152.2660 C   0  0  2  0  0  3  0  0  0  0  0  0
  160.8360  203.6220  152.2560 C   0  0  0  0  0  3  0  0  0  0  0  0
  161.8120  208.9880  148.3090 C   0  0  0  0  0  3  0  0  0  0  0  0
  161.0950  205.1030  150.3920 C   0  0  0  0  0  0  0  0  0  0  0  0
  160.8450  203.8170  150.8630 C   0  0  0  0  0  3  0  0  0  0  0  0
  162.1260  210.9670  149.8770 C   0  0  1  0  0  3  0  0  0  0  0  0
  162.5390  211.7520  148.6400 C   0  0  0  0  0  1  0  0  0  0  0  0
  161.9560  209.1840  152.4290 S   0  0  0  0  0  0  0  0  0  0  0  0
  161.0720  204.7010  153.1360 C   0  0  0  0  0  3  0  0  0  0  0  0
  161.4080  206.7890  149.1590 C   0  0  0  0  0  0  0  0  0  0  0  0
  161.1470  205.4970  149.1370 O   0  0  0  0  0  0  0  0  0  0  0  0
  160.8360  211.5440  150.4550 C   0  0  0  0  0  2  0  0  0  0  0  0
  161.3230  205.9920  152.6380 C   0  0  0  0  0  3  0  0  0  0  0  0
  160.8810  211.5370  151.8570 O   0  0  0  0  0  0  0  0  0  0  0  0
  161.9600  209.4860  149.6290 C   0  0  0  0  0  0  0  0  0  0  0  0
  159.6890  210.3200  153.5670 C   0  0  0  0  0  2  0  0  0  0  0  0
  160.5000  209.8870  154.7850 C   0  0  2  0  0  3  0  0  0  0  0  0
  159.7060  209.1300  155.6500 O   0  0  0  0  0  1  0  0  0  0  0  0
  161.0260  211.0850  155.5000 C   0  0  0  0  0  0  0  0  0  0  0  0
  162.1630  210.9710  156.2870 O   0  0  0  0  0  1  0  0  0  0  0  0
  160.4580  212.2030  155.3790 O   0  0  0  0  0  0  0  0  0  0  0  0
  1  2  1  0  0  0  0
  1  4  1  0  0  0  0
  2 12  1  0  0  0  0
  3  7  2  0  0  0  0
  3 14  1  0  0  0  0
  4 17  1  0  0  0  0
  5 12  1  0  0  0  0
  5 20  1  1  0  0  0
  6 13  1  0  0  0  0
  7 19  1  0  0  0  0
  8  9  1  0  0  0  0
  8  4  2  0  0  0  0
  9  6  2  0  0  0  0
 10 11  1  6  0  0  0
 10 16  1  0  0  0  0
 14  1  2  0  0  0  0
 15 14  1  0  0  0  0
 15  8  1  0  0  0  0
 16 18  1  0  0  0  0
 17 13  2  0  0  0  0
 18  5  1  0  0  0  0
 19 10  1  0  0  0  0
 19  2  2  0  0  0  0
 20 21  1  0  0  0  0
 21 23  1  0  0  0  0
 21 22  1  1  0  0  0
 23 24  1  0  0  0  0
 25 23  2  0  0  0  0
M  END
>  <MODEL>
5

>  <REMARK>
 VINA RESULT:      -6.8      3.396      6.491
  Name = 
  3 active torsions:
  status: ('A' for Active; 'I' for Inactive)
    1  A    between atoms: C_2  and  C_21
    2  A    between atoms: C_6  and  C_15
    3  A    between atoms: C_15  and  C_21
                            x       y       z     vdW  Elec       q    Type
                         _______ _______ _______ _____ _____    ______ ____

>  <TORSDO>
F 3

$$$$
