=
 OpenBabel11062408153D

 32 37  0  0  1  0  0  0  0  0999 V2000
  161.5460  208.7190  151.0810 C   0  0  0  0  0  0  0  0  0  0  0  0
  161.4850  206.6750  149.7680 C   0  0  0  0  0  0  0  0  0  0  0  0
  161.7100  210.1130  151.1230 C   0  0  0  0  0  3  0  0  0  0  0  0
  161.6940  208.0520  149.8520 C   0  0  0  0  0  0  0  0  0  0  0  0
  161.6370  206.0060  148.5450 C   0  0  0  0  0  0  0  0  0  0  0  0
  160.8510  202.3060  151.9170 C   0  0  0  0  0  2  0  0  0  0  0  0
  161.1330  205.9590  150.9170 C   0  0  0  0  0  0  0  0  0  0  0  0
  160.9390  202.4410  149.4350 C   0  0  0  0  0  2  0  0  0  0  0  0
  161.0480  203.9400  149.5700 C   0  0  0  0  0  0  0  0  0  0  0  0
  162.0210  208.7600  148.6830 C   0  0  0  0  0  0  0  0  0  0  0  0
  161.4310  204.6630  148.4800 N   0  0  0  0  0  0  0  0  0  0  0  0
  162.1590  208.0910  147.5070 N   0  0  0  0  0  0  0  0  0  0  0  0
  162.1670  210.1470  148.7360 C   0  0  0  0  0  3  0  0  0  0  0  0
  161.0040  206.6170  152.1030 N   0  0  0  0  0  0  0  0  0  0  0  0
  161.1900  207.9640  152.2170 C   0  0  0  0  0  0  0  0  0  0  0  0
  160.9300  204.5760  150.8330 C   0  0  0  0  0  0  0  0  0  0  0  0
  161.9970  206.7390  147.4120 C   0  0  0  0  0  0  0  0  0  0  0  0
  162.0110  210.8210  149.9530 C   0  0  0  0  0  3  0  0  0  0  0  0
  160.2410  201.7880  150.6250 C   0  0  0  0  0  2  0  0  0  0  0  0
  160.5360  203.7920  152.0610 C   0  0  0  0  0  2  0  0  0  0  0  0
  160.9250  208.0470  155.9920 N   0  0  0  0  0  0  0  0  0  0  0  0
  160.7120  210.8440  155.5710 C   0  0  0  0  0  1  0  0  0  0  0  0
  160.7640  206.9150  156.8930 C   0  0  0  0  0  1  0  0  0  0  0  0
  159.8750  210.6650  152.7780 C   0  0  0  0  0  1  0  0  0  0  0  0
  161.1270  208.6020  153.5820 C   0  0  1  0  0  3  0  0  0  0  0  0
  159.6430  208.7550  156.0190 C   0  0  0  0  0  2  0  0  0  0  0  0
  159.8750  209.4830  153.7420 C   0  0  1  0  0  3  0  0  0  0  0  0
  161.1300  207.4940  154.6500 C   0  0  1  0  0  3  0  0  0  0  0  0
  162.3430  206.8200  154.6000 F   0  0  0  0  0  0  0  0  0  0  0  0
  159.6620  209.9230  155.1340 N   0  0  0  0  0  0  0  0  0  0  0  0
  162.1780  206.0820  146.1930 O   0  0  0  0  0  0  0  0  0  0  0  0
  161.1040  205.8780  145.2900 C   0  0  0  0  0  1  0  0  0  0  0  0
  1  3  1  0  0  0  0
  1 15  1  0  0  0  0
  2  4  1  0  0  0  0
  2  7  1  0  0  0  0
  4  1  2  0  0  0  0
  5  2  2  0  0  0  0
  6 20  1  0  0  0  0
  7 14  1  0  0  0  0
  8  9  1  0  0  0  0
  8 19  1  0  0  0  0
  9 16  1  0  0  0  0
 10 13  2  0  0  0  0
 10  4  1  0  0  0  0
 11  5  1  0  0  0  0
 11  9  2  0  0  0  0
 12 10  1  0  0  0  0
 13 18  1  0  0  0  0
 14 15  2  0  0  0  0
 16  7  2  0  0  0  0
 16 20  1  0  0  0  0
 17 12  2  0  0  0  0
 17  5  1  0  0  0  0
 18  3  2  0  0  0  0
 19  6  1  0  0  0  0
 21 26  1  0  0  0  0
 21 23  1  0  0  0  0
 25 15  1  6  0  0  0
 25 27  1  0  0  0  0
 25 28  1  0  0  0  0
 27 24  1  6  0  0  0
 27 30  1  0  0  0  0
 28 29  1  1  0  0  0
 28 21  1  0  0  0  0
 30 22  1  0  0  0  0
 30 26  1  0  0  0  0
 31 17  1  0  0  0  0
 32 31  1  0  0  0  0
M  END
>  <MODEL>
1

>  <REMARK>
 VINA RESULT:      -7.3      0.000      0.000
  Name = 
  2 active torsions:
  status: ('A' for Active; 'I' for Inactive)
    1  A    between atoms: O_13  and  C_29
    2  A    between atoms: C_16  and  C_27
                            x       y       z     vdW  Elec       q    Type
                         _______ _______ _______ _____ _____    ______ ____

>  <TORSDO>
F 2

$$$$
=
 OpenBabel11062408153D

 32 37  0  0  1  0  0  0  0  0999 V2000
  160.9010  208.8410  152.7890 C   0  0  0  0  0  0  0  0  0  0  0  0
  161.5640  209.3550  150.5090 C   0  0  0  0  0  0  0  0  0  0  0  0
  160.7640  207.8890  153.8120 C   0  0  0  0  0  3  0  0  0  0  0  0
  161.3670  208.4250  151.5290 C   0  0  0  0  0  0  0  0  0  0  0  0
  162.0240  208.9420  149.2490 C   0  0  0  0  0  0  0  0  0  0  0  0
  160.9750  213.8650  148.6580 C   0  0  0  0  0  2  0  0  0  0  0  0
  161.2900  210.7070  150.7440 C   0  0  0  0  0  0  0  0  0  0  0  0
  162.1260  212.1300  147.2960 C   0  0  0  0  0  2  0  0  0  0  0  0
  161.9920  211.1910  148.4690 C   0  0  0  0  0  0  0  0  0  0  0  0
  161.6730  207.0760  151.2840 C   0  0  0  0  0  0  0  0  0  0  0  0
  162.2100  209.8620  148.2650 N   0  0  0  0  0  0  0  0  0  0  0  0
  162.1210  206.6980  150.0560 N   0  0  0  0  0  0  0  0  0  0  0  0
  161.5450  206.1420  152.3140 C   0  0  0  0  0  3  0  0  0  0  0  0
  160.8300  211.0940  151.9660 N   0  0  0  0  0  0  0  0  0  0  0  0
  160.6370  210.2110  152.9880 C   0  0  0  0  0  0  0  0  0  0  0  0
  161.4820  211.6390  149.7160 C   0  0  0  0  0  0  0  0  0  0  0  0
  162.2830  207.5870  149.0340 C   0  0  0  0  0  0  0  0  0  0  0  0
  161.0930  206.5500  153.5750 C   0  0  0  0  0  3  0  0  0  0  0  0
  162.1320  213.5990  147.7110 C   0  0  0  0  0  2  0  0  0  0  0  0
  161.2050  213.1020  149.9590 C   0  0  0  0  0  2  0  0  0  0  0  0
  158.3030  212.2510  155.1630 N   0  0  0  0  0  0  0  0  0  0  0  0
  159.8980  211.1990  157.2610 C   0  0  0  0  0  1  0  0  0  0  0  0
  157.3190  213.2310  154.7280 C   0  0  0  0  0  1  0  0  0  0  0  0
  162.2040  210.5510  155.5900 C   0  0  0  0  0  1  0  0  0  0  0  0
  160.0300  210.7030  154.2780 C   0  0  1  0  0  3  0  0  0  0  0  0
  159.3670  213.0210  155.8110 C   0  0  0  0  0  2  0  0  0  0  0  0
  161.0590  211.4530  155.1430 C   0  0  1  0  0  3  0  0  0  0  0  0
  158.8450  211.6270  153.9510 C   0  0  1  0  0  3  0  0  0  0  0  0
  157.8530  210.8860  153.3210 F   0  0  0  0  0  0  0  0  0  0  0  0
  160.4420  212.1480  156.2890 N   0  0  0  0  0  0  0  0  0  0  0  0
  162.7150  207.1580  147.7770 O   0  0  0  0  0  0  0  0  0  0  0  0
  161.9790  206.2110  147.0190 C   0  0  0  0  0  1  0  0  0  0  0  0
  1 15  1  0  0  0  0
  1  3  2  0  0  0  0
  2  7  1  0  0  0  0
  2  4  1  0  0  0  0
  4  1  1  0  0  0  0
  5  2  2  0  0  0  0
  6 20  1  0  0  0  0
  7 14  1  0  0  0  0
  8 19  1  0  0  0  0
  8  9  1  0  0  0  0
  9 16  1  0  0  0  0
 10  4  2  0  0  0  0
 10 13  1  0  0  0  0
 11  9  2  0  0  0  0
 11  5  1  0  0  0  0
 12 10  1  0  0  0  0
 13 18  2  0  0  0  0
 14 15  2  0  0  0  0
 16 20  1  0  0  0  0
 16  7  2  0  0  0  0
 17  5  1  0  0  0  0
 17 12  2  0  0  0  0
 18  3  1  0  0  0  0
 19  6  1  0  0  0  0
 21 26  1  0  0  0  0
 23 21  1  0  0  0  0
 25 15  1  6  0  0  0
 25 27  1  0  0  0  0
 26 30  1  0  0  0  0
 27 24  1  1  0  0  0
 27 30  1  0  0  0  0
 28 29  1  1  0  0  0
 28 25  1  0  0  0  0
 28 21  1  0  0  0  0
 30 22  1  0  0  0  0
 31 17  1  0  0  0  0
 32 31  1  0  0  0  0
M  END
>  <MODEL>
2

>  <REMARK>
 VINA RESULT:      -6.7      2.530      5.577
  Name = 
  2 active torsions:
  status: ('A' for Active; 'I' for Inactive)
    1  A    between atoms: O_13  and  C_29
    2  A    between atoms: C_16  and  C_27
                            x       y       z     vdW  Elec       q    Type
                         _______ _______ _______ _____ _____    ______ ____

>  <TORSDO>
F 2

$$$$
=
 OpenBabel11062408153D

 32 37  0  0  1  0  0  0  0  0999 V2000
  161.4380  210.2780  151.1190 C   0  0  0  0  0  0  0  0  0  0  0  0
  161.5470  207.9770  150.3490 C   0  0  0  0  0  0  0  0  0  0  0  0
  161.4980  211.6480  150.8170 C   0  0  0  0  0  3  0  0  0  0  0  0
  161.6520  209.3430  150.0910 C   0  0  0  0  0  0  0  0  0  0  0  0
  161.7650  207.0410  149.3270 C   0  0  0  0  0  0  0  0  0  0  0  0
  161.2060  204.2330  153.5080 C   0  0  0  0  0  2  0  0  0  0  0  0
  161.2320  207.5400  151.6400 C   0  0  0  0  0  0  0  0  0  0  0  0
  161.3190  203.7620  151.0680 C   0  0  0  0  0  2  0  0  0  0  0  0
  161.3150  205.2510  150.8310 C   0  0  0  0  0  0  0  0  0  0  0  0
  161.9420  209.7650  148.7830 C   0  0  0  0  0  0  0  0  0  0  0  0
  161.6590  205.7120  149.5950 N   0  0  0  0  0  0  0  0  0  0  0  0
  162.1470  208.8410  147.8060 N   0  0  0  0  0  0  0  0  0  0  0  0
  161.9850  211.1300  148.4920 C   0  0  0  0  0  3  0  0  0  0  0  0
  161.0380  208.4570  152.6280 N   0  0  0  0  0  0  0  0  0  0  0  0
  161.1220  209.8010  152.4070 C   0  0  0  0  0  0  0  0  0  0  0  0
  161.1330  206.1670  151.9000 C   0  0  0  0  0  0  0  0  0  0  0  0
  162.0860  207.4990  148.0480 C   0  0  0  0  0  0  0  0  0  0  0  0
  161.7620  212.0690  149.5080 C   0  0  0  0  0  3  0  0  0  0  0  0
  160.6550  203.3700  152.3860 C   0  0  0  0  0  2  0  0  0  0  0  0
  160.7810  205.6810  153.2840 C   0  0  0  0  0  2  0  0  0  0  0  0
  161.8130  211.1260  155.8860 N   0  0  0  0  0  0  0  0  0  0  0  0
  159.7060  212.9150  155.2480 C   0  0  0  0  0  1  0  0  0  0  0  0
  162.6720  210.5370  156.9030 C   0  0  0  0  0  1  0  0  0  0  0  0
  158.5420  211.2680  153.1340 C   0  0  0  0  0  1  0  0  0  0  0  0
  160.9930  210.7470  153.5740 C   0  0  1  0  0  3  0  0  0  0  0  0
  160.4440  210.9410  156.3710 C   0  0  0  0  0  2  0  0  0  0  0  0
  159.5630  210.7570  154.1450 C   0  0  1  0  0  3  0  0  0  0  0  0
  161.9920  210.3300  154.6670 C   0  0  1  0  0  3  0  0  0  0  0  0
  163.2850  210.4940  154.1850 F   0  0  0  0  0  0  0  0  0  0  0  0
  159.4650  211.4830  155.4250 N   0  0  0  0  0  0  0  0  0  0  0  0
  162.3330  206.5780  147.0270 O   0  0  0  0  0  0  0  0  0  0  0  0
  161.3060  206.1460  146.1490 C   0  0  0  0  0  1  0  0  0  0  0  0
  1 15  1  0  0  0  0
  2  7  1  0  0  0  0
  3  1  1  0  0  0  0
  4  2  1  0  0  0  0
  4  1  2  0  0  0  0
  5 11  1  0  0  0  0
  5  2  2  0  0  0  0
  7 16  2  0  0  0  0
  7 14  1  0  0  0  0
  8 19  1  0  0  0  0
  9  8  1  0  0  0  0
  9 16  1  0  0  0  0
 10  4  1  0  0  0  0
 11  9  2  0  0  0  0
 12 17  2  0  0  0  0
 12 10  1  0  0  0  0
 13 10  2  0  0  0  0
 13 18  1  0  0  0  0
 15 14  2  0  0  0  0
 16 20  1  0  0  0  0
 17  5  1  0  0  0  0
 18  3  2  0  0  0  0
 19  6  1  0  0  0  0
 20  6  1  0  0  0  0
 21 26  1  0  0  0  0
 21 23  1  0  0  0  0
 22 30  1  0  0  0  0
 25 15  1  6  0  0  0
 25 27  1  0  0  0  0
 25 28  1  0  0  0  0
 27 24  1  6  0  0  0
 27 30  1  0  0  0  0
 28 29  1  6  0  0  0
 28 21  1  0  0  0  0
 30 26  1  0  0  0  0
 31 17  1  0  0  0  0
 32 31  1  0  0  0  0
M  END
>  <MODEL>
3

>  <REMARK>
 VINA RESULT:      -6.5      1.692      2.030
  Name = 
  2 active torsions:
  status: ('A' for Active; 'I' for Inactive)
    1  A    between atoms: O_13  and  C_29
    2  A    between atoms: C_16  and  C_27
                            x       y       z     vdW  Elec       q    Type
                         _______ _______ _______ _____ _____    ______ ____

>  <TORSDO>
F 2

$$$$
=
 OpenBabel11062408153D

 32 37  0  0  1  0  0  0  0  0999 V2000
  160.0170  209.2760  154.7130 C   0  0  0  0  0  0  0  0  0  0  0  0
  161.0520  208.6200  152.6160 C   0  0  0  0  0  0  0  0  0  0  0  0
  159.6360  208.9350  156.0210 C   0  0  0  0  0  3  0  0  0  0  0  0
  160.6150  208.2980  153.9000 C   0  0  0  0  0  0  0  0  0  0  0  0
  161.6440  207.6440  151.8000 C   0  0  0  0  0  0  0  0  0  0  0  0
  161.2020  211.7010  148.7960 C   0  0  0  0  0  2  0  0  0  0  0  0
  160.8870  209.9240  152.1370 C   0  0  0  0  0  0  0  0  0  0  0  0
  162.3540  209.5020  148.6330 C   0  0  0  0  0  2  0  0  0  0  0  0
  161.9560  209.2440  150.0650 C   0  0  0  0  0  0  0  0  0  0  0  0
  160.8120  206.9900  154.3740 C   0  0  0  0  0  0  0  0  0  0  0  0
  162.0640  207.9750  150.5490 N   0  0  0  0  0  0  0  0  0  0  0  0
  161.3920  206.0610  153.5670 N   0  0  0  0  0  0  0  0  0  0  0  0
  160.4420  206.6670  155.6810 C   0  0  0  0  0  3  0  0  0  0  0  0
  160.2970  210.8590  152.9320 N   0  0  0  0  0  0  0  0  0  0  0  0
  159.8680  210.5800  154.1970 C   0  0  0  0  0  0  0  0  0  0  0  0
  161.3200  210.2450  150.8440 C   0  0  0  0  0  0  0  0  0  0  0  0
  161.7910  206.3470  152.2940 C   0  0  0  0  0  0  0  0  0  0  0  0
  159.8560  207.6390  156.5020 C   0  0  0  0  0  3  0  0  0  0  0  0
  162.4510  210.9900  148.3040 C   0  0  0  0  0  2  0  0  0  0  0  0
  161.1620  211.6510  150.3200 C   0  0  0  0  0  2  0  0  0  0  0  0
  157.3840  213.3850  154.7370 N   0  0  0  0  0  0  0  0  0  0  0  0
  158.6720  213.5760  157.2580 C   0  0  0  0  0  1  0  0  0  0  0  0
  156.5020  213.9880  153.7490 C   0  0  0  0  0  1  0  0  0  0  0  0
  161.1300  212.2240  156.4430 C   0  0  0  0  0  1  0  0  0  0  0  0
  159.1350  211.6420  154.9760 C   0  0  1  0  0  3  0  0  0  0  0  0
  158.3970  214.4010  155.0340 C   0  0  0  0  0  2  0  0  0  0  0  0
  160.0860  212.7500  155.4640 C   0  0  1  0  0  3  0  0  0  0  0  0
  158.0380  212.2470  154.0830 C   0  0  1  0  0  3  0  0  0  0  0  0
  157.0960  211.2670  153.7960 F   0  0  0  0  0  0  0  0  0  0  0  0
  159.3680  213.9150  156.0160 N   0  0  0  0  0  0  0  0  0  0  0  0
  162.3540  205.3580  151.4830 O   0  0  0  0  0  0  0  0  0  0  0  0
  161.5790  204.2870  150.9680 C   0  0  0  0  0  1  0  0  0  0  0  0
  1  3  2  0  0  0  0
  2  4  1  0  0  0  0
  3 18  1  0  0  0  0
  4 10  2  0  0  0  0
  4  1  1  0  0  0  0
  5 17  1  0  0  0  0
  5  2  2  0  0  0  0
  6 20  1  0  0  0  0
  7  2  1  0  0  0  0
  7 14  1  0  0  0  0
  8  9  1  0  0  0  0
  9 11  2  0  0  0  0
  9 16  1  0  0  0  0
 10 13  1  0  0  0  0
 11  5  1  0  0  0  0
 12 10  1  0  0  0  0
 13 18  2  0  0  0  0
 14 15  2  0  0  0  0
 15  1  1  0  0  0  0
 16  7  2  0  0  0  0
 17 12  2  0  0  0  0
 19  8  1  0  0  0  0
 19  6  1  0  0  0  0
 20 16  1  0  0  0  0
 21 26  1  0  0  0  0
 23 21  1  0  0  0  0
 25 15  1  6  0  0  0
 25 27  1  0  0  0  0
 26 30  1  0  0  0  0
 27 30  1  0  0  0  0
 27 24  1  1  0  0  0
 28 29  1  1  0  0  0
 28 21  1  0  0  0  0
 28 25  1  0  0  0  0
 30 22  1  0  0  0  0
 31 17  1  0  0  0  0
 32 31  1  0  0  0  0
M  END
>  <MODEL>
4

>  <REMARK>
 VINA RESULT:      -6.1      2.613      5.930
  Name = 
  2 active torsions:
  status: ('A' for Active; 'I' for Inactive)
    1  A    between atoms: O_13  and  C_29
    2  A    between atoms: C_16  and  C_27
                            x       y       z     vdW  Elec       q    Type
                         _______ _______ _______ _____ _____    ______ ____

>  <TORSDO>
F 2

$$$$
=
 OpenBabel11062408153D

 32 37  0  0  1  0  0  0  0  0999 V2000
  161.3500  208.1560  150.8220 C   0  0  0  0  0  0  0  0  0  0  0  0
  161.4650  206.2000  149.3860 C   0  0  0  0  0  0  0  0  0  0  0  0
  161.5050  209.5440  150.9740 C   0  0  0  0  0  3  0  0  0  0  0  0
  161.6590  207.5670  149.5840 C   0  0  0  0  0  0  0  0  0  0  0  0
  161.7780  205.6080  148.1530 C   0  0  0  0  0  0  0  0  0  0  0  0
  160.5580  201.7090  151.1510 C   0  0  0  0  0  2  0  0  0  0  0  0
  160.9660  205.4150  150.4310 C   0  0  0  0  0  0  0  0  0  0  0  0
  160.9730  202.0000  148.7160 C   0  0  0  0  0  2  0  0  0  0  0  0
  161.0610  203.4860  148.9590 C   0  0  0  0  0  0  0  0  0  0  0  0
  162.1360  208.3450  148.5160 C   0  0  0  0  0  0  0  0  0  0  0  0
  161.5840  204.2740  147.9770 N   0  0  0  0  0  0  0  0  0  0  0  0
  162.4300  207.7500  147.3280 N   0  0  0  0  0  0  0  0  0  0  0  0
  162.2730  209.7250  148.6750 C   0  0  0  0  0  3  0  0  0  0  0  0
  160.6800  205.9980  151.6280 N   0  0  0  0  0  0  0  0  0  0  0  0
  160.8480  207.3340  151.8510 C   0  0  0  0  0  0  0  0  0  0  0  0
  160.7770  204.0410  150.2330 C   0  0  0  0  0  0  0  0  0  0  0  0
  162.2840  206.4090  147.1270 C   0  0  0  0  0  0  0  0  0  0  0  0
  161.9560  210.3220  149.9020 C   0  0  0  0  0  3  0  0  0  0  0  0
  160.1250  201.2780  149.7600 C   0  0  0  0  0  2  0  0  0  0  0  0
  160.2260  203.1850  151.3470 C   0  0  0  0  0  2  0  0  0  0  0  0
  160.5530  210.0120  154.5100 N   0  0  0  0  0  0  0  0  0  0  0  0
  160.3360  207.7790  156.2460 C   0  0  0  0  0  1  0  0  0  0  0  0
  160.7770  211.4420  154.3550 C   0  0  0  0  0  1  0  0  0  0  0  0
  161.5810  205.8620  154.4270 C   0  0  0  0  0  1  0  0  0  0  0  0
  160.6040  207.8840  153.2330 C   0  0  1  0  0  3  0  0  0  0  0  0
  161.6750  209.5230  155.3150 C   0  0  0  0  0  2  0  0  0  0  0  0
  161.6480  207.3740  154.2430 C   0  0  1  0  0  3  0  0  0  0  0  0
  160.6410  209.4210  153.1710 C   0  0  1  0  0  3  0  0  0  0  0  0
  159.5820  209.8680  152.3910 F   0  0  0  0  0  0  0  0  0  0  0  0
  161.5800  208.0780  155.5380 N   0  0  0  0  0  0  0  0  0  0  0  0
  162.6250  205.8280  145.9030 O   0  0  0  0  0  0  0  0  0  0  0  0
  161.6530  205.5760  144.9010 C   0  0  0  0  0  1  0  0  0  0  0  0
  1  3  1  0  0  0  0
  1 15  1  0  0  0  0
  2  4  1  0  0  0  0
  2  7  1  0  0  0  0
  4  1  2  0  0  0  0
  5  2  2  0  0  0  0
  6 20  1  0  0  0  0
  7 14  1  0  0  0  0
  8  9  1  0  0  0  0
  8 19  1  0  0  0  0
  9 16  1  0  0  0  0
 10 13  2  0  0  0  0
 10  4  1  0  0  0  0
 11  5  1  0  0  0  0
 11  9  2  0  0  0  0
 12 10  1  0  0  0  0
 13 18  1  0  0  0  0
 14 15  2  0  0  0  0
 16  7  2  0  0  0  0
 16 20  1  0  0  0  0
 17 12  2  0  0  0  0
 17  5  1  0  0  0  0
 18  3  2  0  0  0  0
 19  6  1  0  0  0  0
 21 26  1  0  0  0  0
 23 21  1  0  0  0  0
 25 15  1  6  0  0  0
 25 27  1  0  0  0  0
 26 30  1  0  0  0  0
 27 24  1  1  0  0  0
 27 30  1  0  0  0  0
 28 29  1  6  0  0  0
 28 25  1  0  0  0  0
 28 21  1  0  0  0  0
 30 22  1  0  0  0  0
 31 17  1  0  0  0  0
 32 31  1  0  0  0  0
M  END
>  <MODEL>
5

>  <REMARK>
 VINA RESULT:      -6.1      1.188      2.032
  Name = 
  2 active torsions:
  status: ('A' for Active; 'I' for Inactive)
    1  A    between atoms: O_13  and  C_29
    2  A    between atoms: C_16  and  C_27
                            x       y       z     vdW  Elec       q    Type
                         _______ _______ _______ _____ _____    ______ ____

>  <TORSDO>
F 2

$$$$
=
 OpenBabel11062408153D

 32 37  0  0  1  0  0  0  0  0999 V2000
  161.5070  210.0800  151.5150 C   0  0  0  0  0  0  0  0  0  0  0  0
  161.4340  207.7120  150.9770 C   0  0  0  0  0  0  0  0  0  0  0  0
  161.5320  211.0870  152.4930 C   0  0  0  0  0  3  0  0  0  0  0  0
  161.4090  208.7380  151.9220 C   0  0  0  0  0  0  0  0  0  0  0  0
  161.3310  206.3720  151.3790 C   0  0  0  0  0  0  0  0  0  0  0  0
  161.2120  206.1820  146.3170 C   0  0  0  0  0  2  0  0  0  0  0  0
  161.5510  208.0260  149.6190 C   0  0  0  0  0  0  0  0  0  0  0  0
  161.4260  204.5040  148.1410 C   0  0  0  0  0  2  0  0  0  0  0  0
  161.5100  205.6500  149.1180 C   0  0  0  0  0  0  0  0  0  0  0  0
  161.3170  208.4030  153.2830 C   0  0  0  0  0  0  0  0  0  0  0  0
  161.3560  205.3840  150.4460 N   0  0  0  0  0  0  0  0  0  0  0  0
  161.2220  207.0960  153.6510 N   0  0  0  0  0  0  0  0  0  0  0  0
  161.3590  209.4120  154.2460 C   0  0  0  0  0  3  0  0  0  0  0  0
  161.6340  209.3310  149.2390 N   0  0  0  0  0  0  0  0  0  0  0  0
  161.6240  210.3580  150.1380 C   0  0  0  0  0  0  0  0  0  0  0  0
  161.5700  206.9960  148.6710 C   0  0  0  0  0  0  0  0  0  0  0  0
  161.2060  206.0810  152.7390 C   0  0  0  0  0  0  0  0  0  0  0  0
  161.4670  210.7520  153.8500 C   0  0  0  0  0  3  0  0  0  0  0  0
  161.8870  204.8870  146.7370 C   0  0  0  0  0  2  0  0  0  0  0  0
  161.7100  207.3190  147.2040 C   0  0  0  0  0  2  0  0  0  0  0  0
  160.0910  213.6590  149.0950 N   0  0  0  0  0  0  0  0  0  0  0  0
  162.7370  214.2240  148.2440 C   0  0  0  0  0  1  0  0  0  0  0  0
  158.6780  214.0050  149.0580 C   0  0  0  0  0  1  0  0  0  0  0  0
  163.6000  211.4390  148.0730 C   0  0  0  0  0  1  0  0  0  0  0  0
  161.6190  211.7780  149.6320 C   0  0  1  0  0  3  0  0  0  0  0  0
  160.5090  213.5610  147.6950 C   0  0  0  0  0  2  0  0  0  0  0  0
  162.1420  211.8710  148.1880 C   0  0  1  0  0  3  0  0  0  0  0  0
  160.1850  212.3300  149.7080 C   0  0  1  0  0  3  0  0  0  0  0  0
  159.7970  212.3990  151.0400 F   0  0  0  0  0  0  0  0  0  0  0  0
  161.9250  213.2010  147.5860 N   0  0  0  0  0  0  0  0  0  0  0  0
  161.0760  204.7530  153.1520 O   0  0  0  0  0  0  0  0  0  0  0  0
  160.7690  203.7140  152.2360 C   0  0  0  0  0  1  0  0  0  0  0  0
  1  4  1  0  0  0  0
  1  3  2  0  0  0  0
  2  5  1  0  0  0  0
  2  4  1  0  0  0  0
  3 18  1  0  0  0  0
  4 10  2  0  0  0  0
  5 17  1  0  0  0  0
  6 19  1  0  0  0  0
  6 20  1  0  0  0  0
  7  2  2  0  0  0  0
  8  9  1  0  0  0  0
  9 11  1  0  0  0  0
 10 12  1  0  0  0  0
 10 13  1  0  0  0  0
 11  5  2  0  0  0  0
 14  7  1  0  0  0  0
 14 15  2  0  0  0  0
 15  1  1  0  0  0  0
 16  9  2  0  0  0  0
 16  7  1  0  0  0  0
 17 31  1  0  0  0  0
 17 12  2  0  0  0  0
 18 13  2  0  0  0  0
 19  8  1  0  0  0  0
 20 16  1  0  0  0  0
 21 28  1  0  0  0  0
 23 21  1  0  0  0  0
 25 28  1  0  0  0  0
 25 15  1  6  0  0  0
 26 21  1  0  0  0  0
 27 24  1  1  0  0  0
 27 25  1  0  0  0  0
 28 29  1  1  0  0  0
 30 26  1  0  0  0  0
 30 27  1  0  0  0  0
 30 22  1  0  0  0  0
 32 31  1  0  0  0  0
M  END
>  <MODEL>
6

>  <REMARK>
 VINA RESULT:      -5.0      2.889      5.770
  Name = 
  2 active torsions:
  status: ('A' for Active; 'I' for Inactive)
    1  A    between atoms: O_13  and  C_29
    2  A    between atoms: C_16  and  C_27
                            x       y       z     vdW  Elec       q    Type
                         _______ _______ _______ _____ _____    ______ ____

>  <TORSDO>
F 2

$$$$
=
 OpenBabel11062408153D

 32 37  0  0  1  0  0  0  0  0999 V2000
  161.1010  204.7410  149.6110 C   0  0  0  0  0  0  0  0  0  0  0  0
  161.3390  206.7410  150.9700 C   0  0  0  0  0  0  0  0  0  0  0  0
  160.8910  203.3550  149.5450 C   0  0  0  0  0  3  0  0  0  0  0  0
  161.1830  205.3590  150.8710 C   0  0  0  0  0  0  0  0  0  0  0  0
  161.4270  207.3600  152.2260 C   0  0  0  0  0  0  0  0  0  0  0  0
  162.3250  211.0910  148.9170 C   0  0  0  0  0  2  0  0  0  0  0  0
  161.4200  207.5120  149.8050 C   0  0  0  0  0  0  0  0  0  0  0  0
  161.8950  210.9690  151.3640 C   0  0  0  0  0  2  0  0  0  0  0  0
  161.6220  209.4950  151.1920 C   0  0  0  0  0  0  0  0  0  0  0  0
  161.0770  204.6040  152.0510 C   0  0  0  0  0  0  0  0  0  0  0  0
  161.5800  208.7090  152.3040 N   0  0  0  0  0  0  0  0  0  0  0  0
  161.1610  205.2250  153.2590 N   0  0  0  0  0  0  0  0  0  0  0  0
  160.8540  203.2280  151.9720 C   0  0  0  0  0  3  0  0  0  0  0  0
  161.3490  206.8980  148.5910 N   0  0  0  0  0  0  0  0  0  0  0  0
  161.1860  205.5500  148.4600 C   0  0  0  0  0  0  0  0  0  0  0  0
  161.5830  208.8990  149.9040 C   0  0  0  0  0  0  0  0  0  0  0  0
  161.3530  206.5710  153.3760 C   0  0  0  0  0  0  0  0  0  0  0  0
  160.7600  202.6060  150.7210 C   0  0  0  0  0  3  0  0  0  0  0  0
  161.6400  211.7710  150.0910 C   0  0  0  0  0  2  0  0  0  0  0  0
  161.6570  209.7440  148.6570 C   0  0  0  0  0  2  0  0  0  0  0  0
  162.7850  204.0990  145.3500 N   0  0  0  0  0  0  0  0  0  0  0  0
  160.1290  204.1980  144.3570 C   0  0  0  0  0  1  0  0  0  0  0  0
  164.2060  203.9530  145.0720 C   0  0  0  0  0  1  0  0  0  0  0  0
  159.1730  206.2030  146.2550 C   0  0  0  0  0  1  0  0  0  0  0  0
  161.2180  204.9360  147.0830 C   0  0  1  0  0  3  0  0  0  0  0  0
  162.3150  205.1580  144.4540 C   0  0  0  0  0  2  0  0  0  0  0  0
  160.6470  205.8910  146.0190 C   0  0  1  0  0  3  0  0  0  0  0  0
  162.6700  204.5680  146.7350 C   0  0  1  0  0  3  0  0  0  0  0  0
  163.1070  203.5770  147.6040 F   0  0  0  0  0  0  0  0  0  0  0  0
  160.8850  205.4180  144.6420 N   0  0  0  0  0  0  0  0  0  0  0  0
  161.4660  207.1700  154.6320 O   0  0  0  0  0  0  0  0  0  0  0  0
  160.3440  207.3270  155.4860 C   0  0  0  0  0  1  0  0  0  0  0  0
  1  4  1  0  0  0  0
  2  5  1  0  0  0  0
  3  1  2  0  0  0  0
  3 18  1  0  0  0  0
  4  2  1  0  0  0  0
  4 10  2  0  0  0  0
  5 11  2  0  0  0  0
  5 17  1  0  0  0  0
  6 19  1  0  0  0  0
  7 16  1  0  0  0  0
  7  2  2  0  0  0  0
  9  8  1  0  0  0  0
  9 11  1  0  0  0  0
 10 12  1  0  0  0  0
 12 17  2  0  0  0  0
 13 10  1  0  0  0  0
 14  7  1  0  0  0  0
 15 14  2  0  0  0  0
 15  1  1  0  0  0  0
 16  9  2  0  0  0  0
 17 31  1  0  0  0  0
 18 13  2  0  0  0  0
 19  8  1  0  0  0  0
 20  6  1  0  0  0  0
 20 16  1  0  0  0  0
 21 28  1  0  0  0  0
 22 30  1  0  0  0  0
 23 21  1  0  0  0  0
 25 15  1  1  0  0  0
 26 30  1  0  0  0  0
 26 21  1  0  0  0  0
 27 24  1  1  0  0  0
 27 25  1  0  0  0  0
 28 25  1  0  0  0  0
 28 29  1  1  0  0  0
 30 27  1  0  0  0  0
 31 32  1  0  0  0  0
M  END
>  <MODEL>
7

>  <REMARK>
 VINA RESULT:      -4.9      2.638      7.946
  Name = 
  2 active torsions:
  status: ('A' for Active; 'I' for Inactive)
    1  A    between atoms: O_13  and  C_29
    2  A    between atoms: C_16  and  C_27
                            x       y       z     vdW  Elec       q    Type
                         _______ _______ _______ _____ _____    ______ ____

>  <TORSDO>
F 2

$$$$
