=
 OpenBabel11062410513D

 32 35  0  0  1  0  0  0  0  0999 V2000
  161.4830  207.1070  152.3870 C   0  0  0  0  0  0  0  0  0  0  0  0
  161.8330  210.8670  148.3110 O   0  0  0  0  0  0  0  0  0  0  0  0
  162.5270  211.6110  149.2760 C   0  0  0  0  0  2  0  0  0  0  0  0
  160.7220  204.5600  151.5240 C   0  0  0  0  0  0  0  0  0  0  0  0
  161.2210  206.8640  150.9960 N   0  0  0  0  0  0  0  0  0  0  0  0
  162.1850  209.5250  148.5290 C   0  0  0  0  0  2  0  0  0  0  0  0
  162.0150  207.5780  150.0010 C   0  0  0  0  0  2  0  0  0  0  0  0
  161.5540  209.0080  149.8240 C   0  0  1  0  0  3  0  0  0  0  0  0
  161.1270  209.5520  152.2430 C   0  0  1  0  0  3  0  0  0  0  0  0
  160.6980  205.5720  150.6250 C   0  0  0  0  0  0  0  0  0  0  0  0
  161.2550  204.7760  152.8430 N   0  0  0  0  0  0  0  0  0  0  0  0
  161.9040  211.3630  150.6450 C   0  0  0  0  0  2  0  0  0  0  0  0
  162.0030  209.8720  151.0150 C   0  0  2  0  0  3  0  0  0  0  0  0
  161.6100  205.9490  153.2730 C   0  0  0  0  0  3  0  0  0  0  0  0
  161.4970  208.2990  152.9040 N   0  0  0  0  0  0  0  0  0  0  0  0
  161.5470  211.2470  155.7030 C   0  0  0  0  0  0  0  0  0  0  0  0
  160.4350  211.9760  155.7820 C   0  0  0  0  0  3  0  0  0  0  0  0
  159.7200  211.1880  153.5080 N   0  0  0  0  0  0  0  0  0  0  0  0
  158.3200  212.4860  154.8730 O   0  0  0  0  0  0  0  0  0  0  0  0
  159.4260  211.9030  154.7190 C   0  0  0  0  0  0  0  0  0  0  0  0
  161.7330  210.2340  154.6110 C   0  0  0  0  0  2  0  0  0  0  0  0
  162.4740  211.3380  156.6870 F   0  0  0  0  0  0  0  0  0  0  0  0
  158.7870  211.2820  152.3890 C   0  0  0  0  0  1  0  0  0  0  0  0
  161.0860  210.6840  153.2890 C   0  0  1  0  0  3  0  0  0  0  0  0
  161.3030  205.0410  148.2770 C   0  0  0  0  0  1  0  0  0  0  0  0
  160.1690  205.3570  149.2350 C   0  0  0  0  0  2  0  0  0  0  0  0
  160.2390  203.1860  151.1710 C   0  0  0  0  0  2  0  0  0  0  0  0
  162.2760  201.8620  151.7080 C   0  0  0  0  0  1  0  0  0  0  0  0
  161.3660  202.3460  150.5920 C   0  0  1  0  0  3  0  0  0  0  0  0
  160.7710  201.1590  149.8520 C   0  0  0  0  0  2  0  0  0  0  0  0
  161.4960  200.9090  148.5390 C   0  0  0  0  0  2  0  0  0  0  0  0
  160.7650  201.5700  147.3870 C   0  0  0  0  0  1  0  0  0  0  0  0
  1 15  2  0  0  0  0
  1 14  1  0  0  0  0
  2  6  1  0  0  0  0
  2  3  1  0  0  0  0
  3 12  1  0  0  0  0
  4 11  1  0  0  0  0
  5  1  1  0  0  0  0
  7  5  1  0  0  0  0
  8  6  1  6  0  0  0
  8  7  1  0  0  0  0
  8 13  1  0  0  0  0
  9 15  1  1  0  0  0
  9 24  1  0  0  0  0
 10  5  1  0  0  0  0
 10  4  2  0  0  0  0
 11 14  2  0  0  0  0
 13 12  1  6  0  0  0
 13  9  1  0  0  0  0
 16 17  2  0  0  0  0
 16 22  1  0  0  0  0
 18 20  1  0  0  0  0
 20 19  2  0  0  0  0
 20 17  1  0  0  0  0
 21 16  1  0  0  0  0
 23 18  1  0  0  0  0
 24 18  1  0  0  0  0
 24 21  1  1  0  0  0
 25 26  1  0  0  0  0
 26 10  1  0  0  0  0
 27  4  1  0  0  0  0
 29 27  1  0  0  0  0
 29 28  1  1  0  0  0
 30 29  1  0  0  0  0
 31 30  1  0  0  0  0
 32 31  1  0  0  0  0
M  END
>  <MODEL>
1

>  <REMARK>
 VINA RESULT:      -6.7      0.000      0.000
  Name = 
  6 active torsions:
  status: ('A' for Active; 'I' for Inactive)
    1  A    between atoms: C_1  and  C_10
    2  A    between atoms: C_8  and  C_19
    3  A    between atoms: C_10  and  C_24
    4  A    between atoms: C_12  and  C_21
    5  A    between atoms: C_16  and  C_32
    6  A    between atoms: C_19  and  C_24
                            x       y       z     vdW  Elec       q    Type
                         _______ _______ _______ _____ _____    ______ ____

>  <TORSDO>
F 6

$$$$
=
 OpenBabel11062410513D

 32 35  0  0  1  0  0  0  0  0999 V2000
  161.6230  206.0950  151.3160 C   0  0  0  0  0  0  0  0  0  0  0  0
  161.9340  211.1100  148.9450 O   0  0  0  0  0  0  0  0  0  0  0  0
  162.6370  211.4400  150.1130 C   0  0  0  0  0  2  0  0  0  0  0  0
  160.8530  204.0550  149.5670 C   0  0  0  0  0  0  0  0  0  0  0  0
  161.3480  206.3900  149.9370 N   0  0  0  0  0  0  0  0  0  0  0  0
  162.2880  209.7860  148.6410 C   0  0  0  0  0  2  0  0  0  0  0  0
  162.1320  207.4270  149.2770 C   0  0  0  0  0  2  0  0  0  0  0  0
  161.6700  208.8190  149.6530 C   0  0  1  0  0  3  0  0  0  0  0  0
  161.2650  208.4140  152.1030 C   0  0  1  0  0  3  0  0  0  0  0  0
  160.8210  205.3290  149.1140 C   0  0  0  0  0  0  0  0  0  0  0  0
  161.3990  203.7610  150.8670 N   0  0  0  0  0  0  0  0  0  0  0  0
  162.0270  210.6950  151.2940 C   0  0  0  0  0  2  0  0  0  0  0  0
  162.1300  209.1730  151.0770 C   0  0  2  0  0  3  0  0  0  0  0  0
  161.7580  204.6890  151.7020 C   0  0  0  0  0  3  0  0  0  0  0  0
  161.6420  207.0050  152.2420 N   0  0  0  0  0  0  0  0  0  0  0  0
  161.2560  208.5990  155.9750 C   0  0  0  0  0  0  0  0  0  0  0  0
  160.3350  209.5360  156.1960 C   0  0  0  0  0  3  0  0  0  0  0  0
  159.9940  209.8290  153.7260 N   0  0  0  0  0  0  0  0  0  0  0  0
  158.6340  210.9060  155.3080 O   0  0  0  0  0  0  0  0  0  0  0  0
  159.5970  210.1270  155.0750 C   0  0  0  0  0  0  0  0  0  0  0  0
  161.4600  208.0240  154.6030 C   0  0  0  0  0  2  0  0  0  0  0  0
  161.9380  208.0750  157.0210 F   0  0  0  0  0  0  0  0  0  0  0  0
  159.3760  210.5670  152.6300 C   0  0  0  0  0  1  0  0  0  0  0  0
  161.2350  209.0700  153.4980 C   0  0  1  0  0  3  0  0  0  0  0  0
  161.3790  205.5690  146.7070 C   0  0  0  0  0  1  0  0  0  0  0  0
  160.2780  205.6500  147.7500 C   0  0  0  0  0  2  0  0  0  0  0  0
  160.3670  202.9120  148.7290 C   0  0  0  0  0  2  0  0  0  0  0  0
  160.9900  200.7830  149.8570 C   0  0  0  0  0  1  0  0  0  0  0  0
  161.3590  201.7600  148.7530 C   0  0  1  0  0  3  0  0  0  0  0  0
  161.3360  201.0570  147.4060 C   0  0  0  0  0  2  0  0  0  0  0  0
  160.9250  202.0110  146.2950 C   0  0  0  0  0  2  0  0  0  0  0  0
  160.0980  201.2920  145.2470 C   0  0  0  0  0  1  0  0  0  0  0  0
  1 14  1  0  0  0  0
  1 15  2  0  0  0  0
  2  3  1  0  0  0  0
  3 12  1  0  0  0  0
  4 11  1  0  0  0  0
  5  1  1  0  0  0  0
  6  2  1  0  0  0  0
  7  8  1  0  0  0  0
  7  5  1  0  0  0  0
  8  6  1  6  0  0  0
  8 13  1  0  0  0  0
  9 15  1  1  0  0  0
  9 24  1  0  0  0  0
 10  4  2  0  0  0  0
 10  5  1  0  0  0  0
 11 14  2  0  0  0  0
 13 12  1  1  0  0  0
 13  9  1  0  0  0  0
 16 17  2  0  0  0  0
 16 22  1  0  0  0  0
 18 20  1  0  0  0  0
 20 19  2  0  0  0  0
 20 17  1  0  0  0  0
 21 16  1  0  0  0  0
 23 18  1  0  0  0  0
 24 18  1  0  0  0  0
 24 21  1  1  0  0  0
 25 26  1  0  0  0  0
 26 10  1  0  0  0  0
 27 29  1  0  0  0  0
 27  4  1  0  0  0  0
 29 28  1  1  0  0  0
 30 29  1  0  0  0  0
 31 30  1  0  0  0  0
 32 31  1  0  0  0  0
M  END
>  <MODEL>
2

>  <REMARK>
 VINA RESULT:      -6.3      1.504      1.819
  Name = 
  6 active torsions:
  status: ('A' for Active; 'I' for Inactive)
    1  A    between atoms: C_1  and  C_10
    2  A    between atoms: C_8  and  C_19
    3  A    between atoms: C_10  and  C_24
    4  A    between atoms: C_12  and  C_21
    5  A    between atoms: C_16  and  C_32
    6  A    between atoms: C_19  and  C_24
                            x       y       z     vdW  Elec       q    Type
                         _______ _______ _______ _____ _____    ______ ____

>  <TORSDO>
F 6

$$$$
=
 OpenBabel11062410513D

 32 35  0  0  1  0  0  0  0  0999 V2000
  161.8570  207.5720  151.5770 C   0  0  0  0  0  0  0  0  0  0  0  0
  161.3130  211.9200  148.1610 O   0  0  0  0  0  0  0  0  0  0  0  0
  162.0110  212.5960  149.1720 C   0  0  0  0  0  2  0  0  0  0  0  0
  161.3200  205.1060  150.3740 C   0  0  0  0  0  0  0  0  0  0  0  0
  161.4790  207.5100  150.1920 N   0  0  0  0  0  0  0  0  0  0  0  0
  161.8450  210.6220  148.1230 C   0  0  0  0  0  2  0  0  0  0  0  0
  162.0700  208.4680  149.2640 C   0  0  0  0  0  2  0  0  0  0  0  0
  161.4230  209.8330  149.3650 C   0  0  1  0  0  3  0  0  0  0  0  0
  161.1950  209.9390  151.8690 C   0  0  1  0  0  3  0  0  0  0  0  0
  161.0780  206.2300  149.6600 C   0  0  0  0  0  0  0  0  0  0  0  0
  161.9610  205.1890  151.6600 N   0  0  0  0  0  0  0  0  0  0  0  0
  161.5730  212.0610  150.5300 C   0  0  0  0  0  2  0  0  0  0  0  0
  161.8900  210.5580  150.6390 C   0  0  2  0  0  3  0  0  0  0  0  0
  162.2160  206.3200  152.2450 C   0  0  0  0  0  3  0  0  0  0  0  0
  161.7830  208.6620  152.2790 N   0  0  0  0  0  0  0  0  0  0  0  0
  161.7190  211.1020  155.5280 C   0  0  0  0  0  0  0  0  0  0  0  0
  160.5550  211.6930  155.7910 C   0  0  0  0  0  3  0  0  0  0  0  0
  159.7450  211.2040  153.4660 N   0  0  0  0  0  0  0  0  0  0  0  0
  158.3390  212.1220  155.1070 O   0  0  0  0  0  0  0  0  0  0  0  0
  159.4790  211.6860  154.7930 C   0  0  0  0  0  0  0  0  0  0  0  0
  161.9130  210.2980  154.2760 C   0  0  0  0  0  2  0  0  0  0  0  0
  162.7050  211.1320  156.4570 F   0  0  0  0  0  0  0  0  0  0  0  0
  158.7260  211.3770  152.4350 C   0  0  0  0  0  1  0  0  0  0  0  0
  161.1310  210.8820  153.0870 C   0  0  1  0  0  3  0  0  0  0  0  0
  161.4680  205.8480  147.2380 C   0  0  0  0  0  1  0  0  0  0  0  0
  160.4330  206.1600  148.3050 C   0  0  0  0  0  2  0  0  0  0  0  0
  160.9710  203.7490  149.8430 C   0  0  0  0  0  2  0  0  0  0  0  0
  160.4640  202.9770  152.1540 C   0  0  0  0  0  1  0  0  0  0  0  0
  161.2400  202.6730  150.8830 C   0  0  1  0  0  3  0  0  0  0  0  0
  160.8160  201.3250  150.3240 C   0  0  0  0  0  2  0  0  0  0  0  0
  160.4950  201.4220  148.8400 C   0  0  0  0  0  2  0  0  0  0  0  0
  161.4110  200.5230  148.0330 C   0  0  0  0  0  1  0  0  0  0  0  0
  1 14  1  0  0  0  0
  1 15  2  0  0  0  0
  2  3  1  0  0  0  0
  3 12  1  0  0  0  0
  4 11  1  0  0  0  0
  5  1  1  0  0  0  0
  6  2  1  0  0  0  0
  7  8  1  0  0  0  0
  7  5  1  0  0  0  0
  8  6  1  6  0  0  0
  8 13  1  0  0  0  0
  9 15  1  1  0  0  0
  9 24  1  0  0  0  0
 10  5  1  0  0  0  0
 10  4  2  0  0  0  0
 11 14  2  0  0  0  0
 13 12  1  6  0  0  0
 13  9  1  0  0  0  0
 16 17  2  0  0  0  0
 16 22  1  0  0  0  0
 18 20  1  0  0  0  0
 20 19  2  0  0  0  0
 20 17  1  0  0  0  0
 21 16  1  0  0  0  0
 23 18  1  0  0  0  0
 24 18  1  0  0  0  0
 24 21  1  1  0  0  0
 25 26  1  0  0  0  0
 26 10  1  0  0  0  0
 27  4  1  0  0  0  0
 27 29  1  0  0  0  0
 29 28  1  1  0  0  0
 30 29  1  0  0  0  0
 31 30  1  0  0  0  0
 32 31  1  0  0  0  0
M  END
>  <MODEL>
3

>  <REMARK>
 VINA RESULT:      -6.2      0.922      1.016
  Name = 
  6 active torsions:
  status: ('A' for Active; 'I' for Inactive)
    1  A    between atoms: C_1  and  C_10
    2  A    between atoms: C_8  and  C_19
    3  A    between atoms: C_10  and  C_24
    4  A    between atoms: C_12  and  C_21
    5  A    between atoms: C_16  and  C_32
    6  A    between atoms: C_19  and  C_24
                            x       y       z     vdW  Elec       q    Type
                         _______ _______ _______ _____ _____    ______ ____

>  <TORSDO>
F 6

$$$$
=
 OpenBabel11062410513D

 32 35  0  0  1  0  0  0  0  0999 V2000
  161.8950  207.7390  149.0430 C   0  0  0  0  0  0  0  0  0  0  0  0
  160.6050  203.8770  152.8240 O   0  0  0  0  0  0  0  0  0  0  0  0
  161.1620  203.0010  151.8820 C   0  0  0  0  0  2  0  0  0  0  0  0
  161.8190  210.3570  150.0180 C   0  0  0  0  0  0  0  0  0  0  0  0
  161.5450  207.9900  150.4130 N   0  0  0  0  0  0  0  0  0  0  0  0
  161.3620  205.0570  152.7510 C   0  0  0  0  0  2  0  0  0  0  0  0
  161.9610  207.0270  151.4270 C   0  0  0  0  0  2  0  0  0  0  0  0
  161.0800  205.7970  151.4410 C   0  0  1  0  0  3  0  0  0  0  0  0
  160.8170  205.5130  148.9540 C   0  0  1  0  0  3  0  0  0  0  0  0
  161.3850  209.3630  150.8270 C   0  0  0  0  0  0  0  0  0  0  0  0
  162.4260  210.0480  148.7500 N   0  0  0  0  0  0  0  0  0  0  0  0
  160.8170  203.4840  150.4780 C   0  0  0  0  0  2  0  0  0  0  0  0
  161.3980  204.8900  150.2400 C   0  0  2  0  0  3  0  0  0  0  0  0
  162.4690  208.8420  148.2690 C   0  0  0  0  0  3  0  0  0  0  0  0
  161.6210  206.6230  148.4380 N   0  0  0  0  0  0  0  0  0  0  0  0
  161.3310  202.2830  146.8750 C   0  0  0  0  0  0  0  0  0  0  0  0
  161.2460  202.7500  145.6300 C   0  0  0  0  0  3  0  0  0  0  0  0
  160.8290  205.0700  146.4930 N   0  0  0  0  0  0  0  0  0  0  0  0
  161.1460  204.6290  144.2090 O   0  0  0  0  0  0  0  0  0  0  0  0
  161.0830  204.1870  145.3880 C   0  0  0  0  0  0  0  0  0  0  0  0
  161.4050  203.2180  148.0470 C   0  0  0  0  0  2  0  0  0  0  0  0
  161.4670  200.9510  147.0790 F   0  0  0  0  0  0  0  0  0  0  0  0
  160.4820  206.4610  146.2200 C   0  0  0  0  0  1  0  0  0  0  0  0
  160.5740  204.4930  147.8240 C   0  0  1  0  0  3  0  0  0  0  0  0
  161.8490  210.0420  153.1690 C   0  0  0  0  0  1  0  0  0  0  0  0
  160.7730  209.6670  152.1650 C   0  0  0  0  0  2  0  0  0  0  0  0
  161.7240  211.7960  150.4250 C   0  0  0  0  0  2  0  0  0  0  0  0
  159.8580  213.4270  150.2030 C   0  0  0  0  0  1  0  0  0  0  0  0
  160.8670  212.5820  149.4450 C   0  0  1  0  0  3  0  0  0  0  0  0
  161.7660  213.4740  148.6040 C   0  0  0  0  0  2  0  0  0  0  0  0
  161.7260  213.0690  147.1380 C   0  0  0  0  0  2  0  0  0  0  0  0
  160.4280  212.3550  146.8130 C   0  0  0  0  0  1  0  0  0  0  0  0
  1  5  1  0  0  0  0
  3  2  1  0  0  0  0
  4 27  1  0  0  0  0
  4 10  2  0  0  0  0
  5 10  1  0  0  0  0
  5  7  1  0  0  0  0
  6  2  1  0  0  0  0
  8  7  1  6  0  0  0
  8  6  1  0  0  0  0
  9 15  1  6  0  0  0
  9 13  1  0  0  0  0
 10 26  1  0  0  0  0
 11  4  1  0  0  0  0
 12  3  1  0  0  0  0
 13 12  1  1  0  0  0
 13  8  1  0  0  0  0
 14 11  2  0  0  0  0
 14  1  1  0  0  0  0
 15  1  2  0  0  0  0
 16 22  1  0  0  0  0
 16 21  1  0  0  0  0
 17 16  2  0  0  0  0
 18 24  1  0  0  0  0
 19 20  2  0  0  0  0
 20 17  1  0  0  0  0
 20 18  1  0  0  0  0
 23 18  1  0  0  0  0
 24 21  1  1  0  0  0
 24  9  1  0  0  0  0
 26 25  1  0  0  0  0
 29 28  1  1  0  0  0
 29 27  1  0  0  0  0
 30 29  1  0  0  0  0
 31 30  1  0  0  0  0
 32 31  1  0  0  0  0
M  END
>  <MODEL>
4

>  <REMARK>
 VINA RESULT:      -5.5      3.788      8.854
  Name = 
  6 active torsions:
  status: ('A' for Active; 'I' for Inactive)
    1  A    between atoms: C_1  and  C_10
    2  A    between atoms: C_8  and  C_19
    3  A    between atoms: C_10  and  C_24
    4  A    between atoms: C_12  and  C_21
    5  A    between atoms: C_16  and  C_32
    6  A    between atoms: C_19  and  C_24
                            x       y       z     vdW  Elec       q    Type
                         _______ _______ _______ _____ _____    ______ ____

>  <TORSDO>
F 6

$$$$
=
 OpenBabel11062410513D

 32 35  0  0  1  0  0  0  0  0999 V2000
  161.8370  209.2130  149.9010 C   0  0  0  0  0  0  0  0  0  0  0  0
  160.5130  208.1840  155.1980 O   0  0  0  0  0  0  0  0  0  0  0  0
  161.1340  206.9520  154.9450 C   0  0  0  0  0  2  0  0  0  0  0  0
  161.6430  211.9080  149.1820 C   0  0  0  0  0  0  0  0  0  0  0  0
  161.4250  210.1920  150.8690 N   0  0  0  0  0  0  0  0  0  0  0  0
  161.2360  209.1410  154.4680 C   0  0  0  0  0  2  0  0  0  0  0  0
  161.8280  210.0110  152.2590 C   0  0  0  0  0  2  0  0  0  0  0  0
  160.9850  208.9740  152.9680 C   0  0  1  0  0  3  0  0  0  0  0  0
  160.8310  207.2960  151.0990 C   0  0  1  0  0  3  0  0  0  0  0  0
  161.2070  211.5420  150.4100 C   0  0  0  0  0  0  0  0  0  0  0  0
  162.3090  210.9530  148.3360 N   0  0  0  0  0  0  0  0  0  0  0  0
  160.8310  206.5210  153.5160 C   0  0  0  0  0  2  0  0  0  0  0  0
  161.3790  207.5580  152.5170 C   0  0  2  0  0  3  0  0  0  0  0  0
  162.4080  209.6940  148.6420 C   0  0  0  0  0  3  0  0  0  0  0  0
  161.6220  207.9410  150.0490 N   0  0  0  0  0  0  0  0  0  0  0  0
  161.5820  203.4950  151.2160 C   0  0  0  0  0  0  0  0  0  0  0  0
  161.4680  203.1600  149.9310 C   0  0  0  0  0  3  0  0  0  0  0  0
  160.8830  205.5270  149.3330 N   0  0  0  0  0  0  0  0  0  0  0  0
  161.2380  203.8800  147.6980 O   0  0  0  0  0  0  0  0  0  0  0  0
  161.2020  204.1880  148.9190 C   0  0  0  0  0  0  0  0  0  0  0  0
  161.5850  204.9340  151.6420 C   0  0  0  0  0  2  0  0  0  0  0  0
  161.8130  202.5300  152.1380 F   0  0  0  0  0  0  0  0  0  0  0  0
  160.4380  206.4880  148.3280 C   0  0  0  0  0  1  0  0  0  0  0  0
  160.6660  205.8000  150.7630 C   0  0  1  0  0  3  0  0  0  0  0  0
  159.1170  212.0860  151.6350 C   0  0  0  0  0  1  0  0  0  0  0  0
  160.5320  212.5330  151.3170 C   0  0  0  0  0  2  0  0  0  0  0  0
  161.4880  213.3110  148.6800 C   0  0  0  0  0  2  0  0  0  0  0  0
  159.2280  214.2650  148.2630 C   0  0  0  0  0  1  0  0  0  0  0  0
  160.3420  213.4080  147.6850 C   0  0  1  0  0  3  0  0  0  0  0  0
  160.8570  214.0240  146.3940 C   0  0  0  0  0  2  0  0  0  0  0  0
  161.3620  212.9540  145.4390 C   0  0  0  0  0  2  0  0  0  0  0  0
  162.6880  213.3630  144.8260 C   0  0  0  0  0  1  0  0  0  0  0  0
  1 15  2  0  0  0  0
  1  5  1  0  0  0  0
  3  2  1  0  0  0  0
  4 10  2  0  0  0  0
  5  7  1  0  0  0  0
  6  2  1  0  0  0  0
  8  7  1  6  0  0  0
  8  6  1  0  0  0  0
  9 15  1  6  0  0  0
  9 13  1  0  0  0  0
 10  5  1  0  0  0  0
 10 26  1  0  0  0  0
 11 14  2  0  0  0  0
 11  4  1  0  0  0  0
 12  3  1  0  0  0  0
 13  8  1  0  0  0  0
 13 12  1  1  0  0  0
 14  1  1  0  0  0  0
 16 21  1  0  0  0  0
 16 22  1  0  0  0  0
 17 16  2  0  0  0  0
 18 24  1  0  0  0  0
 19 20  2  0  0  0  0
 20 18  1  0  0  0  0
 20 17  1  0  0  0  0
 23 18  1  0  0  0  0
 24  9  1  0  0  0  0
 24 21  1  1  0  0  0
 26 25  1  0  0  0  0
 27  4  1  0  0  0  0
 29 28  1  1  0  0  0
 29 27  1  0  0  0  0
 30 29  1  0  0  0  0
 31 30  1  0  0  0  0
 32 31  1  0  0  0  0
M  END
>  <MODEL>
5

>  <REMARK>
 VINA RESULT:      -5.4      3.197      8.182
  Name = 
  6 active torsions:
  status: ('A' for Active; 'I' for Inactive)
    1  A    between atoms: C_1  and  C_10
    2  A    between atoms: C_8  and  C_19
    3  A    between atoms: C_10  and  C_24
    4  A    between atoms: C_12  and  C_21
    5  A    between atoms: C_16  and  C_32
    6  A    between atoms: C_19  and  C_24
                            x       y       z     vdW  Elec       q    Type
                         _______ _______ _______ _____ _____    ______ ____

>  <TORSDO>
F 6

$$$$
=
 OpenBabel11062410513D

 32 35  0  0  1  0  0  0  0  0999 V2000
  161.0610  210.1440  151.9600 C   0  0  0  0  0  0  0  0  0  0  0  0
  162.3180  213.2020  147.4950 O   0  0  0  0  0  0  0  0  0  0  0  0
  162.0760  214.2770  148.3630 C   0  0  0  0  0  2  0  0  0  0  0  0
  161.7920  207.4550  151.7400 C   0  0  0  0  0  0  0  0  0  0  0  0
  161.7020  209.6640  150.7670 N   0  0  0  0  0  0  0  0  0  0  0  0
  162.9130  212.1990  148.2760 C   0  0  0  0  0  2  0  0  0  0  0  0
  162.6210  210.5530  150.0640 C   0  0  0  0  0  2  0  0  0  0  0  0
  161.8900  211.5900  149.2380 C   0  0  1  0  0  3  0  0  0  0  0  0
  160.0570  212.1290  150.8750 C   0  0  1  0  0  3  0  0  0  0  0  0
  161.9310  208.2450  150.6500 C   0  0  0  0  0  0  0  0  0  0  0  0
  161.4070  208.0260  153.0050 N   0  0  0  0  0  0  0  0  0  0  0  0
  160.9300  213.9170  149.3010 C   0  0  0  0  0  2  0  0  0  0  0  0
  161.2970  212.6820  150.1440 C   0  0  2  0  0  3  0  0  0  0  0  0
  161.0560  209.2700  153.1340 C   0  0  0  0  0  3  0  0  0  0  0  0
  160.3940  211.2580  152.0030 N   0  0  0  0  0  0  0  0  0  0  0  0
  157.6980  214.0070  153.3100 C   0  0  0  0  0  0  0  0  0  0  0  0
  156.6760  214.3120  152.5110 C   0  0  0  0  0  3  0  0  0  0  0  0
  157.8350  213.2330  150.5630 N   0  0  0  0  0  0  0  0  0  0  0  0
  155.6300  214.0270  150.4170 O   0  0  0  0  0  0  0  0  0  0  0  0
  156.6630  213.8530  151.1180 C   0  0  0  0  0  0  0  0  0  0  0  0
  158.7830  213.0750  152.8550 C   0  0  0  0  0  2  0  0  0  0  0  0
  157.6990  214.4520  154.5890 F   0  0  0  0  0  0  0  0  0  0  0  0
  157.8740  212.9540  149.1310 C   0  0  0  0  0  1  0  0  0  0  0  0
  159.0780  213.2200  151.3520 C   0  0  1  0  0  3  0  0  0  0  0  0
  161.2130  207.7250  148.3310 C   0  0  0  0  0  1  0  0  0  0  0  0
  162.3560  207.6690  149.3290 C   0  0  0  0  0  2  0  0  0  0  0  0
  162.0680  205.9830  151.6830 C   0  0  0  0  0  2  0  0  0  0  0  0
  160.9230  204.8390  149.7940 C   0  0  0  0  0  1  0  0  0  0  0  0
  160.8260  205.2130  151.2630 C   0  0  1  0  0  3  0  0  0  0  0  0
  160.7080  203.9590  152.1140 C   0  0  0  0  0  2  0  0  0  0  0  0
  161.7020  202.8970  151.6680 C   0  0  0  0  0  2  0  0  0  0  0  0
  161.0030  201.8010  150.8870 C   0  0  0  0  0  1  0  0  0  0  0  0
  1 15  2  0  0  0  0
  1 14  1  0  0  0  0
  2  6  1  0  0  0  0
  2  3  1  0  0  0  0
  3 12  1  0  0  0  0
  4 11  1  0  0  0  0
  5  1  1  0  0  0  0
  7  5  1  0  0  0  0
  8  6  1  6  0  0  0
  8  7  1  0  0  0  0
  8 13  1  0  0  0  0
  9 24  1  0  0  0  0
  9 15  1  1  0  0  0
 10  5  1  0  0  0  0
 10  4  2  0  0  0  0
 11 14  2  0  0  0  0
 13 12  1  6  0  0  0
 13  9  1  0  0  0  0
 16 22  1  0  0  0  0
 17 16  2  0  0  0  0
 18 20  1  0  0  0  0
 18 24  1  0  0  0  0
 19 20  2  0  0  0  0
 20 17  1  0  0  0  0
 21 16  1  0  0  0  0
 23 18  1  0  0  0  0
 24 21  1  1  0  0  0
 25 26  1  0  0  0  0
 26 10  1  0  0  0  0
 27  4  1  0  0  0  0
 29 28  1  6  0  0  0
 29 27  1  0  0  0  0
 29 30  1  0  0  0  0
 31 30  1  0  0  0  0
 32 31  1  0  0  0  0
M  END
>  <MODEL>
6

>  <REMARK>
 VINA RESULT:      -5.3      2.474      3.710
  Name = 
  6 active torsions:
  status: ('A' for Active; 'I' for Inactive)
    1  A    between atoms: C_1  and  C_10
    2  A    between atoms: C_8  and  C_19
    3  A    between atoms: C_10  and  C_24
    4  A    between atoms: C_12  and  C_21
    5  A    between atoms: C_16  and  C_32
    6  A    between atoms: C_19  and  C_24
                            x       y       z     vdW  Elec       q    Type
                         _______ _______ _______ _____ _____    ______ ____

>  <TORSDO>
F 6

$$$$
=
 OpenBabel11062410513D

 32 35  0  0  1  0  0  0  0  0999 V2000
  161.7090  207.1300  149.9860 C   0  0  0  0  0  0  0  0  0  0  0  0
  160.4930  202.0890  151.9830 O   0  0  0  0  0  0  0  0  0  0  0  0
  161.1000  201.6510  150.7970 C   0  0  0  0  0  2  0  0  0  0  0  0
  161.5170  209.1790  151.8760 C   0  0  0  0  0  0  0  0  0  0  0  0
  161.3240  206.8330  151.3380 N   0  0  0  0  0  0  0  0  0  0  0  0
  161.2060  203.2290  152.3860 C   0  0  0  0  0  2  0  0  0  0  0  0
  161.7560  205.5690  151.9240 C   0  0  0  0  0  2  0  0  0  0  0  0
  160.9210  204.4020  151.4440 C   0  0  1  0  0  3  0  0  0  0  0  0
  160.7160  205.0750  149.0280 C   0  0  1  0  0  3  0  0  0  0  0  0
  161.1040  207.9410  152.2340 C   0  0  0  0  0  0  0  0  0  0  0  0
  162.1580  209.3910  150.6050 N   0  0  0  0  0  0  0  0  0  0  0  0
  160.7640  202.6200  149.6710 C   0  0  0  0  0  2  0  0  0  0  0  0
  161.2960  204.0270  150.0000 C   0  0  2  0  0  3  0  0  0  0  0  0
  162.2550  208.4580  149.7060 C   0  0  0  0  0  3  0  0  0  0  0  0
  161.4880  206.3190  148.9960 N   0  0  0  0  0  0  0  0  0  0  0  0
  161.2060  202.7320  145.9790 C   0  0  0  0  0  0  0  0  0  0  0  0
  161.3290  203.6100  144.9850 C   0  0  0  0  0  3  0  0  0  0  0  0
  161.0130  205.5180  146.5850 N   0  0  0  0  0  0  0  0  0  0  0  0
  161.5870  205.8620  144.3350 O   0  0  0  0  0  0  0  0  0  0  0  0
  161.3290  205.0500  145.2640 C   0  0  0  0  0  0  0  0  0  0  0  0
  161.2090  203.1820  147.4120 C   0  0  0  0  0  2  0  0  0  0  0  0
  161.1940  201.4070  145.7010 F   0  0  0  0  0  0  0  0  0  0  0  0
  160.8320  206.9500  146.8020 C   0  0  0  0  0  1  0  0  0  0  0  0
  160.5340  204.5530  147.5890 C   0  0  1  0  0  3  0  0  0  0  0  0
  161.5070  207.6020  154.6610 C   0  0  0  0  0  1  0  0  0  0  0  0
  160.4570  207.6990  153.5690 C   0  0  0  0  0  2  0  0  0  0  0  0
  161.3600  210.3540  152.7940 C   0  0  0  0  0  2  0  0  0  0  0  0
  159.3370  211.0850  154.0450 C   0  0  0  0  0  1  0  0  0  0  0  0
  159.9700  210.9580  152.6690 C   0  0  1  0  0  3  0  0  0  0  0  0
  160.0800  212.3270  152.0180 C   0  0  0  0  0  2  0  0  0  0  0  0
  158.7950  213.1220  152.1880 C   0  0  0  0  0  2  0  0  0  0  0  0
  158.1100  213.3290  150.8510 C   0  0  0  0  0  1  0  0  0  0  0  0
  1  5  1  0  0  0  0
  2  6  1  0  0  0  0
  3  2  1  0  0  0  0
  4 10  2  0  0  0  0
  4 27  1  0  0  0  0
  5  7  1  0  0  0  0
  5 10  1  0  0  0  0
  8  7  1  1  0  0  0
  8  6  1  0  0  0  0
  9 15  1  6  0  0  0
  9 13  1  0  0  0  0
 10 26  1  0  0  0  0
 11  4  1  0  0  0  0
 12  3  1  0  0  0  0
 13 12  1  6  0  0  0
 13  8  1  0  0  0  0
 14  1  1  0  0  0  0
 14 11  2  0  0  0  0
 15  1  2  0  0  0  0
 16 21  1  0  0  0  0
 17 20  1  0  0  0  0
 17 16  2  0  0  0  0
 18 23  1  0  0  0  0
 18 24  1  0  0  0  0
 19 20  2  0  0  0  0
 20 18  1  0  0  0  0
 22 16  1  0  0  0  0
 24 21  1  1  0  0  0
 24  9  1  0  0  0  0
 26 25  1  0  0  0  0
 29 27  1  0  0  0  0
 29 28  1  1  0  0  0
 30 31  1  0  0  0  0
 30 29  1  0  0  0  0
 32 31  1  0  0  0  0
M  END
>  <MODEL>
7

>  <REMARK>
 VINA RESULT:      -5.2      3.844      8.809
  Name = 
  6 active torsions:
  status: ('A' for Active; 'I' for Inactive)
    1  A    between atoms: C_1  and  C_10
    2  A    between atoms: C_8  and  C_19
    3  A    between atoms: C_10  and  C_24
    4  A    between atoms: C_12  and  C_21
    5  A    between atoms: C_16  and  C_32
    6  A    between atoms: C_19  and  C_24
                            x       y       z     vdW  Elec       q    Type
                         _______ _______ _______ _____ _____    ______ ____

>  <TORSDO>
F 6

$$$$
=
 OpenBabel11062410513D

 32 35  0  0  1  0  0  0  0  0999 V2000
  161.7790  207.6430  150.7310 C   0  0  0  0  0  0  0  0  0  0  0  0
  160.4940  202.4780  152.3270 O   0  0  0  0  0  0  0  0  0  0  0  0
  161.1900  202.1190  151.1640 C   0  0  0  0  0  2  0  0  0  0  0  0
  161.4260  209.5710  152.7240 C   0  0  0  0  0  0  0  0  0  0  0  0
  161.3030  207.2600  152.0320 N   0  0  0  0  0  0  0  0  0  0  0  0
  161.1620  203.5970  152.8480 C   0  0  0  0  0  2  0  0  0  0  0  0
  161.7110  205.9670  152.5700 C   0  0  0  0  0  2  0  0  0  0  0  0
  160.9280  204.8230  151.9620 C   0  0  1  0  0  3  0  0  0  0  0  0
  160.8850  205.6410  149.5830 C   0  0  1  0  0  3  0  0  0  0  0  0
  161.0060  208.3090  152.9760 C   0  0  0  0  0  0  0  0  0  0  0  0
  162.1520  209.8650  151.5170 N   0  0  0  0  0  0  0  0  0  0  0  0
  160.9210  203.1530  150.0770 C   0  0  0  0  0  2  0  0  0  0  0  0
  161.4090  204.5420  150.5280 C   0  0  2  0  0  3  0  0  0  0  0  0
  162.3260  208.9910  150.5720 C   0  0  0  0  0  3  0  0  0  0  0  0
  161.6400  206.8920  149.6800 N   0  0  0  0  0  0  0  0  0  0  0  0
  161.2200  203.2890  146.5210 C   0  0  0  0  0  0  0  0  0  0  0  0
  161.7450  204.1070  145.6100 C   0  0  0  0  0  3  0  0  0  0  0  0
  161.7000  206.0100  147.2470 N   0  0  0  0  0  0  0  0  0  0  0  0
  162.7180  206.2030  145.1410 O   0  0  0  0  0  0  0  0  0  0  0  0
  162.0940  205.4860  145.9680 C   0  0  0  0  0  0  0  0  0  0  0  0
  161.1040  203.7040  147.9590 C   0  0  0  0  0  2  0  0  0  0  0  0
  160.8910  202.0230  146.1680 F   0  0  0  0  0  0  0  0  0  0  0  0
  161.8850  207.4330  147.5150 C   0  0  0  0  0  1  0  0  0  0  0  0
  160.8120  205.2070  148.1050 C   0  0  1  0  0  3  0  0  0  0  0  0
  161.2400  207.8400  155.4030 C   0  0  0  0  0  1  0  0  0  0  0  0
  160.2690  207.9790  154.2430 C   0  0  0  0  0  2  0  0  0  0  0  0
  161.1880  210.6850  153.6970 C   0  0  0  0  0  2  0  0  0  0  0  0
  158.9640  210.9040  152.6030 C   0  0  0  0  0  1  0  0  0  0  0  0
  160.1560  211.6640  153.1610 C   0  0  1  0  0  3  0  0  0  0  0  0
  159.7080  212.5800  154.2880 C   0  0  0  0  0  2  0  0  0  0  0  0
  159.9670  211.9480  155.6470 C   0  0  0  0  0  2  0  0  0  0  0  0
  158.6730  211.4540  156.2650 C   0  0  0  0  0  1  0  0  0  0  0  0
  1  5  1  0  0  0  0
  2  6  1  0  0  0  0
  3  2  1  0  0  0  0
  4 10  2  0  0  0  0
  4 27  1  0  0  0  0
  5  7  1  0  0  0  0
  5 10  1  0  0  0  0
  8  7  1  1  0  0  0
  8  6  1  0  0  0  0
  9 15  1  6  0  0  0
  9 13  1  0  0  0  0
 10 26  1  0  0  0  0
 11  4  1  0  0  0  0
 12  3  1  0  0  0  0
 13 12  1  6  0  0  0
 13  8  1  0  0  0  0
 14  1  1  0  0  0  0
 14 11  2  0  0  0  0
 15  1  2  0  0  0  0
 16 21  1  0  0  0  0
 17 20  1  0  0  0  0
 17 16  2  0  0  0  0
 18 23  1  0  0  0  0
 18 24  1  0  0  0  0
 19 20  2  0  0  0  0
 20 18  1  0  0  0  0
 22 16  1  0  0  0  0
 24 21  1  1  0  0  0
 24  9  1  0  0  0  0
 26 25  1  0  0  0  0
 29 28  1  1  0  0  0
 29 27  1  0  0  0  0
 29 30  1  0  0  0  0
 30 31  1  0  0  0  0
 31 32  1  0  0  0  0
M  END
>  <MODEL>
8

>  <REMARK>
 VINA RESULT:      -4.9      3.604      8.656
  Name = 
  6 active torsions:
  status: ('A' for Active; 'I' for Inactive)
    1  A    between atoms: C_1  and  C_10
    2  A    between atoms: C_8  and  C_19
    3  A    between atoms: C_10  and  C_24
    4  A    between atoms: C_12  and  C_21
    5  A    between atoms: C_16  and  C_32
    6  A    between atoms: C_19  and  C_24
                            x       y       z     vdW  Elec       q    Type
                         _______ _______ _______ _____ _____    ______ ____

>  <TORSDO>
F 6

$$$$
=
 OpenBabel11062410513D

 32 35  0  0  1  0  0  0  0  0999 V2000
  161.5180  206.0170  151.1010 C   0  0  0  0  0  0  0  0  0  0  0  0
  161.8180  211.1030  148.8830 O   0  0  0  0  0  0  0  0  0  0  0  0
  162.2710  211.4580  150.1630 C   0  0  0  0  0  2  0  0  0  0  0  0
  161.2490  203.9690  149.2180 C   0  0  0  0  0  0  0  0  0  0  0  0
  161.4690  206.3260  149.6980 N   0  0  0  0  0  0  0  0  0  0  0  0
  162.3320  209.8210  148.6320 C   0  0  0  0  0  2  0  0  0  0  0  0
  162.2670  207.4410  149.2020 C   0  0  0  0  0  2  0  0  0  0  0  0
  161.6280  208.7790  149.5050 C   0  0  1  0  0  3  0  0  0  0  0  0
  160.8290  208.2770  151.8380 C   0  0  1  0  0  3  0  0  0  0  0  0
  161.1890  205.2480  148.7810 C   0  0  0  0  0  0  0  0  0  0  0  0
  161.5770  203.6860  150.5910 N   0  0  0  0  0  0  0  0  0  0  0  0
  161.5260  210.6340  151.2060 C   0  0  0  0  0  2  0  0  0  0  0  0
  161.7950  209.1330  150.9930 C   0  0  2  0  0  3  0  0  0  0  0  0
  161.7010  204.6180  151.4880 C   0  0  0  0  0  3  0  0  0  0  0  0
  161.2940  206.9010  152.0260 N   0  0  0  0  0  0  0  0  0  0  0  0
  160.9340  210.8580  154.7280 C   0  0  0  0  0  0  0  0  0  0  0  0
  161.0090  210.0630  155.7940 C   0  0  0  0  0  3  0  0  0  0  0  0
  160.9270  208.0300  154.3240 N   0  0  0  0  0  0  0  0  0  0  0  0
  161.3140  207.8810  156.6350 O   0  0  0  0  0  0  0  0  0  0  0  0
  161.1020  208.6080  155.6280 C   0  0  0  0  0  0  0  0  0  0  0  0
  161.0860  210.3060  153.3400 C   0  0  0  0  0  2  0  0  0  0  0  0
  160.8340  212.1970  154.9010 F   0  0  0  0  0  0  0  0  0  0  0  0
  160.8340  206.5780  154.2040 C   0  0  0  0  0  1  0  0  0  0  0  0
  160.4950  208.8920  153.2120 C   0  0  1  0  0  3  0  0  0  0  0  0
  162.1170  205.4240  146.4850 C   0  0  0  0  0  1  0  0  0  0  0  0
  160.8730  205.5600  147.3450 C   0  0  0  0  0  2  0  0  0  0  0  0
  161.0190  202.8130  148.2930 C   0  0  0  0  0  2  0  0  0  0  0  0
  159.4730  201.1670  149.3370 C   0  0  0  0  0  1  0  0  0  0  0  0
  160.9280  201.5070  149.0670 C   0  0  1  0  0  3  0  0  0  0  0  0
  161.5800  200.4010  148.2530 C   0  0  0  0  0  2  0  0  0  0  0  0
  161.0860  200.4130  146.8150 C   0  0  0  0  0  2  0  0  0  0  0  0
  161.5810  199.1910  146.0660 C   0  0  0  0  0  1  0  0  0  0  0  0
  1 14  1  0  0  0  0
  1 15  2  0  0  0  0
  2  3  1  0  0  0  0
  3 12  1  0  0  0  0
  4 11  1  0  0  0  0
  5  1  1  0  0  0  0
  6  2  1  0  0  0  0
  7  8  1  0  0  0  0
  7  5  1  0  0  0  0
  8  6  1  6  0  0  0
  8 13  1  0  0  0  0
  9 15  1  1  0  0  0
  9 24  1  0  0  0  0
 10  4  2  0  0  0  0
 10  5  1  0  0  0  0
 11 14  2  0  0  0  0
 13 12  1  6  0  0  0
 13  9  1  0  0  0  0
 16 22  1  0  0  0  0
 16 17  2  0  0  0  0
 18 20  1  0  0  0  0
 20 17  1  0  0  0  0
 20 19  2  0  0  0  0
 21 16  1  0  0  0  0
 23 18  1  0  0  0  0
 24 21  1  1  0  0  0
 24 18  1  0  0  0  0
 25 26  1  0  0  0  0
 26 10  1  0  0  0  0
 27 29  1  0  0  0  0
 27  4  1  0  0  0  0
 29 28  1  6  0  0  0
 30 29  1  0  0  0  0
 31 30  1  0  0  0  0
 32 31  1  0  0  0  0
M  END
>  <MODEL>
9

>  <REMARK>
 VINA RESULT:      -4.8      1.832      2.444
  Name = 
  6 active torsions:
  status: ('A' for Active; 'I' for Inactive)
    1  A    between atoms: C_1  and  C_10
    2  A    between atoms: C_8  and  C_19
    3  A    between atoms: C_10  and  C_24
    4  A    between atoms: C_12  and  C_21
    5  A    between atoms: C_16  and  C_32
    6  A    between atoms: C_19  and  C_24
                            x       y       z     vdW  Elec       q    Type
                         _______ _______ _______ _____ _____    ______ ____

>  <TORSDO>
F 6

$$$$
