=
 OpenBabel11062410343D

 43 47  0  0  1  0  0  0  0  0999 V2000
  160.7890  212.9180  150.2560 C   0  0  1  0  0  3  0  0  0  0  0  0
  159.5370  212.1890  145.1610 C   0  0  1  0  0  3  0  0  0  0  0  0
  161.3370  212.6610  146.7850 C   0  0  1  0  0  3  0  0  0  0  0  0
  158.4450  212.5930  146.1760 C   0  0  0  0  0  2  0  0  0  0  0  0
  159.0720  212.4200  143.8690 O   0  0  0  0  0  1  0  0  0  0  0  0
  160.3070  213.0220  147.7840 C   0  0  0  0  0  0  0  0  0  0  0  0
  160.8430  212.9610  145.3780 C   0  0  0  0  0  2  0  0  0  0  0  0
  158.9900  213.0080  147.5250 C   0  0  0  0  0  3  0  0  0  0  0  0
  160.9240  213.7120  148.9450 C   0  0  2  0  0  3  0  0  0  0  0  0
  162.3380  213.8800  148.6090 N   0  0  0  0  0  2  0  0  0  0  0  0
  162.4950  213.5470  147.1880 C   0  0  0  0  0  2  0  0  0  0  0  0
  159.7160  213.4600  151.2250 C   0  0  1  0  0  3  0  0  0  0  0  0
  158.9680  214.4500  150.5840 O   0  0  0  0  0  1  0  0  0  0  0  0
  158.8250  212.3880  151.6450 N   0  0  0  0  0  2  0  0  0  0  0  0
  158.6490  210.9970  155.1190 C   0  0  0  0  0  0  0  0  0  0  0  0
  157.6280  211.7870  155.6680 C   0  0  0  0  0  0  0  0  0  0  0  0
  157.1960  211.5730  156.9320 F   0  0  0  0  0  0  0  0  0  0  0  0
  157.4400  212.9860  153.5650 C   0  0  0  0  0  3  0  0  0  0  0  0
  159.0510  211.1970  153.7950 C   0  0  0  0  0  3  0  0  0  0  0  0
  158.4410  212.1850  153.0060 C   0  0  0  0  0  0  0  0  0  0  0  0
  159.4120  209.7360  156.0670 Cl  0  0  0  0  0  0  0  0  0  0  0  0
  157.0330  212.7870  154.8900 C   0  0  0  0  0  3  0  0  0  0  0  0
  160.8470  211.5150  150.0450 O   0  0  0  0  0  0  0  0  0  0  0  0
  161.9520  210.9150  150.6870 C   0  0  1  0  0  3  0  0  0  0  0  0
  161.7240  210.8240  152.0660 O   0  0  0  0  0  1  0  0  0  0  0  0
  162.2480  209.5160  150.1170 C   0  0  2  0  0  3  0  0  0  0  0  0
  161.9270  209.5110  148.6310 C   0  0  0  0  0  1  0  0  0  0  0  0
  161.4610  208.4370  150.8050 C   0  0  0  0  0  3  0  0  0  0  0  0
  161.9260  207.2010  151.0110 C   0  0  0  0  0  3  0  0  0  0  0  0
  161.0280  206.1590  151.6180 C   0  0  0  0  0  2  0  0  0  0  0  0
  161.4990  204.7610  151.1960 C   0  0  1  0  0  3  0  0  0  0  0  0
  160.2400  203.3330  149.6580 O   0  0  0  0  0  0  0  0  0  0  0  0
  161.0090  203.6880  152.1670 C   0  0  0  0  0  2  0  0  0  0  0  0
  161.2690  202.2830  151.6110 C   0  0  0  0  0  2  0  0  0  0  0  0
  161.1980  204.3610  149.7220 C   0  0  1  0  0  3  0  0  0  0  0  0
  160.8950  202.1750  150.1180 C   0  0  0  0  0  2  0  0  0  0  0  0
  160.8280  205.5220  148.7940 C   0  0  0  0  0  2  0  0  0  0  0  0
  160.8260  205.1340  147.3110 C   0  0  1  0  0  3  0  0  0  0  0  0
  161.4910  205.0160  144.5230 C   0  0  0  0  0  3  0  0  0  0  0  0
  160.7150  206.0330  144.9330 C   0  0  0  0  0  3  0  0  0  0  0  0
  162.0510  203.9900  145.4810 C   0  0  0  0  0  2  0  0  0  0  0  0
  160.4240  206.3020  146.3930 C   0  0  0  0  0  2  0  0  0  0  0  0
  162.1760  204.5560  146.8950 C   0  0  0  0  0  2  0  0  0  0  0  0
  1 23  1  6  0  0  0
  1 12  1  0  0  0  0
  2  5  1  6  0  0  0
  2  7  1  0  0  0  0
  2  4  1  0  0  0  0
  3  7  1  6  0  0  0
  3 11  1  0  0  0  0
  3  6  1  0  0  0  0
  4  8  1  0  0  0  0
  6  9  1  0  0  0  0
  8  6  2  0  0  0  0
  9  1  1  1  0  0  0
 10  9  1  0  0  0  0
 11 10  1  0  0  0  0
 12 13  1  6  0  0  0
 12 14  1  0  0  0  0
 14 20  1  0  0  0  0
 15 16  1  0  0  0  0
 15 21  1  0  0  0  0
 16 17  1  0  0  0  0
 18 22  1  0  0  0  0
 19 15  2  0  0  0  0
 20 18  2  0  0  0  0
 20 19  1  0  0  0  0
 22 16  2  0  0  0  0
 23 24  1  0  0  0  0
 24 25  1  1  0  0  0
 26 27  1  6  0  0  0
 26 24  1  0  0  0  0
 26 28  1  0  0  0  0
 28 29  2  0  0  0  0
 29 30  1  0  0  0  0
 31 30  1  1  0  0  0
 31 33  1  0  0  0  0
 32 35  1  0  0  0  0
 32 36  1  0  0  0  0
 34 33  1  0  0  0  0
 35 37  1  6  0  0  0
 35 31  1  0  0  0  0
 36 34  1  0  0  0  0
 38 37  1  1  0  0  0
 39 40  2  0  0  0  0
 39 41  1  0  0  0  0
 40 42  1  0  0  0  0
 41 43  1  0  0  0  0
 42 38  1  0  0  0  0
 43 38  1  0  0  0  0
M  END
>  <MODEL>
1

>  <REMARK>
 VINA RESULT:      -7.8      0.000      0.000
  Name = 
  12 active torsions:
  status: ('A' for Active; 'I' for Inactive)
    1  A    between atoms: N_1  and  C_34
    2  A    between atoms: N_1  and  C_35
    3  A    between atoms: C_2  and  C_6
    4  A    between atoms: C_2  and  C_13
    5  A    between atoms: C_3  and  C_4
    6  A    between atoms: C_3  and  C_12
    7  A    between atoms: C_8  and  O_27
    8  A    between atoms: C_8  and  C_30
    9  A    between atoms: C_8  and  C_34
   10  A    between atoms: C_11  and  C_14
   11  A    between atoms: C_13  and  O_27
   12  A    between atoms: C_14  and  C_41
                            x       y       z     vdW  Elec       q    Type
                         _______ _______ _______ _____ _____    ______ ____

>  <TORSDO>
F 12

$$$$
=
 OpenBabel11062410343D

 43 47  0  0  1  0  0  0  0  0999 V2000
  161.6090  207.9240  151.8970 C   0  0  1  0  0  3  0  0  0  0  0  0
  160.2990  211.3700  155.7010 C   0  0  1  0  0  3  0  0  0  0  0  0
  161.3230  209.1860  155.1750 C   0  0  1  0  0  3  0  0  0  0  0  0
  159.5930  211.4280  154.3280 C   0  0  0  0  0  2  0  0  0  0  0  0
  159.5550  212.0910  156.6310 O   0  0  0  0  0  1  0  0  0  0  0  0
  160.6830  209.2340  153.8410 C   0  0  0  0  0  0  0  0  0  0  0  0
  160.4810  209.9330  156.1980 C   0  0  0  0  0  2  0  0  0  0  0  0
  159.8850  210.2370  153.4420 C   0  0  0  0  0  3  0  0  0  0  0  0
  160.7560  207.9080  153.1780 C   0  0  2  0  0  3  0  0  0  0  0  0
  161.3500  206.9990  154.1580 N   0  0  0  0  0  2  0  0  0  0  0  0
  161.3750  207.6990  155.4480 C   0  0  0  0  0  2  0  0  0  0  0  0
  162.0280  206.5270  151.3900 C   0  0  1  0  0  3  0  0  0  0  0  0
  162.7180  205.8530  152.4010 O   0  0  0  0  0  1  0  0  0  0  0  0
  160.8530  205.7510  151.0170 N   0  0  0  0  0  2  0  0  0  0  0  0
  161.2410  203.4310  148.1010 C   0  0  0  0  0  0  0  0  0  0  0  0
  161.0210  202.1910  148.7200 C   0  0  0  0  0  0  0  0  0  0  0  0
  161.0170  201.0510  147.9930 F   0  0  0  0  0  0  0  0  0  0  0  0
  160.7310  203.3170  150.8510 C   0  0  0  0  0  3  0  0  0  0  0  0
  161.1940  204.6060  148.8570 C   0  0  0  0  0  3  0  0  0  0  0  0
  160.9270  204.5580  150.2350 C   0  0  0  0  0  0  0  0  0  0  0  0
  161.5490  203.5290  146.3790 Cl  0  0  0  0  0  0  0  0  0  0  0  0
  160.7760  202.1390  150.0960 C   0  0  0  0  0  3  0  0  0  0  0  0
  161.1320  208.8620  150.9440 O   0  0  0  0  0  0  0  0  0  0  0  0
  162.0830  209.1460  149.9400 C   0  0  1  0  0  3  0  0  0  0  0  0
  161.6890  208.5780  148.7220 O   0  0  0  0  0  1  0  0  0  0  0  0
  162.2860  210.6620  149.7630 C   0  0  2  0  0  3  0  0  0  0  0  0
  161.3810  211.3970  150.7400 C   0  0  0  0  0  1  0  0  0  0  0  0
  161.9920  211.1210  148.3630 C   0  0  0  0  0  3  0  0  0  0  0  0
  162.0220  212.4040  147.9860 C   0  0  0  0  0  3  0  0  0  0  0  0
  161.6150  212.7780  146.5880 C   0  0  0  0  0  2  0  0  0  0  0  0
  160.1350  212.4390  146.3720 C   0  0  1  0  0  3  0  0  0  0  0  0
  158.6390  213.8000  144.9940 O   0  0  0  0  0  0  0  0  0  0  0  0
  159.2550  213.0560  147.4590 C   0  0  0  0  0  2  0  0  0  0  0  0
  157.7700  212.9240  147.1030 C   0  0  0  0  0  2  0  0  0  0  0  0
  159.5690  212.7460  144.9550 C   0  0  1  0  0  3  0  0  0  0  0  0
  157.4960  213.2740  145.6260 C   0  0  0  0  0  2  0  0  0  0  0  0
  160.6240  212.9770  143.8680 C   0  0  0  0  0  2  0  0  0  0  0  0
  160.4140  212.1030  142.6250 C   0  0  1  0  0  3  0  0  0  0  0  0
  160.3340  211.2150  139.8990 C   0  0  0  0  0  3  0  0  0  0  0  0
  159.3280  211.9960  140.3270 C   0  0  0  0  0  3  0  0  0  0  0  0
  161.5040  210.8480  140.7840 C   0  0  0  0  0  2  0  0  0  0  0  0
  159.3300  212.6610  141.6860 C   0  0  0  0  0  2  0  0  0  0  0  0
  161.7270  211.8930  141.8770 C   0  0  0  0  0  2  0  0  0  0  0  0
  1 23  1  6  0  0  0
  2  7  1  0  0  0  0
  2  5  1  1  0  0  0
  3 11  1  1  0  0  0
  3  7  1  0  0  0  0
  4  2  1  0  0  0  0
  6  3  1  0  0  0  0
  8  6  2  0  0  0  0
  8  4  1  0  0  0  0
  9  1  1  6  0  0  0
  9  6  1  0  0  0  0
  9 10  1  0  0  0  0
 10 11  1  0  0  0  0
 12  1  1  0  0  0  0
 12 13  1  1  0  0  0
 14 12  1  0  0  0  0
 15 16  2  0  0  0  0
 15 19  1  0  0  0  0
 16 22  1  0  0  0  0
 17 16  1  0  0  0  0
 19 20  2  0  0  0  0
 20 18  1  0  0  0  0
 20 14  1  0  0  0  0
 21 15  1  0  0  0  0
 22 18  2  0  0  0  0
 24 25  1  6  0  0  0
 24 23  1  0  0  0  0
 26 24  1  0  0  0  0
 26 27  1  1  0  0  0
 28 26  1  0  0  0  0
 29 28  2  0  0  0  0
 30 29  1  0  0  0  0
 31 30  1  6  0  0  0
 31 33  1  0  0  0  0
 32 36  1  0  0  0  0
 34 33  1  0  0  0  0
 35 37  1  6  0  0  0
 35 32  1  0  0  0  0
 35 31  1  0  0  0  0
 36 34  1  0  0  0  0
 38 37  1  1  0  0  0
 39 40  2  0  0  0  0
 39 41  1  0  0  0  0
 40 42  1  0  0  0  0
 41 43  1  0  0  0  0
 42 38  1  0  0  0  0
 43 38  1  0  0  0  0
M  END
>  <MODEL>
2

>  <REMARK>
 VINA RESULT:      -7.6      3.995      9.003
  Name = 
  12 active torsions:
  status: ('A' for Active; 'I' for Inactive)
    1  A    between atoms: N_1  and  C_34
    2  A    between atoms: N_1  and  C_35
    3  A    between atoms: C_2  and  C_6
    4  A    between atoms: C_2  and  C_13
    5  A    between atoms: C_3  and  C_4
    6  A    between atoms: C_3  and  C_12
    7  A    between atoms: C_8  and  O_27
    8  A    between atoms: C_8  and  C_30
    9  A    between atoms: C_8  and  C_34
   10  A    between atoms: C_11  and  C_14
   11  A    between atoms: C_13  and  O_27
   12  A    between atoms: C_14  and  C_41
                            x       y       z     vdW  Elec       q    Type
                         _______ _______ _______ _____ _____    ______ ____

>  <TORSDO>
F 12

$$$$
=
 OpenBabel11062410343D

 43 47  0  0  1  0  0  0  0  0999 V2000
  160.9640  206.1450  151.2840 C   0  0  1  0  0  3  0  0  0  0  0  0
  161.8460  210.9330  149.1940 C   0  0  1  0  0  3  0  0  0  0  0  0
  161.6270  208.5120  148.7590 C   0  0  1  0  0  3  0  0  0  0  0  0
  162.0770  210.6920  150.7030 C   0  0  0  0  0  2  0  0  0  0  0  0
  162.4830  212.1110  148.8140 O   0  0  0  0  0  1  0  0  0  0  0  0
  161.8130  208.2590  150.2050 C   0  0  0  0  0  0  0  0  0  0  0  0
  162.3650  209.7730  148.3380 C   0  0  0  0  0  2  0  0  0  0  0  0
  162.0300  209.2340  151.1020 C   0  0  0  0  0  3  0  0  0  0  0  0
  162.0710  206.8190  150.4540 C   0  0  2  0  0  3  0  0  0  0  0  0
  162.1570  206.1900  149.1370 N   0  0  0  0  0  2  0  0  0  0  0  0
  162.2190  207.2650  148.1400 C   0  0  0  0  0  2  0  0  0  0  0  0
  161.1360  204.6210  151.4640 C   0  0  1  0  0  3  0  0  0  0  0  0
  160.9160  204.2830  152.8010 O   0  0  0  0  0  1  0  0  0  0  0  0
  160.1850  203.9030  150.6280 N   0  0  0  0  0  2  0  0  0  0  0  0
  161.0330  202.1130  147.4480 C   0  0  0  0  0  0  0  0  0  0  0  0
  161.3050  200.8260  147.9340 C   0  0  0  0  0  0  0  0  0  0  0  0
  161.6110  199.8190  147.0840 F   0  0  0  0  0  0  0  0  0  0  0  0
  160.8710  201.5990  150.1940 C   0  0  0  0  0  3  0  0  0  0  0  0
  160.6700  203.1320  148.3340 C   0  0  0  0  0  3  0  0  0  0  0  0
  160.5760  202.8780  149.7120 C   0  0  0  0  0  0  0  0  0  0  0  0
  161.1150  202.4570  145.7320 Cl  0  0  0  0  0  0  0  0  0  0  0  0
  161.2320  200.5760  149.3090 C   0  0  0  0  0  3  0  0  0  0  0  0
  160.6010  206.9130  152.4220 O   0  0  0  0  0  0  0  0  0  0  0  0
  161.3580  206.5780  153.5660 C   0  0  1  0  0  3  0  0  0  0  0  0
  162.7200  206.5080  153.2440 O   0  0  0  0  0  1  0  0  0  0  0  0
  161.1460  207.5920  154.7040 C   0  0  2  0  0  3  0  0  0  0  0  0
  160.0420  207.0830  155.6180 C   0  0  0  0  0  1  0  0  0  0  0  0
  160.7860  208.9600  154.1950 C   0  0  0  0  0  3  0  0  0  0  0  0
  160.7970  210.0570  154.9590 C   0  0  0  0  0  3  0  0  0  0  0  0
  160.3250  211.3660  154.3880 C   0  0  0  0  0  2  0  0  0  0  0  0
  158.8090  211.3110  154.1550 C   0  0  1  0  0  3  0  0  0  0  0  0
  157.3470  213.2570  154.4070 O   0  0  0  0  0  0  0  0  0  0  0  0
  158.0610  210.9210  155.4290 C   0  0  0  0  0  2  0  0  0  0  0  0
  156.5490  211.1090  155.2570 C   0  0  0  0  0  2  0  0  0  0  0  0
  158.1780  212.5740  153.5010 C   0  0  1  0  0  3  0  0  0  0  0  0
  156.2080  212.4440  154.5630 C   0  0  0  0  0  2  0  0  0  0  0  0
  159.1730  213.5290  152.8340 C   0  0  0  0  0  2  0  0  0  0  0  0
  158.7710  213.9240  151.4080 C   0  0  1  0  0  3  0  0  0  0  0  0
  158.2920  213.8150  148.5820 C   0  0  0  0  0  3  0  0  0  0  0  0
  159.5530  214.0340  148.9900 C   0  0  0  0  0  3  0  0  0  0  0  0
  157.1590  213.5770  149.5540 C   0  0  0  0  0  2  0  0  0  0  0  0
  159.9680  213.9560  150.4420 C   0  0  0  0  0  2  0  0  0  0  0  0
  157.6690  213.0100  150.8790 C   0  0  0  0  0  2  0  0  0  0  0  0
  1 12  1  0  0  0  0
  1 23  1  1  0  0  0
  2  5  1  6  0  0  0
  2  4  1  0  0  0  0
  3 11  1  6  0  0  0
  3  6  1  0  0  0  0
  4  8  1  0  0  0  0
  6  9  1  0  0  0  0
  6  8  2  0  0  0  0
  7  3  1  0  0  0  0
  7  2  1  0  0  0  0
  9  1  1  1  0  0  0
 10  9  1  0  0  0  0
 11 10  1  0  0  0  0
 12 13  1  1  0  0  0
 14 12  1  0  0  0  0
 15 16  2  0  0  0  0
 15 19  1  0  0  0  0
 16 22  1  0  0  0  0
 17 16  1  0  0  0  0
 19 20  2  0  0  0  0
 20 18  1  0  0  0  0
 20 14  1  0  0  0  0
 21 15  1  0  0  0  0
 22 18  2  0  0  0  0
 23 24  1  0  0  0  0
 24 25  1  6  0  0  0
 24 26  1  0  0  0  0
 26 27  1  1  0  0  0
 28 26  1  0  0  0  0
 28 29  2  0  0  0  0
 30 29  1  0  0  0  0
 31 30  1  1  0  0  0
 31 33  1  0  0  0  0
 32 36  1  0  0  0  0
 34 33  1  0  0  0  0
 35 37  1  1  0  0  0
 35 31  1  0  0  0  0
 35 32  1  0  0  0  0
 36 34  1  0  0  0  0
 38 37  1  1  0  0  0
 39 40  2  0  0  0  0
 39 41  1  0  0  0  0
 40 42  1  0  0  0  0
 41 43  1  0  0  0  0
 42 38  1  0  0  0  0
 43 38  1  0  0  0  0
M  END
>  <MODEL>
3

>  <REMARK>
 VINA RESULT:      -7.3      4.211      9.025
  Name = 
  12 active torsions:
  status: ('A' for Active; 'I' for Inactive)
    1  A    between atoms: N_1  and  C_34
    2  A    between atoms: N_1  and  C_35
    3  A    between atoms: C_2  and  C_6
    4  A    between atoms: C_2  and  C_13
    5  A    between atoms: C_3  and  C_4
    6  A    between atoms: C_3  and  C_12
    7  A    between atoms: C_8  and  O_27
    8  A    between atoms: C_8  and  C_30
    9  A    between atoms: C_8  and  C_34
   10  A    between atoms: C_11  and  C_14
   11  A    between atoms: C_13  and  O_27
   12  A    between atoms: C_14  and  C_41
                            x       y       z     vdW  Elec       q    Type
                         _______ _______ _______ _____ _____    ______ ____

>  <TORSDO>
F 12

$$$$
=
 OpenBabel11062410343D

 43 47  0  0  1  0  0  0  0  0999 V2000
  161.3320  210.3810  152.1740 C   0  0  1  0  0  3  0  0  0  0  0  0
  159.6900  207.3640  156.2070 C   0  0  1  0  0  3  0  0  0  0  0  0
  160.3690  209.6240  155.4780 C   0  0  1  0  0  3  0  0  0  0  0  0
  160.3470  206.7120  154.9700 C   0  0  0  0  0  2  0  0  0  0  0  0
  159.6890  206.4540  157.2610 O   0  0  0  0  0  1  0  0  0  0  0  0
  160.9770  209.0250  154.2690 C   0  0  0  0  0  0  0  0  0  0  0  0
  160.4140  208.6430  156.6400 C   0  0  0  0  0  2  0  0  0  0  0  0
  160.9870  207.7050  154.0250 C   0  0  0  0  0  3  0  0  0  0  0  0
  161.8440  210.0110  153.5780 C   0  0  2  0  0  3  0  0  0  0  0  0
  161.8630  211.2000  154.4290 N   0  0  0  0  0  2  0  0  0  0  0  0
  161.2490  210.8320  155.7110 C   0  0  0  0  0  2  0  0  0  0  0  0
  160.4680  211.6610  152.1260 C   0  0  1  0  0  3  0  0  0  0  0  0
  160.5810  212.2500  150.8640 O   0  0  0  0  0  1  0  0  0  0  0  0
  159.0710  211.3370  152.3770 N   0  0  0  0  0  2  0  0  0  0  0  0
  156.7500  212.2980  155.1570 C   0  0  0  0  0  0  0  0  0  0  0  0
  156.5710  213.6630  154.8910 C   0  0  0  0  0  0  0  0  0  0  0  0
  155.7350  214.4080  155.6490 F   0  0  0  0  0  0  0  0  0  0  0  0
  158.0740  213.4800  152.9930 C   0  0  0  0  0  3  0  0  0  0  0  0
  157.5800  211.5300  154.3350 C   0  0  0  0  0  3  0  0  0  0  0  0
  158.2380  212.1130  153.2410 C   0  0  0  0  0  0  0  0  0  0  0  0
  155.9220  211.5310  156.4980 Cl  0  0  0  0  0  0  0  0  0  0  0  0
  157.2420  214.2520  153.8130 C   0  0  0  0  0  3  0  0  0  0  0  0
  162.3270  210.2120  151.1760 O   0  0  0  0  0  0  0  0  0  0  0  0
  162.1520  209.0230  150.4330 C   0  0  1  0  0  3  0  0  0  0  0  0
  160.8470  208.5380  150.5900 O   0  0  0  0  0  1  0  0  0  0  0  0
  162.4500  209.2390  148.9390 C   0  0  2  0  0  3  0  0  0  0  0  0
  161.2300  209.8620  148.2780 C   0  0  0  0  0  1  0  0  0  0  0  0
  162.8060  207.9610  148.2340 C   0  0  0  0  0  3  0  0  0  0  0  0
  161.8970  207.1130  147.7400 C   0  0  0  0  0  3  0  0  0  0  0  0
  162.3450  205.8090  147.1390 C   0  0  0  0  0  2  0  0  0  0  0  0
  161.1370  205.0710  146.5480 C   0  0  1  0  0  3  0  0  0  0  0  0
  161.2000  202.7150  145.8890 O   0  0  0  0  0  0  0  0  0  0  0  0
  161.0810  205.2160  145.0280 C   0  0  0  0  0  2  0  0  0  0  0  0
  160.0260  204.2810  144.4260 C   0  0  0  0  0  2  0  0  0  0  0  0
  160.9770  203.5830  146.9740 C   0  0  1  0  0  3  0  0  0  0  0  0
  160.0830  202.8690  145.0450 C   0  0  0  0  0  2  0  0  0  0  0  0
  161.7980  203.1630  148.1970 C   0  0  0  0  0  2  0  0  0  0  0  0
  161.0880  203.4420  149.5270 C   0  0  1  0  0  3  0  0  0  0  0  0
  160.6140  203.9310  152.3140 C   0  0  0  0  0  3  0  0  0  0  0  0
  160.8080  202.6580  151.9310 C   0  0  0  0  0  3  0  0  0  0  0  0
  160.6910  205.0870  151.3420 C   0  0  0  0  0  2  0  0  0  0  0  0
  161.2250  202.2800  150.5270 C   0  0  0  0  0  2  0  0  0  0  0  0
  161.5770  204.7500  150.1430 C   0  0  0  0  0  2  0  0  0  0  0  0
  1 23  1  6  0  0  0
  2  7  1  0  0  0  0
  2  5  1  1  0  0  0
  3 11  1  1  0  0  0
  3  7  1  0  0  0  0
  4  2  1  0  0  0  0
  6  3  1  0  0  0  0
  8  6  2  0  0  0  0
  8  4  1  0  0  0  0
  9  1  1  6  0  0  0
  9  6  1  0  0  0  0
  9 10  1  0  0  0  0
 10 11  1  0  0  0  0
 12 13  1  6  0  0  0
 12  1  1  0  0  0  0
 12 14  1  0  0  0  0
 14 20  1  0  0  0  0
 15 21  1  0  0  0  0
 16 15  1  0  0  0  0
 16 17  1  0  0  0  0
 18 20  2  0  0  0  0
 18 22  1  0  0  0  0
 19 15  2  0  0  0  0
 20 19  1  0  0  0  0
 22 16  2  0  0  0  0
 24 25  1  6  0  0  0
 24 23  1  0  0  0  0
 26 27  1  6  0  0  0
 26 24  1  0  0  0  0
 28 26  1  0  0  0  0
 29 28  2  0  0  0  0
 30 29  1  0  0  0  0
 31 35  1  0  0  0  0
 31 30  1  6  0  0  0
 32 35  1  0  0  0  0
 33 31  1  0  0  0  0
 34 33  1  0  0  0  0
 34 36  1  0  0  0  0
 35 37  1  1  0  0  0
 36 32  1  0  0  0  0
 38 37  1  6  0  0  0
 38 43  1  0  0  0  0
 38 42  1  0  0  0  0
 40 39  2  0  0  0  0
 41 39  1  0  0  0  0
 42 40  1  0  0  0  0
 43 41  1  0  0  0  0
M  END
>  <MODEL>
4

>  <REMARK>
 VINA RESULT:      -7.0      2.643      5.969
  Name = 
  12 active torsions:
  status: ('A' for Active; 'I' for Inactive)
    1  A    between atoms: N_1  and  C_34
    2  A    between atoms: N_1  and  C_35
    3  A    between atoms: C_2  and  C_6
    4  A    between atoms: C_2  and  C_13
    5  A    between atoms: C_3  and  C_4
    6  A    between atoms: C_3  and  C_12
    7  A    between atoms: C_8  and  O_27
    8  A    between atoms: C_8  and  C_30
    9  A    between atoms: C_8  and  C_34
   10  A    between atoms: C_11  and  C_14
   11  A    between atoms: C_13  and  O_27
   12  A    between atoms: C_14  and  C_41
                            x       y       z     vdW  Elec       q    Type
                         _______ _______ _______ _____ _____    ______ ____

>  <TORSDO>
F 12

$$$$
=
 OpenBabel11062410343D

 43 47  0  0  1  0  0  0  0  0999 V2000
  161.5760  208.0990  151.2460 C   0  0  1  0  0  3  0  0  0  0  0  0
  161.2930  211.0360  155.6460 C   0  0  1  0  0  3  0  0  0  0  0  0
  161.5330  208.7650  154.7060 C   0  0  1  0  0  3  0  0  0  0  0  0
  160.7400  211.5850  154.3120 C   0  0  0  0  0  2  0  0  0  0  0  0
  160.7850  211.7900  156.7000 O   0  0  0  0  0  1  0  0  0  0  0  0
  161.0350  209.2750  153.4090 C   0  0  0  0  0  0  0  0  0  0  0  0
  160.9370  209.5610  155.8570 C   0  0  0  0  0  2  0  0  0  0  0  0
  160.6600  210.5490  153.2130 C   0  0  0  0  0  3  0  0  0  0  0  0
  160.6890  208.1520  152.5030 C   0  0  2  0  0  3  0  0  0  0  0  0
  160.8690  206.9300  153.2880 N   0  0  0  0  0  2  0  0  0  0  0  0
  161.0510  207.3310  154.6880 C   0  0  0  0  0  2  0  0  0  0  0  0
  162.0020  206.6770  150.8220 C   0  0  1  0  0  3  0  0  0  0  0  0
  162.7120  206.0750  151.8630 O   0  0  0  0  0  1  0  0  0  0  0  0
  160.8300  205.8680  150.5160 N   0  0  0  0  0  2  0  0  0  0  0  0
  161.1880  203.1280  147.9860 C   0  0  0  0  0  0  0  0  0  0  0  0
  161.0340  201.9960  148.8010 C   0  0  0  0  0  0  0  0  0  0  0  0
  161.0420  200.7550  148.2620 F   0  0  0  0  0  0  0  0  0  0  0  0
  160.7860  203.4360  150.7390 C   0  0  0  0  0  3  0  0  0  0  0  0
  161.1280  204.4060  148.5500 C   0  0  0  0  0  3  0  0  0  0  0  0
  160.9160  204.5690  149.9280 C   0  0  0  0  0  0  0  0  0  0  0  0
  161.4270  202.9620  146.2580 Cl  0  0  0  0  0  0  0  0  0  0  0  0
  160.8430  202.1550  150.1770 C   0  0  0  0  0  3  0  0  0  0  0  0
  161.1270  208.9890  150.2340 O   0  0  0  0  0  0  0  0  0  0  0  0
  162.1930  209.5710  149.5130 C   0  0  1  0  0  3  0  0  0  0  0  0
  162.5790  208.7370  148.4570 O   0  0  0  0  0  1  0  0  0  0  0  0
  161.8150  210.9600  148.9660 C   0  0  2  0  0  3  0  0  0  0  0  0
  163.0130  211.5410  148.2310 C   0  0  0  0  0  1  0  0  0  0  0  0
  161.3840  211.9060  150.0510 C   0  0  0  0  0  3  0  0  0  0  0  0
  160.3260  212.7160  149.9440 C   0  0  0  0  0  3  0  0  0  0  0  0
  160.0290  213.7010  151.0410 C   0  0  0  0  0  2  0  0  0  0  0  0
  158.6920  214.4000  150.7600 C   0  0  1  0  0  3  0  0  0  0  0  0
  156.5620  213.6380  151.6930 O   0  0  0  0  0  0  0  0  0  0  0  0
  158.0280  213.8510  149.4980 C   0  0  0  0  0  2  0  0  0  0  0  0
  156.5930  214.3730  149.3620 C   0  0  0  0  0  2  0  0  0  0  0  0
  157.6870  214.4430  151.9470 C   0  0  1  0  0  3  0  0  0  0  0  0
  155.8280  214.3160  150.7010 C   0  0  0  0  0  2  0  0  0  0  0  0
  158.2890  214.1360  153.3220 C   0  0  0  0  0  2  0  0  0  0  0  0
  157.3060  213.4370  154.2700 C   0  0  1  0  0  3  0  0  0  0  0  0
  156.2430  211.7970  156.3700 C   0  0  0  0  0  3  0  0  0  0  0  0
  156.5890  211.1900  155.2230 C   0  0  0  0  0  3  0  0  0  0  0  0
  156.4450  213.2790  156.5920 C   0  0  0  0  0  2  0  0  0  0  0  0
  157.3070  211.9080  154.1010 C   0  0  0  0  0  2  0  0  0  0  0  0
  157.5770  213.8250  155.7210 C   0  0  0  0  0  2  0  0  0  0  0  0
  1 23  1  6  0  0  0
  2  7  1  0  0  0  0
  2  5  1  1  0  0  0
  3 11  1  1  0  0  0
  3  7  1  0  0  0  0
  4  2  1  0  0  0  0
  6  3  1  0  0  0  0
  8  6  2  0  0  0  0
  8  4  1  0  0  0  0
  9  1  1  6  0  0  0
  9 10  1  0  0  0  0
  9  6  1  0  0  0  0
 10 11  1  0  0  0  0
 12  1  1  0  0  0  0
 12 13  1  1  0  0  0
 14 12  1  0  0  0  0
 15 19  2  0  0  0  0
 15 16  1  0  0  0  0
 16 22  2  0  0  0  0
 17 16  1  0  0  0  0
 19 20  1  0  0  0  0
 20 14  1  0  0  0  0
 20 18  2  0  0  0  0
 21 15  1  0  0  0  0
 22 18  1  0  0  0  0
 24 25  1  6  0  0  0
 24 23  1  0  0  0  0
 26 27  1  1  0  0  0
 26 24  1  0  0  0  0
 26 28  1  0  0  0  0
 29 28  2  0  0  0  0
 29 30  1  0  0  0  0
 31 30  1  1  0  0  0
 31 35  1  0  0  0  0
 32 35  1  0  0  0  0
 33 31  1  0  0  0  0
 34 33  1  0  0  0  0
 34 36  1  0  0  0  0
 35 37  1  1  0  0  0
 36 32  1  0  0  0  0
 38 37  1  6  0  0  0
 38 43  1  0  0  0  0
 39 41  1  0  0  0  0
 40 39  2  0  0  0  0
 42 38  1  0  0  0  0
 42 40  1  0  0  0  0
 43 41  1  0  0  0  0
M  END
>  <MODEL>
5

>  <REMARK>
 VINA RESULT:      -6.9      4.036      9.854
  Name = 
  12 active torsions:
  status: ('A' for Active; 'I' for Inactive)
    1  A    between atoms: N_1  and  C_34
    2  A    between atoms: N_1  and  C_35
    3  A    between atoms: C_2  and  C_6
    4  A    between atoms: C_2  and  C_13
    5  A    between atoms: C_3  and  C_4
    6  A    between atoms: C_3  and  C_12
    7  A    between atoms: C_8  and  O_27
    8  A    between atoms: C_8  and  C_30
    9  A    between atoms: C_8  and  C_34
   10  A    between atoms: C_11  and  C_14
   11  A    between atoms: C_13  and  O_27
   12  A    between atoms: C_14  and  C_41
                            x       y       z     vdW  Elec       q    Type
                         _______ _______ _______ _____ _____    ______ ____

>  <TORSDO>
F 12

$$$$
=
 OpenBabel11062410343D

 43 47  0  0  1  0  0  0  0  0999 V2000
  159.0860  213.6570  151.8210 C   0  0  1  0  0  3  0  0  0  0  0  0
  158.5180  212.2440  146.7470 C   0  0  1  0  0  3  0  0  0  0  0  0
  160.1030  212.7460  148.5730 C   0  0  1  0  0  3  0  0  0  0  0  0
  157.3620  212.9540  147.4870 C   0  0  0  0  0  2  0  0  0  0  0  0
  158.2950  212.3110  145.3750 O   0  0  0  0  0  1  0  0  0  0  0  0
  159.0040  213.4030  149.3150 C   0  0  0  0  0  0  0  0  0  0  0  0
  159.8810  212.8640  147.0730 C   0  0  0  0  0  2  0  0  0  0  0  0
  157.7560  213.5170  148.8350 C   0  0  0  0  0  3  0  0  0  0  0  0
  159.5400  214.1930  150.4510 C   0  0  2  0  0  3  0  0  0  0  0  0
  160.9960  214.1150  150.3460 N   0  0  0  0  0  2  0  0  0  0  0  0
  161.3120  213.5280  149.0380 C   0  0  0  0  0  2  0  0  0  0  0  0
  157.8990  214.4230  152.4460 C   0  0  1  0  0  3  0  0  0  0  0  0
  156.7030  213.7900  152.1010 O   0  0  0  0  0  1  0  0  0  0  0  0
  158.0220  214.4490  153.8970 N   0  0  0  0  0  2  0  0  0  0  0  0
  156.0110  211.6650  155.3950 C   0  0  0  0  0  0  0  0  0  0  0  0
  155.3920  212.3330  156.4620 C   0  0  0  0  0  0  0  0  0  0  0  0
  154.5080  211.6870  157.2580 F   0  0  0  0  0  0  0  0  0  0  0  0
  156.5470  214.3760  155.8420 C   0  0  0  0  0  3  0  0  0  0  0  0
  156.8850  212.3590  154.5520 C   0  0  0  0  0  3  0  0  0  0  0  0
  157.1490  213.7210  154.7630 C   0  0  0  0  0  0  0  0  0  0  0  0
  155.6820  209.9720  155.0860 Cl  0  0  0  0  0  0  0  0  0  0  0  0
  155.6700  213.6850  156.6880 C   0  0  0  0  0  3  0  0  0  0  0  0
  159.0570  212.2390  151.8620 O   0  0  0  0  0  0  0  0  0  0  0  0
  160.1380  211.6960  152.5910 C   0  0  1  0  0  3  0  0  0  0  0  0
  160.1920  212.2580  153.8730 O   0  0  0  0  0  1  0  0  0  0  0  0
  160.0370  210.1640  152.7000 C   0  0  2  0  0  3  0  0  0  0  0  0
  160.0110  209.7750  154.1700 C   0  0  0  0  0  1  0  0  0  0  0  0
  161.1750  209.4630  152.0150 C   0  0  0  0  0  3  0  0  0  0  0  0
  161.0220  208.3660  151.2650 C   0  0  0  0  0  3  0  0  0  0  0  0
  162.2330  207.6760  150.7010 C   0  0  0  0  0  2  0  0  0  0  0  0
  162.0680  206.1560  150.8310 C   0  0  1  0  0  3  0  0  0  0  0  0
  160.2350  204.9150  149.7870 O   0  0  0  0  0  0  0  0  0  0  0  0
  161.2540  205.7850  152.0700 C   0  0  0  0  0  2  0  0  0  0  0  0
  160.8860  204.2970  152.0610 C   0  0  0  0  0  2  0  0  0  0  0  0
  161.5300  205.4220  149.5690 C   0  0  1  0  0  3  0  0  0  0  0  0
  160.3970  203.8320  150.6730 C   0  0  0  0  0  2  0  0  0  0  0  0
  161.5970  206.2270  148.2680 C   0  0  0  0  0  2  0  0  0  0  0  0
  161.3050  205.3860  147.0190 C   0  0  1  0  0  3  0  0  0  0  0  0
  161.2440  204.4720  144.3010 C   0  0  0  0  0  3  0  0  0  0  0  0
  160.3870  205.4460  144.6480 C   0  0  0  0  0  3  0  0  0  0  0  0
  162.2510  203.8980  145.2730 C   0  0  0  0  0  2  0  0  0  0  0  0
  160.4250  206.1270  145.9980 C   0  0  0  0  0  2  0  0  0  0  0  0
  162.6000  204.9020  146.3720 C   0  0  0  0  0  2  0  0  0  0  0  0
  1 23  1  6  0  0  0
  1 12  1  0  0  0  0
  2  5  1  6  0  0  0
  2  7  1  0  0  0  0
  2  4  1  0  0  0  0
  3  7  1  6  0  0  0
  3 11  1  0  0  0  0
  3  6  1  0  0  0  0
  4  8  1  0  0  0  0
  6  9  1  0  0  0  0
  8  6  2  0  0  0  0
  9  1  1  1  0  0  0
 10  9  1  0  0  0  0
 11 10  1  0  0  0  0
 12 13  1  1  0  0  0
 12 14  1  0  0  0  0
 14 20  1  0  0  0  0
 15 16  1  0  0  0  0
 16 22  2  0  0  0  0
 16 17  1  0  0  0  0
 18 22  1  0  0  0  0
 19 20  1  0  0  0  0
 19 15  2  0  0  0  0
 20 18  2  0  0  0  0
 21 15  1  0  0  0  0
 23 24  1  0  0  0  0
 24 26  1  0  0  0  0
 24 25  1  1  0  0  0
 26 27  1  1  0  0  0
 28 26  1  0  0  0  0
 29 28  2  0  0  0  0
 30 29  1  0  0  0  0
 31 30  1  6  0  0  0
 31 33  1  0  0  0  0
 32 36  1  0  0  0  0
 34 33  1  0  0  0  0
 35 37  1  6  0  0  0
 35 32  1  0  0  0  0
 35 31  1  0  0  0  0
 36 34  1  0  0  0  0
 38 37  1  1  0  0  0
 39 40  2  0  0  0  0
 39 41  1  0  0  0  0
 40 42  1  0  0  0  0
 41 43  1  0  0  0  0
 42 38  1  0  0  0  0
 43 38  1  0  0  0  0
M  END
>  <MODEL>
6

>  <REMARK>
 VINA RESULT:      -6.9      1.727      2.325
  Name = 
  12 active torsions:
  status: ('A' for Active; 'I' for Inactive)
    1  A    between atoms: N_1  and  C_34
    2  A    between atoms: N_1  and  C_35
    3  A    between atoms: C_2  and  C_6
    4  A    between atoms: C_2  and  C_13
    5  A    between atoms: C_3  and  C_4
    6  A    between atoms: C_3  and  C_12
    7  A    between atoms: C_8  and  O_27
    8  A    between atoms: C_8  and  C_30
    9  A    between atoms: C_8  and  C_34
   10  A    between atoms: C_11  and  C_14
   11  A    between atoms: C_13  and  O_27
   12  A    between atoms: C_14  and  C_41
                            x       y       z     vdW  Elec       q    Type
                         _______ _______ _______ _____ _____    ______ ____

>  <TORSDO>
F 12

$$$$
=
 OpenBabel11062410343D

 43 47  0  0  1  0  0  0  0  0999 V2000
  160.7440  206.6420  150.1230 C   0  0  1  0  0  3  0  0  0  0  0  0
  161.2130  205.2770  145.0260 C   0  0  1  0  0  3  0  0  0  0  0  0
  162.3910  205.6930  147.1560 C   0  0  1  0  0  3  0  0  0  0  0  0
  159.9600  206.0400  145.5110 C   0  0  0  0  0  2  0  0  0  0  0  0
  161.2940  205.3600  143.6380 O   0  0  0  0  0  1  0  0  0  0  0  0
  161.1910  206.4010  147.6540 C   0  0  0  0  0  0  0  0  0  0  0  0
  162.5020  205.8280  145.6450 C   0  0  0  0  0  2  0  0  0  0  0  0
  160.0810  206.5780  146.9190 C   0  0  0  0  0  3  0  0  0  0  0  0
  161.5060  207.1590  148.8900 C   0  0  2  0  0  3  0  0  0  0  0  0
  162.9460  207.0110  149.0980 N   0  0  0  0  0  2  0  0  0  0  0  0
  163.5070  206.4130  147.8810 C   0  0  0  0  0  2  0  0  0  0  0  0
  161.2600  205.2950  150.6750 C   0  0  1  0  0  3  0  0  0  0  0  0
  161.4520  205.4010  152.0550 O   0  0  0  0  0  1  0  0  0  0  0  0
  160.2950  204.2370  150.4100 N   0  0  0  0  0  2  0  0  0  0  0  0
  160.8900  201.9170  147.5290 C   0  0  0  0  0  0  0  0  0  0  0  0
  161.2070  200.7310  148.2070 C   0  0  0  0  0  0  0  0  0  0  0  0
  161.4470  199.5900  147.5210 F   0  0  0  0  0  0  0  0  0  0  0  0
  160.9530  201.8860  150.3270 C   0  0  0  0  0  3  0  0  0  0  0  0
  160.5960  203.0770  148.2520 C   0  0  0  0  0  3  0  0  0  0  0  0
  160.6150  203.0660  149.6560 C   0  0  0  0  0  0  0  0  0  0  0  0
  160.8320  201.9590  145.7780 Cl  0  0  0  0  0  0  0  0  0  0  0  0
  161.2460  200.7220  149.6050 C   0  0  0  0  0  3  0  0  0  0  0  0
  160.4570  207.6760  151.0520 O   0  0  0  0  0  0  0  0  0  0  0  0
  161.6130  208.3850  151.4480 C   0  0  1  0  0  3  0  0  0  0  0  0
  161.7910  209.5150  150.6390 O   0  0  0  0  0  1  0  0  0  0  0  0
  161.5400  208.8100  152.9250 C   0  0  2  0  0  3  0  0  0  0  0  0
  160.8340  207.7200  153.7170 C   0  0  0  0  0  1  0  0  0  0  0  0
  160.8190  210.1150  153.1120 C   0  0  0  0  0  3  0  0  0  0  0  0
  160.9490  210.8800  154.2010 C   0  0  0  0  0  3  0  0  0  0  0  0
  160.1100  212.1200  154.3440 C   0  0  0  0  0  2  0  0  0  0  0  0
  158.6440  211.7910  154.0330 C   0  0  1  0  0  3  0  0  0  0  0  0
  156.8250  213.4050  154.3050 O   0  0  0  0  0  0  0  0  0  0  0  0
  157.9350  211.1940  155.2470 C   0  0  0  0  0  2  0  0  0  0  0  0
  156.4240  211.0990  155.0090 C   0  0  0  0  0  2  0  0  0  0  0  0
  157.8080  212.9460  153.4100 C   0  0  1  0  0  3  0  0  0  0  0  0
  155.8590  212.3820  154.3640 C   0  0  0  0  0  2  0  0  0  0  0  0
  158.6260  214.1100  152.8410 C   0  0  0  0  0  2  0  0  0  0  0  0
  158.5400  214.2210  151.3140 C   0  0  1  0  0  3  0  0  0  0  0  0
  158.5560  213.5440  148.5270 C   0  0  0  0  0  3  0  0  0  0  0  0
  159.7440  213.7200  149.1290 C   0  0  0  0  0  3  0  0  0  0  0  0
  157.2470  213.6390  149.2780 C   0  0  0  0  0  2  0  0  0  0  0  0
  159.8820  213.9200  150.6220 C   0  0  0  0  0  2  0  0  0  0  0  0
  157.4320  213.3280  150.7630 C   0  0  0  0  0  2  0  0  0  0  0  0
  1 12  1  0  0  0  0
  1 23  1  1  0  0  0
  2  5  1  6  0  0  0
  2  4  1  0  0  0  0
  2  7  1  0  0  0  0
  3  7  1  6  0  0  0
  3  6  1  0  0  0  0
  3 11  1  0  0  0  0
  4  8  1  0  0  0  0
  6  9  1  0  0  0  0
  8  6  2  0  0  0  0
  9 10  1  0  0  0  0
  9  1  1  1  0  0  0
 11 10  1  0  0  0  0
 12 13  1  1  0  0  0
 14 12  1  0  0  0  0
 15 16  2  0  0  0  0
 15 19  1  0  0  0  0
 16 22  1  0  0  0  0
 17 16  1  0  0  0  0
 19 20  2  0  0  0  0
 20 18  1  0  0  0  0
 20 14  1  0  0  0  0
 21 15  1  0  0  0  0
 22 18  2  0  0  0  0
 23 24  1  0  0  0  0
 24 25  1  6  0  0  0
 24 26  1  0  0  0  0
 26 28  1  0  0  0  0
 26 27  1  1  0  0  0
 28 29  2  0  0  0  0
 29 30  1  0  0  0  0
 31 30  1  1  0  0  0
 31 33  1  0  0  0  0
 32 36  1  0  0  0  0
 34 33  1  0  0  0  0
 35 37  1  1  0  0  0
 35 31  1  0  0  0  0
 35 32  1  0  0  0  0
 36 34  1  0  0  0  0
 38 37  1  1  0  0  0
 39 40  2  0  0  0  0
 39 41  1  0  0  0  0
 40 42  1  0  0  0  0
 41 43  1  0  0  0  0
 42 38  1  0  0  0  0
 43 38  1  0  0  0  0
M  END
>  <MODEL>
7

>  <REMARK>
 VINA RESULT:      -6.8      4.099      9.044
  Name = 
  12 active torsions:
  status: ('A' for Active; 'I' for Inactive)
    1  A    between atoms: N_1  and  C_34
    2  A    between atoms: N_1  and  C_35
    3  A    between atoms: C_2  and  C_6
    4  A    between atoms: C_2  and  C_13
    5  A    between atoms: C_3  and  C_4
    6  A    between atoms: C_3  and  C_12
    7  A    between atoms: C_8  and  O_27
    8  A    between atoms: C_8  and  C_30
    9  A    between atoms: C_8  and  C_34
   10  A    between atoms: C_11  and  C_14
   11  A    between atoms: C_13  and  O_27
   12  A    between atoms: C_14  and  C_41
                            x       y       z     vdW  Elec       q    Type
                         _______ _______ _______ _____ _____    ______ ____

>  <TORSDO>
F 12

$$$$
=
 OpenBabel11062410343D

 43 47  0  0  1  0  0  0  0  0999 V2000
  161.2710  207.0230  152.2170 C   0  0  1  0  0  3  0  0  0  0  0  0
  160.7760  211.3920  155.1720 C   0  0  1  0  0  3  0  0  0  0  0  0
  161.4830  209.0270  155.1080 C   0  0  1  0  0  3  0  0  0  0  0  0
  159.9390  211.2300  153.8840 C   0  0  0  0  0  2  0  0  0  0  0  0
  160.2230  212.4000  155.9570 O   0  0  0  0  0  1  0  0  0  0  0  0
  160.7130  208.8560  153.8560 C   0  0  0  0  0  0  0  0  0  0  0  0
  160.8460  210.0950  155.9840 C   0  0  0  0  0  2  0  0  0  0  0  0
  159.9970  209.8400  153.2900 C   0  0  0  0  0  3  0  0  0  0  0  0
  160.5640  207.4160  153.5270 C   0  0  2  0  0  3  0  0  0  0  0  0
  161.1510  206.6830  154.6480 N   0  0  0  0  0  2  0  0  0  0  0  0
  161.3940  207.6490  155.7260 C   0  0  0  0  0  2  0  0  0  0  0  0
  161.3650  205.5010  151.9730 C   0  0  1  0  0  3  0  0  0  0  0  0
  160.8340  204.8200  153.0710 O   0  0  0  0  0  1  0  0  0  0  0  0
  160.6170  205.1340  150.7790 N   0  0  0  0  0  2  0  0  0  0  0  0
  161.1030  202.6600  148.0070 C   0  0  0  0  0  0  0  0  0  0  0  0
  161.1930  201.4640  148.7350 C   0  0  0  0  0  0  0  0  0  0  0  0
  161.3220  200.2780  148.0960 F   0  0  0  0  0  0  0  0  0  0  0  0
  160.9380  202.7120  150.8010 C   0  0  0  0  0  3  0  0  0  0  0  0
  160.9210  203.8730  148.6790 C   0  0  0  0  0  3  0  0  0  0  0  0
  160.8260  203.9050  150.0790 C   0  0  0  0  0  0  0  0  0  0  0  0
  161.1900  202.6520  146.2570 Cl  0  0  0  0  0  0  0  0  0  0  0  0
  161.1190  201.4960  150.1310 C   0  0  0  0  0  3  0  0  0  0  0  0
  160.8860  207.8490  151.1290 O   0  0  0  0  0  0  0  0  0  0  0  0
  161.9880  208.4840  150.5140 C   0  0  1  0  0  3  0  0  0  0  0  0
  163.1400  207.6980  150.6490 O   0  0  0  0  0  1  0  0  0  0  0  0
  161.7220  208.7640  149.0240 C   0  0  2  0  0  3  0  0  0  0  0  0
  162.2970  207.6230  148.1980 C   0  0  0  0  0  1  0  0  0  0  0  0
  162.3200  210.0650  148.5690 C   0  0  0  0  0  3  0  0  0  0  0  0
  161.7460  211.2540  148.7800 C   0  0  0  0  0  3  0  0  0  0  0  0
  162.3680  212.4940  148.2000 C   0  0  0  0  0  2  0  0  0  0  0  0
  161.3380  213.2320  147.3350 C   0  0  1  0  0  3  0  0  0  0  0  0
  158.9290  212.8310  147.4880 O   0  0  0  0  0  0  0  0  0  0  0  0
  161.1020  212.5110  146.0080 C   0  0  0  0  0  2  0  0  0  0  0  0
  159.9040  213.1100  145.2640 C   0  0  0  0  0  2  0  0  0  0  0  0
  159.9900  213.5770  148.0310 C   0  0  1  0  0  3  0  0  0  0  0  0
  158.7070  213.3660  146.2040 C   0  0  0  0  0  2  0  0  0  0  0  0
  160.0050  213.4860  149.5610 C   0  0  0  0  0  2  0  0  0  0  0  0
  158.7350  214.0480  150.2120 C   0  0  1  0  0  3  0  0  0  0  0  0
  156.0920  214.2430  151.3110 C   0  0  0  0  0  3  0  0  0  0  0  0
  156.2130  214.2800  149.9740 C   0  0  0  0  0  3  0  0  0  0  0  0
  157.2830  214.0530  152.2240 C   0  0  0  0  0  2  0  0  0  0  0  0
  157.5240  214.0270  149.2630 C   0  0  0  0  0  2  0  0  0  0  0  0
  158.4190  213.3170  151.5140 C   0  0  0  0  0  2  0  0  0  0  0  0
  1 23  1  6  0  0  0
  2  5  1  1  0  0  0
  2  7  1  0  0  0  0
  3 11  1  1  0  0  0
  3  7  1  0  0  0  0
  4  2  1  0  0  0  0
  6  3  1  0  0  0  0
  8  6  2  0  0  0  0
  8  4  1  0  0  0  0
  9  1  1  6  0  0  0
  9  6  1  0  0  0  0
  9 10  1  0  0  0  0
 10 11  1  0  0  0  0
 12  1  1  0  0  0  0
 12 13  1  1  0  0  0
 14 12  1  0  0  0  0
 15 19  2  0  0  0  0
 15 16  1  0  0  0  0
 16 22  2  0  0  0  0
 17 16  1  0  0  0  0
 19 20  1  0  0  0  0
 20 14  1  0  0  0  0
 20 18  2  0  0  0  0
 21 15  1  0  0  0  0
 22 18  1  0  0  0  0
 24 25  1  6  0  0  0
 24 23  1  0  0  0  0
 26 27  1  6  0  0  0
 26 24  1  0  0  0  0
 28 29  2  0  0  0  0
 28 26  1  0  0  0  0
 30 29  1  0  0  0  0
 31 35  1  0  0  0  0
 31 30  1  1  0  0  0
 32 35  1  0  0  0  0
 33 31  1  0  0  0  0
 34 33  1  0  0  0  0
 34 36  1  0  0  0  0
 35 37  1  1  0  0  0
 36 32  1  0  0  0  0
 38 37  1  6  0  0  0
 38 43  1  0  0  0  0
 39 41  1  0  0  0  0
 40 39  2  0  0  0  0
 42 40  1  0  0  0  0
 42 38  1  0  0  0  0
 43 41  1  0  0  0  0
M  END
>  <MODEL>
8

>  <REMARK>
 VINA RESULT:      -6.7      3.981      9.485
  Name = 
  12 active torsions:
  status: ('A' for Active; 'I' for Inactive)
    1  A    between atoms: N_1  and  C_34
    2  A    between atoms: N_1  and  C_35
    3  A    between atoms: C_2  and  C_6
    4  A    between atoms: C_2  and  C_13
    5  A    between atoms: C_3  and  C_4
    6  A    between atoms: C_3  and  C_12
    7  A    between atoms: C_8  and  O_27
    8  A    between atoms: C_8  and  C_30
    9  A    between atoms: C_8  and  C_34
   10  A    between atoms: C_11  and  C_14
   11  A    between atoms: C_13  and  O_27
   12  A    between atoms: C_14  and  C_41
                            x       y       z     vdW  Elec       q    Type
                         _______ _______ _______ _____ _____    ______ ____

>  <TORSDO>
F 12

$$$$
=
 OpenBabel11062410343D

 43 47  0  0  1  0  0  0  0  0999 V2000
  161.7430  206.3250  151.1060 C   0  0  1  0  0  3  0  0  0  0  0  0
  159.7990  208.8340  155.3470 C   0  0  1  0  0  3  0  0  0  0  0  0
  160.9680  209.0630  153.1840 C   0  0  1  0  0  3  0  0  0  0  0  0
  160.1270  207.3270  155.4230 C   0  0  0  0  0  2  0  0  0  0  0  0
  159.6700  209.3420  156.6370 O   0  0  0  0  0  1  0  0  0  0  0  0
  161.2660  207.6140  153.2190 C   0  0  0  0  0  0  0  0  0  0  0  0
  160.8760  209.6240  154.5950 C   0  0  0  0  0  2  0  0  0  0  0  0
  160.9030  206.8110  154.2310 C   0  0  0  0  0  3  0  0  0  0  0  0
  162.2850  207.2660  152.1970 C   0  0  2  0  0  3  0  0  0  0  0  0
  162.7050  208.5320  151.5980 N   0  0  0  0  0  2  0  0  0  0  0  0
  162.1540  209.6130  152.4230 C   0  0  0  0  0  2  0  0  0  0  0  0
  161.5580  204.8600  151.5580 C   0  0  1  0  0  3  0  0  0  0  0  0
  161.1890  204.8320  152.9050 O   0  0  0  0  0  1  0  0  0  0  0  0
  160.5210  204.2140  150.7670 N   0  0  0  0  0  2  0  0  0  0  0  0
  161.0790  202.1940  147.6610 C   0  0  0  0  0  0  0  0  0  0  0  0
  161.2560  200.9140  148.2070 C   0  0  0  0  0  0  0  0  0  0  0  0
  161.4370  199.8420  147.4030 F   0  0  0  0  0  0  0  0  0  0  0  0
  160.9830  201.8380  150.4360 C   0  0  0  0  0  3  0  0  0  0  0  0
  160.8430  203.2850  148.5030 C   0  0  0  0  0  3  0  0  0  0  0  0
  160.7820  203.1120  149.8940 C   0  0  0  0  0  0  0  0  0  0  0  0
  161.1210  202.4400  145.9270 Cl  0  0  0  0  0  0  0  0  0  0  0  0
  161.2160  200.7430  149.5950 C   0  0  0  0  0  3  0  0  0  0  0  0
  160.7030  206.9230  150.3470 O   0  0  0  0  0  0  0  0  0  0  0  0
  160.8170  206.6540  148.9650 C   0  0  1  0  0  3  0  0  0  0  0  0
  159.5470  206.5100  148.3920 O   0  0  0  0  0  1  0  0  0  0  0  0
  161.5940  207.7630  148.2330 C   0  0  2  0  0  3  0  0  0  0  0  0
  163.0390  207.3220  148.0650 C   0  0  0  0  0  1  0  0  0  0  0  0
  161.5490  209.0740  148.9640 C   0  0  0  0  0  3  0  0  0  0  0  0
  161.8880  210.2410  148.4070 C   0  0  0  0  0  3  0  0  0  0  0  0
  161.9090  211.4890  149.2460 C   0  0  0  0  0  2  0  0  0  0  0  0
  161.3820  212.6730  148.4250 C   0  0  1  0  0  3  0  0  0  0  0  0
  159.1600  213.6450  148.7530 O   0  0  0  0  0  0  0  0  0  0  0  0
  160.6920  212.2030  147.1450 C   0  0  0  0  0  2  0  0  0  0  0  0
  159.9580  213.3610  146.4600 C   0  0  0  0  0  2  0  0  0  0  0  0
  160.4950  213.6920  149.1970 C   0  0  1  0  0  3  0  0  0  0  0  0
  159.1680  214.2220  147.4690 C   0  0  0  0  0  2  0  0  0  0  0  0
  160.5740  213.5990  150.7240 C   0  0  0  0  0  2  0  0  0  0  0  0
  159.2350  213.2350  151.3780 C   0  0  1  0  0  3  0  0  0  0  0  0
  157.1810  212.8280  153.3380 C   0  0  0  0  0  3  0  0  0  0  0  0
  158.1350  211.8880  153.2350 C   0  0  0  0  0  3  0  0  0  0  0  0
  157.1950  214.0890  152.5030 C   0  0  0  0  0  2  0  0  0  0  0  0
  159.3580  212.0560  152.3600 C   0  0  0  0  0  2  0  0  0  0  0  0
  158.6130  214.4500  152.0620 C   0  0  0  0  0  2  0  0  0  0  0  0
  1 23  1  1  0  0  0
  1 12  1  0  0  0  0
  2  4  1  0  0  0  0
  2  5  1  1  0  0  0
  3 11  1  6  0  0  0
  3  6  1  0  0  0  0
  3  7  1  0  0  0  0
  6  8  2  0  0  0  0
  7  2  1  0  0  0  0
  8  4  1  0  0  0  0
  9  1  1  6  0  0  0
  9  6  1  0  0  0  0
 10  9  1  0  0  0  0
 10 11  1  0  0  0  0
 12 13  1  1  0  0  0
 14 12  1  0  0  0  0
 15 16  2  0  0  0  0
 15 19  1  0  0  0  0
 16 22  1  0  0  0  0
 17 16  1  0  0  0  0
 19 20  2  0  0  0  0
 20 18  1  0  0  0  0
 20 14  1  0  0  0  0
 21 15  1  0  0  0  0
 22 18  2  0  0  0  0
 24 25  1  6  0  0  0
 24 23  1  0  0  0  0
 26 27  1  1  0  0  0
 26 28  1  0  0  0  0
 26 24  1  0  0  0  0
 29 28  2  0  0  0  0
 29 30  1  0  0  0  0
 31 35  1  0  0  0  0
 31 30  1  1  0  0  0
 32 35  1  0  0  0  0
 33 31  1  0  0  0  0
 34 33  1  0  0  0  0
 34 36  1  0  0  0  0
 35 37  1  1  0  0  0
 36 32  1  0  0  0  0
 38 37  1  1  0  0  0
 38 43  1  0  0  0  0
 38 42  1  0  0  0  0
 40 39  2  0  0  0  0
 41 39  1  0  0  0  0
 42 40  1  0  0  0  0
 43 41  1  0  0  0  0
M  END
>  <MODEL>
9

>  <REMARK>
 VINA RESULT:      -6.7      3.966      9.661
  Name = 
  12 active torsions:
  status: ('A' for Active; 'I' for Inactive)
    1  A    between atoms: N_1  and  C_34
    2  A    between atoms: N_1  and  C_35
    3  A    between atoms: C_2  and  C_6
    4  A    between atoms: C_2  and  C_13
    5  A    between atoms: C_3  and  C_4
    6  A    between atoms: C_3  and  C_12
    7  A    between atoms: C_8  and  O_27
    8  A    between atoms: C_8  and  C_30
    9  A    between atoms: C_8  and  C_34
   10  A    between atoms: C_11  and  C_14
   11  A    between atoms: C_13  and  O_27
   12  A    between atoms: C_14  and  C_41
                            x       y       z     vdW  Elec       q    Type
                         _______ _______ _______ _____ _____    ______ ____

>  <TORSDO>
F 12

$$$$
