=
 OpenBabel11062409343D

 34 40  0  0  1  0  0  0  0  0999 V2000
  161.3560  208.9100  153.2570 C   0  0  0  0  0  3  0  0  0  0  0  0
  160.6010  211.2930  151.6820 C   0  0  0  0  0  2  0  0  0  0  0  0
  159.2080  211.4100  155.0810 C   0  0  2  0  0  0  0  0  0  0  0  0
  159.9650  210.0610  155.1280 C   0  0  0  0  0  2  0  0  0  0  0  0
  160.5570  209.9590  153.7690 C   0  0  0  0  0  0  0  0  0  0  0  0
  162.0830  209.7930  149.9910 N   0  0  0  0  0  0  0  0  0  0  0  0
  159.4270  211.9440  153.7710 O   0  0  0  0  0  0  0  0  0  0  0  0
  160.2030  211.0880  153.0220 C   0  0  0  0  0  0  0  0  0  0  0  0
  159.7760  212.3570  156.1210 C   0  0  0  0  0  1  0  0  0  0  0  0
  161.3830  210.2570  151.1890 C   0  0  2  0  0  0  0  0  0  0  0  0
  161.7460  209.1190  151.9410 C   0  0  0  0  0  0  0  0  0  0  0  0
  162.4600  208.6650  150.7750 C   0  0  2  0  0  0  0  0  0  0  0  0
  159.9810  205.2980  150.8760 C   0  0  0  0  0  2  0  0  0  0  0  0
  160.5080  207.4870  150.0020 O   0  0  0  0  0  0  0  0  0  0  0  0
  161.4460  204.9440  151.0650 C   0  0  1  0  0  3  0  0  0  0  0  0
  163.6170  205.9740  151.3040 O   0  0  0  0  0  1  0  0  0  0  0  0
  162.2450  206.2350  151.2560 C   0  0  1  0  0  3  0  0  0  0  0  0
  159.8760  206.2610  149.7080 C   0  0  0  0  0  2  0  0  0  0  0  0
  161.9150  207.3320  150.1990 C   0  0  2  0  0  0  0  0  0  0  0  0
  161.5930  204.0760  152.2280 N   0  0  0  0  0  0  0  0  0  0  0  0
  161.9650  202.7370  151.7350 C   0  0  0  0  0  2  0  0  0  0  0  0
  160.5830  203.0080  152.1060 C   0  0  0  0  0  2  0  0  0  0  0  0
  162.6660  207.1210  148.8550 C   0  0  0  0  0  2  0  0  0  0  0  0
  161.0510  206.8470  146.8660 C   0  0  0  0  0  3  0  0  0  0  0  0
  161.3410  204.8600  145.4340 C   0  0  0  0  0  2  0  0  0  0  0  0
  160.6990  206.1820  145.7610 C   0  0  0  0  0  3  0  0  0  0  0  0
  162.3480  204.9650  147.7170 C   0  0  0  0  0  3  0  0  0  0  0  0
  162.0050  206.2550  147.8270 C   0  0  0  0  0  0  0  0  0  0  0  0
  161.6560  204.0790  146.7150 C   0  0  0  0  0  2  0  0  0  0  0  0
  157.7430  211.2050  155.3270 C   0  0  0  0  0  0  0  0  0  0  0  0
  157.2470  211.1830  156.6260 O   0  0  0  0  0  1  0  0  0  0  0  0
  156.9430  211.1000  154.3590 O   0  0  0  0  0  0  0  0  0  0  0  0
  162.3170  210.2920  148.6480 C   0  0  0  0  0  2  0  0  0  0  0  0
  162.2390  211.6840  148.6450 O   0  0  0  0  0  1  0  0  0  0  0  0
  1  5  1  0  0  0  0
  2  8  1  0  0  0  0
  3  4  1  0  0  0  0
  3 30  1  0  0  0  0
  3  9  1  1  0  0  0
  5  4  1  0  0  0  0
  6 12  1  0  0  0  0
  6 10  1  0  0  0  0
  7  3  1  0  0  0  0
  8  5  2  0  0  0  0
  8  7  1  0  0  0  0
 10  2  1  1  0  0  0
 10 11  1  0  0  0  0
 11  1  2  0  0  0  0
 12 10  1  0  0  0  0
 12 11  1  1  0  0  0
 14 19  1  0  0  0  0
 15 13  1  1  0  0  0
 15 17  1  0  0  0  0
 15 20  1  0  0  0  0
 17 16  1  6  0  0  0
 18 14  1  0  0  0  0
 18 13  1  0  0  0  0
 19 23  1  6  0  0  0
 19 12  1  0  0  0  0
 19 17  1  0  0  0  0
 21 22  1  0  0  0  0
 21 20  1  0  0  0  0
 22 20  1  0  0  0  0
 24 28  1  0  0  0  0
 25 26  1  0  0  0  0
 25 29  1  0  0  0  0
 26 24  2  0  0  0  0
 27 28  2  0  0  0  0
 28 23  1  0  0  0  0
 29 27  1  0  0  0  0
 30 31  1  0  0  0  0
 32 30  2  0  0  0  0
 33  6  1  0  0  0  0
 34 33  1  0  0  0  0
M  END
>  <MODEL>
1

>  <REMARK>
 VINA RESULT:      -5.3      0.000      0.000
  Name = 
  6 active torsions:
  status: ('A' for Active; 'I' for Inactive)
    1  A    between atoms: C_1  and  C_20
    2  A    between atoms: C_1  and  C_34
    3  A    between atoms: N_3  and  C_23
    4  A    between atoms: C_7  and  C_11
    5  A    between atoms: C_8  and  N_18
    6  A    between atoms: C_33  and  C_34
                            x       y       z     vdW  Elec       q    Type
                         _______ _______ _______ _____ _____    ______ ____

>  <TORSDO>
F 6

$$$$
=
 OpenBabel11062409343D

 34 40  0  0  1  0  0  0  0  0999 V2000
  160.8120  209.9400  152.4220 C   0  0  0  0  0  3  0  0  0  0  0  0
  161.3890  208.5520  154.9660 C   0  0  0  0  0  2  0  0  0  0  0  0
  161.7840  206.3170  152.0750 C   0  0  2  0  0  0  0  0  0  0  0  0
  161.3690  207.6290  151.3680 C   0  0  0  0  0  2  0  0  0  0  0  0
  161.1950  208.5800  152.4960 C   0  0  0  0  0  0  0  0  0  0  0  0
  160.7170  211.0660  155.6930 N   0  0  0  0  0  0  0  0  0  0  0  0
  161.8220  206.6140  153.4750 O   0  0  0  0  0  0  0  0  0  0  0  0
  161.4710  207.9260  153.7020 C   0  0  0  0  0  0  0  0  0  0  0  0
  163.1630  205.8920  151.6040 C   0  0  0  0  0  1  0  0  0  0  0  0
  161.0100  209.8850  154.8820 C   0  0  2  0  0  0  0  0  0  0  0  0
  160.7360  210.5500  153.6670 C   0  0  0  0  0  0  0  0  0  0  0  0
  160.4700  211.7260  154.4550 C   0  0  2  0  0  0  0  0  0  0  0  0
  157.0780  213.7080  155.8910 C   0  0  0  0  0  2  0  0  0  0  0  0
  159.0290  213.6540  154.4680 O   0  0  0  0  0  0  0  0  0  0  0  0
  156.8670  212.2080  155.7760 C   0  0  1  0  0  3  0  0  0  0  0  0
  158.0520  210.1750  155.2350 O   0  0  0  0  0  1  0  0  0  0  0  0
  158.2120  211.5420  155.4800 C   0  0  1  0  0  3  0  0  0  0  0  0
  157.7330  214.1920  154.6100 C   0  0  0  0  0  2  0  0  0  0  0  0
  159.0090  212.2320  154.3320 C   0  0  2  0  0  0  0  0  0  0  0  0
  156.3070  211.6960  157.0220 N   0  0  0  0  0  0  0  0  0  0  0  0
  155.1010  210.9200  156.6770 C   0  0  0  0  0  2  0  0  0  0  0  0
  154.9620  212.2830  157.1680 C   0  0  0  0  0  2  0  0  0  0  0  0
  158.5330  211.7940  152.9190 C   0  0  0  0  0  2  0  0  0  0  0  0
  159.9230  213.1960  151.2630 C   0  0  0  0  0  3  0  0  0  0  0  0
  158.7560  214.1040  149.2880 C   0  0  0  0  0  2  0  0  0  0  0  0
  160.0000  213.8430  150.0960 C   0  0  0  0  0  3  0  0  0  0  0  0
  157.4860  213.2990  151.2810 C   0  0  0  0  0  3  0  0  0  0  0  0
  158.6100  212.8100  151.8220 C   0  0  0  0  0  0  0  0  0  0  0  0
  157.5560  214.3530  150.2080 C   0  0  0  0  0  2  0  0  0  0  0  0
  160.7940  205.2270  151.7950 C   0  0  0  0  0  0  0  0  0  0  0  0
  160.1520  205.1620  150.5630 O   0  0  0  0  0  0  0  0  0  0  0  0
  160.5720  204.3320  152.6540 O   0  0  0  0  0  1  0  0  0  0  0  0
  160.7290  211.4050  157.1040 C   0  0  0  0  0  2  0  0  0  0  0  0
  160.8790  212.7820  157.2550 O   0  0  0  0  0  1  0  0  0  0  0  0
  1  5  1  0  0  0  0
  1 11  2  0  0  0  0
  3  9  1  6  0  0  0
  3  7  1  0  0  0  0
  4  3  1  0  0  0  0
  4  5  1  0  0  0  0
  5  8  2  0  0  0  0
  6 33  1  0  0  0  0
  7  8  1  0  0  0  0
  8  2  1  0  0  0  0
 10  2  1  6  0  0  0
 10  6  1  0  0  0  0
 11 10  1  0  0  0  0
 12 11  1  6  0  0  0
 12 10  1  0  0  0  0
 12  6  1  0  0  0  0
 14 18  1  0  0  0  0
 15 13  1  1  0  0  0
 15 20  1  0  0  0  0
 17 16  1  6  0  0  0
 17 15  1  0  0  0  0
 18 13  1  0  0  0  0
 19 23  1  6  0  0  0
 19 12  1  0  0  0  0
 19 14  1  0  0  0  0
 19 17  1  0  0  0  0
 20 22  1  0  0  0  0
 21 20  1  0  0  0  0
 21 22  1  0  0  0  0
 24 28  1  0  0  0  0
 25 26  1  0  0  0  0
 25 29  1  0  0  0  0
 26 24  2  0  0  0  0
 27 28  2  0  0  0  0
 28 23  1  0  0  0  0
 29 27  1  0  0  0  0
 30  3  1  0  0  0  0
 30 32  1  0  0  0  0
 31 30  2  0  0  0  0
 33 34  1  0  0  0  0
M  END
>  <MODEL>
2

>  <REMARK>
 VINA RESULT:      -4.5      3.380      7.999
  Name = 
  6 active torsions:
  status: ('A' for Active; 'I' for Inactive)
    1  A    between atoms: C_1  and  C_20
    2  A    between atoms: C_1  and  C_34
    3  A    between atoms: N_3  and  C_23
    4  A    between atoms: C_7  and  C_11
    5  A    between atoms: C_8  and  N_18
    6  A    between atoms: C_33  and  C_34
                            x       y       z     vdW  Elec       q    Type
                         _______ _______ _______ _____ _____    ______ ____

>  <TORSDO>
F 6

$$$$
=
 OpenBabel11062409343D

 34 40  0  0  1  0  0  0  0  0999 V2000
  161.8810  210.3490  150.8510 C   0  0  0  0  0  3  0  0  0  0  0  0
  161.6850  209.8480  147.9450 C   0  0  0  0  0  2  0  0  0  0  0  0
  160.6460  213.2650  148.8110 C   0  0  2  0  0  0  0  0  0  0  0  0
  161.0070  212.7120  150.2110 C   0  0  0  0  0  2  0  0  0  0  0  0
  161.4410  211.3210  149.9220 C   0  0  0  0  0  0  0  0  0  0  0  0
  162.5640  207.5140  148.9860 N   0  0  0  0  0  0  0  0  0  0  0  0
  160.8990  212.2030  147.8860 O   0  0  0  0  0  0  0  0  0  0  0  0
  161.3520  211.0820  148.5470 C   0  0  0  0  0  0  0  0  0  0  0  0
  161.5300  214.4530  148.4830 C   0  0  0  0  0  1  0  0  0  0  0  0
  162.1130  208.9010  148.8650 C   0  0  2  0  0  0  0  0  0  0  0  0
  162.2090  209.1390  150.2530 C   0  0  0  0  0  0  0  0  0  0  0  0
  162.6790  207.7830  150.3800 C   0  0  2  0  0  0  0  0  0  0  0  0
  161.4080  204.0930  151.8860 C   0  0  0  0  0  2  0  0  0  0  0  0
  162.5620  206.1940  152.1850 O   0  0  0  0  0  0  0  0  0  0  0  0
  160.4040  204.7020  150.9220 C   0  0  1  0  0  3  0  0  0  0  0  0
  160.1190  206.5880  149.4410 O   0  0  0  0  0  1  0  0  0  0  0  0
  161.0460  205.9130  150.2410 C   0  0  1  0  0  3  0  0  0  0  0  0
  161.8490  205.1760  152.8530 C   0  0  0  0  0  2  0  0  0  0  0  0
  161.7470  206.8860  151.2370 C   0  0  2  0  0  0  0  0  0  0  0  0
  160.0140  203.7060  149.9290 N   0  0  0  0  0  0  0  0  0  0  0  0
  160.7310  202.4590  150.2490 C   0  0  0  0  0  2  0  0  0  0  0  0
  161.2320  203.3250  149.1920 C   0  0  0  0  0  2  0  0  0  0  0  0
  160.7540  207.8600  151.9300 C   0  0  0  0  0  2  0  0  0  0  0  0
  161.5500  209.2280  153.9630 C   0  0  0  0  0  3  0  0  0  0  0  0
  160.4690  208.7690  156.1330 C   0  0  0  0  0  2  0  0  0  0  0  0
  161.3980  209.5590  155.2490 C   0  0  0  0  0  3  0  0  0  0  0  0
  160.3070  207.1480  154.2410 C   0  0  0  0  0  3  0  0  0  0  0  0
  160.8810  208.0300  153.4130 C   0  0  0  0  0  0  0  0  0  0  0  0
  160.4670  207.2900  155.7310 C   0  0  0  0  0  2  0  0  0  0  0  0
  159.2050  213.6760  148.7590 C   0  0  0  0  0  0  0  0  0  0  0  0
  158.3920  213.5260  149.8770 O   0  0  0  0  0  1  0  0  0  0  0  0
  158.7310  214.2050  147.7180 O   0  0  0  0  0  0  0  0  0  0  0  0
  162.8210  206.4070  148.0830 C   0  0  0  0  0  2  0  0  0  0  0  0
  162.1400  206.6130  146.8840 O   0  0  0  0  0  1  0  0  0  0  0  0
  2  8  1  0  0  0  0
  3  9  1  6  0  0  0
  3  4  1  0  0  0  0
  5  4  1  0  0  0  0
  5  1  1  0  0  0  0
  6 12  1  0  0  0  0
  7  8  1  0  0  0  0
  7  3  1  0  0  0  0
  8  5  2  0  0  0  0
 10  2  1  6  0  0  0
 10  6  1  0  0  0  0
 10 11  1  0  0  0  0
 10 12  1  0  0  0  0
 11  1  2  0  0  0  0
 12 11  1  1  0  0  0
 12 19  1  0  0  0  0
 13 18  1  0  0  0  0
 14 18  1  0  0  0  0
 15 20  1  6  0  0  0
 15 13  1  0  0  0  0
 17 16  1  1  0  0  0
 17 15  1  0  0  0  0
 17 19  1  0  0  0  0
 19 23  1  1  0  0  0
 19 14  1  0  0  0  0
 20 21  1  0  0  0  0
 22 20  1  0  0  0  0
 22 21  1  0  0  0  0
 23 28  1  0  0  0  0
 24 26  2  0  0  0  0
 26 25  1  0  0  0  0
 27 29  1  0  0  0  0
 28 24  1  0  0  0  0
 28 27  2  0  0  0  0
 29 25  1  0  0  0  0
 30  3  1  0  0  0  0
 30 31  1  0  0  0  0
 32 30  2  0  0  0  0
 33  6  1  0  0  0  0
 34 33  1  0  0  0  0
M  END
>  <MODEL>
3

>  <REMARK>
 VINA RESULT:      -3.8      2.532      5.482
  Name = 
  6 active torsions:
  status: ('A' for Active; 'I' for Inactive)
    1  A    between atoms: C_1  and  C_20
    2  A    between atoms: C_1  and  C_34
    3  A    between atoms: N_3  and  C_23
    4  A    between atoms: C_7  and  C_11
    5  A    between atoms: C_8  and  N_18
    6  A    between atoms: C_33  and  C_34
                            x       y       z     vdW  Elec       q    Type
                         _______ _______ _______ _____ _____    ______ ____

>  <TORSDO>
F 6

$$$$
=
 OpenBabel11062409343D

 34 40  0  0  1  0  0  0  0  0999 V2000
  162.5500  208.0220  149.6600 C   0  0  0  0  0  3  0  0  0  0  0  0
  160.6940  205.8920  150.5270 C   0  0  0  0  0  2  0  0  0  0  0  0
  161.5270  205.6040  146.9590 C   0  0  2  0  0  0  0  0  0  0  0  0
  162.3530  206.8550  147.3460 C   0  0  0  0  0  2  0  0  0  0  0  0
  162.0560  207.0200  148.7920 C   0  0  0  0  0  0  0  0  0  0  0  0
  161.1170  207.3780  152.7440 N   0  0  0  0  0  0  0  0  0  0  0  0
  160.8690  205.1760  148.1550 O   0  0  0  0  0  0  0  0  0  0  0  0
  161.1800  206.0110  149.2050 C   0  0  0  0  0  0  0  0  0  0  0  0
  162.4520  204.5090  146.4620 C   0  0  0  0  0  1  0  0  0  0  0  0
  161.1830  206.8800  151.3700 C   0  0  2  0  0  0  0  0  0  0  0  0
  162.0710  207.8980  150.9580 C   0  0  0  0  0  0  0  0  0  0  0  0
  162.0330  208.3810  152.3140 C   0  0  2  0  0  0  0  0  0  0  0  0
  159.3710  211.4290  151.2610 C   0  0  0  0  0  2  0  0  0  0  0  0
  160.0690  209.6900  152.7840 O   0  0  0  0  0  0  0  0  0  0  0  0
  160.8000  211.7430  150.8550 C   0  0  1  0  0  3  0  0  0  0  0  0
  163.0070  210.7630  150.8180 O   0  0  0  0  0  1  0  0  0  0  0  0
  161.6560  210.4910  151.0540 C   0  0  1  0  0  3  0  0  0  0  0  0
  159.3880  210.9210  152.6920 C   0  0  0  0  0  2  0  0  0  0  0  0
  161.4500  209.8120  152.4420 C   0  0  2  0  0  0  0  0  0  0  0  0
  160.8290  212.1640  149.4580 N   0  0  0  0  0  0  0  0  0  0  0  0
  161.5780  213.4330  149.3960 C   0  0  0  0  0  2  0  0  0  0  0  0
  160.1230  213.4560  149.3770 C   0  0  0  0  0  2  0  0  0  0  0  0
  162.2670  210.4950  153.5750 C   0  0  0  0  0  2  0  0  0  0  0  0
  160.8310  211.4750  155.4770 C   0  0  0  0  0  3  0  0  0  0  0  0
  160.0700  209.9230  157.2380 C   0  0  0  0  0  2  0  0  0  0  0  0
  160.0860  211.2710  156.5680 C   0  0  0  0  0  3  0  0  0  0  0  0
  161.9540  209.3220  155.7130 C   0  0  0  0  0  3  0  0  0  0  0  0
  161.7190  210.4090  154.9660 C   0  0  0  0  0  0  0  0  0  0  0  0
  161.4420  209.2480  157.1270 C   0  0  0  0  0  2  0  0  0  0  0  0
  160.5230  205.9400  145.8970 C   0  0  0  0  0  0  0  0  0  0  0  0
  160.8840  205.9100  144.5550 O   0  0  0  0  0  0  0  0  0  0  0  0
  159.3300  206.2030  146.2090 O   0  0  0  0  0  1  0  0  0  0  0  0
  160.4570  206.9850  153.9760 C   0  0  0  0  0  2  0  0  0  0  0  0
  160.8290  205.6850  154.3130 O   0  0  0  0  0  1  0  0  0  0  0  0
  1 11  2  0  0  0  0
  3  9  1  6  0  0  0
  3  4  1  0  0  0  0
  3  7  1  0  0  0  0
  4  5  1  0  0  0  0
  5  8  2  0  0  0  0
  5  1  1  0  0  0  0
  6 33  1  0  0  0  0
  7  8  1  0  0  0  0
  8  2  1  0  0  0  0
 10  2  1  1  0  0  0
 10 12  1  0  0  0  0
 10  6  1  0  0  0  0
 11 10  1  0  0  0  0
 12 11  1  1  0  0  0
 12 19  1  0  0  0  0
 12  6  1  0  0  0  0
 13 18  1  0  0  0  0
 15 20  1  6  0  0  0
 15 17  1  0  0  0  0
 15 13  1  0  0  0  0
 17 16  1  1  0  0  0
 17 19  1  0  0  0  0
 18 14  1  0  0  0  0
 19 14  1  0  0  0  0
 19 23  1  1  0  0  0
 21 20  1  0  0  0  0
 22 21  1  0  0  0  0
 22 20  1  0  0  0  0
 23 28  1  0  0  0  0
 24 26  2  0  0  0  0
 26 25  1  0  0  0  0
 27 29  1  0  0  0  0
 28 24  1  0  0  0  0
 28 27  2  0  0  0  0
 29 25  1  0  0  0  0
 30 32  1  0  0  0  0
 30  3  1  0  0  0  0
 31 30  2  0  0  0  0
 33 34  1  0  0  0  0
M  END
>  <MODEL>
4

>  <REMARK>
 VINA RESULT:      -3.5      2.265      8.251
  Name = 
  6 active torsions:
  status: ('A' for Active; 'I' for Inactive)
    1  A    between atoms: C_1  and  C_20
    2  A    between atoms: C_1  and  C_34
    3  A    between atoms: N_3  and  C_23
    4  A    between atoms: C_7  and  C_11
    5  A    between atoms: C_8  and  N_18
    6  A    between atoms: C_33  and  C_34
                            x       y       z     vdW  Elec       q    Type
                         _______ _______ _______ _____ _____    ______ ____

>  <TORSDO>
F 6

$$$$
=
 OpenBabel11062409343D

 34 40  0  0  1  0  0  0  0  0999 V2000
  157.9690  210.5590  139.5780 C   0  0  0  0  0  3  0  0  0  0  0  0
  157.2390  212.2150  137.2420 C   0  0  0  0  0  2  0  0  0  0  0  0
  154.5190  209.9370  138.2000 C   0  0  2  0  0  0  0  0  0  0  0  0
  155.5840  209.5730  139.2610 C   0  0  0  0  0  2  0  0  0  0  0  0
  156.7180  210.4730  138.9230 C   0  0  0  0  0  0  0  0  0  0  0  0
  159.7610  212.9680  137.8550 N   0  0  0  0  0  0  0  0  0  0  0  0
  155.0980  210.9670  137.3920 O   0  0  0  0  0  0  0  0  0  0  0  0
  156.3730  211.2590  137.8190 C   0  0  0  0  0  0  0  0  0  0  0  0
  153.2700  210.4620  138.8820 C   0  0  0  0  0  1  0  0  0  0  0  0
  158.4650  212.2910  137.8890 C   0  0  2  0  0  0  0  0  0  0  0  0
  158.8140  211.5020  139.0070 C   0  0  0  0  0  0  0  0  0  0  0  0
  160.0850  212.1800  138.9980 C   0  0  2  0  0  0  0  0  0  0  0  0
  161.8210  208.6700  137.5300 C   0  0  0  0  0  2  0  0  0  0  0  0
  161.3990  211.0400  137.3340 O   0  0  0  0  0  0  0  0  0  0  0  0
  161.8190  208.7230  139.0470 C   0  0  1  0  0  3  0  0  0  0  0  0
  161.0320  210.0810  140.8830 O   0  0  0  0  0  1  0  0  0  0  0  0
  160.9610  209.9080  139.4980 C   0  0  1  0  0  3  0  0  0  0  0  0
  162.3080  210.0110  137.0110 C   0  0  0  0  0  2  0  0  0  0  0  0
  161.2870  211.2330  138.7460 C   0  0  2  0  0  0  0  0  0  0  0  0
  161.2850  207.4750  139.5800 N   0  0  0  0  0  0  0  0  0  0  0  0
  162.2810  206.9360  140.5240 C   0  0  0  0  0  2  0  0  0  0  0  0
  162.2070  206.3980  139.1740 C   0  0  0  0  0  2  0  0  0  0  0  0
  162.5260  211.9690  139.3280 C   0  0  0  0  0  2  0  0  0  0  0  0
  161.6420  213.9690  140.6910 C   0  0  0  0  0  3  0  0  0  0  0  0
  161.3410  213.6430  143.1170 C   0  0  0  0  0  2  0  0  0  0  0  0
  161.2010  214.4530  141.8560 C   0  0  0  0  0  3  0  0  0  0  0  0
  162.7590  212.0900  141.7720 C   0  0  0  0  0  3  0  0  0  0  0  0
  162.3540  212.6740  140.6380 C   0  0  0  0  0  0  0  0  0  0  0  0
  162.6280  212.8120  143.0870 C   0  0  0  0  0  2  0  0  0  0  0  0
  154.1750  208.7420  137.3620 C   0  0  0  0  0  0  0  0  0  0  0  0
  155.1600  207.8250  137.0110 O   0  0  0  0  0  1  0  0  0  0  0  0
  152.9830  208.5320  137.0110 O   0  0  0  0  0  0  0  0  0  0  0  0
  160.3900  214.0000  137.0510 C   0  0  0  0  0  2  0  0  0  0  0  0
  161.7320  214.1180  137.4070 O   0  0  0  0  0  1  0  0  0  0  0  0
  2  8  1  0  0  0  0
  3  9  1  1  0  0  0
  3  4  1  0  0  0  0
  5  4  1  0  0  0  0
  5  1  1  0  0  0  0
  6 10  1  0  0  0  0
  6 12  1  0  0  0  0
  7  8  1  0  0  0  0
  7  3  1  0  0  0  0
  8  5  2  0  0  0  0
 10  2  1  1  0  0  0
 10 12  1  0  0  0  0
 10 11  1  0  0  0  0
 11  1  2  0  0  0  0
 12 11  1  1  0  0  0
 14 19  1  0  0  0  0
 15 13  1  6  0  0  0
 15 17  1  0  0  0  0
 15 20  1  0  0  0  0
 17 16  1  1  0  0  0
 18 14  1  0  0  0  0
 18 13  1  0  0  0  0
 19 12  1  0  0  0  0
 19 23  1  1  0  0  0
 19 17  1  0  0  0  0
 20 21  1  0  0  0  0
 22 20  1  0  0  0  0
 22 21  1  0  0  0  0
 23 28  1  0  0  0  0
 24 26  2  0  0  0  0
 26 25  1  0  0  0  0
 27 29  1  0  0  0  0
 28 24  1  0  0  0  0
 28 27  2  0  0  0  0
 29 25  1  0  0  0  0
 30  3  1  0  0  0  0
 31 30  1  0  0  0  0
 32 30  2  0  0  0  0
 33 34  1  0  0  0  0
 33  6  1  0  0  0  0
M  END
>  <MODEL>
5

>  <REMARK>
 VINA RESULT:      -3.3     10.438     13.752
  Name = 
  6 active torsions:
  status: ('A' for Active; 'I' for Inactive)
    1  A    between atoms: C_1  and  C_20
    2  A    between atoms: C_1  and  C_34
    3  A    between atoms: N_3  and  C_23
    4  A    between atoms: C_7  and  C_11
    5  A    between atoms: C_8  and  N_18
    6  A    between atoms: C_33  and  C_34
                            x       y       z     vdW  Elec       q    Type
                         _______ _______ _______ _____ _____    ______ ____

>  <TORSDO>
F 6

$$$$
=
 OpenBabel11062409343D

 34 40  0  0  1  0  0  0  0  0999 V2000
  161.2180  210.1270  152.2480 C   0  0  0  0  0  3  0  0  0  0  0  0
  161.1090  207.4130  153.4120 C   0  0  0  0  0  2  0  0  0  0  0  0
  161.9320  207.3260  149.8320 C   0  0  2  0  0  0  0  0  0  0  0  0
  161.7930  208.8510  150.0570 C   0  0  0  0  0  2  0  0  0  0  0  0
  161.4600  208.9490  151.5010 C   0  0  0  0  0  0  0  0  0  0  0  0
  160.5120  209.0650  155.4660 N   0  0  0  0  0  0  0  0  0  0  0  0
  161.6890  206.7120  151.1020 O   0  0  0  0  0  0  0  0  0  0  0  0
  161.4100  207.6660  152.0550 C   0  0  0  0  0  0  0  0  0  0  0  0
  163.3380  207.0000  149.3650 C   0  0  0  0  0  1  0  0  0  0  0  0
  160.8720  208.5740  154.1360 C   0  0  2  0  0  0  0  0  0  0  0  0
  160.9260  209.8710  153.5820 C   0  0  0  0  0  0  0  0  0  0  0  0
  160.5960  210.3670  154.8930 C   0  0  2  0  0  0  0  0  0  0  0  0
  157.3620  212.3400  153.1210 C   0  0  0  0  0  2  0  0  0  0  0  0
  158.2980  210.3800  154.1760 O   0  0  0  0  0  0  0  0  0  0  0  0
  158.2420  213.2800  153.9260 C   0  0  1  0  0  3  0  0  0  0  0  0
  160.3020  213.3150  155.1870 O   0  0  0  0  0  1  0  0  0  0  0  0
  159.5160  212.5350  154.3330 C   0  0  1  0  0  3  0  0  0  0  0  0
  157.1060  211.1000  153.9590 C   0  0  0  0  0  2  0  0  0  0  0  0
  159.2450  211.1270  154.9430 C   0  0  2  0  0  0  0  0  0  0  0  0
  158.5710  214.4520  153.1220 N   0  0  0  0  0  0  0  0  0  0  0  0
  157.8590  214.3190  151.8370 C   0  0  0  0  0  2  0  0  0  0  0  0
  159.2710  213.9700  151.9160 C   0  0  0  0  0  2  0  0  0  0  0  0
  158.8540  211.1850  156.4460 C   0  0  0  0  0  2  0  0  0  0  0  0
  157.8030  213.4000  157.2390 C   0  0  0  0  0  3  0  0  0  0  0  0
  155.4090  213.7540  156.7610 C   0  0  0  0  0  2  0  0  0  0  0  0
  156.7500  214.2230  157.2610 C   0  0  0  0  0  3  0  0  0  0  0  0
  156.4220  211.4750  156.6600 C   0  0  0  0  0  3  0  0  0  0  0  0
  157.6480  211.9930  156.8110 C   0  0  0  0  0  0  0  0  0  0  0  0
  155.2070  212.2660  157.0660 C   0  0  0  0  0  2  0  0  0  0  0  0
  160.9370  206.8470  148.8170 C   0  0  0  0  0  0  0  0  0  0  0  0
  161.0410  207.2460  147.4900 O   0  0  0  0  0  0  0  0  0  0  0  0
  160.0280  206.0400  149.1500 O   0  0  0  0  0  1  0  0  0  0  0  0
  160.2450  208.4820  156.7680 C   0  0  0  0  0  2  0  0  0  0  0  0
  159.9650  207.1240  156.6250 O   0  0  0  0  0  1  0  0  0  0  0  0
  1 11  2  0  0  0  0
  3  9  1  6  0  0  0
  3  4  1  0  0  0  0
  3  7  1  0  0  0  0
  4  5  1  0  0  0  0
  5  8  2  0  0  0  0
  5  1  1  0  0  0  0
  6 33  1  0  0  0  0
  7  8  1  0  0  0  0
  8  2  1  0  0  0  0
 10  2  1  1  0  0  0
 10 12  1  0  0  0  0
 10  6  1  0  0  0  0
 11 10  1  0  0  0  0
 12 11  1  1  0  0  0
 12 19  1  0  0  0  0
 12  6  1  0  0  0  0
 13 18  1  0  0  0  0
 14 19  1  0  0  0  0
 15 13  1  6  0  0  0
 15 17  1  0  0  0  0
 17 19  1  0  0  0  0
 17 16  1  1  0  0  0
 18 14  1  0  0  0  0
 19 23  1  1  0  0  0
 20 15  1  0  0  0  0
 21 22  1  0  0  0  0
 21 20  1  0  0  0  0
 22 20  1  0  0  0  0
 23 28  1  0  0  0  0
 24 26  2  0  0  0  0
 25 29  1  0  0  0  0
 25 26  1  0  0  0  0
 27 28  2  0  0  0  0
 27 29  1  0  0  0  0
 28 24  1  0  0  0  0
 30 32  1  0  0  0  0
 30  3  1  0  0  0  0
 31 30  2  0  0  0  0
 34 33  1  0  0  0  0
M  END
>  <MODEL>
6

>  <REMARK>
 VINA RESULT:      -3.1      2.710      8.984
  Name = 
  6 active torsions:
  status: ('A' for Active; 'I' for Inactive)
    1  A    between atoms: C_1  and  C_20
    2  A    between atoms: C_1  and  C_34
    3  A    between atoms: N_3  and  C_23
    4  A    between atoms: C_7  and  C_11
    5  A    between atoms: C_8  and  N_18
    6  A    between atoms: C_33  and  C_34
                            x       y       z     vdW  Elec       q    Type
                         _______ _______ _______ _____ _____    ______ ____

>  <TORSDO>
F 6

$$$$
=
 OpenBabel11062409343D

 34 40  0  0  1  0  0  0  0  0999 V2000
  162.2640  206.4640  152.1700 C   0  0  0  0  0  3  0  0  0  0  0  0
  161.2890  209.1880  151.5720 C   0  0  0  0  0  2  0  0  0  0  0  0
  160.9610  208.3760  155.1410 C   0  0  2  0  0  0  0  0  0  0  0  0
  161.5810  207.0640  154.6050 C   0  0  0  0  0  2  0  0  0  0  0  0
  161.7410  207.3360  153.1530 C   0  0  0  0  0  0  0  0  0  0  0  0
  162.0810  208.2040  149.1830 N   0  0  0  0  0  0  0  0  0  0  0  0
  160.8330  209.2470  154.0130 O   0  0  0  0  0  0  0  0  0  0  0  0
  161.2820  208.6260  152.8690 C   0  0  0  0  0  0  0  0  0  0  0  0
  161.8860  209.0010  156.1690 C   0  0  0  0  0  1  0  0  0  0  0  0
  161.8030  208.3250  150.6140 C   0  0  2  0  0  0  0  0  0  0  0  0
  162.2710  207.0230  150.8980 C   0  0  0  0  0  0  0  0  0  0  0  0
  162.5730  206.9030  149.4950 C   0  0  2  0  0  0  0  0  0  0  0  0
  161.7860  204.3450  146.2810 C   0  0  0  0  0  2  0  0  0  0  0  0
  162.6810  204.7170  148.4930 O   0  0  0  0  0  0  0  0  0  0  0  0
  160.7000  205.3890  146.4690 C   0  0  1  0  0  3  0  0  0  0  0  0
  160.1620  207.3300  147.8020 O   0  0  0  0  0  1  0  0  0  0  0  0
  161.1770  206.4190  147.4950 C   0  0  1  0  0  3  0  0  0  0  0  0
  162.1100  203.7510  147.6400 C   0  0  0  0  0  2  0  0  0  0  0  0
  161.7720  205.7800  148.7860 C   0  0  2  0  0  0  0  0  0  0  0  0
  160.4160  206.0350  145.1920 N   0  0  0  0  0  0  0  0  0  0  0  0
  160.4180  204.9860  144.1560 C   0  0  0  0  0  2  0  0  0  0  0  0
  161.5930  205.8280  144.3280 C   0  0  0  0  0  2  0  0  0  0  0  0
  160.6800  205.3420  149.8020 C   0  0  0  0  0  2  0  0  0  0  0  0
  159.9110  202.9170  149.3910 C   0  0  0  0  0  3  0  0  0  0  0  0
  161.2070  201.1190  150.4740 C   0  0  0  0  0  2  0  0  0  0  0  0
  160.1310  201.6080  149.5400 C   0  0  0  0  0  3  0  0  0  0  0  0
  161.3850  203.4850  151.2500 C   0  0  0  0  0  3  0  0  0  0  0  0
  160.6560  203.9000  150.2060 C   0  0  0  0  0  0  0  0  0  0  0  0
  161.3320  202.0450  151.6880 C   0  0  0  0  0  2  0  0  0  0  0  0
  159.6190  208.1150  155.7590 C   0  0  0  0  0  0  0  0  0  0  0  0
  158.6870  209.1410  155.8700 O   0  0  0  0  0  0  0  0  0  0  0  0
  159.3070  206.9540  156.1360 O   0  0  0  0  0  1  0  0  0  0  0  0
  161.9560  209.0500  148.0110 C   0  0  0  0  0  2  0  0  0  0  0  0
  161.9560  210.3890  148.3970 O   0  0  0  0  0  1  0  0  0  0  0  0
  1  5  1  0  0  0  0
  2  8  1  0  0  0  0
  3 30  1  0  0  0  0
  3  9  1  1  0  0  0
  4  3  1  0  0  0  0
  5  4  1  0  0  0  0
  6 12  1  0  0  0  0
  6 10  1  0  0  0  0
  7  3  1  0  0  0  0
  8  5  2  0  0  0  0
  8  7  1  0  0  0  0
 10 11  1  0  0  0  0
 10  2  1  1  0  0  0
 11  1  2  0  0  0  0
 12 10  1  0  0  0  0
 12 11  1  1  0  0  0
 13 15  1  0  0  0  0
 13 18  1  0  0  0  0
 14 19  1  0  0  0  0
 15 20  1  6  0  0  0
 15 17  1  0  0  0  0
 17 16  1  1  0  0  0
 17 19  1  0  0  0  0
 18 14  1  0  0  0  0
 19 12  1  0  0  0  0
 19 23  1  1  0  0  0
 21 22  1  0  0  0  0
 21 20  1  0  0  0  0
 22 20  1  0  0  0  0
 23 28  1  0  0  0  0
 24 26  2  0  0  0  0
 24 28  1  0  0  0  0
 25 29  1  0  0  0  0
 26 25  1  0  0  0  0
 27 29  1  0  0  0  0
 28 27  2  0  0  0  0
 30 31  2  0  0  0  0
 30 32  1  0  0  0  0
 33 34  1  0  0  0  0
 33  6  1  0  0  0  0
M  END
>  <MODEL>
7

>  <REMARK>
 VINA RESULT:      -3.0      2.186      4.276
  Name = 
  6 active torsions:
  status: ('A' for Active; 'I' for Inactive)
    1  A    between atoms: C_1  and  C_20
    2  A    between atoms: C_1  and  C_34
    3  A    between atoms: N_3  and  C_23
    4  A    between atoms: C_7  and  C_11
    5  A    between atoms: C_8  and  N_18
    6  A    between atoms: C_33  and  C_34
                            x       y       z     vdW  Elec       q    Type
                         _______ _______ _______ _____ _____    ______ ____

>  <TORSDO>
F 6

$$$$
=
 OpenBabel11062409343D

 34 40  0  0  1  0  0  0  0  0999 V2000
  160.1360  204.6700  149.9660 C   0  0  0  0  0  3  0  0  0  0  0  0
  161.8440  205.2750  147.6320 C   0  0  0  0  0  2  0  0  0  0  0  0
  160.6880  201.7860  147.6050 C   0  0  2  0  0  0  0  0  0  0  0  0
  160.0220  202.2990  148.9050 C   0  0  0  0  0  2  0  0  0  0  0  0
  160.4560  203.7180  148.9680 C   0  0  0  0  0  0  0  0  0  0  0  0
  161.7560  207.5830  149.0350 N   0  0  0  0  0  0  0  0  0  0  0  0
  161.4010  202.9000  147.0580 O   0  0  0  0  0  0  0  0  0  0  0  0
  161.2620  204.0080  147.8630 C   0  0  0  0  0  0  0  0  0  0  0  0
  159.6230  201.3280  146.6270 C   0  0  0  0  0  1  0  0  0  0  0  0
  161.5260  206.2000  148.6170 C   0  0  2  0  0  0  0  0  0  0  0  0
  160.7080  205.9130  149.7320 C   0  0  0  0  0  0  0  0  0  0  0  0
  160.9080  207.2800  150.1390 C   0  0  2  0  0  0  0  0  0  0  0  0
  161.9560  205.9310  153.9570 C   0  0  0  0  0  2  0  0  0  0  0  0
  162.5180  206.3020  151.6380 O   0  0  0  0  0  0  0  0  0  0  0  0
  161.0430  207.1440  154.0020 C   0  0  1  0  0  3  0  0  0  0  0  0
  159.7780  208.6050  152.5540 O   0  0  0  0  0  1  0  0  0  0  0  0
  160.5190  207.4200  152.5910 C   0  0  1  0  0  3  0  0  0  0  0  0
  163.0500  206.2010  152.9400 C   0  0  0  0  0  2  0  0  0  0  0  0
  161.6350  207.4170  151.5020 C   0  0  2  0  0  0  0  0  0  0  0  0
  159.9350  206.8890  154.9170 N   0  0  0  0  0  0  0  0  0  0  0  0
  159.7130  208.1210  155.6950 C   0  0  0  0  0  2  0  0  0  0  0  0
  160.4620  207.0220  156.2870 C   0  0  0  0  0  2  0  0  0  0  0  0
  162.4100  208.7620  151.4290 C   0  0  0  0  0  2  0  0  0  0  0  0
  161.0570  210.9460  151.6330 C   0  0  0  0  0  3  0  0  0  0  0  0
  160.2880  211.5970  153.8850 C   0  0  0  0  0  2  0  0  0  0  0  0
  160.3330  211.7750  152.3910 C   0  0  0  0  0  3  0  0  0  0  0  0
  162.1100  209.9180  153.5780 C   0  0  0  0  0  3  0  0  0  0  0  0
  161.8940  209.8990  152.2560 C   0  0  0  0  0  0  0  0  0  0  0  0
  161.6320  211.0780  154.4090 C   0  0  0  0  0  2  0  0  0  0  0  0
  161.6260  200.6550  147.9010 C   0  0  0  0  0  0  0  0  0  0  0  0
  161.9130  199.7090  146.9240 O   0  0  0  0  0  0  0  0  0  0  0  0
  162.2000  200.5800  149.0200 O   0  0  0  0  0  1  0  0  0  0  0  0
  162.4770  208.7330  148.5210 C   0  0  0  0  0  2  0  0  0  0  0  0
  161.5820  209.7690  148.2620 O   0  0  0  0  0  1  0  0  0  0  0  0
  2  8  1  0  0  0  0
  3  9  1  6  0  0  0
  3 30  1  0  0  0  0
  3  4  1  0  0  0  0
  4  5  1  0  0  0  0
  5  1  1  0  0  0  0
  6 12  1  0  0  0  0
  7  3  1  0  0  0  0
  7  8  1  0  0  0  0
  8  5  2  0  0  0  0
 10  2  1  6  0  0  0
 10  6  1  0  0  0  0
 10 11  1  0  0  0  0
 10 12  1  0  0  0  0
 11  1  2  0  0  0  0
 12 11  1  6  0  0  0
 12 19  1  0  0  0  0
 14 18  1  0  0  0  0
 15 13  1  6  0  0  0
 15 20  1  0  0  0  0
 17 16  1  1  0  0  0
 17 15  1  0  0  0  0
 18 13  1  0  0  0  0
 19 23  1  1  0  0  0
 19 14  1  0  0  0  0
 19 17  1  0  0  0  0
 20 21  1  0  0  0  0
 20 22  1  0  0  0  0
 21 22  1  0  0  0  0
 23 28  1  0  0  0  0
 24 28  1  0  0  0  0
 24 26  2  0  0  0  0
 25 29  1  0  0  0  0
 26 25  1  0  0  0  0
 27 29  1  0  0  0  0
 28 27  2  0  0  0  0
 30 32  1  0  0  0  0
 31 30  2  0  0  0  0
 33  6  1  0  0  0  0
 34 33  1  0  0  0  0
M  END
>  <MODEL>
8

>  <REMARK>
 VINA RESULT:      -2.6      2.795      7.859
  Name = 
  6 active torsions:
  status: ('A' for Active; 'I' for Inactive)
    1  A    between atoms: C_1  and  C_20
    2  A    between atoms: C_1  and  C_34
    3  A    between atoms: N_3  and  C_23
    4  A    between atoms: C_7  and  C_11
    5  A    between atoms: C_8  and  N_18
    6  A    between atoms: C_33  and  C_34
                            x       y       z     vdW  Elec       q    Type
                         _______ _______ _______ _____ _____    ______ ____

>  <TORSDO>
F 6

$$$$
=
 OpenBabel11062409343D

 34 40  0  0  1  0  0  0  0  0999 V2000
  161.9380  209.6450  152.7930 C   0  0  0  0  0  3  0  0  0  0  0  0
  160.9750  207.0480  153.8220 C   0  0  0  0  0  2  0  0  0  0  0  0
  161.8570  206.8580  150.2600 C   0  0  2  0  0  0  0  0  0  0  0  0
  162.1760  208.3440  150.5550 C   0  0  0  0  0  2  0  0  0  0  0  0
  161.8380  208.4800  151.9960 C   0  0  0  0  0  0  0  0  0  0  0  0
  160.8320  208.7210  155.9400 N   0  0  0  0  0  0  0  0  0  0  0  0
  161.3970  206.2970  151.4930 O   0  0  0  0  0  0  0  0  0  0  0  0
  161.3850  207.2520  152.4860 C   0  0  0  0  0  0  0  0  0  0  0  0
  163.1150  206.1410  149.8080 C   0  0  0  0  0  1  0  0  0  0  0  0
  161.0740  208.1960  154.5960 C   0  0  2  0  0  0  0  0  0  0  0  0
  161.5350  209.4380  154.1070 C   0  0  0  0  0  0  0  0  0  0  0  0
  161.3250  209.9580  155.4330 C   0  0  2  0  0  0  0  0  0  0  0  0
  157.9700  211.8420  157.0710 C   0  0  0  0  0  2  0  0  0  0  0  0
  160.3630  211.7110  156.7730 O   0  0  0  0  0  0  0  0  0  0  0  0
  157.6960  211.2700  155.6910 C   0  0  1  0  0  3  0  0  0  0  0  0
  158.7410  209.9540  153.9560 O   0  0  0  0  0  1  0  0  0  0  0  0
  158.8830  210.4000  155.2730 C   0  0  1  0  0  3  0  0  0  0  0  0
  159.2890  212.5910  157.0180 C   0  0  0  0  0  2  0  0  0  0  0  0
  160.2650  211.0880  155.4900 C   0  0  2  0  0  0  0  0  0  0  0  0
  156.4700  210.4790  155.7240 N   0  0  0  0  0  0  0  0  0  0  0  0
  155.5960  210.9750  154.6450 C   0  0  0  0  0  2  0  0  0  0  0  0
  155.3610  211.4060  156.0160 C   0  0  0  0  0  2  0  0  0  0  0  0
  160.6380  212.0680  154.3430 C   0  0  0  0  0  2  0  0  0  0  0  0
  158.6580  213.7030  154.1270 C   0  0  0  0  0  3  0  0  0  0  0  0
  157.9150  214.2890  151.8490 C   0  0  0  0  0  2  0  0  0  0  0  0
  157.8720  214.4490  153.3450 C   0  0  0  0  0  3  0  0  0  0  0  0
  159.3400  212.2820  152.2660 C   0  0  0  0  0  3  0  0  0  0  0  0
  159.5130  212.6480  153.5420 C   0  0  0  0  0  0  0  0  0  0  0  0
  158.1860  212.8290  151.4690 C   0  0  0  0  0  2  0  0  0  0  0  0
  160.8000  206.7440  149.2030 C   0  0  0  0  0  0  0  0  0  0  0  0
  159.7930  205.7920  149.3180 O   0  0  0  0  0  1  0  0  0  0  0  0
  160.7870  207.5410  148.2260 O   0  0  0  0  0  0  0  0  0  0  0  0
  160.3570  208.1940  157.2070 C   0  0  0  0  0  2  0  0  0  0  0  0
  159.7080  206.9790  156.9960 O   0  0  0  0  0  1  0  0  0  0  0  0
  1 11  2  0  0  0  0
  3  9  1  6  0  0  0
  3  4  1  0  0  0  0
  3  7  1  0  0  0  0
  4  5  1  0  0  0  0
  5  8  2  0  0  0  0
  5  1  1  0  0  0  0
  6 33  1  0  0  0  0
  7  8  1  0  0  0  0
  8  2  1  0  0  0  0
 10  2  1  1  0  0  0
 10 12  1  0  0  0  0
 10  6  1  0  0  0  0
 11 10  1  0  0  0  0
 12 11  1  1  0  0  0
 12 19  1  0  0  0  0
 12  6  1  0  0  0  0
 14 18  1  0  0  0  0
 15 20  1  1  0  0  0
 15 13  1  0  0  0  0
 17 16  1  6  0  0  0
 17 19  1  0  0  0  0
 17 15  1  0  0  0  0
 18 13  1  0  0  0  0
 19 23  1  6  0  0  0
 19 14  1  0  0  0  0
 20 22  1  0  0  0  0
 21 20  1  0  0  0  0
 21 22  1  0  0  0  0
 25 26  1  0  0  0  0
 26 24  2  0  0  0  0
 27 28  2  0  0  0  0
 28 24  1  0  0  0  0
 28 23  1  0  0  0  0
 29 25  1  0  0  0  0
 29 27  1  0  0  0  0
 30 31  1  0  0  0  0
 30  3  1  0  0  0  0
 32 30  2  0  0  0  0
 34 33  1  0  0  0  0
M  END
>  <MODEL>
9

>  <REMARK>
 VINA RESULT:      -2.3      2.735      8.080
  Name = 
  6 active torsions:
  status: ('A' for Active; 'I' for Inactive)
    1  A    between atoms: C_1  and  C_20
    2  A    between atoms: C_1  and  C_34
    3  A    between atoms: N_3  and  C_23
    4  A    between atoms: C_7  and  C_11
    5  A    between atoms: C_8  and  N_18
    6  A    between atoms: C_33  and  C_34
                            x       y       z     vdW  Elec       q    Type
                         _______ _______ _______ _____ _____    ______ ____

>  <TORSDO>
F 6

$$$$
