=
 OpenBabel11062410053D

 43 47  0  0  1  0  0  0  0  0999 V2000
  159.9500  211.0710  153.4530 C   0  0  1  0  0  3  0  0  0  0  0  0
  161.1980  205.6410  152.1460 C   0  0  0  0  0  0  0  0  0  0  0  0
  161.3450  210.5020  153.7610 C   0  0  1  0  0  3  0  0  0  0  0  0
  161.6170  208.0230  152.3180 C   0  0  0  0  0  0  0  0  0  0  0  0
  160.8330  205.6040  153.4910 C   0  0  0  0  0  3  0  0  0  0  0  0
  161.1700  204.3970  151.3330 C   0  0  0  0  0  1  0  0  0  0  0  0
  161.2400  207.9990  153.6810 C   0  0  0  0  0  0  0  0  0  0  0  0
  161.5820  206.8490  151.5610 C   0  0  0  0  0  3  0  0  0  0  0  0
  160.8540  206.7740  154.2510 C   0  0  0  0  0  3  0  0  0  0  0  0
  161.2650  209.2180  154.4660 N   0  0  0  0  0  0  0  0  0  0  0  0
  162.3210  210.4330  152.5830 C   0  0  0  0  0  2  0  0  0  0  0  0
  161.9670  209.3050  151.6170 C   0  0  0  0  0  2  0  0  0  0  0  0
  160.2080  209.3450  156.5690 O   0  0  0  0  0  1  0  0  0  0  0  0
  162.0410  208.0430  156.3750 O   0  0  0  0  0  1  0  0  0  0  0  0
  161.4480  209.2300  155.9360 C   0  0  0  0  0  0  0  0  0  0  0  0
  162.2940  210.4330  156.3640 C   0  0  0  0  0  2  0  0  0  0  0  0
  161.5460  211.4060  157.2600 C   0  0  0  0  0  1  0  0  0  0  0  0
  159.6500  212.2950  154.3070 C   0  0  0  0  0  2  0  0  0  0  0  0
  157.0180  213.0410  156.8140 C   0  0  0  0  0  2  0  0  0  0  0  0
  155.8420  212.3230  156.1530 C   0  0  0  0  0  0  0  0  0  0  0  0
  154.9340  211.9540  157.1250 F   0  0  0  0  0  0  0  0  0  0  0  0
  157.4810  211.4160  154.4840 C   0  0  0  0  0  2  0  0  0  0  0  0
  158.1370  213.2750  155.7980 C   0  0  0  0  0  2  0  0  0  0  0  0
  158.5840  211.9970  155.2500 N   0  0  0  0  0  0  0  0  0  0  0  0
  155.2190  213.1760  155.2580 F   0  0  0  0  0  0  0  0  0  0  0  0
  156.3230  211.0710  155.4190 C   0  0  0  0  0  2  0  0  0  0  0  0
  159.7290  211.3880  151.9800 C   0  0  0  0  0  2  0  0  0  0  0  0
  159.5030  212.8770  151.7720 C   0  0  0  0  0  2  0  0  0  0  0  0
  158.6380  213.8330  149.5330 C   0  0  0  0  0  0  0  0  0  0  0  0
  160.9210  213.0210  149.7800 C   0  0  0  0  0  3  0  0  0  0  0  0
  158.7570  213.8940  148.2360 N   0  0  0  0  0  0  0  0  0  0  0  0
  159.9050  213.3150  147.5310 C   0  0  2  0  0  3  0  0  0  0  0  0
  161.1870  213.4390  148.3620 C   0  0  0  0  0  2  0  0  0  0  0  0
  159.7310  213.2510  150.3440 C   0  0  0  0  0  0  0  0  0  0  0  0
  157.4960  214.3320  150.1700 O   0  0  0  0  0  0  0  0  0  0  0  0
  156.2020  214.2850  149.5830 C   0  0  0  0  0  2  0  0  0  0  0  0
  155.1360  214.2430  150.6610 C   0  0  0  0  0  1  0  0  0  0  0  0
  160.0610  213.9290  146.1450 C   0  0  0  0  0  2  0  0  0  0  0  0
  159.9470  212.8860  145.0450 C   0  0  0  0  0  2  0  0  0  0  0  0
  160.6440  213.3880  143.7990 C   0  0  0  0  0  2  0  0  0  0  0  0
  162.7190  213.2270  142.4750 C   0  0  0  0  0  2  0  0  0  0  0  0
  161.8800  212.5520  143.5390 C   0  0  0  0  0  3  0  0  0  0  0  0
  163.1070  213.3470  143.9320 C   0  0  0  0  0  2  0  0  0  0  0  0
  1 27  1  6  0  0  0
  1 18  1  0  0  0  0
  2  5  1  0  0  0  0
  3  1  1  6  0  0  0
  3 10  1  0  0  0  0
  4  7  2  0  0  0  0
  5  9  2  0  0  0  0
  6  2  1  0  0  0  0
  7  9  1  0  0  0  0
  7 10  1  0  0  0  0
  8  2  2  0  0  0  0
  8  4  1  0  0  0  0
 10 15  1  0  0  0  0
 11  3  1  0  0  0  0
 12  4  1  0  0  0  0
 12 11  1  0  0  0  0
 15 16  1  0  0  0  0
 15 14  1  0  0  0  0
 15 13  1  0  0  0  0
 16 17  1  0  0  0  0
 18 24  1  0  0  0  0
 20 19  1  0  0  0  0
 20 21  1  0  0  0  0
 22 24  1  0  0  0  0
 22 26  1  0  0  0  0
 23 19  1  0  0  0  0
 24 23  1  0  0  0  0
 25 20  1  0  0  0  0
 26 20  1  0  0  0  0
 28 27  1  0  0  0  0
 29 35  1  0  0  0  0
 29 34  1  0  0  0  0
 30 34  2  0  0  0  0
 31 29  2  0  0  0  0
 32 38  1  6  0  0  0
 32 31  1  0  0  0  0
 32 33  1  0  0  0  0
 33 30  1  0  0  0  0
 34 28  1  0  0  0  0
 36 35  1  0  0  0  0
 36 37  1  0  0  0  0
 39 38  1  0  0  0  0
 40 39  1  0  0  0  0
 41 42  1  0  0  0  0
 41 43  1  0  0  0  0
 42 40  1  0  0  0  0
 42 43  1  0  0  0  0
M  END
>  <MODEL>
1

>  <REMARK>
 VINA RESULT:      -6.4      0.000      0.000
  Name = 
  14 active torsions:
  status: ('A' for Active; 'I' for Inactive)
    1  A    between atoms: C_1  and  C_34
    2  A    between atoms: C_1  and  N_35
    3  A    between atoms: C_2  and  C_27
    4  A    between atoms: O_3  and  C_4
    5  A    between atoms: O_3  and  C_12
    6  A    between atoms: C_8  and  C_34
    7  A    between atoms: C_11  and  C_22
    8  A    between atoms: C_11  and  C_36
    9  A    between atoms: C_15  and  C_38
   10  A    between atoms: C_15  and  C_42
   11  A    between atoms: C_27  and  N_30
   12  A    between atoms: C_29  and  C_31
   13  A    between atoms: C_29  and  C_36
   14  A    between atoms: C_34  and  C_38
                            x       y       z     vdW  Elec       q    Type
                         _______ _______ _______ _____ _____    ______ ____

>  <TORSDO>
F 14

$$$$
=
 OpenBabel11062410053D

 43 47  0  0  1  0  0  0  0  0999 V2000
  161.7580  208.9640  149.8240 C   0  0  1  0  0  3  0  0  0  0  0  0
  158.4420  212.4850  152.8840 C   0  0  0  0  0  0  0  0  0  0  0  0
  162.3170  210.3010  150.3400 C   0  0  1  0  0  3  0  0  0  0  0  0
  160.4860  211.3080  152.3240 C   0  0  0  0  0  0  0  0  0  0  0  0
  158.3580  212.9690  151.5800 C   0  0  0  0  0  3  0  0  0  0  0  0
  157.4010  212.8490  153.8810 C   0  0  0  0  0  1  0  0  0  0  0  0
  160.4060  211.7850  150.9950 C   0  0  0  0  0  0  0  0  0  0  0  0
  159.5000  211.6510  153.2530 C   0  0  0  0  0  3  0  0  0  0  0  0
  159.3330  212.6210  150.6440 C   0  0  0  0  0  3  0  0  0  0  0  0
  161.4240  211.4210  150.0270 N   0  0  0  0  0  0  0  0  0  0  0  0
  162.7550  210.3270  151.8080 C   0  0  0  0  0  2  0  0  0  0  0  0
  161.5590  210.3500  152.7580 C   0  0  0  0  0  2  0  0  0  0  0  0
  161.5630  213.6080  149.1610 O   0  0  0  0  0  1  0  0  0  0  0  0
  163.0990  212.0970  148.4900 O   0  0  0  0  0  1  0  0  0  0  0  0
  161.7590  212.2590  148.8540 C   0  0  0  0  0  0  0  0  0  0  0  0
  160.8470  211.9210  147.6710 C   0  0  0  0  0  2  0  0  0  0  0  0
  161.0120  212.8690  146.4940 C   0  0  0  0  0  1  0  0  0  0  0  0
  162.1870  208.7010  148.3880 C   0  0  0  0  0  2  0  0  0  0  0  0
  160.3540  206.1540  146.4090 C   0  0  0  0  0  2  0  0  0  0  0  0
  161.5380  205.3040  145.9500 C   0  0  0  0  0  0  0  0  0  0  0  0
  161.1030  204.0150  145.7110 F   0  0  0  0  0  0  0  0  0  0  0  0
  162.9760  206.6920  147.4670 C   0  0  0  0  0  2  0  0  0  0  0  0
  160.8360  207.5260  146.8820 C   0  0  0  0  0  2  0  0  0  0  0  0
  161.7830  207.3640  147.9830 N   0  0  0  0  0  0  0  0  0  0  0  0
  162.0610  205.8250  144.7800 F   0  0  0  0  0  0  0  0  0  0  0  0
  162.6230  205.2720  147.0280 C   0  0  0  0  0  2  0  0  0  0  0  0
  162.1060  207.7730  150.7070 C   0  0  0  0  0  2  0  0  0  0  0  0
  160.8580  207.1930  151.3540 C   0  0  0  0  0  2  0  0  0  0  0  0
  160.9930  204.7930  152.3000 C   0  0  0  0  0  0  0  0  0  0  0  0
  160.6130  205.2140  149.9320 C   0  0  0  0  0  3  0  0  0  0  0  0
  161.2180  203.5270  152.0800 N   0  0  0  0  0  0  0  0  0  0  0  0
  161.3850  202.9900  150.7260 C   0  0  2  0  0  3  0  0  0  0  0  0
  160.4970  203.7320  149.7210 C   0  0  0  0  0  2  0  0  0  0  0  0
  160.8000  205.7130  151.1580 C   0  0  0  0  0  0  0  0  0  0  0  0
  160.9090  205.2870  153.6060 O   0  0  0  0  0  0  0  0  0  0  0  0
  161.6940  206.3780  154.0710 C   0  0  0  0  0  2  0  0  0  0  0  0
  160.8700  207.2700  154.9810 C   0  0  0  0  0  1  0  0  0  0  0  0
  161.1420  201.4860  150.7020 C   0  0  0  0  0  2  0  0  0  0  0  0
  160.4460  201.0430  149.4240 C   0  0  0  0  0  2  0  0  0  0  0  0
  161.4700  200.4870  148.4590 C   0  0  0  0  0  2  0  0  0  0  0  0
  160.9670  200.4340  146.0440 C   0  0  0  0  0  2  0  0  0  0  0  0
  161.4580  201.3030  147.1830 C   0  0  0  0  0  3  0  0  0  0  0  0
  160.0320  201.4330  146.6920 C   0  0  0  0  0  2  0  0  0  0  0  0
  1 18  1  6  0  0  0
  1 27  1  0  0  0  0
  2  8  1  0  0  0  0
  2  6  1  0  0  0  0
  3  1  1  1  0  0  0
  3 11  1  0  0  0  0
  4 12  1  0  0  0  0
  4  8  2  0  0  0  0
  5  2  2  0  0  0  0
  7  4  1  0  0  0  0
  9  7  2  0  0  0  0
  9  5  1  0  0  0  0
 10  3  1  0  0  0  0
 10  7  1  0  0  0  0
 11 12  1  0  0  0  0
 14 15  1  0  0  0  0
 15 13  1  0  0  0  0
 15 10  1  0  0  0  0
 16 15  1  0  0  0  0
 17 16  1  0  0  0  0
 19 23  1  0  0  0  0
 20 19  1  0  0  0  0
 20 26  1  0  0  0  0
 21 20  1  0  0  0  0
 22 24  1  0  0  0  0
 23 24  1  0  0  0  0
 24 18  1  0  0  0  0
 25 20  1  0  0  0  0
 26 22  1  0  0  0  0
 27 28  1  0  0  0  0
 29 35  1  0  0  0  0
 30 34  2  0  0  0  0
 31 29  2  0  0  0  0
 32 38  1  1  0  0  0
 32 31  1  0  0  0  0
 33 30  1  0  0  0  0
 33 32  1  0  0  0  0
 34 28  1  0  0  0  0
 34 29  1  0  0  0  0
 35 36  1  0  0  0  0
 36 37  1  0  0  0  0
 39 38  1  0  0  0  0
 40 39  1  0  0  0  0
 41 43  1  0  0  0  0
 41 42  1  0  0  0  0
 42 40  1  0  0  0  0
 43 42  1  0  0  0  0
M  END
>  <MODEL>
2

>  <REMARK>
 VINA RESULT:      -5.9      4.614      9.684
  Name = 
  14 active torsions:
  status: ('A' for Active; 'I' for Inactive)
    1  A    between atoms: C_1  and  C_34
    2  A    between atoms: C_1  and  N_35
    3  A    between atoms: C_2  and  C_27
    4  A    between atoms: O_3  and  C_4
    5  A    between atoms: O_3  and  C_12
    6  A    between atoms: C_8  and  C_34
    7  A    between atoms: C_11  and  C_22
    8  A    between atoms: C_11  and  C_36
    9  A    between atoms: C_15  and  C_38
   10  A    between atoms: C_15  and  C_42
   11  A    between atoms: C_27  and  N_30
   12  A    between atoms: C_29  and  C_31
   13  A    between atoms: C_29  and  C_36
   14  A    between atoms: C_34  and  C_38
                            x       y       z     vdW  Elec       q    Type
                         _______ _______ _______ _____ _____    ______ ____

>  <TORSDO>
F 14

$$$$
=
 OpenBabel11062410053D

 43 47  0  0  1  0  0  0  0  0999 V2000
  160.7870  210.2800  151.2760 C   0  0  1  0  0  3  0  0  0  0  0  0
  156.7330  211.0250  155.2460 C   0  0  0  0  0  0  0  0  0  0  0  0
  160.8870  211.4450  152.2760 C   0  0  1  0  0  3  0  0  0  0  0  0
  159.0020  210.9420  154.3960 C   0  0  0  0  0  0  0  0  0  0  0  0
  156.3710  211.8830  154.2100 C   0  0  0  0  0  3  0  0  0  0  0  0
  155.7220  210.6070  156.2530 C   0  0  0  0  0  1  0  0  0  0  0  0
  158.6440  211.8050  153.3340 C   0  0  0  0  0  0  0  0  0  0  0  0
  158.0440  210.5510  155.3340 C   0  0  0  0  0  3  0  0  0  0  0  0
  157.3200  212.2690  153.2610 C   0  0  0  0  0  3  0  0  0  0  0  0
  159.6350  212.2040  152.3530 N   0  0  0  0  0  0  0  0  0  0  0  0
  161.4150  211.0930  153.6700 C   0  0  0  0  0  2  0  0  0  0  0  0
  160.3760  210.3430  154.4990 C   0  0  0  0  0  2  0  0  0  0  0  0
  158.9330  214.4530  152.3640 O   0  0  0  0  0  1  0  0  0  0  0  0
  160.8270  213.9350  151.2530 O   0  0  0  0  0  1  0  0  0  0  0  0
  159.5530  213.4700  151.5890 C   0  0  0  0  0  0  0  0  0  0  0  0
  158.7080  213.2840  150.3250 C   0  0  0  0  0  2  0  0  0  0  0  0
  158.8900  214.4000  149.3100 C   0  0  0  0  0  1  0  0  0  0  0  0
  161.8420  210.3940  150.1850 C   0  0  0  0  0  2  0  0  0  0  0  0
  162.5260  213.4840  148.2470 C   0  0  0  0  0  2  0  0  0  0  0  0
  162.0180  213.0310  146.8790 C   0  0  0  0  0  0  0  0  0  0  0  0
  161.6230  214.1370  146.1540 F   0  0  0  0  0  0  0  0  0  0  0  0
  161.1690  210.9570  148.0080 C   0  0  0  0  0  2  0  0  0  0  0  0
  162.7740  212.2750  149.1500 C   0  0  0  0  0  2  0  0  0  0  0  0
  161.5360  211.5150  149.3100 N   0  0  0  0  0  0  0  0  0  0  0  0
  163.0340  212.3870  146.1950 F   0  0  0  0  0  0  0  0  0  0  0  0
  160.8260  212.0860  147.0370 C   0  0  0  0  0  2  0  0  0  0  0  0
  160.8480  208.9050  151.9280 C   0  0  0  0  0  2  0  0  0  0  0  0
  162.1460  208.1950  151.5780 C   0  0  0  0  0  2  0  0  0  0  0  0
  161.5560  206.4350  149.7810 C   0  0  0  0  0  0  0  0  0  0  0  0
  161.9040  205.8170  152.1100 C   0  0  0  0  0  3  0  0  0  0  0  0
  161.0600  205.2620  149.5010 N   0  0  0  0  0  0  0  0  0  0  0  0
  160.7210  204.2910  150.5460 C   0  0  2  0  0  3  0  0  0  0  0  0
  161.6970  204.3800  151.7250 C   0  0  0  0  0  2  0  0  0  0  0  0
  161.8840  206.7790  151.1820 C   0  0  0  0  0  0  0  0  0  0  0  0
  161.8030  207.3670  148.7660 O   0  0  0  0  0  0  0  0  0  0  0  0
  161.4910  207.1220  147.4000 C   0  0  0  0  0  2  0  0  0  0  0  0
  162.3290  205.9760  146.8660 C   0  0  0  0  0  1  0  0  0  0  0  0
  160.6420  202.8800  149.9750 C   0  0  0  0  0  2  0  0  0  0  0  0
  160.9690  202.8480  148.4900 C   0  0  0  0  0  2  0  0  0  0  0  0
  160.4410  201.5660  147.8850 C   0  0  0  0  0  2  0  0  0  0  0  0
  160.0670  201.3200  145.4590 C   0  0  0  0  0  2  0  0  0  0  0  0
  161.1160  201.3210  146.5510 C   0  0  0  0  0  3  0  0  0  0  0  0
  160.9350  202.5400  145.6740 C   0  0  0  0  0  2  0  0  0  0  0  0
  1 18  1  6  0  0  0
  1 27  1  0  0  0  0
  2  8  1  0  0  0  0
  2  6  1  0  0  0  0
  3  1  1  6  0  0  0
  3 10  1  0  0  0  0
  3 11  1  0  0  0  0
  4 12  1  0  0  0  0
  4  8  2  0  0  0  0
  5  2  2  0  0  0  0
  7  4  1  0  0  0  0
  9  7  2  0  0  0  0
  9  5  1  0  0  0  0
 10  7  1  0  0  0  0
 11 12  1  0  0  0  0
 14 15  1  0  0  0  0
 15 10  1  0  0  0  0
 15 13  1  0  0  0  0
 16 15  1  0  0  0  0
 17 16  1  0  0  0  0
 19 23  1  0  0  0  0
 20 26  1  0  0  0  0
 20 19  1  0  0  0  0
 21 20  1  0  0  0  0
 22 24  1  0  0  0  0
 23 24  1  0  0  0  0
 24 18  1  0  0  0  0
 25 20  1  0  0  0  0
 26 22  1  0  0  0  0
 28 27  1  0  0  0  0
 29 34  1  0  0  0  0
 31 29  2  0  0  0  0
 31 32  1  0  0  0  0
 32 38  1  6  0  0  0
 32 33  1  0  0  0  0
 33 30  1  0  0  0  0
 34 28  1  0  0  0  0
 34 30  2  0  0  0  0
 35 29  1  0  0  0  0
 36 35  1  0  0  0  0
 37 36  1  0  0  0  0
 39 38  1  0  0  0  0
 40 39  1  0  0  0  0
 41 43  1  0  0  0  0
 41 42  1  0  0  0  0
 42 40  1  0  0  0  0
 43 42  1  0  0  0  0
M  END
>  <MODEL>
3

>  <REMARK>
 VINA RESULT:      -5.4      3.881      8.451
  Name = 
  14 active torsions:
  status: ('A' for Active; 'I' for Inactive)
    1  A    between atoms: C_1  and  C_34
    2  A    between atoms: C_1  and  N_35
    3  A    between atoms: C_2  and  C_27
    4  A    between atoms: O_3  and  C_4
    5  A    between atoms: O_3  and  C_12
    6  A    between atoms: C_8  and  C_34
    7  A    between atoms: C_11  and  C_22
    8  A    between atoms: C_11  and  C_36
    9  A    between atoms: C_15  and  C_38
   10  A    between atoms: C_15  and  C_42
   11  A    between atoms: C_27  and  N_30
   12  A    between atoms: C_29  and  C_31
   13  A    between atoms: C_29  and  C_36
   14  A    between atoms: C_34  and  C_38
                            x       y       z     vdW  Elec       q    Type
                         _______ _______ _______ _____ _____    ______ ____

>  <TORSDO>
F 14

$$$$
=
 OpenBabel11062410053D

 43 47  0  0  1  0  0  0  0  0999 V2000
  160.4600  210.6850  151.5740 C   0  0  1  0  0  3  0  0  0  0  0  0
  156.2880  211.1460  155.4650 C   0  0  0  0  0  0  0  0  0  0  0  0
  160.3540  211.9450  152.4500 C   0  0  1  0  0  3  0  0  0  0  0  0
  158.5500  211.3530  154.6180 C   0  0  0  0  0  0  0  0  0  0  0  0
  155.8030  211.8230  154.3480 C   0  0  0  0  0  3  0  0  0  0  0  0
  155.3470  210.6700  156.5130 C   0  0  0  0  0  1  0  0  0  0  0  0
  158.0680  212.0340  153.4760 C   0  0  0  0  0  0  0  0  0  0  0  0
  157.6570  210.9060  155.5950 C   0  0  0  0  0  3  0  0  0  0  0  0
  156.6870  212.2630  153.3620 C   0  0  0  0  0  3  0  0  0  0  0  0
  158.9920  212.4910  152.4550 N   0  0  0  0  0  0  0  0  0  0  0  0
  160.9150  211.8270  153.8710 C   0  0  0  0  0  2  0  0  0  0  0  0
  160.0020  211.0030  154.7760 C   0  0  0  0  0  2  0  0  0  0  0  0
  157.7270  214.4530  152.1370 O   0  0  0  0  0  1  0  0  0  0  0  0
  159.8550  214.4250  151.3870 O   0  0  0  0  0  1  0  0  0  0  0  0
  158.7120  213.6420  151.5670 C   0  0  0  0  0  0  0  0  0  0  0  0
  158.1820  213.1620  150.2120 C   0  0  0  0  0  2  0  0  0  0  0  0
  158.0940  214.2690  149.1750 C   0  0  0  0  0  1  0  0  0  0  0  0
  161.5660  210.8220  150.5380 C   0  0  0  0  0  2  0  0  0  0  0  0
  161.7630  213.8470  148.3980 C   0  0  0  0  0  2  0  0  0  0  0  0
  161.7120  213.1770  147.0250 C   0  0  0  0  0  0  0  0  0  0  0  0
  161.1900  214.0670  146.1080 F   0  0  0  0  0  0  0  0  0  0  0  0
  161.2520  211.0200  148.2210 C   0  0  0  0  0  2  0  0  0  0  0  0
  162.1360  212.8260  149.4740 C   0  0  0  0  0  2  0  0  0  0  0  0
  161.1570  211.7420  149.4890 N   0  0  0  0  0  0  0  0  0  0  0  0
  162.9910  212.8250  146.6310 F   0  0  0  0  0  0  0  0  0  0  0  0
  160.8270  211.9310  147.0700 C   0  0  0  0  0  2  0  0  0  0  0  0
  160.6370  209.3980  152.3700 C   0  0  0  0  0  2  0  0  0  0  0  0
  161.7750  208.5630  151.8050 C   0  0  0  0  0  2  0  0  0  0  0  0
  161.2950  206.3360  153.0240 C   0  0  0  0  0  0  0  0  0  0  0  0
  161.2070  206.5100  150.5970 C   0  0  0  0  0  3  0  0  0  0  0  0
  161.2480  205.0340  152.9730 N   0  0  0  0  0  0  0  0  0  0  0  0
  161.3960  204.2980  151.7140 C   0  0  2  0  0  3  0  0  0  0  0  0
  160.7790  205.0710  150.5430 C   0  0  0  0  0  2  0  0  0  0  0  0
  161.4030  207.1160  151.7720 C   0  0  0  0  0  0  0  0  0  0  0  0
  161.2210  207.0060  154.2500 O   0  0  0  0  0  0  0  0  0  0  0  0
  160.2720  206.6740  155.2560 C   0  0  0  0  0  2  0  0  0  0  0  0
  160.1900  207.7820  156.2890 C   0  0  0  0  0  1  0  0  0  0  0  0
  160.8260  202.8910  151.8330 C   0  0  0  0  0  2  0  0  0  0  0  0
  161.8330  201.8310  151.4130 C   0  0  0  0  0  2  0  0  0  0  0  0
  161.2520  201.0010  150.2890 C   0  0  0  0  0  2  0  0  0  0  0  0
  161.0870  200.8850  147.8300 C   0  0  0  0  0  2  0  0  0  0  0  0
  161.2310  201.8190  149.0140 C   0  0  0  0  0  3  0  0  0  0  0  0
  159.8860  201.6510  148.3410 C   0  0  0  0  0  2  0  0  0  0  0  0
  1 18  1  6  0  0  0
  1 27  1  0  0  0  0
  2  8  1  0  0  0  0
  2  6  1  0  0  0  0
  3  1  1  1  0  0  0
  3 10  1  0  0  0  0
  3 11  1  0  0  0  0
  4 12  1  0  0  0  0
  4  8  2  0  0  0  0
  5  2  2  0  0  0  0
  7  4  1  0  0  0  0
  9  7  2  0  0  0  0
  9  5  1  0  0  0  0
 10  7  1  0  0  0  0
 11 12  1  0  0  0  0
 14 15  1  0  0  0  0
 15 13  1  0  0  0  0
 15 10  1  0  0  0  0
 16 15  1  0  0  0  0
 17 16  1  0  0  0  0
 19 23  1  0  0  0  0
 20 26  1  0  0  0  0
 20 19  1  0  0  0  0
 21 20  1  0  0  0  0
 22 24  1  0  0  0  0
 23 24  1  0  0  0  0
 24 18  1  0  0  0  0
 25 20  1  0  0  0  0
 26 22  1  0  0  0  0
 28 27  1  0  0  0  0
 29 35  1  0  0  0  0
 30 34  2  0  0  0  0
 31 29  2  0  0  0  0
 32 38  1  1  0  0  0
 32 31  1  0  0  0  0
 33 30  1  0  0  0  0
 33 32  1  0  0  0  0
 34 28  1  0  0  0  0
 34 29  1  0  0  0  0
 35 36  1  0  0  0  0
 36 37  1  0  0  0  0
 39 38  1  0  0  0  0
 40 39  1  0  0  0  0
 41 43  1  0  0  0  0
 41 42  1  0  0  0  0
 42 40  1  0  0  0  0
 43 42  1  0  0  0  0
M  END
>  <MODEL>
4

>  <REMARK>
 VINA RESULT:      -4.9      3.383      8.753
  Name = 
  14 active torsions:
  status: ('A' for Active; 'I' for Inactive)
    1  A    between atoms: C_1  and  C_34
    2  A    between atoms: C_1  and  N_35
    3  A    between atoms: C_2  and  C_27
    4  A    between atoms: O_3  and  C_4
    5  A    between atoms: O_3  and  C_12
    6  A    between atoms: C_8  and  C_34
    7  A    between atoms: C_11  and  C_22
    8  A    between atoms: C_11  and  C_36
    9  A    between atoms: C_15  and  C_38
   10  A    between atoms: C_15  and  C_42
   11  A    between atoms: C_27  and  N_30
   12  A    between atoms: C_29  and  C_31
   13  A    between atoms: C_29  and  C_36
   14  A    between atoms: C_34  and  C_38
                            x       y       z     vdW  Elec       q    Type
                         _______ _______ _______ _____ _____    ______ ____

>  <TORSDO>
F 14

$$$$
=
 OpenBabel11062410053D

 43 47  0  0  1  0  0  0  0  0999 V2000
  161.1420  212.1360  150.7060 C   0  0  1  0  0  3  0  0  0  0  0  0
  157.4030  212.8360  146.4300 C   0  0  0  0  0  0  0  0  0  0  0  0
  161.1170  213.4500  149.9070 C   0  0  1  0  0  3  0  0  0  0  0  0
  158.6690  213.5030  148.3870 C   0  0  0  0  0  0  0  0  0  0  0  0
  158.5780  212.4230  145.8050 C   0  0  0  0  0  3  0  0  0  0  0  0
  156.1000  212.7020  145.7280 C   0  0  0  0  0  1  0  0  0  0  0  0
  159.8670  213.0780  147.7670 C   0  0  0  0  0  0  0  0  0  0  0  0
  157.4490  213.3680  147.7210 C   0  0  0  0  0  3  0  0  0  0  0  0
  159.7990  212.5430  146.4690 C   0  0  0  0  0  3  0  0  0  0  0  0
  161.1340  213.2070  148.4610 N   0  0  0  0  0  0  0  0  0  0  0  0
  160.0250  214.4530  150.2930 C   0  0  0  0  0  2  0  0  0  0  0  0
  158.6490  214.0130  149.8000 C   0  0  0  0  0  2  0  0  0  0  0  0
  163.3240  214.0730  148.5440 O   0  0  0  0  0  1  0  0  0  0  0  0
  163.0020  212.0860  147.5230 O   0  0  0  0  0  1  0  0  0  0  0  0
  162.4310  213.3390  147.7590 C   0  0  0  0  0  0  0  0  0  0  0  0
  162.2550  214.0960  146.4380 C   0  0  0  0  0  2  0  0  0  0  0  0
  162.9850  213.4490  145.2730 C   0  0  0  0  0  1  0  0  0  0  0  0
  160.0050  212.0790  151.7150 C   0  0  0  0  0  2  0  0  0  0  0  0
  160.2920  211.9580  155.4130 C   0  0  0  0  0  2  0  0  0  0  0  0
  160.0270  210.4680  155.6290 C   0  0  0  0  0  0  0  0  0  0  0  0
  160.6380  210.0650  156.7990 F   0  0  0  0  0  0  0  0  0  0  0  0
  160.0920  210.2110  153.1340 C   0  0  0  0  0  2  0  0  0  0  0  0
  159.8110  212.3880  154.0270 C   0  0  0  0  0  2  0  0  0  0  0  0
  160.4990  211.6100  153.0000 N   0  0  0  0  0  0  0  0  0  0  0  0
  158.6650  210.2480  155.7360 F   0  0  0  0  0  0  0  0  0  0  0  0
  160.5890  209.6500  154.4660 C   0  0  0  0  0  2  0  0  0  0  0  0
  161.1370  210.8870  149.8340 C   0  0  0  0  0  2  0  0  0  0  0  0
  162.0800  209.8320  150.3900 C   0  0  0  0  0  2  0  0  0  0  0  0
  161.7900  207.2660  150.3220 C   0  0  0  0  0  0  0  0  0  0  0  0
  162.0470  208.5780  148.2870 C   0  0  0  0  0  3  0  0  0  0  0  0
  161.9650  206.1490  149.6720 N   0  0  0  0  0  0  0  0  0  0  0  0
  162.4230  206.1220  148.2800 C   0  0  2  0  0  3  0  0  0  0  0  0
  161.8730  207.3160  147.4910 C   0  0  0  0  0  2  0  0  0  0  0  0
  161.9590  208.5570  149.6210 C   0  0  0  0  0  0  0  0  0  0  0  0
  161.4220  207.2560  151.6720 O   0  0  0  0  0  0  0  0  0  0  0  0
  161.9540  206.3310  152.6120 C   0  0  0  0  0  2  0  0  0  0  0  0
  161.1870  206.4070  153.9180 C   0  0  0  0  0  1  0  0  0  0  0  0
  162.0790  204.7940  147.6170 C   0  0  0  0  0  2  0  0  0  0  0  0
  160.7770  204.2140  148.1480 C   0  0  0  0  0  2  0  0  0  0  0  0
  160.9470  202.7300  148.3930 C   0  0  0  0  0  2  0  0  0  0  0  0
  161.2360  201.6070  150.5700 C   0  0  0  0  0  2  0  0  0  0  0  0
  160.2550  202.3480  149.6840 C   0  0  0  0  0  3  0  0  0  0  0  0
  160.9260  203.0640  150.8360 C   0  0  0  0  0  2  0  0  0  0  0  0
  1 27  1  6  0  0  0
  1 18  1  0  0  0  0
  2  8  1  0  0  0  0
  3 11  1  0  0  0  0
  3  1  1  1  0  0  0
  4 12  1  0  0  0  0
  5  2  2  0  0  0  0
  5  9  1  0  0  0  0
  6  2  1  0  0  0  0
  7  4  1  0  0  0  0
  7 10  1  0  0  0  0
  8  4  2  0  0  0  0
  9  7  2  0  0  0  0
 10  3  1  0  0  0  0
 12 11  1  0  0  0  0
 14 15  1  0  0  0  0
 15 10  1  0  0  0  0
 15 13  1  0  0  0  0
 16 15  1  0  0  0  0
 17 16  1  0  0  0  0
 18 24  1  0  0  0  0
 19 20  1  0  0  0  0
 20 25  1  0  0  0  0
 20 21  1  0  0  0  0
 22 26  1  0  0  0  0
 23 19  1  0  0  0  0
 24 22  1  0  0  0  0
 24 23  1  0  0  0  0
 26 20  1  0  0  0  0
 27 28  1  0  0  0  0
 29 35  1  0  0  0  0
 30 34  2  0  0  0  0
 31 29  2  0  0  0  0
 32 38  1  6  0  0  0
 32 31  1  0  0  0  0
 33 32  1  0  0  0  0
 33 30  1  0  0  0  0
 34 29  1  0  0  0  0
 34 28  1  0  0  0  0
 35 36  1  0  0  0  0
 36 37  1  0  0  0  0
 38 39  1  0  0  0  0
 39 40  1  0  0  0  0
 40 42  1  0  0  0  0
 41 43  1  0  0  0  0
 42 41  1  0  0  0  0
 42 43  1  0  0  0  0
M  END
>  <MODEL>
5

>  <REMARK>
 VINA RESULT:      -4.7      2.930      8.143
  Name = 
  14 active torsions:
  status: ('A' for Active; 'I' for Inactive)
    1  A    between atoms: C_1  and  C_34
    2  A    between atoms: C_1  and  N_35
    3  A    between atoms: C_2  and  C_27
    4  A    between atoms: O_3  and  C_4
    5  A    between atoms: O_3  and  C_12
    6  A    between atoms: C_8  and  C_34
    7  A    between atoms: C_11  and  C_22
    8  A    between atoms: C_11  and  C_36
    9  A    between atoms: C_15  and  C_38
   10  A    between atoms: C_15  and  C_42
   11  A    between atoms: C_27  and  N_30
   12  A    between atoms: C_29  and  C_31
   13  A    between atoms: C_29  and  C_36
   14  A    between atoms: C_34  and  C_38
                            x       y       z     vdW  Elec       q    Type
                         _______ _______ _______ _____ _____    ______ ____

>  <TORSDO>
F 14

$$$$
=
 OpenBabel11062410053D

 43 47  0  0  1  0  0  0  0  0999 V2000
  161.6760  212.0800  150.3240 C   0  0  1  0  0  3  0  0  0  0  0  0
  157.6500  212.5650  146.2860 C   0  0  0  0  0  0  0  0  0  0  0  0
  161.5190  213.3950  149.5420 C   0  0  1  0  0  3  0  0  0  0  0  0
  158.9860  213.2990  148.1710 C   0  0  0  0  0  0  0  0  0  0  0  0
  158.8090  212.2330  145.5880 C   0  0  0  0  0  3  0  0  0  0  0  0
  156.3180  212.3520  145.6610 C   0  0  0  0  0  1  0  0  0  0  0  0
  160.1690  212.9570  147.4760 C   0  0  0  0  0  0  0  0  0  0  0  0
  157.7390  213.0900  147.5770 C   0  0  0  0  0  3  0  0  0  0  0  0
  160.0580  212.4270  146.1790 C   0  0  0  0  0  3  0  0  0  0  0  0
  161.4650  213.1630  148.0950 N   0  0  0  0  0  0  0  0  0  0  0  0
  160.3910  214.3220  150.0030 C   0  0  0  0  0  2  0  0  0  0  0  0
  159.0180  213.7980  149.5880 C   0  0  0  0  0  2  0  0  0  0  0  0
  163.5500  214.2580  148.0080 O   0  0  0  0  0  1  0  0  0  0  0  0
  163.3980  212.1850  147.1300 O   0  0  0  0  0  1  0  0  0  0  0  0
  162.7060  213.3840  147.3180 C   0  0  0  0  0  0  0  0  0  0  0  0
  162.3880  214.0280  145.9650 C   0  0  0  0  0  2  0  0  0  0  0  0
  163.0780  213.3420  144.7960 C   0  0  0  0  0  1  0  0  0  0  0  0
  160.3500  211.6220  150.9120 C   0  0  0  0  0  2  0  0  0  0  0  0
  159.6470  212.5810  154.4270 C   0  0  0  0  0  2  0  0  0  0  0  0
  159.1990  211.2220  154.9650 C   0  0  0  0  0  0  0  0  0  0  0  0
  159.4440  211.1710  156.3230 F   0  0  0  0  0  0  0  0  0  0  0  0
  159.8920  210.2480  152.7590 C   0  0  0  0  0  2  0  0  0  0  0  0
  159.5870  212.5940  152.8990 C   0  0  0  0  0  2  0  0  0  0  0  0
  160.4460  211.5420  152.3610 N   0  0  0  0  0  0  0  0  0  0  0  0
  157.8420  211.0590  154.7480 F   0  0  0  0  0  0  0  0  0  0  0  0
  159.9690  210.0940  154.2770 C   0  0  0  0  0  2  0  0  0  0  0  0
  162.3110  210.9570  149.5140 C   0  0  0  0  0  2  0  0  0  0  0  0
  161.2740  209.9150  149.1260 C   0  0  0  0  0  2  0  0  0  0  0  0
  161.4380  207.3390  148.9990 C   0  0  0  0  0  0  0  0  0  0  0  0
  161.9580  208.5540  151.0440 C   0  0  0  0  0  3  0  0  0  0  0  0
  161.4370  206.1980  149.6290 N   0  0  0  0  0  0  0  0  0  0  0  0
  161.4810  206.1160  151.0920 C   0  0  2  0  0  3  0  0  0  0  0  0
  162.3270  207.2480  151.6860 C   0  0  0  0  0  2  0  0  0  0  0  0
  161.5840  208.5990  149.7610 C   0  0  0  0  0  0  0  0  0  0  0  0
  161.3230  207.3860  147.6050 O   0  0  0  0  0  0  0  0  0  0  0  0
  161.7060  206.3060  146.7620 C   0  0  0  0  0  2  0  0  0  0  0  0
  160.5700  205.9390  145.8270 C   0  0  0  0  0  1  0  0  0  0  0  0
  161.9610  204.7440  151.5490 C   0  0  0  0  0  2  0  0  0  0  0  0
  160.8330  203.7250  151.5720 C   0  0  0  0  0  2  0  0  0  0  0  0
  161.2230  202.5210  150.7420 C   0  0  0  0  0  2  0  0  0  0  0  0
  161.2420  202.7590  148.2860 C   0  0  0  0  0  2  0  0  0  0  0  0
  160.3700  202.4720  149.4910 C   0  0  0  0  0  3  0  0  0  0  0  0
  160.8470  201.3350  148.6120 C   0  0  0  0  0  2  0  0  0  0  0  0
  1 27  1  6  0  0  0
  1 18  1  0  0  0  0
  2  8  1  0  0  0  0
  3 11  1  0  0  0  0
  3  1  1  1  0  0  0
  4 12  1  0  0  0  0
  5  9  1  0  0  0  0
  5  2  2  0  0  0  0
  6  2  1  0  0  0  0
  7 10  1  0  0  0  0
  7  4  1  0  0  0  0
  8  4  2  0  0  0  0
  9  7  2  0  0  0  0
 10  3  1  0  0  0  0
 12 11  1  0  0  0  0
 14 15  1  0  0  0  0
 15 13  1  0  0  0  0
 15 10  1  0  0  0  0
 16 15  1  0  0  0  0
 17 16  1  0  0  0  0
 18 24  1  0  0  0  0
 19 20  1  0  0  0  0
 20 21  1  0  0  0  0
 22 26  1  0  0  0  0
 23 19  1  0  0  0  0
 24 22  1  0  0  0  0
 24 23  1  0  0  0  0
 25 20  1  0  0  0  0
 26 20  1  0  0  0  0
 28 27  1  0  0  0  0
 28 34  1  0  0  0  0
 29 31  2  0  0  0  0
 29 34  1  0  0  0  0
 30 33  1  0  0  0  0
 31 32  1  0  0  0  0
 32 38  1  6  0  0  0
 32 33  1  0  0  0  0
 34 30  2  0  0  0  0
 35 29  1  0  0  0  0
 36 35  1  0  0  0  0
 37 36  1  0  0  0  0
 38 39  1  0  0  0  0
 40 39  1  0  0  0  0
 41 43  1  0  0  0  0
 41 42  1  0  0  0  0
 42 40  1  0  0  0  0
 43 42  1  0  0  0  0
M  END
>  <MODEL>
6

>  <REMARK>
 VINA RESULT:      -4.5      3.125      8.281
  Name = 
  14 active torsions:
  status: ('A' for Active; 'I' for Inactive)
    1  A    between atoms: C_1  and  C_34
    2  A    between atoms: C_1  and  N_35
    3  A    between atoms: C_2  and  C_27
    4  A    between atoms: O_3  and  C_4
    5  A    between atoms: O_3  and  C_12
    6  A    between atoms: C_8  and  C_34
    7  A    between atoms: C_11  and  C_22
    8  A    between atoms: C_11  and  C_36
    9  A    between atoms: C_15  and  C_38
   10  A    between atoms: C_15  and  C_42
   11  A    between atoms: C_27  and  N_30
   12  A    between atoms: C_29  and  C_31
   13  A    between atoms: C_29  and  C_36
   14  A    between atoms: C_34  and  C_38
                            x       y       z     vdW  Elec       q    Type
                         _______ _______ _______ _____ _____    ______ ____

>  <TORSDO>
F 14

$$$$
=
 OpenBabel11062410053D

 43 47  0  0  1  0  0  0  0  0999 V2000
  161.2070  211.3560  150.1880 C   0  0  1  0  0  3  0  0  0  0  0  0
  156.2660  214.0630  149.1820 C   0  0  0  0  0  0  0  0  0  0  0  0
  161.2090  212.7930  149.6380 C   0  0  1  0  0  3  0  0  0  0  0  0
  158.5520  213.8580  149.9640 C   0  0  0  0  0  0  0  0  0  0  0  0
  156.6370  213.5380  147.9460 C   0  0  0  0  0  3  0  0  0  0  0  0
  154.8530  214.4520  149.4320 C   0  0  0  0  0  1  0  0  0  0  0  0
  158.9380  213.3160  148.7160 C   0  0  0  0  0  0  0  0  0  0  0  0
  157.2200  214.2160  150.1900 C   0  0  0  0  0  3  0  0  0  0  0  0
  157.9620  213.1680  147.7160 C   0  0  0  0  0  3  0  0  0  0  0  0
  160.3180  212.9340  148.4820 N   0  0  0  0  0  0  0  0  0  0  0  0
  160.9770  213.9080  150.6630 C   0  0  0  0  0  2  0  0  0  0  0  0
  159.5180  213.9760  151.1080 C   0  0  0  0  0  2  0  0  0  0  0  0
  160.8680  214.1770  146.5570 O   0  0  0  0  0  1  0  0  0  0  0  0
  162.2780  212.5390  147.2070 O   0  0  0  0  0  1  0  0  0  0  0  0
  160.9320  212.9060  147.1350 C   0  0  0  0  0  0  0  0  0  0  0  0
  160.1700  211.9470  146.2150 C   0  0  0  0  0  2  0  0  0  0  0  0
  160.1190  212.4150  144.7690 C   0  0  0  0  0  1  0  0  0  0  0  0
  160.3060  211.2310  151.4070 C   0  0  0  0  0  2  0  0  0  0  0  0
  161.6800  210.6370  154.8030 C   0  0  0  0  0  2  0  0  0  0  0  0
  161.0070  209.2990  155.1070 C   0  0  0  0  0  0  0  0  0  0  0  0
  161.7800  208.6000  156.0120 F   0  0  0  0  0  0  0  0  0  0  0  0
  160.1960  209.2970  152.7330 C   0  0  0  0  0  2  0  0  0  0  0  0
  160.9630  211.3420  153.6500 C   0  0  0  0  0  2  0  0  0  0  0  0
  160.9890  210.4960  152.4600 N   0  0  0  0  0  0  0  0  0  0  0  0
  159.7580  209.5200  155.6600 F   0  0  0  0  0  0  0  0  0  0  0  0
  160.8640  208.4700  153.8300 C   0  0  0  0  0  2  0  0  0  0  0  0
  160.8410  210.3030  149.1500 C   0  0  0  0  0  2  0  0  0  0  0  0
  162.0640  209.4950  148.7430 C   0  0  0  0  0  2  0  0  0  0  0  0
  161.4710  206.9830  148.8460 C   0  0  0  0  0  0  0  0  0  0  0  0
  162.6390  208.0970  150.6690 C   0  0  0  0  0  3  0  0  0  0  0  0
  161.2520  205.9260  149.5780 N   0  0  0  0  0  0  0  0  0  0  0  0
  161.5090  205.9120  151.0220 C   0  0  2  0  0  3  0  0  0  0  0  0
  162.7250  206.7750  151.3780 C   0  0  0  0  0  2  0  0  0  0  0  0
  162.0890  208.1820  149.4530 C   0  0  0  0  0  0  0  0  0  0  0  0
  161.1490  206.9870  147.4840 O   0  0  0  0  0  0  0  0  0  0  0  0
  161.6220  206.0020  146.5750 C   0  0  0  0  0  2  0  0  0  0  0  0
  160.7830  206.0040  145.3120 C   0  0  0  0  0  1  0  0  0  0  0  0
  161.6500  204.4860  151.5380 C   0  0  0  0  0  2  0  0  0  0  0  0
  160.4460  203.6300  151.1790 C   0  0  0  0  0  2  0  0  0  0  0  0
  160.5900  203.1230  149.7610 C   0  0  0  0  0  2  0  0  0  0  0  0
  159.9690  201.1030  148.4880 C   0  0  0  0  0  2  0  0  0  0  0  0
  160.6100  201.6090  149.7640 C   0  0  0  0  0  3  0  0  0  0  0  0
  161.4760  201.1230  148.6210 C   0  0  0  0  0  2  0  0  0  0  0  0
  1 27  1  6  0  0  0
  1 18  1  0  0  0  0
  2  6  1  0  0  0  0
  2  8  1  0  0  0  0
  3  1  1  1  0  0  0
  3 11  1  0  0  0  0
  4  8  2  0  0  0  0
  4 12  1  0  0  0  0
  5  2  2  0  0  0  0
  7  4  1  0  0  0  0
  9  5  1  0  0  0  0
  9  7  2  0  0  0  0
 10  7  1  0  0  0  0
 10  3  1  0  0  0  0
 11 12  1  0  0  0  0
 13 15  1  0  0  0  0
 15 14  1  0  0  0  0
 15 10  1  0  0  0  0
 16 15  1  0  0  0  0
 17 16  1  0  0  0  0
 18 24  1  0  0  0  0
 19 20  1  0  0  0  0
 20 25  1  0  0  0  0
 20 21  1  0  0  0  0
 22 26  1  0  0  0  0
 23 19  1  0  0  0  0
 24 22  1  0  0  0  0
 24 23  1  0  0  0  0
 26 20  1  0  0  0  0
 28 27  1  0  0  0  0
 28 34  1  0  0  0  0
 29 34  1  0  0  0  0
 29 31  2  0  0  0  0
 30 33  1  0  0  0  0
 31 32  1  0  0  0  0
 32 33  1  0  0  0  0
 32 38  1  6  0  0  0
 34 30  2  0  0  0  0
 35 29  1  0  0  0  0
 36 35  1  0  0  0  0
 37 36  1  0  0  0  0
 39 38  1  0  0  0  0
 40 42  1  0  0  0  0
 40 39  1  0  0  0  0
 41 43  1  0  0  0  0
 41 42  1  0  0  0  0
 43 42  1  0  0  0  0
M  END
>  <MODEL>
7

>  <REMARK>
 VINA RESULT:      -4.4      3.340      8.589
  Name = 
  14 active torsions:
  status: ('A' for Active; 'I' for Inactive)
    1  A    between atoms: C_1  and  C_34
    2  A    between atoms: C_1  and  N_35
    3  A    between atoms: C_2  and  C_27
    4  A    between atoms: O_3  and  C_4
    5  A    between atoms: O_3  and  C_12
    6  A    between atoms: C_8  and  C_34
    7  A    between atoms: C_11  and  C_22
    8  A    between atoms: C_11  and  C_36
    9  A    between atoms: C_15  and  C_38
   10  A    between atoms: C_15  and  C_42
   11  A    between atoms: C_27  and  N_30
   12  A    between atoms: C_29  and  C_31
   13  A    between atoms: C_29  and  C_36
   14  A    between atoms: C_34  and  C_38
                            x       y       z     vdW  Elec       q    Type
                         _______ _______ _______ _____ _____    ______ ____

>  <TORSDO>
F 14

$$$$
=
 OpenBabel11062410053D

 43 47  0  0  1  0  0  0  0  0999 V2000
  161.2920  210.2700  150.6780 C   0  0  1  0  0  3  0  0  0  0  0  0
  160.0130  208.1830  155.8520 C   0  0  0  0  0  0  0  0  0  0  0  0
  161.6010  211.0910  151.9420 C   0  0  1  0  0  3  0  0  0  0  0  0
  161.3830  209.3240  154.2080 C   0  0  0  0  0  0  0  0  0  0  0  0
  158.9340  209.0020  155.5270 C   0  0  0  0  0  3  0  0  0  0  0  0
  159.8660  207.1380  156.8980 C   0  0  0  0  0  1  0  0  0  0  0  0
  160.2910  210.1540  153.8630 C   0  0  0  0  0  0  0  0  0  0  0  0
  161.2330  208.3400  155.1890 C   0  0  0  0  0  3  0  0  0  0  0  0
  159.0720  209.9780  154.5400 C   0  0  0  0  0  3  0  0  0  0  0  0
  160.4410  211.1680  152.8370 N   0  0  0  0  0  0  0  0  0  0  0  0
  162.8710  210.7020  152.7050 C   0  0  0  0  0  2  0  0  0  0  0  0
  162.6930  209.3970  153.4780 C   0  0  0  0  0  2  0  0  0  0  0  0
  159.4170  212.8830  154.0880 O   0  0  0  0  0  1  0  0  0  0  0  0
  160.2660  213.4030  152.0630 O   0  0  0  0  0  1  0  0  0  0  0  0
  159.6220  212.4010  152.7930 C   0  0  0  0  0  0  0  0  0  0  0  0
  158.2440  212.1110  152.1900 C   0  0  0  0  0  2  0  0  0  0  0  0
  157.7060  213.2530  151.3430 C   0  0  0  0  0  1  0  0  0  0  0  0
  162.2990  210.5530  149.5740 C   0  0  0  0  0  2  0  0  0  0  0  0
  162.7510  213.3770  147.2090 C   0  0  0  0  0  2  0  0  0  0  0  0
  161.4630  213.2260  146.4010 C   0  0  0  0  0  0  0  0  0  0  0  0
  161.1130  214.4530  145.8750 F   0  0  0  0  0  0  0  0  0  0  0  0
  160.7640  211.4750  148.0560 C   0  0  0  0  0  2  0  0  0  0  0  0
  163.0510  212.0880  147.9760 C   0  0  0  0  0  2  0  0  0  0  0  0
  161.9410  211.7760  148.8720 N   0  0  0  0  0  0  0  0  0  0  0  0
  161.6660  212.3340  145.3620 F   0  0  0  0  0  0  0  0  0  0  0  0
  160.3270  212.7240  147.2940 C   0  0  0  0  0  2  0  0  0  0  0  0
  161.1900  208.7710  150.9300 C   0  0  0  0  0  2  0  0  0  0  0  0
  161.5630  207.9850  149.6830 C   0  0  0  0  0  2  0  0  0  0  0  0
  161.3590  205.5550  148.8300 C   0  0  0  0  0  0  0  0  0  0  0  0
  161.5240  206.0670  151.2050 C   0  0  0  0  0  3  0  0  0  0  0  0
  161.0250  204.3190  149.0780 N   0  0  0  0  0  0  0  0  0  0  0  0
  160.6840  203.8600  150.4280 C   0  0  2  0  0  3  0  0  0  0  0  0
  161.5150  204.5920  151.4890 C   0  0  0  0  0  2  0  0  0  0  0  0
  161.4980  206.5160  149.9460 C   0  0  0  0  0  0  0  0  0  0  0  0
  161.6100  205.9780  147.5200 O   0  0  0  0  0  0  0  0  0  0  0  0
  162.6420  205.4250  146.7140 C   0  0  0  0  0  2  0  0  0  0  0  0
  162.0470  204.6120  145.5790 C   0  0  0  0  0  1  0  0  0  0  0  0
  160.8190  202.3470  150.5410 C   0  0  0  0  0  2  0  0  0  0  0  0
  160.2620  201.6340  149.3190 C   0  0  0  0  0  2  0  0  0  0  0  0
  161.1790  200.4920  148.9400 C   0  0  0  0  0  2  0  0  0  0  0  0
  161.1210  200.0000  146.5230 C   0  0  0  0  0  2  0  0  0  0  0  0
  161.8310  200.7870  147.6050 C   0  0  0  0  0  3  0  0  0  0  0  0
  160.8260  201.4730  146.7050 C   0  0  0  0  0  2  0  0  0  0  0  0
  1 18  1  6  0  0  0
  1 27  1  0  0  0  0
  2  6  1  0  0  0  0
  3  1  1  6  0  0  0
  3 11  1  0  0  0  0
  3 10  1  0  0  0  0
  4  8  1  0  0  0  0
  5  2  1  0  0  0  0
  7  4  2  0  0  0  0
  7  9  1  0  0  0  0
  8  2  2  0  0  0  0
  9  5  2  0  0  0  0
 10  7  1  0  0  0  0
 11 12  1  0  0  0  0
 12  4  1  0  0  0  0
 14 15  1  0  0  0  0
 15 10  1  0  0  0  0
 15 13  1  0  0  0  0
 16 15  1  0  0  0  0
 17 16  1  0  0  0  0
 19 23  1  0  0  0  0
 20 19  1  0  0  0  0
 20 26  1  0  0  0  0
 21 20  1  0  0  0  0
 22 24  1  0  0  0  0
 23 24  1  0  0  0  0
 24 18  1  0  0  0  0
 25 20  1  0  0  0  0
 26 22  1  0  0  0  0
 28 34  1  0  0  0  0
 28 27  1  0  0  0  0
 29 31  2  0  0  0  0
 29 34  1  0  0  0  0
 30 33  1  0  0  0  0
 31 32  1  0  0  0  0
 32 38  1  6  0  0  0
 32 33  1  0  0  0  0
 34 30  2  0  0  0  0
 35 29  1  0  0  0  0
 36 35  1  0  0  0  0
 37 36  1  0  0  0  0
 39 38  1  0  0  0  0
 40 39  1  0  0  0  0
 41 43  1  0  0  0  0
 41 42  1  0  0  0  0
 42 40  1  0  0  0  0
 43 42  1  0  0  0  0
M  END
>  <MODEL>
8

>  <REMARK>
 VINA RESULT:      -4.4      4.121      8.473
  Name = 
  14 active torsions:
  status: ('A' for Active; 'I' for Inactive)
    1  A    between atoms: C_1  and  C_34
    2  A    between atoms: C_1  and  N_35
    3  A    between atoms: C_2  and  C_27
    4  A    between atoms: O_3  and  C_4
    5  A    between atoms: O_3  and  C_12
    6  A    between atoms: C_8  and  C_34
    7  A    between atoms: C_11  and  C_22
    8  A    between atoms: C_11  and  C_36
    9  A    between atoms: C_15  and  C_38
   10  A    between atoms: C_15  and  C_42
   11  A    between atoms: C_27  and  N_30
   12  A    between atoms: C_29  and  C_31
   13  A    between atoms: C_29  and  C_36
   14  A    between atoms: C_34  and  C_38
                            x       y       z     vdW  Elec       q    Type
                         _______ _______ _______ _____ _____    ______ ____

>  <TORSDO>
F 14

$$$$
=
 OpenBabel11062410053D

 43 47  0  0  1  0  0  0  0  0999 V2000
  160.8860  212.1590  150.7680 C   0  0  1  0  0  3  0  0  0  0  0  0
  157.2210  212.9390  146.4420 C   0  0  0  0  0  0  0  0  0  0  0  0
  160.8090  213.5200  150.0540 C   0  0  1  0  0  3  0  0  0  0  0  0
  158.4000  213.5430  148.4730 C   0  0  0  0  0  0  0  0  0  0  0  0
  158.4310  212.6310  145.8250 C   0  0  0  0  0  3  0  0  0  0  0  0
  155.9440  212.7830  145.6960 C   0  0  0  0  0  1  0  0  0  0  0  0
  159.6340  213.2230  147.8600 C   0  0  0  0  0  0  0  0  0  0  0  0
  157.2060  213.3870  147.7650 C   0  0  0  0  0  3  0  0  0  0  0  0
  159.6280  212.7720  146.5300 C   0  0  0  0  0  3  0  0  0  0  0  0
  160.8750  213.3740  148.5960 N   0  0  0  0  0  0  0  0  0  0  0  0
  159.6550  214.4360  150.4730 C   0  0  0  0  0  2  0  0  0  0  0  0
  158.3170  213.9580  149.9140 C   0  0  0  0  0  2  0  0  0  0  0  0
  162.0010  214.4260  146.8140 O   0  0  0  0  0  1  0  0  0  0  0  0
  163.0550  214.2840  148.8040 O   0  0  0  0  0  1  0  0  0  0  0  0
  162.1800  213.6200  147.9410 C   0  0  0  0  0  0  0  0  0  0  0  0
  162.8030  212.3030  147.4670 C   0  0  0  0  0  2  0  0  0  0  0  0
  164.2610  212.1500  147.8670 C   0  0  0  0  0  1  0  0  0  0  0  0
  159.5650  211.8090  151.4370 C   0  0  0  0  0  2  0  0  0  0  0  0
  158.2290  212.8730  154.7320 C   0  0  0  0  0  2  0  0  0  0  0  0
  158.7460  211.7170  155.5880 C   0  0  0  0  0  0  0  0  0  0  0  0
  158.8940  212.1520  156.8900 F   0  0  0  0  0  0  0  0  0  0  0  0
  160.0170  210.9400  153.5700 C   0  0  0  0  0  2  0  0  0  0  0  0
  158.2530  212.4890  153.2510 C   0  0  0  0  0  2  0  0  0  0  0  0
  159.6160  212.1480  152.8510 N   0  0  0  0  0  0  0  0  0  0  0  0
  157.8340  210.6760  155.5650 F   0  0  0  0  0  0  0  0  0  0  0  0
  160.0980  211.2290  155.0680 C   0  0  0  0  0  2  0  0  0  0  0  0
  161.3410  211.0190  149.8660 C   0  0  0  0  0  2  0  0  0  0  0  0
  162.0720  209.9530  150.6660 C   0  0  0  0  0  2  0  0  0  0  0  0
  161.1840  207.5580  151.0570 C   0  0  0  0  0  0  0  0  0  0  0  0
  161.9910  208.2830  148.8770 C   0  0  0  0  0  3  0  0  0  0  0  0
  161.1630  206.3100  150.6800 N   0  0  0  0  0  0  0  0  0  0  0  0
  161.7640  205.8680  149.4170 C   0  0  2  0  0  3  0  0  0  0  0  0
  161.6160  206.9360  148.3280 C   0  0  0  0  0  2  0  0  0  0  0  0
  161.7420  208.5890  150.1540 C   0  0  0  0  0  0  0  0  0  0  0  0
  160.6650  207.9370  152.3000 O   0  0  0  0  0  0  0  0  0  0  0  0
  161.4280  207.9010  153.4990 C   0  0  0  0  0  2  0  0  0  0  0  0
  160.8220  206.9160  154.4800 C   0  0  0  0  0  1  0  0  0  0  0  0
  161.1930  204.5250  148.9820 C   0  0  0  0  0  2  0  0  0  0  0  0
  161.9440  203.9460  147.7920 C   0  0  0  0  0  2  0  0  0  0  0  0
  161.0740  204.0300  146.5570 C   0  0  0  0  0  2  0  0  0  0  0  0
  161.1590  204.7880  144.2110 C   0  0  0  0  0  2  0  0  0  0  0  0
  161.6240  205.0860  145.6210 C   0  0  0  0  0  3  0  0  0  0  0  0
  160.4720  205.8640  145.0220 C   0  0  0  0  0  2  0  0  0  0  0  0
  1 27  1  6  0  0  0
  1 18  1  0  0  0  0
  2  8  1  0  0  0  0
  3 11  1  0  0  0  0
  3  1  1  1  0  0  0
  4 12  1  0  0  0  0
  5  2  2  0  0  0  0
  5  9  1  0  0  0  0
  6  2  1  0  0  0  0
  7  4  1  0  0  0  0
  7 10  1  0  0  0  0
  8  4  2  0  0  0  0
  9  7  2  0  0  0  0
 10  3  1  0  0  0  0
 12 11  1  0  0  0  0
 13 15  1  0  0  0  0
 15 10  1  0  0  0  0
 15 14  1  0  0  0  0
 16 17  1  0  0  0  0
 16 15  1  0  0  0  0
 18 24  1  0  0  0  0
 19 20  1  0  0  0  0
 20 21  1  0  0  0  0
 22 26  1  0  0  0  0
 23 19  1  0  0  0  0
 24 23  1  0  0  0  0
 24 22  1  0  0  0  0
 25 20  1  0  0  0  0
 26 20  1  0  0  0  0
 27 28  1  0  0  0  0
 29 35  1  0  0  0  0
 30 34  2  0  0  0  0
 31 29  2  0  0  0  0
 32 38  1  6  0  0  0
 32 31  1  0  0  0  0
 33 30  1  0  0  0  0
 33 32  1  0  0  0  0
 34 28  1  0  0  0  0
 34 29  1  0  0  0  0
 35 36  1  0  0  0  0
 36 37  1  0  0  0  0
 39 38  1  0  0  0  0
 40 39  1  0  0  0  0
 41 43  1  0  0  0  0
 41 42  1  0  0  0  0
 42 40  1  0  0  0  0
 43 42  1  0  0  0  0
M  END
>  <MODEL>
9

>  <REMARK>
 VINA RESULT:      -4.2      3.105      7.441
  Name = 
  14 active torsions:
  status: ('A' for Active; 'I' for Inactive)
    1  A    between atoms: C_1  and  C_34
    2  A    between atoms: C_1  and  N_35
    3  A    between atoms: C_2  and  C_27
    4  A    between atoms: O_3  and  C_4
    5  A    between atoms: O_3  and  C_12
    6  A    between atoms: C_8  and  C_34
    7  A    between atoms: C_11  and  C_22
    8  A    between atoms: C_11  and  C_36
    9  A    between atoms: C_15  and  C_38
   10  A    between atoms: C_15  and  C_42
   11  A    between atoms: C_27  and  N_30
   12  A    between atoms: C_29  and  C_31
   13  A    between atoms: C_29  and  C_36
   14  A    between atoms: C_34  and  C_38
                            x       y       z     vdW  Elec       q    Type
                         _______ _______ _______ _____ _____    ______ ____

>  <TORSDO>
F 14

$$$$
