=
 OpenBabel11062409093D

 37 42  0  0  1  0  0  0  0  0999 V2000
  161.4450  210.0210  151.4200 C   0  0  2  0  0  3  0  0  0  0  0  0
  161.1380  209.8770  152.9450 C   0  0  1  0  0  0  0  0  0  0  0  0
  161.1780  211.4790  149.3320 C   0  0  1  0  0  3  0  0  0  0  0  0
  161.7870  208.6570  153.6520 C   0  0  1  0  0  0  0  0  0  0  0  0
  161.7040  206.9160  152.1630 C   0  0  0  0  0  2  0  0  0  0  0  0
  162.4440  210.9490  149.0680 O   0  0  0  0  0  0  0  0  0  0  0  0
  161.9610  208.6110  149.3770 C   0  0  0  0  0  0  0  0  0  0  0  0
  160.8020  211.2640  150.7940 C   0  0  0  0  0  2  0  0  0  0  0  0
  162.3290  207.4590  149.0240 O   0  0  0  0  0  0  0  0  0  0  0  0
  162.5630  207.8330  152.8100 O   0  0  0  0  0  0  0  0  0  0  0  0
  161.2540  208.7900  150.6240 N   0  0  0  0  0  0  0  0  0  0  0  0
  162.3640  210.0690  153.8670 C   0  0  1  0  0  0  0  0  0  0  0  0
  160.6780  207.6010  151.2500 C   0  0  0  0  0  2  0  0  0  0  0  0
  162.1830  209.7420  148.4120 C   0  0  0  0  0  2  0  0  0  0  0  0
  163.6930  210.3750  153.1730 C   0  0  0  0  0  1  0  0  0  0  0  0
  161.8460  208.0520  156.1200 C   0  0  0  0  0  3  0  0  0  0  0  0
  161.1930  207.9920  154.8800 C   0  0  0  0  0  0  0  0  0  0  0  0
  159.9110  207.4280  154.8120 C   0  0  0  0  0  3  0  0  0  0  0  0
  158.0870  206.3170  155.8710 F   0  0  0  0  0  0  0  0  0  0  0  0
  159.9910  206.9120  157.1760 C   0  0  0  0  0  3  0  0  0  0  0  0
  159.3170  206.8770  155.9520 C   0  0  0  0  0  0  0  0  0  0  0  0
  161.2530  207.5050  157.2610 C   0  0  0  0  0  3  0  0  0  0  0  0
  158.5950  212.8450  154.4580 C   0  0  0  0  0  2  0  0  0  0  0  0
  159.0120  211.2780  152.5700 C   0  0  0  0  0  2  0  0  0  0  0  0
  159.2980  211.8910  155.3810 C   0  0  0  0  0  3  0  0  0  0  0  0
  159.8010  210.7250  154.9490 C   0  0  0  0  0  3  0  0  0  0  0  0
  159.7520  210.2960  153.4960 C   0  0  2  0  0  3  0  0  0  0  0  0
  159.1520  212.7260  153.0350 C   0  0  1  0  0  3  0  0  0  0  0  0
  158.5140  213.6840  152.0180 C   0  0  0  0  0  0  0  0  0  0  0  0
  157.2870  214.4530  152.4570 C   0  0  0  0  0  2  0  0  0  0  0  0
  159.4090  214.4530  151.0650 C   0  0  0  0  0  1  0  0  0  0  0  0
  157.1600  213.3080  151.4540 C   0  0  0  0  0  2  0  0  0  0  0  0
  161.9550  213.2050  147.8810 O   0  0  0  0  0  1  0  0  0  0  0  0
  161.1550  212.9590  148.9970 C   0  0  0  0  0  2  0  0  0  0  0  0
  162.0920  210.7910  155.1940 C   0  0  0  0  0  2  0  0  0  0  0  0
  163.3380  210.5530  157.2610 N   0  0  0  0  0  1  0  0  0  0  0  0
  163.3820  211.1190  155.9260 C   0  0  0  0  0  2  0  0  0  0  0  0
  1  8  1  6  0  0  0
  1  2  1  0  0  0  0
  2 27  1  1  0  0  0
  2  4  1  0  0  0  0
  2 12  1  0  0  0  0
  3 34  1  1  0  0  0
  3  8  1  0  0  0  0
  4 12  1  0  0  0  0
  4 17  1  1  0  0  0
  5 10  1  0  0  0  0
  6  3  1  0  0  0  0
  7 11  1  0  0  0  0
  9  7  2  0  0  0  0
 10  4  1  0  0  0  0
 11 13  1  0  0  0  0
 11  1  1  0  0  0  0
 12 15  1  6  0  0  0
 12 35  1  0  0  0  0
 13  5  1  0  0  0  0
 14  6  1  0  0  0  0
 14  7  1  0  0  0  0
 16 22  1  0  0  0  0
 17 16  2  0  0  0  0
 18 17  1  0  0  0  0
 18 21  2  0  0  0  0
 19 21  1  0  0  0  0
 20 22  2  0  0  0  0
 21 20  1  0  0  0  0
 23 25  1  0  0  0  0
 24 28  1  0  0  0  0
 26 25  2  0  0  0  0
 27 24  1  6  0  0  0
 27 26  1  0  0  0  0
 28 29  1  6  0  0  0
 28 23  1  0  0  0  0
 29 30  1  0  0  0  0
 31 29  1  0  0  0  0
 32 29  1  0  0  0  0
 32 30  1  0  0  0  0
 33 34  1  0  0  0  0
 35 37  1  0  0  0  0
 37 36  1  0  0  0  0
M  END
>  <MODEL>
1

>  <REMARK>
 VINA RESULT:      -0.5      0.000      0.000
  Name = 
  6 active torsions:
  status: ('A' for Active; 'I' for Inactive)
    1  A    between atoms: C_3  and  C_30
    2  A    between atoms: C_4  and  C_28
    3  A    between atoms: C_5  and  C_23
    4  A    between atoms: C_6  and  C_7
    5  A    between atoms: C_14  and  C_31
    6  A    between atoms: C_14  and  C_37
                            x       y       z     vdW  Elec       q    Type
                         _______ _______ _______ _____ _____    ______ ____

>  <TORSDO>
F 6

$$$$
=
 OpenBabel11062409093D

 37 42  0  0  1  0  0  0  0  0999 V2000
  160.1200  209.9780  153.6250 C   0  0  2  0  0  3  0  0  0  0  0  0
  159.1300  211.0520  154.1800 C   0  0  1  0  0  0  0  0  0  0  0  0
  161.4730  209.1880  151.6000 C   0  0  1  0  0  3  0  0  0  0  0  0
  158.8010  210.9470  155.6940 C   0  0  1  0  0  0  0  0  0  0  0  0
  158.6650  208.7120  156.1830 C   0  0  0  0  0  2  0  0  0  0  0  0
  162.3590  208.8150  152.6140 O   0  0  0  0  0  0  0  0  0  0  0  0
  160.8450  207.5810  154.0210 C   0  0  0  0  0  0  0  0  0  0  0  0
  160.4270  210.1610  152.1340 C   0  0  0  0  0  2  0  0  0  0  0  0
  160.8010  206.6510  154.8690 O   0  0  0  0  0  0  0  0  0  0  0  0
  159.4380  209.8810  156.3630 O   0  0  0  0  0  0  0  0  0  0  0  0
  159.8040  208.5830  153.9990 N   0  0  0  0  0  0  0  0  0  0  0  0
  159.7580  212.0430  155.1880 C   0  0  1  0  0  0  0  0  0  0  0  0
  158.5630  208.2840  154.7120 C   0  0  0  0  0  2  0  0  0  0  0  0
  161.9360  207.5350  152.9880 C   0  0  0  0  0  2  0  0  0  0  0  0
  161.2440  211.8460  155.4960 C   0  0  0  0  0  1  0  0  0  0  0  0
  157.3730  212.7490  156.7780 C   0  0  0  0  0  3  0  0  0  0  0  0
  157.4980  211.4370  156.2990 C   0  0  0  0  0  0  0  0  0  0  0  0
  156.3610  210.6170  156.2560 C   0  0  0  0  0  3  0  0  0  0  0  0
  154.0480  210.2720  156.7140 F   0  0  0  0  0  0  0  0  0  0  0  0
  155.0290  212.3780  157.2480 C   0  0  0  0  0  3  0  0  0  0  0  0
  155.1350  211.0790  156.7420 C   0  0  0  0  0  0  0  0  0  0  0  0
  156.1480  213.2150  157.2610 C   0  0  0  0  0  3  0  0  0  0  0  0
  157.3650  214.1580  151.9910 C   0  0  0  0  0  2  0  0  0  0  0  0
  158.4270  211.9120  151.8590 C   0  0  0  0  0  2  0  0  0  0  0  0
  156.8970  213.8360  153.3810 C   0  0  0  0  0  3  0  0  0  0  0  0
  157.1530  212.6540  153.9600 C   0  0  0  0  0  3  0  0  0  0  0  0
  157.9730  211.5700  153.2900 C   0  0  2  0  0  3  0  0  0  0  0  0
  158.6640  213.4100  151.6720 C   0  0  1  0  0  3  0  0  0  0  0  0
  159.2400  213.6940  150.2770 C   0  0  0  0  0  0  0  0  0  0  0  0
  160.4750  212.9250  149.8600 C   0  0  0  0  0  2  0  0  0  0  0  0
  158.2900  213.9910  149.1320 C   0  0  0  0  0  1  0  0  0  0  0  0
  160.5710  214.4110  150.2000 C   0  0  0  0  0  2  0  0  0  0  0  0
  162.3170  208.9210  149.3860 O   0  0  0  0  0  1  0  0  0  0  0  0
  162.2370  209.8190  150.4500 C   0  0  0  0  0  2  0  0  0  0  0  0
  159.2540  213.4900  155.0990 C   0  0  0  0  0  2  0  0  0  0  0  0
  159.8820  214.3970  157.2590 N   0  0  0  0  0  1  0  0  0  0  0  0
  160.1730  214.4470  155.8380 C   0  0  0  0  0  2  0  0  0  0  0  0
  1  8  1  6  0  0  0
  1 11  1  0  0  0  0
  1  2  1  0  0  0  0
  2 27  1  6  0  0  0
  2 12  1  0  0  0  0
  2  4  1  0  0  0  0
  3 34  1  6  0  0  0
  3  8  1  0  0  0  0
  3  6  1  0  0  0  0
  4 17  1  1  0  0  0
  4 10  1  0  0  0  0
  5 10  1  0  0  0  0
  6 14  1  0  0  0  0
  7  9  2  0  0  0  0
 11  7  1  0  0  0  0
 11 13  1  0  0  0  0
 12 15  1  1  0  0  0
 12  4  1  0  0  0  0
 13  5  1  0  0  0  0
 14  7  1  0  0  0  0
 16 22  1  0  0  0  0
 17 16  2  0  0  0  0
 18 17  1  0  0  0  0
 18 21  2  0  0  0  0
 19 21  1  0  0  0  0
 20 22  2  0  0  0  0
 21 20  1  0  0  0  0
 23 25  1  0  0  0  0
 25 26  2  0  0  0  0
 27 24  1  6  0  0  0
 27 26  1  0  0  0  0
 28 29  1  6  0  0  0
 28 24  1  0  0  0  0
 28 23  1  0  0  0  0
 30 32  1  0  0  0  0
 30 29  1  0  0  0  0
 31 29  1  0  0  0  0
 32 29  1  0  0  0  0
 33 34  1  0  0  0  0
 35 12  1  0  0  0  0
 35 37  1  0  0  0  0
 37 36  1  0  0  0  0
M  END
>  <MODEL>
2

>  <REMARK>
 VINA RESULT:       1.2      2.493      4.413
  Name = 
  6 active torsions:
  status: ('A' for Active; 'I' for Inactive)
    1  A    between atoms: C_3  and  C_30
    2  A    between atoms: C_4  and  C_28
    3  A    between atoms: C_5  and  C_23
    4  A    between atoms: C_6  and  C_7
    5  A    between atoms: C_14  and  C_31
    6  A    between atoms: C_14  and  C_37
                            x       y       z     vdW  Elec       q    Type
                         _______ _______ _______ _____ _____    ______ ____

>  <TORSDO>
F 6

$$$$
