=
 OpenBabel11062410283D

 43 48  0  0  1  0  0  0  0  0999 V2000
  161.0270  201.4260  147.0730 C   0  0  0  0  0  0  0  0  0  0  0  0
  161.2330  204.9660  150.6480 N   0  0  2  0  0  0  0  0  0  0  0  0
  160.9600  207.5690  149.1700 C   0  0  1  0  0  3  0  0  0  0  0  0
  160.6310  202.7300  149.0200 C   0  0  0  0  0  0  0  0  0  0  0  0
  161.7150  202.4830  146.4720 C   0  0  0  0  0  3  0  0  0  0  0  0
  160.8730  200.1950  146.3770 N   0  0  0  0  0  1  0  0  0  0  0  0
  161.3300  203.8140  148.4540 C   0  0  0  0  0  0  0  0  0  0  0  0
  160.5110  201.5680  148.3240 N   0  0  0  0  0  0  0  0  0  0  0  0
  161.8630  203.6830  147.1690 C   0  0  0  0  0  3  0  0  0  0  0  0
  160.5800  206.2000  148.5950 C   0  0  0  0  0  2  0  0  0  0  0  0
  161.4700  205.1160  149.1960 C   0  0  1  0  0  3  0  0  0  0  0  0
  159.9720  204.2550  150.8780 C   0  0  0  0  0  2  0  0  0  0  0  0
  161.1430  206.2510  151.3720 C   0  0  2  0  0  3  0  0  0  0  0  0
  161.5950  207.4820  150.5650 C   0  0  0  0  0  2  0  0  0  0  0  0
  160.1030  202.8060  150.4200 C   0  0  0  0  0  2  0  0  0  0  0  0
  161.8980  208.3260  148.2260 C   0  0  2  0  0  3  0  0  0  0  0  0
  163.2080  208.2630  148.7010 O   0  0  0  0  0  1  0  0  0  0  0  0
  161.7250  212.0980  148.7690 N   0  0  0  0  0  2  0  0  0  0  0  0
  161.4890  209.7200  148.1040 N   0  0  0  0  0  2  0  0  0  0  0  0
  161.8420  210.7080  149.0760 C   0  0  0  0  0  0  0  0  0  0  0  0
  162.2600  210.3600  150.2110 O   0  0  0  0  0  0  0  0  0  0  0  0
  161.4080  212.5750  147.4300 C   0  0  1  0  0  3  0  0  0  0  0  0
  160.3240  214.4530  145.5480 O   0  0  0  0  0  0  0  0  0  0  0  0
  159.8970  212.6700  147.1550 C   0  0  2  0  0  3  0  0  0  0  0  0
  162.0930  213.9080  147.1570 C   0  0  0  0  0  2  0  0  0  0  0  0
  161.7260  214.4010  145.7530 C   0  0  1  0  0  3  0  0  0  0  0  0
  159.7630  213.1650  145.7070 C   0  0  0  0  0  2  0  0  0  0  0  0
  162.4510  213.6320  144.6540 C   0  0  0  0  0  1  0  0  0  0  0  0
  159.1400  213.5910  148.1370 C   0  0  0  0  0  3  0  0  0  0  0  0
  157.3410  214.1180  150.4100 C   0  0  0  0  0  2  0  0  0  0  0  0
  158.8520  214.2900  150.5320 C   0  0  0  0  0  2  0  0  0  0  0  0
  156.8970  214.3590  148.9700 C   0  0  0  0  0  2  0  0  0  0  0  0
  159.5670  213.3300  149.5840 C   0  0  0  0  0  2  0  0  0  0  0  0
  157.6220  213.3970  148.0320 C   0  0  0  0  0  2  0  0  0  0  0  0
  161.9220  206.1730  152.6880 C   0  0  0  0  0  2  0  0  0  0  0  0
  160.5080  209.3990  154.2800 C   0  0  0  0  0  2  0  0  0  0  0  0
  160.2090  208.8480  155.6540 C   0  0  0  0  0  0  0  0  0  0  0  0
  160.8110  206.6250  154.8390 C   0  0  0  0  0  3  0  0  0  0  0  0
  161.6010  208.5900  153.5730 C   0  0  0  0  0  2  0  0  0  0  0  0
  161.3880  207.1070  153.7320 C   0  0  0  0  0  0  0  0  0  0  0  0
  160.2970  207.5340  155.8770 C   0  0  0  0  0  3  0  0  0  0  0  0
  159.7020  209.7110  156.7270 C   0  0  0  0  0  3  0  0  0  0  0  0
  159.2000  210.9180  156.4920 C   0  0  0  0  0  2  0  0  0  0  0  0
  1  8  1  0  0  0  0
  2 12  1  6  0  0  0
  2 13  1  0  0  0  0
  3 16  1  6  0  0  0
  3 14  1  0  0  0  0
  4 15  1  0  0  0  0
  5  1  2  0  0  0  0
  5  9  1  0  0  0  0
  6  1  1  0  0  0  0
  7  4  1  0  0  0  0
  7 11  1  0  0  0  0
  8  4  2  0  0  0  0
  9  7  2  0  0  0  0
 10  3  1  0  0  0  0
 11 10  1  6  0  0  0
 11  2  1  0  0  0  0
 13 35  1  1  0  0  0
 14 13  1  0  0  0  0
 15 12  1  0  0  0  0
 16 17  1  1  0  0  0
 18 20  1  0  0  0  0
 19 16  1  0  0  0  0
 19 20  1  0  0  0  0
 20 21  2  0  0  0  0
 22 18  1  1  0  0  0
 23 27  1  0  0  0  0
 23 26  1  0  0  0  0
 24 22  1  0  0  0  0
 24 29  1  1  0  0  0
 25 22  1  0  0  0  0
 26 28  1  6  0  0  0
 26 25  1  0  0  0  0
 27 24  1  0  0  0  0
 29 33  1  0  0  0  0
 30 31  1  0  0  0  0
 32 30  1  0  0  0  0
 33 31  1  0  0  0  0
 34 29  1  0  0  0  0
 34 32  1  0  0  0  0
 35 40  1  0  0  0  0
 36 37  1  0  0  0  0
 37 41  2  0  0  0  0
 37 42  1  0  0  0  0
 38 41  1  0  0  0  0
 39 40  1  0  0  0  0
 39 36  1  0  0  0  0
 40 38  2  0  0  0  0
 43 42  2  0  0  0  0
M  END
>  <MODEL>
1

>  <REMARK>
 VINA RESULT:      -8.5      0.000      0.000
  Name = 
  7 active torsions:
  status: ('A' for Active; 'I' for Inactive)
    1  A    between atoms: C_1  and  C_34
    2  A    between atoms: C_1  and  C_35
    3  A    between atoms: C_2  and  N_6
    4  A    between atoms: C_2  and  C_13
    5  A    between atoms: N_3  and  C_4
    6  A    between atoms: C_11  and  C_14
    7  A    between atoms: C_19  and  C_25
                            x       y       z     vdW  Elec       q    Type
                         _______ _______ _______ _____ _____    ______ ____

>  <TORSDO>
F 7

$$$$
=
 OpenBabel11062410283D

 43 48  0  0  1  0  0  0  0  0999 V2000
  161.2390  203.9050  148.0250 C   0  0  0  0  0  0  0  0  0  0  0  0
  161.4970  208.7480  149.3770 N   0  0  2  0  0  0  0  0  0  0  0  0
  162.2010  208.6930  152.2990 C   0  0  1  0  0  3  0  0  0  0  0  0
  161.7850  206.2140  148.1500 C   0  0  0  0  0  0  0  0  0  0  0  0
  160.7360  203.9250  149.3280 C   0  0  0  0  0  3  0  0  0  0  0  0
  161.2180  202.6940  147.2760 N   0  0  0  0  0  1  0  0  0  0  0  0
  161.2750  206.2790  149.4600 C   0  0  0  0  0  0  0  0  0  0  0  0
  161.7410  205.0390  147.4660 N   0  0  0  0  0  0  0  0  0  0  0  0
  160.7580  205.1210  150.0470 C   0  0  0  0  0  3  0  0  0  0  0  0
  162.3800  207.5110  151.3410 C   0  0  0  0  0  2  0  0  0  0  0  0
  161.3190  207.5620  150.2450 C   0  0  1  0  0  3  0  0  0  0  0  0
  162.6270  208.5380  148.4690 C   0  0  0  0  0  2  0  0  0  0  0  0
  161.7660  209.9950  150.1230 C   0  0  2  0  0  3  0  0  0  0  0  0
  161.5280  209.9060  151.6420 C   0  0  0  0  0  2  0  0  0  0  0  0
  162.2860  207.4470  147.4600 C   0  0  0  0  0  2  0  0  0  0  0  0
  161.4130  208.2830  153.5470 C   0  0  2  0  0  3  0  0  0  0  0  0
  160.8530  207.0190  153.3650 O   0  0  0  0  0  1  0  0  0  0  0  0
  159.2870  210.8800  155.3610 N   0  0  0  0  0  2  0  0  0  0  0  0
  160.3590  209.2490  153.8290 N   0  0  0  0  0  2  0  0  0  0  0  0
  160.0750  209.7070  155.1550 C   0  0  0  0  0  0  0  0  0  0  0  0
  160.5210  209.0780  156.1500 O   0  0  0  0  0  0  0  0  0  0  0  0
  158.8800  211.7460  154.2640 C   0  0  1  0  0  3  0  0  0  0  0  0
  157.6860  214.1060  153.1460 O   0  0  0  0  0  0  0  0  0  0  0  0
  157.3540  211.9070  154.1450 C   0  0  2  0  0  3  0  0  0  0  0  0
  159.5610  213.1050  154.3700 C   0  0  0  0  0  2  0  0  0  0  0  0
  159.0980  214.0060  153.2200 C   0  0  1  0  0  3  0  0  0  0  0  0
  157.1210  212.8260  152.9360 C   0  0  0  0  0  2  0  0  0  0  0  0
  159.7310  213.6250  151.8860 C   0  0  0  0  0  1  0  0  0  0  0  0
  156.6840  212.4690  155.4180 C   0  0  0  0  0  3  0  0  0  0  0  0
  154.3780  213.4050  156.9950 C   0  0  0  0  0  2  0  0  0  0  0  0
  155.0240  212.0470  157.2540 C   0  0  0  0  0  2  0  0  0  0  0  0
  155.4080  214.3810  156.4330 C   0  0  0  0  0  2  0  0  0  0  0  0
  155.6320  211.5000  155.9650 C   0  0  0  0  0  2  0  0  0  0  0  0
  156.0110  213.8210  155.1480 C   0  0  0  0  0  2  0  0  0  0  0  0
  160.9530  211.1510  149.5320 C   0  0  0  0  0  2  0  0  0  0  0  0
  161.2110  212.8780  146.0840 C   0  0  0  0  0  2  0  0  0  0  0  0
  162.7170  212.9200  145.9760 C   0  0  0  0  0  0  0  0  0  0  0  0
  162.8550  212.0610  148.2590 C   0  0  0  0  0  3  0  0  0  0  0  0
  160.7430  211.7580  147.0190 C   0  0  0  0  0  2  0  0  0  0  0  0
  161.5640  211.7050  148.2800 C   0  0  0  0  0  0  0  0  0  0  0  0
  163.4680  212.5920  147.0300 C   0  0  0  0  0  3  0  0  0  0  0  0
  163.3800  213.4330  144.7710 C   0  0  0  0  0  3  0  0  0  0  0  0
  162.8250  213.3580  143.5670 C   0  0  0  0  0  2  0  0  0  0  0  0
  1  5  1  0  0  0  0
  2 12  1  6  0  0  0
  2 13  1  0  0  0  0
  2 11  1  0  0  0  0
  3 16  1  1  0  0  0
  4  7  2  0  0  0  0
  5  9  2  0  0  0  0
  6  1  1  0  0  0  0
  7  9  1  0  0  0  0
  7 11  1  0  0  0  0
  8  1  2  0  0  0  0
  8  4  1  0  0  0  0
 10  3  1  0  0  0  0
 11 10  1  1  0  0  0
 13 35  1  6  0  0  0
 13 14  1  0  0  0  0
 14  3  1  0  0  0  0
 15  4  1  0  0  0  0
 15 12  1  0  0  0  0
 16 17  1  6  0  0  0
 16 19  1  0  0  0  0
 19 20  1  0  0  0  0
 20 18  1  0  0  0  0
 20 21  2  0  0  0  0
 22 25  1  0  0  0  0
 22 18  1  1  0  0  0
 23 26  1  0  0  0  0
 24 22  1  0  0  0  0
 24 29  1  1  0  0  0
 26 28  1  6  0  0  0
 26 25  1  0  0  0  0
 27 23  1  0  0  0  0
 27 24  1  0  0  0  0
 29 33  1  0  0  0  0
 30 31  1  0  0  0  0
 32 30  1  0  0  0  0
 33 31  1  0  0  0  0
 34 29  1  0  0  0  0
 34 32  1  0  0  0  0
 36 39  1  0  0  0  0
 37 36  1  0  0  0  0
 37 41  2  0  0  0  0
 38 40  2  0  0  0  0
 39 40  1  0  0  0  0
 40 35  1  0  0  0  0
 41 38  1  0  0  0  0
 42 37  1  0  0  0  0
 43 42  2  0  0  0  0
M  END
>  <MODEL>
2

>  <REMARK>
 VINA RESULT:      -7.2      3.056      6.958
  Name = 
  7 active torsions:
  status: ('A' for Active; 'I' for Inactive)
    1  A    between atoms: C_1  and  C_34
    2  A    between atoms: C_1  and  C_35
    3  A    between atoms: C_2  and  N_6
    4  A    between atoms: C_2  and  C_13
    5  A    between atoms: N_3  and  C_4
    6  A    between atoms: C_11  and  C_14
    7  A    between atoms: C_19  and  C_25
                            x       y       z     vdW  Elec       q    Type
                         _______ _______ _______ _____ _____    ______ ____

>  <TORSDO>
F 7

$$$$
=
 OpenBabel11062410283D

 43 48  0  0  1  0  0  0  0  0999 V2000
  161.2510  202.1150  146.8450 C   0  0  0  0  0  0  0  0  0  0  0  0
  161.3060  205.2870  150.7540 N   0  0  2  0  0  0  0  0  0  0  0  0
  160.8490  208.0020  149.5480 C   0  0  1  0  0  3  0  0  0  0  0  0
  160.8130  203.1910  148.9170 C   0  0  0  0  0  0  0  0  0  0  0  0
  161.8630  203.2670  146.3450 C   0  0  0  0  0  3  0  0  0  0  0  0
  161.1600  200.9510  146.0310 N   0  0  0  0  0  1  0  0  0  0  0  0
  161.4330  204.3680  148.4550 C   0  0  0  0  0  0  0  0  0  0  0  0
  160.7510  202.0980  148.1090 N   0  0  0  0  0  0  0  0  0  0  0  0
  161.9500  204.3980  147.1570 C   0  0  0  0  0  3  0  0  0  0  0  0
  160.5420  206.6760  148.8440 C   0  0  0  0  0  2  0  0  0  0  0  0
  161.5080  205.5950  149.3220 C   0  0  1  0  0  3  0  0  0  0  0  0
  160.0960  204.4800  150.9270 C   0  0  0  0  0  2  0  0  0  0  0  0
  161.1520  206.4860  151.6040 C   0  0  2  0  0  3  0  0  0  0  0  0
  161.5130  207.8160  150.9190 C   0  0  0  0  0  2  0  0  0  0  0  0
  160.3060  203.0950  150.3240 C   0  0  0  0  0  2  0  0  0  0  0  0
  161.7220  208.9070  148.6740 C   0  0  2  0  0  3  0  0  0  0  0  0
  163.0280  208.4200  148.6360 O   0  0  0  0  0  1  0  0  0  0  0  0
  162.0970  212.6990  148.8450 N   0  0  0  0  0  2  0  0  0  0  0  0
  161.7230  210.2710  149.1870 N   0  0  0  0  0  2  0  0  0  0  0  0
  162.3910  211.3410  148.5120 C   0  0  0  0  0  0  0  0  0  0  0  0
  163.2420  211.0930  147.6190 O   0  0  0  0  0  0  0  0  0  0  0  0
  161.0120  213.0630  149.7450 C   0  0  1  0  0  3  0  0  0  0  0  0
  158.3130  212.9370  150.7160 O   0  0  0  0  0  0  0  0  0  0  0  0
  159.8610  213.8080  149.0460 C   0  0  2  0  0  3  0  0  0  0  0  0
  160.4920  211.8360  150.4840 C   0  0  0  0  0  2  0  0  0  0  0  0
  159.3360  212.2400  151.4060 C   0  0  1  0  0  3  0  0  0  0  0  0
  158.8350  214.1210  150.1450 C   0  0  0  0  0  2  0  0  0  0  0  0
  159.8110  212.9770  152.6530 C   0  0  0  0  0  1  0  0  0  0  0  0
  159.2190  213.0190  147.8840 C   0  0  0  0  0  3  0  0  0  0  0  0
  157.8910  212.7880  145.2650 C   0  0  0  0  0  2  0  0  0  0  0  0
  159.3600  212.4180  145.4500 C   0  0  0  0  0  2  0  0  0  0  0  0
  157.1250  212.5780  146.5670 C   0  0  0  0  0  2  0  0  0  0  0  0
  159.9730  213.2520  146.5720 C   0  0  0  0  0  2  0  0  0  0  0  0
  157.7510  213.4130  147.6810 C   0  0  0  0  0  2  0  0  0  0  0  0
  161.9580  206.3260  152.8970 C   0  0  0  0  0  2  0  0  0  0  0  0
  160.5730  209.4230  154.7490 C   0  0  0  0  0  2  0  0  0  0  0  0
  160.2700  208.7630  156.0740 C   0  0  0  0  0  0  0  0  0  0  0  0
  160.8520  206.6090  155.0790 C   0  0  0  0  0  3  0  0  0  0  0  0
  161.6580  208.6650  153.9770 C   0  0  0  0  0  2  0  0  0  0  0  0
  161.4320  207.1760  154.0140 C   0  0  0  0  0  0  0  0  0  0  0  0
  160.3460  207.4350  156.1890 C   0  0  0  0  0  3  0  0  0  0  0  0
  159.7700  209.5400  157.2150 C   0  0  0  0  0  3  0  0  0  0  0  0
  159.8090  210.8670  157.2430 C   0  0  0  0  0  2  0  0  0  0  0  0
  1  8  1  0  0  0  0
  2 12  1  6  0  0  0
  2 13  1  0  0  0  0
  3 16  1  6  0  0  0
  3 14  1  0  0  0  0
  4 15  1  0  0  0  0
  5  1  2  0  0  0  0
  5  9  1  0  0  0  0
  6  1  1  0  0  0  0
  7  4  1  0  0  0  0
  7 11  1  0  0  0  0
  8  4  2  0  0  0  0
  9  7  2  0  0  0  0
 10  3  1  0  0  0  0
 11 10  1  6  0  0  0
 11  2  1  0  0  0  0
 13 35  1  1  0  0  0
 14 13  1  0  0  0  0
 15 12  1  0  0  0  0
 16 17  1  1  0  0  0
 16 19  1  0  0  0  0
 20 18  1  0  0  0  0
 20 19  1  0  0  0  0
 21 20  2  0  0  0  0
 22 18  1  6  0  0  0
 22 25  1  0  0  0  0
 23 26  1  0  0  0  0
 24 29  1  6  0  0  0
 24 22  1  0  0  0  0
 24 27  1  0  0  0  0
 25 26  1  0  0  0  0
 26 28  1  1  0  0  0
 27 23  1  0  0  0  0
 30 31  1  0  0  0  0
 30 32  1  0  0  0  0
 31 33  1  0  0  0  0
 32 34  1  0  0  0  0
 33 29  1  0  0  0  0
 34 29  1  0  0  0  0
 35 40  1  0  0  0  0
 36 37  1  0  0  0  0
 37 41  2  0  0  0  0
 37 42  1  0  0  0  0
 38 41  1  0  0  0  0
 39 40  1  0  0  0  0
 39 36  1  0  0  0  0
 40 38  2  0  0  0  0
 42 43  2  0  0  0  0
M  END
>  <MODEL>
3

>  <REMARK>
 VINA RESULT:      -6.7      1.308      2.609
  Name = 
  7 active torsions:
  status: ('A' for Active; 'I' for Inactive)
    1  A    between atoms: C_1  and  C_34
    2  A    between atoms: C_1  and  C_35
    3  A    between atoms: C_2  and  N_6
    4  A    between atoms: C_2  and  C_13
    5  A    between atoms: N_3  and  C_4
    6  A    between atoms: C_11  and  C_14
    7  A    between atoms: C_19  and  C_25
                            x       y       z     vdW  Elec       q    Type
                         _______ _______ _______ _____ _____    ______ ____

>  <TORSDO>
F 7

$$$$
=
 OpenBabel11062410283D

 43 48  0  0  1  0  0  0  0  0999 V2000
  161.8860  204.0670  146.2220 C   0  0  0  0  0  0  0  0  0  0  0  0
  161.5460  206.7370  150.4770 N   0  0  2  0  0  0  0  0  0  0  0  0
  161.4220  209.6030  149.5780 C   0  0  1  0  0  3  0  0  0  0  0  0
  161.2100  204.9180  148.3350 C   0  0  0  0  0  0  0  0  0  0  0  0
  162.6270  205.2220  145.9640 C   0  0  0  0  0  3  0  0  0  0  0  0
  161.8490  203.0180  145.2610 N   0  0  0  0  0  1  0  0  0  0  0  0
  161.9560  206.0920  148.1180 C   0  0  0  0  0  0  0  0  0  0  0  0
  161.2060  203.9360  147.3930 N   0  0  0  0  0  0  0  0  0  0  0  0
  162.6580  206.2390  146.9180 C   0  0  0  0  0  3  0  0  0  0  0  0
  161.1480  208.3970  148.6740 C   0  0  0  0  0  2  0  0  0  0  0  0
  161.9710  207.1990  149.1370 C   0  0  1  0  0  3  0  0  0  0  0  0
  160.2800  206.0070  150.3750 C   0  0  0  0  0  2  0  0  0  0  0  0
  161.3360  207.8340  151.4440 C   0  0  2  0  0  3  0  0  0  0  0  0
  161.8670  209.2070  150.9930 C   0  0  0  0  0  2  0  0  0  0  0  0
  160.4980  204.6920  149.6350 C   0  0  0  0  0  2  0  0  0  0  0  0
  162.4620  210.5390  148.9560 C   0  0  2  0  0  3  0  0  0  0  0  0
  163.4110  210.9030  149.9120 O   0  0  0  0  0  1  0  0  0  0  0  0
  161.8710  213.7180  146.9330 N   0  0  0  0  0  2  0  0  0  0  0  0
  161.8240  211.7350  148.4220 N   0  0  0  0  0  2  0  0  0  0  0  0
  162.5560  212.7480  147.7260 C   0  0  0  0  0  0  0  0  0  0  0  0
  163.8120  212.7890  147.8060 O   0  0  0  0  0  0  0  0  0  0  0  0
  160.4430  213.6340  146.6610 C   0  0  1  0  0  3  0  0  0  0  0  0
  158.1120  212.4800  145.4460 O   0  0  0  0  0  0  0  0  0  0  0  0
  160.0850  213.8880  145.1850 C   0  0  2  0  0  3  0  0  0  0  0  0
  159.8840  212.2960  147.1310 C   0  0  0  0  0  2  0  0  0  0  0  0
  158.3870  212.2220  146.8120 C   0  0  1  0  0  3  0  0  0  0  0  0
  158.5550  213.7780  145.1000 C   0  0  0  0  0  2  0  0  0  0  0  0
  157.5440  213.0760  147.7520 C   0  0  0  0  0  1  0  0  0  0  0  0
  160.7760  212.9210  144.1990 C   0  0  0  0  0  3  0  0  0  0  0  0
  161.7480  212.1120  141.5390 C   0  0  0  0  0  2  0  0  0  0  0  0
  162.7070  212.5780  142.6300 C   0  0  0  0  0  2  0  0  0  0  0  0
  160.5080  211.4770  142.1600 C   0  0  0  0  0  2  0  0  0  0  0  0
  162.0050  213.5690  143.5560 C   0  0  0  0  0  2  0  0  0  0  0  0
  159.8190  212.4750  143.0860 C   0  0  0  0  0  2  0  0  0  0  0  0
  161.9340  207.4630  152.8040 C   0  0  0  0  0  2  0  0  0  0  0  0
  160.3850  207.9850  156.3070 C   0  0  0  0  0  2  0  0  0  0  0  0
  160.0760  209.4580  156.1880 C   0  0  0  0  0  0  0  0  0  0  0  0
  161.2300  209.4760  154.0350 C   0  0  0  0  0  3  0  0  0  0  0  0
  160.4600  207.3110  154.9330 C   0  0  0  0  0  2  0  0  0  0  0  0
  161.2390  208.1410  153.9460 C   0  0  0  0  0  0  0  0  0  0  0  0
  160.5360  210.1520  155.1440 C   0  0  0  0  0  3  0  0  0  0  0  0
  159.3800  210.1800  157.2610 C   0  0  0  0  0  3  0  0  0  0  0  0
  158.9750  211.4370  157.1250 C   0  0  0  0  0  2  0  0  0  0  0  0
  1  8  1  0  0  0  0
  2 12  1  6  0  0  0
  2 13  1  0  0  0  0
  3 16  1  6  0  0  0
  3 14  1  0  0  0  0
  4 15  1  0  0  0  0
  5  1  2  0  0  0  0
  5  9  1  0  0  0  0
  6  1  1  0  0  0  0
  7  4  1  0  0  0  0
  7 11  1  0  0  0  0
  8  4  2  0  0  0  0
  9  7  2  0  0  0  0
 10  3  1  0  0  0  0
 11 10  1  6  0  0  0
 11  2  1  0  0  0  0
 13 35  1  1  0  0  0
 14 13  1  0  0  0  0
 15 12  1  0  0  0  0
 16 17  1  1  0  0  0
 18 20  1  0  0  0  0
 19 16  1  0  0  0  0
 20 21  2  0  0  0  0
 20 19  1  0  0  0  0
 22 18  1  6  0  0  0
 22 25  1  0  0  0  0
 23 26  1  0  0  0  0
 24 29  1  6  0  0  0
 24 22  1  0  0  0  0
 26 25  1  0  0  0  0
 26 28  1  1  0  0  0
 27 24  1  0  0  0  0
 27 23  1  0  0  0  0
 30 32  1  0  0  0  0
 30 31  1  0  0  0  0
 31 33  1  0  0  0  0
 32 34  1  0  0  0  0
 33 29  1  0  0  0  0
 34 29  1  0  0  0  0
 35 40  1  0  0  0  0
 37 36  1  0  0  0  0
 37 42  1  0  0  0  0
 38 41  1  0  0  0  0
 39 36  1  0  0  0  0
 40 38  2  0  0  0  0
 40 39  1  0  0  0  0
 41 37  2  0  0  0  0
 43 42  2  0  0  0  0
M  END
>  <MODEL>
4

>  <REMARK>
 VINA RESULT:      -5.9      1.789      3.672
  Name = 
  7 active torsions:
  status: ('A' for Active; 'I' for Inactive)
    1  A    between atoms: C_1  and  C_34
    2  A    between atoms: C_1  and  C_35
    3  A    between atoms: C_2  and  N_6
    4  A    between atoms: C_2  and  C_13
    5  A    between atoms: N_3  and  C_4
    6  A    between atoms: C_11  and  C_14
    7  A    between atoms: C_19  and  C_25
                            x       y       z     vdW  Elec       q    Type
                         _______ _______ _______ _____ _____    ______ ____

>  <TORSDO>
F 7

$$$$
