=
 OpenBabel11062408273D

 32 36  0  0  1  0  0  0  0  0999 V2000
  160.9850  209.8640  152.5140 C   0  0  1  0  0  3  0  0  0  0  0  0
  161.5150  211.0830  150.5730 C   0  0  0  0  0  0  0  0  0  0  0  0
  159.7110  212.0250  151.8530 C   0  0  0  0  0  3  0  0  0  0  0  0
  162.1620  213.2860  147.6940 N   0  0  0  0  0  2  0  0  0  0  0  0
  160.6760  211.0400  151.6550 C   0  0  0  0  0  0  0  0  0  0  0  0
  160.3440  214.1600  149.0230 C   0  0  0  0  0  3  0  0  0  0  0  0
  160.4630  213.1280  149.8690 C   0  0  0  0  0  0  0  0  0  0  0  0
  159.6300  213.0470  150.9500 N   0  0  0  0  0  0  0  0  0  0  0  0
  162.4050  209.9790  150.5460 N   0  0  0  0  0  2  0  0  0  0  0  0
  162.0950  209.1330  151.7060 C   0  0  2  0  0  3  0  0  0  0  0  0
  161.4430  212.1270  149.6460 C   0  0  0  0  0  0  0  0  0  0  0  0
  161.2040  214.2560  147.9210 O   0  0  0  0  0  0  0  0  0  0  0  0
  162.2750  212.1840  148.6000 C   0  0  0  0  0  3  0  0  0  0  0  0
  161.0180  205.4690  151.7590 C   0  0  0  0  0  0  0  0  0  0  0  0
  160.8840  204.4160  152.6530 O   0  0  0  0  0  1  0  0  0  0  0  0
  161.6160  207.7760  151.2660 C   0  0  0  0  0  0  0  0  0  0  0  0
  160.6380  205.2830  150.4300 C   0  0  0  0  0  3  0  0  0  0  0  0
  161.2140  207.5770  149.9340 C   0  0  0  0  0  3  0  0  0  0  0  0
  161.5170  206.7100  152.1830 C   0  0  0  0  0  0  0  0  0  0  0  0
  161.8970  206.9030  153.6170 C   0  0  0  0  0  1  0  0  0  0  0  0
  160.7320  206.3320  149.5120 C   0  0  0  0  0  0  0  0  0  0  0  0
  161.1220  206.5020  147.0760 C   0  0  0  0  0  1  0  0  0  0  0  0
  160.3260  206.1140  148.1900 O   0  0  0  0  0  0  0  0  0  0  0  0
  162.7680  210.2990  154.1910 C   0  0  0  0  0  2  0  0  0  0  0  0
  161.5070  210.3060  153.8590 C   0  0  2  0  0  3  0  0  0  0  0  0
  160.7220  210.6550  154.9890 N   0  0  0  0  0  0  0  0  0  0  0  0
  161.5080  211.0980  156.0040 O   0  0  0  0  0  0  0  0  0  0  0  0
  162.8090  210.6780  155.6340 C   0  0  0  0  0  2  0  0  0  0  0  0
  159.4320  210.0460  155.2760 C   0  0  0  0  0  2  0  0  0  0  0  0
  159.5340  209.1530  156.5070 C   0  0  0  0  0  2  0  0  0  0  0  0
  159.7260  207.6910  156.1210 C   0  0  0  0  0  2  0  0  0  0  0  0
  160.4160  206.9460  157.2600 C   0  0  0  0  0  1  0  0  0  0  0  0
  1  5  1  6  0  0  0
  1 25  1  0  0  0  0
  2  5  2  0  0  0  0
  4 12  1  0  0  0  0
  4 13  1  0  0  0  0
  5  3  1  0  0  0  0
  6  7  2  0  0  0  0
  7  8  1  0  0  0  0
  8  3  2  0  0  0  0
  9  2  1  0  0  0  0
  9 10  1  0  0  0  0
 10 16  1  6  0  0  0
 10  1  1  0  0  0  0
 11  7  1  0  0  0  0
 11  2  1  0  0  0  0
 12  6  1  0  0  0  0
 13 11  2  0  0  0  0
 14 19  1  0  0  0  0
 14 15  1  0  0  0  0
 16 19  2  0  0  0  0
 17 14  2  0  0  0  0
 18 16  1  0  0  0  0
 19 20  1  0  0  0  0
 21 18  2  0  0  0  0
 21 17  1  0  0  0  0
 22 23  1  0  0  0  0
 23 21  1  0  0  0  0
 24 28  1  0  0  0  0
 25 24  1  1  0  0  0
 25 26  1  0  0  0  0
 26 29  1  0  0  0  0
 26 27  1  0  0  0  0
 28 27  1  0  0  0  0
 29 30  1  0  0  0  0
 31 30  1  0  0  0  0
 31 32  1  0  0  0  0
M  END
>  <MODEL>
1

>  <REMARK>
 VINA RESULT:      -6.6      0.000      0.000
  Name = 
  6 active torsions:
  status: ('A' for Active; 'I' for Inactive)
    1  A    between atoms: C_1  and  C_5
    2  A    between atoms: C_13  and  C_18
    3  A    between atoms: N_14  and  C_29
    4  A    between atoms: O_15  and  C_26
    5  A    between atoms: C_16  and  C_27
    6  A    between atoms: C_18  and  C_29
                            x       y       z     vdW  Elec       q    Type
                         _______ _______ _______ _____ _____    ______ ____

>  <TORSDO>
F 6

$$$$
=
 OpenBabel11062408273D

 32 36  0  0  1  0  0  0  0  0999 V2000
  160.3550  208.5260  153.5740 C   0  0  1  0  0  3  0  0  0  0  0  0
  160.4240  210.5600  152.3930 C   0  0  0  0  0  0  0  0  0  0  0  0
  158.5540  210.3650  153.8910 C   0  0  0  0  0  3  0  0  0  0  0  0
  160.2970  213.8820  150.8110 N   0  0  0  0  0  2  0  0  0  0  0  0
  159.7080  209.8410  153.3130 C   0  0  0  0  0  0  0  0  0  0  0  0
  158.4330  213.6050  152.3230 C   0  0  0  0  0  3  0  0  0  0  0  0
  158.8620  212.3730  152.6280 C   0  0  0  0  0  0  0  0  0  0  0  0
  158.1600  211.6240  153.5320 N   0  0  0  0  0  0  0  0  0  0  0  0
  161.5460  209.8390  151.9130 N   0  0  0  0  0  2  0  0  0  0  0  0
  161.5400  208.5240  152.5670 C   0  0  2  0  0  3  0  0  0  0  0  0
  160.0320  211.8490  152.0220 C   0  0  0  0  0  0  0  0  0  0  0  0
  159.1570  214.3830  151.4090 O   0  0  0  0  0  0  0  0  0  0  0  0
  160.7410  212.5620  151.1400 C   0  0  0  0  0  3  0  0  0  0  0  0
  161.1610  205.0640  150.9920 C   0  0  0  0  0  0  0  0  0  0  0  0
  161.1400  203.7270  151.3630 O   0  0  0  0  0  1  0  0  0  0  0  0
  161.3650  207.4240  151.5540 C   0  0  0  0  0  0  0  0  0  0  0  0
  160.9520  205.4010  149.6540 C   0  0  0  0  0  3  0  0  0  0  0  0
  161.1380  207.7470  150.2060 C   0  0  0  0  0  3  0  0  0  0  0  0
  161.3780  206.0690  151.9470 C   0  0  0  0  0  0  0  0  0  0  0  0
  161.5760  205.6950  153.3820 C   0  0  0  0  0  1  0  0  0  0  0  0
  160.9380  206.7390  149.2540 C   0  0  0  0  0  0  0  0  0  0  0  0
  161.1610  206.2020  146.8510 C   0  0  0  0  0  1  0  0  0  0  0  0
  160.7100  207.0420  147.9060 O   0  0  0  0  0  0  0  0  0  0  0  0
  160.3580  207.6640  155.9050 C   0  0  0  0  0  2  0  0  0  0  0  0
  160.8600  208.4500  154.9940 C   0  0  2  0  0  3  0  0  0  0  0  0
  161.8360  209.2950  155.5830 N   0  0  0  0  0  0  0  0  0  0  0  0
  162.1260  208.8900  156.8460 O   0  0  0  0  0  0  0  0  0  0  0  0
  161.0620  208.0140  157.1740 C   0  0  0  0  0  2  0  0  0  0  0  0
  162.0080  210.6900  155.2050 C   0  0  0  0  0  2  0  0  0  0  0  0
  161.7500  211.5950  156.4030 C   0  0  0  0  0  2  0  0  0  0  0  0
  160.3540  212.2050  156.3510 C   0  0  0  0  0  2  0  0  0  0  0  0
  159.4150  211.4180  157.2600 C   0  0  0  0  0  1  0  0  0  0  0  0
  1  5  1  1  0  0  0
  1 25  1  0  0  0  0
  2  5  2  0  0  0  0
  4 13  1  0  0  0  0
  4 12  1  0  0  0  0
  5  3  1  0  0  0  0
  6  7  2  0  0  0  0
  7  8  1  0  0  0  0
  8  3  2  0  0  0  0
  9  2  1  0  0  0  0
  9 10  1  0  0  0  0
 10 16  1  6  0  0  0
 10  1  1  0  0  0  0
 11  2  1  0  0  0  0
 11  7  1  0  0  0  0
 12  6  1  0  0  0  0
 13 11  2  0  0  0  0
 14 15  1  0  0  0  0
 14 19  1  0  0  0  0
 16 19  2  0  0  0  0
 17 14  2  0  0  0  0
 18 16  1  0  0  0  0
 19 20  1  0  0  0  0
 21 17  1  0  0  0  0
 21 18  2  0  0  0  0
 22 23  1  0  0  0  0
 23 21  1  0  0  0  0
 24 28  1  0  0  0  0
 25 26  1  0  0  0  0
 25 24  1  1  0  0  0
 26 27  1  0  0  0  0
 27 28  1  0  0  0  0
 29 26  1  0  0  0  0
 29 30  1  0  0  0  0
 31 30  1  0  0  0  0
 31 32  1  0  0  0  0
M  END
>  <MODEL>
2

>  <REMARK>
 VINA RESULT:      -5.6      1.684      2.615
  Name = 
  6 active torsions:
  status: ('A' for Active; 'I' for Inactive)
    1  A    between atoms: C_1  and  C_5
    2  A    between atoms: C_13  and  C_18
    3  A    between atoms: N_14  and  C_29
    4  A    between atoms: O_15  and  C_26
    5  A    between atoms: C_16  and  C_27
    6  A    between atoms: C_18  and  C_29
                            x       y       z     vdW  Elec       q    Type
                         _______ _______ _______ _____ _____    ______ ____

>  <TORSDO>
F 6

$$$$
=
 OpenBabel11062408273D

 32 36  0  0  1  0  0  0  0  0999 V2000
  160.6000  208.7380  153.3370 C   0  0  1  0  0  3  0  0  0  0  0  0
  160.2830  210.8040  152.2570 C   0  0  0  0  0  0  0  0  0  0  0  0
  158.5640  210.2600  153.8480 C   0  0  0  0  0  3  0  0  0  0  0  0
  159.5500  214.1280  150.8540 N   0  0  0  0  0  2  0  0  0  0  0  0
  159.7450  209.9450  153.1790 C   0  0  0  0  0  0  0  0  0  0  0  0
  157.8500  213.5030  152.4540 C   0  0  0  0  0  3  0  0  0  0  0  0
  158.4800  212.3410  152.6720 C   0  0  0  0  0  0  0  0  0  0  0  0
  157.9610  211.4550  153.5750 N   0  0  0  0  0  0  0  0  0  0  0  0
  161.4690  210.2860  151.6790 N   0  0  0  0  0  2  0  0  0  0  0  0
  161.7060  208.9600  152.2650 C   0  0  2  0  0  3  0  0  0  0  0  0
  159.6760  212.0300  151.9740 C   0  0  0  0  0  0  0  0  0  0  0  0
  158.3860  214.4200  151.5400 O   0  0  0  0  0  0  0  0  0  0  0  0
  160.2100  212.8800  151.0900 C   0  0  0  0  0  3  0  0  0  0  0  0
  161.8090  207.1750  148.8890 C   0  0  0  0  0  0  0  0  0  0  0  0
  162.0240  207.4560  147.5480 O   0  0  0  0  0  1  0  0  0  0  0  0
  161.6360  207.8890  151.2100 C   0  0  0  0  0  0  0  0  0  0  0  0
  161.5860  205.8540  149.2790 C   0  0  0  0  0  3  0  0  0  0  0  0
  161.4280  206.5510  151.5880 C   0  0  0  0  0  3  0  0  0  0  0  0
  161.8260  208.2000  149.8480 C   0  0  0  0  0  0  0  0  0  0  0  0
  162.0930  209.6080  149.4200 C   0  0  0  0  0  1  0  0  0  0  0  0
  161.3950  205.5350  150.6250 C   0  0  0  0  0  0  0  0  0  0  0  0
  160.4560  203.2950  150.1620 C   0  0  0  0  0  1  0  0  0  0  0  0
  161.1890  204.1960  150.9820 O   0  0  0  0  0  0  0  0  0  0  0  0
  161.0260  207.6950  155.5530 C   0  0  0  0  0  2  0  0  0  0  0  0
  161.2010  208.6830  154.7200 C   0  0  2  0  0  3  0  0  0  0  0  0
  161.9130  209.7260  155.3670 N   0  0  0  0  0  0  0  0  0  0  0  0
  162.3980  209.3100  156.5650 O   0  0  0  0  0  0  0  0  0  0  0  0
  161.6760  208.1200  156.8280 C   0  0  0  0  0  2  0  0  0  0  0  0
  161.6260  211.1360  155.1450 C   0  0  0  0  0  2  0  0  0  0  0  0
  160.6620  211.6510  156.2080 C   0  0  0  0  0  2  0  0  0  0  0  0
  160.0740  213.0020  155.8200 C   0  0  0  0  0  2  0  0  0  0  0  0
  160.1980  213.9710  156.9920 C   0  0  0  0  0  1  0  0  0  0  0  0
  1  5  1  1  0  0  0
  1 25  1  0  0  0  0
  2  5  2  0  0  0  0
  4 13  1  0  0  0  0
  4 12  1  0  0  0  0
  5  3  1  0  0  0  0
  6  7  2  0  0  0  0
  7  8  1  0  0  0  0
  8  3  2  0  0  0  0
  9  2  1  0  0  0  0
  9 10  1  0  0  0  0
 10 16  1  6  0  0  0
 10  1  1  0  0  0  0
 11  2  1  0  0  0  0
 11  7  1  0  0  0  0
 12  6  1  0  0  0  0
 13 11  2  0  0  0  0
 14 17  2  0  0  0  0
 14 19  1  0  0  0  0
 15 14  1  0  0  0  0
 16 18  1  0  0  0  0
 17 21  1  0  0  0  0
 19 16  2  0  0  0  0
 20 19  1  0  0  0  0
 21 23  1  0  0  0  0
 21 18  2  0  0  0  0
 22 23  1  0  0  0  0
 24 28  1  0  0  0  0
 25 26  1  0  0  0  0
 25 24  1  1  0  0  0
 26 27  1  0  0  0  0
 27 28  1  0  0  0  0
 29 26  1  0  0  0  0
 29 30  1  0  0  0  0
 31 30  1  0  0  0  0
 31 32  1  0  0  0  0
M  END
>  <MODEL>
3

>  <REMARK>
 VINA RESULT:      -4.5      1.965      3.392
  Name = 
  6 active torsions:
  status: ('A' for Active; 'I' for Inactive)
    1  A    between atoms: C_1  and  C_5
    2  A    between atoms: C_13  and  C_18
    3  A    between atoms: N_14  and  C_29
    4  A    between atoms: O_15  and  C_26
    5  A    between atoms: C_16  and  C_27
    6  A    between atoms: C_18  and  C_29
                            x       y       z     vdW  Elec       q    Type
                         _______ _______ _______ _____ _____    ______ ____

>  <TORSDO>
F 6

$$$$
=
 OpenBabel11062408273D

 32 36  0  0  1  0  0  0  0  0999 V2000
  161.8290  205.2850  149.9860 C   0  0  1  0  0  3  0  0  0  0  0  0
  161.1270  205.8190  147.8050 C   0  0  0  0  0  0  0  0  0  0  0  0
  163.0460  204.3730  147.8850 C   0  0  0  0  0  3  0  0  0  0  0  0
  160.2270  206.3510  144.2750 N   0  0  0  0  0  2  0  0  0  0  0  0
  162.0620  205.1240  148.5250 C   0  0  0  0  0  0  0  0  0  0  0  0
  162.1640  204.9160  144.4360 C   0  0  0  0  0  3  0  0  0  0  0  0
  162.1190  205.0030  145.7720 C   0  0  0  0  0  0  0  0  0  0  0  0
  163.0480  204.3320  146.5200 N   0  0  0  0  0  0  0  0  0  0  0  0
  160.2340  206.5330  148.6440 N   0  0  0  0  0  2  0  0  0  0  0  0
  160.6450  206.2940  150.0340 C   0  0  2  0  0  3  0  0  0  0  0  0
  161.1180  205.7810  146.4080 C   0  0  0  0  0  0  0  0  0  0  0  0
  161.2060  205.5890  143.6660 O   0  0  0  0  0  0  0  0  0  0  0  0
  160.1930  206.4420  145.7020 C   0  0  0  0  0  3  0  0  0  0  0  0
  161.5460  208.8890  152.6880 C   0  0  0  0  0  0  0  0  0  0  0  0
  161.5960  209.0200  154.0680 O   0  0  0  0  0  1  0  0  0  0  0  0
  161.0760  207.5770  150.6920 C   0  0  0  0  0  0  0  0  0  0  0  0
  161.9660  209.9530  151.8890 C   0  0  0  0  0  3  0  0  0  0  0  0
  161.5180  208.6520  149.9030 C   0  0  0  0  0  3  0  0  0  0  0  0
  161.0900  207.7010  152.0970 C   0  0  0  0  0  0  0  0  0  0  0  0
  160.6670  206.5590  152.9650 C   0  0  0  0  0  1  0  0  0  0  0  0
  161.9560  209.8420  150.4970 C   0  0  0  0  0  0  0  0  0  0  0  0
  161.9560  211.1410  148.3930 C   0  0  0  0  0  1  0  0  0  0  0  0
  162.4000  210.9240  149.7270 O   0  0  0  0  0  0  0  0  0  0  0  0
  161.9560  203.5040  151.7150 C   0  0  0  0  0  2  0  0  0  0  0  0
  161.4360  203.9710  150.6140 C   0  0  2  0  0  3  0  0  0  0  0  0
  160.5670  202.9990  150.0530 N   0  0  0  0  0  0  0  0  0  0  0  0
  160.3540  201.9800  150.9240 O   0  0  0  0  0  0  0  0  0  0  0  0
  161.3810  202.1370  151.8870 C   0  0  0  0  0  2  0  0  0  0  0  0
  160.4570  202.7710  148.6190 C   0  0  0  0  0  2  0  0  0  0  0  0
  160.5120  201.2770  148.3190 C   0  0  0  0  0  2  0  0  0  0  0  0
  161.2060  201.0010  146.9910 C   0  0  0  0  0  2  0  0  0  0  0  0
  160.4560  201.7040  145.8630 C   0  0  0  0  0  1  0  0  0  0  0  0
  1  5  1  6  0  0  0
  1 10  1  0  0  0  0
  1 25  1  0  0  0  0
  2  5  2  0  0  0  0
  2  9  1  0  0  0  0
  3  5  1  0  0  0  0
  4 13  1  0  0  0  0
  6  7  2  0  0  0  0
  7 11  1  0  0  0  0
  7  8  1  0  0  0  0
  8  3  2  0  0  0  0
  9 10  1  0  0  0  0
 10 16  1  6  0  0  0
 11  2  1  0  0  0  0
 12  4  1  0  0  0  0
 12  6  1  0  0  0  0
 13 11  2  0  0  0  0
 14 15  1  0  0  0  0
 16 19  2  0  0  0  0
 17 14  2  0  0  0  0
 18 21  2  0  0  0  0
 18 16  1  0  0  0  0
 19 14  1  0  0  0  0
 19 20  1  0  0  0  0
 21 17  1  0  0  0  0
 22 23  1  0  0  0  0
 23 21  1  0  0  0  0
 24 28  1  0  0  0  0
 25 24  1  6  0  0  0
 26 25  1  0  0  0  0
 26 27  1  0  0  0  0
 27 28  1  0  0  0  0
 29 26  1  0  0  0  0
 30 29  1  0  0  0  0
 31 30  1  0  0  0  0
 32 31  1  0  0  0  0
M  END
>  <MODEL>
4

>  <REMARK>
 VINA RESULT:      -4.3      3.451      7.547
  Name = 
  6 active torsions:
  status: ('A' for Active; 'I' for Inactive)
    1  A    between atoms: C_1  and  C_5
    2  A    between atoms: C_13  and  C_18
    3  A    between atoms: N_14  and  C_29
    4  A    between atoms: O_15  and  C_26
    5  A    between atoms: C_16  and  C_27
    6  A    between atoms: C_18  and  C_29
                            x       y       z     vdW  Elec       q    Type
                         _______ _______ _______ _____ _____    ______ ____

>  <TORSDO>
F 6

$$$$
=
 OpenBabel11062408273D

 32 36  0  0  1  0  0  0  0  0999 V2000
  161.7220  209.7190  151.7280 C   0  0  1  0  0  3  0  0  0  0  0  0
  160.8170  211.5620  150.5790 C   0  0  0  0  0  0  0  0  0  0  0  0
  162.9250  210.8070  149.7050 C   0  0  0  0  0  3  0  0  0  0  0  0
  159.6330  214.3550  148.4920 N   0  0  0  0  0  2  0  0  0  0  0  0
  161.8850  210.7060  150.6260 C   0  0  0  0  0  0  0  0  0  0  0  0
  161.7630  213.5520  147.6830 C   0  0  0  0  0  3  0  0  0  0  0  0
  161.7890  212.6320  148.6570 C   0  0  0  0  0  0  0  0  0  0  0  0
  162.8490  211.7730  148.7400 N   0  0  0  0  0  0  0  0  0  0  0  0
  159.8840  211.3040  151.6150 N   0  0  0  0  0  2  0  0  0  0  0  0
  160.4110  210.1930  152.4180 C   0  0  2  0  0  3  0  0  0  0  0  0
  160.7270  212.5500  149.5940 C   0  0  0  0  0  0  0  0  0  0  0  0
  160.6730  214.4260  147.5840 O   0  0  0  0  0  0  0  0  0  0  0  0
  159.6750  213.3740  149.5330 C   0  0  0  0  0  3  0  0  0  0  0  0
  159.9590  211.6050  155.9390 C   0  0  0  0  0  0  0  0  0  0  0  0
  158.9760  212.1750  156.7340 O   0  0  0  0  0  1  0  0  0  0  0  0
  160.6920  210.6380  153.8280 C   0  0  0  0  0  0  0  0  0  0  0  0
  161.2250  211.3790  156.4810 C   0  0  0  0  0  3  0  0  0  0  0  0
  161.9560  210.4040  154.3940 C   0  0  0  0  0  3  0  0  0  0  0  0
  159.6870  211.2460  154.6100 C   0  0  0  0  0  0  0  0  0  0  0  0
  158.3190  211.4690  154.0490 C   0  0  0  0  0  1  0  0  0  0  0  0
  162.2280  210.7790  155.7160 C   0  0  0  0  0  0  0  0  0  0  0  0
  164.0480  211.4430  157.2520 C   0  0  0  0  0  1  0  0  0  0  0  0
  163.4810  210.5540  156.2970 O   0  0  0  0  0  0  0  0  0  0  0  0
  160.8250  208.0260  150.1440 C   0  0  0  0  0  2  0  0  0  0  0  0
  161.5620  208.3230  151.1780 C   0  0  2  0  0  3  0  0  0  0  0  0
  162.0590  207.1300  151.7630 N   0  0  0  0  0  0  0  0  0  0  0  0
  161.8210  206.0620  150.9590 O   0  0  0  0  0  0  0  0  0  0  0  0
  160.8500  206.5370  150.0430 C   0  0  0  0  0  2  0  0  0  0  0  0
  162.1890  206.9470  153.2010 C   0  0  0  0  0  2  0  0  0  0  0  0
  160.8200  206.6990  153.8250 C   0  0  0  0  0  2  0  0  0  0  0  0
  160.8260  206.9960  155.3190 C   0  0  0  0  0  2  0  0  0  0  0  0
  159.5250  207.6880  155.7110 C   0  0  0  0  0  1  0  0  0  0  0  0
  1  5  1  6  0  0  0
  1 10  1  0  0  0  0
  2  5  2  0  0  0  0
  2  9  1  0  0  0  0
  3  5  1  0  0  0  0
  4 13  1  0  0  0  0
  6  7  2  0  0  0  0
  7  8  1  0  0  0  0
  7 11  1  0  0  0  0
  8  3  2  0  0  0  0
  9 10  1  0  0  0  0
 10 16  1  1  0  0  0
 11  2  1  0  0  0  0
 12  6  1  0  0  0  0
 12  4  1  0  0  0  0
 13 11  2  0  0  0  0
 14 17  1  0  0  0  0
 14 15  1  0  0  0  0
 16 18  2  0  0  0  0
 16 19  1  0  0  0  0
 18 21  1  0  0  0  0
 19 14  2  0  0  0  0
 20 19  1  0  0  0  0
 21 23  1  0  0  0  0
 21 17  2  0  0  0  0
 23 22  1  0  0  0  0
 25 24  1  1  0  0  0
 25  1  1  0  0  0  0
 25 26  1  0  0  0  0
 26 29  1  0  0  0  0
 27 26  1  0  0  0  0
 28 24  1  0  0  0  0
 28 27  1  0  0  0  0
 29 30  1  0  0  0  0
 30 31  1  0  0  0  0
 31 32  1  0  0  0  0
M  END
>  <MODEL>
5

>  <REMARK>
 VINA RESULT:      -3.8      1.621      5.289
  Name = 
  6 active torsions:
  status: ('A' for Active; 'I' for Inactive)
    1  A    between atoms: C_1  and  C_5
    2  A    between atoms: C_13  and  C_18
    3  A    between atoms: N_14  and  C_29
    4  A    between atoms: O_15  and  C_26
    5  A    between atoms: C_16  and  C_27
    6  A    between atoms: C_18  and  C_29
                            x       y       z     vdW  Elec       q    Type
                         _______ _______ _______ _____ _____    ______ ____

>  <TORSDO>
F 6

$$$$
=
 OpenBabel11062408273D

 32 36  0  0  1  0  0  0  0  0999 V2000
  160.7640  209.5310  151.1420 C   0  0  1  0  0  3  0  0  0  0  0  0
  161.4950  209.7890  153.3630 C   0  0  0  0  0  0  0  0  0  0  0  0
  160.4590  207.6660  152.9170 C   0  0  0  0  0  3  0  0  0  0  0  0
  162.6240  209.8120  156.8670 N   0  0  0  0  0  2  0  0  0  0  0  0
  160.8730  208.9280  152.4980 C   0  0  0  0  0  0  0  0  0  0  0  0
  161.5530  207.7090  156.3480 C   0  0  0  0  0  3  0  0  0  0  0  0
  161.3330  208.1280  155.0950 C   0  0  0  0  0  0  0  0  0  0  0  0
  160.7010  207.2980  154.2110 N   0  0  0  0  0  0  0  0  0  0  0  0
  161.8140  211.0240  152.7440 N   0  0  0  0  0  2  0  0  0  0  0  0
  161.3340  210.9620  151.3580 C   0  0  2  0  0  3  0  0  0  0  0  0
  161.7510  209.4210  154.6870 C   0  0  0  0  0  0  0  0  0  0  0  0
  162.2130  208.5500  157.2540 O   0  0  0  0  0  0  0  0  0  0  0  0
  162.3770  210.2510  155.5290 C   0  0  0  0  0  3  0  0  0  0  0  0
  159.2280  213.6930  149.7140 C   0  0  0  0  0  0  0  0  0  0  0  0
  159.1920  214.4480  148.5510 O   0  0  0  0  0  1  0  0  0  0  0  0
  160.2650  211.9950  151.1160 C   0  0  0  0  0  0  0  0  0  0  0  0
  158.2110  213.8490  150.6570 C   0  0  0  0  0  3  0  0  0  0  0  0
  159.2250  212.1530  152.0470 C   0  0  0  0  0  3  0  0  0  0  0  0
  160.2640  212.7750  149.9410 C   0  0  0  0  0  0  0  0  0  0  0  0
  161.3340  212.5980  148.9110 C   0  0  0  0  0  1  0  0  0  0  0  0
  158.2020  213.0830  151.8240 C   0  0  0  0  0  0  0  0  0  0  0  0
  157.3900  213.5450  154.1140 C   0  0  0  0  0  1  0  0  0  0  0  0
  157.1570  213.2550  152.7410 O   0  0  0  0  0  0  0  0  0  0  0  0
  162.3310  209.3310  149.2230 C   0  0  0  0  0  2  0  0  0  0  0  0
  161.6010  208.7680  150.1460 C   0  0  2  0  0  3  0  0  0  0  0  0
  161.6190  207.3600  149.9690 N   0  0  0  0  0  0  0  0  0  0  0  0
  162.5550  206.9990  149.0550 O   0  0  0  0  0  0  0  0  0  0  0  0
  162.8670  208.2110  148.3930 C   0  0  0  0  0  2  0  0  0  0  0  0
  160.4500  206.5200  150.1890 C   0  0  0  0  0  2  0  0  0  0  0  0
  160.8300  205.0490  150.0710 C   0  0  0  0  0  2  0  0  0  0  0  0
  161.5720  204.5620  151.3100 C   0  0  0  0  0  2  0  0  0  0  0  0
  161.1350  203.1390  151.6450 C   0  0  0  0  0  1  0  0  0  0  0  0
  1 10  1  0  0  0  0
  1  5  1  1  0  0  0
  2 11  1  0  0  0  0
  3  8  2  0  0  0  0
  4 12  1  0  0  0  0
  5  3  1  0  0  0  0
  5  2  2  0  0  0  0
  6 12  1  0  0  0  0
  7  6  2  0  0  0  0
  8  7  1  0  0  0  0
  9  2  1  0  0  0  0
 10 16  1  1  0  0  0
 10  9  1  0  0  0  0
 11  7  1  0  0  0  0
 11 13  2  0  0  0  0
 13  4  1  0  0  0  0
 14 19  2  0  0  0  0
 14 17  1  0  0  0  0
 15 14  1  0  0  0  0
 16 18  2  0  0  0  0
 17 21  2  0  0  0  0
 19 16  1  0  0  0  0
 20 19  1  0  0  0  0
 21 18  1  0  0  0  0
 21 23  1  0  0  0  0
 23 22  1  0  0  0  0
 25 24  1  6  0  0  0
 25  1  1  0  0  0  0
 26 25  1  0  0  0  0
 26 29  1  0  0  0  0
 27 26  1  0  0  0  0
 28 27  1  0  0  0  0
 28 24  1  0  0  0  0
 30 29  1  0  0  0  0
 30 31  1  0  0  0  0
 31 32  1  0  0  0  0
M  END
>  <MODEL>
6

>  <REMARK>
 VINA RESULT:      -3.6      2.154      7.080
  Name = 
  6 active torsions:
  status: ('A' for Active; 'I' for Inactive)
    1  A    between atoms: C_1  and  C_5
    2  A    between atoms: C_13  and  C_18
    3  A    between atoms: N_14  and  C_29
    4  A    between atoms: O_15  and  C_26
    5  A    between atoms: C_16  and  C_27
    6  A    between atoms: C_18  and  C_29
                            x       y       z     vdW  Elec       q    Type
                         _______ _______ _______ _____ _____    ______ ____

>  <TORSDO>
F 6

$$$$
