=
 OpenBabel11062407573D

 34 39  0  0  1  0  0  0  0  0999 V2000
  161.0730  204.5970  150.8920 C   0  0  0  0  0  0  0  0  0  0  0  0
  161.3890  206.2120  149.0690 C   0  0  0  0  0  0  0  0  0  0  0  0
  161.2290  206.9480  151.3800 N   0  0  0  0  0  0  0  0  0  0  0  0
  161.4850  209.3030  151.7330 C   0  0  0  0  0  0  0  0  0  0  0  0
  161.2260  203.8360  148.5920 C   0  0  0  0  0  3  0  0  0  0  0  0
  161.3890  205.1630  148.1430 C   0  0  0  0  0  3  0  0  0  0  0  0
  161.5320  208.4940  149.6540 C   0  0  0  0  0  0  0  0  0  0  0  0
  161.2210  205.8960  150.4330 C   0  0  0  0  0  0  0  0  0  0  0  0
  161.7670  210.4910  150.8530 C   0  0  0  0  0  3  0  0  0  0  0  0
  161.0700  203.5510  149.9640 C   0  0  0  0  0  2  0  0  0  0  0  0
  160.9770  205.4070  153.1170 N   0  0  0  0  0  0  0  0  0  0  0  0
  160.9460  204.3920  152.2370 N   0  0  0  0  0  0  0  0  0  0  0  0
  161.5580  207.5250  148.6900 N   0  0  0  0  0  0  0  0  0  0  0  0
  161.4190  209.1520  153.0600 C   0  0  0  0  0  3  0  0  0  0  0  0
  161.1980  207.7510  153.5860 C   0  0  0  0  0  0  0  0  0  0  0  0
  161.7480  209.8950  149.4910 N   0  0  0  0  0  0  0  0  0  0  0  0
  161.3600  208.1770  150.9280 N   0  0  0  0  0  0  0  0  0  0  0  0
  161.1300  206.7040  152.7110 C   0  0  0  0  0  0  0  0  0  0  0  0
  159.7660  210.0550  156.4270 C   0  0  0  0  0  3  0  0  0  0  0  0
  160.9000  209.8430  157.2280 O   0  0  0  0  0  0  0  0  0  0  0  0
  161.0670  207.5210  155.0630 C   0  0  2  0  0  3  0  0  0  0  0  0
  161.6650  208.6400  157.2590 C   0  0  0  0  0  2  0  0  0  0  0  0
  159.6240  207.7020  155.5570 C   0  0  0  0  0  2  0  0  0  0  0  0
  162.1360  208.2820  155.8560 C   0  0  0  0  0  2  0  0  0  0  0  0
  159.1850  209.1330  155.6530 C   0  0  0  0  0  3  0  0  0  0  0  0
  162.3790  210.4850  148.3210 C   0  0  0  0  0  2  0  0  0  0  0  0
  162.5560  211.9810  148.5160 C   0  0  0  0  0  2  0  0  0  0  0  0
  161.9440  212.7370  147.3550 C   0  0  0  0  0  2  0  0  0  0  0  0
  160.6590  212.1530  147.0070 N   0  0  0  0  0  2  0  0  0  0  0  0
  161.0830  213.8440  144.9870 O   0  0  0  0  0  0  0  0  0  0  0  0
  158.9220  214.2790  146.3880 O   0  0  0  0  0  1  0  0  0  0  0  0
  159.9710  213.1300  145.7230 P   0  0  2  0  0  0  0  0  0  0  0  0
  159.9800  211.8470  143.6940 O   0  0  0  0  0  1  0  0  0  0  0  0
  159.1140  212.1490  144.6390 O   0  0  0  0  0  0  0  0  0  0  0  0
  1 12  2  0  0  0  0
  2  8  2  0  0  0  0
  3 18  1  0  0  0  0
  4 14  1  0  0  0  0
  5 10  1  0  0  0  0
  6  5  2  0  0  0  0
  6  2  1  0  0  0  0
  7 17  1  0  0  0  0
  8  1  1  0  0  0  0
  8  3  1  0  0  0  0
  9  4  2  0  0  0  0
 10  1  1  0  0  0  0
 12 11  1  0  0  0  0
 13  2  1  0  0  0  0
 13  7  2  0  0  0  0
 14 15  2  0  0  0  0
 16  7  1  0  0  0  0
 16  9  1  0  0  0  0
 17  3  1  0  0  0  0
 17  4  1  0  0  0  0
 18 11  2  0  0  0  0
 18 15  1  0  0  0  0
 19 20  1  0  0  0  0
 20 22  1  0  0  0  0
 21 15  1  6  0  0  0
 21 23  1  0  0  0  0
 21 24  1  0  0  0  0
 23 25  1  0  0  0  0
 24 22  1  0  0  0  0
 25 19  2  0  0  0  0
 26 27  1  0  0  0  0
 26 16  1  0  0  0  0
 28 27  1  0  0  0  0
 29 28  1  0  0  0  0
 32 30  2  6  0  0  0
 32 31  1  0  0  0  0
 32 29  1  0  0  0  0
 33 34  1  0  0  0  0
 34 32  1  0  0  0  0
M  END
>  <MODEL>
1

>  <REMARK>
 VINA RESULT:      -7.6      0.000      0.000
  Name = 
  7 active torsions:
  status: ('A' for Active; 'I' for Inactive)
    1  A    between atoms: C_3  and  C_13
    2  A    between atoms: C_3  and  C_17
    3  A    between atoms: C_12  and  C_28
    4  A    between atoms: C_13  and  N_33
    5  A    between atoms: O_14  and  P_34
    6  A    between atoms: C_17  and  N_29
    7  A    between atoms: N_33  and  P_34
                            x       y       z     vdW  Elec       q    Type
                         _______ _______ _______ _____ _____    ______ ____

>  <TORSDO>
F 7

$$$$
=
 OpenBabel11062407573D

 34 39  0  0  1  0  0  0  0  0999 V2000
  161.8870  210.0590  150.9820 C   0  0  0  0  0  0  0  0  0  0  0  0
  161.6510  207.9400  149.7630 C   0  0  0  0  0  0  0  0  0  0  0  0
  161.5100  208.0120  152.1890 N   0  0  0  0  0  0  0  0  0  0  0  0
  161.0480  205.9190  153.2580 C   0  0  0  0  0  0  0  0  0  0  0  0
  162.0360  210.0140  148.5590 C   0  0  0  0  0  3  0  0  0  0  0  0
  161.8250  208.6190  148.5530 C   0  0  0  0  0  3  0  0  0  0  0  0
  161.2810  205.9900  151.0400 C   0  0  0  0  0  0  0  0  0  0  0  0
  161.6950  208.6870  150.9590 C   0  0  0  0  0  0  0  0  0  0  0  0
  160.7750  204.5160  152.7870 C   0  0  0  0  0  3  0  0  0  0  0  0
  162.0640  210.7350  149.7710 C   0  0  0  0  0  2  0  0  0  0  0  0
  161.6870  210.0340  153.3440 N   0  0  0  0  0  0  0  0  0  0  0  0
  161.8850  210.6970  152.1900 N   0  0  0  0  0  0  0  0  0  0  0  0
  161.4280  206.5820  149.8160 N   0  0  0  0  0  0  0  0  0  0  0  0
  160.9820  206.5020  154.4600 C   0  0  0  0  0  3  0  0  0  0  0  0
  161.2480  207.9900  154.5220 C   0  0  0  0  0  0  0  0  0  0  0  0
  160.9820  204.6230  151.3190 N   0  0  0  0  0  0  0  0  0  0  0  0
  161.3380  206.7070  152.1510 N   0  0  0  0  0  0  0  0  0  0  0  0
  161.4840  208.6830  153.3680 C   0  0  0  0  0  0  0  0  0  0  0  0
  159.5450  211.3540  155.6280 C   0  0  0  0  0  3  0  0  0  0  0  0
  160.7380  211.8140  156.2090 O   0  0  0  0  0  0  0  0  0  0  0  0
  161.2370  208.6950  155.8460 C   0  0  2  0  0  3  0  0  0  0  0  0
  161.7190  210.9840  156.8270 C   0  0  0  0  0  2  0  0  0  0  0  0
  159.8130  208.9630  156.3540 C   0  0  0  0  0  2  0  0  0  0  0  0
  162.1790  209.9040  155.8560 C   0  0  0  0  0  2  0  0  0  0  0  0
  159.1140  210.0890  155.6520 C   0  0  0  0  0  3  0  0  0  0  0  0
  160.4380  203.6970  150.3370 C   0  0  0  0  0  2  0  0  0  0  0  0
  161.5580  203.0690  149.5280 C   0  0  0  0  0  2  0  0  0  0  0  0
  161.2210  203.1050  148.0500 C   0  0  0  0  0  2  0  0  0  0  0  0
  161.5110  204.4230  147.5100 N   0  0  0  0  0  2  0  0  0  0  0  0
  161.1120  202.9110  145.3480 O   0  0  0  0  0  1  0  0  0  0  0  0
  163.3020  204.3330  145.3410 O   0  0  0  0  0  0  0  0  0  0  0  0
  161.6670  204.2520  145.7720 P   0  0  2  0  0  0  0  0  0  0  0  0
  160.3840  206.2730  145.9500 O   0  0  0  0  0  1  0  0  0  0  0  0
  160.8180  205.4900  144.9850 O   0  0  0  0  0  0  0  0  0  0  0  0
  1 12  2  0  0  0  0
  2 13  1  0  0  0  0
  2  8  2  0  0  0  0
  3 18  1  0  0  0  0
  4 14  1  0  0  0  0
  5 10  1  0  0  0  0
  6  5  2  0  0  0  0
  6  2  1  0  0  0  0
  7 16  1  0  0  0  0
  7 17  1  0  0  0  0
  8  1  1  0  0  0  0
  8  3  1  0  0  0  0
  9  4  2  0  0  0  0
 10  1  1  0  0  0  0
 11 18  2  0  0  0  0
 12 11  1  0  0  0  0
 13  7  2  0  0  0  0
 14 15  2  0  0  0  0
 16  9  1  0  0  0  0
 17  3  1  0  0  0  0
 17  4  1  0  0  0  0
 18 15  1  0  0  0  0
 19 25  2  0  0  0  0
 19 20  1  0  0  0  0
 20 22  1  0  0  0  0
 21 15  1  6  0  0  0
 21 24  1  0  0  0  0
 21 23  1  0  0  0  0
 24 22  1  0  0  0  0
 25 23  1  0  0  0  0
 26 16  1  0  0  0  0
 27 26  1  0  0  0  0
 28 27  1  0  0  0  0
 29 28  1  0  0  0  0
 30 32  1  0  0  0  0
 32 31  2  6  0  0  0
 32 29  1  0  0  0  0
 34 32  1  0  0  0  0
 34 33  1  0  0  0  0
M  END
>  <MODEL>
2

>  <REMARK>
 VINA RESULT:      -7.5      3.344      5.531
  Name = 
  7 active torsions:
  status: ('A' for Active; 'I' for Inactive)
    1  A    between atoms: C_3  and  C_13
    2  A    between atoms: C_3  and  C_17
    3  A    between atoms: C_12  and  C_28
    4  A    between atoms: C_13  and  N_33
    5  A    between atoms: O_14  and  P_34
    6  A    between atoms: C_17  and  N_29
    7  A    between atoms: N_33  and  P_34
                            x       y       z     vdW  Elec       q    Type
                         _______ _______ _______ _____ _____    ______ ____

>  <TORSDO>
F 7

$$$$
=
 OpenBabel11062407573D

 34 39  0  0  1  0  0  0  0  0999 V2000
  161.2360  205.6810  152.4700 C   0  0  0  0  0  0  0  0  0  0  0  0
  161.2940  208.1360  152.5190 C   0  0  0  0  0  0  0  0  0  0  0  0
  161.7450  206.9130  150.4670 N   0  0  0  0  0  0  0  0  0  0  0  0
  162.1540  208.2610  148.5300 C   0  0  0  0  0  0  0  0  0  0  0  0
  160.7860  206.8780  154.5330 C   0  0  0  0  0  3  0  0  0  0  0  0
  160.9710  208.1140  153.8800 C   0  0  0  0  0  3  0  0  0  0  0  0
  161.8010  209.2480  150.5000 C   0  0  0  0  0  0  0  0  0  0  0  0
  161.4270  206.9030  151.8460 C   0  0  2  0  0  3  0  0  0  0  0  0
  162.1680  209.7380  148.2400 C   0  0  0  0  0  3  0  0  0  0  0  0
  160.9150  205.6620  153.8310 C   0  0  0  0  0  3  0  0  0  0  0  0
  161.6410  204.5800  150.4100 N   0  0  0  0  0  0  0  0  0  0  0  0
  161.3580  204.5430  151.7240 N   0  0  0  0  0  0  0  0  0  0  0  0
  161.4730  209.3120  151.8260 N   0  0  0  0  0  0  0  0  0  0  0  0
  162.2310  207.1820  147.7450 C   0  0  0  0  0  3  0  0  0  0  0  0
  162.0850  205.8310  148.4110 C   0  0  0  0  0  0  0  0  0  0  0  0
  161.9680  210.3330  149.5880 N   0  0  0  0  0  0  0  0  0  0  0  0
  161.9340  208.0810  149.8900 N   0  0  0  0  0  0  0  0  0  0  0  0
  161.8300  205.7630  149.7510 C   0  0  0  0  0  0  0  0  0  0  0  0
  161.4460  205.1850  144.5890 C   0  0  0  0  0  3  0  0  0  0  0  0
  160.6560  204.0580  144.8700 O   0  0  0  0  0  0  0  0  0  0  0  0
  162.2110  204.5790  147.5930 C   0  0  2  0  0  3  0  0  0  0  0  0
  160.8510  203.1780  145.9740 C   0  0  0  0  0  2  0  0  0  0  0  0
  163.1460  204.7600  146.3890 C   0  0  0  0  0  2  0  0  0  0  0  0
  160.8420  203.9640  147.2790 C   0  0  0  0  0  2  0  0  0  0  0  0
  162.5470  205.5410  145.2580 C   0  0  0  0  0  3  0  0  0  0  0  0
  161.4720  211.6790  149.8330 C   0  0  0  0  0  2  0  0  0  0  0  0
  161.9020  212.6100  148.7130 C   0  0  0  0  0  2  0  0  0  0  0  0
  160.6870  213.1800  148.0090 C   0  0  0  0  0  2  0  0  0  0  0  0
  161.1040  214.1470  147.0070 N   0  0  0  0  0  2  0  0  0  0  0  0
  159.8100  214.4430  144.6920 O   0  0  0  0  0  0  0  0  0  0  0  0
  159.8840  212.0100  145.6390 O   0  0  0  0  0  1  0  0  0  0  0  0
  160.7040  213.4770  145.4360 P   0  0  2  0  0  0  0  0  0  0  0  0
  161.7370  212.4690  143.5180 O   0  0  0  0  0  1  0  0  0  0  0  0
  162.1170  213.2080  144.5390 O   0  0  0  0  0  0  0  0  0  0  0  0
  1 10  1  0  0  0  0
  2  6  2  0  0  0  0
  3  8  1  0  0  0  0
  4 17  1  0  0  0  0
  6  5  1  0  0  0  0
  7 13  2  0  0  0  0
  8  1  1  6  0  0  0
  8  2  1  0  0  0  0
  9  4  2  0  0  0  0
  9 16  1  0  0  0  0
 10  5  2  0  0  0  0
 11 12  1  0  0  0  0
 12  1  2  0  0  0  0
 13  2  1  0  0  0  0
 14 15  2  0  0  0  0
 14  4  1  0  0  0  0
 15 18  1  0  0  0  0
 16 26  1  0  0  0  0
 16  7  1  0  0  0  0
 17  3  1  0  0  0  0
 17  7  1  0  0  0  0
 18 11  2  0  0  0  0
 18  3  1  0  0  0  0
 19 20  1  0  0  0  0
 19 25  2  0  0  0  0
 20 22  1  0  0  0  0
 21 15  1  6  0  0  0
 22 24  1  0  0  0  0
 23 21  1  0  0  0  0
 24 21  1  0  0  0  0
 25 23  1  0  0  0  0
 27 26  1  0  0  0  0
 28 27  1  0  0  0  0
 29 28  1  0  0  0  0
 32 30  2  6  0  0  0
 32 31  1  0  0  0  0
 32 29  1  0  0  0  0
 33 34  1  0  0  0  0
 34 32  1  0  0  0  0
M  END
>  <MODEL>
3

>  <REMARK>
 VINA RESULT:      -7.2      2.582      5.918
  Name = 
  7 active torsions:
  status: ('A' for Active; 'I' for Inactive)
    1  A    between atoms: C_3  and  C_13
    2  A    between atoms: C_3  and  C_17
    3  A    between atoms: C_12  and  C_28
    4  A    between atoms: C_13  and  N_33
    5  A    between atoms: O_14  and  P_34
    6  A    between atoms: C_17  and  N_29
    7  A    between atoms: N_33  and  P_34
                            x       y       z     vdW  Elec       q    Type
                         _______ _______ _______ _____ _____    ______ ____

>  <TORSDO>
F 7

$$$$
=
 OpenBabel11062407573D

 34 39  0  0  1  0  0  0  0  0999 V2000
  161.8200  210.1270  151.0500 C   0  0  0  0  0  0  0  0  0  0  0  0
  161.7780  208.0660  149.7150 C   0  0  0  0  0  0  0  0  0  0  0  0
  161.5510  207.9960  152.1350 N   0  0  0  0  0  0  0  0  0  0  0  0
  161.2060  205.8210  153.0760 C   0  0  0  0  0  0  0  0  0  0  0  0
  162.0520  210.2240  148.6360 C   0  0  0  0  0  3  0  0  0  0  0  0
  161.9430  208.8210  148.5490 C   0  0  0  0  0  3  0  0  0  0  0  0
  161.5070  206.0280  150.8750 C   0  0  0  0  0  0  0  0  0  0  0  0
  161.7280  208.7480  150.9490 C   0  0  0  0  0  0  0  0  0  0  0  0
  161.0510  204.4300  152.5230 C   0  0  0  0  0  3  0  0  0  0  0  0
  161.9880  210.8780  149.8830 C   0  0  0  0  0  2  0  0  0  0  0  0
  161.5430  209.9600  153.3980 N   0  0  0  0  0  0  0  0  0  0  0  0
  161.7310  210.6960  152.2890 N   0  0  0  0  0  0  0  0  0  0  0  0
  161.6520  206.6950  149.6900 N   0  0  0  0  0  0  0  0  0  0  0  0
  161.0590  206.3320  154.3030 C   0  0  0  0  0  3  0  0  0  0  0  0
  161.2130  207.8290  154.4520 C   0  0  0  0  0  0  0  0  0  0  0  0
  161.2990  204.6300  151.0710 N   0  0  0  0  0  0  0  0  0  0  0  0
  161.4760  206.6870  152.0230 N   0  0  0  0  0  0  0  0  0  0  0  0
  161.4380  208.5980  153.3450 C   0  0  0  0  0  0  0  0  0  0  0  0
  159.3730  211.0930  155.6340 C   0  0  0  0  0  3  0  0  0  0  0  0
  160.5180  211.5420  156.3110 O   0  0  0  0  0  0  0  0  0  0  0  0
  161.1080  208.4590  155.8100 C   0  0  2  0  0  3  0  0  0  0  0  0
  161.4790  210.6980  156.9420 C   0  0  0  0  0  2  0  0  0  0  0  0
  159.6500  208.6710  156.2440 C   0  0  0  0  0  2  0  0  0  0  0  0
  162.0200  209.6830  155.9430 C   0  0  0  0  0  2  0  0  0  0  0  0
  158.9690  209.8210  155.5630 C   0  0  0  0  0  3  0  0  0  0  0  0
  160.8560  203.7240  150.0230 C   0  0  0  0  0  2  0  0  0  0  0  0
  160.8310  202.2950  150.5390 C   0  0  0  0  0  2  0  0  0  0  0  0
  160.8720  201.3190  149.3800 C   0  0  0  0  0  2  0  0  0  0  0  0
  159.9670  201.7600  148.3310 N   0  0  0  0  0  2  0  0  0  0  0  0
  159.8160  201.6630  145.6690 O   0  0  0  0  0  0  0  0  0  0  0  0
  161.5830  200.0770  146.7560 O   0  0  0  0  0  1  0  0  0  0  0  0
  160.8110  201.5830  146.8040 P   0  0  2  0  0  0  0  0  0  0  0  0
  161.4900  203.5970  145.6890 O   0  0  0  0  0  1  0  0  0  0  0  0
  161.9670  202.8110  146.6310 O   0  0  0  0  0  0  0  0  0  0  0  0
  1 12  2  0  0  0  0
  2  8  2  0  0  0  0
  3 18  1  0  0  0  0
  4 14  1  0  0  0  0
  5 10  1  0  0  0  0
  6  5  2  0  0  0  0
  6  2  1  0  0  0  0
  7 16  1  0  0  0  0
  7 17  1  0  0  0  0
  8  1  1  0  0  0  0
  8  3  1  0  0  0  0
  9  4  2  0  0  0  0
 10  1  1  0  0  0  0
 12 11  1  0  0  0  0
 13  2  1  0  0  0  0
 13  7  2  0  0  0  0
 14 15  2  0  0  0  0
 16  9  1  0  0  0  0
 17  3  1  0  0  0  0
 17  4  1  0  0  0  0
 18 11  2  0  0  0  0
 18 15  1  0  0  0  0
 19 20  1  0  0  0  0
 20 22  1  0  0  0  0
 21 15  1  6  0  0  0
 21 24  1  0  0  0  0
 21 23  1  0  0  0  0
 24 22  1  0  0  0  0
 25 19  2  0  0  0  0
 25 23  1  0  0  0  0
 26 27  1  0  0  0  0
 26 16  1  0  0  0  0
 28 27  1  0  0  0  0
 29 28  1  0  0  0  0
 31 32  1  0  0  0  0
 32 30  2  6  0  0  0
 32 29  1  0  0  0  0
 33 34  1  0  0  0  0
 34 32  1  0  0  0  0
M  END
>  <MODEL>
4

>  <REMARK>
 VINA RESULT:      -7.0      4.339      6.440
  Name = 
  7 active torsions:
  status: ('A' for Active; 'I' for Inactive)
    1  A    between atoms: C_3  and  C_13
    2  A    between atoms: C_3  and  C_17
    3  A    between atoms: C_12  and  C_28
    4  A    between atoms: C_13  and  N_33
    5  A    between atoms: O_14  and  P_34
    6  A    between atoms: C_17  and  N_29
    7  A    between atoms: N_33  and  P_34
                            x       y       z     vdW  Elec       q    Type
                         _______ _______ _______ _____ _____    ______ ____

>  <TORSDO>
F 7

$$$$
=
 OpenBabel11062407573D

 34 39  0  0  1  0  0  0  0  0999 V2000
  160.7960  213.6350  149.6300 C   0  0  0  0  0  0  0  0  0  0  0  0
  162.0030  211.5710  149.0720 C   0  0  0  0  0  0  0  0  0  0  0  0
  160.7320  211.7590  151.1350 N   0  0  0  0  0  0  0  0  0  0  0  0
  160.6820  209.7910  152.5000 C   0  0  0  0  0  0  0  0  0  0  0  0
  162.0620  213.4740  147.5650 C   0  0  0  0  0  3  0  0  0  0  0  0
  162.4420  212.1530  147.8780 C   0  0  0  0  0  3  0  0  0  0  0  0
  161.8740  209.7880  150.6140 C   0  0  0  0  0  0  0  0  0  0  0  0
  161.1890  212.3400  149.9280 C   0  0  0  0  0  0  0  0  0  0  0  0
  161.2320  208.3950  152.3820 C   0  0  0  0  0  3  0  0  0  0  0  0
  161.2390  214.2150  148.4370 C   0  0  0  0  0  2  0  0  0  0  0  0
  159.5440  213.7060  151.6420 N   0  0  0  0  0  0  0  0  0  0  0  0
  159.9820  214.2880  150.5110 N   0  0  0  0  0  0  0  0  0  0  0  0
  162.3310  210.2800  149.4220 N   0  0  0  0  0  0  0  0  0  0  0  0
  159.8420  210.3660  153.3670 C   0  0  0  0  0  3  0  0  0  0  0  0
  159.4430  211.8000  153.0970 C   0  0  0  0  0  0  0  0  0  0  0  0
  162.0400  208.4710  151.1370 N   0  0  0  0  0  0  0  0  0  0  0  0
  161.1220  210.5320  151.4090 N   0  0  0  0  0  0  0  0  0  0  0  0
  159.9000  212.4280  151.9730 C   0  0  0  0  0  0  0  0  0  0  0  0
  159.2420  211.6630  157.0180 C   0  0  0  0  0  3  0  0  0  0  0  0
  157.8510  211.4730  156.9810 O   0  0  0  0  0  0  0  0  0  0  0  0
  158.5420  212.5170  154.0590 C   0  0  2  0  0  3  0  0  0  0  0  0
  156.9780  212.0150  155.9920 C   0  0  0  0  0  2  0  0  0  0  0  0
  159.3270  213.3050  155.1180 C   0  0  0  0  0  2  0  0  0  0  0  0
  157.4410  211.6000  154.6020 C   0  0  0  0  0  2  0  0  0  0  0  0
  159.9350  212.4510  156.1910 C   0  0  0  0  0  3  0  0  0  0  0  0
  162.4260  207.3230  150.3300 C   0  0  0  0  0  2  0  0  0  0  0  0
  161.1990  206.5220  149.9340 C   0  0  0  0  0  2  0  0  0  0  0  0
  160.9270  206.6790  148.4510 C   0  0  0  0  0  2  0  0  0  0  0  0
  162.1620  206.5140  147.7020 N   0  0  0  0  0  2  0  0  0  0  0  0
  161.4950  203.9360  147.5240 O   0  0  0  0  0  1  0  0  0  0  0  0
  163.4550  204.7030  145.9780 O   0  0  0  0  0  0  0  0  0  0  0  0
  161.9680  205.1000  146.6820 P   0  0  2  0  0  0  0  0  0  0  0  0
  161.1090  204.5430  144.5120 O   0  0  0  0  0  1  0  0  0  0  0  0
  160.8350  205.4120  145.4610 O   0  0  0  0  0  0  0  0  0  0  0  0
  1  8  1  0  0  0  0
  1 12  2  0  0  0  0
  2 13  1  0  0  0  0
  2  8  2  0  0  0  0
  3 17  1  0  0  0  0
  3 18  1  0  0  0  0
  4 14  1  0  0  0  0
  5  6  2  0  0  0  0
  5 10  1  0  0  0  0
  6  2  1  0  0  0  0
  7 16  1  0  0  0  0
  7 17  1  0  0  0  0
  8  3  1  0  0  0  0
  9  4  2  0  0  0  0
 10  1  1  0  0  0  0
 11 18  2  0  0  0  0
 12 11  1  0  0  0  0
 13  7  2  0  0  0  0
 15 14  2  0  0  0  0
 16  9  1  0  0  0  0
 17  4  1  0  0  0  0
 18 15  1  0  0  0  0
 20 19  1  0  0  0  0
 21 15  1  1  0  0  0
 21 24  1  0  0  0  0
 21 23  1  0  0  0  0
 22 20  1  0  0  0  0
 23 25  1  0  0  0  0
 24 22  1  0  0  0  0
 25 19  2  0  0  0  0
 26 16  1  0  0  0  0
 27 26  1  0  0  0  0
 28 27  1  0  0  0  0
 29 28  1  0  0  0  0
 32 31  2  6  0  0  0
 32 30  1  0  0  0  0
 32 29  1  0  0  0  0
 33 34  1  0  0  0  0
 34 32  1  0  0  0  0
M  END
>  <MODEL>
5

>  <REMARK>
 VINA RESULT:      -7.0      3.797      6.360
  Name = 
  7 active torsions:
  status: ('A' for Active; 'I' for Inactive)
    1  A    between atoms: C_3  and  C_13
    2  A    between atoms: C_3  and  C_17
    3  A    between atoms: C_12  and  C_28
    4  A    between atoms: C_13  and  N_33
    5  A    between atoms: O_14  and  P_34
    6  A    between atoms: C_17  and  N_29
    7  A    between atoms: N_33  and  P_34
                            x       y       z     vdW  Elec       q    Type
                         _______ _______ _______ _____ _____    ______ ____

>  <TORSDO>
F 7

$$$$
=
 OpenBabel11062407573D

 34 39  0  0  1  0  0  0  0  0999 V2000
  161.0340  206.1200  152.4960 C   0  0  0  0  0  0  0  0  0  0  0  0
  161.5630  208.5160  152.5970 C   0  0  0  0  0  0  0  0  0  0  0  0
  161.4060  207.3580  150.4660 N   0  0  0  0  0  0  0  0  0  0  0  0
  161.7140  208.7240  148.5230 C   0  0  0  0  0  0  0  0  0  0  0  0
  161.1890  207.2530  154.6380 C   0  0  0  0  0  3  0  0  0  0  0  0
  161.4860  208.4720  153.9940 C   0  0  0  0  0  3  0  0  0  0  0  0
  161.9070  209.6380  150.5490 C   0  0  0  0  0  0  0  0  0  0  0  0
  161.3400  207.3230  151.8800 C   0  0  2  0  0  3  0  0  0  0  0  0
  161.9560  210.1880  148.2750 C   0  0  0  0  0  3  0  0  0  0  0  0
  160.9600  206.0780  153.8920 C   0  0  0  0  0  3  0  0  0  0  0  0
  160.8550  205.0900  150.3690 N   0  0  0  0  0  0  0  0  0  0  0  0
  160.8050  205.0260  151.7110 N   0  0  0  0  0  0  0  0  0  0  0  0
  161.8360  209.6800  151.9140 N   0  0  0  0  0  0  0  0  0  0  0  0
  161.4470  207.6970  147.7100 C   0  0  0  0  0  3  0  0  0  0  0  0
  161.1680  206.3580  148.3550 C   0  0  0  0  0  0  0  0  0  0  0  0
  162.1130  210.7280  149.6510 N   0  0  0  0  0  0  0  0  0  0  0  0
  161.7070  208.5050  149.8960 N   0  0  0  0  0  0  0  0  0  0  0  0
  161.1440  206.2560  149.7180 C   0  0  0  0  0  0  0  0  0  0  0  0
  163.1180  204.9520  145.2480 C   0  0  0  0  0  3  0  0  0  0  0  0
  161.9330  204.8400  144.5030 O   0  0  0  0  0  0  0  0  0  0  0  0
  160.9080  205.1550  147.4960 C   0  0  2  0  0  3  0  0  0  0  0  0
  160.6500  204.5410  145.0490 C   0  0  0  0  0  2  0  0  0  0  0  0
  162.1180  204.2120  147.4310 C   0  0  0  0  0  2  0  0  0  0  0  0
  160.3000  205.5410  146.1430 C   0  0  0  0  0  2  0  0  0  0  0  0
  163.2330  204.7030  146.5570 C   0  0  0  0  0  3  0  0  0  0  0  0
  161.9310  212.1240  150.0180 C   0  0  0  0  0  2  0  0  0  0  0  0
  161.1680  212.8590  148.9300 C   0  0  0  0  0  2  0  0  0  0  0  0
  159.8490  213.3730  149.4710 C   0  0  0  0  0  2  0  0  0  0  0  0
  160.0450  213.9340  150.7980 N   0  0  0  0  0  2  0  0  0  0  0  0
  157.3870  213.7550  150.9570 O   0  0  0  0  0  0  0  0  0  0  0  0
  158.6040  214.4530  153.1600 O   0  0  0  0  0  1  0  0  0  0  0  0
  158.6430  213.5020  151.7600 P   0  0  2  0  0  0  0  0  0  0  0  0
  159.6150  211.8090  153.1550 O   0  0  0  0  0  1  0  0  0  0  0  0
  158.7160  211.8660  152.1950 O   0  0  0  0  0  0  0  0  0  0  0  0
  1 10  1  0  0  0  0
  2  6  2  0  0  0  0
  3  8  1  0  0  0  0
  4 17  1  0  0  0  0
  6  5  1  0  0  0  0
  7 13  2  0  0  0  0
  8  1  1  6  0  0  0
  8  2  1  0  0  0  0
  9  4  2  0  0  0  0
  9 16  1  0  0  0  0
 10  5  2  0  0  0  0
 11 12  1  0  0  0  0
 12  1  2  0  0  0  0
 13  2  1  0  0  0  0
 14 15  2  0  0  0  0
 14  4  1  0  0  0  0
 15 18  1  0  0  0  0
 16 26  1  0  0  0  0
 16  7  1  0  0  0  0
 17  3  1  0  0  0  0
 17  7  1  0  0  0  0
 18 11  2  0  0  0  0
 18  3  1  0  0  0  0
 19 25  2  0  0  0  0
 20 22  1  0  0  0  0
 20 19  1  0  0  0  0
 21 15  1  6  0  0  0
 22 24  1  0  0  0  0
 23 21  1  0  0  0  0
 24 21  1  0  0  0  0
 25 23  1  0  0  0  0
 27 28  1  0  0  0  0
 27 26  1  0  0  0  0
 28 29  1  0  0  0  0
 29 32  1  0  0  0  0
 32 30  2  6  0  0  0
 32 34  1  0  0  0  0
 32 31  1  0  0  0  0
 34 33  1  0  0  0  0
M  END
>  <MODEL>
6

>  <REMARK>
 VINA RESULT:      -6.7      3.042      6.559
  Name = 
  7 active torsions:
  status: ('A' for Active; 'I' for Inactive)
    1  A    between atoms: C_3  and  C_13
    2  A    between atoms: C_3  and  C_17
    3  A    between atoms: C_12  and  C_28
    4  A    between atoms: C_13  and  N_33
    5  A    between atoms: O_14  and  P_34
    6  A    between atoms: C_17  and  N_29
    7  A    between atoms: N_33  and  P_34
                            x       y       z     vdW  Elec       q    Type
                         _______ _______ _______ _____ _____    ______ ____

>  <TORSDO>
F 7

$$$$
=
 OpenBabel11062407573D

 34 39  0  0  1  0  0  0  0  0999 V2000
  161.3920  210.9090  150.7990 C   0  0  0  0  0  0  0  0  0  0  0  0
  161.9980  208.6370  150.0900 C   0  0  0  0  0  0  0  0  0  0  0  0
  161.2980  209.0910  152.3730 N   0  0  0  0  0  0  0  0  0  0  0  0
  161.1670  207.1810  153.8120 C   0  0  0  0  0  0  0  0  0  0  0  0
  162.0920  210.4830  148.5140 C   0  0  0  0  0  3  0  0  0  0  0  0
  162.2600  209.1120  148.8000 C   0  0  0  0  0  3  0  0  0  0  0  0
  161.8700  206.9250  151.7100 C   0  0  0  0  0  0  0  0  0  0  0  0
  161.5740  209.5620  151.0670 C   0  0  0  0  0  0  0  0  0  0  0  0
  161.3840  205.7010  153.6450 C   0  0  0  0  0  3  0  0  0  0  0  0
  161.6570  211.3810  149.5100 C   0  0  0  0  0  2  0  0  0  0  0  0
  160.6750  211.2440  153.0330 N   0  0  0  0  0  0  0  0  0  0  0  0
  160.9500  211.7190  151.8060 N   0  0  0  0  0  0  0  0  0  0  0  0
  162.1310  207.3080  150.4230 N   0  0  0  0  0  0  0  0  0  0  0  0
  160.6820  207.9200  154.8150 C   0  0  0  0  0  3  0  0  0  0  0  0
  160.5290  209.4050  154.5690 C   0  0  0  0  0  0  0  0  0  0  0  0
  161.8830  205.6040  152.2480 N   0  0  0  0  0  0  0  0  0  0  0  0
  161.4860  207.8110  152.6150 N   0  0  0  0  0  0  0  0  0  0  0  0
  160.8320  209.9210  153.3410 C   0  0  0  0  0  0  0  0  0  0  0  0
  158.1550  212.5330  154.4710 C   0  0  0  0  0  3  0  0  0  0  0  0
  159.0520  213.2890  155.2440 O   0  0  0  0  0  0  0  0  0  0  0  0
  160.0350  210.2960  155.6700 C   0  0  2  0  0  3  0  0  0  0  0  0
  159.9050  212.7600  156.2570 C   0  0  0  0  0  2  0  0  0  0  0  0
  158.5020  210.3770  155.7140 C   0  0  0  0  0  2  0  0  0  0  0  0
  160.7670  211.6430  155.6850 C   0  0  0  0  0  2  0  0  0  0  0  0
  157.9030  211.2310  154.6370 C   0  0  0  0  0  3  0  0  0  0  0  0
  161.8360  204.3980  151.4340 C   0  0  0  0  0  2  0  0  0  0  0  0
  160.5710  204.3810  150.5930 C   0  0  0  0  0  2  0  0  0  0  0  0
  160.9110  204.1070  149.1420 C   0  0  0  0  0  2  0  0  0  0  0  0
  160.6190  205.2810  148.3360 N   0  0  0  0  0  2  0  0  0  0  0  0
  162.6020  204.0590  147.0350 O   0  0  0  0  0  1  0  0  0  0  0  0
  162.3900  206.6270  146.6120 O   0  0  0  0  0  0  0  0  0  0  0  0
  161.5820  205.1640  146.8750 P   0  0  2  0  0  0  0  0  0  0  0  0
  160.7440  205.8500  144.7330 O   0  0  0  0  0  1  0  0  0  0  0  0
  160.5860  204.8260  145.5450 O   0  0  0  0  0  0  0  0  0  0  0  0
  1  8  1  0  0  0  0
  1 12  2  0  0  0  0
  2 13  1  0  0  0  0
  2  8  2  0  0  0  0
  3 17  1  0  0  0  0
  3 18  1  0  0  0  0
  4 14  1  0  0  0  0
  5  6  2  0  0  0  0
  5 10  1  0  0  0  0
  6  2  1  0  0  0  0
  7 16  1  0  0  0  0
  7 17  1  0  0  0  0
  8  3  1  0  0  0  0
  9  4  2  0  0  0  0
 10  1  1  0  0  0  0
 11 18  2  0  0  0  0
 12 11  1  0  0  0  0
 13  7  2  0  0  0  0
 15 14  2  0  0  0  0
 16  9  1  0  0  0  0
 17  4  1  0  0  0  0
 18 15  1  0  0  0  0
 19 25  2  0  0  0  0
 19 20  1  0  0  0  0
 20 22  1  0  0  0  0
 21 15  1  6  0  0  0
 21 24  1  0  0  0  0
 21 23  1  0  0  0  0
 24 22  1  0  0  0  0
 25 23  1  0  0  0  0
 26 16  1  0  0  0  0
 27 26  1  0  0  0  0
 28 27  1  0  0  0  0
 29 28  1  0  0  0  0
 32 31  2  6  0  0  0
 32 30  1  0  0  0  0
 32 29  1  0  0  0  0
 33 34  1  0  0  0  0
 34 32  1  0  0  0  0
M  END
>  <MODEL>
7

>  <REMARK>
 VINA RESULT:      -6.5      3.364      5.540
  Name = 
  7 active torsions:
  status: ('A' for Active; 'I' for Inactive)
    1  A    between atoms: C_3  and  C_13
    2  A    between atoms: C_3  and  C_17
    3  A    between atoms: C_12  and  C_28
    4  A    between atoms: C_13  and  N_33
    5  A    between atoms: O_14  and  P_34
    6  A    between atoms: C_17  and  N_29
    7  A    between atoms: N_33  and  P_34
                            x       y       z     vdW  Elec       q    Type
                         _______ _______ _______ _____ _____    ______ ____

>  <TORSDO>
F 7

$$$$
=
 OpenBabel11062407573D

 34 39  0  0  1  0  0  0  0  0999 V2000
  160.9280  205.2260  152.1430 C   0  0  0  0  0  0  0  0  0  0  0  0
  161.4920  207.5680  152.6240 C   0  0  0  0  0  0  0  0  0  0  0  0
  161.3350  206.7620  150.3360 N   0  0  0  0  0  0  0  0  0  0  0  0
  161.6800  208.4120  148.6350 C   0  0  0  0  0  0  0  0  0  0  0  0
  161.0830  206.0050  154.4370 C   0  0  0  0  0  3  0  0  0  0  0  0
  161.4030  207.3050  153.9950 C   0  0  0  0  0  3  0  0  0  0  0  0
  161.8700  208.9920  150.7800 C   0  0  0  0  0  0  0  0  0  0  0  0
  161.2570  206.5060  151.7260 C   0  0  2  0  0  3  0  0  0  0  0  0
  161.9460  209.8930  148.6210 C   0  0  0  0  0  3  0  0  0  0  0  0
  160.8430  204.9660  153.5140 C   0  0  0  0  0  3  0  0  0  0  0  0
  160.7510  204.5470  149.8790 N   0  0  0  0  0  0  0  0  0  0  0  0
  160.6900  204.2730  151.1940 N   0  0  0  0  0  0  0  0  0  0  0  0
  161.7880  208.8200  152.1350 N   0  0  0  0  0  0  0  0  0  0  0  0
  161.4030  207.5310  147.6680 C   0  0  0  0  0  3  0  0  0  0  0  0
  161.0990  206.1110  148.0920 C   0  0  0  0  0  0  0  0  0  0  0  0
  162.0990  210.2060  150.0660 N   0  0  0  0  0  0  0  0  0  0  0  0
  161.6580  207.9800  149.9550 N   0  0  0  0  0  0  0  0  0  0  0  0
  161.0630  205.7960  149.4220 C   0  0  0  0  0  0  0  0  0  0  0  0
  163.0800  205.1490  144.8390 C   0  0  0  0  0  3  0  0  0  0  0  0
  161.9090  205.1860  144.0650 O   0  0  0  0  0  0  0  0  0  0  0  0
  160.8290  205.0630  147.0530 C   0  0  2  0  0  3  0  0  0  0  0  0
  160.6070  204.8420  144.5360 C   0  0  0  0  0  2  0  0  0  0  0  0
  162.0160  204.1080  146.8640 C   0  0  0  0  0  2  0  0  0  0  0  0
  160.2590  205.6700  145.7660 C   0  0  0  0  0  2  0  0  0  0  0  0
  163.1610  204.6980  146.0950 C   0  0  0  0  0  3  0  0  0  0  0  0
  161.9350  211.5300  150.6480 C   0  0  0  0  0  2  0  0  0  0  0  0
  160.4620  211.8360  150.8530 C   0  0  0  0  0  2  0  0  0  0  0  0
  160.1730  212.0570  152.3250 C   0  0  0  0  0  2  0  0  0  0  0  0
  159.1750  211.1030  152.7800 N   0  0  0  0  0  2  0  0  0  0  0  0
  159.7850  212.5460  154.9410 O   0  0  0  0  0  0  0  0  0  0  0  0
  159.1460  210.0550  155.3930 O   0  0  0  0  0  1  0  0  0  0  0  0
  158.8600  211.4460  154.4720 P   0  0  2  0  0  0  0  0  0  0  0  0
  156.8650  211.3700  155.8040 O   0  0  0  0  0  1  0  0  0  0  0  0
  157.2500  211.9340  154.6780 O   0  0  0  0  0  0  0  0  0  0  0  0
  1 10  1  0  0  0  0
  2  6  2  0  0  0  0
  3  8  1  0  0  0  0
  4 17  1  0  0  0  0
  6  5  1  0  0  0  0
  7 13  2  0  0  0  0
  8  1  1  6  0  0  0
  8  2  1  0  0  0  0
  9  4  2  0  0  0  0
  9 16  1  0  0  0  0
 10  5  2  0  0  0  0
 11 12  1  0  0  0  0
 12  1  2  0  0  0  0
 13  2  1  0  0  0  0
 14 15  2  0  0  0  0
 14  4  1  0  0  0  0
 15 18  1  0  0  0  0
 16 26  1  0  0  0  0
 16  7  1  0  0  0  0
 17  3  1  0  0  0  0
 17  7  1  0  0  0  0
 18 11  2  0  0  0  0
 18  3  1  0  0  0  0
 19 25  2  0  0  0  0
 20 22  1  0  0  0  0
 20 19  1  0  0  0  0
 21 15  1  1  0  0  0
 22 24  1  0  0  0  0
 23 21  1  0  0  0  0
 24 21  1  0  0  0  0
 25 23  1  0  0  0  0
 26 27  1  0  0  0  0
 27 28  1  0  0  0  0
 28 29  1  0  0  0  0
 29 32  1  0  0  0  0
 32 34  1  0  0  0  0
 32 30  2  1  0  0  0
 32 31  1  0  0  0  0
 34 33  1  0  0  0  0
M  END
>  <MODEL>
8

>  <REMARK>
 VINA RESULT:      -6.5      3.674      7.284
  Name = 
  7 active torsions:
  status: ('A' for Active; 'I' for Inactive)
    1  A    between atoms: C_3  and  C_13
    2  A    between atoms: C_3  and  C_17
    3  A    between atoms: C_12  and  C_28
    4  A    between atoms: C_13  and  N_33
    5  A    between atoms: O_14  and  P_34
    6  A    between atoms: C_17  and  N_29
    7  A    between atoms: N_33  and  P_34
                            x       y       z     vdW  Elec       q    Type
                         _______ _______ _______ _____ _____    ______ ____

>  <TORSDO>
F 7

$$$$
=
 OpenBabel11062407573D

 34 39  0  0  1  0  0  0  0  0999 V2000
  160.2260  213.3630  150.6160 C   0  0  0  0  0  0  0  0  0  0  0  0
  161.3320  211.9500  148.9400 C   0  0  0  0  0  0  0  0  0  0  0  0
  161.0100  211.1700  151.2200 N   0  0  0  0  0  0  0  0  0  0  0  0
  161.7600  208.9400  151.6640 C   0  0  0  0  0  0  0  0  0  0  0  0
  160.5390  214.1670  148.3470 C   0  0  0  0  0  3  0  0  0  0  0  0
  161.1680  212.9580  147.9840 C   0  0  0  0  0  3  0  0  0  0  0  0
  162.0620  209.8150  149.6340 C   0  0  0  0  0  0  0  0  0  0  0  0
  160.8580  212.1870  150.2470 C   0  0  0  0  0  0  0  0  0  0  0  0
  162.3750  207.8360  150.8450 C   0  0  0  0  0  3  0  0  0  0  0  0
  160.0660  214.3710  149.6590 C   0  0  0  0  0  2  0  0  0  0  0  0
  159.9140  212.4970  152.8000 N   0  0  0  0  0  0  0  0  0  0  0  0
  159.7750  213.4860  151.9000 N   0  0  0  0  0  0  0  0  0  0  0  0
  161.9260  210.7440  148.6400 N   0  0  0  0  0  0  0  0  0  0  0  0
  161.2900  208.9870  152.9140 C   0  0  0  0  0  3  0  0  0  0  0  0
  160.6480  210.2820  153.3620 C   0  0  0  0  0  0  0  0  0  0  0  0
  162.5840  208.4910  149.5270 N   0  0  0  0  0  0  0  0  0  0  0  0
  161.6210  210.0620  150.8570 N   0  0  0  0  0  0  0  0  0  0  0  0
  160.5230  211.3160  152.4780 C   0  0  0  0  0  0  0  0  0  0  0  0
  162.4320  209.6340  156.8030 C   0  0  0  0  0  3  0  0  0  0  0  0
  161.3560  208.8560  157.2610 O   0  0  0  0  0  0  0  0  0  0  0  0
  160.1440  210.4170  154.7700 C   0  0  2  0  0  3  0  0  0  0  0  0
  159.9890  209.0650  156.9100 C   0  0  0  0  0  2  0  0  0  0  0  0
  161.0240  211.3460  155.6190 C   0  0  0  0  0  2  0  0  0  0  0  0
  159.8300  209.0530  155.3960 C   0  0  0  0  0  2  0  0  0  0  0  0
  162.3230  210.7340  156.0510 C   0  0  0  0  0  3  0  0  0  0  0  0
  162.7380  207.7820  148.2660 C   0  0  0  0  0  2  0  0  0  0  0  0
  161.5100  206.9330  147.9860 C   0  0  0  0  0  2  0  0  0  0  0  0
  161.9230  205.5520  147.5170 C   0  0  0  0  0  2  0  0  0  0  0  0
  160.8010  204.8950  146.8680 N   0  0  0  0  0  2  0  0  0  0  0  0
  162.7480  203.9790  145.2900 O   0  0  0  0  0  1  0  0  0  0  0  0
  161.2220  205.8210  144.2430 O   0  0  0  0  0  0  0  0  0  0  0  0
  161.3160  204.4620  145.2480 P   0  0  2  0  0  0  0  0  0  0  0  0
  160.6040  202.1730  145.3490 O   0  0  0  0  0  1  0  0  0  0  0  0
  160.3230  203.2370  144.6270 O   0  0  0  0  0  0  0  0  0  0  0  0
  1 12  2  0  0  0  0
  2  8  2  0  0  0  0
  3 18  1  0  0  0  0
  4 14  1  0  0  0  0
  5 10  1  0  0  0  0
  6  5  2  0  0  0  0
  6  2  1  0  0  0  0
  7 17  1  0  0  0  0
  8  1  1  0  0  0  0
  8  3  1  0  0  0  0
  9  4  2  0  0  0  0
 10  1  1  0  0  0  0
 12 11  1  0  0  0  0
 13  2  1  0  0  0  0
 13  7  2  0  0  0  0
 14 15  2  0  0  0  0
 16  7  1  0  0  0  0
 16  9  1  0  0  0  0
 17  3  1  0  0  0  0
 17  4  1  0  0  0  0
 18 11  2  0  0  0  0
 18 15  1  0  0  0  0
 19 20  1  0  0  0  0
 21 15  1  6  0  0  0
 21 24  1  0  0  0  0
 21 23  1  0  0  0  0
 22 20  1  0  0  0  0
 23 25  1  0  0  0  0
 24 22  1  0  0  0  0
 25 19  2  0  0  0  0
 26 16  1  0  0  0  0
 27 26  1  0  0  0  0
 28 27  1  0  0  0  0
 29 28  1  0  0  0  0
 32 31  2  6  0  0  0
 32 30  1  0  0  0  0
 32 29  1  0  0  0  0
 34 32  1  0  0  0  0
 34 33  1  0  0  0  0
M  END
>  <MODEL>
9

>  <REMARK>
 VINA RESULT:      -6.4      3.815      6.124
  Name = 
  7 active torsions:
  status: ('A' for Active; 'I' for Inactive)
    1  A    between atoms: C_3  and  C_13
    2  A    between atoms: C_3  and  C_17
    3  A    between atoms: C_12  and  C_28
    4  A    between atoms: C_13  and  N_33
    5  A    between atoms: O_14  and  P_34
    6  A    between atoms: C_17  and  N_29
    7  A    between atoms: N_33  and  P_34
                            x       y       z     vdW  Elec       q    Type
                         _______ _______ _______ _____ _____    ______ ____

>  <TORSDO>
F 7

$$$$
