=
 OpenBabel11052422203D

 25 28  0  0  1  0  0  0  0  0999 V2000
  160.8860  204.6350  150.4470 C   0  0  0  0  0  0  0  0  0  0  0  0
  161.0520  205.9440  149.9810 C   0  0  0  0  0  0  0  0  0  0  0  0
  161.4780  205.2520  152.7000 C   0  0  0  0  0  3  0  0  0  0  0  0
  160.4010  203.4160  149.7450 C   0  0  2  0  0  3  0  0  0  0  0  0
  161.9680  206.6540  147.7540 C   0  0  2  0  0  3  0  0  0  0  0  0
  161.0490  200.6310  149.3850 C   0  0  0  0  0  3  0  0  0  0  0  0
  161.6840  206.5670  152.2610 C   0  0  0  0  0  3  0  0  0  0  0  0
  160.4880  202.4250  150.8750 C   0  0  0  0  0  0  0  0  0  0  0  0
  160.5750  200.9910  150.5850 C   0  0  0  0  0  3  0  0  0  0  0  0
  161.7430  208.3130  150.5160 N   0  0  0  0  0  0  0  0  0  0  0  0
  162.0770  209.3130  151.5210 C   0  0  0  0  0  1  0  0  0  0  0  0
  160.7250  206.2490  148.5500 C   0  0  0  0  0  2  0  0  0  0  0  0
  161.5130  201.6520  148.4100 C   0  0  0  0  0  3  0  0  0  0  0  0
  161.0650  204.3100  151.7680 C   0  0  0  0  0  0  0  0  0  0  0  0
  160.8530  202.9300  152.0120 N   0  0  0  0  0  0  0  0  0  0  0  0
  161.7570  208.7730  149.1320 C   0  0  0  0  0  2  0  0  0  0  0  0
  161.2680  202.9590  148.6000 C   0  0  0  0  0  3  0  0  0  0  0  0
  162.6810  207.9020  148.2900 C   0  0  0  0  0  2  0  0  0  0  0  0
  161.4800  206.9410  150.9090 C   0  0  0  0  0  0  0  0  0  0  0  0
  161.6520  206.7820  146.2610 C   0  0  0  0  0  2  0  0  0  0  0  0
  163.1070  204.9460  145.8100 O   0  0  0  0  0  0  0  0  0  0  0  0
  162.0830  205.5890  145.4600 C   0  0  0  0  0  0  0  0  0  0  0  0
  161.3140  205.1570  144.2850 C   0  0  0  0  0  0  0  0  0  0  0  0
  160.4010  204.1140  144.3950 O   0  0  0  0  0  1  0  0  0  0  0  0
  161.4660  205.7340  143.1760 O   0  0  0  0  0  0  0  0  0  0  0  0
  1 14  1  0  0  0  0
  2  1  2  0  0  0  0
  2 19  1  0  0  0  0
  4 17  1  6  0  0  0
  4  1  1  0  0  0  0
  4  8  1  0  0  0  0
  5 20  1  6  0  0  0
  5 18  1  0  0  0  0
  5 12  1  0  0  0  0
  6  9  2  0  0  0  0
  7  3  1  0  0  0  0
  8 15  2  0  0  0  0
  9  8  1  0  0  0  0
 10 19  1  0  0  0  0
 10 11  1  0  0  0  0
 12  2  1  0  0  0  0
 13 17  2  0  0  0  0
 13  6  1  0  0  0  0
 14 15  1  0  0  0  0
 14  3  2  0  0  0  0
 16 10  1  0  0  0  0
 18 16  1  0  0  0  0
 19  7  2  0  0  0  0
 22 21  2  0  0  0  0
 22 20  1  0  0  0  0
 23 24  1  0  0  0  0
 23 22  1  0  0  0  0
 25 23  2  0  0  0  0
M  END
>  <MODEL>
1

>  <REMARK>
 VINA RESULT:      -9.7      0.000      0.000
  Name = 
  3 active torsions:
  status: ('A' for Active; 'I' for Inactive)
    1  A    between atoms: C_2  and  C_25
    2  A    between atoms: C_6  and  C_15
    3  A    between atoms: C_15  and  C_25
                            x       y       z     vdW  Elec       q    Type
                         _______ _______ _______ _____ _____    ______ ____

>  <TORSDO>
F 3

$$$$
=
 OpenBabel11052422203D

 25 28  0  0  1  0  0  0  0  0999 V2000
  161.6120  205.6200  149.5970 C   0  0  0  0  0  0  0  0  0  0  0  0
  161.8310  206.7300  150.4200 C   0  0  0  0  0  0  0  0  0  0  0  0
  161.3400  206.9990  147.6370 C   0  0  0  0  0  3  0  0  0  0  0  0
  161.6700  204.1650  149.9030 C   0  0  2  0  0  3  0  0  0  0  0  0
  161.0740  207.0260  152.7950 C   0  0  2  0  0  3  0  0  0  0  0  0
  160.1890  201.7280  149.4900 C   0  0  0  0  0  3  0  0  0  0  0  0
  161.5250  208.1330  148.4390 C   0  0  0  0  0  3  0  0  0  0  0  0
  161.3370  203.6100  148.5440 C   0  0  0  0  0  0  0  0  0  0  0  0
  160.8060  202.2500  148.4210 C   0  0  0  0  0  3  0  0  0  0  0  0
  161.9190  209.2470  150.6070 N   0  0  0  0  0  0  0  0  0  0  0  0
  161.9520  210.5410  149.9420 C   0  0  0  0  0  1  0  0  0  0  0  0
  162.1690  206.5040  151.8620 C   0  0  0  0  0  2  0  0  0  0  0  0
  160.0150  202.5230  150.7330 C   0  0  0  0  0  3  0  0  0  0  0  0
  161.4040  205.7530  148.2460 C   0  0  0  0  0  0  0  0  0  0  0  0
  161.1970  204.5010  147.6130 N   0  0  0  0  0  0  0  0  0  0  0  0
  161.9830  209.2790  152.0640 C   0  0  0  0  0  2  0  0  0  0  0  0
  160.6530  203.6910  150.9100 C   0  0  0  0  0  3  0  0  0  0  0  0
  160.7990  208.5300  152.6660 C   0  0  0  0  0  2  0  0  0  0  0  0
  161.7700  208.0300  149.8310 C   0  0  0  0  0  0  0  0  0  0  0  0
  161.3440  206.6250  154.2470 C   0  0  0  0  0  2  0  0  0  0  0  0
  159.3610  207.2030  155.4420 O   0  0  0  0  0  0  0  0  0  0  0  0
  160.5800  207.4480  155.2420 C   0  0  0  0  0  0  0  0  0  0  0  0
  161.2430  208.5230  155.9930 C   0  0  0  0  0  0  0  0  0  0  0  0
  160.7990  209.8340  155.8700 O   0  0  0  0  0  0  0  0  0  0  0  0
  162.2070  208.2630  156.7600 O   0  0  0  0  0  1  0  0  0  0  0  0
  1  4  1  0  0  0  0
  1  2  1  0  0  0  0
  2 12  1  0  0  0  0
  3 14  1  0  0  0  0
  3  7  2  0  0  0  0
  4 17  1  1  0  0  0
  5 20  1  1  0  0  0
  6 13  1  0  0  0  0
  7 19  1  0  0  0  0
  8  4  1  0  0  0  0
  9  8  1  0  0  0  0
  9  6  2  0  0  0  0
 10 16  1  0  0  0  0
 11 10  1  0  0  0  0
 12  5  1  0  0  0  0
 13 17  2  0  0  0  0
 14  1  2  0  0  0  0
 15 14  1  0  0  0  0
 15  8  2  0  0  0  0
 16 18  1  0  0  0  0
 18  5  1  0  0  0  0
 19  2  2  0  0  0  0
 19 10  1  0  0  0  0
 20 22  1  0  0  0  0
 22 21  2  0  0  0  0
 22 23  1  0  0  0  0
 23 25  1  0  0  0  0
 24 23  2  0  0  0  0
M  END
>  <MODEL>
2

>  <REMARK>
 VINA RESULT:      -8.6      4.317      6.258
  Name = 
  3 active torsions:
  status: ('A' for Active; 'I' for Inactive)
    1  A    between atoms: C_2  and  C_25
    2  A    between atoms: C_6  and  C_15
    3  A    between atoms: C_15  and  C_25
                            x       y       z     vdW  Elec       q    Type
                         _______ _______ _______ _____ _____    ______ ____

>  <TORSDO>
F 3

$$$$
=
 OpenBabel11052422203D

 25 28  0  0  1  0  0  0  0  0999 V2000
  161.0160  206.1270  150.7870 C   0  0  0  0  0  0  0  0  0  0  0  0
  160.9850  207.2450  151.6280 C   0  0  0  0  0  0  0  0  0  0  0  0
  161.2840  204.6110  152.6430 C   0  0  0  0  0  3  0  0  0  0  0  0
  160.8240  206.0210  149.3150 C   0  0  2  0  0  3  0  0  0  0  0  0
  161.9550  209.5140  151.1660 C   0  0  2  0  0  3  0  0  0  0  0  0
  161.9920  204.7920  146.9860 C   0  0  0  0  0  3  0  0  0  0  0  0
  161.2880  205.7120  153.5100 C   0  0  0  0  0  3  0  0  0  0  0  0
  160.9860  204.5340  149.1480 C   0  0  0  0  0  0  0  0  0  0  0  0
  161.3550  203.9820  147.8420 C   0  0  0  0  0  3  0  0  0  0  0  0
  161.1890  208.1320  153.9840 N   0  0  0  0  0  0  0  0  0  0  0  0
  161.2450  207.8610  155.4120 C   0  0  0  0  0  1  0  0  0  0  0  0
  160.7390  208.5950  151.0260 C   0  0  0  0  0  2  0  0  0  0  0  0
  162.3500  206.1810  147.3730 C   0  0  0  0  0  3  0  0  0  0  0  0
  161.1320  204.8520  151.2840 C   0  0  0  0  0  0  0  0  0  0  0  0
  161.1510  203.8780  150.2540 N   0  0  0  0  0  0  0  0  0  0  0  0
  161.2430  209.5390  153.6010 C   0  0  0  0  0  2  0  0  0  0  0  0
  161.8580  206.7420  148.4890 C   0  0  0  0  0  3  0  0  0  0  0  0
  162.3810  209.7800  152.6160 C   0  0  0  0  0  2  0  0  0  0  0  0
  161.1420  207.0380  153.0320 C   0  0  0  0  0  0  0  0  0  0  0  0
  161.7560  210.8180  150.3880 C   0  0  0  0  0  2  0  0  0  0  0  0
  162.4790  209.5930  148.4730 O   0  0  0  0  0  0  0  0  0  0  0  0
  162.1520  210.7140  148.9450 C   0  0  0  0  0  0  0  0  0  0  0  0
  162.1460  211.9000  148.0780 C   0  0  0  0  0  0  0  0  0  0  0  0
  161.0020  212.2310  147.3600 O   0  0  0  0  0  0  0  0  0  0  0  0
  163.1680  212.6290  147.9890 O   0  0  0  0  0  1  0  0  0  0  0  0
  1 14  2  0  0  0  0
  1  2  1  0  0  0  0
  2 19  2  0  0  0  0
  3  7  2  0  0  0  0
  4 17  1  6  0  0  0
  4  1  1  0  0  0  0
  5 20  1  1  0  0  0
  5 18  1  0  0  0  0
  6 13  1  0  0  0  0
  6  9  2  0  0  0  0
  8  4  1  0  0  0  0
  8 15  2  0  0  0  0
  9  8  1  0  0  0  0
 10 11  1  0  0  0  0
 12  5  1  0  0  0  0
 12  2  1  0  0  0  0
 13 17  2  0  0  0  0
 14  3  1  0  0  0  0
 15 14  1  0  0  0  0
 16 10  1  0  0  0  0
 18 16  1  0  0  0  0
 19  7  1  0  0  0  0
 19 10  1  0  0  0  0
 21 22  2  0  0  0  0
 22 20  1  0  0  0  0
 23 22  1  0  0  0  0
 24 23  2  0  0  0  0
 25 23  1  0  0  0  0
M  END
>  <MODEL>
3

>  <REMARK>
 VINA RESULT:      -8.3      2.976      4.590
  Name = 
  3 active torsions:
  status: ('A' for Active; 'I' for Inactive)
    1  A    between atoms: C_2  and  C_25
    2  A    between atoms: C_6  and  C_15
    3  A    between atoms: C_15  and  C_25
                            x       y       z     vdW  Elec       q    Type
                         _______ _______ _______ _____ _____    ______ ____

>  <TORSDO>
F 3

$$$$
=
 OpenBabel11052422203D

 25 28  0  0  1  0  0  0  0  0999 V2000
  161.5000  206.0450  151.8780 C   0  0  0  0  0  0  0  0  0  0  0  0
  161.6990  205.8540  150.5070 C   0  0  0  0  0  0  0  0  0  0  0  0
  160.6560  203.8060  152.1730 C   0  0  0  0  0  3  0  0  0  0  0  0
  161.8350  207.2050  152.7490 C   0  0  2  0  0  3  0  0  0  0  0  0
  161.3680  207.5420  148.6780 C   0  0  2  0  0  3  0  0  0  0  0  0
  160.6900  208.8650  154.8070 C   0  0  0  0  0  3  0  0  0  0  0  0
  160.8140  203.5920  150.7970 C   0  0  0  0  0  3  0  0  0  0  0  0
  161.3390  206.6770  154.0700 C   0  0  0  0  0  0  0  0  0  0  0  0
  161.0070  207.6090  155.1500 C   0  0  0  0  0  3  0  0  0  0  0  0
  161.4370  204.3160  148.5210 N   0  0  0  0  0  0  0  0  0  0  0  0
  161.1470  202.9840  148.0110 C   0  0  0  0  0  1  0  0  0  0  0  0
  162.3340  206.9520  149.7090 C   0  0  0  0  0  2  0  0  0  0  0  0
  160.6350  209.2750  153.3800 C   0  0  0  0  0  3  0  0  0  0  0  0
  161.0210  205.0430  152.6860 C   0  0  0  0  0  0  0  0  0  0  0  0
  160.8910  205.4610  154.0340 N   0  0  0  0  0  0  0  0  0  0  0  0
  161.7690  205.3220  147.5180 C   0  0  0  0  0  2  0  0  0  0  0  0
  161.1100  208.4820  152.4070 C   0  0  0  0  0  3  0  0  0  0  0  0
  160.8490  206.5300  147.6490 C   0  0  0  0  0  2  0  0  0  0  0  0
  161.3310  204.5950  149.9410 C   0  0  0  0  0  0  0  0  0  0  0  0
  161.9660  208.7780  148.0020 C   0  0  0  0  0  2  0  0  0  0  0  0
  162.0020  209.8590  150.1290 O   0  0  0  0  0  0  0  0  0  0  0  0
  161.9560  209.9960  148.8780 C   0  0  0  0  0  0  0  0  0  0  0  0
  161.9090  211.3420  148.2900 C   0  0  0  0  0  0  0  0  0  0  0  0
  160.8390  211.7130  147.4840 O   0  0  0  0  0  0  0  0  0  0  0  0
  162.8280  212.1700  148.5220 O   0  0  0  0  0  1  0  0  0  0  0  0
  1 14  1  0  0  0  0
  1  4  1  0  0  0  0
  2  1  2  0  0  0  0
  3 14  2  0  0  0  0
  4 17  1  6  0  0  0
  4  8  1  0  0  0  0
  5 20  1  6  0  0  0
  5 12  1  0  0  0  0
  6  9  2  0  0  0  0
  7  3  1  0  0  0  0
  8  9  1  0  0  0  0
 10 19  1  0  0  0  0
 11 10  1  0  0  0  0
 12  2  1  0  0  0  0
 13  6  1  0  0  0  0
 14 15  1  0  0  0  0
 15  8  2  0  0  0  0
 16 18  1  0  0  0  0
 16 10  1  0  0  0  0
 17 13  2  0  0  0  0
 18  5  1  0  0  0  0
 19  2  1  0  0  0  0
 19  7  2  0  0  0  0
 20 22  1  0  0  0  0
 22 21  2  0  0  0  0
 23 25  1  0  0  0  0
 23 22  1  0  0  0  0
 24 23  2  0  0  0  0
M  END
>  <MODEL>
4

>  <REMARK>
 VINA RESULT:      -7.7      3.131      5.512
  Name = 
  3 active torsions:
  status: ('A' for Active; 'I' for Inactive)
    1  A    between atoms: C_2  and  C_25
    2  A    between atoms: C_6  and  C_15
    3  A    between atoms: C_15  and  C_25
                            x       y       z     vdW  Elec       q    Type
                         _______ _______ _______ _____ _____    ______ ____

>  <TORSDO>
F 3

$$$$
=
 OpenBabel11052422203D

 25 28  0  0  1  0  0  0  0  0999 V2000
  161.4570  205.8300  151.8670 C   0  0  0  0  0  0  0  0  0  0  0  0
  161.5960  205.0710  150.7000 C   0  0  0  0  0  0  0  0  0  0  0  0
  160.6090  203.9480  153.1120 C   0  0  0  0  0  3  0  0  0  0  0  0
  161.8380  207.2400  152.1530 C   0  0  2  0  0  3  0  0  0  0  0  0
  161.2010  205.8360  148.3410 C   0  0  2  0  0  3  0  0  0  0  0  0
  160.7960  209.6430  153.3530 C   0  0  0  0  0  3  0  0  0  0  0  0
  160.7060  203.1670  151.9510 C   0  0  0  0  0  3  0  0  0  0  0  0
  161.3960  207.3330  153.5890 C   0  0  0  0  0  0  0  0  0  0  0  0
  161.1170  208.6420  154.1840 C   0  0  0  0  0  3  0  0  0  0  0  0
  161.2380  202.8460  149.5620 N   0  0  0  0  0  0  0  0  0  0  0  0
  160.9160  201.4310  149.6760 C   0  0  0  0  0  1  0  0  0  0  0  0
  162.2050  205.7130  149.4900 C   0  0  0  0  0  2  0  0  0  0  0  0
  160.6830  209.4130  151.8890 C   0  0  0  0  0  3  0  0  0  0  0  0
  161.0060  205.2760  153.0390 C   0  0  0  0  0  0  0  0  0  0  0  0
  160.9370  206.2280  154.0870 N   0  0  0  0  0  0  0  0  0  0  0  0
  161.5350  203.3240  148.2160 C   0  0  0  0  0  2  0  0  0  0  0  0
  161.1100  208.2710  151.3280 C   0  0  0  0  0  3  0  0  0  0  0  0
  160.6300  204.4970  147.8560 C   0  0  0  0  0  2  0  0  0  0  0  0
  161.1950  203.7020  150.7330 C   0  0  0  0  0  0  0  0  0  0  0  0
  161.7790  206.6550  147.1840 C   0  0  0  0  0  2  0  0  0  0  0  0
  163.0990  205.1630  145.8700 O   0  0  0  0  0  0  0  0  0  0  0  0
  162.0390  205.8390  145.9530 C   0  0  0  0  0  0  0  0  0  0  0  0
  161.0650  205.8090  144.8540 C   0  0  0  0  0  0  0  0  0  0  0  0
  161.4620  205.4150  143.5810 O   0  0  0  0  0  0  0  0  0  0  0  0
  159.8640  206.1280  145.0580 O   0  0  0  0  0  1  0  0  0  0  0  0
  1  4  1  0  0  0  0
  1 14  1  0  0  0  0
  2 19  1  0  0  0  0
  2  1  2  0  0  0  0
  4 17  1  6  0  0  0
  4  8  1  0  0  0  0
  5 20  1  6  0  0  0
  5 12  1  0  0  0  0
  6  9  2  0  0  0  0
  7  3  1  0  0  0  0
  8 15  2  0  0  0  0
  8  9  1  0  0  0  0
 10 11  1  0  0  0  0
 10 19  1  0  0  0  0
 12  2  1  0  0  0  0
 13  6  1  0  0  0  0
 14  3  2  0  0  0  0
 14 15  1  0  0  0  0
 16 10  1  0  0  0  0
 17 13  2  0  0  0  0
 18 16  1  0  0  0  0
 18  5  1  0  0  0  0
 19  7  2  0  0  0  0
 21 22  2  0  0  0  0
 22 20  1  0  0  0  0
 23 25  1  0  0  0  0
 23 22  1  0  0  0  0
 24 23  2  0  0  0  0
M  END
>  <MODEL>
5

>  <REMARK>
 VINA RESULT:      -7.6      1.567      4.658
  Name = 
  3 active torsions:
  status: ('A' for Active; 'I' for Inactive)
    1  A    between atoms: C_2  and  C_25
    2  A    between atoms: C_6  and  C_15
    3  A    between atoms: C_15  and  C_25
                            x       y       z     vdW  Elec       q    Type
                         _______ _______ _______ _____ _____    ______ ____

>  <TORSDO>
F 3

$$$$
=
 OpenBabel11052422203D

 25 28  0  0  1  0  0  0  0  0999 V2000
  161.4190  207.7880  152.7080 C   0  0  0  0  0  0  0  0  0  0  0  0
  161.5390  206.7670  151.7580 C   0  0  0  0  0  0  0  0  0  0  0  0
  160.9080  206.2250  154.4710 C   0  0  0  0  0  3  0  0  0  0  0  0
  161.6590  209.2510  152.5870 C   0  0  2  0  0  3  0  0  0  0  0  0
  160.8480  206.8560  149.3460 C   0  0  2  0  0  3  0  0  0  0  0  0
  160.4590  211.7810  153.2650 C   0  0  0  0  0  3  0  0  0  0  0  0
  160.9910  205.1820  153.5380 C   0  0  0  0  0  3  0  0  0  0  0  0
  161.3390  209.6740  153.9970 C   0  0  0  0  0  0  0  0  0  0  0  0
  160.9660  211.0630  154.2760 C   0  0  0  0  0  3  0  0  0  0  0  0
  161.3380  204.3000  151.2590 N   0  0  0  0  0  0  0  0  0  0  0  0
  161.1930  202.9400  151.7580 C   0  0  0  0  0  1  0  0  0  0  0  0
  161.9590  207.1240  150.3640 C   0  0  0  0  0  2  0  0  0  0  0  0
  160.2420  211.1700  151.9280 C   0  0  0  0  0  3  0  0  0  0  0  0
  161.1420  207.5180  154.0250 C   0  0  0  0  0  0  0  0  0  0  0  0
  161.0580  208.7000  154.8040 N   0  0  0  0  0  0  0  0  0  0  0  0
  161.4570  204.4370  149.8110 C   0  0  0  0  0  2  0  0  0  0  0  0
  160.7460  209.9640  151.6230 C   0  0  0  0  0  3  0  0  0  0  0  0
  160.3940  205.3920  149.2780 C   0  0  0  0  0  2  0  0  0  0  0  0
  161.3030  205.4230  152.1770 C   0  0  0  0  0  0  0  0  0  0  0  0
  161.2220  207.3940  147.9620 C   0  0  0  0  0  2  0  0  0  0  0  0
  162.9770  205.9490  147.2380 O   0  0  0  0  0  0  0  0  0  0  0  0
  161.7960  206.3480  147.0540 C   0  0  0  0  0  0  0  0  0  0  0  0
  160.9910  205.7740  145.9670 C   0  0  0  0  0  0  0  0  0  0  0  0
  161.1970  204.4590  145.5670 O   0  0  0  0  0  1  0  0  0  0  0  0
  160.1030  206.4640  145.4000 O   0  0  0  0  0  0  0  0  0  0  0  0
  1 14  1  0  0  0  0
  2 19  1  0  0  0  0
  2  1  2  0  0  0  0
  4 17  1  6  0  0  0
  4  1  1  0  0  0  0
  4  8  1  0  0  0  0
  5 20  1  6  0  0  0
  5 12  1  0  0  0  0
  6  9  2  0  0  0  0
  7  3  1  0  0  0  0
  8  9  1  0  0  0  0
  8 15  2  0  0  0  0
 10 11  1  0  0  0  0
 10 19  1  0  0  0  0
 12  2  1  0  0  0  0
 13  6  1  0  0  0  0
 14  3  2  0  0  0  0
 14 15  1  0  0  0  0
 16 10  1  0  0  0  0
 17 13  2  0  0  0  0
 18  5  1  0  0  0  0
 18 16  1  0  0  0  0
 19  7  2  0  0  0  0
 22 21  2  0  0  0  0
 22 20  1  0  0  0  0
 23 22  1  0  0  0  0
 24 23  1  0  0  0  0
 25 23  2  0  0  0  0
M  END
>  <MODEL>
6

>  <REMARK>
 VINA RESULT:      -7.5      1.948      5.422
  Name = 
  3 active torsions:
  status: ('A' for Active; 'I' for Inactive)
    1  A    between atoms: C_2  and  C_25
    2  A    between atoms: C_6  and  C_15
    3  A    between atoms: C_15  and  C_25
                            x       y       z     vdW  Elec       q    Type
                         _______ _______ _______ _____ _____    ______ ____

>  <TORSDO>
F 3

$$$$
=
 OpenBabel11052422203D

 25 28  0  0  1  0  0  0  0  0999 V2000
  161.1540  207.9290  150.7720 C   0  0  0  0  0  0  0  0  0  0  0  0
  161.0520  206.8670  149.8660 C   0  0  0  0  0  0  0  0  0  0  0  0
  162.3310  209.3050  149.1810 C   0  0  0  0  0  3  0  0  0  0  0  0
  160.5970  208.0840  152.1430 C   0  0  2  0  0  3  0  0  0  0  0  0
  161.1920  204.4150  150.3870 C   0  0  2  0  0  3  0  0  0  0  0  0
  161.3640  208.9280  154.7890 C   0  0  0  0  0  3  0  0  0  0  0  0
  162.2730  208.2500  148.2610 C   0  0  0  0  0  3  0  0  0  0  0  0
  161.1090  209.4630  152.4660 C   0  0  0  0  0  0  0  0  0  0  0  0
  161.2370  209.8860  153.8620 C   0  0  0  0  0  3  0  0  0  0  0  0
  161.6490  205.9590  147.5870 N   0  0  0  0  0  0  0  0  0  0  0  0
  162.1720  206.2030  146.2510 C   0  0  0  0  0  1  0  0  0  0  0  0
  160.2870  205.6430  150.2720 C   0  0  0  0  0  2  0  0  0  0  0  0
  161.4190  207.4940  154.4020 C   0  0  0  0  0  3  0  0  0  0  0  0
  161.7480  209.1170  150.4270 C   0  0  0  0  0  0  0  0  0  0  0  0
  161.7470  210.0450  151.4990 N   0  0  0  0  0  0  0  0  0  0  0  0
  161.2060  204.5950  147.8570 C   0  0  0  0  0  2  0  0  0  0  0  0
  161.1220  207.0970  153.1540 C   0  0  0  0  0  3  0  0  0  0  0  0
  161.9140  204.0390  149.0860 C   0  0  0  0  0  2  0  0  0  0  0  0
  161.6420  207.0210  148.5750 C   0  0  0  0  0  0  0  0  0  0  0  0
  160.4360  203.2220  150.9770 C   0  0  0  0  0  2  0  0  0  0  0  0
  161.8640  201.3180  151.1480 O   0  0  0  0  0  0  0  0  0  0  0  0
  160.9530  201.8970  150.5000 C   0  0  0  0  0  0  0  0  0  0  0  0
  160.3960  201.2640  149.2960 C   0  0  0  0  0  0  0  0  0  0  0  0
  161.2300  200.5780  148.4210 O   0  0  0  0  0  0  0  0  0  0  0  0
  159.1610  201.3280  149.0560 O   0  0  0  0  0  1  0  0  0  0  0  0
  1  4  1  0  0  0  0
  2 12  1  0  0  0  0
  2  1  2  0  0  0  0
  3 14  2  0  0  0  0
  4  8  1  0  0  0  0
  4 17  1  1  0  0  0
  5 20  1  6  0  0  0
  7 19  2  0  0  0  0
  7  3  1  0  0  0  0
  8  9  1  0  0  0  0
  9  6  2  0  0  0  0
 10 16  1  0  0  0  0
 10 19  1  0  0  0  0
 11 10  1  0  0  0  0
 12  5  1  0  0  0  0
 13  6  1  0  0  0  0
 14  1  1  0  0  0  0
 14 15  1  0  0  0  0
 15  8  2  0  0  0  0
 16 18  1  0  0  0  0
 17 13  2  0  0  0  0
 18  5  1  0  0  0  0
 19  2  1  0  0  0  0
 22 20  1  0  0  0  0
 22 21  2  0  0  0  0
 23 22  1  0  0  0  0
 24 23  2  0  0  0  0
 25 23  1  0  0  0  0
M  END
>  <MODEL>
7

>  <REMARK>
 VINA RESULT:      -7.4      2.648      5.907
  Name = 
  3 active torsions:
  status: ('A' for Active; 'I' for Inactive)
    1  A    between atoms: C_2  and  C_25
    2  A    between atoms: C_6  and  C_15
    3  A    between atoms: C_15  and  C_25
                            x       y       z     vdW  Elec       q    Type
                         _______ _______ _______ _____ _____    ______ ____

>  <TORSDO>
F 3

$$$$
=
 OpenBabel11052422203D

 25 28  0  0  1  0  0  0  0  0999 V2000
  161.0430  204.6420  148.9690 C   0  0  0  0  0  0  0  0  0  0  0  0
  160.9630  205.4780  150.0890 C   0  0  0  0  0  0  0  0  0  0  0  0
  161.0840  202.6520  150.3300 C   0  0  0  0  0  3  0  0  0  0  0  0
  160.9910  204.9670  147.5180 C   0  0  2  0  0  3  0  0  0  0  0  0
  162.0400  207.7280  150.3780 C   0  0  2  0  0  3  0  0  0  0  0  0
  162.3420  204.3800  145.0410 C   0  0  0  0  0  3  0  0  0  0  0  0
  161.0370  203.4620  151.4730 C   0  0  0  0  0  3  0  0  0  0  0  0
  161.1250  203.5800  146.9460 C   0  0  0  0  0  0  0  0  0  0  0  0
  161.6010  203.3990  145.5730 C   0  0  0  0  0  3  0  0  0  0  0  0
  160.9640  205.6530  152.6080 N   0  0  0  0  0  0  0  0  0  0  0  0
  160.8730  204.9870  153.8990 C   0  0  0  0  0  1  0  0  0  0  0  0
  160.8160  206.9550  149.8790 C   0  0  0  0  0  2  0  0  0  0  0  0
  162.7020  205.5820  145.8380 C   0  0  0  0  0  3  0  0  0  0  0  0
  161.0720  203.2750  149.0890 C   0  0  0  0  0  0  0  0  0  0  0  0
  161.1610  202.6310  147.8290 N   0  0  0  0  0  0  0  0  0  0  0  0
  161.0960  207.1050  152.6490 C   0  0  0  0  0  2  0  0  0  0  0  0
  162.1210  205.8320  147.0230 C   0  0  0  0  0  3  0  0  0  0  0  0
  162.3310  207.5500  151.8740 C   0  0  0  0  0  2  0  0  0  0  0  0
  160.9770  204.8750  151.3830 C   0  0  0  0  0  0  0  0  0  0  0  0
  161.9560  209.2070  149.9910 C   0  0  0  0  0  2  0  0  0  0  0  0
  163.1000  210.3280  151.7590 O   0  0  0  0  0  0  0  0  0  0  0  0
  162.0040  210.1310  151.1720 C   0  0  0  0  0  0  0  0  0  0  0  0
  160.7920  210.8180  151.6360 C   0  0  0  0  0  0  0  0  0  0  0  0
  160.0110  210.2520  152.6370 O   0  0  0  0  0  1  0  0  0  0  0  0
  160.4580  211.9270  151.1420 O   0  0  0  0  0  0  0  0  0  0  0  0
  1 14  2  0  0  0  0
  1  2  1  0  0  0  0
  2 19  2  0  0  0  0
  3  7  2  0  0  0  0
  4 17  1  6  0  0  0
  4  1  1  0  0  0  0
  5 20  1  1  0  0  0
  5 18  1  0  0  0  0
  6  9  2  0  0  0  0
  6 13  1  0  0  0  0
  8  4  1  0  0  0  0
  8 15  2  0  0  0  0
  9  8  1  0  0  0  0
 10 16  1  0  0  0  0
 10 11  1  0  0  0  0
 12  2  1  0  0  0  0
 12  5  1  0  0  0  0
 13 17  2  0  0  0  0
 14  3  1  0  0  0  0
 15 14  1  0  0  0  0
 18 16  1  0  0  0  0
 19  7  1  0  0  0  0
 19 10  1  0  0  0  0
 20 22  1  0  0  0  0
 22 23  1  0  0  0  0
 22 21  2  0  0  0  0
 23 24  1  0  0  0  0
 25 23  2  0  0  0  0
M  END
>  <MODEL>
8

>  <REMARK>
 VINA RESULT:      -7.3      3.550      5.261
  Name = 
  3 active torsions:
  status: ('A' for Active; 'I' for Inactive)
    1  A    between atoms: C_2  and  C_25
    2  A    between atoms: C_6  and  C_15
    3  A    between atoms: C_15  and  C_25
                            x       y       z     vdW  Elec       q    Type
                         _______ _______ _______ _____ _____    ______ ____

>  <TORSDO>
F 3

$$$$
=
 OpenBabel11052422203D

 25 28  0  0  1  0  0  0  0  0999 V2000
  161.1850  207.1030  149.9520 C   0  0  0  0  0  0  0  0  0  0  0  0
  161.0660  206.1930  148.8950 C   0  0  0  0  0  0  0  0  0  0  0  0
  162.5270  208.6130  148.6350 C   0  0  0  0  0  3  0  0  0  0  0  0
  160.5670  207.0960  151.3050 C   0  0  2  0  0  3  0  0  0  0  0  0
  161.0290  203.6870  149.0530 C   0  0  2  0  0  3  0  0  0  0  0  0
  161.2410  207.4920  154.0780 C   0  0  0  0  0  3  0  0  0  0  0  0
  162.4540  207.7080  147.5670 C   0  0  0  0  0  3  0  0  0  0  0  0
  161.1430  208.3750  151.8510 C   0  0  0  0  0  0  0  0  0  0  0  0
  161.2230  208.5810  153.2990 C   0  0  0  0  0  3  0  0  0  0  0  0
  161.7280  205.5870  146.5350 N   0  0  0  0  0  0  0  0  0  0  0  0
  162.3350  205.9870  145.2740 C   0  0  0  0  0  1  0  0  0  0  0  0
  160.2080  204.9780  149.0810 C   0  0  0  0  0  2  0  0  0  0  0  0
  161.2300  206.1290  153.4850 C   0  0  0  0  0  3  0  0  0  0  0  0
  161.8680  208.2850  149.8130 C   0  0  0  0  0  0  0  0  0  0  0  0
  161.8660  209.0460  151.0090 N   0  0  0  0  0  0  0  0  0  0  0  0
  161.1890  204.2320  146.5800 C   0  0  0  0  0  2  0  0  0  0  0  0
  160.9760  205.9390  152.1810 C   0  0  0  0  0  3  0  0  0  0  0  0
  161.7950  203.4560  147.7430 C   0  0  0  0  0  2  0  0  0  0  0  0
  161.7330  206.4920  147.6690 C   0  0  0  0  0  0  0  0  0  0  0  0
  160.1710  202.4760  149.4260 C   0  0  0  0  0  2  0  0  0  0  0  0
  160.9270  200.3220  150.1200 O   0  0  0  0  0  0  0  0  0  0  0  0
  160.8450  201.5480  150.3930 C   0  0  0  0  0  0  0  0  0  0  0  0
  161.4210  202.0590  151.6440 C   0  0  0  0  0  0  0  0  0  0  0  0
  162.7150  201.7050  152.0100 O   0  0  0  0  0  0  0  0  0  0  0  0
  160.7550  202.8280  152.3860 O   0  0  0  0  0  1  0  0  0  0  0  0
  1  4  1  0  0  0  0
  2 12  1  0  0  0  0
  2  1  2  0  0  0  0
  3 14  2  0  0  0  0
  4  8  1  0  0  0  0
  4 17  1  1  0  0  0
  5 12  1  0  0  0  0
  5 20  1  6  0  0  0
  7 19  2  0  0  0  0
  7  3  1  0  0  0  0
  8  9  1  0  0  0  0
  9  6  2  0  0  0  0
 10 16  1  0  0  0  0
 10 19  1  0  0  0  0
 11 10  1  0  0  0  0
 13  6  1  0  0  0  0
 14  1  1  0  0  0  0
 14 15  1  0  0  0  0
 15  8  2  0  0  0  0
 16 18  1  0  0  0  0
 17 13  2  0  0  0  0
 18  5  1  0  0  0  0
 19  2  1  0  0  0  0
 20 22  1  0  0  0  0
 21 22  2  0  0  0  0
 22 23  1  0  0  0  0
 23 24  2  0  0  0  0
 23 25  1  0  0  0  0
M  END
>  <MODEL>
9

>  <REMARK>
 VINA RESULT:      -7.0      3.068      5.884
  Name = 
  3 active torsions:
  status: ('A' for Active; 'I' for Inactive)
    1  A    between atoms: C_2  and  C_25
    2  A    between atoms: C_6  and  C_15
    3  A    between atoms: C_15  and  C_25
                            x       y       z     vdW  Elec       q    Type
                         _______ _______ _______ _____ _____    ______ ____

>  <TORSDO>
F 3

$$$$
