=
 OpenBabel11062410503D

 32 35  0  0  1  0  0  0  0  0999 V2000
  160.8810  209.0510  154.5520 C   0  0  0  0  0  0  0  0  0  0  0  0
  161.1610  205.5480  150.9610 C   0  0  0  0  0  0  0  0  0  0  0  0
  161.0530  206.6600  153.0960 C   0  0  0  0  0  0  0  0  0  0  0  0
  161.0330  207.9340  151.0620 N   0  0  0  0  0  0  0  0  0  0  0  0
  160.9110  209.0860  153.1530 C   0  0  0  0  0  3  0  0  0  0  0  0
  161.1130  206.7930  150.3210 C   0  0  0  0  0  0  0  0  0  0  0  0
  161.2070  206.8460  148.8490 C   0  0  0  0  0  0  0  0  0  0  0  0
  160.9860  204.3660  148.7940 C   0  0  2  0  0  3  0  0  0  0  0  0
  160.9400  207.8140  155.2180 C   0  0  0  0  0  3  0  0  0  0  0  0
  160.9960  207.8990  152.4210 C   0  0  0  0  0  0  0  0  0  0  0  0
  161.0250  206.6220  154.4910 C   0  0  0  0  0  3  0  0  0  0  0  0
  161.2840  205.7630  146.7030 N   0  0  0  0  0  1  0  0  0  0  0  0
  161.2180  205.7070  148.1290 C   0  0  0  0  0  0  0  0  0  0  0  0
  161.1380  205.4830  152.3540 C   0  0  0  0  0  3  0  0  0  0  0  0
  161.2550  204.3830  150.2000 O   0  0  0  0  0  0  0  0  0  0  0  0
  159.7420  211.1330  155.1900 C   0  0  0  0  0  3  0  0  0  0  0  0
  160.7890  210.3180  155.2890 C   0  0  0  0  0  3  0  0  0  0  0  0
  158.0270  212.4310  156.9790 C   0  0  0  0  0  1  0  0  0  0  0  0
  159.6600  212.7120  156.1290 P   0  0  2  0  0  0  0  0  0  0  0  0
  159.0330  213.6810  154.8330 O   0  0  0  0  0  1  0  0  0  0  0  0
  161.3020  208.1800  148.1660 C   0  0  0  0  0  2  0  0  0  0  0  0
  162.4450  209.0040  148.7410 C   0  0  0  0  0  2  0  0  0  0  0  0
  162.1360  210.3630  148.6790 O   0  0  0  0  0  1  0  0  0  0  0  0
  161.8130  203.2700  148.1360 C   0  0  0  0  0  2  0  0  0  0  0  0
  160.9400  202.1940  147.6790 N   0  0  0  0  0  0  0  0  0  0  0  0
  160.0000  200.7300  149.4380 C   0  0  1  0  0  3  0  0  0  0  0  0
  158.9950  201.6740  149.3100 F   0  0  0  0  0  0  0  0  0  0  0  0
  161.1780  201.0100  148.5050 C   0  0  2  0  0  3  0  0  0  0  0  0
  161.2480  201.4000  149.9710 C   0  0  0  0  0  2  0  0  0  0  0  0
  161.2380  201.8880  146.2740 C   0  0  0  0  0  2  0  0  0  0  0  0
  159.7470  201.8010  145.2120 S   0  0  0  0  0  0  0  0  0  0  0  0
  160.0460  203.4620  144.5460 C   0  0  0  0  0  1  0  0  0  0  0  0
  1  9  1  0  0  0  0
  1 17  1  0  0  0  0
  2 14  1  0  0  0  0
  3 11  1  0  0  0  0
  4 10  2  0  0  0  0
  5  1  2  0  0  0  0
  6  2  2  0  0  0  0
  6  4  1  0  0  0  0
  7  6  1  0  0  0  0
  8 24  1  6  0  0  0
  8 15  1  0  0  0  0
 10  3  1  0  0  0  0
 10  5  1  0  0  0  0
 11  9  2  0  0  0  0
 12 13  1  0  0  0  0
 13  8  1  0  0  0  0
 13  7  2  0  0  0  0
 14  3  2  0  0  0  0
 15  2  1  0  0  0  0
 16 17  2  0  0  0  0
 16 19  1  0  0  0  0
 19 18  1  1  0  0  0
 20 19  1  0  0  0  0
 21 22  1  0  0  0  0
 21  7  1  0  0  0  0
 23 22  1  0  0  0  0
 25 24  1  0  0  0  0
 26 27  1  6  0  0  0
 26 29  1  0  0  0  0
 28 25  1  6  0  0  0
 28 26  1  0  0  0  0
 28 29  1  0  0  0  0
 30 25  1  0  0  0  0
 31 30  1  0  0  0  0
 32 31  1  0  0  0  0
M  END
>  <MODEL>
1

>  <REMARK>
 VINA RESULT:      -7.2      0.000      0.000
  Name = 
  9 active torsions:
  status: ('A' for Active; 'I' for Inactive)
    1  A    between atoms: C_2  and  C_24
    2  A    between atoms: C_4  and  C_13
    3  A    between atoms: S_6  and  C_7
    4  A    between atoms: C_7  and  N_32
    5  A    between atoms: C_10  and  P_17
    6  A    between atoms: C_13  and  C_15
    7  A    between atoms: C_16  and  C_27
    8  A    between atoms: C_22  and  N_32
    9  A    between atoms: C_27  and  N_32
                            x       y       z     vdW  Elec       q    Type
                         _______ _______ _______ _____ _____    ______ ____

>  <TORSDO>
F 9

$$$$
=
 OpenBabel11062410503D

 32 35  0  0  1  0  0  0  0  0999 V2000
  161.1060  204.3370  149.6210 C   0  0  0  0  0  0  0  0  0  0  0  0
  161.0300  207.3160  153.6660 C   0  0  0  0  0  0  0  0  0  0  0  0
  161.0060  205.3900  152.2180 C   0  0  0  0  0  0  0  0  0  0  0  0
  161.1770  207.5990  151.2950 N   0  0  0  0  0  0  0  0  0  0  0  0
  161.1710  205.7220  149.8160 C   0  0  0  0  0  3  0  0  0  0  0  0
  161.1350  208.1460  152.5430 C   0  0  0  0  0  0  0  0  0  0  0  0
  161.1400  209.6110  152.7320 C   0  0  0  0  0  0  0  0  0  0  0  0
  161.3370  209.2430  155.1880 C   0  0  2  0  0  3  0  0  0  0  0  0
  160.9890  203.4830  150.7320 C   0  0  0  0  0  3  0  0  0  0  0  0
  161.1220  206.2530  151.1070 C   0  0  0  0  0  0  0  0  0  0  0  0
  160.9390  204.0080  152.0260 C   0  0  0  0  0  3  0  0  0  0  0  0
  161.1960  211.5500  154.1530 N   0  0  0  0  0  1  0  0  0  0  0  0
  161.1650  210.1330  153.9750 C   0  0  0  0  0  0  0  0  0  0  0  0
  160.9580  205.9330  153.5010 C   0  0  0  0  0  3  0  0  0  0  0  0
  160.9740  207.8800  154.9400 O   0  0  0  0  0  0  0  0  0  0  0  0
  161.7420  204.4730  147.2510 C   0  0  0  0  0  3  0  0  0  0  0  0
  161.1620  203.8130  148.2490 C   0  0  0  0  0  3  0  0  0  0  0  0
  160.3960  204.7760  144.8170 C   0  0  0  0  0  1  0  0  0  0  0  0
  161.7950  203.7860  145.5470 P   0  0  2  0  0  0  0  0  0  0  0  0
  160.8630  202.3610  145.8790 O   0  0  0  0  0  1  0  0  0  0  0  0
  161.1060  210.5080  151.5290 C   0  0  0  0  0  2  0  0  0  0  0  0
  162.3300  210.2880  150.6520 C   0  0  0  0  0  2  0  0  0  0  0  0
  162.1530  210.9080  149.4150 O   0  0  0  0  0  1  0  0  0  0  0  0
  160.5440  209.7670  156.3770 C   0  0  0  0  0  2  0  0  0  0  0  0
  159.6590  210.8460  155.9480 N   0  0  0  0  0  0  0  0  0  0  0  0
  159.5310  213.2310  156.5910 C   0  0  1  0  0  3  0  0  0  0  0  0
  159.7670  213.3330  155.2300 F   0  0  0  0  0  0  0  0  0  0  0  0
  159.4780  211.7780  157.0610 C   0  0  2  0  0  3  0  0  0  0  0  0
  160.7350  212.6060  157.2610 C   0  0  0  0  0  2  0  0  0  0  0  0
  158.3610  210.2830  155.5550 C   0  0  0  0  0  2  0  0  0  0  0  0
  157.4350  211.3370  154.3760 S   0  0  0  0  0  0  0  0  0  0  0  0
  155.8390  210.8250  155.0700 C   0  0  0  0  0  1  0  0  0  0  0  0
  1  5  2  0  0  0  0
  1  9  1  0  0  0  0
  2 15  1  0  0  0  0
  3 14  2  0  0  0  0
  4  6  1  0  0  0  0
  5 10  1  0  0  0  0
  6  7  1  0  0  0  0
  6  2  2  0  0  0  0
  7 13  2  0  0  0  0
  8 24  1  1  0  0  0
  9 11  2  0  0  0  0
 10  4  2  0  0  0  0
 10  3  1  0  0  0  0
 11  3  1  0  0  0  0
 13 12  1  0  0  0  0
 13  8  1  0  0  0  0
 14  2  1  0  0  0  0
 15  8  1  0  0  0  0
 16 17  2  0  0  0  0
 17  1  1  0  0  0  0
 19 18  1  6  0  0  0
 19 20  1  0  0  0  0
 19 16  1  0  0  0  0
 21  7  1  0  0  0  0
 22 21  1  0  0  0  0
 23 22  1  0  0  0  0
 25 24  1  0  0  0  0
 26 27  1  6  0  0  0
 26 28  1  0  0  0  0
 26 29  1  0  0  0  0
 28 25  1  6  0  0  0
 28 29  1  0  0  0  0
 30 25  1  0  0  0  0
 31 32  1  0  0  0  0
 31 30  1  0  0  0  0
M  END
>  <MODEL>
2

>  <REMARK>
 VINA RESULT:      -6.4      4.818      9.342
  Name = 
  9 active torsions:
  status: ('A' for Active; 'I' for Inactive)
    1  A    between atoms: C_2  and  C_24
    2  A    between atoms: C_4  and  C_13
    3  A    between atoms: S_6  and  C_7
    4  A    between atoms: C_7  and  N_32
    5  A    between atoms: C_10  and  P_17
    6  A    between atoms: C_13  and  C_15
    7  A    between atoms: C_16  and  C_27
    8  A    between atoms: C_22  and  N_32
    9  A    between atoms: C_27  and  N_32
                            x       y       z     vdW  Elec       q    Type
                         _______ _______ _______ _____ _____    ______ ____

>  <TORSDO>
F 9

$$$$
=
 OpenBabel11062410503D

 32 35  0  0  1  0  0  0  0  0999 V2000
  160.7610  209.3080  154.7460 C   0  0  0  0  0  0  0  0  0  0  0  0
  161.2310  206.0640  150.9380 C   0  0  0  0  0  0  0  0  0  0  0  0
  160.9690  207.0240  153.1330 C   0  0  0  0  0  0  0  0  0  0  0  0
  161.1930  208.4400  151.2080 N   0  0  0  0  0  0  0  0  0  0  0  0
  160.9230  209.4430  153.3610 C   0  0  0  0  0  3  0  0  0  0  0  0
  161.2950  207.3520  150.3940 C   0  0  0  0  0  0  0  0  0  0  0  0
  161.5290  207.5060  148.9440 C   0  0  0  0  0  0  0  0  0  0  0  0
  161.2110  205.0490  148.6810 C   0  0  2  0  0  3  0  0  0  0  0  0
  160.7060  208.0260  155.3180 C   0  0  0  0  0  3  0  0  0  0  0  0
  161.0280  208.3090  152.5520 C   0  0  0  0  0  0  0  0  0  0  0  0
  160.8090  206.8870  154.5140 C   0  0  0  0  0  3  0  0  0  0  0  0
  161.7620  206.5770  146.7380 N   0  0  0  0  0  1  0  0  0  0  0  0
  161.5600  206.4220  148.1440 C   0  0  0  0  0  0  0  0  0  0  0  0
  161.0750  205.9000  152.3150 C   0  0  0  0  0  3  0  0  0  0  0  0
  161.3480  204.9530  150.1040 O   0  0  0  0  0  0  0  0  0  0  0  0
  159.5160  210.9000  156.1450 C   0  0  0  0  0  3  0  0  0  0  0  0
  160.6520  210.5230  155.5650 C   0  0  0  0  0  3  0  0  0  0  0  0
  157.5650  212.6110  157.1910 C   0  0  0  0  0  1  0  0  0  0  0  0
  159.4190  212.4270  157.1650 P   0  0  2  0  0  0  0  0  0  0  0  0
  159.7000  213.5480  155.8710 O   0  0  0  0  0  1  0  0  0  0  0  0
  161.7430  208.8790  148.3760 C   0  0  0  0  0  2  0  0  0  0  0  0
  162.0890  209.8740  149.4740 C   0  0  0  0  0  2  0  0  0  0  0  0
  162.1650  211.1640  148.9480 O   0  0  0  0  0  1  0  0  0  0  0  0
  162.0500  203.9660  148.0200 C   0  0  0  0  0  2  0  0  0  0  0  0
  161.1900  202.8760  147.5670 N   0  0  0  0  0  0  0  0  0  0  0  0
  160.4320  202.2170  145.3060 C   0  0  1  0  0  3  0  0  0  0  0  0
  161.1180  201.0800  145.7010 F   0  0  0  0  0  0  0  0  0  0  0  0
  160.4660  203.3110  146.3730 C   0  0  2  0  0  3  0  0  0  0  0  0
  161.4060  203.3690  145.1820 C   0  0  0  0  0  2  0  0  0  0  0  0
  160.2360  202.5350  148.6310 C   0  0  0  0  0  2  0  0  0  0  0  0
  160.9110  201.3680  149.8710 S   0  0  0  0  0  0  0  0  0  0  0  0
  161.6510  200.3250  148.5840 C   0  0  0  0  0  1  0  0  0  0  0  0
  1  9  1  0  0  0  0
  1 17  1  0  0  0  0
  2 14  1  0  0  0  0
  3 11  1  0  0  0  0
  4 10  2  0  0  0  0
  5  1  2  0  0  0  0
  6  2  2  0  0  0  0
  6  4  1  0  0  0  0
  7  6  1  0  0  0  0
  8 24  1  6  0  0  0
  8 15  1  0  0  0  0
 10  3  1  0  0  0  0
 10  5  1  0  0  0  0
 11  9  2  0  0  0  0
 12 13  1  0  0  0  0
 13  8  1  0  0  0  0
 13  7  2  0  0  0  0
 14  3  2  0  0  0  0
 15  2  1  0  0  0  0
 16 19  1  0  0  0  0
 17 16  2  0  0  0  0
 19 18  1  6  0  0  0
 20 19  1  0  0  0  0
 21  7  1  0  0  0  0
 21 22  1  0  0  0  0
 23 22  1  0  0  0  0
 25 24  1  0  0  0  0
 25 30  1  0  0  0  0
 26 27  1  1  0  0  0
 26 28  1  0  0  0  0
 28 25  1  1  0  0  0
 29 26  1  0  0  0  0
 29 28  1  0  0  0  0
 30 31  1  0  0  0  0
 32 31  1  0  0  0  0
M  END
>  <MODEL>
3

>  <REMARK>
 VINA RESULT:      -6.3      1.424      2.140
  Name = 
  9 active torsions:
  status: ('A' for Active; 'I' for Inactive)
    1  A    between atoms: C_2  and  C_24
    2  A    between atoms: C_4  and  C_13
    3  A    between atoms: S_6  and  C_7
    4  A    between atoms: C_7  and  N_32
    5  A    between atoms: C_10  and  P_17
    6  A    between atoms: C_13  and  C_15
    7  A    between atoms: C_16  and  C_27
    8  A    between atoms: C_22  and  N_32
    9  A    between atoms: C_27  and  N_32
                            x       y       z     vdW  Elec       q    Type
                         _______ _______ _______ _____ _____    ______ ____

>  <TORSDO>
F 9

$$$$
=
 OpenBabel11062410503D

 32 35  0  0  1  0  0  0  0  0999 V2000
  161.3140  209.5170  153.6260 C   0  0  0  0  0  0  0  0  0  0  0  0
  161.2020  206.5380  149.5810 C   0  0  0  0  0  0  0  0  0  0  0  0
  161.3650  208.4570  151.0300 C   0  0  0  0  0  0  0  0  0  0  0  0
  160.9610  206.2760  151.9460 N   0  0  0  0  0  0  0  0  0  0  0  0
  161.1260  208.1440  153.4290 C   0  0  0  0  0  3  0  0  0  0  0  0
  160.9820  205.7250  150.7000 C   0  0  0  0  0  0  0  0  0  0  0  0
  160.7210  204.2860  150.4990 C   0  0  0  0  0  0  0  0  0  0  0  0
  161.3250  204.5610  148.0980 C   0  0  2  0  0  3  0  0  0  0  0  0
  161.5250  210.3560  152.5180 C   0  0  0  0  0  3  0  0  0  0  0  0
  161.1510  207.6090  152.1380 C   0  0  0  0  0  0  0  0  0  0  0  0
  161.5510  209.8270  151.2240 C   0  0  0  0  0  3  0  0  0  0  0  0
  160.5820  202.3480  149.0810 N   0  0  0  0  0  1  0  0  0  0  0  0
  160.8120  203.7460  149.2670 C   0  0  0  0  0  0  0  0  0  0  0  0
  161.3870  207.9110  149.7470 C   0  0  0  0  0  3  0  0  0  0  0  0
  161.2110  205.9730  148.3070 O   0  0  0  0  0  0  0  0  0  0  0  0
  160.1940  210.5790  155.5390 C   0  0  0  0  0  3  0  0  0  0  0  0
  161.2840  210.0440  154.9970 C   0  0  0  0  0  3  0  0  0  0  0  0
  158.8480  212.5000  157.0630 C   0  0  0  0  0  1  0  0  0  0  0  0
  160.1940  211.2270  157.2590 P   0  0  2  0  0  0  0  0  0  0  0  0
  161.5210  212.3260  157.0570 O   0  0  0  0  0  1  0  0  0  0  0  0
  160.3410  203.4360  151.6770 C   0  0  0  0  0  2  0  0  0  0  0  0
  161.5790  202.9000  152.3820 C   0  0  0  0  0  2  0  0  0  0  0  0
  162.0530  201.7640  151.7240 O   0  0  0  0  0  1  0  0  0  0  0  0
  160.6150  204.1840  146.8060 C   0  0  0  0  0  2  0  0  0  0  0  0
  161.5960  203.8620  145.7740 N   0  0  0  0  0  0  0  0  0  0  0  0
  161.8680  205.8310  144.3010 C   0  0  1  0  0  3  0  0  0  0  0  0
  162.7020  206.1670  145.3550 F   0  0  0  0  0  0  0  0  0  0  0  0
  161.1800  204.4840  144.5170 C   0  0  2  0  0  3  0  0  0  0  0  0
  160.4380  205.7800  144.7930 C   0  0  0  0  0  2  0  0  0  0  0  0
  161.6690  202.4050  145.6080 C   0  0  0  0  0  2  0  0  0  0  0  0
  160.0270  201.6030  145.4630 S   0  0  0  0  0  0  0  0  0  0  0  0
  160.7420  199.9510  145.6840 C   0  0  0  0  0  1  0  0  0  0  0  0
  1 17  1  0  0  0  0
  2 14  2  0  0  0  0
  2  6  1  0  0  0  0
  3 11  2  0  0  0  0
  3 10  1  0  0  0  0
  4 10  1  0  0  0  0
  5  1  1  0  0  0  0
  6  4  2  0  0  0  0
  7  6  1  0  0  0  0
  7 21  1  0  0  0  0
  8 24  1  6  0  0  0
  8 15  1  0  0  0  0
  8 13  1  0  0  0  0
  9  1  2  0  0  0  0
 10  5  2  0  0  0  0
 11  9  1  0  0  0  0
 12 13  1  0  0  0  0
 13  7  2  0  0  0  0
 14  3  1  0  0  0  0
 15  2  1  0  0  0  0
 16 19  1  0  0  0  0
 17 16  2  0  0  0  0
 19 18  1  6  0  0  0
 20 19  1  0  0  0  0
 21 22  1  0  0  0  0
 23 22  1  0  0  0  0
 25 24  1  0  0  0  0
 26 28  1  0  0  0  0
 26 29  1  0  0  0  0
 26 27  1  1  0  0  0
 28 29  1  0  0  0  0
 28 25  1  1  0  0  0
 30 25  1  0  0  0  0
 31 30  1  0  0  0  0
 31 32  1  0  0  0  0
M  END
>  <MODEL>
4

>  <REMARK>
 VINA RESULT:      -5.9      2.214      3.953
  Name = 
  9 active torsions:
  status: ('A' for Active; 'I' for Inactive)
    1  A    between atoms: C_2  and  C_24
    2  A    between atoms: C_4  and  C_13
    3  A    between atoms: S_6  and  C_7
    4  A    between atoms: C_7  and  N_32
    5  A    between atoms: C_10  and  P_17
    6  A    between atoms: C_13  and  C_15
    7  A    between atoms: C_16  and  C_27
    8  A    between atoms: C_22  and  N_32
    9  A    between atoms: C_27  and  N_32
                            x       y       z     vdW  Elec       q    Type
                         _______ _______ _______ _____ _____    ______ ____

>  <TORSDO>
F 9

$$$$
=
 OpenBabel11062410503D

 32 35  0  0  1  0  0  0  0  0999 V2000
  160.6880  202.7570  150.0180 C   0  0  0  0  0  0  0  0  0  0  0  0
  161.5190  207.1160  152.3750 C   0  0  0  0  0  0  0  0  0  0  0  0
  161.0860  204.7920  151.9060 C   0  0  0  0  0  0  0  0  0  0  0  0
  161.3350  206.3660  150.1110 N   0  0  0  0  0  0  0  0  0  0  0  0
  160.9190  204.0700  149.5910 C   0  0  0  0  0  3  0  0  0  0  0  0
  161.5350  207.3790  151.0000 C   0  0  0  0  0  0  0  0  0  0  0  0
  161.7150  208.7710  150.5390 C   0  0  0  0  0  0  0  0  0  0  0  0
  162.2420  209.4270  152.8840 C   0  0  2  0  0  3  0  0  0  0  0  0
  160.6550  202.4680  151.3940 C   0  0  0  0  0  3  0  0  0  0  0  0
  161.1180  205.0890  150.5260 C   0  0  0  0  0  0  0  0  0  0  0  0
  160.8540  203.4830  152.3350 C   0  0  0  0  0  3  0  0  0  0  0  0
  162.1760  211.0910  150.9750 N   0  0  0  0  0  1  0  0  0  0  0  0
  161.9790  209.7500  151.4270 C   0  0  0  0  0  0  0  0  0  0  0  0
  161.2860  205.8170  152.8290 C   0  0  0  0  0  3  0  0  0  0  0  0
  161.7120  208.1570  153.2810 O   0  0  0  0  0  0  0  0  0  0  0  0
  160.3200  201.9810  147.7150 C   0  0  0  0  0  3  0  0  0  0  0  0
  160.4850  201.7110  149.0070 C   0  0  0  0  0  3  0  0  0  0  0  0
  161.7140  199.7920  146.6720 C   0  0  0  0  0  1  0  0  0  0  0  0
  160.0700  200.6450  146.4770 P   0  0  2  0  0  0  0  0  0  0  0  0
  160.5090  201.5810  145.0840 O   0  0  0  0  0  1  0  0  0  0  0  0
  161.5890  209.0830  149.0760 C   0  0  0  0  0  2  0  0  0  0  0  0
  162.6110  208.3020  148.2630 C   0  0  0  0  0  2  0  0  0  0  0  0
  161.9670  207.3850  147.4330 O   0  0  0  0  0  1  0  0  0  0  0  0
  161.6940  210.5110  153.7990 C   0  0  0  0  0  2  0  0  0  0  0  0
  160.2570  210.3300  153.9820 N   0  0  0  0  0  0  0  0  0  0  0  0
  158.4260  211.8250  153.2500 C   0  0  1  0  0  3  0  0  0  0  0  0
  158.2150  210.7240  152.4360 F   0  0  0  0  0  0  0  0  0  0  0  0
  159.6350  211.6410  154.1660 C   0  0  2  0  0  3  0  0  0  0  0  0
  159.7520  212.4610  152.8930 C   0  0  0  0  0  2  0  0  0  0  0  0
  160.0180  209.4950  155.1660 C   0  0  0  0  0  2  0  0  0  0  0  0
  161.1850  209.8230  156.5400 S   0  0  0  0  0  0  0  0  0  0  0  0
  161.5660  208.0590  156.7230 C   0  0  0  0  0  1  0  0  0  0  0  0
  1  9  1  0  0  0  0
  2 14  1  0  0  0  0
  2 15  1  0  0  0  0
  3 11  1  0  0  0  0
  3 14  2  0  0  0  0
  4 10  2  0  0  0  0
  4  6  1  0  0  0  0
  5  1  2  0  0  0  0
  5 10  1  0  0  0  0
  6  2  2  0  0  0  0
  7  6  1  0  0  0  0
  7 13  2  0  0  0  0
  8 15  1  0  0  0  0
  8 24  1  1  0  0  0
  9 11  2  0  0  0  0
 10  3  1  0  0  0  0
 12 13  1  0  0  0  0
 13  8  1  0  0  0  0
 16 17  2  0  0  0  0
 17  1  1  0  0  0  0
 19 18  1  1  0  0  0
 19 16  1  0  0  0  0
 20 19  1  0  0  0  0
 21  7  1  0  0  0  0
 22 21  1  0  0  0  0
 23 22  1  0  0  0  0
 24 25  1  0  0  0  0
 25 30  1  0  0  0  0
 26 27  1  6  0  0  0
 26 28  1  0  0  0  0
 28 25  1  6  0  0  0
 29 26  1  0  0  0  0
 29 28  1  0  0  0  0
 30 31  1  0  0  0  0
 31 32  1  0  0  0  0
M  END
>  <MODEL>
5

>  <REMARK>
 VINA RESULT:      -5.7      4.660      8.960
  Name = 
  9 active torsions:
  status: ('A' for Active; 'I' for Inactive)
    1  A    between atoms: C_2  and  C_24
    2  A    between atoms: C_4  and  C_13
    3  A    between atoms: S_6  and  C_7
    4  A    between atoms: C_7  and  N_32
    5  A    between atoms: C_10  and  P_17
    6  A    between atoms: C_13  and  C_15
    7  A    between atoms: C_16  and  C_27
    8  A    between atoms: C_22  and  N_32
    9  A    between atoms: C_27  and  N_32
                            x       y       z     vdW  Elec       q    Type
                         _______ _______ _______ _____ _____    ______ ____

>  <TORSDO>
F 9

$$$$
=
 OpenBabel11062410503D

 32 35  0  0  1  0  0  0  0  0999 V2000
  161.7520  205.3260  147.5090 C   0  0  0  0  0  0  0  0  0  0  0  0
  161.4100  208.5940  151.3100 C   0  0  0  0  0  0  0  0  0  0  0  0
  161.7050  207.6160  149.1270 C   0  0  0  0  0  0  0  0  0  0  0  0
  161.2210  206.2270  151.0240 N   0  0  0  0  0  0  0  0  0  0  0  0
  161.4910  205.2070  148.8790 C   0  0  0  0  0  3  0  0  0  0  0  0
  161.1870  207.3180  151.8410 C   0  0  0  0  0  0  0  0  0  0  0  0
  160.9730  207.1740  153.2950 C   0  0  0  0  0  0  0  0  0  0  0  0
  160.8340  209.6550  153.4700 C   0  0  2  0  0  3  0  0  0  0  0  0
  161.9910  206.5950  146.9540 C   0  0  0  0  0  3  0  0  0  0  0  0
  161.4660  206.3440  149.6920 C   0  0  0  0  0  0  0  0  0  0  0  0
  161.9670  207.7370  147.7610 C   0  0  0  0  0  3  0  0  0  0  0  0
  160.6450  208.1250  155.4790 N   0  0  0  0  0  1  0  0  0  0  0  0
  160.8760  208.2680  154.0770 C   0  0  0  0  0  0  0  0  0  0  0  0
  161.6780  208.7420  149.9480 C   0  0  0  0  0  3  0  0  0  0  0  0
  161.3870  209.7070  152.1500 O   0  0  0  0  0  0  0  0  0  0  0  0
  161.1850  202.9760  147.0650 C   0  0  0  0  0  3  0  0  0  0  0  0
  161.7680  204.1100  146.6850 C   0  0  0  0  0  3  0  0  0  0  0  0
  159.4900  201.5780  145.3340 C   0  0  0  0  0  1  0  0  0  0  0  0
  161.2240  201.4740  146.0060 P   0  0  2  0  0  0  0  0  0  0  0  0
  160.8680  200.3340  147.2660 O   0  0  0  0  0  1  0  0  0  0  0  0
  160.8780  205.8000  153.8910 C   0  0  0  0  0  2  0  0  0  0  0  0
  161.4400  204.7540  152.9390 C   0  0  0  0  0  2  0  0  0  0  0  0
  160.5340  203.7040  152.7900 O   0  0  0  0  0  1  0  0  0  0  0  0
  161.5470  210.6680  154.3540 C   0  0  0  0  0  2  0  0  0  0  0  0
  160.5900  211.6480  154.8600 N   0  0  0  0  0  0  0  0  0  0  0  0
  160.2130  212.6130  157.1070 C   0  0  1  0  0  3  0  0  0  0  0  0
  160.4620  213.7550  156.3620 F   0  0  0  0  0  0  0  0  0  0  0  0
  160.2970  211.3440  156.2600 C   0  0  2  0  0  3  0  0  0  0  0  0
  161.4620  211.7600  157.1420 C   0  0  0  0  0  2  0  0  0  0  0  0
  159.3560  211.5780  154.0670 C   0  0  0  0  0  2  0  0  0  0  0  0
  158.8490  213.1900  153.3580 S   0  0  0  0  0  0  0  0  0  0  0  0
  159.6830  212.8350  151.7870 C   0  0  0  0  0  1  0  0  0  0  0  0
  1  5  1  0  0  0  0
  2  6  1  0  0  0  0
  2 15  1  0  0  0  0
  3 10  1  0  0  0  0
  3 14  1  0  0  0  0
  4  6  2  0  0  0  0
  5 10  2  0  0  0  0
  6  7  1  0  0  0  0
  7 21  1  0  0  0  0
  7 13  2  0  0  0  0
  8 13  1  0  0  0  0
  8 24  1  1  0  0  0
  9  1  2  0  0  0  0
  9 11  1  0  0  0  0
 10  4  1  0  0  0  0
 11  3  2  0  0  0  0
 13 12  1  0  0  0  0
 14  2  2  0  0  0  0
 15  8  1  0  0  0  0
 17 16  2  0  0  0  0
 17  1  1  0  0  0  0
 19 18  1  6  0  0  0
 19 16  1  0  0  0  0
 19 20  1  0  0  0  0
 22 21  1  0  0  0  0
 23 22  1  0  0  0  0
 24 25  1  0  0  0  0
 26 27  1  6  0  0  0
 26 29  1  0  0  0  0
 28 25  1  6  0  0  0
 28 26  1  0  0  0  0
 28 29  1  0  0  0  0
 30 25  1  0  0  0  0
 31 30  1  0  0  0  0
 32 31  1  0  0  0  0
M  END
>  <MODEL>
6

>  <REMARK>
 VINA RESULT:      -5.6      4.949      9.794
  Name = 
  9 active torsions:
  status: ('A' for Active; 'I' for Inactive)
    1  A    between atoms: C_2  and  C_24
    2  A    between atoms: C_4  and  C_13
    3  A    between atoms: S_6  and  C_7
    4  A    between atoms: C_7  and  N_32
    5  A    between atoms: C_10  and  P_17
    6  A    between atoms: C_13  and  C_15
    7  A    between atoms: C_16  and  C_27
    8  A    between atoms: C_22  and  N_32
    9  A    between atoms: C_27  and  N_32
                            x       y       z     vdW  Elec       q    Type
                         _______ _______ _______ _____ _____    ______ ____

>  <TORSDO>
F 9

$$$$
=
 OpenBabel11062410503D

 32 35  0  0  1  0  0  0  0  0999 V2000
  161.5270  204.5780  146.8320 C   0  0  0  0  0  0  0  0  0  0  0  0
  161.3180  207.8040  150.6780 C   0  0  0  0  0  0  0  0  0  0  0  0
  161.4740  206.8540  148.4680 C   0  0  0  0  0  0  0  0  0  0  0  0
  161.2670  205.4310  150.3890 N   0  0  0  0  0  0  0  0  0  0  0  0
  161.4050  204.4380  148.2190 C   0  0  0  0  0  3  0  0  0  0  0  0
  161.2340  206.5150  151.2150 C   0  0  0  0  0  0  0  0  0  0  0  0
  161.1680  206.3520  152.6820 C   0  0  0  0  0  0  0  0  0  0  0  0
  160.8760  208.8170  152.8920 C   0  0  2  0  0  3  0  0  0  0  0  0
  161.6250  205.8630  146.2690 C   0  0  0  0  0  3  0  0  0  0  0  0
  161.3780  205.5680  149.0410 C   0  0  0  0  0  0  0  0  0  0  0  0
  161.5980  206.9970  147.0850 C   0  0  0  0  0  3  0  0  0  0  0  0
  160.9820  207.2720  154.8960 N   0  0  0  0  0  1  0  0  0  0  0  0
  161.0700  207.4340  153.4790 C   0  0  0  0  0  0  0  0  0  0  0  0
  161.4460  207.9740  149.2990 C   0  0  0  0  0  3  0  0  0  0  0  0
  161.2970  208.9100  151.5260 O   0  0  0  0  0  0  0  0  0  0  0  0
  160.8980  202.2560  146.3270 C   0  0  0  0  0  3  0  0  0  0  0  0
  161.5500  203.3680  145.9990 C   0  0  0  0  0  3  0  0  0  0  0  0
  159.1130  200.4730  145.1190 C   0  0  0  0  0  1  0  0  0  0  0  0
  160.9480  200.7610  145.2590 P   0  0  2  0  0  0  0  0  0  0  0  0
  161.2200  199.6160  146.5340 O   0  0  0  0  0  1  0  0  0  0  0  0
  161.2250  204.9730  153.2720 C   0  0  0  0  0  2  0  0  0  0  0  0
  160.4520  203.9820  152.4130 C   0  0  0  0  0  2  0  0  0  0  0  0
  161.2060  202.8240  152.2180 O   0  0  0  0  0  1  0  0  0  0  0  0
  161.5960  209.8750  153.7150 C   0  0  0  0  0  2  0  0  0  0  0  0
  160.6300  210.6410  154.4960 N   0  0  0  0  0  0  0  0  0  0  0  0
  158.7660  212.2040  154.0420 C   0  0  1  0  0  3  0  0  0  0  0  0
  158.1900  211.3660  154.9830 F   0  0  0  0  0  0  0  0  0  0  0  0
  160.2020  211.8000  153.7120 C   0  0  2  0  0  3  0  0  0  0  0  0
  159.0620  211.4150  152.7860 C   0  0  0  0  0  2  0  0  0  0  0  0
  161.2590  211.0910  155.7450 C   0  0  0  0  0  2  0  0  0  0  0  0
  162.3310  209.8230  156.5200 S   0  0  0  0  0  0  0  0  0  0  0  0
  163.4930  211.0800  157.1210 C   0  0  0  0  0  1  0  0  0  0  0  0
  1  5  1  0  0  0  0
  2  6  1  0  0  0  0
  2 15  1  0  0  0  0
  3 10  1  0  0  0  0
  3 14  1  0  0  0  0
  4  6  2  0  0  0  0
  5 10  2  0  0  0  0
  6  7  1  0  0  0  0
  7 21  1  0  0  0  0
  7 13  2  0  0  0  0
  8 13  1  0  0  0  0
  8 24  1  1  0  0  0
  9  1  2  0  0  0  0
  9 11  1  0  0  0  0
 10  4  1  0  0  0  0
 11  3  2  0  0  0  0
 13 12  1  0  0  0  0
 14  2  2  0  0  0  0
 15  8  1  0  0  0  0
 17 16  2  0  0  0  0
 17  1  1  0  0  0  0
 19 18  1  1  0  0  0
 19 16  1  0  0  0  0
 19 20  1  0  0  0  0
 22 21  1  0  0  0  0
 23 22  1  0  0  0  0
 24 25  1  0  0  0  0
 25 30  1  0  0  0  0
 26 27  1  1  0  0  0
 28 26  1  0  0  0  0
 28 25  1  1  0  0  0
 29 28  1  0  0  0  0
 29 26  1  0  0  0  0
 30 31  1  0  0  0  0
 31 32  1  0  0  0  0
M  END
>  <MODEL>
7

>  <REMARK>
 VINA RESULT:      -5.4      4.841      9.847
  Name = 
  9 active torsions:
  status: ('A' for Active; 'I' for Inactive)
    1  A    between atoms: C_2  and  C_24
    2  A    between atoms: C_4  and  C_13
    3  A    between atoms: S_6  and  C_7
    4  A    between atoms: C_7  and  N_32
    5  A    between atoms: C_10  and  P_17
    6  A    between atoms: C_13  and  C_15
    7  A    between atoms: C_16  and  C_27
    8  A    between atoms: C_22  and  N_32
    9  A    between atoms: C_27  and  N_32
                            x       y       z     vdW  Elec       q    Type
                         _______ _______ _______ _____ _____    ______ ____

>  <TORSDO>
F 9

$$$$
=
 OpenBabel11062410503D

 32 35  0  0  1  0  0  0  0  0999 V2000
  160.9090  203.2850  149.8210 C   0  0  0  0  0  0  0  0  0  0  0  0
  161.1790  207.2770  152.8600 C   0  0  0  0  0  0  0  0  0  0  0  0
  161.0400  205.0230  152.0170 C   0  0  0  0  0  0  0  0  0  0  0  0
  161.1030  206.8840  150.5020 N   0  0  0  0  0  0  0  0  0  0  0  0
  160.9780  204.6680  149.6140 C   0  0  0  0  0  3  0  0  0  0  0  0
  161.1710  207.7580  151.5450 C   0  0  0  0  0  0  0  0  0  0  0  0
  161.1800  209.2170  151.3160 C   0  0  0  0  0  0  0  0  0  0  0  0
  161.6070  209.5460  153.7480 C   0  0  2  0  0  3  0  0  0  0  0  0
  160.9030  202.7780  151.1320 C   0  0  0  0  0  3  0  0  0  0  0  0
  161.0440  205.5400  150.7040 C   0  0  0  0  0  0  0  0  0  0  0  0
  160.9690  203.6450  152.2270 C   0  0  0  0  0  3  0  0  0  0  0  0
  161.3480  211.4750  152.1260 N   0  0  0  0  0  1  0  0  0  0  0  0
  161.3150  210.0650  152.3550 C   0  0  0  0  0  0  0  0  0  0  0  0
  161.1050  205.9040  153.0960 C   0  0  0  0  0  3  0  0  0  0  0  0
  161.2360  208.1750  153.9250 O   0  0  0  0  0  0  0  0  0  0  0  0
  161.2560  202.7700  147.4430 C   0  0  0  0  0  3  0  0  0  0  0  0
  160.8430  202.3980  148.6510 C   0  0  0  0  0  3  0  0  0  0  0  0
  159.3150  201.6780  145.7500 C   0  0  0  0  0  1  0  0  0  0  0  0
  161.1600  201.6320  146.0020 P   0  0  2  0  0  0  0  0  0  0  0  0
  161.1880  200.1560  146.9140 O   0  0  0  0  0  1  0  0  0  0  0  0
  161.0260  209.7420  149.9180 C   0  0  0  0  0  2  0  0  0  0  0  0
  162.3840  209.9790  149.2730 C   0  0  0  0  0  2  0  0  0  0  0  0
  162.3190  211.0650  148.4010 O   0  0  0  0  0  1  0  0  0  0  0  0
  160.9220  210.3950  154.8100 C   0  0  0  0  0  2  0  0  0  0  0  0
  159.4840  210.1480  154.7940 N   0  0  0  0  0  0  0  0  0  0  0  0
  158.1090  212.0610  154.0370 C   0  0  1  0  0  3  0  0  0  0  0  0
  158.3270  211.3980  152.8410 F   0  0  0  0  0  0  0  0  0  0  0  0
  158.7910  211.3660  155.2150 C   0  0  2  0  0  3  0  0  0  0  0  0
  159.4270  212.5820  154.5660 C   0  0  0  0  0  2  0  0  0  0  0  0
  159.1670  209.0510  155.7170 C   0  0  0  0  0  2  0  0  0  0  0  0
  160.1560  209.0870  157.2600 S   0  0  0  0  0  0  0  0  0  0  0  0
  160.4770  207.3040  157.1720 C   0  0  0  0  0  1  0  0  0  0  0  0
  1  9  1  0  0  0  0
  2 14  1  0  0  0  0
  2 15  1  0  0  0  0
  3 11  1  0  0  0  0
  3 14  2  0  0  0  0
  4 10  2  0  0  0  0
  4  6  1  0  0  0  0
  5  1  2  0  0  0  0
  5 10  1  0  0  0  0
  6  2  2  0  0  0  0
  7  6  1  0  0  0  0
  7 13  2  0  0  0  0
  8 15  1  0  0  0  0
  8 24  1  1  0  0  0
  9 11  2  0  0  0  0
 10  3  1  0  0  0  0
 12 13  1  0  0  0  0
 13  8  1  0  0  0  0
 16 17  2  0  0  0  0
 17  1  1  0  0  0  0
 19 18  1  1  0  0  0
 19 20  1  0  0  0  0
 19 16  1  0  0  0  0
 21  7  1  0  0  0  0
 22 21  1  0  0  0  0
 23 22  1  0  0  0  0
 25 24  1  0  0  0  0
 25 30  1  0  0  0  0
 26 27  1  6  0  0  0
 26 29  1  0  0  0  0
 26 28  1  0  0  0  0
 28 25  1  6  0  0  0
 29 28  1  0  0  0  0
 30 31  1  0  0  0  0
 32 31  1  0  0  0  0
M  END
>  <MODEL>
8

>  <REMARK>
 VINA RESULT:      -5.4      4.668      9.054
  Name = 
  9 active torsions:
  status: ('A' for Active; 'I' for Inactive)
    1  A    between atoms: C_2  and  C_24
    2  A    between atoms: C_4  and  C_13
    3  A    between atoms: S_6  and  C_7
    4  A    between atoms: C_7  and  N_32
    5  A    between atoms: C_10  and  P_17
    6  A    between atoms: C_13  and  C_15
    7  A    between atoms: C_16  and  C_27
    8  A    between atoms: C_22  and  N_32
    9  A    between atoms: C_27  and  N_32
                            x       y       z     vdW  Elec       q    Type
                         _______ _______ _______ _____ _____    ______ ____

>  <TORSDO>
F 9

$$$$
=
 OpenBabel11062410503D

 32 35  0  0  1  0  0  0  0  0999 V2000
  161.0130  202.2810  149.1960 C   0  0  0  0  0  0  0  0  0  0  0  0
  161.0630  206.1930  152.3480 C   0  0  0  0  0  0  0  0  0  0  0  0
  160.9010  203.9700  151.4310 C   0  0  0  0  0  0  0  0  0  0  0  0
  161.3580  205.8420  150.0000 N   0  0  0  0  0  0  0  0  0  0  0  0
  161.2190  203.6570  149.0420 C   0  0  0  0  0  3  0  0  0  0  0  0
  161.3140  206.6930  151.0640 C   0  0  0  0  0  0  0  0  0  0  0  0
  161.4700  208.1500  150.8810 C   0  0  0  0  0  0  0  0  0  0  0  0
  161.5040  208.4090  153.3580 C   0  0  2  0  0  3  0  0  0  0  0  0
  160.7480  201.7560  150.4730 C   0  0  0  0  0  3  0  0  0  0  0  0
  161.1650  204.5050  150.1520 C   0  0  0  0  0  0  0  0  0  0  0  0
  160.6930  202.5980  151.5870 C   0  0  0  0  0  3  0  0  0  0  0  0
  161.6670  210.3760  151.7710 N   0  0  0  0  0  1  0  0  0  0  0  0
  161.4910  208.9690  151.9510 C   0  0  0  0  0  0  0  0  0  0  0  0
  160.8490  204.8270  152.5300 C   0  0  0  0  0  3  0  0  0  0  0  0
  161.0070  207.0680  153.4320 O   0  0  0  0  0  0  0  0  0  0  0  0
  161.1100  201.9040  146.7690 C   0  0  0  0  0  3  0  0  0  0  0  0
  161.0800  201.4190  148.0070 C   0  0  0  0  0  3  0  0  0  0  0  0
  159.3810  200.7680  144.8860 C   0  0  0  0  0  1  0  0  0  0  0  0
  161.1960  200.7950  145.3050 P   0  0  2  0  0  0  0  0  0  0  0  0
  161.2060  199.3010  146.1880 O   0  0  0  0  0  1  0  0  0  0  0  0
  161.5930  208.7070  149.4920 C   0  0  0  0  0  2  0  0  0  0  0  0
  162.2810  210.0650  149.5100 C   0  0  0  0  0  2  0  0  0  0  0  0
  162.2220  210.6500  148.2450 O   0  0  0  0  0  1  0  0  0  0  0  0
  160.7150  209.2920  154.3140 C   0  0  0  0  0  2  0  0  0  0  0  0
  161.5060  209.5610  155.5110 N   0  0  0  0  0  0  0  0  0  0  0  0
  161.2100  207.8320  157.2560 C   0  0  1  0  0  3  0  0  0  0  0  0
  162.2450  207.2890  156.5130 F   0  0  0  0  0  0  0  0  0  0  0  0
  160.7300  209.1670  156.6870 C   0  0  2  0  0  3  0  0  0  0  0  0
  159.9610  207.8880  156.4030 C   0  0  0  0  0  2  0  0  0  0  0  0
  161.8170  210.9950  155.5780 C   0  0  0  0  0  2  0  0  0  0  0  0
  160.7750  211.9140  156.7730 S   0  0  0  0  0  0  0  0  0  0  0  0
  159.6790  212.5120  155.4580 C   0  0  0  0  0  1  0  0  0  0  0  0
  1  9  1  0  0  0  0
  2 14  1  0  0  0  0
  2 15  1  0  0  0  0
  3 11  1  0  0  0  0
  3 14  2  0  0  0  0
  4 10  2  0  0  0  0
  4  6  1  0  0  0  0
  5  1  2  0  0  0  0
  5 10  1  0  0  0  0
  6  2  2  0  0  0  0
  7  6  1  0  0  0  0
  7 13  2  0  0  0  0
  8 15  1  0  0  0  0
  8 24  1  1  0  0  0
  9 11  2  0  0  0  0
 10  3  1  0  0  0  0
 12 13  1  0  0  0  0
 13  8  1  0  0  0  0
 16 17  2  0  0  0  0
 17  1  1  0  0  0  0
 19 18  1  6  0  0  0
 19 20  1  0  0  0  0
 19 16  1  0  0  0  0
 21 22  1  0  0  0  0
 21  7  1  0  0  0  0
 23 22  1  0  0  0  0
 24 25  1  0  0  0  0
 25 30  1  0  0  0  0
 26 27  1  6  0  0  0
 28 25  1  6  0  0  0
 28 26  1  0  0  0  0
 29 28  1  0  0  0  0
 29 26  1  0  0  0  0
 30 31  1  0  0  0  0
 32 31  1  0  0  0  0
M  END
>  <MODEL>
9

>  <REMARK>
 VINA RESULT:      -5.2      4.819      9.229
  Name = 
  9 active torsions:
  status: ('A' for Active; 'I' for Inactive)
    1  A    between atoms: C_2  and  C_24
    2  A    between atoms: C_4  and  C_13
    3  A    between atoms: S_6  and  C_7
    4  A    between atoms: C_7  and  N_32
    5  A    between atoms: C_10  and  P_17
    6  A    between atoms: C_13  and  C_15
    7  A    between atoms: C_16  and  C_27
    8  A    between atoms: C_22  and  N_32
    9  A    between atoms: C_27  and  N_32
                            x       y       z     vdW  Elec       q    Type
                         _______ _______ _______ _____ _____    ______ ____

>  <TORSDO>
F 9

$$$$
