=
 OpenBabel11062410403D

 32 37  0  0  1  0  0  0  0  0999 V2000
  157.5050  213.3060  146.3000 C   0  0  0  0  0  0  0  0  0  0  0  0
  160.8530  212.0230  147.3030 C   0  0  0  0  0  2  0  0  0  0  0  0
  159.4400  212.0160  151.9790 C   0  0  0  0  0  2  0  0  0  0  0  0
  162.3060  206.8640  151.1590 C   0  0  0  0  0  2  0  0  0  0  0  0
  161.1130  206.4290  152.0150 C   0  0  0  0  0  2  0  0  0  0  0  0
  160.5100  213.3800  150.1180 C   0  0  0  0  0  0  0  0  0  0  0  0
  162.1330  211.4680  150.4700 C   0  0  0  0  0  2  0  0  0  0  0  0
  158.6420  212.5190  146.1990 C   0  0  0  0  0  3  0  0  0  0  0  0
  161.9130  212.6400  148.2110 C   0  0  0  0  0  2  0  0  0  0  0  0
  161.9830  208.1620  150.4110 C   0  0  0  0  0  2  0  0  0  0  0  0
  161.0360  210.5860  151.0260 C   0  0  1  0  0  3  0  0  0  0  0  0
  161.4040  209.1810  151.3480 C   0  0  0  0  0  0  0  0  0  0  0  0
  160.1540  210.0170  153.0110 N   0  0  0  0  0  0  0  0  0  0  0  0
  157.6230  214.3490  147.6070 S   0  0  0  0  0  0  0  0  0  0  0  0
  159.1380  213.8060  148.0920 C   0  0  0  0  0  0  0  0  0  0  0  0
  156.3930  213.2380  145.4170 N   0  0  0  0  0  1  0  0  0  0  0  0
  161.4890  212.5560  149.6480 C   0  0  0  0  0  0  0  0  0  0  0  0
  159.9100  214.4200  149.2170 C   0  0  0  0  0  2  0  0  0  0  0  0
  159.5760  212.8130  147.2010 C   0  0  0  0  0  0  0  0  0  0  0  0
  160.7860  207.4930  153.0680 C   0  0  0  0  0  2  0  0  0  0  0  0
  160.7600  208.8630  152.4520 C   0  0  0  0  0  0  0  0  0  0  0  0
  160.0010  213.3690  151.5430 C   0  0  0  0  0  2  0  0  0  0  0  0
  160.5640  211.1500  152.2880 N   0  0  2  0  0  0  0  0  0  0  0  0
  159.6810  210.0950  154.3910 C   0  0  0  0  0  2  0  0  0  0  0  0
  161.8540  210.6800  155.3410 C   0  0  0  0  0  3  0  0  0  0  0  0
  162.9580  210.4740  156.2840 C   0  0  0  0  0  0  0  0  0  0  0  0
  160.7720  208.7110  156.2790 C   0  0  0  0  0  0  0  0  0  0  0  0
  162.0200  208.2980  157.0050 C   0  0  0  0  0  2  0  0  0  0  0  0
  162.9250  209.3930  157.1700 O   0  0  0  0  0  0  0  0  0  0  0  0
  163.9130  211.2920  156.3240 O   0  0  0  0  0  0  0  0  0  0  0  0
  159.7180  208.0390  156.4290 O   0  0  0  0  0  0  0  0  0  0  0  0
  160.8060  209.8560  155.3460 C   0  0  0  0  0  0  0  0  0  0  0  0
  1 14  1  0  0  0  0
  2  9  1  0  0  0  0
  4  5  1  0  0  0  0
  5 20  1  0  0  0  0
  6 22  1  0  0  0  0
  8  1  2  0  0  0  0
  8 19  1  0  0  0  0
  9 17  1  0  0  0  0
 10  4  1  0  0  0  0
 10 12  1  0  0  0  0
 11  7  1  1  0  0  0
 11 12  1  0  0  0  0
 11 23  1  0  0  0  0
 12 21  2  0  0  0  0
 13 24  1  0  0  0  0
 14 15  1  0  0  0  0
 15 18  1  0  0  0  0
 16  1  1  0  0  0  0
 17  6  2  0  0  0  0
 17  7  1  0  0  0  0
 18  6  1  0  0  0  0
 19  2  1  0  0  0  0
 19 15  2  0  0  0  0
 21 13  1  0  0  0  0
 21 20  1  0  0  0  0
 22  3  1  0  0  0  0
 23  3  1  6  0  0  0
 23 13  1  0  0  0  0
 24 32  1  0  0  0  0
 25 32  2  0  0  0  0
 25 26  1  0  0  0  0
 26 30  2  0  0  0  0
 26 29  1  0  0  0  0
 27 31  2  0  0  0  0
 27 28  1  0  0  0  0
 28 29  1  0  0  0  0
 32 27  1  0  0  0  0
M  END
>  <MODEL>
1

>  <REMARK>
 VINA RESULT:      -5.8      0.000      0.000
  Name = 
  2 active torsions:
  status: ('A' for Active; 'I' for Inactive)
    1  A    between atoms: N_16  and  C_27
    2  A    between atoms: C_27  and  C_32
                            x       y       z     vdW  Elec       q    Type
                         _______ _______ _______ _____ _____    ______ ____

>  <TORSDO>
F 2

$$$$
=
 OpenBabel11062410403D

 32 37  0  0  1  0  0  0  0  0999 V2000
  160.9130  206.1880  149.7330 C   0  0  0  0  0  0  0  0  0  0  0  0
  160.7710  207.5000  153.2130 C   0  0  0  0  0  2  0  0  0  0  0  0
  160.0570  212.0100  151.4760 C   0  0  0  0  0  2  0  0  0  0  0  0
  156.2030  211.3910  155.9700 C   0  0  0  0  0  2  0  0  0  0  0  0
  155.3530  212.1150  154.9220 C   0  0  0  0  0  2  0  0  0  0  0  0
  161.7920  210.2900  152.1850 C   0  0  0  0  0  0  0  0  0  0  0  0
  160.5150  210.7690  154.3180 C   0  0  0  0  0  2  0  0  0  0  0  0
  160.5560  206.1880  151.0720 C   0  0  0  0  0  3  0  0  0  0  0  0
  161.6590  208.5210  153.9190 C   0  0  0  0  0  2  0  0  0  0  0  0
  157.3550  210.6380  155.2960 C   0  0  0  0  0  2  0  0  0  0  0  0
  159.2910  211.1970  153.5380 C   0  0  1  0  0  3  0  0  0  0  0  0
  158.0740  211.5300  154.3270 C   0  0  0  0  0  0  0  0  0  0  0  0
  158.3610  213.0730  152.7260 N   0  0  0  0  0  0  0  0  0  0  0  0
  161.8690  207.5190  149.3760 S   0  0  0  0  0  0  0  0  0  0  0  0
  161.8380  208.1440  150.9350 C   0  0  0  0  0  0  0  0  0  0  0  0
  160.5220  205.1970  148.7910 N   0  0  0  0  0  1  0  0  0  0  0  0
  161.3660  209.9060  153.4210 C   0  0  0  0  0  0  0  0  0  0  0  0
  162.6160  209.3520  151.3520 C   0  0  0  0  0  2  0  0  0  0  0  0
  161.0940  207.2840  151.7590 C   0  0  0  0  0  0  0  0  0  0  0  0
  156.1930  213.1490  154.1640 C   0  0  0  0  0  2  0  0  0  0  0  0
  157.5050  212.5580  153.7330 C   0  0  0  0  0  0  0  0  0  0  0  0
  161.5400  211.6560  151.5850 C   0  0  0  0  0  2  0  0  0  0  0  0
  159.6020  212.4150  152.7940 N   0  0  2  0  0  0  0  0  0  0  0  0
  158.2080  214.3990  152.1350 C   0  0  0  0  0  2  0  0  0  0  0  0
  156.1060  214.3440  150.8920 C   0  0  0  0  0  3  0  0  0  0  0  0
  155.3340  214.2880  149.6460 C   0  0  0  0  0  0  0  0  0  0  0  0
  158.1400  214.1960  149.5600 C   0  0  0  0  0  0  0  0  0  0  0  0
  157.3750  213.8070  148.3290 C   0  0  0  0  0  2  0  0  0  0  0  0
  155.9960  214.1750  148.4200 O   0  0  0  0  0  0  0  0  0  0  0  0
  154.0790  214.3810  149.6780 O   0  0  0  0  0  0  0  0  0  0  0  0
  159.3860  214.3590  149.4900 O   0  0  0  0  0  0  0  0  0  0  0  0
  157.4380  214.3190  150.8550 C   0  0  0  0  0  0  0  0  0  0  0  0
  1  8  2  0  0  0  0
  2  9  1  0  0  0  0
  3 22  1  0  0  0  0
  5  4  1  0  0  0  0
  6 17  2  0  0  0  0
  8 19  1  0  0  0  0
 10  4  1  0  0  0  0
 11  7  1  1  0  0  0
 11 12  1  0  0  0  0
 12 10  1  0  0  0  0
 13 23  1  0  0  0  0
 13 21  1  0  0  0  0
 14  1  1  0  0  0  0
 14 15  1  0  0  0  0
 15 18  1  0  0  0  0
 15 19  2  0  0  0  0
 16  1  1  0  0  0  0
 17  9  1  0  0  0  0
 17  7  1  0  0  0  0
 18  6  1  0  0  0  0
 19  2  1  0  0  0  0
 20  5  1  0  0  0  0
 21 20  1  0  0  0  0
 21 12  2  0  0  0  0
 22  6  1  0  0  0  0
 23  3  1  6  0  0  0
 23 11  1  0  0  0  0
 24 13  1  0  0  0  0
 26 30  2  0  0  0  0
 26 25  1  0  0  0  0
 27 32  1  0  0  0  0
 28 29  1  0  0  0  0
 28 27  1  0  0  0  0
 29 26  1  0  0  0  0
 31 27  2  0  0  0  0
 32 25  2  0  0  0  0
 32 24  1  0  0  0  0
M  END
>  <MODEL>
2

>  <REMARK>
 VINA RESULT:      -5.4      4.249      7.499
  Name = 
  2 active torsions:
  status: ('A' for Active; 'I' for Inactive)
    1  A    between atoms: N_16  and  C_27
    2  A    between atoms: C_27  and  C_32
                            x       y       z     vdW  Elec       q    Type
                         _______ _______ _______ _____ _____    ______ ____

>  <TORSDO>
F 2

$$$$
=
 OpenBabel11062410403D

 32 37  0  0  1  0  0  0  0  0999 V2000
  160.9300  206.0060  149.9400 C   0  0  0  0  0  0  0  0  0  0  0  0
  160.8530  207.4650  153.3630 C   0  0  0  0  0  2  0  0  0  0  0  0
  160.0000  211.8800  151.4550 C   0  0  0  0  0  2  0  0  0  0  0  0
  156.2800  211.3800  156.0760 C   0  0  0  0  0  2  0  0  0  0  0  0
  155.3870  212.0410  155.0210 C   0  0  0  0  0  2  0  0  0  0  0  0
  161.7880  210.2270  152.1890 C   0  0  0  0  0  0  0  0  0  0  0  0
  160.5590  210.7740  154.3340 C   0  0  0  0  0  2  0  0  0  0  0  0
  160.6090  206.0570  151.2870 C   0  0  0  0  0  3  0  0  0  0  0  0
  161.7390  208.5330  154.0000 C   0  0  0  0  0  2  0  0  0  0  0  0
  157.4300  210.6210  155.4030 C   0  0  0  0  0  2  0  0  0  0  0  0
  159.3060  211.1420  153.5710 C   0  0  1  0  0  3  0  0  0  0  0  0
  158.1040  211.4850  154.3780 C   0  0  0  0  0  0  0  0  0  0  0  0
  158.3150  212.9620  152.7050 N   0  0  0  0  0  0  0  0  0  0  0  0
  161.8480  207.3390  149.5000 S   0  0  0  0  0  0  0  0  0  0  0  0
  161.8460  208.0300  151.0320 C   0  0  0  0  0  0  0  0  0  0  0  0
  160.5360  204.9680  149.0530 N   0  0  0  0  0  1  0  0  0  0  0  0
  161.4040  209.8890  153.4520 C   0  0  0  0  0  0  0  0  0  0  0  0
  162.6100  209.2700  151.3750 C   0  0  0  0  0  2  0  0  0  0  0  0
  161.1420  207.1920  151.9120 C   0  0  0  0  0  0  0  0  0  0  0  0
  156.1850  213.0570  154.1960 C   0  0  0  0  0  2  0  0  0  0  0  0
  157.4970  212.4740  153.7560 C   0  0  0  0  0  0  0  0  0  0  0  0
  161.4920  211.5610  151.5380 C   0  0  0  0  0  2  0  0  0  0  0  0
  159.5710  212.3330  152.7660 N   0  0  2  0  0  0  0  0  0  0  0  0
  158.1180  214.2580  152.0610 C   0  0  0  0  0  2  0  0  0  0  0  0
  158.3060  213.7400  149.6820 C   0  0  0  0  0  3  0  0  0  0  0  0
  157.7350  213.5460  148.3450 C   0  0  0  0  0  0  0  0  0  0  0  0
  156.0770  214.3090  150.4800 C   0  0  0  0  0  0  0  0  0  0  0  0
  155.5460  214.4400  149.0810 C   0  0  0  0  0  2  0  0  0  0  0  0
  156.3690  213.7530  148.1340 O   0  0  0  0  0  0  0  0  0  0  0  0
  158.4660  213.1530  147.3990 O   0  0  0  0  0  0  0  0  0  0  0  0
  155.2930  214.4490  151.4550 O   0  0  0  0  0  0  0  0  0  0  0  0
  157.5200  214.0860  150.7020 C   0  0  0  0  0  0  0  0  0  0  0  0
  1  8  2  0  0  0  0
  2  9  1  0  0  0  0
  3 22  1  0  0  0  0
  5  4  1  0  0  0  0
  6 17  2  0  0  0  0
  8 19  1  0  0  0  0
 10  4  1  0  0  0  0
 11  7  1  1  0  0  0
 11 12  1  0  0  0  0
 12 10  1  0  0  0  0
 13 23  1  0  0  0  0
 13 21  1  0  0  0  0
 14  1  1  0  0  0  0
 14 15  1  0  0  0  0
 15 18  1  0  0  0  0
 15 19  2  0  0  0  0
 16  1  1  0  0  0  0
 17  9  1  0  0  0  0
 17  7  1  0  0  0  0
 18  6  1  0  0  0  0
 19  2  1  0  0  0  0
 20  5  1  0  0  0  0
 21 20  1  0  0  0  0
 21 12  2  0  0  0  0
 22  6  1  0  0  0  0
 23  3  1  6  0  0  0
 23 11  1  0  0  0  0
 24 13  1  0  0  0  0
 25 32  2  0  0  0  0
 26 25  1  0  0  0  0
 27 32  1  0  0  0  0
 27 31  2  0  0  0  0
 28 27  1  0  0  0  0
 29 26  1  0  0  0  0
 29 28  1  0  0  0  0
 30 26  2  0  0  0  0
 32 24  1  0  0  0  0
M  END
>  <MODEL>
3

>  <REMARK>
 VINA RESULT:      -5.1      4.217      7.432
  Name = 
  2 active torsions:
  status: ('A' for Active; 'I' for Inactive)
    1  A    between atoms: N_16  and  C_27
    2  A    between atoms: C_27  and  C_32
                            x       y       z     vdW  Elec       q    Type
                         _______ _______ _______ _____ _____    ______ ____

>  <TORSDO>
F 2

$$$$
=
 OpenBabel11062410403D

 32 37  0  0  1  0  0  0  0  0999 V2000
  160.9180  205.8350  150.7230 C   0  0  0  0  0  0  0  0  0  0  0  0
  160.7940  207.9190  153.8040 C   0  0  0  0  0  2  0  0  0  0  0  0
  160.1290  211.9110  151.0680 C   0  0  0  0  0  2  0  0  0  0  0  0
  156.2720  212.3930  155.5770 C   0  0  0  0  0  2  0  0  0  0  0  0
  155.4290  212.8630  154.3880 C   0  0  0  0  0  2  0  0  0  0  0  0
  161.8450  210.3840  152.1590 C   0  0  0  0  0  0  0  0  0  0  0  0
  160.5760  211.3580  154.1210 C   0  0  0  0  0  2  0  0  0  0  0  0
  160.5630  206.1490  152.0250 C   0  0  0  0  0  3  0  0  0  0  0  0
  161.6950  209.0660  154.2550 C   0  0  0  0  0  2  0  0  0  0  0  0
  157.4150  211.4910  155.0980 C   0  0  0  0  0  2  0  0  0  0  0  0
  159.3560  211.6070  153.2610 C   0  0  1  0  0  3  0  0  0  0  0  0
  158.1430  212.1270  153.9500 C   0  0  0  0  0  0  0  0  0  0  0  0
  158.4450  213.2530  152.0350 N   0  0  0  0  0  0  0  0  0  0  0  0
  161.8890  207.0360  150.0690 S   0  0  0  0  0  0  0  0  0  0  0  0
  161.8660  208.0060  151.4410 C   0  0  0  0  0  0  0  0  0  0  0  0
  160.5160  204.6570  150.0360 N   0  0  0  0  0  1  0  0  0  0  0  0
  161.4160  210.3020  153.4500 C   0  0  0  0  0  0  0  0  0  0  0  0
  162.6580  209.2690  151.5680 C   0  0  0  0  0  2  0  0  0  0  0  0
  161.1130  207.3690  152.4410 C   0  0  0  0  0  0  0  0  0  0  0  0
  156.2790  213.6840  153.4120 C   0  0  0  0  0  2  0  0  0  0  0  0
  157.5840  212.9950  153.1320 C   0  0  0  0  0  0  0  0  0  0  0  0
  161.6080  211.5760  151.2590 C   0  0  0  0  0  2  0  0  0  0  0  0
  159.6790  212.6160  152.2550 N   0  0  2  0  0  0  0  0  0  0  0  0
  158.3060  214.4080  151.1520 C   0  0  0  0  0  2  0  0  0  0  0  0
  159.3350  213.8860  148.9990 C   0  0  0  0  0  3  0  0  0  0  0  0
  159.2730  213.4400  147.6030 C   0  0  0  0  0  0  0  0  0  0  0  0
  156.9130  213.6510  149.1130 C   0  0  0  0  0  0  0  0  0  0  0  0
  156.7970  213.5200  147.6220 C   0  0  0  0  0  2  0  0  0  0  0  0
  158.0380  213.1330  147.0240 O   0  0  0  0  0  0  0  0  0  0  0  0
  160.3330  213.2940  146.9410 O   0  0  0  0  0  0  0  0  0  0  0  0
  155.8810  213.5450  149.8260 O   0  0  0  0  0  0  0  0  0  0  0  0
  158.2200  213.9710  149.7240 C   0  0  0  0  0  0  0  0  0  0  0  0
  1  8  2  0  0  0  0
  2  9  1  0  0  0  0
  3 22  1  0  0  0  0
  5  4  1  0  0  0  0
  6 17  2  0  0  0  0
  8 19  1  0  0  0  0
 10  4  1  0  0  0  0
 11 12  1  0  0  0  0
 11  7  1  1  0  0  0
 12 10  1  0  0  0  0
 13 23  1  0  0  0  0
 13 21  1  0  0  0  0
 14  1  1  0  0  0  0
 14 15  1  0  0  0  0
 15 18  1  0  0  0  0
 15 19  2  0  0  0  0
 16  1  1  0  0  0  0
 17  7  1  0  0  0  0
 17  9  1  0  0  0  0
 18  6  1  0  0  0  0
 19  2  1  0  0  0  0
 20  5  1  0  0  0  0
 21 20  1  0  0  0  0
 21 12  2  0  0  0  0
 22  6  1  0  0  0  0
 23  3  1  6  0  0  0
 23 11  1  0  0  0  0
 24 13  1  0  0  0  0
 25 32  2  0  0  0  0
 26 25  1  0  0  0  0
 27 32  1  0  0  0  0
 27 31  2  0  0  0  0
 28 27  1  0  0  0  0
 29 26  1  0  0  0  0
 29 28  1  0  0  0  0
 30 26  2  0  0  0  0
 32 24  1  0  0  0  0
M  END
>  <MODEL>
4

>  <REMARK>
 VINA RESULT:      -4.6      4.148      7.581
  Name = 
  2 active torsions:
  status: ('A' for Active; 'I' for Inactive)
    1  A    between atoms: N_16  and  C_27
    2  A    between atoms: C_27  and  C_32
                            x       y       z     vdW  Elec       q    Type
                         _______ _______ _______ _____ _____    ______ ____

>  <TORSDO>
F 2

$$$$
=
 OpenBabel11062410403D

 32 37  0  0  1  0  0  0  0  0999 V2000
  157.0350  213.8590  148.9150 C   0  0  0  0  0  0  0  0  0  0  0  0
  159.5740  211.9370  146.9870 C   0  0  0  0  0  2  0  0  0  0  0  0
  161.4420  210.2290  151.1650 C   0  0  0  0  0  2  0  0  0  0  0  0
  161.1700  205.5500  147.4960 C   0  0  0  0  0  2  0  0  0  0  0  0
  160.6990  204.9410  148.8200 C   0  0  0  0  0  2  0  0  0  0  0  0
  161.5330  212.0970  149.4410 C   0  0  0  0  0  0  0  0  0  0  0  0
  162.2310  210.0410  148.1370 C   0  0  0  0  0  2  0  0  0  0  0  0
  157.5030  213.0610  147.8830 C   0  0  0  0  0  3  0  0  0  0  0  0
  161.0970  212.0280  147.0000 C   0  0  0  0  0  2  0  0  0  0  0  0
  160.9350  207.0640  147.4900 C   0  0  0  0  0  2  0  0  0  0  0  0
  161.4880  209.1320  149.0920 C   0  0  1  0  0  3  0  0  0  0  0  0
  161.4560  207.6840  148.7540 C   0  0  0  0  0  0  0  0  0  0  0  0
  161.8830  207.9210  150.9420 N   0  0  0  0  0  0  0  0  0  0  0  0
  158.2850  214.2810  149.9500 S   0  0  0  0  0  0  0  0  0  0  0  0
  159.4660  213.4330  149.1070 C   0  0  0  0  0  0  0  0  0  0  0  0
  155.6820  214.2640  149.0740 N   0  0  0  0  0  1  0  0  0  0  0  0
  161.6500  211.4270  148.2600 C   0  0  0  0  0  0  0  0  0  0  0  0
  160.9170  213.4650  149.4680 C   0  0  0  0  0  2  0  0  0  0  0  0
  158.8820  212.8330  147.9790 C   0  0  0  0  0  0  0  0  0  0  0  0
  161.4860  205.5290  149.9970 C   0  0  0  0  0  2  0  0  0  0  0  0
  161.5670  207.0250  149.8890 C   0  0  0  0  0  0  0  0  0  0  0  0
  162.0430  211.5760  150.7670 C   0  0  0  0  0  2  0  0  0  0  0  0
  162.1260  209.1980  150.4050 N   0  0  2  0  0  0  0  0  0  0  0  0
  162.4230  207.4970  152.2310 C   0  0  0  0  0  2  0  0  0  0  0  0
  161.1630  209.0640  153.6170 C   0  0  0  0  0  3  0  0  0  0  0  0
  160.2010  209.3760  154.6790 C   0  0  0  0  0  0  0  0  0  0  0  0
  160.8380  206.7000  154.1070 C   0  0  0  0  0  0  0  0  0  0  0  0
  160.1230  207.0050  155.3920 C   0  0  0  0  0  2  0  0  0  0  0  0
  159.6120  208.3410  155.4120 O   0  0  0  0  0  0  0  0  0  0  0  0
  159.8740  210.5700  154.9010 O   0  0  0  0  0  0  0  0  0  0  0  0
  160.9540  205.5040  153.7330 O   0  0  0  0  0  0  0  0  0  0  0  0
  161.4560  207.7950  153.3310 C   0  0  0  0  0  0  0  0  0  0  0  0
  1 16  1  0  0  0  0
  1 14  1  0  0  0  0
  2  9  1  0  0  0  0
  2 19  1  0  0  0  0
  4  5  1  0  0  0  0
  5 20  1  0  0  0  0
  6 18  1  0  0  0  0
  6 22  1  0  0  0  0
  7 17  1  0  0  0  0
  8 19  1  0  0  0  0
  8  1  2  0  0  0  0
  9 17  1  0  0  0  0
 10  4  1  0  0  0  0
 10 12  1  0  0  0  0
 11  7  1  6  0  0  0
 11 23  1  0  0  0  0
 12 11  1  0  0  0  0
 12 21  2  0  0  0  0
 13 24  1  0  0  0  0
 15 18  1  0  0  0  0
 15 14  1  0  0  0  0
 17  6  2  0  0  0  0
 19 15  2  0  0  0  0
 21 20  1  0  0  0  0
 21 13  1  0  0  0  0
 22  3  1  0  0  0  0
 23 13  1  0  0  0  0
 23  3  1  1  0  0  0
 24 32  1  0  0  0  0
 25 26  1  0  0  0  0
 26 30  2  0  0  0  0
 26 29  1  0  0  0  0
 27 28  1  0  0  0  0
 28 29  1  0  0  0  0
 31 27  2  0  0  0  0
 32 25  2  0  0  0  0
 32 27  1  0  0  0  0
M  END
>  <MODEL>
5

>  <REMARK>
 VINA RESULT:      -4.4      2.153      2.972
  Name = 
  2 active torsions:
  status: ('A' for Active; 'I' for Inactive)
    1  A    between atoms: N_16  and  C_27
    2  A    between atoms: C_27  and  C_32
                            x       y       z     vdW  Elec       q    Type
                         _______ _______ _______ _____ _____    ______ ____

>  <TORSDO>
F 2

$$$$
=
 OpenBabel11062410403D

 32 37  0  0  1  0  0  0  0  0999 V2000
  156.1630  213.8910  150.1050 C   0  0  0  0  0  0  0  0  0  0  0  0
  159.6000  212.8720  149.1000 C   0  0  0  0  0  2  0  0  0  0  0  0
  159.8850  209.9820  153.0270 C   0  0  0  0  0  2  0  0  0  0  0  0
  162.0920  206.7850  148.5170 C   0  0  0  0  0  2  0  0  0  0  0  0
  161.2510  205.7440  149.2600 C   0  0  0  0  0  2  0  0  0  0  0  0
  160.2990  212.3190  152.1150 C   0  0  0  0  0  0  0  0  0  0  0  0
  161.8690  210.8600  150.7650 C   0  0  0  0  0  2  0  0  0  0  0  0
  157.1640  213.5110  149.2260 C   0  0  0  0  0  3  0  0  0  0  0  0
  160.9310  213.0420  149.8270 C   0  0  0  0  0  2  0  0  0  0  0  0
  161.5810  208.1990  148.8180 C   0  0  0  0  0  2  0  0  0  0  0  0
  160.9990  209.6430  150.9910 C   0  0  1  0  0  3  0  0  0  0  0  0
  161.4000  208.3920  150.2950 C   0  0  0  0  0  0  0  0  0  0  0  0
  160.8320  207.9100  152.4100 N   0  0  0  0  0  0  0  0  0  0  0  0
  156.7650  214.0160  151.6660 S   0  0  0  0  0  0  0  0  0  0  0  0
  158.3310  213.5680  151.2560 C   0  0  0  0  0  0  0  0  0  0  0  0
  154.8130  214.1400  149.7370 N   0  0  0  0  0  1  0  0  0  0  0  0
  161.0240  212.0900  150.9830 C   0  0  0  0  0  0  0  0  0  0  0  0
  159.4660  213.5620  152.2310 C   0  0  0  0  0  2  0  0  0  0  0  0
  158.3970  213.3450  149.8710 C   0  0  0  0  0  0  0  0  0  0  0  0
  161.3480  205.9510  150.7760 C   0  0  0  0  0  2  0  0  0  0  0  0
  161.1640  207.3990  151.1290 C   0  0  0  0  0  0  0  0  0  0  0  0
  160.3130  211.4170  153.3290 C   0  0  0  0  0  2  0  0  0  0  0  0
  161.0120  209.3040  152.4120 N   0  0  2  0  0  0  0  0  0  0  0  0
  160.8670  207.1130  153.6330 C   0  0  0  0  0  2  0  0  0  0  0  0
  161.9750  208.8800  154.9040 C   0  0  0  0  0  3  0  0  0  0  0  0
  162.0890  209.7700  156.0640 C   0  0  0  0  0  0  0  0  0  0  0  0
  160.0090  207.8860  155.9430 C   0  0  0  0  0  0  0  0  0  0  0  0
  160.3010  208.5420  157.2610 C   0  0  0  0  0  2  0  0  0  0  0  0
  161.1690  209.6690  157.1130 O   0  0  0  0  0  0  0  0  0  0  0  0
  162.9880  210.6490  156.0970 O   0  0  0  0  0  0  0  0  0  0  0  0
  158.9630  207.1970  155.8120 O   0  0  0  0  0  0  0  0  0  0  0  0
  160.9790  207.9960  154.8340 C   0  0  0  0  0  0  0  0  0  0  0  0
  1 14  1  0  0  0  0
  2  9  1  0  0  0  0
  2 19  1  0  0  0  0
  3 22  1  0  0  0  0
  4 10  1  0  0  0  0
  4  5  1  0  0  0  0
  5 20  1  0  0  0  0
  6 18  1  0  0  0  0
  6 22  1  0  0  0  0
  7 17  1  0  0  0  0
  8 19  1  0  0  0  0
  8  1  2  0  0  0  0
  9 17  1  0  0  0  0
 10 12  1  0  0  0  0
 11  7  1  1  0  0  0
 11 23  1  0  0  0  0
 12 11  1  0  0  0  0
 12 21  2  0  0  0  0
 13 23  1  0  0  0  0
 13 24  1  0  0  0  0
 15 14  1  0  0  0  0
 15 18  1  0  0  0  0
 16  1  1  0  0  0  0
 17  6  2  0  0  0  0
 19 15  2  0  0  0  0
 20 21  1  0  0  0  0
 21 13  1  0  0  0  0
 23  3  1  1  0  0  0
 24 32  1  0  0  0  0
 25 26  1  0  0  0  0
 26 30  2  0  0  0  0
 26 29  1  0  0  0  0
 27 28  1  0  0  0  0
 29 28  1  0  0  0  0
 31 27  2  0  0  0  0
 32 25  2  0  0  0  0
 32 27  1  0  0  0  0
M  END
>  <MODEL>
6

>  <REMARK>
 VINA RESULT:      -4.2      1.909      2.492
  Name = 
  2 active torsions:
  status: ('A' for Active; 'I' for Inactive)
    1  A    between atoms: N_16  and  C_27
    2  A    between atoms: C_27  and  C_32
                            x       y       z     vdW  Elec       q    Type
                         _______ _______ _______ _____ _____    ______ ____

>  <TORSDO>
F 2

$$$$
=
 OpenBabel11062410403D

 32 37  0  0  1  0  0  0  0  0999 V2000
  160.6140  205.8920  148.1950 C   0  0  0  0  0  0  0  0  0  0  0  0
  160.9320  206.8720  151.7720 C   0  0  0  0  0  2  0  0  0  0  0  0
  160.6140  211.5780  150.5030 C   0  0  0  0  0  2  0  0  0  0  0  0
  157.1170  210.9620  155.2810 C   0  0  0  0  0  2  0  0  0  0  0  0
  156.2720  211.8730  154.3860 C   0  0  0  0  0  2  0  0  0  0  0  0
  162.1860  209.6170  150.8910 C   0  0  0  0  0  0  0  0  0  0  0  0
  161.1650  210.0280  153.1710 C   0  0  0  0  0  2  0  0  0  0  0  0
  160.3770  205.8030  149.5570 C   0  0  0  0  0  3  0  0  0  0  0  0
  161.9940  207.7160  152.4720 C   0  0  0  0  0  2  0  0  0  0  0  0
  158.1080  210.1540  154.4370 C   0  0  0  0  0  2  0  0  0  0  0  0
  159.9380  210.6620  152.5530 C   0  0  1  0  0  3  0  0  0  0  0  0
  158.8420  211.0500  153.4820 C   0  0  0  0  0  0  0  0  0  0  0  0
  159.1700  212.6980  151.9980 N   0  0  0  0  0  0  0  0  0  0  0  0
  161.6880  207.1370  147.8620 S   0  0  0  0  0  0  0  0  0  0  0  0
  161.8670  207.6090  149.4640 C   0  0  0  0  0  0  0  0  0  0  0  0
  160.0290  205.0450  147.2150 N   0  0  0  0  0  1  0  0  0  0  0  0
  161.8260  209.1660  152.1260 C   0  0  0  0  0  0  0  0  0  0  0  0
  162.8170  208.6770  149.9050 C   0  0  0  0  0  2  0  0  0  0  0  0
  161.1000  206.7620  150.2800 C   0  0  0  0  0  0  0  0  0  0  0  0
  157.1600  212.8750  153.6410 C   0  0  0  0  0  2  0  0  0  0  0  0
  158.3500  212.1870  153.0360 C   0  0  0  0  0  0  0  0  0  0  0  0
  162.0470  211.0540  150.4370 C   0  0  0  0  0  2  0  0  0  0  0  0
  160.3250  211.9030  151.8890 N   0  0  2  0  0  0  0  0  0  0  0  0
  159.1260  214.0840  151.5400 C   0  0  0  0  0  2  0  0  0  0  0  0
  156.9560  214.2260  150.4280 C   0  0  0  0  0  3  0  0  0  0  0  0
  156.1140  214.3640  149.2350 C   0  0  0  0  0  0  0  0  0  0  0  0
  158.9090  214.2830  148.9740 C   0  0  0  0  0  0  0  0  0  0  0  0
  158.0710  214.0900  147.7430 C   0  0  0  0  0  2  0  0  0  0  0  0
  156.7040  214.4430  147.9700 O   0  0  0  0  0  0  0  0  0  0  0  0
  154.8640  214.4530  149.3540 O   0  0  0  0  0  0  0  0  0  0  0  0
  160.1510  214.4530  148.8570 O   0  0  0  0  0  0  0  0  0  0  0  0
  158.2840  214.2040  150.3100 C   0  0  0  0  0  0  0  0  0  0  0  0
  1  8  2  0  0  0  0
  2  9  1  0  0  0  0
  5  4  1  0  0  0  0
  6 17  2  0  0  0  0
  8 19  1  0  0  0  0
 10  4  1  0  0  0  0
 11  7  1  1  0  0  0
 11 12  1  0  0  0  0
 12 10  1  0  0  0  0
 13 21  1  0  0  0  0
 14  1  1  0  0  0  0
 14 15  1  0  0  0  0
 15 18  1  0  0  0  0
 15 19  2  0  0  0  0
 16  1  1  0  0  0  0
 17  9  1  0  0  0  0
 17  7  1  0  0  0  0
 18  6  1  0  0  0  0
 19  2  1  0  0  0  0
 20  5  1  0  0  0  0
 21 12  2  0  0  0  0
 21 20  1  0  0  0  0
 22  3  1  0  0  0  0
 22  6  1  0  0  0  0
 23  3  1  6  0  0  0
 23 13  1  0  0  0  0
 23 11  1  0  0  0  0
 24 13  1  0  0  0  0
 26 30  2  0  0  0  0
 26 25  1  0  0  0  0
 27 32  1  0  0  0  0
 28 29  1  0  0  0  0
 28 27  1  0  0  0  0
 29 26  1  0  0  0  0
 31 27  2  0  0  0  0
 32 25  2  0  0  0  0
 32 24  1  0  0  0  0
M  END
>  <MODEL>
7

>  <REMARK>
 VINA RESULT:      -3.7      4.144      7.219
  Name = 
  2 active torsions:
  status: ('A' for Active; 'I' for Inactive)
    1  A    between atoms: N_16  and  C_27
    2  A    between atoms: C_27  and  C_32
                            x       y       z     vdW  Elec       q    Type
                         _______ _______ _______ _____ _____    ______ ____

>  <TORSDO>
F 2

$$$$
=
 OpenBabel11062410403D

 32 37  0  0  1  0  0  0  0  0999 V2000
  157.1290  213.8090  147.6490 C   0  0  0  0  0  0  0  0  0  0  0  0
  160.3640  212.0030  147.2920 C   0  0  0  0  0  2  0  0  0  0  0  0
  160.2580  210.8860  152.0460 C   0  0  0  0  0  2  0  0  0  0  0  0
  161.9160  205.8940  149.2600 C   0  0  0  0  0  2  0  0  0  0  0  0
  160.9370  205.3600  150.3090 C   0  0  0  0  0  2  0  0  0  0  0  0
  161.0060  212.5910  150.3130 C   0  0  0  0  0  0  0  0  0  0  0  0
  162.3270  210.5120  149.7210 C   0  0  0  0  0  2  0  0  0  0  0  0
  158.0520  212.9760  147.0390 C   0  0  0  0  0  3  0  0  0  0  0  0
  161.7130  212.2570  147.9590 C   0  0  0  0  0  2  0  0  0  0  0  0
  161.6240  207.3680  148.9580 C   0  0  0  0  0  2  0  0  0  0  0  0
  161.2870  209.6190  150.3620 C   0  0  1  0  0  3  0  0  0  0  0  0
  161.4900  208.1510  150.2310 C   0  0  0  0  0  0  0  0  0  0  0  0
  160.8800  208.6280  152.3350 N   0  0  0  0  0  0  0  0  0  0  0  0
  157.7590  214.4530  149.0640 S   0  0  0  0  0  0  0  0  0  0  0  0
  159.2370  213.6640  148.9390 C   0  0  0  0  0  0  0  0  0  0  0  0
  155.8270  214.0810  147.1470 N   0  0  0  0  0  1  0  0  0  0  0  0
  161.6760  211.8340  149.3980 C   0  0  0  0  0  0  0  0  0  0  0  0
  160.3690  213.8830  149.8930 C   0  0  0  0  0  2  0  0  0  0  0  0
  159.2540  212.9060  147.7570 C   0  0  0  0  0  0  0  0  0  0  0  0
  161.0800  206.1320  151.6260 C   0  0  0  0  0  2  0  0  0  0  0  0
  161.1180  207.6120  151.3740 C   0  0  0  0  0  0  0  0  0  0  0  0
  160.8980  212.2490  151.7830 C   0  0  0  0  0  2  0  0  0  0  0  0
  161.2650  209.8700  151.8010 N   0  0  2  0  0  0  0  0  0  0  0  0
  160.8090  208.3810  153.7730 C   0  0  0  0  0  2  0  0  0  0  0  0
  158.9880  209.8360  154.5030 C   0  0  0  0  0  3  0  0  0  0  0  0
  158.4670  211.0060  155.2190 C   0  0  0  0  0  0  0  0  0  0  0  0
  161.2320  210.5150  155.1650 C   0  0  0  0  0  0  0  0  0  0  0  0
  160.7560  211.8680  155.6070 C   0  0  0  0  0  2  0  0  0  0  0  0
  159.3480  211.8800  155.8610 O   0  0  0  0  0  0  0  0  0  0  0  0
  157.2250  211.1990  155.2880 O   0  0  0  0  0  0  0  0  0  0  0  0
  162.4410  210.2020  155.3230 O   0  0  0  0  0  0  0  0  0  0  0  0
  160.2990  209.5900  154.4900 C   0  0  0  0  0  0  0  0  0  0  0  0
  1 14  1  0  0  0  0
  2 19  1  0  0  0  0
  2  9  1  0  0  0  0
  4  5  1  0  0  0  0
  5 20  1  0  0  0  0
  6 22  1  0  0  0  0
  8  1  2  0  0  0  0
  8 19  1  0  0  0  0
  9 17  1  0  0  0  0
 10  4  1  0  0  0  0
 10 12  1  0  0  0  0
 11  7  1  6  0  0  0
 11 23  1  0  0  0  0
 12 11  1  0  0  0  0
 12 21  2  0  0  0  0
 13 24  1  0  0  0  0
 15 14  1  0  0  0  0
 15 18  1  0  0  0  0
 16  1  1  0  0  0  0
 17  7  1  0  0  0  0
 17  6  2  0  0  0  0
 18  6  1  0  0  0  0
 19 15  2  0  0  0  0
 21 20  1  0  0  0  0
 21 13  1  0  0  0  0
 22  3  1  0  0  0  0
 23  3  1  6  0  0  0
 23 13  1  0  0  0  0
 24 32  1  0  0  0  0
 25 26  1  0  0  0  0
 26 30  2  0  0  0  0
 26 29  1  0  0  0  0
 27 31  2  0  0  0  0
 27 28  1  0  0  0  0
 28 29  1  0  0  0  0
 32 25  2  0  0  0  0
 32 27  1  0  0  0  0
M  END
>  <MODEL>
8

>  <REMARK>
 VINA RESULT:      -3.4      1.621      2.402
  Name = 
  2 active torsions:
  status: ('A' for Active; 'I' for Inactive)
    1  A    between atoms: N_16  and  C_27
    2  A    between atoms: C_27  and  C_32
                            x       y       z     vdW  Elec       q    Type
                         _______ _______ _______ _____ _____    ______ ____

>  <TORSDO>
F 2

$$$$
