=
 OpenBabel11052422303D

 31 34  0  0  1  0  0  0  0  0999 V2000
  162.1070  209.9240  149.2320 C   0  0  0  0  0  0  0  0  0  0  0  0
  161.1610  206.8350  151.4290 C   0  0  0  0  0  0  0  0  0  0  0  0
  160.8800  205.7470  150.5640 C   0  0  0  0  0  0  0  0  0  0  0  0
  161.3970  205.3530  148.1760 C   0  0  0  0  0  3  0  0  0  0  0  0
  161.3050  208.2430  150.9380 C   0  0  0  0  0  0  0  0  0  0  0  0
  161.8210  210.9590  150.2240 C   0  0  0  0  0  3  0  0  0  0  0  0
  160.4610  205.9920  149.1460 C   0  0  0  0  0  2  0  0  0  0  0  0
  161.5530  207.7060  153.7690 C   0  0  2  0  0  3  0  0  0  0  0  0
  162.5150  210.2490  148.0870 O   0  0  0  0  0  0  0  0  0  0  0  0
  161.0170  204.2410  152.4490 C   0  0  0  0  0  3  0  0  0  0  0  0
  161.5560  204.0340  148.0910 C   0  0  0  0  0  3  0  0  0  0  0  0
  160.3490  209.0120  153.3990 S   0  0  0  0  0  0  0  0  0  0  0  0
  161.3140  206.5700  152.8100 C   0  0  0  0  0  0  0  0  0  0  0  0
  161.9470  208.4790  149.5870 C   0  0  0  0  0  2  0  0  0  0  0  0
  160.9120  203.0480  148.9780 C   0  0  0  0  0  3  0  0  0  0  0  0
  161.0530  209.2850  151.7680 C   0  0  0  0  0  0  0  0  0  0  0  0
  161.3430  210.6370  151.3850 N   0  0  0  0  0  0  0  0  0  0  0  0
  161.2440  205.2930  153.2730 N   0  0  0  0  0  0  0  0  0  0  0  0
  160.8390  204.4340  151.0820 C   0  0  0  0  0  0  0  0  0  0  0  0
  160.5980  203.2260  150.2660 C   0  0  0  0  0  3  0  0  0  0  0  0
  161.3870  207.2780  155.1510 N   0  0  0  0  0  2  0  0  0  0  0  0
  159.2420  207.1550  156.0370 O   0  0  0  0  0  1  0  0  0  0  0  0
  160.2740  208.0360  155.7060 C   0  0  1  0  0  3  0  0  0  0  0  0
  162.2320  208.6820  157.1400 C   0  0  0  0  0  1  0  0  0  0  0  0
  160.7300  208.8180  156.9460 C   0  0  1  0  0  3  0  0  0  0  0  0
  161.3200  211.0290  156.1600 O   0  0  0  0  0  1  0  0  0  0  0  0
  160.3730  210.3090  156.8930 C   0  0  1  0  0  3  0  0  0  0  0  0
  158.9820  210.5450  156.3210 C   0  0  0  0  0  2  0  0  0  0  0  0
  158.8910  211.8790  155.7490 N   0  0  0  0  0  0  0  0  0  0  0  0
  157.9990  211.7900  154.6060 C   0  0  0  0  0  1  0  0  0  0  0  0
  158.2210  212.7080  156.7340 C   0  0  0  0  0  1  0  0  0  0  0  0
  1 14  1  0  0  0  0
  1  6  1  0  0  0  0
  2 13  1  0  0  0  0
  3 19  1  0  0  0  0
  3  2  2  0  0  0  0
  4  7  1  0  0  0  0
  5  2  1  0  0  0  0
  5 16  2  0  0  0  0
  6 17  2  0  0  0  0
  7  3  1  0  0  0  0
  8 21  1  1  0  0  0
  9  1  2  0  0  0  0
 10 18  1  0  0  0  0
 11  4  2  0  0  0  0
 11 15  1  0  0  0  0
 12  8  1  0  0  0  0
 13 18  2  0  0  0  0
 13  8  1  0  0  0  0
 14  5  1  0  0  0  0
 15 20  2  0  0  0  0
 16 12  1  0  0  0  0
 17 16  1  0  0  0  0
 19 10  2  0  0  0  0
 20 19  1  0  0  0  0
 21 23  1  0  0  0  0
 23 22  1  1  0  0  0
 23 25  1  0  0  0  0
 25 24  1  6  0  0  0
 27 26  1  6  0  0  0
 27 25  1  0  0  0  0
 28 27  1  0  0  0  0
 29 28  1  0  0  0  0
 29 31  1  0  0  0  0
 30 29  1  0  0  0  0
M  END
>  <MODEL>
1

>  <REMARK>
 VINA RESULT:      -8.0      0.000      0.000
  Name = 
  6 active torsions:
  status: ('A' for Active; 'I' for Inactive)
    1  A    between atoms: N_1  and  C_24
    2  A    between atoms: C_9  and  C_22
    3  A    between atoms: C_9  and  N_23
    4  A    between atoms: C_15  and  N_23
    5  A    between atoms: C_19  and  C_22
    6  A    between atoms: C_19  and  C_24
                            x       y       z     vdW  Elec       q    Type
                         _______ _______ _______ _____ _____    ______ ____

>  <TORSDO>
F 6

$$$$
=
 OpenBabel11052422303D

 31 34  0  0  1  0  0  0  0  0999 V2000
  160.5680  202.0070  150.6870 C   0  0  0  0  0  0  0  0  0  0  0  0
  161.3710  205.3800  148.8850 C   0  0  0  0  0  0  0  0  0  0  0  0
  161.6110  205.1020  147.5150 C   0  0  0  0  0  0  0  0  0  0  0  0
  161.0910  203.1350  146.1080 C   0  0  0  0  0  3  0  0  0  0  0  0
  161.2890  204.3050  149.9260 C   0  0  0  0  0  0  0  0  0  0  0  0
  160.8910  202.4350  152.0470 C   0  0  0  0  0  3  0  0  0  0  0  0
  162.0480  203.7360  147.0810 C   0  0  0  0  0  2  0  0  0  0  0  0
  161.0030  207.0690  150.7290 C   0  0  2  0  0  3  0  0  0  0  0  0
  160.1800  200.8290  150.4760 O   0  0  0  0  0  0  0  0  0  0  0  0
  161.4000  207.4590  147.0240 C   0  0  0  0  0  3  0  0  0  0  0  0
  160.8770  203.6470  144.8980 C   0  0  0  0  0  3  0  0  0  0  0  0
  162.2630  206.1800  151.6860 S   0  0  0  0  0  0  0  0  0  0  0  0
  161.1990  206.7290  149.2750 C   0  0  0  0  0  0  0  0  0  0  0  0
  160.6650  202.9770  149.5520 C   0  0  0  0  0  2  0  0  0  0  0  0
  161.4740  204.8970  144.3940 C   0  0  0  0  0  3  0  0  0  0  0  0
  161.5800  204.5840  151.2200 C   0  0  0  0  0  0  0  0  0  0  0  0
  161.3490  203.6280  152.2650 N   0  0  0  0  0  0  0  0  0  0  0  0
  161.2140  207.7170  148.3420 N   0  0  0  0  0  0  0  0  0  0  0  0
  161.5940  206.1550  146.5750 C   0  0  0  0  0  0  0  0  0  0  0  0
  161.7880  205.9750  145.1210 C   0  0  0  0  0  3  0  0  0  0  0  0
  161.1440  208.5000  150.9630 N   0  0  0  0  0  2  0  0  0  0  0  0
  162.5400  209.7750  152.3130 O   0  0  0  0  0  1  0  0  0  0  0  0
  161.6920  208.6660  152.3010 C   0  0  1  0  0  3  0  0  0  0  0  0
  160.7650  207.9290  154.5150 C   0  0  0  0  0  1  0  0  0  0  0  0
  160.5590  208.8460  153.3210 C   0  0  1  0  0  3  0  0  0  0  0  0
  159.3080  210.9160  153.2510 O   0  0  0  0  0  1  0  0  0  0  0  0
  160.4160  210.2880  153.8250 C   0  0  1  0  0  3  0  0  0  0  0  0
  160.3280  210.3580  155.3430 C   0  0  0  0  0  2  0  0  0  0  0  0
  161.2510  211.3570  155.8580 N   0  0  0  0  0  0  0  0  0  0  0  0
  160.9230  211.5560  157.2590 C   0  0  0  0  0  1  0  0  0  0  0  0
  162.5720  210.7580  155.8220 C   0  0  0  0  0  1  0  0  0  0  0  0
  1  6  1  0  0  0  0
  2 13  1  0  0  0  0
  2  5  1  0  0  0  0
  3  2  2  0  0  0  0
  4  7  1  0  0  0  0
  5 16  2  0  0  0  0
  6 17  2  0  0  0  0
  7  3  1  0  0  0  0
  8 21  1  6  0  0  0
  8 12  1  0  0  0  0
  9  1  2  0  0  0  0
 10 18  1  0  0  0  0
 11  4  2  0  0  0  0
 13  8  1  0  0  0  0
 14  5  1  0  0  0  0
 14  1  1  0  0  0  0
 15 11  1  0  0  0  0
 15 20  2  0  0  0  0
 16 12  1  0  0  0  0
 16 17  1  0  0  0  0
 18 13  2  0  0  0  0
 19 10  2  0  0  0  0
 19  3  1  0  0  0  0
 20 19  1  0  0  0  0
 21 23  1  0  0  0  0
 23 22  1  6  0  0  0
 23 25  1  0  0  0  0
 25 27  1  0  0  0  0
 25 24  1  1  0  0  0
 27 26  1  6  0  0  0
 27 28  1  0  0  0  0
 28 29  1  0  0  0  0
 29 30  1  0  0  0  0
 31 29  1  0  0  0  0
M  END
>  <MODEL>
2

>  <REMARK>
 VINA RESULT:      -7.8      2.729      4.965
  Name = 
  6 active torsions:
  status: ('A' for Active; 'I' for Inactive)
    1  A    between atoms: N_1  and  C_24
    2  A    between atoms: C_9  and  C_22
    3  A    between atoms: C_9  and  N_23
    4  A    between atoms: C_15  and  N_23
    5  A    between atoms: C_19  and  C_22
    6  A    between atoms: C_19  and  C_24
                            x       y       z     vdW  Elec       q    Type
                         _______ _______ _______ _____ _____    ______ ____

>  <TORSDO>
F 6

$$$$
=
 OpenBabel11052422303D

 31 34  0  0  1  0  0  0  0  0999 V2000
  160.8160  212.0440  150.8420 C   0  0  0  0  0  0  0  0  0  0  0  0
  161.1490  208.6660  152.7780 C   0  0  0  0  0  0  0  0  0  0  0  0
  161.0570  208.9420  154.1660 C   0  0  0  0  0  0  0  0  0  0  0  0
  160.2270  210.9120  155.4120 C   0  0  0  0  0  3  0  0  0  0  0  0
  161.3230  209.7420  151.7490 C   0  0  0  0  0  0  0  0  0  0  0  0
  161.4520  211.6150  149.5970 C   0  0  0  0  0  3  0  0  0  0  0  0
  161.3850  210.3060  154.6940 C   0  0  0  0  0  2  0  0  0  0  0  0
  161.2220  206.9800  150.8960 C   0  0  2  0  0  3  0  0  0  0  0  0
  160.3960  213.2240  150.9570 O   0  0  0  0  0  0  0  0  0  0  0  0
  160.7230  206.5860  154.5880 C   0  0  0  0  0  3  0  0  0  0  0  0
  159.7280  210.4000  156.5350 C   0  0  0  0  0  3  0  0  0  0  0  0
  162.6790  207.8620  150.2690 S   0  0  0  0  0  0  0  0  0  0  0  0
  161.0680  207.3180  152.3560 C   0  0  0  0  0  0  0  0  0  0  0  0
  160.6350  211.0730  151.9660 C   0  0  0  0  0  2  0  0  0  0  0  0
  160.1810  209.1470  157.1640 C   0  0  0  0  0  3  0  0  0  0  0  0
  161.9120  209.4620  150.5610 C   0  0  0  0  0  0  0  0  0  0  0  0
  161.9420  210.4200  149.4930 N   0  0  0  0  0  0  0  0  0  0  0  0
  160.8540  206.3300  153.2640 N   0  0  0  0  0  0  0  0  0  0  0  0
  160.8110  207.8890  155.0730 C   0  0  0  0  0  0  0  0  0  0  0  0
  160.6540  208.0670  156.5310 C   0  0  0  0  0  3  0  0  0  0  0  0
  161.4070  205.5480  150.7010 N   0  0  0  0  0  2  0  0  0  0  0  0
  160.0050  206.3050  149.0100 O   0  0  0  0  0  1  0  0  0  0  0  0
  160.6350  205.1710  149.5260 C   0  0  1  0  0  3  0  0  0  0  0  0
  161.1330  203.1040  148.1900 C   0  0  0  0  0  1  0  0  0  0  0  0
  161.5510  204.5380  148.4680 C   0  0  1  0  0  3  0  0  0  0  0  0
  162.6890  206.1540  147.0720 O   0  0  0  0  0  1  0  0  0  0  0  0
  161.5770  205.3100  147.1430 C   0  0  1  0  0  3  0  0  0  0  0  0
  161.5490  204.3820  145.9380 C   0  0  0  0  0  2  0  0  0  0  0  0
  160.6900  204.9280  144.8990 N   0  0  0  0  0  0  0  0  0  0  0  0
  160.0570  206.1130  145.4510 C   0  0  0  0  0  1  0  0  0  0  0  0
  161.5660  205.3840  143.8350 C   0  0  0  0  0  1  0  0  0  0  0  0
  1  9  2  0  0  0  0
  1 14  1  0  0  0  0
  2  3  1  0  0  0  0
  3  7  1  0  0  0  0
  3 19  2  0  0  0  0
  4 11  2  0  0  0  0
  5 14  1  0  0  0  0
  5  2  1  0  0  0  0
  6  1  1  0  0  0  0
  7  4  1  0  0  0  0
  8 21  1  1  0  0  0
  8 13  1  0  0  0  0
 10 19  1  0  0  0  0
 11 15  1  0  0  0  0
 12 16  1  0  0  0  0
 12  8  1  0  0  0  0
 13  2  2  0  0  0  0
 13 18  1  0  0  0  0
 16  5  2  0  0  0  0
 17  6  2  0  0  0  0
 17 16  1  0  0  0  0
 18 10  2  0  0  0  0
 19 20  1  0  0  0  0
 20 15  2  0  0  0  0
 23 22  1  6  0  0  0
 23 21  1  0  0  0  0
 25 24  1  6  0  0  0
 25 23  1  0  0  0  0
 27 26  1  1  0  0  0
 27 25  1  0  0  0  0
 28 27  1  0  0  0  0
 29 30  1  0  0  0  0
 29 28  1  0  0  0  0
 31 29  1  0  0  0  0
M  END
>  <MODEL>
3

>  <REMARK>
 VINA RESULT:      -7.3      2.692      7.603
  Name = 
  6 active torsions:
  status: ('A' for Active; 'I' for Inactive)
    1  A    between atoms: N_1  and  C_24
    2  A    between atoms: C_9  and  C_22
    3  A    between atoms: C_9  and  N_23
    4  A    between atoms: C_15  and  N_23
    5  A    between atoms: C_19  and  C_22
    6  A    between atoms: C_19  and  C_24
                            x       y       z     vdW  Elec       q    Type
                         _______ _______ _______ _____ _____    ______ ____

>  <TORSDO>
F 6

$$$$
=
 OpenBabel11052422303D

 31 34  0  0  1  0  0  0  0  0999 V2000
  160.5190  207.7880  154.5280 C   0  0  0  0  0  0  0  0  0  0  0  0
  161.5750  207.6380  150.7690 C   0  0  0  0  0  0  0  0  0  0  0  0
  161.5990  206.2770  150.3710 C   0  0  0  0  0  0  0  0  0  0  0  0
  160.6270  204.2380  151.3810 C   0  0  0  0  0  3  0  0  0  0  0  0
  161.4670  208.0600  152.2030 C   0  0  0  0  0  0  0  0  0  0  0  0
  161.0680  209.1090  154.8290 C   0  0  0  0  0  3  0  0  0  0  0  0
  161.7750  205.1900  151.3890 C   0  0  0  0  0  2  0  0  0  0  0  0
  161.6900  210.0860  150.1500 C   0  0  2  0  0  3  0  0  0  0  0  0
  159.9400  207.1300  155.4300 O   0  0  0  0  0  0  0  0  0  0  0  0
  161.6760  206.9770  148.0600 C   0  0  0  0  0  3  0  0  0  0  0  0
  160.3410  203.4630  150.3380 C   0  0  0  0  0  3  0  0  0  0  0  0
  162.9160  210.2810  151.4740 S   0  0  0  0  0  0  0  0  0  0  0  0
  161.6520  208.6310  149.7640 C   0  0  0  0  0  0  0  0  0  0  0  0
  160.6140  207.2330  153.1420 C   0  0  0  0  0  2  0  0  0  0  0  0
  161.0470  203.4960  149.0450 C   0  0  0  0  0  3  0  0  0  0  0  0
  161.9540  209.2610  152.5990 C   0  0  0  0  0  0  0  0  0  0  0  0
  161.7180  209.7680  153.9210 N   0  0  0  0  0  0  0  0  0  0  0  0
  161.6940  208.2740  148.4530 N   0  0  0  0  0  0  0  0  0  0  0  0
  161.6190  205.9500  148.9980 C   0  0  0  0  0  0  0  0  0  0  0  0
  161.6040  204.5690  148.4720 C   0  0  0  0  0  3  0  0  0  0  0  0
  162.0660  210.9250  149.0210 N   0  0  0  0  0  2  0  0  0  0  0  0
  160.8390  212.4400  150.2850 O   0  0  0  0  0  1  0  0  0  0  0  0
  161.1280  212.0380  148.9790 C   0  0  1  0  0  3  0  0  0  0  0  0
  163.2140  212.9980  147.9640 C   0  0  0  0  0  1  0  0  0  0  0  0
  161.7230  213.2040  148.1780 C   0  0  1  0  0  3  0  0  0  0  0  0
  161.9830  213.3150  145.7750 O   0  0  0  0  0  1  0  0  0  0  0  0
  161.0530  213.4120  146.8130 C   0  0  1  0  0  3  0  0  0  0  0  0
  159.9100  212.4350  146.5820 C   0  0  0  0  0  2  0  0  0  0  0  0
  158.7700  213.1210  145.9940 N   0  0  0  0  0  0  0  0  0  0  0  0
  158.7030  212.7170  144.6010 C   0  0  0  0  0  1  0  0  0  0  0  0
  157.5860  212.5840  146.6390 C   0  0  0  0  0  1  0  0  0  0  0  0
  1  6  1  0  0  0  0
  1  9  2  0  0  0  0
  2  5  1  0  0  0  0
  3  2  1  0  0  0  0
  3  7  1  0  0  0  0
  4  7  1  0  0  0  0
  5 16  2  0  0  0  0
  5 14  1  0  0  0  0
  8 21  1  6  0  0  0
  8 12  1  0  0  0  0
 10 18  2  0  0  0  0
 10 19  1  0  0  0  0
 11  4  2  0  0  0  0
 12 16  1  0  0  0  0
 13  8  1  0  0  0  0
 13  2  2  0  0  0  0
 14  1  1  0  0  0  0
 15 11  1  0  0  0  0
 16 17  1  0  0  0  0
 17  6  2  0  0  0  0
 18 13  1  0  0  0  0
 19  3  2  0  0  0  0
 20 19  1  0  0  0  0
 20 15  2  0  0  0  0
 23 21  1  0  0  0  0
 23 22  1  1  0  0  0
 25 24  1  6  0  0  0
 25 23  1  0  0  0  0
 27 26  1  6  0  0  0
 27 25  1  0  0  0  0
 28 27  1  0  0  0  0
 29 28  1  0  0  0  0
 29 31  1  0  0  0  0
 30 29  1  0  0  0  0
M  END
>  <MODEL>
4

>  <REMARK>
 VINA RESULT:      -7.1      2.902      6.490
  Name = 
  6 active torsions:
  status: ('A' for Active; 'I' for Inactive)
    1  A    between atoms: N_1  and  C_24
    2  A    between atoms: C_9  and  C_22
    3  A    between atoms: C_9  and  N_23
    4  A    between atoms: C_15  and  N_23
    5  A    between atoms: C_19  and  C_22
    6  A    between atoms: C_19  and  C_24
                            x       y       z     vdW  Elec       q    Type
                         _______ _______ _______ _____ _____    ______ ____

>  <TORSDO>
F 6

$$$$
=
 OpenBabel11052422303D

 31 34  0  0  1  0  0  0  0  0999 V2000
  161.1760  211.6540  150.2750 C   0  0  0  0  0  0  0  0  0  0  0  0
  161.1670  208.7330  152.8710 C   0  0  0  0  0  0  0  0  0  0  0  0
  161.0510  209.2950  154.1680 C   0  0  0  0  0  0  0  0  0  0  0  0
  160.3440  211.5350  154.9460 C   0  0  0  0  0  3  0  0  0  0  0  0
  161.4630  209.5580  151.6550 C   0  0  0  0  0  0  0  0  0  0  0  0
  161.8160  210.9320  149.1770 C   0  0  0  0  0  3  0  0  0  0  0  0
  161.4720  210.7110  154.4230 C   0  0  0  0  0  2  0  0  0  0  0  0
  161.1640  206.6940  151.3770 C   0  0  2  0  0  3  0  0  0  0  0  0
  160.8490  212.8600  150.1270 O   0  0  0  0  0  0  0  0  0  0  0  0
  160.5120  207.1080  155.0430 C   0  0  0  0  0  3  0  0  0  0  0  0
  159.7670  211.3040  156.1220 C   0  0  0  0  0  3  0  0  0  0  0  0
  162.7080  207.3190  150.6560 S   0  0  0  0  0  0  0  0  0  0  0  0
  160.9900  207.3370  152.7280 C   0  0  0  0  0  0  0  0  0  0  0  0
  160.8780  210.9520  151.5630 C   0  0  0  0  0  2  0  0  0  0  0  0
  160.0960  210.1780  157.0150 C   0  0  0  0  0  3  0  0  0  0  0  0
  162.0660  208.9960  150.5800 C   0  0  0  0  0  0  0  0  0  0  0  0
  162.2100  209.7090  149.3410 N   0  0  0  0  0  0  0  0  0  0  0  0
  160.6660  206.5750  153.8060 N   0  0  0  0  0  0  0  0  0  0  0  0
  160.6890  208.4730  155.2560 C   0  0  0  0  0  0  0  0  0  0  0  0
  160.5000  208.9590  156.6390 C   0  0  0  0  0  3  0  0  0  0  0  0
  161.2380  205.2440  151.4850 N   0  0  0  0  0  2  0  0  0  0  0  0
  160.2320  205.6870  149.4390 O   0  0  0  0  0  1  0  0  0  0  0  0
  160.4560  204.6890  150.3900 C   0  0  1  0  0  3  0  0  0  0  0  0
  160.8490  202.2110  150.4830 C   0  0  0  0  0  1  0  0  0  0  0  0
  161.1950  203.5010  149.7570 C   0  0  1  0  0  3  0  0  0  0  0  0
  161.9790  203.7270  147.4800 O   0  0  0  0  0  1  0  0  0  0  0  0
  160.8960  203.3220  148.2640 C   0  0  1  0  0  3  0  0  0  0  0  0
  160.5130  201.8890  147.9230 C   0  0  0  0  0  2  0  0  0  0  0  0
  161.2110  201.4510  146.7250 N   0  0  0  0  0  0  0  0  0  0  0  0
  161.5220  200.0440  146.9060 C   0  0  0  0  0  1  0  0  0  0  0  0
  160.2530  201.5250  145.6370 C   0  0  0  0  0  1  0  0  0  0  0  0
  1 14  1  0  0  0  0
  2  3  1  0  0  0  0
  3  7  1  0  0  0  0
  3 19  2  0  0  0  0
  4 11  2  0  0  0  0
  5  2  1  0  0  0  0
  6 17  2  0  0  0  0
  6  1  1  0  0  0  0
  7  4  1  0  0  0  0
  8 21  1  1  0  0  0
  8 13  1  0  0  0  0
  9  1  2  0  0  0  0
 10 19  1  0  0  0  0
 11 15  1  0  0  0  0
 12  8  1  0  0  0  0
 13  2  2  0  0  0  0
 13 18  1  0  0  0  0
 14  5  1  0  0  0  0
 16 12  1  0  0  0  0
 16  5  2  0  0  0  0
 17 16  1  0  0  0  0
 18 10  2  0  0  0  0
 19 20  1  0  0  0  0
 20 15  2  0  0  0  0
 23 22  1  6  0  0  0
 23 21  1  0  0  0  0
 25 23  1  0  0  0  0
 25 24  1  1  0  0  0
 27 26  1  6  0  0  0
 27 25  1  0  0  0  0
 28 27  1  0  0  0  0
 29 30  1  0  0  0  0
 29 28  1  0  0  0  0
 31 29  1  0  0  0  0
M  END
>  <MODEL>
5

>  <REMARK>
 VINA RESULT:      -7.0      2.724      7.878
  Name = 
  6 active torsions:
  status: ('A' for Active; 'I' for Inactive)
    1  A    between atoms: N_1  and  C_24
    2  A    between atoms: C_9  and  C_22
    3  A    between atoms: C_9  and  N_23
    4  A    between atoms: C_15  and  N_23
    5  A    between atoms: C_19  and  C_22
    6  A    between atoms: C_19  and  C_24
                            x       y       z     vdW  Elec       q    Type
                         _______ _______ _______ _____ _____    ______ ____

>  <TORSDO>
F 6

$$$$
=
 OpenBabel11052422303D

 31 34  0  0  1  0  0  0  0  0999 V2000
  160.4170  201.6980  150.4850 C   0  0  0  0  0  0  0  0  0  0  0  0
  161.3990  205.1910  149.0340 C   0  0  0  0  0  0  0  0  0  0  0  0
  161.6110  205.0460  147.6400 C   0  0  0  0  0  0  0  0  0  0  0  0
  160.9660  203.2700  146.0420 C   0  0  0  0  0  3  0  0  0  0  0  0
  161.2640  204.0190  149.9580 C   0  0  0  0  0  0  0  0  0  0  0  0
  160.7760  201.9620  151.8780 C   0  0  0  0  0  3  0  0  0  0  0  0
  161.9640  203.7100  147.0590 C   0  0  0  0  0  2  0  0  0  0  0  0
  161.1450  206.6950  151.0500 C   0  0  2  0  0  3  0  0  0  0  0  0
  159.9600  200.5730  150.1580 O   0  0  0  0  0  0  0  0  0  0  0  0
  161.5330  207.4500  147.4010 C   0  0  0  0  0  3  0  0  0  0  0  0
  160.7720  203.9180  144.8960 C   0  0  0  0  0  3  0  0  0  0  0  0
  162.3600  205.6400  151.8900 S   0  0  0  0  0  0  0  0  0  0  0  0
  161.3090  206.4990  149.5660 C   0  0  0  0  0  0  0  0  0  0  0  0
  160.5610  202.7750  149.4560 C   0  0  0  0  0  2  0  0  0  0  0  0
  161.4360  205.1780  144.5170 C   0  0  0  0  0  3  0  0  0  0  0  0
  161.5810  204.1440  151.2700 C   0  0  0  0  0  0  0  0  0  0  0  0
  161.3040  203.0970  152.2130 N   0  0  0  0  0  0  0  0  0  0  0  0
  161.3730  207.5770  148.7400 N   0  0  0  0  0  0  0  0  0  0  0  0
  161.6470  206.1910  146.8150 C   0  0  0  0  0  0  0  0  0  0  0  0
  161.8190  206.1540  145.3480 C   0  0  0  0  0  3  0  0  0  0  0  0
  161.3700  208.0830  151.4300 N   0  0  0  0  0  2  0  0  0  0  0  0
  160.7070  207.3780  153.5410 O   0  0  0  0  0  1  0  0  0  0  0  0
  160.5110  208.3620  152.5710 C   0  0  1  0  0  3  0  0  0  0  0  0
  161.9740  210.3950  152.3850 C   0  0  0  0  0  1  0  0  0  0  0  0
  160.8250  209.7510  153.1450 C   0  0  1  0  0  3  0  0  0  0  0  0
  158.9920  210.7490  154.3690 O   0  0  0  0  0  1  0  0  0  0  0  0
  159.6250  210.7060  153.1230 C   0  0  1  0  0  3  0  0  0  0  0  0
  160.0160  212.1110  152.6890 C   0  0  0  0  0  2  0  0  0  0  0  0
  159.0770  212.6140  151.6990 N   0  0  0  0  0  0  0  0  0  0  0  0
  158.0250  213.3040  152.4240 C   0  0  0  0  0  1  0  0  0  0  0  0
  159.7840  213.6260  150.9340 C   0  0  0  0  0  1  0  0  0  0  0  0
  1  6  1  0  0  0  0
  2 13  1  0  0  0  0
  2  5  1  0  0  0  0
  3  2  2  0  0  0  0
  4  7  1  0  0  0  0
  5 16  2  0  0  0  0
  6 17  2  0  0  0  0
  7  3  1  0  0  0  0
  8 21  1  6  0  0  0
  8 12  1  0  0  0  0
  9  1  2  0  0  0  0
 10 18  1  0  0  0  0
 11  4  2  0  0  0  0
 13  8  1  0  0  0  0
 14  5  1  0  0  0  0
 14  1  1  0  0  0  0
 15 11  1  0  0  0  0
 15 20  2  0  0  0  0
 16 12  1  0  0  0  0
 16 17  1  0  0  0  0
 18 13  2  0  0  0  0
 19 10  2  0  0  0  0
 19  3  1  0  0  0  0
 20 19  1  0  0  0  0
 21 23  1  0  0  0  0
 23 25  1  0  0  0  0
 23 22  1  1  0  0  0
 25 24  1  6  0  0  0
 27 25  1  0  0  0  0
 27 26  1  1  0  0  0
 28 27  1  0  0  0  0
 29 30  1  0  0  0  0
 29 28  1  0  0  0  0
 31 29  1  0  0  0  0
M  END
>  <MODEL>
6

>  <REMARK>
 VINA RESULT:      -6.9      2.850      5.091
  Name = 
  6 active torsions:
  status: ('A' for Active; 'I' for Inactive)
    1  A    between atoms: N_1  and  C_24
    2  A    between atoms: C_9  and  C_22
    3  A    between atoms: C_9  and  N_23
    4  A    between atoms: C_15  and  N_23
    5  A    between atoms: C_19  and  C_22
    6  A    between atoms: C_19  and  C_24
                            x       y       z     vdW  Elec       q    Type
                         _______ _______ _______ _____ _____    ______ ____

>  <TORSDO>
F 6

$$$$
=
 OpenBabel11052422303D

 31 34  0  0  1  0  0  0  0  0999 V2000
  160.8300  208.4180  154.2580 C   0  0  0  0  0  0  0  0  0  0  0  0
  161.6120  207.7360  150.4910 C   0  0  0  0  0  0  0  0  0  0  0  0
  161.6420  206.3320  150.2930 C   0  0  0  0  0  0  0  0  0  0  0  0
  160.7990  204.4480  151.6590 C   0  0  0  0  0  3  0  0  0  0  0  0
  161.5990  208.3610  151.8530 C   0  0  0  0  0  0  0  0  0  0  0  0
  161.3660  209.7760  154.3220 C   0  0  0  0  0  3  0  0  0  0  0  0
  161.9190  205.4080  151.4410 C   0  0  0  0  0  2  0  0  0  0  0  0
  161.6180  210.0690  149.5180 C   0  0  2  0  0  3  0  0  0  0  0  0
  160.3360  207.8890  155.2870 O   0  0  0  0  0  0  0  0  0  0  0  0
  161.5310  206.6880  147.9060 C   0  0  0  0  0  3  0  0  0  0  0  0
  160.4570  203.5250  150.7630 C   0  0  0  0  0  3  0  0  0  0  0  0
  162.9330  210.4720  150.7030 S   0  0  0  0  0  0  0  0  0  0  0  0
  161.5900  208.5720  149.3500 C   0  0  0  0  0  0  0  0  0  0  0  0
  160.8380  207.6670  152.9640 C   0  0  0  0  0  2  0  0  0  0  0  0
  161.0660  203.3790  149.4290 C   0  0  0  0  0  3  0  0  0  0  0  0
  162.0830  209.6140  152.0330 C   0  0  0  0  0  0  0  0  0  0  0  0
  161.9300  210.3050  153.2820 N   0  0  0  0  0  0  0  0  0  0  0  0
  161.5450  208.0280  148.1050 N   0  0  0  0  0  0  0  0  0  0  0  0
  161.5700  205.8080  148.9850 C   0  0  0  0  0  0  0  0  0  0  0  0
  161.5510  204.3650  148.6660 C   0  0  0  0  0  3  0  0  0  0  0  0
  161.8900  210.7390  148.2540 N   0  0  0  0  0  2  0  0  0  0  0  0
  163.4560  212.4540  148.2770 O   0  0  0  0  0  1  0  0  0  0  0  0
  162.1230  212.1440  148.5530 C   0  0  1  0  0  3  0  0  0  0  0  0
  160.2690  212.1700  146.8600 C   0  0  0  0  0  1  0  0  0  0  0  0
  161.1830  213.0280  147.7190 C   0  0  1  0  0  3  0  0  0  0  0  0
  159.2320  214.4530  147.8370 O   0  0  0  0  0  1  0  0  0  0  0  0
  160.3220  213.9710  148.5670 C   0  0  1  0  0  3  0  0  0  0  0  0
  159.8380  213.3100  149.8500 C   0  0  0  0  0  2  0  0  0  0  0  0
  158.8430  214.1440  150.5050 N   0  0  0  0  0  0  0  0  0  0  0  0
  157.5860  213.4170  150.4640 C   0  0  0  0  0  1  0  0  0  0  0  0
  159.2270  214.2290  151.9010 C   0  0  0  0  0  1  0  0  0  0  0  0
  1  6  1  0  0  0  0
  1  9  2  0  0  0  0
  2  5  1  0  0  0  0
  3  2  1  0  0  0  0
  3  7  1  0  0  0  0
  5 16  2  0  0  0  0
  5 14  1  0  0  0  0
  7  4  1  0  0  0  0
  8 21  1  6  0  0  0
  8 12  1  0  0  0  0
 10 18  2  0  0  0  0
 10 19  1  0  0  0  0
 11  4  2  0  0  0  0
 12 16  1  0  0  0  0
 13  8  1  0  0  0  0
 13  2  2  0  0  0  0
 14  1  1  0  0  0  0
 15 11  1  0  0  0  0
 16 17  1  0  0  0  0
 17  6  2  0  0  0  0
 18 13  1  0  0  0  0
 19  3  2  0  0  0  0
 20 19  1  0  0  0  0
 20 15  2  0  0  0  0
 21 23  1  0  0  0  0
 23 22  1  6  0  0  0
 25 24  1  1  0  0  0
 25 23  1  0  0  0  0
 25 27  1  0  0  0  0
 27 26  1  6  0  0  0
 27 28  1  0  0  0  0
 28 29  1  0  0  0  0
 29 31  1  0  0  0  0
 30 29  1  0  0  0  0
M  END
>  <MODEL>
7

>  <REMARK>
 VINA RESULT:      -6.8      2.596      5.821
  Name = 
  6 active torsions:
  status: ('A' for Active; 'I' for Inactive)
    1  A    between atoms: N_1  and  C_24
    2  A    between atoms: C_9  and  C_22
    3  A    between atoms: C_9  and  N_23
    4  A    between atoms: C_15  and  N_23
    5  A    between atoms: C_19  and  C_22
    6  A    between atoms: C_19  and  C_24
                            x       y       z     vdW  Elec       q    Type
                         _______ _______ _______ _____ _____    ______ ____

>  <TORSDO>
F 6

$$$$
=
 OpenBabel11052422303D

 31 34  0  0  1  0  0  0  0  0999 V2000
  161.0420  212.3500  149.8660 C   0  0  0  0  0  0  0  0  0  0  0  0
  161.4460  208.7160  151.2450 C   0  0  0  0  0  0  0  0  0  0  0  0
  161.3780  208.7700  152.6600 C   0  0  0  0  0  0  0  0  0  0  0  0
  160.5540  210.5110  154.2140 C   0  0  0  0  0  3  0  0  0  0  0  0
  161.5890  209.9410  150.3940 C   0  0  0  0  0  0  0  0  0  0  0  0
  161.6580  212.1280  148.5590 C   0  0  0  0  0  3  0  0  0  0  0  0
  161.7040  210.0390  153.3890 C   0  0  0  0  0  2  0  0  0  0  0  0
  161.4980  207.3440  149.1220 C   0  0  2  0  0  3  0  0  0  0  0  0
  160.6120  213.4920  150.1720 O   0  0  0  0  0  0  0  0  0  0  0  0
  161.0760  206.3730  152.7160 C   0  0  0  0  0  3  0  0  0  0  0  0
  160.0820  209.8240  155.2510 C   0  0  0  0  0  3  0  0  0  0  0  0
  162.9340  208.3320  148.6140 S   0  0  0  0  0  0  0  0  0  0  0  0
  161.3700  207.4490  150.6190 C   0  0  0  0  0  0  0  0  0  0  0  0
  160.8920  211.2130  150.8280 C   0  0  0  0  0  2  0  0  0  0  0  0
  160.5600  208.4940  155.6690 C   0  0  0  0  0  3  0  0  0  0  0  0
  162.1580  209.8570  149.1660 C   0  0  0  0  0  0  0  0  0  0  0  0
  162.1570  210.9700  148.2600 N   0  0  0  0  0  0  0  0  0  0  0  0
  161.1840  206.3290  151.3660 N   0  0  0  0  0  0  0  0  0  0  0  0
  161.1600  207.5860  153.3960 C   0  0  0  0  0  0  0  0  0  0  0  0
  161.0310  207.5320  154.8670 C   0  0  0  0  0  3  0  0  0  0  0  0
  161.6940  205.9640  148.7020 N   0  0  0  0  0  2  0  0  0  0  0  0
  160.6040  206.9430  146.8990 O   0  0  0  0  0  1  0  0  0  0  0  0
  160.8200  205.7330  147.5610 C   0  0  1  0  0  3  0  0  0  0  0  0
  162.9620  204.6950  146.7610 C   0  0  0  0  0  1  0  0  0  0  0  0
  161.4500  204.7060  146.6080 C   0  0  1  0  0  3  0  0  0  0  0  0
  161.2000  202.4760  145.7050 O   0  0  0  0  0  1  0  0  0  0  0  0
  160.9230  203.2810  146.8130 C   0  0  1  0  0  3  0  0  0  0  0  0
  161.4800  202.6390  148.0750 C   0  0  0  0  0  2  0  0  0  0  0  0
  160.4830  202.6580  149.1350 N   0  0  0  0  0  0  0  0  0  0  0  0
  159.9060  201.3260  149.1990 C   0  0  0  0  0  1  0  0  0  0  0  0
  161.2040  202.8570  150.3780 C   0  0  0  0  0  1  0  0  0  0  0  0
  1  9  2  0  0  0  0
  1 14  1  0  0  0  0
  2  3  1  0  0  0  0
  3  7  1  0  0  0  0
  3 19  2  0  0  0  0
  4 11  2  0  0  0  0
  5 14  1  0  0  0  0
  5  2  1  0  0  0  0
  6  1  1  0  0  0  0
  7  4  1  0  0  0  0
  8 21  1  1  0  0  0
  8 13  1  0  0  0  0
 10 19  1  0  0  0  0
 11 15  1  0  0  0  0
 12  8  1  0  0  0  0
 12 16  1  0  0  0  0
 13  2  2  0  0  0  0
 13 18  1  0  0  0  0
 16  5  2  0  0  0  0
 17  6  2  0  0  0  0
 17 16  1  0  0  0  0
 18 10  2  0  0  0  0
 19 20  1  0  0  0  0
 20 15  2  0  0  0  0
 23 22  1  6  0  0  0
 23 21  1  0  0  0  0
 25 24  1  1  0  0  0
 25 27  1  0  0  0  0
 25 23  1  0  0  0  0
 27 26  1  6  0  0  0
 27 28  1  0  0  0  0
 28 29  1  0  0  0  0
 29 30  1  0  0  0  0
 29 31  1  0  0  0  0
M  END
>  <MODEL>
8

>  <REMARK>
 VINA RESULT:      -6.2      3.160      7.626
  Name = 
  6 active torsions:
  status: ('A' for Active; 'I' for Inactive)
    1  A    between atoms: N_1  and  C_24
    2  A    between atoms: C_9  and  C_22
    3  A    between atoms: C_9  and  N_23
    4  A    between atoms: C_15  and  N_23
    5  A    between atoms: C_19  and  C_22
    6  A    between atoms: C_19  and  C_24
                            x       y       z     vdW  Elec       q    Type
                         _______ _______ _______ _____ _____    ______ ____

>  <TORSDO>
F 6

$$$$
=
 OpenBabel11052422303D

 31 34  0  0  1  0  0  0  0  0999 V2000
  162.0910  206.7750  147.0580 C   0  0  0  0  0  0  0  0  0  0  0  0
  161.3220  204.8920  150.3940 C   0  0  0  0  0  0  0  0  0  0  0  0
  160.8990  203.5780  150.0720 C   0  0  0  0  0  0  0  0  0  0  0  0
  161.1010  202.2320  148.0050 C   0  0  0  0  0  3  0  0  0  0  0  0
  161.4510  205.9760  149.3670 C   0  0  0  0  0  0  0  0  0  0  0  0
  161.9660  208.1370  147.5740 C   0  0  0  0  0  3  0  0  0  0  0  0
  160.3150  203.2750  148.7250 C   0  0  0  0  0  2  0  0  0  0  0  0
  162.0320  206.5820  152.1350 C   0  0  2  0  0  3  0  0  0  0  0  0
  162.3640  206.5870  145.8440 O   0  0  0  0  0  0  0  0  0  0  0  0
  161.2190  202.9330  152.3790 C   0  0  0  0  0  3  0  0  0  0  0  0
  161.2040  200.9790  148.4410 C   0  0  0  0  0  3  0  0  0  0  0  0
  160.8350  207.7280  151.3940 S   0  0  0  0  0  0  0  0  0  0  0  0
  161.6370  205.1830  151.7420 C   0  0  0  0  0  0  0  0  0  0  0  0
  161.9280  205.6060  147.9770 C   0  0  0  0  0  2  0  0  0  0  0  0
  160.6420  200.4790  149.7090 C   0  0  0  0  0  3  0  0  0  0  0  0
  161.3400  207.2770  149.7290 C   0  0  0  0  0  0  0  0  0  0  0  0
  161.6260  208.3400  148.8080 N   0  0  0  0  0  0  0  0  0  0  0  0
  161.5810  204.2030  152.6830 N   0  0  0  0  0  0  0  0  0  0  0  0
  160.8790  202.5840  151.0740 C   0  0  0  0  0  0  0  0  0  0  0  0
  160.4970  201.1760  150.8420 C   0  0  0  0  0  3  0  0  0  0  0  0
  162.0240  206.7500  153.5810 N   0  0  0  0  0  2  0  0  0  0  0  0
  159.9280  206.7850  154.5830 O   0  0  0  0  0  1  0  0  0  0  0  0
  160.8690  207.5710  153.9140 C   0  0  1  0  0  3  0  0  0  0  0  0
  161.5690  209.9820  153.9290 C   0  0  0  0  0  1  0  0  0  0  0  0
  161.2950  208.7580  154.7880 C   0  0  1  0  0  3  0  0  0  0  0  0
  160.7030  208.7670  157.1340 O   0  0  0  0  0  1  0  0  0  0  0  0
  160.2610  209.1300  155.8590 C   0  0  1  0  0  3  0  0  0  0  0  0
  159.9120  210.6110  155.8300 C   0  0  0  0  0  2  0  0  0  0  0  0
  158.4700  210.7880  155.7530 N   0  0  0  0  0  0  0  0  0  0  0  0
  158.1120  211.7820  156.7500 C   0  0  0  0  0  1  0  0  0  0  0  0
  158.1940  211.3820  154.4580 C   0  0  0  0  0  1  0  0  0  0  0  0
  1  6  1  0  0  0  0
  1 14  1  0  0  0  0
  2 13  1  0  0  0  0
  3  2  2  0  0  0  0
  3 19  1  0  0  0  0
  4 11  2  0  0  0  0
  4  7  1  0  0  0  0
  5 16  2  0  0  0  0
  5  2  1  0  0  0  0
  6 17  2  0  0  0  0
  7  3  1  0  0  0  0
  8 21  1  1  0  0  0
  9  1  2  0  0  0  0
 10 18  1  0  0  0  0
 11 15  1  0  0  0  0
 12  8  1  0  0  0  0
 13  8  1  0  0  0  0
 13 18  2  0  0  0  0
 14  5  1  0  0  0  0
 15 20  2  0  0  0  0
 16 12  1  0  0  0  0
 17 16  1  0  0  0  0
 19 10  2  0  0  0  0
 20 19  1  0  0  0  0
 21 23  1  0  0  0  0
 23 22  1  1  0  0  0
 23 25  1  0  0  0  0
 25 24  1  6  0  0  0
 25 27  1  0  0  0  0
 27 26  1  1  0  0  0
 28 27  1  0  0  0  0
 29 28  1  0  0  0  0
 29 30  1  0  0  0  0
 31 29  1  0  0  0  0
M  END
>  <MODEL>
9

>  <REMARK>
 VINA RESULT:      -6.0      1.836      2.575
  Name = 
  6 active torsions:
  status: ('A' for Active; 'I' for Inactive)
    1  A    between atoms: N_1  and  C_24
    2  A    between atoms: C_9  and  C_22
    3  A    between atoms: C_9  and  N_23
    4  A    between atoms: C_15  and  N_23
    5  A    between atoms: C_19  and  C_22
    6  A    between atoms: C_19  and  C_24
                            x       y       z     vdW  Elec       q    Type
                         _______ _______ _______ _____ _____    ______ ____

>  <TORSDO>
F 6

$$$$
