=
 OpenBabel11062409383D

 34 39  0  0  1  0  0  0  0  0999 V2000
  161.1620  206.6360  150.4620 C   0  0  0  0  0  0  0  0  0  0  0  0
  161.5760  203.8860  147.9590 C   0  0  0  0  0  3  0  0  0  0  0  0
  160.8050  203.6940  150.2520 C   0  0  0  0  0  2  0  0  0  0  0  0
  161.3670  208.4280  152.0990 C   0  0  0  0  0  0  0  0  0  0  0  0
  161.2710  208.0100  150.7460 C   0  0  0  0  0  3  0  0  0  0  0  0
  161.2250  206.1420  152.7890 C   0  0  0  0  0  0  0  0  0  0  0  0
  161.1360  205.0610  153.5910 N   0  0  0  0  0  0  0  0  0  0  0  0
  161.3350  207.4820  153.1500 C   0  0  0  0  0  3  0  0  0  0  0  0
  161.0180  204.4740  151.5140 C   0  0  0  0  0  0  0  0  0  0  0  0
  161.1530  205.7950  151.5100 N   0  0  0  0  0  0  0  0  0  0  0  0
  160.9990  204.0050  152.7830 N   0  0  0  0  0  0  0  0  0  0  0  0
  162.0840  204.5560  146.7280 C   0  0  0  0  0  2  0  0  0  0  0  0
  161.0200  205.3780  146.0720 C   0  0  0  0  0  0  0  0  0  0  0  0
  160.4900  206.4400  146.6780 C   0  0  0  0  0  3  0  0  0  0  0  0
  161.1370  204.5410  149.0350 C   0  0  0  0  0  0  0  0  0  0  0  0
  160.7320  206.8420  148.0770 C   0  0  0  0  0  3  0  0  0  0  0  0
  161.0500  206.0450  149.1110 C   0  0  0  0  0  0  0  0  0  0  0  0
  160.6430  205.1120  144.6490 C   0  0  2  0  0  3  0  0  0  0  0  0
  160.3230  203.7070  144.4660 N   0  0  0  0  0  1  0  0  0  0  0  0
  161.7680  205.5100  143.7110 C   0  0  0  0  0  1  0  0  0  0  0  0
  161.4890  209.8930  152.4180 C   0  0  0  0  0  2  0  0  0  0  0  0
  158.7490  212.4430  152.2020 C   0  0  0  0  0  2  0  0  0  0  0  0
  160.0440  210.6800  154.1770 C   0  0  0  0  0  2  0  0  0  0  0  0
  156.5020  212.8980  155.2290 C   0  0  0  0  0  0  0  0  0  0  0  0
  157.0640  213.0370  153.9520 C   0  0  0  0  0  3  0  0  0  0  0  0
  158.2080  212.3160  153.5970 C   0  0  0  0  0  0  0  0  0  0  0  0
  158.2330  211.2890  155.7960 C   0  0  0  0  0  3  0  0  0  0  0  0
  158.7830  211.4200  154.5190 C   0  0  0  0  0  0  0  0  0  0  0  0
  157.0960  212.0210  156.1490 C   0  0  0  0  0  3  0  0  0  0  0  0
  160.2120  210.5520  152.7260 N   0  0  0  0  0  0  0  0  0  0  0  0
  160.1640  211.8770  152.1020 C   0  0  0  0  0  2  0  0  0  0  0  0
  155.3320  213.6460  155.5870 N   0  0  0  0  0  0  0  0  0  0  0  0
  154.9580  213.7080  156.7760 O   0  0  0  0  0  0  0  0  0  0  0  0
  154.6080  214.3070  154.6210 O   0  0  0  0  0  0  0  0  0  0  0  0
  1  5  2  0  0  0  0
  1 10  1  0  0  0  0
  2 15  2  0  0  0  0
  3  9  1  0  0  0  0
  4 21  1  0  0  0  0
  4  8  2  0  0  0  0
  5  4  1  0  0  0  0
  6  8  1  0  0  0  0
  6  7  2  0  0  0  0
  9 11  2  0  0  0  0
 10  9  1  0  0  0  0
 10  6  1  0  0  0  0
 11  7  1  0  0  0  0
 12  2  1  0  0  0  0
 13 14  2  0  0  0  0
 13 12  1  0  0  0  0
 14 16  1  0  0  0  0
 15 17  1  0  0  0  0
 15  3  1  0  0  0  0
 16 17  2  0  0  0  0
 17  1  1  0  0  0  0
 18 20  1  6  0  0  0
 18 13  1  0  0  0  0
 19 18  1  0  0  0  0
 21 30  1  0  0  0  0
 22 26  1  0  0  0  0
 23 28  1  0  0  0  0
 24 32  1  0  0  0  0
 24 29  1  0  0  0  0
 25 24  2  0  0  0  0
 26 25  1  0  0  0  0
 26 28  2  0  0  0  0
 27 29  2  0  0  0  0
 28 27  1  0  0  0  0
 30 23  1  0  0  0  0
 31 22  1  0  0  0  0
 31 30  1  0  0  0  0
 32 33  2  0  0  0  0
 34 32  2  0  0  0  0
M  END
>  <MODEL>
1

>  <REMARK>
 VINA RESULT:     -10.2      0.000      0.000
  Name = 
  4 active torsions:
  status: ('A' for Active; 'I' for Inactive)
    1  A    between atoms: C_3  and  C_25
    2  A    between atoms: C_7  and  N_11
    3  A    between atoms: C_8  and  C_18
    4  A    between atoms: C_18  and  N_30
                            x       y       z     vdW  Elec       q    Type
                         _______ _______ _______ _____ _____    ______ ____

>  <TORSDO>
F 4

$$$$
=
 OpenBabel11062409383D

 34 39  0  0  1  0  0  0  0  0999 V2000
  160.8790  209.1770  152.9300 C   0  0  0  0  0  0  0  0  0  0  0  0
  159.9890  212.6370  151.8170 C   0  0  0  0  0  3  0  0  0  0  0  0
  160.3540  211.8630  154.0880 C   0  0  0  0  0  2  0  0  0  0  0  0
  161.0100  206.8230  153.5370 C   0  0  0  0  0  0  0  0  0  0  0  0
  161.1550  207.8470  152.5660 C   0  0  0  0  0  3  0  0  0  0  0  0
  160.3600  208.4720  155.1430 C   0  0  0  0  0  0  0  0  0  0  0  0
  160.0100  209.0290  156.3200 N   0  0  0  0  0  0  0  0  0  0  0  0
  160.6140  207.1330  154.8590 C   0  0  0  0  0  3  0  0  0  0  0  0
  160.2200  210.5490  154.7970 C   0  0  0  0  0  0  0  0  0  0  0  0
  160.4940  209.3950  154.1990 N   0  0  0  0  0  0  0  0  0  0  0  0
  159.9270  210.3460  156.1020 N   0  0  0  0  0  0  0  0  0  0  0  0
  159.8770  212.5490  150.3330 C   0  0  0  0  0  2  0  0  0  0  0  0
  161.2160  212.3810  149.6900 C   0  0  0  0  0  0  0  0  0  0  0  0
  161.9580  211.2940  149.9030 C   0  0  0  0  0  3  0  0  0  0  0  0
  160.4580  211.6540  152.5860 C   0  0  0  0  0  0  0  0  0  0  0  0
  161.6650  210.2310  150.8830 C   0  0  0  0  0  3  0  0  0  0  0  0
  160.9860  210.3510  152.0370 C   0  0  0  0  0  0  0  0  0  0  0  0
  161.6810  213.3660  148.6660 C   0  0  2  0  0  3  0  0  0  0  0  0
  160.6140  213.6590  147.7250 N   0  0  0  0  0  1  0  0  0  0  0  0
  162.8920  212.8370  147.9200 C   0  0  0  0  0  1  0  0  0  0  0  0
  161.2960  205.3940  153.1620 C   0  0  0  0  0  2  0  0  0  0  0  0
  160.9280  203.2910  150.0800 C   0  0  0  0  0  2  0  0  0  0  0  0
  161.7480  206.0070  150.8770 C   0  0  0  0  0  2  0  0  0  0  0  0
  161.3370  204.9910  146.7100 C   0  0  0  0  0  0  0  0  0  0  0  0
  161.1120  204.0190  147.6950 C   0  0  0  0  0  3  0  0  0  0  0  0
  161.2340  204.3390  149.0500 C   0  0  0  0  0  0  0  0  0  0  0  0
  161.7930  206.6240  148.4510 C   0  0  0  0  0  3  0  0  0  0  0  0
  161.5560  205.6570  149.4300 C   0  0  0  0  0  0  0  0  0  0  0  0
  161.6800  206.2950  147.0970 C   0  0  0  0  0  3  0  0  0  0  0  0
  161.0290  205.0750  151.7530 N   0  0  0  0  0  0  0  0  0  0  0  0
  161.4430  203.7010  151.4590 C   0  0  0  0  0  2  0  0  0  0  0  0
  161.2160  204.6520  145.3220 N   0  0  0  0  0  0  0  0  0  0  0  0
  161.4770  205.4930  144.4380 O   0  0  0  0  0  0  0  0  0  0  0  0
  160.8090  203.3910  144.9480 O   0  0  0  0  0  0  0  0  0  0  0  0
  1 10  1  0  0  0  0
  2 15  2  0  0  0  0
  3  9  1  0  0  0  0
  4  8  2  0  0  0  0
  5  1  2  0  0  0  0
  5  4  1  0  0  0  0
  6  7  2  0  0  0  0
  8  6  1  0  0  0  0
  9 11  2  0  0  0  0
 10  9  1  0  0  0  0
 10  6  1  0  0  0  0
 11  7  1  0  0  0  0
 12  2  1  0  0  0  0
 13 14  2  0  0  0  0
 13 12  1  0  0  0  0
 14 16  1  0  0  0  0
 15  3  1  0  0  0  0
 16 17  2  0  0  0  0
 17 15  1  0  0  0  0
 17  1  1  0  0  0  0
 18 20  1  6  0  0  0
 18 13  1  0  0  0  0
 19 18  1  0  0  0  0
 21  4  1  0  0  0  0
 22 31  1  0  0  0  0
 23 30  1  0  0  0  0
 24 29  2  0  0  0  0
 24 25  1  0  0  0  0
 25 26  2  0  0  0  0
 26 28  1  0  0  0  0
 26 22  1  0  0  0  0
 27 28  2  0  0  0  0
 28 23  1  0  0  0  0
 29 27  1  0  0  0  0
 30 21  1  0  0  0  0
 31 30  1  0  0  0  0
 32 24  1  0  0  0  0
 33 32  2  0  0  0  0
 34 32  2  0  0  0  0
M  END
>  <MODEL>
2

>  <REMARK>
 VINA RESULT:      -9.2      4.319      8.711
  Name = 
  4 active torsions:
  status: ('A' for Active; 'I' for Inactive)
    1  A    between atoms: C_3  and  C_25
    2  A    between atoms: C_7  and  N_11
    3  A    between atoms: C_8  and  C_18
    4  A    between atoms: C_18  and  N_30
                            x       y       z     vdW  Elec       q    Type
                         _______ _______ _______ _____ _____    ______ ____

>  <TORSDO>
F 4

$$$$
=
 OpenBabel11062409383D

 34 39  0  0  1  0  0  0  0  0999 V2000
  159.9200  210.1290  153.3190 C   0  0  0  0  0  0  0  0  0  0  0  0
  157.1190  211.1280  155.5900 C   0  0  0  0  0  3  0  0  0  0  0  0
  159.1360  209.9140  156.1770 C   0  0  0  0  0  2  0  0  0  0  0  0
  161.4310  209.1640  151.6710 C   0  0  0  0  0  0  0  0  0  0  0  0
  160.4510  210.1310  152.0170 C   0  0  0  0  0  3  0  0  0  0  0  0
  161.3110  208.2850  153.8920 C   0  0  0  0  0  0  0  0  0  0  0  0
  161.5920  207.5350  154.9780 N   0  0  0  0  0  0  0  0  0  0  0  0
  161.8840  208.2230  152.6250 C   0  0  0  0  0  3  0  0  0  0  0  0
  160.0840  209.0110  155.4470 C   0  0  0  0  0  0  0  0  0  0  0  0
  160.3870  209.1960  154.1670 N   0  0  0  0  0  0  0  0  0  0  0  0
  160.8180  208.0000  155.9640 N   0  0  0  0  0  0  0  0  0  0  0  0
  156.1430  211.8350  154.7120 C   0  0  0  0  0  2  0  0  0  0  0  0
  156.6550  213.1750  154.2880 C   0  0  0  0  0  0  0  0  0  0  0  0
  157.7400  213.2930  153.5240 C   0  0  0  0  0  3  0  0  0  0  0  0
  158.3400  210.7610  155.1990 C   0  0  0  0  0  0  0  0  0  0  0  0
  158.6490  212.1950  153.1430 C   0  0  0  0  0  3  0  0  0  0  0  0
  158.9000  211.0690  153.8320 C   0  0  0  0  0  0  0  0  0  0  0  0
  155.8620  214.4070  154.5890 C   0  0  2  0  0  3  0  0  0  0  0  0
  155.5170  214.4530  155.9990 N   0  0  0  0  0  1  0  0  0  0  0  0
  154.5990  214.4510  153.7490 C   0  0  0  0  0  1  0  0  0  0  0  0
  162.0050  209.1500  150.2810 C   0  0  0  0  0  2  0  0  0  0  0  0
  162.0780  206.5570  147.5740 C   0  0  0  0  0  2  0  0  0  0  0  0
  161.1770  206.8900  150.3600 C   0  0  0  0  0  2  0  0  0  0  0  0
  161.0490  203.0160  148.4790 C   0  0  0  0  0  0  0  0  0  0  0  0
  161.4900  204.1330  147.7560 C   0  0  0  0  0  3  0  0  0  0  0  0
  161.5440  205.3930  148.3580 C   0  0  0  0  0  0  0  0  0  0  0  0
  160.7290  204.4280  150.4300 C   0  0  0  0  0  3  0  0  0  0  0  0
  161.1810  205.5360  149.7120 C   0  0  0  0  0  0  0  0  0  0  0  0
  160.6680  203.1720  149.8190 C   0  0  0  0  0  3  0  0  0  0  0  0
  162.0860  207.8150  149.6740 N   0  0  0  0  0  0  0  0  0  0  0  0
  161.7400  207.8840  148.2520 C   0  0  0  0  0  2  0  0  0  0  0  0
  160.9910  201.7280  147.8510 N   0  0  0  0  0  0  0  0  0  0  0  0
  160.7550  201.6280  146.6290 O   0  0  0  0  0  0  0  0  0  0  0  0
  161.1960  200.5850  148.5900 O   0  0  0  0  0  0  0  0  0  0  0  0
  1 17  1  0  0  0  0
  1 10  1  0  0  0  0
  4  5  1  0  0  0  0
  4  8  2  0  0  0  0
  5  1  2  0  0  0  0
  6 10  1  0  0  0  0
  6  7  2  0  0  0  0
  7 11  1  0  0  0  0
  8  6  1  0  0  0  0
  9 11  2  0  0  0  0
  9  3  1  0  0  0  0
 10  9  1  0  0  0  0
 12  2  1  0  0  0  0
 13 18  1  0  0  0  0
 13 12  1  0  0  0  0
 14 13  2  0  0  0  0
 15  2  2  0  0  0  0
 15  3  1  0  0  0  0
 16 14  1  0  0  0  0
 16 17  2  0  0  0  0
 17 15  1  0  0  0  0
 18 20  1  6  0  0  0
 18 19  1  0  0  0  0
 21  4  1  0  0  0  0
 22 31  1  0  0  0  0
 22 26  1  0  0  0  0
 24 29  1  0  0  0  0
 25 26  1  0  0  0  0
 25 24  2  0  0  0  0
 26 28  2  0  0  0  0
 28 23  1  0  0  0  0
 28 27  1  0  0  0  0
 29 27  2  0  0  0  0
 30 21  1  0  0  0  0
 30 23  1  0  0  0  0
 31 30  1  0  0  0  0
 32 24  1  0  0  0  0
 32 34  2  0  0  0  0
 33 32  2  0  0  0  0
M  END
>  <MODEL>
3

>  <REMARK>
 VINA RESULT:      -9.1      4.395      9.772
  Name = 
  4 active torsions:
  status: ('A' for Active; 'I' for Inactive)
    1  A    between atoms: C_3  and  C_25
    2  A    between atoms: C_7  and  N_11
    3  A    between atoms: C_8  and  C_18
    4  A    between atoms: C_18  and  N_30
                            x       y       z     vdW  Elec       q    Type
                         _______ _______ _______ _____ _____    ______ ____

>  <TORSDO>
F 4

$$$$
=
 OpenBabel11062409383D

 34 39  0  0  1  0  0  0  0  0999 V2000
  160.6200  209.2580  152.8280 C   0  0  0  0  0  0  0  0  0  0  0  0
  158.4830  210.6490  155.5670 C   0  0  0  0  0  3  0  0  0  0  0  0
  160.0880  208.8350  155.7210 C   0  0  0  0  0  2  0  0  0  0  0  0
  161.6040  208.1710  150.8840 C   0  0  0  0  0  0  0  0  0  0  0  0
  160.9990  209.3110  151.4740 C   0  0  0  0  0  3  0  0  0  0  0  0
  161.4400  207.0290  152.9790 C   0  0  0  0  0  0  0  0  0  0  0  0
  161.5860  206.0720  153.9180 N   0  0  0  0  0  0  0  0  0  0  0  0
  161.8420  207.0040  151.6460 C   0  0  0  0  0  3  0  0  0  0  0  0
  160.6450  207.8250  154.7640 C   0  0  0  0  0  0  0  0  0  0  0  0
  160.8640  208.1120  153.4860 N   0  0  0  0  0  0  0  0  0  0  0  0
  161.0870  206.5790  155.0500 N   0  0  0  0  0  0  0  0  0  0  0  0
  157.6860  211.7320  154.9230 C   0  0  0  0  0  2  0  0  0  0  0  0
  158.5340  212.9190  154.5960 C   0  0  0  0  0  0  0  0  0  0  0  0
  159.5250  212.8410  153.7080 C   0  0  0  0  0  3  0  0  0  0  0  0
  159.4930  210.0150  154.9700 C   0  0  0  0  0  0  0  0  0  0  0  0
  160.0200  211.6020  153.0770 C   0  0  0  0  0  3  0  0  0  0  0  0
  159.9850  210.3590  153.5860 C   0  0  0  0  0  0  0  0  0  0  0  0
  158.1820  214.2630  155.1480 C   0  0  2  0  0  3  0  0  0  0  0  0
  158.8000  214.4530  156.4490 N   0  0  0  0  0  1  0  0  0  0  0  0
  156.6770  214.4180  155.2670 C   0  0  0  0  0  1  0  0  0  0  0  0
  162.0100  208.2110  149.4360 C   0  0  0  0  0  2  0  0  0  0  0  0
  162.1790  205.6820  146.6730 C   0  0  0  0  0  2  0  0  0  0  0  0
  161.1750  205.9510  149.4300 C   0  0  0  0  0  2  0  0  0  0  0  0
  161.1100  202.1230  147.4540 C   0  0  0  0  0  0  0  0  0  0  0  0
  161.5810  203.2550  146.7750 C   0  0  0  0  0  3  0  0  0  0  0  0
  161.6140  204.5010  147.4090 C   0  0  0  0  0  0  0  0  0  0  0  0
  160.7190  203.4890  149.4250 C   0  0  0  0  0  3  0  0  0  0  0  0
  161.2010  204.6130  148.7510 C   0  0  0  0  0  0  0  0  0  0  0  0
  160.6780  202.2490  148.7820 C   0  0  0  0  0  3  0  0  0  0  0  0
  162.1110  206.8890  148.8010 N   0  0  0  0  0  0  0  0  0  0  0  0
  161.8200  206.9930  147.3690 C   0  0  0  0  0  2  0  0  0  0  0  0
  161.0730  200.8500  146.7940 N   0  0  0  0  0  0  0  0  0  0  0  0
  161.5750  199.8420  147.3310 O   0  0  0  0  0  0  0  0  0  0  0  0
  160.4810  200.7270  145.5570 O   0  0  0  0  0  0  0  0  0  0  0  0
  1 10  1  0  0  0  0
  1 17  1  0  0  0  0
  4  5  1  0  0  0  0
  4  8  2  0  0  0  0
  5  1  2  0  0  0  0
  6 10  1  0  0  0  0
  6  7  2  0  0  0  0
  7 11  1  0  0  0  0
  8  6  1  0  0  0  0
  9 11  2  0  0  0  0
  9  3  1  0  0  0  0
 10  9  1  0  0  0  0
 12  2  1  0  0  0  0
 13 12  1  0  0  0  0
 13 18  1  0  0  0  0
 14 13  2  0  0  0  0
 15  2  2  0  0  0  0
 15  3  1  0  0  0  0
 16 17  2  0  0  0  0
 16 14  1  0  0  0  0
 17 15  1  0  0  0  0
 18 20  1  1  0  0  0
 18 19  1  0  0  0  0
 21  4  1  0  0  0  0
 22 31  1  0  0  0  0
 22 26  1  0  0  0  0
 24 29  1  0  0  0  0
 25 26  1  0  0  0  0
 25 24  2  0  0  0  0
 26 28  2  0  0  0  0
 28 27  1  0  0  0  0
 28 23  1  0  0  0  0
 29 27  2  0  0  0  0
 30 23  1  0  0  0  0
 30 21  1  0  0  0  0
 31 30  1  0  0  0  0
 32 33  2  0  0  0  0
 32 24  1  0  0  0  0
 34 32  2  0  0  0  0
M  END
>  <MODEL>
4

>  <REMARK>
 VINA RESULT:      -9.1      4.613     10.023
  Name = 
  4 active torsions:
  status: ('A' for Active; 'I' for Inactive)
    1  A    between atoms: C_3  and  C_25
    2  A    between atoms: C_7  and  N_11
    3  A    between atoms: C_8  and  C_18
    4  A    between atoms: C_18  and  N_30
                            x       y       z     vdW  Elec       q    Type
                         _______ _______ _______ _____ _____    ______ ____

>  <TORSDO>
F 4

$$$$
=
 OpenBabel11062409383D

 34 39  0  0  1  0  0  0  0  0999 V2000
  160.3740  209.8470  153.8250 C   0  0  0  0  0  0  0  0  0  0  0  0
  158.6470  213.1130  153.2280 C   0  0  0  0  0  3  0  0  0  0  0  0
  159.4950  212.2510  155.3330 C   0  0  0  0  0  2  0  0  0  0  0  0
  161.0680  207.5350  154.1440 C   0  0  0  0  0  0  0  0  0  0  0  0
  160.8560  208.6420  153.2820 C   0  0  0  0  0  3  0  0  0  0  0  0
  160.3440  208.8680  155.9930 C   0  0  0  0  0  0  0  0  0  0  0  0
  160.0670  209.2380  157.2610 N   0  0  0  0  0  0  0  0  0  0  0  0
  160.8180  207.6430  155.5320 C   0  0  0  0  0  3  0  0  0  0  0  0
  159.7370  210.8860  155.9020 C   0  0  0  0  0  0  0  0  0  0  0  0
  160.1460  209.8720  155.1490 N   0  0  0  0  0  0  0  0  0  0  0  0
  159.6880  210.5190  157.2030 N   0  0  0  0  0  0  0  0  0  0  0  0
  158.3360  213.1240  151.7700 C   0  0  0  0  0  2  0  0  0  0  0  0
  159.5710  213.3020  150.9450 C   0  0  0  0  0  0  0  0  0  0  0  0
  160.5400  212.3870  150.9390 C   0  0  0  0  0  3  0  0  0  0  0  0
  159.4150  212.1940  153.8160 C   0  0  0  0  0  0  0  0  0  0  0  0
  160.6170  211.2100  151.8250 C   0  0  0  0  0  3  0  0  0  0  0  0
  160.1070  211.0860  153.0610 C   0  0  0  0  0  0  0  0  0  0  0  0
  159.6690  214.4460  149.9860 C   0  0  2  0  0  3  0  0  0  0  0  0
  158.5590  214.4160  149.0500 N   0  0  0  0  0  1  0  0  0  0  0  0
  160.9830  214.4000  149.2280 C   0  0  0  0  0  1  0  0  0  0  0  0
  161.5780  206.2370  153.5790 C   0  0  0  0  0  2  0  0  0  0  0  0
  160.6960  204.3150  150.4830 C   0  0  0  0  0  2  0  0  0  0  0  0
  162.0940  206.7810  151.2890 C   0  0  0  0  0  2  0  0  0  0  0  0
  161.3750  205.9490  147.1230 C   0  0  0  0  0  0  0  0  0  0  0  0
  160.9720  205.0300  148.1020 C   0  0  0  0  0  3  0  0  0  0  0  0
  161.1930  205.2930  149.4570 C   0  0  0  0  0  0  0  0  0  0  0  0
  162.2100  207.4170  148.8710 C   0  0  0  0  0  3  0  0  0  0  0  0
  161.7960  206.5050  149.8440 C   0  0  0  0  0  0  0  0  0  0  0  0
  161.9970  207.1430  147.5170 C   0  0  0  0  0  3  0  0  0  0  0  0
  161.2150  206.0080  152.1730 N   0  0  0  0  0  0  0  0  0  0  0  0
  161.3200  204.5820  151.8510 C   0  0  0  0  0  2  0  0  0  0  0  0
  161.1510  205.6680  145.7350 N   0  0  0  0  0  0  0  0  0  0  0  0
  160.2240  206.2300  145.1160 O   0  0  0  0  0  0  0  0  0  0  0  0
  161.9570  204.7740  145.0690 O   0  0  0  0  0  0  0  0  0  0  0  0
  1 10  1  0  0  0  0
  2 15  2  0  0  0  0
  3  9  1  0  0  0  0
  4  8  2  0  0  0  0
  5  1  2  0  0  0  0
  5  4  1  0  0  0  0
  6  7  2  0  0  0  0
  8  6  1  0  0  0  0
  9 11  2  0  0  0  0
 10  9  1  0  0  0  0
 10  6  1  0  0  0  0
 11  7  1  0  0  0  0
 12  2  1  0  0  0  0
 13 12  1  0  0  0  0
 14 13  2  0  0  0  0
 14 16  1  0  0  0  0
 15  3  1  0  0  0  0
 16 17  2  0  0  0  0
 17 15  1  0  0  0  0
 17  1  1  0  0  0  0
 18 20  1  6  0  0  0
 18 13  1  0  0  0  0
 19 18  1  0  0  0  0
 21  4  1  0  0  0  0
 22 31  1  0  0  0  0
 23 30  1  0  0  0  0
 24 29  2  0  0  0  0
 24 25  1  0  0  0  0
 25 26  2  0  0  0  0
 26 28  1  0  0  0  0
 26 22  1  0  0  0  0
 27 28  2  0  0  0  0
 28 23  1  0  0  0  0
 29 27  1  0  0  0  0
 30 21  1  0  0  0  0
 31 30  1  0  0  0  0
 32 24  1  0  0  0  0
 33 32  2  0  0  0  0
 34 32  2  0  0  0  0
M  END
>  <MODEL>
5

>  <REMARK>
 VINA RESULT:      -9.1      4.122      8.869
  Name = 
  4 active torsions:
  status: ('A' for Active; 'I' for Inactive)
    1  A    between atoms: C_3  and  C_25
    2  A    between atoms: C_7  and  N_11
    3  A    between atoms: C_8  and  C_18
    4  A    between atoms: C_18  and  N_30
                            x       y       z     vdW  Elec       q    Type
                         _______ _______ _______ _____ _____    ______ ____

>  <TORSDO>
F 4

$$$$
=
 OpenBabel11062409383D

 34 39  0  0  1  0  0  0  0  0999 V2000
  160.2090  210.6690  152.1490 C   0  0  0  0  0  0  0  0  0  0  0  0
  158.9770  214.0990  152.9960 C   0  0  0  0  0  3  0  0  0  0  0  0
  159.8730  213.3320  150.8750 C   0  0  0  0  0  2  0  0  0  0  0  0
  161.3780  208.5500  151.8760 C   0  0  0  0  0  0  0  0  0  0  0  0
  160.4420  209.3500  152.5810 C   0  0  0  0  0  3  0  0  0  0  0  0
  161.7710  210.3730  150.3780 C   0  0  0  0  0  0  0  0  0  0  0  0
  162.2480  211.0740  149.3290 N   0  0  0  0  0  0  0  0  0  0  0  0
  162.0560  209.0600  150.7440 C   0  0  0  0  0  3  0  0  0  0  0  0
  160.8320  212.2600  150.4510 C   0  0  0  0  0  0  0  0  0  0  0  0
  160.8990  211.0900  151.0750 N   0  0  0  0  0  0  0  0  0  0  0  0
  161.6470  212.2680  149.3720 N   0  0  0  0  0  0  0  0  0  0  0  0
  158.5540  214.0160  154.4230 C   0  0  0  0  0  2  0  0  0  0  0  0
  157.2980  213.2180  154.5780 C   0  0  0  0  0  0  0  0  0  0  0  0
  157.2590  211.9200  154.2790 C   0  0  0  0  0  3  0  0  0  0  0  0
  159.3200  213.0400  152.2600 C   0  0  0  0  0  0  0  0  0  0  0  0
  158.3360  211.1550  153.6230 C   0  0  0  0  0  3  0  0  0  0  0  0
  159.2660  211.6220  152.7730 C   0  0  0  0  0  0  0  0  0  0  0  0
  156.0990  213.8330  155.2260 C   0  0  2  0  0  3  0  0  0  0  0  0
  155.5800  212.9570  156.2620 N   0  0  0  0  0  1  0  0  0  0  0  0
  155.0170  214.1120  154.1990 C   0  0  0  0  0  1  0  0  0  0  0  0
  161.6420  207.1400  152.3280 C   0  0  0  0  0  2  0  0  0  0  0  0
  161.3400  205.7660  148.8530 C   0  0  0  0  0  2  0  0  0  0  0  0
  161.1950  204.8700  151.6570 C   0  0  0  0  0  2  0  0  0  0  0  0
  161.1090  201.9970  148.4460 C   0  0  0  0  0  0  0  0  0  0  0  0
  161.1740  203.3680  148.1600 C   0  0  0  0  0  3  0  0  0  0  0  0
  161.2110  204.3090  149.1930 C   0  0  0  0  0  0  0  0  0  0  0  0
  161.1360  202.5110  150.8210 C   0  0  0  0  0  3  0  0  0  0  0  0
  161.2140  203.8740  150.5330 C   0  0  0  0  0  0  0  0  0  0  0  0
  161.0880  201.5760  149.7840 C   0  0  0  0  0  3  0  0  0  0  0  0
  161.7420  206.1640  151.2340 N   0  0  0  0  0  0  0  0  0  0  0  0
  161.0160  206.6480  150.0570 C   0  0  0  0  0  2  0  0  0  0  0  0
  161.0650  201.0400  147.3800 N   0  0  0  0  0  0  0  0  0  0  0  0
  161.5770  199.9110  147.5190 O   0  0  0  0  0  0  0  0  0  0  0  0
  160.4550  201.3560  146.1870 O   0  0  0  0  0  0  0  0  0  0  0  0
  1  5  2  0  0  0  0
  1 17  1  0  0  0  0
  2 12  1  0  0  0  0
  3 15  1  0  0  0  0
  4 21  1  0  0  0  0
  4  5  1  0  0  0  0
  6  8  1  0  0  0  0
  6 10  1  0  0  0  0
  7 11  1  0  0  0  0
  7  6  2  0  0  0  0
  8  4  2  0  0  0  0
  9  3  1  0  0  0  0
  9 10  1  0  0  0  0
 10  1  1  0  0  0  0
 11  9  2  0  0  0  0
 12 13  1  0  0  0  0
 13 18  1  0  0  0  0
 14 13  2  0  0  0  0
 15 17  1  0  0  0  0
 15  2  2  0  0  0  0
 16 14  1  0  0  0  0
 17 16  2  0  0  0  0
 18 20  1  6  0  0  0
 18 19  1  0  0  0  0
 22 26  1  0  0  0  0
 22 31  1  0  0  0  0
 24 29  1  0  0  0  0
 25 24  2  0  0  0  0
 25 26  1  0  0  0  0
 26 28  2  0  0  0  0
 28 27  1  0  0  0  0
 28 23  1  0  0  0  0
 29 27  2  0  0  0  0
 30 23  1  0  0  0  0
 30 21  1  0  0  0  0
 31 30  1  0  0  0  0
 32 33  2  0  0  0  0
 32 24  1  0  0  0  0
 34 32  2  0  0  0  0
M  END
>  <MODEL>
6

>  <REMARK>
 VINA RESULT:      -8.4      4.498     10.280
  Name = 
  4 active torsions:
  status: ('A' for Active; 'I' for Inactive)
    1  A    between atoms: C_3  and  C_25
    2  A    between atoms: C_7  and  N_11
    3  A    between atoms: C_8  and  C_18
    4  A    between atoms: C_18  and  N_30
                            x       y       z     vdW  Elec       q    Type
                         _______ _______ _______ _____ _____    ______ ____

>  <TORSDO>
F 4

$$$$
=
 OpenBabel11062409383D

 34 39  0  0  1  0  0  0  0  0999 V2000
  160.7980  208.6450  152.9420 C   0  0  0  0  0  0  0  0  0  0  0  0
  160.5610  212.1280  154.2890 C   0  0  0  0  0  3  0  0  0  0  0  0
  160.8130  211.4530  151.9710 C   0  0  0  0  0  2  0  0  0  0  0  0
  161.3840  206.3810  152.2620 C   0  0  0  0  0  0  0  0  0  0  0  0
  160.8130  207.2650  153.2140 C   0  0  0  0  0  3  0  0  0  0  0  0
  161.8610  208.2520  150.8500 C   0  0  0  0  0  0  0  0  0  0  0  0
  162.2590  208.9620  149.7740 N   0  0  0  0  0  0  0  0  0  0  0  0
  161.9130  206.8750  151.0460 C   0  0  0  0  0  3  0  0  0  0  0  0
  161.4020  210.2680  151.2670 C   0  0  0  0  0  0  0  0  0  0  0  0
  161.3320  209.0430  151.7740 N   0  0  0  0  0  0  0  0  0  0  0  0
  161.9620  210.2380  150.0370 N   0  0  0  0  0  0  0  0  0  0  0  0
  160.4290  211.9640  155.7650 C   0  0  0  0  0  2  0  0  0  0  0  0
  159.0860  211.4240  156.1390 C   0  0  0  0  0  0  0  0  0  0  0  0
  158.6970  210.2060  155.7630 C   0  0  0  0  0  3  0  0  0  0  0  0
  160.5030  211.1170  153.4200 C   0  0  0  0  0  0  0  0  0  0  0  0
  159.4200  209.3220  154.8290 C   0  0  0  0  0  3  0  0  0  0  0  0
  160.2380  209.6890  153.8280 C   0  0  0  0  0  0  0  0  0  0  0  0
  158.2110  212.1870  157.0820 C   0  0  2  0  0  3  0  0  0  0  0  0
  156.8140  212.0270  156.7160 N   0  0  0  0  0  1  0  0  0  0  0  0
  158.5770  213.6600  157.0820 C   0  0  0  0  0  1  0  0  0  0  0  0
  161.4110  204.9030  152.5410 C   0  0  0  0  0  2  0  0  0  0  0  0
  160.7350  201.7740  150.5900 C   0  0  0  0  0  2  0  0  0  0  0  0
  161.6340  204.5480  150.1690 C   0  0  0  0  0  2  0  0  0  0  0  0
  160.8090  201.9920  146.8000 C   0  0  0  0  0  0  0  0  0  0  0  0
  160.6810  201.4960  148.1050 C   0  0  0  0  0  3  0  0  0  0  0  0
  160.9380  202.3190  149.2050 C   0  0  0  0  0  0  0  0  0  0  0  0
  161.4390  204.1580  147.7030 C   0  0  0  0  0  3  0  0  0  0  0  0
  161.2980  203.6650  149.0020 C   0  0  0  0  0  0  0  0  0  0  0  0
  161.1910  203.3280  146.6070 C   0  0  0  0  0  3  0  0  0  0  0  0
  161.0050  204.0670  151.4030 N   0  0  0  0  0  0  0  0  0  0  0  0
  161.3850  202.6720  151.6410 C   0  0  0  0  0  2  0  0  0  0  0  0
  160.5490  201.1390  145.6760 N   0  0  0  0  0  0  0  0  0  0  0  0
  160.8310  199.9240  145.7240 O   0  0  0  0  0  0  0  0  0  0  0  0
  159.9850  201.6520  144.5310 O   0  0  0  0  0  0  0  0  0  0  0  0
  1  5  2  0  0  0  0
  1 17  1  0  0  0  0
  2 12  1  0  0  0  0
  3 15  1  0  0  0  0
  4 21  1  0  0  0  0
  4  5  1  0  0  0  0
  6  8  1  0  0  0  0
  6 10  1  0  0  0  0
  7 11  1  0  0  0  0
  7  6  2  0  0  0  0
  8  4  2  0  0  0  0
  9 10  1  0  0  0  0
  9  3  1  0  0  0  0
 10  1  1  0  0  0  0
 11  9  2  0  0  0  0
 12 13  1  0  0  0  0
 13 18  1  0  0  0  0
 14 13  2  0  0  0  0
 15 17  1  0  0  0  0
 15  2  2  0  0  0  0
 16 14  1  0  0  0  0
 17 16  2  0  0  0  0
 18 20  1  6  0  0  0
 19 18  1  0  0  0  0
 22 31  1  0  0  0  0
 23 30  1  0  0  0  0
 24 25  1  0  0  0  0
 25 26  2  0  0  0  0
 26 22  1  0  0  0  0
 27 28  2  0  0  0  0
 28 26  1  0  0  0  0
 28 23  1  0  0  0  0
 29 24  2  0  0  0  0
 29 27  1  0  0  0  0
 30 31  1  0  0  0  0
 30 21  1  0  0  0  0
 32 33  2  0  0  0  0
 32 24  1  0  0  0  0
 34 32  2  0  0  0  0
M  END
>  <MODEL>
7

>  <REMARK>
 VINA RESULT:      -8.3      4.638     10.482
  Name = 
  4 active torsions:
  status: ('A' for Active; 'I' for Inactive)
    1  A    between atoms: C_3  and  C_25
    2  A    between atoms: C_7  and  N_11
    3  A    between atoms: C_8  and  C_18
    4  A    between atoms: C_18  and  N_30
                            x       y       z     vdW  Elec       q    Type
                         _______ _______ _______ _____ _____    ______ ____

>  <TORSDO>
F 4

$$$$
=
 OpenBabel11062409383D

 34 39  0  0  1  0  0  0  0  0999 V2000
  161.4320  205.6370  149.6030 C   0  0  0  0  0  0  0  0  0  0  0  0
  160.9110  204.6940  146.0190 C   0  0  0  0  0  3  0  0  0  0  0  0
  162.1520  206.5920  146.8830 C   0  0  0  0  0  2  0  0  0  0  0  0
  161.3130  206.3730  151.9210 C   0  0  0  0  0  0  0  0  0  0  0  0
  161.1900  205.3390  150.9570 C   0  0  0  0  0  3  0  0  0  0  0  0
  161.9150  207.8950  150.1770 C   0  0  0  0  0  0  0  0  0  0  0  0
  162.3170  209.0260  149.5620 N   0  0  0  0  0  0  0  0  0  0  0  0
  161.6920  207.6800  151.5340 C   0  0  0  0  0  3  0  0  0  0  0  0
  162.0910  207.4240  148.1290 C   0  0  0  0  0  0  0  0  0  0  0  0
  161.7740  206.9030  149.3080 N   0  0  0  0  0  0  0  0  0  0  0  0
  162.4340  208.7250  148.2640 N   0  0  0  0  0  0  0  0  0  0  0  0
  160.0740  203.4610  146.0620 C   0  0  0  0  0  2  0  0  0  0  0  0
  160.8540  202.2840  146.5540 C   0  0  0  0  0  0  0  0  0  0  0  0
  161.3410  202.2420  147.7940 C   0  0  0  0  0  3  0  0  0  0  0  0
  161.4620  205.2550  147.0970 C   0  0  0  0  0  0  0  0  0  0  0  0
  161.3340  203.3580  148.7590 C   0  0  0  0  0  3  0  0  0  0  0  0
  161.3490  204.6730  148.4840 C   0  0  0  0  0  0  0  0  0  0  0  0
  160.9670  201.0570  145.7060 C   0  0  2  0  0  3  0  0  0  0  0  0
  159.7630  200.8770  144.9150 N   0  0  0  0  0  1  0  0  0  0  0  0
  161.2070  199.8290  146.5650 C   0  0  0  0  0  1  0  0  0  0  0  0
  161.0530  206.0720  153.3720 C   0  0  0  0  0  2  0  0  0  0  0  0
  160.3190  208.1260  156.4220 C   0  0  0  0  0  2  0  0  0  0  0  0
  160.4560  208.4020  153.4910 C   0  0  0  0  0  2  0  0  0  0  0  0
  159.9130  211.8760  155.9820 C   0  0  0  0  0  0  0  0  0  0  0  0
  159.9940  210.6020  156.5620 C   0  0  0  0  0  3  0  0  0  0  0  0
  160.1780  209.4690  155.7640 C   0  0  0  0  0  0  0  0  0  0  0  0
  160.2230  210.8770  153.7880 C   0  0  0  0  0  3  0  0  0  0  0  0
  160.3160  209.6110  154.3690 C   0  0  0  0  0  0  0  0  0  0  0  0
  160.0280  212.0050  154.5900 C   0  0  0  0  0  3  0  0  0  0  0  0
  160.9980  207.2600  154.2350 N   0  0  0  0  0  0  0  0  0  0  0  0
  160.1620  206.9930  155.4090 C   0  0  0  0  0  2  0  0  0  0  0  0
  159.7180  213.0320  156.8070 N   0  0  0  0  0  0  0  0  0  0  0  0
  160.6830  213.7560  157.1240 O   0  0  0  0  0  0  0  0  0  0  0  0
  158.4590  213.3560  157.2610 O   0  0  0  0  0  0  0  0  0  0  0  0
  1  5  2  0  0  0  0
  2 12  1  0  0  0  0
  2 15  2  0  0  0  0
  3 15  1  0  0  0  0
  3  9  1  0  0  0  0
  4 21  1  0  0  0  0
  5  4  1  0  0  0  0
  6  8  1  0  0  0  0
  7  6  2  0  0  0  0
  8  4  2  0  0  0  0
  9 11  2  0  0  0  0
  9 10  1  0  0  0  0
 10  1  1  0  0  0  0
 10  6  1  0  0  0  0
 11  7  1  0  0  0  0
 12 13  1  0  0  0  0
 13 14  2  0  0  0  0
 14 16  1  0  0  0  0
 15 17  1  0  0  0  0
 17 16  2  0  0  0  0
 17  1  1  0  0  0  0
 18 13  1  0  0  0  0
 18 20  1  1  0  0  0
 19 18  1  0  0  0  0
 21 30  1  0  0  0  0
 23 30  1  0  0  0  0
 23 28  1  0  0  0  0
 24 25  1  0  0  0  0
 24 32  1  0  0  0  0
 26 22  1  0  0  0  0
 26 25  2  0  0  0  0
 27 28  2  0  0  0  0
 27 29  1  0  0  0  0
 28 26  1  0  0  0  0
 29 24  2  0  0  0  0
 30 31  1  0  0  0  0
 31 22  1  0  0  0  0
 32 33  2  0  0  0  0
 32 34  2  0  0  0  0
M  END
>  <MODEL>
8

>  <REMARK>
 VINA RESULT:      -7.2      2.514      3.993
  Name = 
  4 active torsions:
  status: ('A' for Active; 'I' for Inactive)
    1  A    between atoms: C_3  and  C_25
    2  A    between atoms: C_7  and  N_11
    3  A    between atoms: C_8  and  C_18
    4  A    between atoms: C_18  and  N_30
                            x       y       z     vdW  Elec       q    Type
                         _______ _______ _______ _____ _____    ______ ____

>  <TORSDO>
F 4

$$$$
