=
 OpenBabel11052422533D

 28 31  0  0  1  0  0  0  0  0999 V2000
  161.4340  203.8350  148.5450 C   0  0  2  0  0  3  0  0  0  0  0  0
  159.1000  200.6190  150.1780 C   0  0  0  0  0  1  0  0  0  0  0  0
  161.5950  205.3050  151.2890 C   0  0  2  0  0  3  0  0  0  0  0  0
  160.3890  202.7160  150.5990 C   0  0  2  0  0  3  0  0  0  0  0  0
  160.3730  205.2370  150.3710 C   0  0  0  0  0  2  0  0  0  0  0  0
  160.6010  201.4440  148.3740 C   0  0  0  0  0  2  0  0  0  0  0  0
  161.6020  202.8150  151.5270 C   0  0  0  0  0  2  0  0  0  0  0  0
  160.3930  201.3530  149.8880 C   0  0  2  0  0  3  0  0  0  0  0  0
  161.5960  204.1420  152.2800 C   0  0  0  0  0  2  0  0  0  0  0  0
  161.7340  202.4110  148.0460 C   0  0  0  0  0  2  0  0  0  0  0  0
  160.3310  203.9060  149.6180 C   0  0  1  0  0  3  0  0  0  0  0  0
  161.5460  206.6840  153.3120 C   0  0  0  0  0  3  0  0  0  0  0  0
  161.3760  209.0440  151.3670 C   0  0  0  0  0  3  0  0  0  0  0  0
  160.6020  208.9120  153.7330 C   0  0  0  0  0  0  0  0  0  0  0  0
  161.6840  206.6360  151.9800 C   0  0  0  0  0  0  0  0  0  0  0  0
  162.7180  207.6960  149.8880 C   0  0  0  0  0  1  0  0  0  0  0  0
  160.5320  209.4390  152.5110 C   0  0  0  0  0  3  0  0  0  0  0  0
  161.9280  207.8430  151.1430 C   0  0  0  0  0  0  0  0  0  0  0  0
  159.6700  209.4010  154.7840 C   0  0  0  0  0  1  0  0  0  0  0  0
  161.6640  207.9370  154.1120 C   0  0  0  0  0  2  0  0  0  0  0  0
  161.1500  204.7420  147.4290 N   0  0  0  0  0  0  0  0  0  0  0  0
  160.6870  206.0010  147.6870 C   0  0  0  0  0  3  0  0  0  0  0  0
  161.1130  205.1950  145.0730 C   0  0  0  0  0  0  0  0  0  0  0  0
  160.4230  206.8890  146.6440 C   0  0  0  0  0  3  0  0  0  0  0  0
  161.8020  203.1670  145.9070 O   0  0  0  0  0  0  0  0  0  0  0  0
  161.3690  204.3280  146.1410 C   0  0  0  0  0  0  0  0  0  0  0  0
  161.3240  204.7990  143.7940 F   0  0  0  0  0  0  0  0  0  0  0  0
  160.6380  206.4800  145.3300 C   0  0  0  0  0  3  0  0  0  0  0  0
  1 21  1  6  0  0  0
  1 11  1  0  0  0  0
  3 15  1  1  0  0  0
  3  9  1  0  0  0  0
  4  7  1  6  0  0  0
  5  3  1  0  0  0  0
  6  8  1  0  0  0  0
  7  9  1  0  0  0  0
  8  2  1  6  0  0  0
  8  4  1  0  0  0  0
 10  6  1  0  0  0  0
 10  1  1  0  0  0  0
 11  5  1  1  0  0  0
 11  4  1  0  0  0  0
 12 20  1  0  0  0  0
 13 17  1  0  0  0  0
 14 20  1  0  0  0  0
 14 19  1  0  0  0  0
 15 12  2  0  0  0  0
 16 18  1  0  0  0  0
 17 14  2  0  0  0  0
 18 13  2  0  0  0  0
 18 15  1  0  0  0  0
 21 22  1  0  0  0  0
 23 28  2  0  0  0  0
 23 26  1  0  0  0  0
 24 22  2  0  0  0  0
 25 26  2  0  0  0  0
 26 21  1  0  0  0  0
 27 23  1  0  0  0  0
 28 24  1  0  0  0  0
M  END
>  <MODEL>
1

>  <REMARK>
 VINA RESULT:      -8.9      0.000      0.000
  Name = 
  2 active torsions:
  status: ('A' for Active; 'I' for Inactive)
    1  A    between atoms: C_1  and  N_2
    2  A    between atoms: C_10  and  C_13
                            x       y       z     vdW  Elec       q    Type
                         _______ _______ _______ _____ _____    ______ ____

>  <TORSDO>
F 2

$$$$
=
 OpenBabel11052422533D

 28 31  0  0  1  0  0  0  0  0999 V2000
  159.7090  210.6730  153.8730 C   0  0  2  0  0  3  0  0  0  0  0  0
  162.3440  210.8610  157.2610 C   0  0  0  0  0  1  0  0  0  0  0  0
  161.0320  208.0600  152.8050 C   0  0  2  0  0  3  0  0  0  0  0  0
  161.5700  209.5860  155.2590 C   0  0  2  0  0  3  0  0  0  0  0  0
  161.6250  209.4690  152.7300 C   0  0  0  0  0  2  0  0  0  0  0  0
  160.1960  211.5420  156.2070 C   0  0  0  0  0  2  0  0  0  0  0  0
  160.9920  208.1700  155.3040 C   0  0  0  0  0  2  0  0  0  0  0  0
  161.1270  210.3640  156.5080 C   0  0  2  0  0  3  0  0  0  0  0  0
  161.4540  207.3610  154.0970 C   0  0  0  0  0  2  0  0  0  0  0  0
  159.1130  211.1300  155.2160 C   0  0  0  0  0  2  0  0  0  0  0  0
  161.2030  210.3020  153.9420 C   0  0  1  0  0  3  0  0  0  0  0  0
  161.8960  207.8840  150.5210 C   0  0  0  0  0  3  0  0  0  0  0  0
  160.7100  205.0610  150.5850 C   0  0  0  0  0  3  0  0  0  0  0  0
  161.1700  206.5170  148.6140 C   0  0  0  0  0  0  0  0  0  0  0  0
  161.3820  207.2550  151.5860 C   0  0  0  0  0  0  0  0  0  0  0  0
  161.2400  205.0800  152.9360 C   0  0  0  0  0  1  0  0  0  0  0  0
  160.5000  205.5260  149.2000 C   0  0  0  0  0  3  0  0  0  0  0  0
  161.1420  205.7870  151.6270 C   0  0  0  0  0  0  0  0  0  0  0  0
  160.8340  206.8850  147.2130 C   0  0  0  0  0  1  0  0  0  0  0  0
  162.3260  207.1870  149.2750 C   0  0  0  0  0  2  0  0  0  0  0  0
  159.4530  211.6540  152.8150 N   0  0  0  0  0  0  0  0  0  0  0  0
  160.4400  211.9510  151.9190 C   0  0  0  0  0  3  0  0  0  0  0  0
  157.9680  213.1770  151.7040 C   0  0  0  0  0  0  0  0  0  0  0  0
  160.2180  212.8700  150.8930 C   0  0  0  0  0  3  0  0  0  0  0  0
  157.3110  211.9700  153.5470 O   0  0  0  0  0  0  0  0  0  0  0  0
  158.2230  212.2510  152.7210 C   0  0  0  0  0  0  0  0  0  0  0  0
  156.7550  213.7760  151.5990 F   0  0  0  0  0  0  0  0  0  0  0  0
  158.9730  213.4860  150.7890 C   0  0  0  0  0  3  0  0  0  0  0  0
  1 21  1  6  0  0  0
  1 11  1  0  0  0  0
  1 10  1  0  0  0  0
  3 15  1  6  0  0  0
  3  9  1  0  0  0  0
  4  7  1  6  0  0  0
  4  8  1  0  0  0  0
  5  3  1  0  0  0  0
  6  8  1  0  0  0  0
  8  2  1  6  0  0  0
  9  7  1  0  0  0  0
 10  6  1  0  0  0  0
 11  5  1  6  0  0  0
 11  4  1  0  0  0  0
 12 15  2  0  0  0  0
 13 18  2  0  0  0  0
 14 17  2  0  0  0  0
 14 20  1  0  0  0  0
 15 18  1  0  0  0  0
 17 13  1  0  0  0  0
 18 16  1  0  0  0  0
 19 14  1  0  0  0  0
 20 12  1  0  0  0  0
 22 21  1  0  0  0  0
 23 26  1  0  0  0  0
 24 22  2  0  0  0  0
 26 21  1  0  0  0  0
 26 25  2  0  0  0  0
 27 23  1  0  0  0  0
 28 24  1  0  0  0  0
 28 23  2  0  0  0  0
M  END
>  <MODEL>
2

>  <REMARK>
 VINA RESULT:      -8.0      4.344      8.256
  Name = 
  2 active torsions:
  status: ('A' for Active; 'I' for Inactive)
    1  A    between atoms: C_1  and  N_2
    2  A    between atoms: C_10  and  C_13
                            x       y       z     vdW  Elec       q    Type
                         _______ _______ _______ _____ _____    ______ ____

>  <TORSDO>
F 2

$$$$
=
 OpenBabel11052422533D

 28 31  0  0  1  0  0  0  0  0999 V2000
  162.1900  207.4440  151.7490 C   0  0  2  0  0  3  0  0  0  0  0  0
  160.5120  203.5300  152.3100 C   0  0  0  0  0  1  0  0  0  0  0  0
  160.8120  208.5610  154.3130 C   0  0  2  0  0  3  0  0  0  0  0  0
  160.8260  205.8390  153.2070 C   0  0  2  0  0  3  0  0  0  0  0  0
  160.1280  208.2620  152.9780 C   0  0  0  0  0  2  0  0  0  0  0  0
  162.2650  204.9540  151.2680 C   0  0  0  0  0  2  0  0  0  0  0  0
  161.4890  206.1640  154.5480 C   0  0  0  0  0  2  0  0  0  0  0  0
  161.5230  204.6280  152.5670 C   0  0  2  0  0  3  0  0  0  0  0  0
  160.7840  207.3360  155.2250 C   0  0  0  0  0  2  0  0  0  0  0  0
  163.0810  206.2330  151.4230 C   0  0  0  0  0  2  0  0  0  0  0  0
  160.7920  207.0720  152.2810 C   0  0  1  0  0  3  0  0  0  0  0  0
  158.9160  209.7510  155.3060 C   0  0  0  0  0  3  0  0  0  0  0  0
  160.7210  212.2190  155.1170 C   0  0  0  0  0  3  0  0  0  0  0  0
  158.2300  212.1060  155.1750 C   0  0  0  0  0  0  0  0  0  0  0  0
  160.2140  209.7710  154.9730 C   0  0  0  0  0  0  0  0  0  0  0  0
  162.5500  210.6930  155.4860 C   0  0  0  0  0  1  0  0  0  0  0  0
  159.3620  212.7240  154.8390 C   0  0  0  0  0  3  0  0  0  0  0  0
  161.1020  210.9380  155.2290 C   0  0  0  0  0  0  0  0  0  0  0  0
  156.9320  212.7310  154.8110 C   0  0  0  0  0  1  0  0  0  0  0  0
  158.2250  210.8690  156.0080 C   0  0  0  0  0  2  0  0  0  0  0  0
  162.0990  208.3610  150.6090 N   0  0  0  0  0  0  0  0  0  0  0  0
  161.8250  207.8640  149.3670 C   0  0  0  0  0  3  0  0  0  0  0  0
  162.1700  210.5880  149.7190 C   0  0  0  0  0  0  0  0  0  0  0  0
  161.7180  208.7160  148.2670 C   0  0  0  0  0  3  0  0  0  0  0  0
  162.5170  210.1630  151.9510 O   0  0  0  0  0  0  0  0  0  0  0  0
  162.2700  209.7070  150.8010 C   0  0  0  0  0  0  0  0  0  0  0  0
  162.3370  211.9220  149.8940 F   0  0  0  0  0  0  0  0  0  0  0  0
  161.8930  210.0870  148.4480 C   0  0  0  0  0  3  0  0  0  0  0  0
  1 21  1  6  0  0  0
  1 11  1  0  0  0  0
  3 15  1  1  0  0  0
  3  9  1  0  0  0  0
  4  7  1  1  0  0  0
  5  3  1  0  0  0  0
  6 10  1  0  0  0  0
  6  8  1  0  0  0  0
  7  9  1  0  0  0  0
  8  2  1  6  0  0  0
  8  4  1  0  0  0  0
 10  1  1  0  0  0  0
 11  5  1  1  0  0  0
 11  4  1  0  0  0  0
 12 20  1  0  0  0  0
 13 18  2  0  0  0  0
 14 20  1  0  0  0  0
 15 18  1  0  0  0  0
 15 12  2  0  0  0  0
 17 13  1  0  0  0  0
 17 14  2  0  0  0  0
 18 16  1  0  0  0  0
 19 14  1  0  0  0  0
 21 26  1  0  0  0  0
 22 21  1  0  0  0  0
 23 27  1  0  0  0  0
 23 26  1  0  0  0  0
 24 28  1  0  0  0  0
 24 22  2  0  0  0  0
 26 25  2  0  0  0  0
 28 23  2  0  0  0  0
M  END
>  <MODEL>
3

>  <REMARK>
 VINA RESULT:      -7.5      3.661      5.253
  Name = 
  2 active torsions:
  status: ('A' for Active; 'I' for Inactive)
    1  A    between atoms: C_1  and  N_2
    2  A    between atoms: C_10  and  C_13
                            x       y       z     vdW  Elec       q    Type
                         _______ _______ _______ _____ _____    ______ ____

>  <TORSDO>
F 2

$$$$
=
 OpenBabel11052422533D

 28 31  0  0  1  0  0  0  0  0999 V2000
  162.1870  208.1550  151.0000 C   0  0  2  0  0  3  0  0  0  0  0  0
  161.4020  211.5840  148.5340 C   0  0  0  0  0  1  0  0  0  0  0  0
  161.6190  206.1660  148.6680 C   0  0  2  0  0  3  0  0  0  0  0  0
  161.6580  209.1040  148.6790 C   0  0  2  0  0  3  0  0  0  0  0  0
  160.5720  206.9540  149.4580 C   0  0  0  0  0  2  0  0  0  0  0  0
  162.4610  210.6430  150.5770 C   0  0  0  0  0  2  0  0  0  0  0  0
  162.6820  208.2910  147.8860 C   0  0  0  0  0  2  0  0  0  0  0  0
  162.2660  210.4610  149.0700 C   0  0  2  0  0  3  0  0  0  0  0  0
  162.0860  206.9570  147.4470 C   0  0  0  0  0  2  0  0  0  0  0  0
  163.0820  209.3920  151.1920 C   0  0  0  0  0  2  0  0  0  0  0  0
  161.1270  208.3120  149.8930 C   0  0  1  0  0  3  0  0  0  0  0  0
  160.8200  203.9320  149.2720 C   0  0  0  0  0  3  0  0  0  0  0  0
  161.2060  203.2910  146.3020 C   0  0  0  0  0  3  0  0  0  0  0  0
  161.2210  201.7350  148.2500 C   0  0  0  0  0  0  0  0  0  0  0  0
  161.1100  204.8030  148.2960 C   0  0  0  0  0  0  0  0  0  0  0  0
  160.6190  205.5950  145.9080 C   0  0  0  0  0  1  0  0  0  0  0  0
  161.5810  202.0500  147.0060 C   0  0  0  0  0  3  0  0  0  0  0  0
  160.9480  204.4880  146.8500 C   0  0  0  0  0  0  0  0  0  0  0  0
  161.6920  200.4510  148.8340 C   0  0  0  0  0  1  0  0  0  0  0  0
  160.2630  202.5710  149.0290 C   0  0  0  0  0  2  0  0  0  0  0  0
  161.5780  207.7370  152.2650 N   0  0  0  0  0  0  0  0  0  0  0  0
  160.8820  208.6470  153.0100 C   0  0  0  0  0  3  0  0  0  0  0  0
  161.1000  206.0290  153.8810 C   0  0  0  0  0  0  0  0  0  0  0  0
  160.2790  208.2720  154.2110 C   0  0  0  0  0  3  0  0  0  0  0  0
  162.3310  205.5970  151.9880 O   0  0  0  0  0  0  0  0  0  0  0  0
  161.6930  206.4370  152.6810 C   0  0  0  0  0  0  0  0  0  0  0  0
  161.2060  204.7450  154.3050 F   0  0  0  0  0  0  0  0  0  0  0  0
  160.3920  206.9530  154.6460 C   0  0  0  0  0  3  0  0  0  0  0  0
  1 10  1  1  0  0  0
  1 21  1  0  0  0  0
  3 15  1  6  0  0  0
  3  5  1  0  0  0  0
  4  7  1  1  0  0  0
  4  8  1  0  0  0  0
  4 11  1  0  0  0  0
  6 10  1  0  0  0  0
  8  2  1  1  0  0  0
  8  6  1  0  0  0  0
  9  7  1  0  0  0  0
  9  3  1  0  0  0  0
 11  5  1  6  0  0  0
 11  1  1  0  0  0  0
 13 18  2  0  0  0  0
 13 17  1  0  0  0  0
 14 19  1  0  0  0  0
 14 20  1  0  0  0  0
 15 12  2  0  0  0  0
 16 18  1  0  0  0  0
 17 14  2  0  0  0  0
 18 15  1  0  0  0  0
 20 12  1  0  0  0  0
 21 26  1  0  0  0  0
 21 22  1  0  0  0  0
 22 24  2  0  0  0  0
 23 27  1  0  0  0  0
 23 28  2  0  0  0  0
 24 28  1  0  0  0  0
 25 26  2  0  0  0  0
 26 23  1  0  0  0  0
M  END
>  <MODEL>
4

>  <REMARK>
 VINA RESULT:      -7.2      3.002      7.418
  Name = 
  2 active torsions:
  status: ('A' for Active; 'I' for Inactive)
    1  A    between atoms: C_1  and  N_2
    2  A    between atoms: C_10  and  C_13
                            x       y       z     vdW  Elec       q    Type
                         _______ _______ _______ _____ _____    ______ ____

>  <TORSDO>
F 2

$$$$
=
 OpenBabel11052422533D

 28 31  0  0  1  0  0  0  0  0999 V2000
  159.5960  210.1320  153.9520 C   0  0  2  0  0  3  0  0  0  0  0  0
  162.6410  209.3120  156.8690 C   0  0  0  0  0  1  0  0  0  0  0  0
  160.7280  208.0160  151.9630 C   0  0  2  0  0  3  0  0  0  0  0  0
  161.5990  208.7090  154.6820 C   0  0  2  0  0  3  0  0  0  0  0  0
  161.3310  209.3900  152.2580 C   0  0  0  0  0  2  0  0  0  0  0  0
  160.3900  210.2380  156.3600 C   0  0  0  0  0  2  0  0  0  0  0  0
  161.0060  207.3370  154.3540 C   0  0  0  0  0  2  0  0  0  0  0  0
  161.3310  209.0480  156.1580 C   0  0  2  0  0  3  0  0  0  0  0  0
  161.2990  206.9570  152.9060 C   0  0  0  0  0  2  0  0  0  0  0  0
  159.1830  210.1310  155.4340 C   0  0  0  0  0  2  0  0  0  0  0  0
  161.0810  209.7930  153.7130 C   0  0  1  0  0  3  0  0  0  0  0  0
  160.2380  206.5850  150.0360 C   0  0  0  0  0  3  0  0  0  0  0  0
  162.6330  207.9840  148.7370 C   0  0  0  0  0  3  0  0  0  0  0  0
  161.6800  205.7350  148.2390 C   0  0  0  0  0  0  0  0  0  0  0  0
  160.9080  207.6410  150.5190 C   0  0  0  0  0  0  0  0  0  0  0  0
  161.9790  209.9160  150.0220 C   0  0  0  0  0  1  0  0  0  0  0  0
  162.6980  206.5940  148.2470 C   0  0  0  0  0  3  0  0  0  0  0  0
  161.8250  208.4700  149.6910 C   0  0  0  0  0  0  0  0  0  0  0  0
  161.9030  204.3560  147.7290 C   0  0  0  0  0  1  0  0  0  0  0  0
  160.2970  206.1480  148.6130 C   0  0  0  0  0  2  0  0  0  0  0  0
  159.2250  211.3880  153.2960 N   0  0  0  0  0  0  0  0  0  0  0  0
  160.1100  211.9920  152.4480 C   0  0  0  0  0  3  0  0  0  0  0  0
  157.6250  213.1280  152.8850 C   0  0  0  0  0  0  0  0  0  0  0  0
  159.7770  213.1810  151.7990 C   0  0  0  0  0  3  0  0  0  0  0  0
  157.1720  211.3740  154.3000 O   0  0  0  0  0  0  0  0  0  0  0  0
  157.9900  211.9360  153.5210 C   0  0  0  0  0  0  0  0  0  0  0  0
  156.4060  213.6830  153.0990 F   0  0  0  0  0  0  0  0  0  0  0  0
  158.5250  213.7500  152.0220 C   0  0  0  0  0  3  0  0  0  0  0  0
  1 21  1  1  0  0  0
  1 10  1  0  0  0  0
  3 15  1  6  0  0  0
  3  5  1  0  0  0  0
  3  9  1  0  0  0  0
  4  7  1  6  0  0  0
  4  8  1  0  0  0  0
  8  6  1  0  0  0  0
  8  2  1  6  0  0  0
  9  7  1  0  0  0  0
 10  6  1  0  0  0  0
 11  5  1  6  0  0  0
 11  1  1  0  0  0  0
 11  4  1  0  0  0  0
 12 15  2  0  0  0  0
 13 18  2  0  0  0  0
 14 17  2  0  0  0  0
 14 20  1  0  0  0  0
 17 13  1  0  0  0  0
 18 16  1  0  0  0  0
 18 15  1  0  0  0  0
 19 14  1  0  0  0  0
 20 12  1  0  0  0  0
 21 26  1  0  0  0  0
 22 21  1  0  0  0  0
 23 27  1  0  0  0  0
 23 26  1  0  0  0  0
 24 28  1  0  0  0  0
 24 22  2  0  0  0  0
 26 25  2  0  0  0  0
 28 23  2  0  0  0  0
M  END
>  <MODEL>
5

>  <REMARK>
 VINA RESULT:      -7.0      4.543      8.195
  Name = 
  2 active torsions:
  status: ('A' for Active; 'I' for Inactive)
    1  A    between atoms: C_1  and  N_2
    2  A    between atoms: C_10  and  C_13
                            x       y       z     vdW  Elec       q    Type
                         _______ _______ _______ _____ _____    ______ ____

>  <TORSDO>
F 2

$$$$
=
 OpenBabel11052422533D

 28 31  0  0  1  0  0  0  0  0999 V2000
  162.1760  208.2120  151.3620 C   0  0  2  0  0  3  0  0  0  0  0  0
  161.4820  211.6920  148.9410 C   0  0  0  0  0  1  0  0  0  0  0  0
  161.6320  206.2710  148.9840 C   0  0  2  0  0  3  0  0  0  0  0  0
  161.7060  209.2080  149.0480 C   0  0  2  0  0  3  0  0  0  0  0  0
  160.5790  207.0570  149.7660 C   0  0  0  0  0  2  0  0  0  0  0  0
  162.4880  210.7030  150.9890 C   0  0  0  0  0  2  0  0  0  0  0  0
  162.7370  208.3960  148.2610 C   0  0  0  0  0  2  0  0  0  0  0  0
  162.3210  210.5500  149.4750 C   0  0  2  0  0  3  0  0  0  0  0  0
  162.1340  207.0780  147.7860 C   0  0  0  0  0  2  0  0  0  0  0  0
  163.0810  209.4340  151.5930 C   0  0  0  0  0  2  0  0  0  0  0  0
  161.1400  208.4010  150.2360 C   0  0  1  0  0  3  0  0  0  0  0  0
  160.8180  204.0280  149.5310 C   0  0  0  0  0  3  0  0  0  0  0  0
  161.2050  203.4580  146.5470 C   0  0  0  0  0  3  0  0  0  0  0  0
  161.2060  201.8540  148.4560 C   0  0  0  0  0  0  0  0  0  0  0  0
  161.1150  204.9200  148.5780 C   0  0  0  0  0  0  0  0  0  0  0  0
  160.6330  205.7750  146.2090 C   0  0  0  0  0  1  0  0  0  0  0  0
  161.5710  202.1970  147.2210 C   0  0  0  0  0  3  0  0  0  0  0  0
  160.9540  204.6420  147.1240 C   0  0  0  0  0  0  0  0  0  0  0  0
  161.6680  200.5530  149.0080 C   0  0  0  0  0  1  0  0  0  0  0  0
  160.2520  202.6770  149.2540 C   0  0  0  0  0  2  0  0  0  0  0  0
  161.5350  207.7800  152.6060 N   0  0  0  0  0  0  0  0  0  0  0  0
  161.6480  206.4780  153.0040 C   0  0  0  0  0  3  0  0  0  0  0  0
  160.2450  208.2810  154.5670 C   0  0  0  0  0  0  0  0  0  0  0  0
  161.0600  206.0430  154.1920 C   0  0  0  0  0  3  0  0  0  0  0  0
  160.7500  209.8890  153.0030 O   0  0  0  0  0  0  0  0  0  0  0  0
  160.8470  208.6860  153.3700 C   0  0  0  0  0  0  0  0  0  0  0  0
  159.5600  209.1670  155.3320 F   0  0  0  0  0  0  0  0  0  0  0  0
  160.3540  206.9530  154.9760 C   0  0  0  0  0  3  0  0  0  0  0  0
  1 10  1  1  0  0  0
  1 21  1  0  0  0  0
  3 15  1  6  0  0  0
  3  5  1  0  0  0  0
  4  7  1  1  0  0  0
  4  8  1  0  0  0  0
  4 11  1  0  0  0  0
  6 10  1  0  0  0  0
  8  2  1  1  0  0  0
  8  6  1  0  0  0  0
  9  7  1  0  0  0  0
  9  3  1  0  0  0  0
 11  5  1  6  0  0  0
 11  1  1  0  0  0  0
 13 18  2  0  0  0  0
 13 17  1  0  0  0  0
 14 19  1  0  0  0  0
 14 20  1  0  0  0  0
 15 12  2  0  0  0  0
 16 18  1  0  0  0  0
 17 14  2  0  0  0  0
 18 15  1  0  0  0  0
 20 12  1  0  0  0  0
 21 22  1  0  0  0  0
 21 26  1  0  0  0  0
 22 24  2  0  0  0  0
 23 28  2  0  0  0  0
 23 27  1  0  0  0  0
 24 28  1  0  0  0  0
 25 26  2  0  0  0  0
 26 23  1  0  0  0  0
M  END
>  <MODEL>
6

>  <REMARK>
 VINA RESULT:      -6.5      3.538      7.711
  Name = 
  2 active torsions:
  status: ('A' for Active; 'I' for Inactive)
    1  A    between atoms: C_1  and  N_2
    2  A    between atoms: C_10  and  C_13
                            x       y       z     vdW  Elec       q    Type
                         _______ _______ _______ _____ _____    ______ ____

>  <TORSDO>
F 2

$$$$
=
 OpenBabel11052422533D

 28 31  0  0  1  0  0  0  0  0999 V2000
  162.1450  208.1160  151.1000 C   0  0  2  0  0  3  0  0  0  0  0  0
  160.9550  211.1210  148.2690 C   0  0  0  0  0  1  0  0  0  0  0  0
  161.9950  205.8440  148.9700 C   0  0  2  0  0  3  0  0  0  0  0  0
  161.5810  208.7390  148.6790 C   0  0  2  0  0  3  0  0  0  0  0  0
  160.8050  206.5300  149.6440 C   0  0  0  0  0  2  0  0  0  0  0  0
  162.0520  210.5620  150.4300 C   0  0  0  0  0  2  0  0  0  0  0  0
  162.7530  208.0230  148.0040 C   0  0  0  0  0  2  0  0  0  0  0  0
  161.9550  210.2060  148.9440 C   0  0  2  0  0  3  0  0  0  0  0  0
  162.3900  206.5760  147.6880 C   0  0  0  0  0  2  0  0  0  0  0  0
  162.8290  209.4910  151.1880 C   0  0  0  0  0  2  0  0  0  0  0  0
  161.1240  207.9950  149.9510 C   0  0  1  0  0  3  0  0  0  0  0  0
  161.9560  203.8780  147.5110 C   0  0  0  0  0  3  0  0  0  0  0  0
  160.2830  202.6010  149.7370 C   0  0  0  0  0  3  0  0  0  0  0  0
  160.3380  202.0410  147.3080 C   0  0  0  0  0  0  0  0  0  0  0  0
  161.7180  204.3880  148.7270 C   0  0  0  0  0  0  0  0  0  0  0  0
  161.5830  203.9540  151.2500 C   0  0  0  0  0  1  0  0  0  0  0  0
  159.7140  202.0670  148.4840 C   0  0  0  0  0  3  0  0  0  0  0  0
  161.1940  203.5780  149.8610 C   0  0  0  0  0  0  0  0  0  0  0  0
  159.6270  201.4850  146.1260 C   0  0  0  0  0  1  0  0  0  0  0  0
  161.7680  202.4400  147.1650 C   0  0  0  0  0  2  0  0  0  0  0  0
  161.5500  207.7330  152.3830 N   0  0  0  0  0  0  0  0  0  0  0  0
  161.7510  206.4720  152.8680 C   0  0  0  0  0  3  0  0  0  0  0  0
  160.2560  208.2900  154.3260 C   0  0  0  0  0  0  0  0  0  0  0  0
  161.2080  206.0860  154.0940 C   0  0  0  0  0  3  0  0  0  0  0  0
  160.6360  209.8110  152.6450 O   0  0  0  0  0  0  0  0  0  0  0  0
  160.8150  208.6460  153.0930 C   0  0  0  0  0  0  0  0  0  0  0  0
  159.5260  209.1820  155.0400 F   0  0  0  0  0  0  0  0  0  0  0  0
  160.4560  207.0040  154.8250 C   0  0  0  0  0  3  0  0  0  0  0  0
  1 10  1  1  0  0  0
  1 21  1  0  0  0  0
  3 15  1  6  0  0  0
  3  5  1  0  0  0  0
  4  7  1  1  0  0  0
  4  8  1  0  0  0  0
  4 11  1  0  0  0  0
  6 10  1  0  0  0  0
  8  2  1  1  0  0  0
  8  6  1  0  0  0  0
  9  7  1  0  0  0  0
  9  3  1  0  0  0  0
 11  5  1  6  0  0  0
 11  1  1  0  0  0  0
 12 15  2  0  0  0  0
 13 18  2  0  0  0  0
 14 17  2  0  0  0  0
 15 18  1  0  0  0  0
 17 13  1  0  0  0  0
 18 16  1  0  0  0  0
 19 14  1  0  0  0  0
 20 14  1  0  0  0  0
 20 12  1  0  0  0  0
 21 22  1  0  0  0  0
 21 26  1  0  0  0  0
 22 24  2  0  0  0  0
 23 28  2  0  0  0  0
 23 27  1  0  0  0  0
 24 28  1  0  0  0  0
 25 26  2  0  0  0  0
 26 23  1  0  0  0  0
M  END
>  <MODEL>
7

>  <REMARK>
 VINA RESULT:      -6.2      3.482      7.651
  Name = 
  2 active torsions:
  status: ('A' for Active; 'I' for Inactive)
    1  A    between atoms: C_1  and  N_2
    2  A    between atoms: C_10  and  C_13
                            x       y       z     vdW  Elec       q    Type
                         _______ _______ _______ _____ _____    ______ ____

>  <TORSDO>
F 2

$$$$
=
 OpenBabel11052422533D

 28 31  0  0  1  0  0  0  0  0999 V2000
  160.4710  203.7000  146.9660 C   0  0  2  0  0  3  0  0  0  0  0  0
  161.9560  205.5910  143.4050 C   0  0  0  0  0  1  0  0  0  0  0  0
  161.1670  206.1670  148.7400 C   0  0  2  0  0  3  0  0  0  0  0  0
  161.4290  205.7920  145.8370 C   0  0  2  0  0  3  0  0  0  0  0  0
  162.1620  205.1520  148.1750 C   0  0  0  0  0  2  0  0  0  0  0  0
  160.5180  203.8400  144.4320 C   0  0  0  0  0  2  0  0  0  0  0  0
  160.4540  206.8110  146.4310 C   0  0  0  0  0  2  0  0  0  0  0  0
  160.9130  205.3190  144.4690 C   0  0  2  0  0  3  0  0  0  0  0  0
  160.9670  207.3310  147.7700 C   0  0  0  0  0  2  0  0  0  0  0  0
  159.6900  203.4760  145.6590 C   0  0  0  0  0  2  0  0  0  0  0  0
  161.6930  204.6280  146.8160 C   0  0  1  0  0  3  0  0  0  0  0  0
  161.7160  205.7330  151.0870 C   0  0  0  0  0  3  0  0  0  0  0  0
  161.5140  208.7730  151.4090 C   0  0  0  0  0  3  0  0  0  0  0  0
  161.2060  206.9960  153.1320 C   0  0  0  0  0  0  0  0  0  0  0  0
  161.5830  206.6360  150.1060 C   0  0  0  0  0  0  0  0  0  0  0  0
  162.3310  208.8920  149.1450 C   0  0  0  0  0  1  0  0  0  0  0  0
  160.9760  208.2240  152.6690 C   0  0  0  0  0  3  0  0  0  0  0  0
  161.8310  208.0900  150.2990 C   0  0  0  0  0  0  0  0  0  0  0  0
  160.5790  206.5780  154.4130 C   0  0  0  0  0  1  0  0  0  0  0  0
  162.1680  206.0710  152.4670 C   0  0  0  0  0  2  0  0  0  0  0  0
  160.8430  202.4280  147.5890 N   0  0  0  0  0  0  0  0  0  0  0  0
  161.3350  201.4160  146.8140 C   0  0  0  0  0  3  0  0  0  0  0  0
  161.0820  201.0610  149.5470 C   0  0  0  0  0  0  0  0  0  0  0  0
  161.7100  200.2000  147.3850 C   0  0  0  0  0  3  0  0  0  0  0  0
  160.2650  203.2070  149.6590 O   0  0  0  0  0  0  0  0  0  0  0  0
  160.7140  202.2690  148.9440 C   0  0  0  0  0  0  0  0  0  0  0  0
  160.9590  200.8900  150.8870 F   0  0  0  0  0  0  0  0  0  0  0  0
  161.5810  200.0250  148.7610 C   0  0  0  0  0  3  0  0  0  0  0  0
  1 10  1  6  0  0  0
  1 21  1  0  0  0  0
  3 15  1  1  0  0  0
  4  7  1  1  0  0  0
  4 11  1  0  0  0  0
  5  3  1  0  0  0  0
  6  8  1  0  0  0  0
  6 10  1  0  0  0  0
  7  9  1  0  0  0  0
  8  2  1  6  0  0  0
  8  4  1  0  0  0  0
  9  3  1  0  0  0  0
 11  1  1  0  0  0  0
 11  5  1  1  0  0  0
 12 20  1  0  0  0  0
 13 17  1  0  0  0  0
 14 19  1  0  0  0  0
 15 18  1  0  0  0  0
 15 12  2  0  0  0  0
 16 18  1  0  0  0  0
 17 14  2  0  0  0  0
 18 13  2  0  0  0  0
 20 14  1  0  0  0  0
 21 26  1  0  0  0  0
 22 24  2  0  0  0  0
 22 21  1  0  0  0  0
 23 27  1  0  0  0  0
 24 28  1  0  0  0  0
 26 23  1  0  0  0  0
 26 25  2  0  0  0  0
 28 23  2  0  0  0  0
M  END
>  <MODEL>
8

>  <REMARK>
 VINA RESULT:      -6.2      2.223      4.581
  Name = 
  2 active torsions:
  status: ('A' for Active; 'I' for Inactive)
    1  A    between atoms: C_1  and  N_2
    2  A    between atoms: C_10  and  C_13
                            x       y       z     vdW  Elec       q    Type
                         _______ _______ _______ _____ _____    ______ ____

>  <TORSDO>
F 2

$$$$
=
 OpenBabel11052422533D

 28 31  0  0  1  0  0  0  0  0999 V2000
  161.8710  205.7600  151.0620 C   0  0  2  0  0  3  0  0  0  0  0  0
  160.4300  209.6690  152.1110 C   0  0  0  0  0  1  0  0  0  0  0  0
  161.7460  206.3750  148.0090 C   0  0  2  0  0  3  0  0  0  0  0  0
  161.1850  208.1120  150.3110 C   0  0  2  0  0  3  0  0  0  0  0  0
  160.5520  206.0920  148.9220 C   0  0  0  0  0  2  0  0  0  0  0  0
  161.6370  207.6040  152.7910 C   0  0  0  0  0  2  0  0  0  0  0  0
  162.3620  208.3800  149.3710 C   0  0  0  0  0  2  0  0  0  0  0  0
  161.4990  208.6750  151.7060 C   0  0  2  0  0  3  0  0  0  0  0  0
  162.0560  207.8700  147.9660 C   0  0  0  0  0  2  0  0  0  0  0  0
  162.4930  206.4440  152.2930 C   0  0  0  0  0  2  0  0  0  0  0  0
  160.8130  206.6140  150.3360 C   0  0  1  0  0  3  0  0  0  0  0  0
  160.4710  206.2130  145.9240 C   0  0  0  0  0  3  0  0  0  0  0  0
  162.1970  203.7400  145.3840 C   0  0  0  0  0  3  0  0  0  0  0  0
  159.9300  204.2860  144.5000 C   0  0  0  0  0  0  0  0  0  0  0  0
  161.5300  205.8040  146.6360 C   0  0  0  0  0  0  0  0  0  0  0  0
  163.9290  204.9000  146.5930 C   0  0  0  0  0  1  0  0  0  0  0  0
  160.8710  203.4030  144.8290 C   0  0  0  0  0  3  0  0  0  0  0  0
  162.5150  204.8080  146.1310 C   0  0  0  0  0  0  0  0  0  0  0  0
  158.6330  203.7930  143.9670 C   0  0  0  0  0  1  0  0  0  0  0  0
  160.1810  205.7560  144.5350 C   0  0  0  0  0  2  0  0  0  0  0  0
  161.3460  204.4340  151.3980 N   0  0  0  0  0  0  0  0  0  0  0  0
  160.7820  204.2240  152.6240 C   0  0  0  0  0  3  0  0  0  0  0  0
  160.8920  202.1600  150.7840 C   0  0  0  0  0  0  0  0  0  0  0  0
  160.2610  202.9750  152.9640 C   0  0  0  0  0  3  0  0  0  0  0  0
  161.9210  203.6230  149.3400 O   0  0  0  0  0  0  0  0  0  0  0  0
  161.4050  203.4240  150.4740 C   0  0  0  0  0  0  0  0  0  0  0  0
  160.9440  201.1500  149.8800 F   0  0  0  0  0  0  0  0  0  0  0  0
  160.3180  201.9380  152.0350 C   0  0  0  0  0  3  0  0  0  0  0  0
  1 21  1  1  0  0  0
  1 10  1  0  0  0  0
  3 15  1  6  0  0  0
  3  5  1  0  0  0  0
  4  7  1  6  0  0  0
  4 11  1  0  0  0  0
  4  8  1  0  0  0  0
  8  2  1  1  0  0  0
  8  6  1  0  0  0  0
  9  3  1  0  0  0  0
  9  7  1  0  0  0  0
 10  6  1  0  0  0  0
 11  5  1  6  0  0  0
 11  1  1  0  0  0  0
 12 15  2  0  0  0  0
 13 18  2  0  0  0  0
 14 20  1  0  0  0  0
 14 17  2  0  0  0  0
 17 13  1  0  0  0  0
 18 16  1  0  0  0  0
 18 15  1  0  0  0  0
 19 14  1  0  0  0  0
 20 12  1  0  0  0  0
 21 22  1  0  0  0  0
 22 24  2  0  0  0  0
 23 28  2  0  0  0  0
 25 26  2  0  0  0  0
 26 23  1  0  0  0  0
 26 21  1  0  0  0  0
 27 23  1  0  0  0  0
 28 24  1  0  0  0  0
M  END
>  <MODEL>
9

>  <REMARK>
 VINA RESULT:      -6.1      2.187      6.852
  Name = 
  2 active torsions:
  status: ('A' for Active; 'I' for Inactive)
    1  A    between atoms: C_1  and  N_2
    2  A    between atoms: C_10  and  C_13
                            x       y       z     vdW  Elec       q    Type
                         _______ _______ _______ _____ _____    ______ ____

>  <TORSDO>
F 2

$$$$
