=
 OpenBabel11062409243D

 37 39  0  0  1  0  0  0  0  0999 V2000
  160.7520  212.1900  151.3350 C   0  0  0  0  0  2  0  0  0  0  0  0
  159.3460  212.4590  151.8600 C   0  0  1  0  0  3  0  0  0  0  0  0
  160.8760  209.9750  155.7790 C   0  0  1  0  0  3  0  0  0  0  0  0
  160.2150  208.6000  155.6840 C   0  0  0  0  0  2  0  0  0  0  0  0
  161.1870  207.6560  152.1680 C   0  0  2  0  0  3  0  0  0  0  0  0
  159.2210  211.6320  154.8810 C   0  0  0  0  0  2  0  0  0  0  0  0
  158.1290  213.8420  153.4090 O   0  0  0  0  0  1  0  0  0  0  0  0
  162.4210  209.7890  152.4870 C   0  0  0  0  0  1  0  0  0  0  0  0
  160.2090  207.8960  153.3200 C   0  0  0  0  0  2  0  0  0  0  0  0
  159.4070  213.3940  153.0660 C   0  0  1  0  0  3  0  0  0  0  0  0
  161.6570  208.9470  151.4550 C   0  0  2  0  0  0  0  0  0  0  0  0
  158.5790  213.0380  150.8480 O   0  0  0  0  0  1  0  0  0  0  0  0
  160.0770  212.7340  154.2710 C   0  0  0  0  0  2  0  0  0  0  0  0
  160.4300  209.7260  150.9520 C   0  0  0  0  0  2  0  0  0  0  0  0
  160.9240  207.7540  154.6460 C   0  0  0  0  0  2  0  0  0  0  0  0
  159.9050  211.1070  156.1340 C   0  0  1  0  0  3  0  0  0  0  0  0
  160.7530  211.0700  150.3030 C   0  0  0  0  0  2  0  0  0  0  0  0
  162.2930  209.3790  149.1340 O   0  0  0  0  0  0  0  0  0  0  0  0
  161.7540  208.0790  149.0520 C   0  0  2  0  0  3  0  0  0  0  0  0
  162.5230  208.5360  150.2370 C   0  0  2  0  0  3  0  0  0  0  0  0
  162.6410  207.2280  148.1710 C   0  0  0  0  0  2  0  0  0  0  0  0
  163.0540  204.7830  146.7870 O   0  0  0  0  0  0  0  0  0  0  0  0
  162.1480  205.5480  146.3620 C   0  0  0  0  0  0  0  0  0  0  0  0
  161.3830  205.1710  145.2250 N   0  0  0  0  0  1  0  0  0  0  0  0
  161.8910  206.7970  147.0040 N   0  0  0  0  0  2  0  0  0  0  0  0
  162.3930  208.9150  157.2550 O   0  0  0  0  0  0  0  0  0  0  0  0
  162.0530  209.9540  156.7110 C   0  0  0  0  0  0  0  0  0  0  0  0
  164.1500  210.8970  157.2130 O   0  0  0  0  0  0  0  0  0  0  0  0
  162.8330  211.2060  156.9470 C   0  0  0  0  0  3  0  0  0  0  0  0
  163.8150  211.3310  155.9890 O   0  0  0  0  0  0  0  0  0  0  0  0
  160.7300  206.6350  151.2720 O   0  0  0  0  0  0  0  0  0  0  0  0
  161.1600  205.3010  151.2800 C   0  0  0  0  0  0  0  0  0  0  0  0
  161.4970  204.7120  150.2190 O   0  0  0  0  0  0  0  0  0  0  0  0
  161.1950  204.5590  152.5660 C   0  0  0  0  0  1  0  0  0  0  0  0
  158.8870  210.7140  157.2010 C   0  0  0  0  0  2  0  0  0  0  0  0
  157.7690  211.7010  157.2460 C   0  0  0  0  0  3  0  0  0  0  0  0
  156.6810  211.4100  156.7780 O   0  0  0  0  0  0  0  0  0  0  0  0
  1  2  1  0  0  0  0
  2 12  1  6  0  0  0
  2 10  1  0  0  0  0
  3 16  1  0  0  0  0
  3 27  1  1  0  0  0
  4  3  1  0  0  0  0
  5 31  1  6  0  0  0
  5  9  1  0  0  0  0
  6 16  1  0  0  0  0
  9 15  1  0  0  0  0
 10  7  1  1  0  0  0
 10 13  1  0  0  0  0
 11  5  1  0  0  0  0
 11  8  1  1  0  0  0
 13  6  1  0  0  0  0
 14 11  1  0  0  0  0
 15  4  1  0  0  0  0
 16 35  1  1  0  0  0
 17 14  1  0  0  0  0
 17  1  1  0  0  0  0
 19 21  1  6  0  0  0
 19 18  1  0  0  0  0
 19 20  1  0  0  0  0
 20 18  1  6  0  0  0
 20 11  1  0  0  0  0
 23 22  2  0  0  0  0
 23 25  1  0  0  0  0
 24 23  1  0  0  0  0
 25 21  1  0  0  0  0
 27 29  1  0  0  0  0
 27 26  2  0  0  0  0
 29 28  1  0  0  0  0
 30 29  1  0  0  0  0
 30 28  1  0  0  0  0
 31 32  1  0  0  0  0
 32 34  1  0  0  0  0
 33 32  2  0  0  0  0
 35 36  1  0  0  0  0
 37 36  2  0  0  0  0
M  END
>  <MODEL>
1

>  <REMARK>
 VINA RESULT:      -3.2      0.000      0.000
  Name = 
  9 active torsions:
  status: ('A' for Active; 'I' for Inactive)
    1  A    between atoms: C_4  and  O_22
    2  A    between atoms: C_6  and  C_19
    3  A    between atoms: C_7  and  C_33
    4  A    between atoms: C_10  and  O_22
    5  A    between atoms: C_16  and  C_30
    6  A    between atoms: C_18  and  C_19
    7  A    between atoms: C_20  and  C_24
    8  A    between atoms: C_30  and  N_32
    9  A    between atoms: C_33  and  C_34
                            x       y       z     vdW  Elec       q    Type
                         _______ _______ _______ _____ _____    ______ ____

>  <TORSDO>
F 9

$$$$
=
 OpenBabel11062409243D

 37 39  0  0  1  0  0  0  0  0999 V2000
  159.8820  213.8200  150.0970 C   0  0  0  0  0  2  0  0  0  0  0  0
  158.5160  213.4050  150.6320 C   0  0  1  0  0  3  0  0  0  0  0  0
  161.1140  210.5410  153.6190 C   0  0  1  0  0  3  0  0  0  0  0  0
  160.9590  209.1210  153.0730 C   0  0  0  0  0  2  0  0  0  0  0  0
  161.9100  209.7050  149.4740 C   0  0  2  0  0  3  0  0  0  0  0  0
  158.9250  211.7030  153.2320 C   0  0  0  0  0  2  0  0  0  0  0  0
  157.0270  213.7270  152.4950 O   0  0  0  0  0  1  0  0  0  0  0  0
  162.3590  211.9270  150.4900 C   0  0  0  0  0  1  0  0  0  0  0  0
  161.0050  209.2210  150.6080 C   0  0  0  0  0  2  0  0  0  0  0  0
  158.3490  213.8840  152.0720 C   0  0  1  0  0  3  0  0  0  0  0  0
  161.8500  211.2300  149.2200 C   0  0  2  0  0  0  0  0  0  0  0  0
  157.5180  213.9590  149.8280 O   0  0  0  0  0  1  0  0  0  0  0  0
  159.2990  213.1650  153.0300 C   0  0  0  0  0  2  0  0  0  0  0  0
  160.3940  211.6450  148.9460 C   0  0  0  0  0  2  0  0  0  0  0  0
  161.8290  208.9400  151.8450 C   0  0  0  0  0  2  0  0  0  0  0  0
  159.8450  211.0940  154.2790 C   0  0  1  0  0  3  0  0  0  0  0  0
  160.1830  213.1460  148.7660 C   0  0  0  0  0  2  0  0  0  0  0  0
  163.7510  212.4360  148.2630 O   0  0  0  0  0  0  0  0  0  0  0  0
  162.6700  212.9620  147.5270 C   0  0  2  0  0  3  0  0  0  0  0  0
  162.7040  211.5440  147.9640 C   0  0  2  0  0  3  0  0  0  0  0  0
  163.0580  213.0490  146.0680 C   0  0  0  0  0  2  0  0  0  0  0  0
  162.5740  212.5240  143.3190 O   0  0  0  0  0  0  0  0  0  0  0  0
  161.7580  213.2690  143.9230 C   0  0  0  0  0  0  0  0  0  0  0  0
  160.6490  213.8150  143.2210 N   0  0  0  0  0  1  0  0  0  0  0  0
  161.9440  213.5840  145.3030 N   0  0  0  0  0  2  0  0  0  0  0  0
  163.4320  210.6690  154.0830 O   0  0  0  0  0  0  0  0  0  0  0  0
  162.2970  210.6490  154.5360 C   0  0  0  0  0  0  0  0  0  0  0  0
  162.3230  209.5550  156.6190 O   0  0  0  0  0  0  0  0  0  0  0  0
  162.0840  210.7680  156.0100 C   0  0  0  0  0  3  0  0  0  0  0  0
  163.2630  210.5100  156.6740 O   0  0  0  0  0  0  0  0  0  0  0  0
  161.7610  208.9160  148.2870 O   0  0  0  0  0  0  0  0  0  0  0  0
  161.8710  207.5200  148.2240 C   0  0  0  0  0  0  0  0  0  0  0  0
  162.9880  206.9540  148.0920 O   0  0  0  0  0  0  0  0  0  0  0  0
  160.6400  206.6930  148.2900 C   0  0  0  0  0  1  0  0  0  0  0  0
  159.1130  210.0620  155.1320 C   0  0  0  0  0  2  0  0  0  0  0  0
  158.0660  210.7210  155.9650 C   0  0  0  0  0  3  0  0  0  0  0  0
  158.3730  211.6140  156.7360 O   0  0  0  0  0  0  0  0  0  0  0  0
  1  2  1  0  0  0  0
  2 12  1  6  0  0  0
  2 10  1  0  0  0  0
  3 16  1  0  0  0  0
  3 27  1  1  0  0  0
  4  3  1  0  0  0  0
  5 31  1  6  0  0  0
  5  9  1  0  0  0  0
  6 16  1  0  0  0  0
  9 15  1  0  0  0  0
 10  7  1  1  0  0  0
 10 13  1  0  0  0  0
 11  5  1  0  0  0  0
 11  8  1  1  0  0  0
 13  6  1  0  0  0  0
 14 11  1  0  0  0  0
 15  4  1  0  0  0  0
 16 35  1  6  0  0  0
 17 14  1  0  0  0  0
 17  1  1  0  0  0  0
 19 21  1  6  0  0  0
 19 20  1  0  0  0  0
 19 18  1  0  0  0  0
 20 18  1  1  0  0  0
 20 11  1  0  0  0  0
 22 23  2  0  0  0  0
 23 25  1  0  0  0  0
 24 23  1  0  0  0  0
 25 21  1  0  0  0  0
 26 27  2  0  0  0  0
 27 29  1  0  0  0  0
 28 30  1  0  0  0  0
 29 28  1  0  0  0  0
 29 30  1  0  0  0  0
 32 31  1  0  0  0  0
 32 34  1  0  0  0  0
 33 32  2  0  0  0  0
 35 36  1  0  0  0  0
 36 37  2  0  0  0  0
M  END
>  <MODEL>
2

>  <REMARK>
 VINA RESULT:      -2.6      3.043      3.902
  Name = 
  9 active torsions:
  status: ('A' for Active; 'I' for Inactive)
    1  A    between atoms: C_4  and  O_22
    2  A    between atoms: C_6  and  C_19
    3  A    between atoms: C_7  and  C_33
    4  A    between atoms: C_10  and  O_22
    5  A    between atoms: C_16  and  C_30
    6  A    between atoms: C_18  and  C_19
    7  A    between atoms: C_20  and  C_24
    8  A    between atoms: C_30  and  N_32
    9  A    between atoms: C_33  and  C_34
                            x       y       z     vdW  Elec       q    Type
                         _______ _______ _______ _____ _____    ______ ____

>  <TORSDO>
F 9

$$$$
=
 OpenBabel11062409243D

 37 39  0  0  1  0  0  0  0  0999 V2000
  159.7790  212.7180  150.2260 C   0  0  0  0  0  2  0  0  0  0  0  0
  161.0610  212.8610  149.4130 C   0  0  1  0  0  3  0  0  0  0  0  0
  161.4150  208.0310  150.0620 C   0  0  1  0  0  3  0  0  0  0  0  0
  162.5040  207.8320  151.1170 C   0  0  0  0  0  2  0  0  0  0  0  0
  161.2410  210.1600  153.7970 C   0  0  2  0  0  3  0  0  0  0  0  0
  162.1110  210.0010  148.6740 C   0  0  0  0  0  2  0  0  0  0  0  0
  161.9720  212.4720  147.2190 O   0  0  0  0  0  1  0  0  0  0  0  0
  159.4000  210.2480  152.1310 C   0  0  0  0  0  1  0  0  0  0  0  0
  162.2770  209.6030  152.8190 C   0  0  0  0  0  2  0  0  0  0  0  0
  160.9100  212.1520  148.0690 C   0  0  1  0  0  3  0  0  0  0  0  0
  160.1890  211.0890  153.1460 C   0  0  2  0  0  0  0  0  0  0  0  0
  161.3290  214.2150  149.2080 O   0  0  0  0  0  1  0  0  0  0  0  0
  160.8000  210.6360  148.2280 C   0  0  0  0  0  2  0  0  0  0  0  0
  160.9040  212.2420  152.4230 C   0  0  0  0  0  2  0  0  0  0  0  0
  161.9590  208.1600  152.4930 C   0  0  0  0  0  2  0  0  0  0  0  0
  161.9480  208.4890  148.6990 C   0  0  1  0  0  3  0  0  0  0  0  0
  159.9790  213.1870  151.6610 C   0  0  0  0  0  2  0  0  0  0  0  0
  158.6390  210.6650  154.9900 O   0  0  0  0  0  0  0  0  0  0  0  0
  157.8480  211.4350  154.1140 C   0  0  2  0  0  3  0  0  0  0  0  0
  159.3030  211.6790  154.2740 C   0  0  2  0  0  3  0  0  0  0  0  0
  157.0740  212.4600  154.9140 C   0  0  0  0  0  2  0  0  0  0  0  0
  156.9010  214.4440  152.8900 O   0  0  0  0  0  0  0  0  0  0  0  0
  155.8490  213.8180  153.1840 C   0  0  0  0  0  0  0  0  0  0  0  0
  154.6360  214.1240  152.5100 N   0  0  0  0  0  1  0  0  0  0  0  0
  155.8600  212.8130  154.1980 N   0  0  0  0  0  2  0  0  0  0  0  0
  159.8250  206.6700  148.9570 O   0  0  0  0  0  0  0  0  0  0  0  0
  160.5520  206.8100  149.9280 C   0  0  0  0  0  0  0  0  0  0  0  0
  160.3570  204.5140  150.4040 O   0  0  0  0  0  0  0  0  0  0  0  0
  160.6090  205.7440  150.9720 C   0  0  0  0  0  3  0  0  0  0  0  0
  161.6230  204.8580  150.6800 O   0  0  0  0  0  0  0  0  0  0  0  0
  161.8460  210.7090  154.9740 O   0  0  0  0  0  0  0  0  0  0  0  0
  162.1860  209.9830  156.1240 C   0  0  0  0  0  0  0  0  0  0  0  0
  162.9270  210.4720  157.0170 O   0  0  0  0  0  0  0  0  0  0  0  0
  161.6790  208.5950  156.2790 C   0  0  0  0  0  1  0  0  0  0  0  0
  163.2370  207.7830  148.2900 C   0  0  0  0  0  2  0  0  0  0  0  0
  162.9360  206.4620  147.6680 C   0  0  0  0  0  3  0  0  0  0  0  0
  162.2840  206.4070  146.6390 O   0  0  0  0  0  0  0  0  0  0  0  0
  1 17  1  0  0  0  0
  2 12  1  6  0  0  0
  2  1  1  0  0  0  0
  3 27  1  6  0  0  0
  3  4  1  0  0  0  0
  4 15  1  0  0  0  0
  5 31  1  1  0  0  0
  6 16  1  0  0  0  0
  9  5  1  0  0  0  0
 10  7  1  6  0  0  0
 10 13  1  0  0  0  0
 10  2  1  0  0  0  0
 11  8  1  6  0  0  0
 11  5  1  0  0  0  0
 11 20  1  0  0  0  0
 13  6  1  0  0  0  0
 14 11  1  0  0  0  0
 15  9  1  0  0  0  0
 16 35  1  1  0  0  0
 16  3  1  0  0  0  0
 17 14  1  0  0  0  0
 19 20  1  0  0  0  0
 19 21  1  1  0  0  0
 19 18  1  0  0  0  0
 20 18  1  1  0  0  0
 22 23  2  0  0  0  0
 23 25  1  0  0  0  0
 24 23  1  0  0  0  0
 25 21  1  0  0  0  0
 26 27  2  0  0  0  0
 27 29  1  0  0  0  0
 28 30  1  0  0  0  0
 28 29  1  0  0  0  0
 30 29  1  0  0  0  0
 31 32  1  0  0  0  0
 32 34  1  0  0  0  0
 32 33  2  0  0  0  0
 36 35  1  0  0  0  0
 37 36  2  0  0  0  0
M  END
>  <MODEL>
3

>  <REMARK>
 VINA RESULT:      -2.6      3.297      7.780
  Name = 
  9 active torsions:
  status: ('A' for Active; 'I' for Inactive)
    1  A    between atoms: C_4  and  O_22
    2  A    between atoms: C_6  and  C_19
    3  A    between atoms: C_7  and  C_33
    4  A    between atoms: C_10  and  O_22
    5  A    between atoms: C_16  and  C_30
    6  A    between atoms: C_18  and  C_19
    7  A    between atoms: C_20  and  C_24
    8  A    between atoms: C_30  and  N_32
    9  A    between atoms: C_33  and  C_34
                            x       y       z     vdW  Elec       q    Type
                         _______ _______ _______ _____ _____    ______ ____

>  <TORSDO>
F 9

$$$$
=
 OpenBabel11062409243D

 37 39  0  0  1  0  0  0  0  0999 V2000
  161.7160  211.5280  149.2750 C   0  0  0  0  0  2  0  0  0  0  0  0
  160.3390  212.1240  149.5480 C   0  0  1  0  0  3  0  0  0  0  0  0
  161.0880  210.4950  154.0930 C   0  0  1  0  0  3  0  0  0  0  0  0
  160.2100  209.2520  154.2400 C   0  0  0  0  0  2  0  0  0  0  0  0
  161.2920  207.3320  151.1840 C   0  0  2  0  0  3  0  0  0  0  0  0
  159.8240  212.1010  152.6400 C   0  0  0  0  0  2  0  0  0  0  0  0
  159.2550  214.0120  150.5740 O   0  0  0  0  0  1  0  0  0  0  0  0
  162.8450  209.2710  151.1480 C   0  0  0  0  0  1  0  0  0  0  0  0
  160.2780  207.9910  152.1200 C   0  0  0  0  0  2  0  0  0  0  0  0
  160.4610  213.3100  150.5030 C   0  0  1  0  0  3  0  0  0  0  0  0
  162.0340  208.3210  150.2540 C   0  0  2  0  0  0  0  0  0  0  0  0
  159.7700  212.5400  148.3430 O   0  0  0  0  0  1  0  0  0  0  0  0
  160.9040  212.8790  151.9010 C   0  0  0  0  0  2  0  0  0  0  0  0
  161.0070  209.1230  149.4380 C   0  0  0  0  0  2  0  0  0  0  0  0
  160.8460  208.0800  153.5200 C   0  0  0  0  0  2  0  0  0  0  0  0
  160.3000  211.8100  154.0550 C   0  0  1  0  0  3  0  0  0  0  0  0
  161.6090  210.2010  148.5390 C   0  0  0  0  0  2  0  0  0  0  0  0
  163.0720  208.1560  148.0450 O   0  0  0  0  0  0  0  0  0  0  0  0
  162.2190  207.0340  148.0520 C   0  0  2  0  0  3  0  0  0  0  0  0
  162.9150  207.4970  149.2790 C   0  0  2  0  0  3  0  0  0  0  0  0
  162.9550  205.8470  147.4710 C   0  0  0  0  0  2  0  0  0  0  0  0
  161.5690  203.3920  147.1260 O   0  0  0  0  0  0  0  0  0  0  0  0
  161.6140  204.1800  146.1450 C   0  0  0  0  0  0  0  0  0  0  0  0
  160.9860  203.8180  144.9220 N   0  0  0  0  0  1  0  0  0  0  0  0
  162.3010  205.4270  146.2440 N   0  0  0  0  0  2  0  0  0  0  0  0
  163.3170  210.7890  154.8340 O   0  0  0  0  0  0  0  0  0  0  0  0
  162.1620  210.5330  155.1410 C   0  0  0  0  0  0  0  0  0  0  0  0
  162.0070  208.9620  156.8860 O   0  0  0  0  0  0  0  0  0  0  0  0
  161.8110  210.2900  156.5720 C   0  0  0  0  0  3  0  0  0  0  0  0
  162.9260  209.8640  157.2600 O   0  0  0  0  0  0  0  0  0  0  0  0
  160.7420  206.1990  150.5000 O   0  0  0  0  0  0  0  0  0  0  0  0
  160.9080  204.8620  150.8860 C   0  0  0  0  0  0  0  0  0  0  0  0
  160.7450  203.9160  150.0710 O   0  0  0  0  0  0  0  0  0  0  0  0
  161.2600  204.5540  152.2960 C   0  0  0  0  0  1  0  0  0  0  0  0
  159.1460  211.8490  155.0510 C   0  0  0  0  0  2  0  0  0  0  0  0
  159.1200  213.1540  155.7720 C   0  0  0  0  0  3  0  0  0  0  0  0
  160.0340  213.4540  156.5210 O   0  0  0  0  0  0  0  0  0  0  0  0
  1  2  1  0  0  0  0
  2 12  1  6  0  0  0
  2 10  1  0  0  0  0
  3  4  1  0  0  0  0
  3 27  1  1  0  0  0
  5 31  1  6  0  0  0
  5  9  1  0  0  0  0
  6 16  1  0  0  0  0
  9 15  1  0  0  0  0
 10  7  1  1  0  0  0
 10 13  1  0  0  0  0
 11  8  1  1  0  0  0
 11  5  1  0  0  0  0
 13  6  1  0  0  0  0
 14 11  1  0  0  0  0
 15  4  1  0  0  0  0
 16  3  1  0  0  0  0
 16 35  1  1  0  0  0
 17  1  1  0  0  0  0
 17 14  1  0  0  0  0
 18 19  1  0  0  0  0
 19 21  1  6  0  0  0
 19 20  1  0  0  0  0
 20 18  1  6  0  0  0
 20 11  1  0  0  0  0
 23 25  1  0  0  0  0
 23 22  2  0  0  0  0
 24 23  1  0  0  0  0
 25 21  1  0  0  0  0
 26 27  2  0  0  0  0
 27 29  1  0  0  0  0
 28 30  1  0  0  0  0
 29 28  1  0  0  0  0
 29 30  1  0  0  0  0
 31 32  1  0  0  0  0
 32 34  1  0  0  0  0
 33 32  2  0  0  0  0
 35 36  1  0  0  0  0
 36 37  2  0  0  0  0
M  END
>  <MODEL>
4

>  <REMARK>
 VINA RESULT:      -2.4      1.531      2.046
  Name = 
  9 active torsions:
  status: ('A' for Active; 'I' for Inactive)
    1  A    between atoms: C_4  and  O_22
    2  A    between atoms: C_6  and  C_19
    3  A    between atoms: C_7  and  C_33
    4  A    between atoms: C_10  and  O_22
    5  A    between atoms: C_16  and  C_30
    6  A    between atoms: C_18  and  C_19
    7  A    between atoms: C_20  and  C_24
    8  A    between atoms: C_30  and  N_32
    9  A    between atoms: C_33  and  C_34
                            x       y       z     vdW  Elec       q    Type
                         _______ _______ _______ _____ _____    ______ ____

>  <TORSDO>
F 9

$$$$
=
 OpenBabel11062409243D

 37 39  0  0  1  0  0  0  0  0999 V2000
  161.6190  202.9840  151.8640 C   0  0  0  0  0  2  0  0  0  0  0  0
  160.3970  202.3380  151.2190 C   0  0  1  0  0  3  0  0  0  0  0  0
  161.8260  204.7860  147.2390 C   0  0  1  0  0  3  0  0  0  0  0  0
  160.8590  205.9620  147.1050 C   0  0  0  0  0  2  0  0  0  0  0  0
  161.1040  207.4020  150.5780 C   0  0  2  0  0  3  0  0  0  0  0  0
  160.4930  202.8570  148.1290 C   0  0  0  0  0  2  0  0  0  0  0  0
  159.7520  200.5780  149.7100 O   0  0  0  0  0  1  0  0  0  0  0  0
  162.8290  205.6140  150.6410 C   0  0  0  0  0  1  0  0  0  0  0  0
  160.3730  206.8370  149.3600 C   0  0  0  0  0  2  0  0  0  0  0  0
  160.8340  201.3500  150.1410 C   0  0  1  0  0  3  0  0  0  0  0  0
  161.7590  206.3280  151.4800 C   0  0  2  0  0  0  0  0  0  0  0  0
  159.6550  201.6760  152.1990 O   0  0  0  0  0  1  0  0  0  0  0  0
  161.4890  202.0500  148.9510 C   0  0  0  0  0  2  0  0  0  0  0  0
  160.6890  205.3180  151.9280 C   0  0  0  0  0  2  0  0  0  0  0  0
  161.2080  207.0380  148.1140 C   0  0  0  0  0  2  0  0  0  0  0  0
  161.1990  203.4260  146.9080 C   0  0  1  0  0  3  0  0  0  0  0  0
  161.2220  204.1510  152.7560 C   0  0  0  0  0  2  0  0  0  0  0  0
  162.3310  206.1840  153.8530 O   0  0  0  0  0  0  0  0  0  0  0  0
  161.3690  207.2140  153.8460 C   0  0  2  0  0  3  0  0  0  0  0  0
  162.3350  207.0370  152.7330 C   0  0  2  0  0  3  0  0  0  0  0  0
  161.8360  208.3370  154.7460 C   0  0  0  0  0  2  0  0  0  0  0  0
  161.5200  211.0780  155.4180 O   0  0  0  0  0  0  0  0  0  0  0  0
  160.6010  210.2860  155.7520 C   0  0  0  0  0  0  0  0  0  0  0  0
  159.4620  210.7800  156.4460 N   0  0  0  0  0  1  0  0  0  0  0  0
  160.6970  208.8930  155.4550 N   0  0  0  0  0  2  0  0  0  0  0  0
  164.1380  204.5160  146.8050 O   0  0  0  0  0  0  0  0  0  0  0  0
  163.0810  205.0140  146.4480 C   0  0  0  0  0  0  0  0  0  0  0  0
  162.6690  205.0320  144.1310 O   0  0  0  0  0  0  0  0  0  0  0  0
  163.0300  205.8280  145.1960 C   0  0  0  0  0  3  0  0  0  0  0  0
  161.7480  205.8290  144.6920 O   0  0  0  0  0  0  0  0  0  0  0  0
  160.3090  208.3520  151.2970 O   0  0  0  0  0  0  0  0  0  0  0  0
  160.7040  209.6560  151.6230 C   0  0  0  0  0  0  0  0  0  0  0  0
  160.0120  210.3830  152.3850 O   0  0  0  0  0  0  0  0  0  0  0  0
  161.9560  210.2020  151.0380 C   0  0  0  0  0  1  0  0  0  0  0  0
  160.2720  203.4700  145.6980 C   0  0  0  0  0  2  0  0  0  0  0  0
  160.4120  202.2270  144.8860 C   0  0  0  0  0  3  0  0  0  0  0  0
  159.6080  201.3200  145.0170 O   0  0  0  0  0  0  0  0  0  0  0  0
  1 17  1  0  0  0  0
  2  1  1  0  0  0  0
  2 12  1  1  0  0  0
  3 27  1  6  0  0  0
  4  3  1  0  0  0  0
  4 15  1  0  0  0  0
  5 31  1  1  0  0  0
  5 11  1  0  0  0  0
  6 13  1  0  0  0  0
  9  5  1  0  0  0  0
 10  7  1  6  0  0  0
 10  2  1  0  0  0  0
 11  8  1  6  0  0  0
 11 14  1  0  0  0  0
 11 20  1  0  0  0  0
 13 10  1  0  0  0  0
 14 17  1  0  0  0  0
 15  9  1  0  0  0  0
 16 35  1  6  0  0  0
 16  3  1  0  0  0  0
 16  6  1  0  0  0  0
 19 18  1  0  0  0  0
 19 21  1  1  0  0  0
 20 19  1  0  0  0  0
 20 18  1  1  0  0  0
 21 25  1  0  0  0  0
 22 23  2  0  0  0  0
 23 24  1  0  0  0  0
 25 23  1  0  0  0  0
 27 26  2  0  0  0  0
 28 30  1  0  0  0  0
 28 29  1  0  0  0  0
 29 27  1  0  0  0  0
 30 29  1  0  0  0  0
 31 32  1  0  0  0  0
 32 33  2  0  0  0  0
 34 32  1  0  0  0  0
 36 37  2  0  0  0  0
 36 35  1  0  0  0  0
M  END
>  <MODEL>
5

>  <REMARK>
 VINA RESULT:      -1.2      3.335      9.849
  Name = 
  9 active torsions:
  status: ('A' for Active; 'I' for Inactive)
    1  A    between atoms: C_4  and  O_22
    2  A    between atoms: C_6  and  C_19
    3  A    between atoms: C_7  and  C_33
    4  A    between atoms: C_10  and  O_22
    5  A    between atoms: C_16  and  C_30
    6  A    between atoms: C_18  and  C_19
    7  A    between atoms: C_20  and  C_24
    8  A    between atoms: C_30  and  N_32
    9  A    between atoms: C_33  and  C_34
                            x       y       z     vdW  Elec       q    Type
                         _______ _______ _______ _____ _____    ______ ____

>  <TORSDO>
F 9

$$$$
=
 OpenBabel11062409243D

 37 39  0  0  1  0  0  0  0  0999 V2000
  162.2520  209.6560  154.5190 C   0  0  0  0  0  2  0  0  0  0  0  0
  162.6000  210.9580  155.2330 C   0  0  1  0  0  3  0  0  0  0  0  0
  158.1190  212.3300  153.8490 C   0  0  1  0  0  3  0  0  0  0  0  0
  158.3230  213.3040  152.6880 C   0  0  0  0  0  2  0  0  0  0  0  0
  160.5870  211.2360  150.4980 C   0  0  2  0  0  3  0  0  0  0  0  0
  160.0120  212.7140  155.4490 C   0  0  0  0  0  2  0  0  0  0  0  0
  162.1770  212.1850  157.2600 O   0  0  0  0  0  1  0  0  0  0  0  0
  160.0190  209.6320  152.3090 C   0  0  0  0  0  1  0  0  0  0  0  0
  160.1820  212.4790  151.2910 C   0  0  0  0  0  2  0  0  0  0  0  0
  161.7150  211.1330  156.4650 C   0  0  1  0  0  3  0  0  0  0  0  0
  161.1440  210.0830  151.3660 C   0  0  2  0  0  0  0  0  0  0  0  0
  163.9430  210.9310  155.6120 O   0  0  0  0  0  1  0  0  0  0  0  0
  160.2500  211.3550  156.0940 C   0  0  0  0  0  2  0  0  0  0  0  0
  162.3390  210.5950  152.1890 C   0  0  0  0  0  2  0  0  0  0  0  0
  158.6760  212.5410  151.4270 C   0  0  0  0  0  2  0  0  0  0  0  0
  158.5210  212.9000  155.2140 C   0  0  1  0  0  3  0  0  0  0  0  0
  162.9290  209.5740  153.1580 C   0  0  0  0  0  2  0  0  0  0  0  0
  160.5650  208.3650  149.7240 O   0  0  0  0  0  0  0  0  0  0  0  0
  161.1460  207.6000  150.7560 C   0  0  2  0  0  3  0  0  0  0  0  0
  161.6360  208.9590  150.4170 C   0  0  2  0  0  3  0  0  0  0  0  0
  162.0670  206.5650  150.1480 C   0  0  0  0  0  2  0  0  0  0  0  0
  161.3810  204.6230  148.1930 O   0  0  0  0  0  0  0  0  0  0  0  0
  161.2420  204.3070  149.4030 C   0  0  0  0  0  0  0  0  0  0  0  0
  160.7500  203.0160  149.7420 N   0  0  0  0  0  1  0  0  0  0  0  0
  161.5580  205.2360  150.4400 N   0  0  0  0  0  2  0  0  0  0  0  0
  155.7900  212.4600  153.4450 O   0  0  0  0  0  0  0  0  0  0  0  0
  156.7190  211.7910  153.8740 C   0  0  0  0  0  0  0  0  0  0  0  0
  156.7500  210.3600  155.7410 O   0  0  0  0  0  0  0  0  0  0  0  0
  156.4630  210.4150  154.3940 C   0  0  0  0  0  3  0  0  0  0  0  0
  155.4710  210.4540  155.3490 O   0  0  0  0  0  0  0  0  0  0  0  0
  161.4080  211.5560  149.3680 O   0  0  0  0  0  0  0  0  0  0  0  0
  161.4540  212.8030  148.7290 C   0  0  0  0  0  0  0  0  0  0  0  0
  162.3550  213.6430  148.9890 O   0  0  0  0  0  0  0  0  0  0  0  0
  160.3990  213.1500  147.7420 C   0  0  0  0  0  1  0  0  0  0  0  0
  158.1050  214.3560  155.4040 C   0  0  0  0  0  2  0  0  0  0  0  0
  156.9580  214.4520  156.3530 C   0  0  0  0  0  3  0  0  0  0  0  0
  156.1440  213.5470  156.4190 O   0  0  0  0  0  0  0  0  0  0  0  0
  1  2  1  0  0  0  0
  2 12  1  1  0  0  0
  2 10  1  0  0  0  0
  3 27  1  1  0  0  0
  3 16  1  0  0  0  0
  4  3  1  0  0  0  0
  5 31  1  6  0  0  0
  5  9  1  0  0  0  0
  5 11  1  0  0  0  0
  6 13  1  0  0  0  0
  9 15  1  0  0  0  0
 10  7  1  6  0  0  0
 11 14  1  0  0  0  0
 11  8  1  1  0  0  0
 13 10  1  0  0  0  0
 14 17  1  0  0  0  0
 15  4  1  0  0  0  0
 16 35  1  6  0  0  0
 16  6  1  0  0  0  0
 17  1  1  0  0  0  0
 18 19  1  0  0  0  0
 19 21  1  6  0  0  0
 20 18  1  6  0  0  0
 20 19  1  0  0  0  0
 20 11  1  0  0  0  0
 21 25  1  0  0  0  0
 22 23  2  0  0  0  0
 23 24  1  0  0  0  0
 23 25  1  0  0  0  0
 26 27  2  0  0  0  0
 27 29  1  0  0  0  0
 29 30  1  0  0  0  0
 29 28  1  0  0  0  0
 30 28  1  0  0  0  0
 32 33  2  0  0  0  0
 32 31  1  0  0  0  0
 34 32  1  0  0  0  0
 35 36  1  0  0  0  0
 36 37  2  0  0  0  0
M  END
>  <MODEL>
6

>  <REMARK>
 VINA RESULT:      -0.7      2.187      5.161
  Name = 
  9 active torsions:
  status: ('A' for Active; 'I' for Inactive)
    1  A    between atoms: C_4  and  O_22
    2  A    between atoms: C_6  and  C_19
    3  A    between atoms: C_7  and  C_33
    4  A    between atoms: C_10  and  O_22
    5  A    between atoms: C_16  and  C_30
    6  A    between atoms: C_18  and  C_19
    7  A    between atoms: C_20  and  C_24
    8  A    between atoms: C_30  and  N_32
    9  A    between atoms: C_33  and  C_34
                            x       y       z     vdW  Elec       q    Type
                         _______ _______ _______ _____ _____    ______ ____

>  <TORSDO>
F 9

$$$$
=
 OpenBabel11062409243D

 37 39  0  0  1  0  0  0  0  0999 V2000
  160.8520  206.9780  153.6870 C   0  0  0  0  0  2  0  0  0  0  0  0
  161.6260  207.4780  154.9020 C   0  0  1  0  0  3  0  0  0  0  0  0
  159.0250  211.5630  154.2470 C   0  0  1  0  0  3  0  0  0  0  0  0
  159.9900  212.5770  153.6330 C   0  0  0  0  0  2  0  0  0  0  0  0
  161.3330  210.5360  150.7650 C   0  0  2  0  0  3  0  0  0  0  0  0
  160.3620  210.1830  155.8590 C   0  0  0  0  0  2  0  0  0  0  0  0
  161.3950  207.8990  157.2600 O   0  0  0  0  0  1  0  0  0  0  0  0
  159.5780  209.0360  151.6840 C   0  0  0  0  0  1  0  0  0  0  0  0
  161.4420  211.3990  152.0220 C   0  0  0  0  0  2  0  0  0  0  0  0
  160.6780  207.6760  156.0820 C   0  0  1  0  0  3  0  0  0  0  0  0
  160.9720  209.0570  151.0390 C   0  0  2  0  0  0  0  0  0  0  0  0
  162.6130  206.5500  155.2350 O   0  0  0  0  0  1  0  0  0  0  0  0
  159.6890  208.8160  155.8420 C   0  0  0  0  0  2  0  0  0  0  0  0
  162.0020  208.4510  152.0070 C   0  0  0  0  0  2  0  0  0  0  0  0
  160.2080  212.2640  152.1660 C   0  0  0  0  0  2  0  0  0  0  0  0
  159.2990  211.2620  155.7260 C   0  0  1  0  0  3  0  0  0  0  0  0
  161.7100  207.0140  152.4310 C   0  0  0  0  0  2  0  0  0  0  0  0
  160.8210  206.9090  149.8790 O   0  0  0  0  0  0  0  0  0  0  0  0
  162.1440  207.3040  149.5930 C   0  0  2  0  0  3  0  0  0  0  0  0
  161.0370  208.2870  149.6940 C   0  0  2  0  0  3  0  0  0  0  0  0
  162.4400  207.0270  148.1360 C   0  0  0  0  0  2  0  0  0  0  0  0
  163.4170  205.0330  146.3640 O   0  0  0  0  0  0  0  0  0  0  0  0
  162.2500  204.8910  146.8170 C   0  0  0  0  0  0  0  0  0  0  0  0
  161.4770  203.7630  146.4290 N   0  0  0  0  0  1  0  0  0  0  0  0
  161.6910  205.8590  147.7050 N   0  0  0  0  0  2  0  0  0  0  0  0
  157.3250  212.9520  153.3620 O   0  0  0  0  0  0  0  0  0  0  0  0
  157.5950  211.9650  154.0290 C   0  0  0  0  0  0  0  0  0  0  0  0
  155.7730  211.8690  155.5150 O   0  0  0  0  0  0  0  0  0  0  0  0
  156.4950  211.1320  154.6010 C   0  0  0  0  0  3  0  0  0  0  0  0
  155.2760  211.6880  154.2830 O   0  0  0  0  0  0  0  0  0  0  0  0
  162.4590  210.7030  149.8930 O   0  0  0  0  0  0  0  0  0  0  0  0
  162.4960  211.5430  148.7720 C   0  0  0  0  0  0  0  0  0  0  0  0
  163.5840  211.8590  148.2220 O   0  0  0  0  0  0  0  0  0  0  0  0
  161.2240  212.0940  148.2370 C   0  0  0  0  0  1  0  0  0  0  0  0
  159.6610  212.5040  156.5350 C   0  0  0  0  0  2  0  0  0  0  0  0
  158.4640  213.0270  157.2550 C   0  0  0  0  0  3  0  0  0  0  0  0
  158.0520  214.1490  157.0160 O   0  0  0  0  0  0  0  0  0  0  0  0
  1  2  1  0  0  0  0
  2 12  1  1  0  0  0
  2 10  1  0  0  0  0
  3 27  1  1  0  0  0
  3 16  1  0  0  0  0
  4  3  1  0  0  0  0
  5 31  1  1  0  0  0
  5 11  1  0  0  0  0
  5  9  1  0  0  0  0
  9 15  1  0  0  0  0
 10  7  1  1  0  0  0
 11  8  1  1  0  0  0
 11 14  1  0  0  0  0
 13  6  1  0  0  0  0
 13 10  1  0  0  0  0
 14 17  1  0  0  0  0
 15  4  1  0  0  0  0
 16  6  1  0  0  0  0
 16 35  1  1  0  0  0
 17  1  1  0  0  0  0
 19 21  1  6  0  0  0
 19 20  1  0  0  0  0
 19 18  1  0  0  0  0
 20 18  1  1  0  0  0
 20 11  1  0  0  0  0
 22 23  2  0  0  0  0
 23 25  1  0  0  0  0
 24 23  1  0  0  0  0
 25 21  1  0  0  0  0
 26 27  2  0  0  0  0
 27 29  1  0  0  0  0
 29 28  1  0  0  0  0
 30 29  1  0  0  0  0
 30 28  1  0  0  0  0
 32 31  1  0  0  0  0
 33 32  2  0  0  0  0
 34 32  1  0  0  0  0
 35 36  1  0  0  0  0
 37 36  2  0  0  0  0
M  END
>  <MODEL>
7

>  <REMARK>
 VINA RESULT:      -0.5      1.715      4.977
  Name = 
  9 active torsions:
  status: ('A' for Active; 'I' for Inactive)
    1  A    between atoms: C_4  and  O_22
    2  A    between atoms: C_6  and  C_19
    3  A    between atoms: C_7  and  C_33
    4  A    between atoms: C_10  and  O_22
    5  A    between atoms: C_16  and  C_30
    6  A    between atoms: C_18  and  C_19
    7  A    between atoms: C_20  and  C_24
    8  A    between atoms: C_30  and  N_32
    9  A    between atoms: C_33  and  C_34
                            x       y       z     vdW  Elec       q    Type
                         _______ _______ _______ _____ _____    ______ ____

>  <TORSDO>
F 9

$$$$
=
 OpenBabel11062409243D

 37 39  0  0  1  0  0  0  0  0999 V2000
  160.8360  207.0290  153.6550 C   0  0  0  0  0  2  0  0  0  0  0  0
  161.5760  207.5780  154.8700 C   0  0  1  0  0  3  0  0  0  0  0  0
  158.8700  211.5700  154.0860 C   0  0  1  0  0  3  0  0  0  0  0  0
  159.8160  212.5980  153.4650 C   0  0  0  0  0  2  0  0  0  0  0  0
  161.2630  210.5360  150.6630 C   0  0  2  0  0  3  0  0  0  0  0  0
  160.2200  210.2640  155.7480 C   0  0  0  0  0  2  0  0  0  0  0  0
  161.2960  208.0430  157.2150 O   0  0  0  0  0  1  0  0  0  0  0  0
  159.5360  209.0060  151.5870 C   0  0  0  0  0  1  0  0  0  0  0  0
  161.3260  211.4290  151.9020 C   0  0  0  0  0  2  0  0  0  0  0  0
  160.6040  207.7730  156.0310 C   0  0  1  0  0  3  0  0  0  0  0  0
  160.9390  209.0530  150.9640 C   0  0  2  0  0  0  0  0  0  0  0  0
  162.5840  206.6850  155.2380 O   0  0  0  0  0  1  0  0  0  0  0  0
  159.5870  208.8790  155.7500 C   0  0  0  0  0  2  0  0  0  0  0  0
  161.9710  208.4990  151.9610 C   0  0  0  0  0  2  0  0  0  0  0  0
  160.0660  212.2600  152.0080 C   0  0  0  0  0  2  0  0  0  0  0  0
  159.1290  211.3100  155.5750 C   0  0  1  0  0  3  0  0  0  0  0  0
  161.7130  207.0630  152.4110 C   0  0  0  0  0  2  0  0  0  0  0  0
  161.0410  206.8680  149.8690 O   0  0  0  0  0  0  0  0  0  0  0  0
  162.2770  207.4370  149.5020 C   0  0  2  0  0  3  0  0  0  0  0  0
  161.0470  208.2570  149.6380 C   0  0  2  0  0  3  0  0  0  0  0  0
  162.5390  207.1580  148.0390 C   0  0  0  0  0  2  0  0  0  0  0  0
  160.9150  205.9740  146.0310 O   0  0  0  0  0  0  0  0  0  0  0  0
  161.5970  205.2050  146.7590 C   0  0  0  0  0  0  0  0  0  0  0  0
  161.5270  203.7990  146.5580 N   0  0  0  0  0  1  0  0  0  0  0  0
  162.4290  205.7300  147.7940 N   0  0  0  0  0  2  0  0  0  0  0  0
  156.5440  211.1340  154.1060 O   0  0  0  0  0  0  0  0  0  0  0  0
  157.4330  211.9260  153.8360 C   0  0  0  0  0  0  0  0  0  0  0  0
  155.8240  213.6370  153.6980 O   0  0  0  0  0  0  0  0  0  0  0  0
  157.0880  213.2710  153.2870 C   0  0  0  0  0  3  0  0  0  0  0  0
  156.8900  214.1610  154.3200 O   0  0  0  0  0  0  0  0  0  0  0  0
  162.3960  210.7160  149.8050 O   0  0  0  0  0  0  0  0  0  0  0  0
  162.4240  211.5260  148.6610 C   0  0  0  0  0  0  0  0  0  0  0  0
  163.4910  212.0640  148.2610 O   0  0  0  0  0  0  0  0  0  0  0  0
  161.1620  211.7730  147.9180 C   0  0  0  0  0  1  0  0  0  0  0  0
  159.4430  212.5780  156.3620 C   0  0  0  0  0  2  0  0  0  0  0  0
  158.3000  212.9400  157.2490 C   0  0  0  0  0  3  0  0  0  0  0  0
  157.2090  212.4240  157.0780 O   0  0  0  0  0  0  0  0  0  0  0  0
  1  2  1  0  0  0  0
  2 12  1  1  0  0  0
  2 10  1  0  0  0  0
  3 27  1  1  0  0  0
  3 16  1  0  0  0  0
  4  3  1  0  0  0  0
  5 31  1  1  0  0  0
  5 11  1  0  0  0  0
  5  9  1  0  0  0  0
  6 13  1  0  0  0  0
  9 15  1  0  0  0  0
 10  7  1  1  0  0  0
 11  8  1  1  0  0  0
 11 14  1  0  0  0  0
 13 10  1  0  0  0  0
 14 17  1  0  0  0  0
 15  4  1  0  0  0  0
 16  6  1  0  0  0  0
 16 35  1  1  0  0  0
 17  1  1  0  0  0  0
 19 21  1  6  0  0  0
 19 20  1  0  0  0  0
 19 18  1  0  0  0  0
 20 18  1  1  0  0  0
 20 11  1  0  0  0  0
 22 23  2  0  0  0  0
 23 25  1  0  0  0  0
 24 23  1  0  0  0  0
 25 21  1  0  0  0  0
 27 26  2  0  0  0  0
 28 30  1  0  0  0  0
 29 28  1  0  0  0  0
 29 27  1  0  0  0  0
 29 30  1  0  0  0  0
 32 31  1  0  0  0  0
 33 32  2  0  0  0  0
 34 32  1  0  0  0  0
 35 36  1  0  0  0  0
 37 36  2  0  0  0  0
M  END
>  <MODEL>
8

>  <REMARK>
 VINA RESULT:      -0.3      1.829      4.951
  Name = 
  9 active torsions:
  status: ('A' for Active; 'I' for Inactive)
    1  A    between atoms: C_4  and  O_22
    2  A    between atoms: C_6  and  C_19
    3  A    between atoms: C_7  and  C_33
    4  A    between atoms: C_10  and  O_22
    5  A    between atoms: C_16  and  C_30
    6  A    between atoms: C_18  and  C_19
    7  A    between atoms: C_20  and  C_24
    8  A    between atoms: C_30  and  N_32
    9  A    between atoms: C_33  and  C_34
                            x       y       z     vdW  Elec       q    Type
                         _______ _______ _______ _____ _____    ______ ____

>  <TORSDO>
F 9

$$$$
