=
 OpenBabel11062408343D

 32 35  0  0  1  0  0  0  0  0999 V2000
  162.4110  210.7580  148.9970 C   0  0  0  0  0  0  0  0  0  0  0  0
  162.9650  211.7560  148.1500 N   0  0  0  0  0  1  0  0  0  0  0  0
  159.1460  206.4390  149.2860 O   0  0  0  0  0  1  0  0  0  0  0  0
  161.9420  208.6190  151.1630 S   0  0  0  0  0  0  0  0  0  0  0  0
  161.1920  207.4520  148.8370 C   0  0  0  0  0  0  0  0  0  0  0  0
  161.7210  211.1790  150.2380 C   0  0  0  0  0  3  0  0  0  0  0  0
  161.7980  208.4930  149.3880 C   0  0  0  0  0  0  0  0  0  0  0  0
  162.3640  209.5240  148.5820 N   0  0  0  0  0  0  0  0  0  0  0  0
  160.7480  206.6500  147.6450 O   0  0  0  0  0  0  0  0  0  0  0  0
  161.3450  210.3300  151.2010 C   0  0  0  0  0  0  0  0  0  0  0  0
  160.4890  206.2760  148.9320 C   0  0  2  0  0  0  0  0  0  0  0  0
  161.2760  205.0700  149.4360 C   0  0  1  0  0  3  0  0  0  0  0  0
  160.6250  204.5390  150.7010 C   0  0  1  0  0  3  0  0  0  0  0  0
  160.4510  203.7910  149.3670 C   0  0  2  0  0  3  0  0  0  0  0  0
  161.2630  202.4890  149.1600 C   0  0  1  0  0  3  0  0  0  0  0  0
  160.6000  201.1960  149.6210 C   0  0  0  0  0  1  0  0  0  0  0  0
  161.7500  202.3610  147.7930 N   0  0  0  0  0  2  0  0  0  0  0  0
  160.9500  200.9670  147.0560 S   0  0  0  0  0  0  0  0  0  0  0  0
  160.5810  201.8760  145.5260 C   0  0  0  0  0  2  0  0  0  0  0  0
  161.2440  203.2390  145.5610 C   0  0  0  0  0  2  0  0  0  0  0  0
  160.5980  204.1490  144.5310 C   0  0  0  0  0  2  0  0  0  0  0  0
  162.4250  205.6900  145.0980 C   0  0  0  0  0  2  0  0  0  0  0  0
  161.2050  205.5140  144.5910 C   0  0  0  0  0  3  0  0  0  0  0  0
  161.9350  203.9530  151.8270 S   0  0  0  0  0  0  0  0  0  0  0  0
  161.5490  205.2370  153.0480 C   0  0  0  0  0  1  0  0  0  0  0  0
  160.5410  210.8490  152.2370 O   0  0  0  0  0  0  0  0  0  0  0  0
  159.4640  210.8720  154.4530 C   0  0  0  0  0  2  0  0  0  0  0  0
  160.7540  210.8910  153.6610 C   0  0  1  0  0  3  0  0  0  0  0  0
  160.3330  209.6220  154.3730 C   0  0  1  0  0  3  0  0  0  0  0  0
  161.0650  209.4900  155.5530 O   0  0  0  0  0  0  0  0  0  0  0  0
  159.9770  207.4400  156.0700 C   0  0  0  0  0  1  0  0  0  0  0  0
  161.2770  208.1150  155.6880 C   0  0  0  0  0  2  0  0  0  0  0  0
  1  6  1  0  0  0  0
  2  1  1  0  0  0  0
  4 10  1  0  0  0  0
  5 11  1  0  0  0  0
  5  7  2  0  0  0  0
  6 10  2  0  0  0  0
  7  4  1  0  0  0  0
  8  1  2  0  0  0  0
  8  7  1  0  0  0  0
  9  5  1  0  0  0  0
  9 11  1  0  0  0  0
 10 26  1  0  0  0  0
 11  3  1  1  0  0  0
 12 11  1  6  0  0  0
 12 13  1  0  0  0  0
 13 24  1  1  0  0  0
 14 15  1  1  0  0  0
 14 12  1  0  0  0  0
 14 13  1  0  0  0  0
 15 16  1  6  0  0  0
 17 15  1  0  0  0  0
 18 17  1  0  0  0  0
 19 20  1  0  0  0  0
 19 18  1  0  0  0  0
 21 23  1  0  0  0  0
 21 20  1  0  0  0  0
 23 22  2  0  0  0  0
 24 25  1  0  0  0  0
 28 26  1  6  0  0  0
 28 29  1  0  0  0  0
 28 27  1  0  0  0  0
 29 27  1  0  0  0  0
 29 30  1  1  0  0  0
 30 32  1  0  0  0  0
 32 31  1  0  0  0  0
M  END
>  <MODEL>
1

>  <REMARK>
 VINA RESULT:      -5.1      0.000      0.000
  Name = 
  13 active torsions:
  status: ('A' for Active; 'I' for Inactive)
    1  A    between atoms: C_1  and  N_4
    2  A    between atoms: C_1  and  C_30
    3  A    between atoms: C_2  and  C_27
    4  A    between atoms: N_4  and  S_17
    5  A    between atoms: C_5  and  S_14
    6  A    between atoms: C_6  and  S_17
    7  A    between atoms: C_6  and  C_29
    8  A    between atoms: O_7  and  C_26
    9  A    between atoms: O_7  and  C_31
   10  A    between atoms: C_12  and  O_28
   11  A    between atoms: C_18  and  C_25
   12  A    between atoms: C_18  and  C_29
   13  A    between atoms: O_28  and  C_32
                            x       y       z     vdW  Elec       q    Type
                         _______ _______ _______ _____ _____    ______ ____

>  <TORSDO>
F 13

$$$$
=
 OpenBabel11062408343D

 32 35  0  0  1  0  0  0  0  0999 V2000
  160.7050  206.0190  146.9970 C   0  0  0  0  0  0  0  0  0  0  0  0
  160.4890  206.2490  145.6110 N   0  0  0  0  0  1  0  0  0  0  0  0
  163.0980  207.8210  151.5160 O   0  0  0  0  0  1  0  0  0  0  0  0
  160.4050  205.2800  149.9720 S   0  0  0  0  0  0  0  0  0  0  0  0
  161.3660  207.8110  149.9610 C   0  0  0  0  0  0  0  0  0  0  0  0
  161.2140  204.6970  147.4300 C   0  0  0  0  0  3  0  0  0  0  0  0
  160.8510  206.8380  149.2250 C   0  0  0  0  0  0  0  0  0  0  0  0
  160.6220  207.0170  147.8290 N   0  0  0  0  0  0  0  0  0  0  0  0
  161.8830  209.2120  150.1410 O   0  0  0  0  0  0  0  0  0  0  0  0
  161.2600  204.3030  148.7070 C   0  0  0  0  0  0  0  0  0  0  0  0
  161.8350  208.3020  151.1560 C   0  0  2  0  0  0  0  0  0  0  0  0
  160.7800  208.5660  152.2260 C   0  0  1  0  0  3  0  0  0  0  0  0
  161.4320  208.5230  153.5960 C   0  0  1  0  0  3  0  0  0  0  0  0
  161.0430  209.8710  152.9650 C   0  0  2  0  0  3  0  0  0  0  0  0
  159.7840  210.5870  153.5140 C   0  0  1  0  0  3  0  0  0  0  0  0
  160.0090  211.5750  154.6540 C   0  0  0  0  0  1  0  0  0  0  0  0
  158.9950  211.1960  152.4510 N   0  0  0  0  0  2  0  0  0  0  0  0
  159.6810  212.7880  152.1040 S   0  0  0  0  0  0  0  0  0  0  0  0
  158.3410  213.2120  150.9510 C   0  0  0  0  0  2  0  0  0  0  0  0
  158.9210  213.7510  149.6590 C   0  0  0  0  0  2  0  0  0  0  0  0
  160.4240  213.5340  149.6420 C   0  0  0  0  0  2  0  0  0  0  0  0
  161.4950  212.0280  148.0230 C   0  0  0  0  0  2  0  0  0  0  0  0
  160.8830  213.1880  148.2620 C   0  0  0  0  0  3  0  0  0  0  0  0
  160.2570  207.7790  154.7770 S   0  0  0  0  0  0  0  0  0  0  0  0
  161.3880  208.0450  156.1690 C   0  0  0  0  0  1  0  0  0  0  0  0
  161.9340  203.0950  148.9820 O   0  0  0  0  0  0  0  0  0  0  0  0
  160.0420  201.5240  148.8380 C   0  0  0  0  0  2  0  0  0  0  0  0
  161.5400  201.7270  148.7640 C   0  0  1  0  0  3  0  0  0  0  0  0
  160.7470  201.5220  147.4880 C   0  0  1  0  0  3  0  0  0  0  0  0
  160.9080  200.2080  147.0500 O   0  0  0  0  0  0  0  0  0  0  0  0
  160.1410  201.5650  145.2550 C   0  0  0  0  0  1  0  0  0  0  0  0
  160.8480  200.2880  145.6560 C   0  0  0  0  0  2  0  0  0  0  0  0
  1  6  1  0  0  0  0
  1  8  2  0  0  0  0
  2  1  1  0  0  0  0
  5  9  1  0  0  0  0
  5 11  1  0  0  0  0
  6 10  2  0  0  0  0
  7  5  2  0  0  0  0
  7  4  1  0  0  0  0
  8  7  1  0  0  0  0
  9 11  1  0  0  0  0
 10 26  1  0  0  0  0
 10  4  1  0  0  0  0
 11  3  1  1  0  0  0
 12 11  1  6  0  0  0
 12 14  1  0  0  0  0
 12 13  1  0  0  0  0
 13 24  1  1  0  0  0
 14 15  1  1  0  0  0
 14 13  1  0  0  0  0
 15 16  1  1  0  0  0
 17 15  1  0  0  0  0
 18 17  1  0  0  0  0
 19 18  1  0  0  0  0
 20 19  1  0  0  0  0
 21 20  1  0  0  0  0
 22 23  2  0  0  0  0
 23 21  1  0  0  0  0
 24 25  1  0  0  0  0
 28 27  1  0  0  0  0
 28 26  1  6  0  0  0
 29 30  1  1  0  0  0
 29 28  1  0  0  0  0
 29 27  1  0  0  0  0
 31 32  1  0  0  0  0
 32 30  1  0  0  0  0
M  END
>  <MODEL>
2

>  <REMARK>
 VINA RESULT:      -5.0      2.933      8.466
  Name = 
  13 active torsions:
  status: ('A' for Active; 'I' for Inactive)
    1  A    between atoms: C_1  and  N_4
    2  A    between atoms: C_1  and  C_30
    3  A    between atoms: C_2  and  C_27
    4  A    between atoms: N_4  and  S_17
    5  A    between atoms: C_5  and  S_14
    6  A    between atoms: C_6  and  S_17
    7  A    between atoms: C_6  and  C_29
    8  A    between atoms: O_7  and  C_26
    9  A    between atoms: O_7  and  C_31
   10  A    between atoms: C_12  and  O_28
   11  A    between atoms: C_18  and  C_25
   12  A    between atoms: C_18  and  C_29
   13  A    between atoms: O_28  and  C_32
                            x       y       z     vdW  Elec       q    Type
                         _______ _______ _______ _____ _____    ______ ____

>  <TORSDO>
F 13

$$$$
=
 OpenBabel11062408343D

 32 35  0  0  1  0  0  0  0  0999 V2000
  160.6590  206.0690  147.0320 C   0  0  0  0  0  0  0  0  0  0  0  0
  160.4310  206.2970  145.6460 N   0  0  0  0  0  1  0  0  0  0  0  0
  163.0640  207.8980  151.5340 O   0  0  0  0  0  1  0  0  0  0  0  0
  160.3880  205.3280  150.0080 S   0  0  0  0  0  0  0  0  0  0  0  0
  161.3220  207.8690  149.9910 C   0  0  0  0  0  0  0  0  0  0  0  0
  161.1860  204.7530  147.4610 C   0  0  0  0  0  3  0  0  0  0  0  0
  160.8120  206.8910  149.2580 C   0  0  0  0  0  0  0  0  0  0  0  0
  160.5710  207.0670  147.8640 N   0  0  0  0  0  0  0  0  0  0  0  0
  161.8240  209.2760  150.1670 O   0  0  0  0  0  0  0  0  0  0  0  0
  161.2450  204.3600  148.7380 C   0  0  0  0  0  0  0  0  0  0  0  0
  161.7940  208.3650  151.1820 C   0  0  2  0  0  0  0  0  0  0  0  0
  160.7430  208.6180  152.2600 C   0  0  1  0  0  3  0  0  0  0  0  0
  161.3950  208.5290  153.6280 C   0  0  1  0  0  3  0  0  0  0  0  0
  161.0270  209.8990  153.0320 C   0  0  2  0  0  3  0  0  0  0  0  0
  159.7800  210.6200  153.6010 C   0  0  1  0  0  3  0  0  0  0  0  0
  160.0250  211.5990  154.7450 C   0  0  0  0  0  1  0  0  0  0  0  0
  158.9840  211.2420  152.5520 N   0  0  0  0  0  2  0  0  0  0  0  0
  159.9870  212.4570  151.7500 S   0  0  0  0  0  0  0  0  0  0  0  0
  158.9290  213.8260  152.3030 C   0  0  0  0  0  2  0  0  0  0  0  0
  157.6120  213.7990  151.5530 C   0  0  0  0  0  2  0  0  0  0  0  0
  156.4750  214.1400  152.5000 C   0  0  0  0  0  2  0  0  0  0  0  0
  156.1330  212.8050  154.5340 C   0  0  0  0  0  2  0  0  0  0  0  0
  156.8290  213.7480  153.8990 C   0  0  0  0  0  3  0  0  0  0  0  0
  160.2090  207.7730  154.7890 S   0  0  0  0  0  0  0  0  0  0  0  0
  161.3060  208.0680  156.2020 C   0  0  0  0  0  1  0  0  0  0  0  0
  161.9350  203.1590  149.0080 O   0  0  0  0  0  0  0  0  0  0  0  0
  160.0580  201.5680  148.8780 C   0  0  0  0  0  2  0  0  0  0  0  0
  161.5530  201.7880  148.7930 C   0  0  1  0  0  3  0  0  0  0  0  0
  160.7540  201.5740  147.5230 C   0  0  1  0  0  3  0  0  0  0  0  0
  160.9260  200.2610  147.0840 O   0  0  0  0  0  0  0  0  0  0  0  0
  160.1610  201.6110  145.2820 C   0  0  0  0  0  1  0  0  0  0  0  0
  160.8820  200.3440  145.6890 C   0  0  0  0  0  2  0  0  0  0  0  0
  1  6  1  0  0  0  0
  1  8  2  0  0  0  0
  2  1  1  0  0  0  0
  5  9  1  0  0  0  0
  5 11  1  0  0  0  0
  6 10  2  0  0  0  0
  7  5  2  0  0  0  0
  7  4  1  0  0  0  0
  8  7  1  0  0  0  0
  9 11  1  0  0  0  0
 10 26  1  0  0  0  0
 10  4  1  0  0  0  0
 11  3  1  1  0  0  0
 12 11  1  6  0  0  0
 12 14  1  0  0  0  0
 12 13  1  0  0  0  0
 13 24  1  1  0  0  0
 14 15  1  1  0  0  0
 14 13  1  0  0  0  0
 15 16  1  1  0  0  0
 17 15  1  0  0  0  0
 18 19  1  0  0  0  0
 18 17  1  0  0  0  0
 20 19  1  0  0  0  0
 20 21  1  0  0  0  0
 21 23  1  0  0  0  0
 23 22  2  0  0  0  0
 24 25  1  0  0  0  0
 28 27  1  0  0  0  0
 28 26  1  6  0  0  0
 29 30  1  1  0  0  0
 29 28  1  0  0  0  0
 29 27  1  0  0  0  0
 31 32  1  0  0  0  0
 32 30  1  0  0  0  0
M  END
>  <MODEL>
3

>  <REMARK>
 VINA RESULT:      -4.7      3.093      9.065
  Name = 
  13 active torsions:
  status: ('A' for Active; 'I' for Inactive)
    1  A    between atoms: C_1  and  N_4
    2  A    between atoms: C_1  and  C_30
    3  A    between atoms: C_2  and  C_27
    4  A    between atoms: N_4  and  S_17
    5  A    between atoms: C_5  and  S_14
    6  A    between atoms: C_6  and  S_17
    7  A    between atoms: C_6  and  C_29
    8  A    between atoms: O_7  and  C_26
    9  A    between atoms: O_7  and  C_31
   10  A    between atoms: C_12  and  O_28
   11  A    between atoms: C_18  and  C_25
   12  A    between atoms: C_18  and  C_29
   13  A    between atoms: O_28  and  C_32
                            x       y       z     vdW  Elec       q    Type
                         _______ _______ _______ _____ _____    ______ ____

>  <TORSDO>
F 13

$$$$
=
 OpenBabel11062408343D

 32 35  0  0  1  0  0  0  0  0999 V2000
  160.0460  208.2010  155.6970 C   0  0  0  0  0  0  0  0  0  0  0  0
  159.8940  207.2310  156.7260 N   0  0  0  0  0  1  0  0  0  0  0  0
  163.2060  210.0170  151.6840 O   0  0  0  0  0  1  0  0  0  0  0  0
  159.5800  210.1880  153.3910 S   0  0  0  0  0  0  0  0  0  0  0  0
  161.5920  208.5830  152.5510 C   0  0  0  0  0  0  0  0  0  0  0  0
  159.9120  209.6350  156.0440 C   0  0  0  0  0  3  0  0  0  0  0  0
  160.6550  208.7650  153.4680 C   0  0  0  0  0  0  0  0  0  0  0  0
  160.4680  207.8250  154.5230 N   0  0  0  0  0  0  0  0  0  0  0  0
  162.7010  207.7840  151.9230 O   0  0  0  0  0  0  0  0  0  0  0  0
  159.8330  210.6120  155.1350 C   0  0  0  0  0  0  0  0  0  0  0  0
  162.2890  208.9910  151.4390 C   0  0  2  0  0  0  0  0  0  0  0  0
  161.5230  208.9440  150.1200 C   0  0  1  0  0  3  0  0  0  0  0  0
  162.3420  209.6270  149.0390 C   0  0  1  0  0  3  0  0  0  0  0  0
  162.2420  208.0920  149.0830 C   0  0  2  0  0  3  0  0  0  0  0  0
  161.3260  207.4000  148.0430 C   0  0  1  0  0  3  0  0  0  0  0  0
  162.0260  206.6850  146.8920 C   0  0  0  0  0  1  0  0  0  0  0  0
  160.3470  206.5250  148.6760 N   0  0  0  0  0  2  0  0  0  0  0  0
  160.9480  204.8660  148.5720 S   0  0  0  0  0  0  0  0  0  0  0  0
  161.2680  204.7760  150.3590 C   0  0  0  0  0  2  0  0  0  0  0  0
  160.4200  203.6850  150.9820 C   0  0  0  0  0  2  0  0  0  0  0  0
  161.1850  202.3740  150.9750 C   0  0  0  0  0  2  0  0  0  0  0  0
  161.1980  201.0480  148.9070 C   0  0  0  0  0  2  0  0  0  0  0  0
  160.5570  201.4110  150.0180 C   0  0  0  0  0  3  0  0  0  0  0  0
  161.2040  210.5100  147.9190 S   0  0  0  0  0  0  0  0  0  0  0  0
  162.1310  212.0590  148.0970 C   0  0  0  0  0  1  0  0  0  0  0  0
  159.8910  211.9380  155.6120 O   0  0  0  0  0  0  0  0  0  0  0  0
  158.2490  213.7280  155.1990 C   0  0  0  0  0  2  0  0  0  0  0  0
  158.8730  212.7730  156.1940 C   0  0  1  0  0  3  0  0  0  0  0  0
  157.4820  212.4950  155.6590 C   0  0  1  0  0  3  0  0  0  0  0  0
  156.5370  212.8660  156.6150 O   0  0  0  0  0  0  0  0  0  0  0  0
  155.8720  210.9160  155.4270 C   0  0  0  0  0  1  0  0  0  0  0  0
  155.5850  211.8420  156.5900 C   0  0  0  0  0  2  0  0  0  0  0  0
  1  6  1  0  0  0  0
  1  2  1  0  0  0  0
  4  7  1  0  0  0  0
  4 10  1  0  0  0  0
  5  7  2  0  0  0  0
  7  8  1  0  0  0  0
  8  1  2  0  0  0  0
  9  5  1  0  0  0  0
 10 26  1  0  0  0  0
 10  6  2  0  0  0  0
 11  3  1  1  0  0  0
 11  9  1  0  0  0  0
 11  5  1  0  0  0  0
 12 11  1  1  0  0  0
 13 24  1  6  0  0  0
 13 14  1  0  0  0  0
 13 12  1  0  0  0  0
 14 15  1  6  0  0  0
 14 12  1  0  0  0  0
 15 16  1  6  0  0  0
 15 17  1  0  0  0  0
 18 17  1  0  0  0  0
 18 19  1  0  0  0  0
 19 20  1  0  0  0  0
 21 20  1  0  0  0  0
 22 23  2  0  0  0  0
 23 21  1  0  0  0  0
 24 25  1  0  0  0  0
 27 29  1  0  0  0  0
 27 28  1  0  0  0  0
 28 26  1  6  0  0  0
 29 28  1  0  0  0  0
 29 30  1  1  0  0  0
 31 32  1  0  0  0  0
 32 30  1  0  0  0  0
M  END
>  <MODEL>
4

>  <REMARK>
 VINA RESULT:      -4.6      3.185      5.697
  Name = 
  13 active torsions:
  status: ('A' for Active; 'I' for Inactive)
    1  A    between atoms: C_1  and  N_4
    2  A    between atoms: C_1  and  C_30
    3  A    between atoms: C_2  and  C_27
    4  A    between atoms: N_4  and  S_17
    5  A    between atoms: C_5  and  S_14
    6  A    between atoms: C_6  and  S_17
    7  A    between atoms: C_6  and  C_29
    8  A    between atoms: O_7  and  C_26
    9  A    between atoms: O_7  and  C_31
   10  A    between atoms: C_12  and  O_28
   11  A    between atoms: C_18  and  C_25
   12  A    between atoms: C_18  and  C_29
   13  A    between atoms: O_28  and  C_32
                            x       y       z     vdW  Elec       q    Type
                         _______ _______ _______ _____ _____    ______ ____

>  <TORSDO>
F 13

$$$$
=
 OpenBabel11062408343D

 32 35  0  0  1  0  0  0  0  0999 V2000
  162.0590  204.9430  146.4700 C   0  0  0  0  0  0  0  0  0  0  0  0
  162.5680  204.4270  145.2470 N   0  0  0  0  0  1  0  0  0  0  0  0
  163.0540  208.1160  150.7520 O   0  0  0  0  0  1  0  0  0  0  0  0
  160.2680  206.0880  148.6990 S   0  0  0  0  0  0  0  0  0  0  0  0
  162.3830  207.7720  148.5510 C   0  0  0  0  0  0  0  0  0  0  0  0
  161.5310  203.9960  147.4790 C   0  0  0  0  0  3  0  0  0  0  0  0
  161.7520  206.7620  147.9710 C   0  0  0  0  0  0  0  0  0  0  0  0
  162.2270  206.2050  146.7480 N   0  0  0  0  0  0  0  0  0  0  0  0
  163.4700  208.8100  148.5970 O   0  0  0  0  0  0  0  0  0  0  0  0
  160.8480  204.3760  148.5650 C   0  0  0  0  0  0  0  0  0  0  0  0
  162.5340  208.6700  149.5790 C   0  0  2  0  0  0  0  0  0  0  0  0
  161.4870  209.7790  149.6520 C   0  0  1  0  0  3  0  0  0  0  0  0
  161.8450  210.7350  150.7760 C   0  0  1  0  0  3  0  0  0  0  0  0
  162.0830  211.1380  149.3100 C   0  0  2  0  0  3  0  0  0  0  0  0
  161.1000  212.1510  148.6730 C   0  0  1  0  0  3  0  0  0  0  0  0
  161.3800  213.6270  148.9400 C   0  0  0  0  0  1  0  0  0  0  0  0
  160.9160  211.9100  147.2490 N   0  0  0  0  0  2  0  0  0  0  0  0
  161.8110  213.1510  146.3630 S   0  0  0  0  0  0  0  0  0  0  0  0
  160.3970  213.5280  145.2840 C   0  0  0  0  0  2  0  0  0  0  0  0
  159.3420  212.4480  145.4190 C   0  0  0  0  0  2  0  0  0  0  0  0
  157.9800  213.0150  145.0610 C   0  0  0  0  0  2  0  0  0  0  0  0
  157.5530  212.6480  147.4520 C   0  0  0  0  0  2  0  0  0  0  0  0
  157.1250  213.1240  146.2820 C   0  0  0  0  0  3  0  0  0  0  0  0
  160.3030  211.3080  151.5650 S   0  0  0  0  0  0  0  0  0  0  0  0
  160.3590  209.9730  152.7910 C   0  0  0  0  0  1  0  0  0  0  0  0
  160.5660  203.3820  149.5250 O   0  0  0  0  0  0  0  0  0  0  0  0
  161.4070  202.5650  151.6920 C   0  0  0  0  0  2  0  0  0  0  0  0
  160.4390  203.4670  150.9570 C   0  0  1  0  0  3  0  0  0  0  0  0
  161.6530  204.0680  151.6370 C   0  0  1  0  0  3  0  0  0  0  0  0
  161.2670  204.6450  152.8460 O   0  0  0  0  0  0  0  0  0  0  0  0
  161.2050  206.7710  153.9090 C   0  0  0  0  0  1  0  0  0  0  0  0
  161.2550  206.0210  152.5960 C   0  0  0  0  0  2  0  0  0  0  0  0
  1  8  2  0  0  0  0
  1  6  1  0  0  0  0
  2  1  1  0  0  0  0
  5  9  1  0  0  0  0
  5 11  1  0  0  0  0
  6 10  2  0  0  0  0
  7  5  2  0  0  0  0
  7  4  1  0  0  0  0
  8  7  1  0  0  0  0
  9 11  1  0  0  0  0
 10  4  1  0  0  0  0
 10 26  1  0  0  0  0
 11  3  1  1  0  0  0
 12 11  1  1  0  0  0
 12 13  1  0  0  0  0
 13 24  1  6  0  0  0
 14 15  1  6  0  0  0
 14 12  1  0  0  0  0
 14 13  1  0  0  0  0
 15 16  1  6  0  0  0
 17 15  1  0  0  0  0
 18 17  1  0  0  0  0
 19 20  1  0  0  0  0
 19 18  1  0  0  0  0
 21 20  1  0  0  0  0
 21 23  1  0  0  0  0
 23 22  2  0  0  0  0
 24 25  1  0  0  0  0
 28 26  1  6  0  0  0
 28 29  1  0  0  0  0
 28 27  1  0  0  0  0
 29 27  1  0  0  0  0
 29 30  1  1  0  0  0
 32 30  1  0  0  0  0
 32 31  1  0  0  0  0
M  END
>  <MODEL>
5

>  <REMARK>
 VINA RESULT:      -4.5      3.354      7.369
  Name = 
  13 active torsions:
  status: ('A' for Active; 'I' for Inactive)
    1  A    between atoms: C_1  and  N_4
    2  A    between atoms: C_1  and  C_30
    3  A    between atoms: C_2  and  C_27
    4  A    between atoms: N_4  and  S_17
    5  A    between atoms: C_5  and  S_14
    6  A    between atoms: C_6  and  S_17
    7  A    between atoms: C_6  and  C_29
    8  A    between atoms: O_7  and  C_26
    9  A    between atoms: O_7  and  C_31
   10  A    between atoms: C_12  and  O_28
   11  A    between atoms: C_18  and  C_25
   12  A    between atoms: C_18  and  C_29
   13  A    between atoms: O_28  and  C_32
                            x       y       z     vdW  Elec       q    Type
                         _______ _______ _______ _____ _____    ______ ____

>  <TORSDO>
F 13

$$$$
=
 OpenBabel11062408343D

 32 35  0  0  1  0  0  0  0  0999 V2000
  162.3250  210.7170  149.0780 C   0  0  0  0  0  0  0  0  0  0  0  0
  162.9000  211.7400  148.2760 N   0  0  0  0  0  1  0  0  0  0  0  0
  159.1210  206.3440  149.1420 O   0  0  0  0  0  1  0  0  0  0  0  0
  161.7990  208.5270  151.1790 S   0  0  0  0  0  0  0  0  0  0  0  0
  161.1680  207.3970  148.8010 C   0  0  0  0  0  0  0  0  0  0  0  0
  161.5770  211.1020  150.2970 C   0  0  0  0  0  3  0  0  0  0  0  0
  161.7330  208.4350  149.3980 C   0  0  0  0  0  0  0  0  0  0  0  0
  162.3160  209.4910  148.6370 N   0  0  0  0  0  0  0  0  0  0  0  0
  160.7880  206.6120  147.5760 O   0  0  0  0  0  0  0  0  0  0  0  0
  161.1740  210.2280  151.2250 C   0  0  0  0  0  0  0  0  0  0  0  0
  160.4800  206.2090  148.8420 C   0  0  2  0  0  0  0  0  0  0  0  0
  161.2640  205.0040  149.3560 C   0  0  1  0  0  3  0  0  0  0  0  0
  160.6480  204.5220  150.6580 C   0  0  1  0  0  3  0  0  0  0  0  0
  160.4160  203.7390  149.3540 C   0  0  2  0  0  3  0  0  0  0  0  0
  161.1990  202.4170  149.1590 C   0  0  1  0  0  3  0  0  0  0  0  0
  160.5410  201.1530  149.7020 C   0  0  0  0  0  1  0  0  0  0  0  0
  161.6160  202.2290  147.7760 N   0  0  0  0  0  2  0  0  0  0  0  0
  160.2920  201.4430  146.9070 S   0  0  0  0  0  0  0  0  0  0  0  0
  160.8530  202.0760  145.2990 C   0  0  0  0  0  2  0  0  0  0  0  0
  160.0410  203.2960  144.9120 C   0  0  0  0  0  2  0  0  0  0  0  0
  160.9230  204.5320  144.9510 C   0  0  0  0  0  2  0  0  0  0  0  0
  163.0970  204.8800  146.0410 C   0  0  0  0  0  2  0  0  0  0  0  0
  162.3430  204.1480  145.2210 C   0  0  0  0  0  3  0  0  0  0  0  0
  161.9860  203.9470  151.7560 S   0  0  0  0  0  0  0  0  0  0  0  0
  161.5250  205.1360  153.0450 C   0  0  0  0  0  1  0  0  0  0  0  0
  160.3180  210.7140  152.2360 O   0  0  0  0  0  0  0  0  0  0  0  0
  158.6520  212.5250  152.1110 C   0  0  0  0  0  2  0  0  0  0  0  0
  159.9970  212.0620  152.6280 C   0  0  1  0  0  3  0  0  0  0  0  0
  158.8210  212.1530  153.5790 C   0  0  1  0  0  3  0  0  0  0  0  0
  158.9320  213.3140  154.3420 O   0  0  0  0  0  0  0  0  0  0  0  0
  157.2350  212.2470  155.6220 C   0  0  0  0  0  1  0  0  0  0  0  0
  158.5910  212.9210  155.6400 C   0  0  0  0  0  2  0  0  0  0  0  0
  1  6  1  0  0  0  0
  2  1  1  0  0  0  0
  4 10  1  0  0  0  0
  5 11  1  0  0  0  0
  5  7  2  0  0  0  0
  6 10  2  0  0  0  0
  7  4  1  0  0  0  0
  8  1  2  0  0  0  0
  8  7  1  0  0  0  0
  9  5  1  0  0  0  0
  9 11  1  0  0  0  0
 10 26  1  0  0  0  0
 11  3  1  1  0  0  0
 12 11  1  6  0  0  0
 12 13  1  0  0  0  0
 13 24  1  1  0  0  0
 14 15  1  1  0  0  0
 14 12  1  0  0  0  0
 14 13  1  0  0  0  0
 15 16  1  6  0  0  0
 17 15  1  0  0  0  0
 18 17  1  0  0  0  0
 19 18  1  0  0  0  0
 20 21  1  0  0  0  0
 20 19  1  0  0  0  0
 21 23  1  0  0  0  0
 23 22  2  0  0  0  0
 24 25  1  0  0  0  0
 27 28  1  0  0  0  0
 27 29  1  0  0  0  0
 28 26  1  6  0  0  0
 28 29  1  0  0  0  0
 29 30  1  1  0  0  0
 30 32  1  0  0  0  0
 31 32  1  0  0  0  0
M  END
>  <MODEL>
6

>  <REMARK>
 VINA RESULT:      -4.2      1.449      1.871
  Name = 
  13 active torsions:
  status: ('A' for Active; 'I' for Inactive)
    1  A    between atoms: C_1  and  N_4
    2  A    between atoms: C_1  and  C_30
    3  A    between atoms: C_2  and  C_27
    4  A    between atoms: N_4  and  S_17
    5  A    between atoms: C_5  and  S_14
    6  A    between atoms: C_6  and  S_17
    7  A    between atoms: C_6  and  C_29
    8  A    between atoms: O_7  and  C_26
    9  A    between atoms: O_7  and  C_31
   10  A    between atoms: C_12  and  O_28
   11  A    between atoms: C_18  and  C_25
   12  A    between atoms: C_18  and  C_29
   13  A    between atoms: O_28  and  C_32
                            x       y       z     vdW  Elec       q    Type
                         _______ _______ _______ _____ _____    ______ ____

>  <TORSDO>
F 13

$$$$
=
 OpenBabel11062408343D

 32 35  0  0  1  0  0  0  0  0999 V2000
  161.7730  206.6420  148.2950 C   0  0  0  0  0  0  0  0  0  0  0  0
  161.9980  206.3980  146.9120 N   0  0  0  0  0  1  0  0  0  0  0  0
  162.7480  209.9550  152.4750 O   0  0  0  0  0  1  0  0  0  0  0  0
  160.5550  206.8850  151.1130 S   0  0  0  0  0  0  0  0  0  0  0  0
  161.5730  209.3340  150.5650 C   0  0  0  0  0  0  0  0  0  0  0  0
  162.0740  205.5660  149.2680 C   0  0  0  0  0  3  0  0  0  0  0  0
  161.2680  208.1450  150.0680 C   0  0  0  0  0  0  0  0  0  0  0  0
  161.4810  207.8490  148.6900 N   0  0  0  0  0  0  0  0  0  0  0  0
  162.0650  210.7480  150.4230 O   0  0  0  0  0  0  0  0  0  0  0  0
  161.7150  205.6100  150.5550 C   0  0  0  0  0  0  0  0  0  0  0  0
  161.6750  210.2130  151.6160 C   0  0  2  0  0  0  0  0  0  0  0  0
  160.3560  210.7400  152.1730 C   0  0  1  0  0  3  0  0  0  0  0  0
  160.5400  211.1150  153.6320 C   0  0  1  0  0  3  0  0  0  0  0  0
  160.4550  212.2110  152.5550 C   0  0  2  0  0  3  0  0  0  0  0  0
  159.1340  213.0140  152.4470 C   0  0  1  0  0  3  0  0  0  0  0  0
  158.7170  213.8010  153.6850 C   0  0  0  0  0  1  0  0  0  0  0  0
  159.1070  213.8610  151.2630 N   0  0  0  0  0  2  0  0  0  0  0  0
  157.7890  213.3060  150.2230 S   0  0  0  0  0  0  0  0  0  0  0  0
  158.7010  213.7070  148.7030 C   0  0  0  0  0  2  0  0  0  0  0  0
  160.1680  213.3680  148.8750 C   0  0  0  0  0  2  0  0  0  0  0  0
  160.6530  212.5710  147.6770 C   0  0  0  0  0  2  0  0  0  0  0  0
  163.1060  212.6540  147.7840 C   0  0  0  0  0  2  0  0  0  0  0  0
  161.9800  213.0840  147.2140 C   0  0  0  0  0  3  0  0  0  0  0  0
  159.0090  210.7050  154.5360 S   0  0  0  0  0  0  0  0  0  0  0  0
  159.8850  209.5440  155.6190 C   0  0  0  0  0  1  0  0  0  0  0  0
  162.2250  204.6000  151.3980 O   0  0  0  0  0  0  0  0  0  0  0  0
  160.3150  203.1570  151.9800 C   0  0  0  0  0  2  0  0  0  0  0  0
  161.7820  203.2480  151.6210 C   0  0  1  0  0  3  0  0  0  0  0  0
  160.7870  202.7590  150.5880 C   0  0  1  0  0  3  0  0  0  0  0  0
  160.8570  201.3690  150.5010 O   0  0  0  0  0  0  0  0  0  0  0  0
  160.7340  202.2860  148.3110 C   0  0  0  0  0  1  0  0  0  0  0  0
  161.1650  201.1110  149.1620 C   0  0  0  0  0  2  0  0  0  0  0  0
  1  8  2  0  0  0  0
  1  6  1  0  0  0  0
  2  1  1  0  0  0  0
  5 11  1  0  0  0  0
  6 10  2  0  0  0  0
  7  5  2  0  0  0  0
  7  4  1  0  0  0  0
  8  7  1  0  0  0  0
  9  5  1  0  0  0  0
  9 11  1  0  0  0  0
 10  4  1  0  0  0  0
 10 26  1  0  0  0  0
 11  3  1  1  0  0  0
 12 11  1  6  0  0  0
 12 14  1  0  0  0  0
 12 13  1  0  0  0  0
 13 24  1  1  0  0  0
 14 15  1  1  0  0  0
 14 13  1  0  0  0  0
 15 16  1  1  0  0  0
 17 15  1  0  0  0  0
 18 17  1  0  0  0  0
 19 20  1  0  0  0  0
 19 18  1  0  0  0  0
 21 20  1  0  0  0  0
 23 21  1  0  0  0  0
 23 22  2  0  0  0  0
 24 25  1  0  0  0  0
 28 26  1  6  0  0  0
 28 27  1  0  0  0  0
 29 30  1  1  0  0  0
 29 28  1  0  0  0  0
 29 27  1  0  0  0  0
 31 32  1  0  0  0  0
 32 30  1  0  0  0  0
M  END
>  <MODEL>
7

>  <REMARK>
 VINA RESULT:      -4.2      2.884      8.048
  Name = 
  13 active torsions:
  status: ('A' for Active; 'I' for Inactive)
    1  A    between atoms: C_1  and  N_4
    2  A    between atoms: C_1  and  C_30
    3  A    between atoms: C_2  and  C_27
    4  A    between atoms: N_4  and  S_17
    5  A    between atoms: C_5  and  S_14
    6  A    between atoms: C_6  and  S_17
    7  A    between atoms: C_6  and  C_29
    8  A    between atoms: O_7  and  C_26
    9  A    between atoms: O_7  and  C_31
   10  A    between atoms: C_12  and  O_28
   11  A    between atoms: C_18  and  C_25
   12  A    between atoms: C_18  and  C_29
   13  A    between atoms: O_28  and  C_32
                            x       y       z     vdW  Elec       q    Type
                         _______ _______ _______ _____ _____    ______ ____

>  <TORSDO>
F 13

$$$$
=
 OpenBabel11062408343D

 32 35  0  0  1  0  0  0  0  0999 V2000
  162.1910  207.8150  149.7440 C   0  0  0  0  0  0  0  0  0  0  0  0
  162.6630  207.9300  148.4070 N   0  0  0  0  0  1  0  0  0  0  0  0
  162.4370  209.8370  154.7680 O   0  0  0  0  0  1  0  0  0  0  0  0
  160.4780  207.3880  152.2670 S   0  0  0  0  0  0  0  0  0  0  0  0
  161.6230  209.8210  152.5880 C   0  0  0  0  0  0  0  0  0  0  0  0
  162.2880  206.5030  150.4240 C   0  0  0  0  0  3  0  0  0  0  0  0
  161.3930  208.8280  151.7430 C   0  0  0  0  0  0  0  0  0  0  0  0
  161.8520  208.8920  150.3940 N   0  0  0  0  0  0  0  0  0  0  0  0
  162.1580  211.1860  152.9230 O   0  0  0  0  0  0  0  0  0  0  0  0
  161.6980  206.2300  151.5930 C   0  0  0  0  0  0  0  0  0  0  0  0
  161.5450  210.3820  153.8400 C   0  0  2  0  0  0  0  0  0  0  0  0
  160.1550  210.8310  154.2820 C   0  0  1  0  0  3  0  0  0  0  0  0
  160.2850  211.7800  155.4600 C   0  0  1  0  0  3  0  0  0  0  0  0
  159.9490  212.3230  154.0600 C   0  0  2  0  0  3  0  0  0  0  0  0
  158.4880  212.7570  153.7870 C   0  0  1  0  0  3  0  0  0  0  0  0
  158.0830  214.1360  154.2980 C   0  0  0  0  0  1  0  0  0  0  0  0
  158.1250  212.6000  152.3850 N   0  0  0  0  0  2  0  0  0  0  0  0
  159.4630  213.2070  151.4010 S   0  0  0  0  0  0  0  0  0  0  0  0
  158.3810  214.3230  150.4600 C   0  0  0  0  0  2  0  0  0  0  0  0
  156.9790  213.7500  150.3920 C   0  0  0  0  0  2  0  0  0  0  0  0
  156.5120  213.7080  148.9480 C   0  0  0  0  0  2  0  0  0  0  0  0
  157.3500  212.5210  146.9670 C   0  0  0  0  0  2  0  0  0  0  0  0
  157.6180  213.2400  148.0570 C   0  0  0  0  0  3  0  0  0  0  0  0
  158.8920  211.4830  156.6010 S   0  0  0  0  0  0  0  0  0  0  0  0
  159.6690  209.9830  157.2600 C   0  0  0  0  0  1  0  0  0  0  0  0
  162.0270  205.0020  152.2050 O   0  0  0  0  0  0  0  0  0  0  0  0
  160.6310  202.9720  152.1720 C   0  0  0  0  0  2  0  0  0  0  0  0
  161.9080  203.6500  151.7250 C   0  0  1  0  0  3  0  0  0  0  0  0
  160.7760  203.4570  150.7350 C   0  0  1  0  0  3  0  0  0  0  0  0
  161.0670  202.3730  149.9070 O   0  0  0  0  0  0  0  0  0  0  0  0
  161.5830  203.4700  147.8620 C   0  0  0  0  0  1  0  0  0  0  0  0
  160.5370  202.7240  148.6620 C   0  0  0  0  0  2  0  0  0  0  0  0
  1  8  2  0  0  0  0
  1  6  1  0  0  0  0
  2  1  1  0  0  0  0
  5  9  1  0  0  0  0
  5 11  1  0  0  0  0
  6 10  2  0  0  0  0
  7  4  1  0  0  0  0
  7  5  2  0  0  0  0
  8  7  1  0  0  0  0
  9 11  1  0  0  0  0
 10 26  1  0  0  0  0
 10  4  1  0  0  0  0
 11  3  1  1  0  0  0
 12 11  1  6  0  0  0
 12 13  1  0  0  0  0
 13 24  1  1  0  0  0
 14 15  1  1  0  0  0
 14 12  1  0  0  0  0
 14 13  1  0  0  0  0
 15 16  1  6  0  0  0
 17 15  1  0  0  0  0
 18 17  1  0  0  0  0
 19 18  1  0  0  0  0
 20 19  1  0  0  0  0
 21 20  1  0  0  0  0
 22 23  2  0  0  0  0
 23 21  1  0  0  0  0
 24 25  1  0  0  0  0
 28 27  1  0  0  0  0
 28 26  1  1  0  0  0
 29 30  1  6  0  0  0
 29 28  1  0  0  0  0
 29 27  1  0  0  0  0
 31 32  1  0  0  0  0
 32 30  1  0  0  0  0
M  END
>  <MODEL>
8

>  <REMARK>
 VINA RESULT:      -4.1      3.416      8.532
  Name = 
  13 active torsions:
  status: ('A' for Active; 'I' for Inactive)
    1  A    between atoms: C_1  and  N_4
    2  A    between atoms: C_1  and  C_30
    3  A    between atoms: C_2  and  C_27
    4  A    between atoms: N_4  and  S_17
    5  A    between atoms: C_5  and  S_14
    6  A    between atoms: C_6  and  S_17
    7  A    between atoms: C_6  and  C_29
    8  A    between atoms: O_7  and  C_26
    9  A    between atoms: O_7  and  C_31
   10  A    between atoms: C_12  and  O_28
   11  A    between atoms: C_18  and  C_25
   12  A    between atoms: C_18  and  C_29
   13  A    between atoms: O_28  and  C_32
                            x       y       z     vdW  Elec       q    Type
                         _______ _______ _______ _____ _____    ______ ____

>  <TORSDO>
F 13

$$$$
=
 OpenBabel11062408343D

 32 35  0  0  1  0  0  0  0  0999 V2000
  161.5700  207.8020  149.9320 C   0  0  0  0  0  0  0  0  0  0  0  0
  161.5150  206.4540  149.4810 N   0  0  0  0  0  1  0  0  0  0  0  0
  158.8950  211.8020  152.4280 O   0  0  0  0  0  1  0  0  0  0  0  0
  162.4500  210.5200  151.0830 S   0  0  0  0  0  0  0  0  0  0  0  0
  160.1940  209.8720  152.4330 C   0  0  0  0  0  0  0  0  0  0  0  0
  161.9600  208.8600  148.9710 C   0  0  0  0  0  3  0  0  0  0  0  0
  161.1280  209.4380  151.6010 C   0  0  0  0  0  0  0  0  0  0  0  0
  161.1120  208.0970  151.1150 N   0  0  0  0  0  0  0  0  0  0  0  0
  158.9710  209.6660  153.2830 O   0  0  0  0  0  0  0  0  0  0  0  0
  162.2400  210.1170  149.3280 C   0  0  0  0  0  0  0  0  0  0  0  0
  159.6100  210.8660  153.1800 C   0  0  2  0  0  0  0  0  0  0  0  0
  160.3840  211.3070  154.4200 C   0  0  1  0  0  3  0  0  0  0  0  0
  159.4040  211.6680  155.5220 C   0  0  1  0  0  3  0  0  0  0  0  0
  160.1830  210.3420  155.5800 C   0  0  2  0  0  3  0  0  0  0  0  0
  161.3660  210.2450  156.5750 C   0  0  1  0  0  3  0  0  0  0  0  0
  161.5870  208.8890  157.2360 C   0  0  0  0  0  1  0  0  0  0  0  0
  162.6060  210.7460  155.9970 N   0  0  0  0  0  2  0  0  0  0  0  0
  163.8430  210.7340  157.2610 S   0  0  0  0  0  0  0  0  0  0  0  0
  164.7840  212.0760  156.4770 C   0  0  0  0  0  2  0  0  0  0  0  0
  166.1620  212.1760  157.1020 C   0  0  0  0  0  2  0  0  0  0  0  0
  166.8780  213.4050  156.5690 C   0  0  0  0  0  2  0  0  0  0  0  0
  168.8210  211.9190  156.3450 C   0  0  0  0  0  2  0  0  0  0  0  0
  168.1800  213.0170  155.9450 C   0  0  0  0  0  3  0  0  0  0  0  0
  160.0780  213.0800  156.4600 S   0  0  0  0  0  0  0  0  0  0  0  0
  158.9870  214.2500  155.6070 C   0  0  0  0  0  1  0  0  0  0  0  0
  162.4190  211.0550  148.2890 O   0  0  0  0  0  0  0  0  0  0  0  0
  162.0920  212.8990  146.6880 C   0  0  0  0  0  2  0  0  0  0  0  0
  161.8030  212.3370  148.0630 C   0  0  1  0  0  3  0  0  0  0  0  0
  160.7220  212.3100  147.0010 C   0  0  1  0  0  3  0  0  0  0  0  0
  159.8160  213.3430  147.2370 O   0  0  0  0  0  0  0  0  0  0  0  0
  157.5960  213.4940  146.3970 C   0  0  0  0  0  1  0  0  0  0  0  0
  158.5650  212.7190  147.2650 C   0  0  0  0  0  2  0  0  0  0  0  0
  1  8  2  0  0  0  0
  2  1  1  0  0  0  0
  4  7  1  0  0  0  0
  5 11  1  0  0  0  0
  5  9  1  0  0  0  0
  6 10  2  0  0  0  0
  6  1  1  0  0  0  0
  7  5  2  0  0  0  0
  8  7  1  0  0  0  0
 10  4  1  0  0  0  0
 11  3  1  6  0  0  0
 11  9  1  0  0  0  0
 12 11  1  6  0  0  0
 12 13  1  0  0  0  0
 12 14  1  0  0  0  0
 13 14  1  0  0  0  0
 13 24  1  1  0  0  0
 14 15  1  1  0  0  0
 15 16  1  6  0  0  0
 17 15  1  0  0  0  0
 17 18  1  0  0  0  0
 19 20  1  0  0  0  0
 19 18  1  0  0  0  0
 21 20  1  0  0  0  0
 23 22  2  0  0  0  0
 23 21  1  0  0  0  0
 25 24  1  0  0  0  0
 26 10  1  0  0  0  0
 27 29  1  0  0  0  0
 27 28  1  0  0  0  0
 28 26  1  6  0  0  0
 29 30  1  1  0  0  0
 29 28  1  0  0  0  0
 30 32  1  0  0  0  0
 31 32  1  0  0  0  0
M  END
>  <MODEL>
9

>  <REMARK>
 VINA RESULT:      -3.5      4.405      9.547
  Name = 
  13 active torsions:
  status: ('A' for Active; 'I' for Inactive)
    1  A    between atoms: C_1  and  N_4
    2  A    between atoms: C_1  and  C_30
    3  A    between atoms: C_2  and  C_27
    4  A    between atoms: N_4  and  S_17
    5  A    between atoms: C_5  and  S_14
    6  A    between atoms: C_6  and  S_17
    7  A    between atoms: C_6  and  C_29
    8  A    between atoms: O_7  and  C_26
    9  A    between atoms: O_7  and  C_31
   10  A    between atoms: C_12  and  O_28
   11  A    between atoms: C_18  and  C_25
   12  A    between atoms: C_18  and  C_29
   13  A    between atoms: O_28  and  C_32
                            x       y       z     vdW  Elec       q    Type
                         _______ _______ _______ _____ _____    ______ ____

>  <TORSDO>
F 13

$$$$
