=
 OpenBabel11062409433D

 34 39  0  0  1  0  0  0  0  0999 V2000
  159.4610  210.9520  153.8450 C   0  0  2  0  0  3  0  0  0  0  0  0
  158.8250  213.3330  156.9050 C   0  0  0  0  0  2  0  0  0  0  0  0
  159.0280  213.7290  154.4960 O   0  0  0  0  0  0  0  0  0  0  0  0
  160.5330  210.3150  151.3170 C   0  0  0  0  0  2  0  0  0  0  0  0
  160.7480  210.1420  153.9290 C   0  0  0  0  0  2  0  0  0  0  0  0
  160.1510  211.7400  151.5910 C   0  0  0  0  0  0  0  0  0  0  0  0
  159.9250  214.0570  150.9170 C   0  0  0  0  0  3  0  0  0  0  0  0
  160.2690  212.7300  150.6150 C   0  0  0  0  0  3  0  0  0  0  0  0
  161.2360  209.6660  152.5360 C   0  0  1  0  0  3  0  0  0  0  0  0
  159.3730  213.3990  153.1830 C   0  0  0  0  0  0  0  0  0  0  0  0
  159.6390  212.0660  152.8520 C   0  0  0  0  0  0  0  0  0  0  0  0
  159.4890  214.3910  152.2040 C   0  0  0  0  0  3  0  0  0  0  0  0
  157.3280  213.6240  156.8530 C   0  0  0  0  0  2  0  0  0  0  0  0
  156.4640  212.4240  157.2450 C   0  0  2  0  0  3  0  0  0  0  0  0
  156.9290  211.0820  156.6650 C   0  0  0  0  0  2  0  0  0  0  0  0
  159.3450  212.8290  155.5580 C   0  0  2  0  0  3  0  0  0  0  0  0
  157.4160  211.1850  155.2280 C   0  0  0  0  0  2  0  0  0  0  0  0
  158.9270  211.3840  155.2180 C   0  0  1  0  0  3  0  0  0  0  0  0
  161.2170  205.9720  153.5110 C   0  0  0  0  0  3  0  0  0  0  0  0
  161.1220  207.5710  151.1720 C   0  0  0  0  0  3  0  0  0  0  0  0
  161.0200  203.9420  150.4350 N   0  0  0  0  0  0  0  0  0  0  0  0
  160.9710  202.7710  149.6110 C   0  0  0  0  0  0  0  0  0  0  0  0
  161.1220  203.9350  151.8980 C   0  0  0  0  0  2  0  0  0  0  0  0
  160.7790  202.8720  148.3700 O   0  0  0  0  0  0  0  0  0  0  0  0
  161.1400  205.3950  152.2450 C   0  0  0  0  0  0  0  0  0  0  0  0
  161.1180  201.4180  150.2120 C   0  0  0  0  0  1  0  0  0  0  0  0
  161.0320  205.2940  149.9820 C   0  0  0  0  0  0  0  0  0  0  0  0
  161.0960  206.1790  151.1140 C   0  0  0  0  0  0  0  0  0  0  0  0
  161.0190  205.6450  148.7730 O   0  0  0  0  0  0  0  0  0  0  0  0
  161.2020  208.1750  152.4400 C   0  0  0  0  0  0  0  0  0  0  0  0
  161.2440  207.3730  153.6030 C   0  0  0  0  0  3  0  0  0  0  0  0
  155.0160  212.7110  156.8700 C   0  0  0  0  0  2  0  0  0  0  0  0
  154.7970  214.4490  156.3800 S   0  0  0  0  0  0  0  0  0  0  0  0
  153.0640  214.4530  156.9160 C   0  0  0  0  0  1  0  0  0  0  0  0
  1  5  1  1  0  0  0
  1 18  1  0  0  0  0
  3 16  1  0  0  0  0
  4  6  1  0  0  0  0
  4  9  1  0  0  0  0
  6 11  1  0  0  0  0
  7 12  2  0  0  0  0
  8  7  1  0  0  0  0
  8  6  2  0  0  0  0
  9 30  1  1  0  0  0
  9  5  1  0  0  0  0
 10  3  1  0  0  0  0
 11 10  2  0  0  0  0
 11  1  1  0  0  0  0
 12 10  1  0  0  0  0
 13  2  1  0  0  0  0
 13 14  1  0  0  0  0
 14 32  1  6  0  0  0
 15 14  1  0  0  0  0
 16  2  1  1  0  0  0
 17 15  1  0  0  0  0
 18 17  1  6  0  0  0
 18 16  1  0  0  0  0
 19 31  1  0  0  0  0
 20 30  1  0  0  0  0
 21 23  1  0  0  0  0
 22 26  1  0  0  0  0
 22 21  1  0  0  0  0
 23 25  1  0  0  0  0
 24 22  2  0  0  0  0
 25 19  2  0  0  0  0
 27 21  1  0  0  0  0
 27 28  1  0  0  0  0
 28 20  2  0  0  0  0
 28 25  1  0  0  0  0
 29 27  2  0  0  0  0
 30 31  2  0  0  0  0
 33 32  1  0  0  0  0
 33 34  1  0  0  0  0
M  END
>  <MODEL>
1

>  <REMARK>
 VINA RESULT:      -7.3      0.000      0.000
  Name = 
  3 active torsions:
  status: ('A' for Active; 'I' for Inactive)
    1  A    between atoms: C_3  and  S_13
    2  A    between atoms: C_3  and  C_25
    3  A    between atoms: C_18  and  C_30
                            x       y       z     vdW  Elec       q    Type
                         _______ _______ _______ _____ _____    ______ ____

>  <TORSDO>
F 3

$$$$
=
 OpenBabel11062409433D

 34 39  0  0  1  0  0  0  0  0999 V2000
  161.3830  205.8470  149.5120 C   0  0  2  0  0  3  0  0  0  0  0  0
  163.0650  204.6060  146.1850 C   0  0  0  0  0  2  0  0  0  0  0  0
  161.9840  203.4360  148.0470 O   0  0  0  0  0  0  0  0  0  0  0  0
  160.7170  205.6300  152.2420 C   0  0  0  0  0  2  0  0  0  0  0  0
  162.2940  206.6660  150.4160 C   0  0  0  0  0  2  0  0  0  0  0  0
  160.8630  204.3690  151.4410 C   0  0  0  0  0  0  0  0  0  0  0  0
  160.8030  201.9550  151.2300 C   0  0  0  0  0  3  0  0  0  0  0  0
  160.6310  203.1140  152.0040 C   0  0  0  0  0  3  0  0  0  0  0  0
  161.8180  206.6620  151.8920 C   0  0  1  0  0  3  0  0  0  0  0  0
  161.4670  203.3180  149.3390 C   0  0  0  0  0  0  0  0  0  0  0  0
  161.2160  204.4700  150.0910 C   0  0  0  0  0  0  0  0  0  0  0  0
  161.2320  202.0590  149.9020 C   0  0  0  0  0  3  0  0  0  0  0  0
  161.8910  204.2830  145.2650 C   0  0  0  0  0  2  0  0  0  0  0  0
  161.1550  205.5250  144.7630 C   0  0  2  0  0  3  0  0  0  0  0  0
  160.9240  206.6080  145.8250 C   0  0  0  0  0  2  0  0  0  0  0  0
  162.6330  204.6440  147.6520 C   0  0  2  0  0  3  0  0  0  0  0  0
  160.5460  206.0430  147.1860 C   0  0  0  0  0  2  0  0  0  0  0  0
  161.8010  205.8850  148.0360 C   0  0  1  0  0  3  0  0  0  0  0  0
  161.1720  210.4280  151.8640 C   0  0  0  0  0  3  0  0  0  0  0  0
  160.9140  208.2230  153.6260 C   0  0  0  0  0  3  0  0  0  0  0  0
  159.8100  211.4150  155.1490 N   0  0  0  0  0  0  0  0  0  0  0  0
  159.3050  212.2720  156.1800 C   0  0  0  0  0  0  0  0  0  0  0  0
  160.2420  211.8640  153.8210 C   0  0  0  0  0  2  0  0  0  0  0  0
  158.8610  211.7850  157.2520 O   0  0  0  0  0  0  0  0  0  0  0  0
  160.6750  210.5900  153.1550 C   0  0  0  0  0  0  0  0  0  0  0  0
  159.2700  213.7460  155.9860 C   0  0  0  0  0  1  0  0  0  0  0  0
  160.0300  210.0100  155.2500 C   0  0  0  0  0  0  0  0  0  0  0  0
  160.5550  209.5150  154.0050 C   0  0  0  0  0  0  0  0  0  0  0  0
  159.8200  209.3240  156.2850 O   0  0  0  0  0  0  0  0  0  0  0  0
  161.4200  208.0360  152.3280 C   0  0  0  0  0  0  0  0  0  0  0  0
  161.5420  209.1370  151.4510 C   0  0  0  0  0  3  0  0  0  0  0  0
  159.8420  205.0990  144.1200 C   0  0  0  0  0  2  0  0  0  0  0  0
  159.4940  203.3430  144.4430 S   0  0  0  0  0  0  0  0  0  0  0  0
  157.7200  203.5670  144.1330 C   0  0  0  0  0  1  0  0  0  0  0  0
  1 11  1  0  0  0  0
  1  5  1  1  0  0  0
  3 10  1  0  0  0  0
  5  9  1  0  0  0  0
  6  8  1  0  0  0  0
  6  4  1  0  0  0  0
  7  8  2  0  0  0  0
  9  4  1  0  0  0  0
  9 30  1  6  0  0  0
 10 12  2  0  0  0  0
 10 11  1  0  0  0  0
 11  6  2  0  0  0  0
 12  7  1  0  0  0  0
 13  2  1  0  0  0  0
 14 32  1  1  0  0  0
 14 13  1  0  0  0  0
 14 15  1  0  0  0  0
 15 17  1  0  0  0  0
 16  2  1  6  0  0  0
 16 18  1  0  0  0  0
 16  3  1  0  0  0  0
 18 17  1  6  0  0  0
 18  1  1  0  0  0  0
 19 25  1  0  0  0  0
 20 28  1  0  0  0  0
 21 27  1  0  0  0  0
 21 22  1  0  0  0  0
 22 24  2  0  0  0  0
 23 21  1  0  0  0  0
 25 23  1  0  0  0  0
 25 28  2  0  0  0  0
 26 22  1  0  0  0  0
 27 29  2  0  0  0  0
 28 27  1  0  0  0  0
 30 20  2  0  0  0  0
 31 19  2  0  0  0  0
 31 30  1  0  0  0  0
 32 33  1  0  0  0  0
 34 33  1  0  0  0  0
M  END
>  <MODEL>
2

>  <REMARK>
 VINA RESULT:      -6.6      4.232     10.499
  Name = 
  3 active torsions:
  status: ('A' for Active; 'I' for Inactive)
    1  A    between atoms: C_3  and  S_13
    2  A    between atoms: C_3  and  C_25
    3  A    between atoms: C_18  and  C_30
                            x       y       z     vdW  Elec       q    Type
                         _______ _______ _______ _____ _____    ______ ____

>  <TORSDO>
F 3

$$$$
=
 OpenBabel11062409433D

 34 39  0  0  1  0  0  0  0  0999 V2000
  161.2710  205.1430  149.7640 C   0  0  2  0  0  3  0  0  0  0  0  0
  163.0190  204.7020  146.2730 C   0  0  0  0  0  2  0  0  0  0  0  0
  161.9730  203.1230  147.8270 O   0  0  0  0  0  0  0  0  0  0  0  0
  160.5970  204.3240  152.3760 C   0  0  0  0  0  2  0  0  0  0  0  0
  162.1440  205.7830  150.8340 C   0  0  0  0  0  2  0  0  0  0  0  0
  160.7970  203.2700  151.3270 C   0  0  0  0  0  0  0  0  0  0  0  0
  160.8310  200.9560  150.6060 C   0  0  0  0  0  3  0  0  0  0  0  0
  160.6100  201.9160  151.6050 C   0  0  0  0  0  3  0  0  0  0  0  0
  161.6600  205.4470  152.2680 C   0  0  1  0  0  3  0  0  0  0  0  0
  161.4540  202.7130  149.0570 C   0  0  0  0  0  0  0  0  0  0  0  0
  161.1530  203.6690  150.0340 C   0  0  0  0  0  0  0  0  0  0  0  0
  161.2640  201.3560  149.3360 C   0  0  0  0  0  3  0  0  0  0  0  0
  161.8640  204.5400  145.2890 C   0  0  0  0  0  2  0  0  0  0  0  0
  161.0840  205.8330  145.0520 C   0  0  2  0  0  3  0  0  0  0  0  0
  160.8050  206.6560  146.3170 C   0  0  0  0  0  2  0  0  0  0  0  0
  162.5780  204.4110  147.7080 C   0  0  2  0  0  3  0  0  0  0  0  0
  160.4400  205.8000  147.5210 C   0  0  0  0  0  2  0  0  0  0  0  0
  161.6960  205.5100  148.3350 C   0  0  1  0  0  3  0  0  0  0  0  0
  160.4560  207.8030  155.0250 C   0  0  0  0  0  3  0  0  0  0  0  0
  161.1050  207.8870  152.2680 C   0  0  0  0  0  3  0  0  0  0  0  0
  160.0280  211.1760  153.5900 N   0  0  0  0  0  0  0  0  0  0  0  0
  159.7040  212.5700  153.5360 C   0  0  0  0  0  0  0  0  0  0  0  0
  159.9060  210.3320  154.7840 C   0  0  0  0  0  2  0  0  0  0  0  0
  159.9390  213.2390  152.4950 O   0  0  0  0  0  0  0  0  0  0  0  0
  160.3600  208.9860  154.2970 C   0  0  0  0  0  0  0  0  0  0  0  0
  159.1150  213.2550  154.7170 C   0  0  0  0  0  1  0  0  0  0  0  0
  160.4650  210.3660  152.5010 C   0  0  0  0  0  0  0  0  0  0  0  0
  160.6760  209.0190  152.9580 C   0  0  0  0  0  0  0  0  0  0  0  0
  160.6120  210.7740  151.3190 O   0  0  0  0  0  0  0  0  0  0  0  0
  161.2060  206.6800  152.9810 C   0  0  0  0  0  0  0  0  0  0  0  0
  160.8870  206.6440  154.3580 C   0  0  0  0  0  3  0  0  0  0  0  0
  159.7920  205.5070  144.3150 C   0  0  0  0  0  2  0  0  0  0  0  0
  159.4850  203.7140  144.2930 S   0  0  0  0  0  0  0  0  0  0  0  0
  157.6940  203.9530  144.1340 C   0  0  0  0  0  1  0  0  0  0  0  0
  1 11  1  0  0  0  0
  1  5  1  1  0  0  0
  3 10  1  0  0  0  0
  5  9  1  0  0  0  0
  6  8  1  0  0  0  0
  6  4  1  0  0  0  0
  7  8  2  0  0  0  0
  9  4  1  0  0  0  0
  9 30  1  6  0  0  0
 10 12  2  0  0  0  0
 10 11  1  0  0  0  0
 11  6  2  0  0  0  0
 12  7  1  0  0  0  0
 13  2  1  0  0  0  0
 14 32  1  1  0  0  0
 14 13  1  0  0  0  0
 14 15  1  0  0  0  0
 15 17  1  0  0  0  0
 16  2  1  6  0  0  0
 16  3  1  0  0  0  0
 16 18  1  0  0  0  0
 18 17  1  6  0  0  0
 18  1  1  0  0  0  0
 20 28  2  0  0  0  0
 20 30  1  0  0  0  0
 21 23  1  0  0  0  0
 22 21  1  0  0  0  0
 22 26  1  0  0  0  0
 24 22  2  0  0  0  0
 25 23  1  0  0  0  0
 25 19  2  0  0  0  0
 27 28  1  0  0  0  0
 27 21  1  0  0  0  0
 28 25  1  0  0  0  0
 29 27  2  0  0  0  0
 30 31  2  0  0  0  0
 31 19  1  0  0  0  0
 33 32  1  0  0  0  0
 34 33  1  0  0  0  0
M  END
>  <MODEL>
3

>  <REMARK>
 VINA RESULT:      -6.1      4.093     10.327
  Name = 
  3 active torsions:
  status: ('A' for Active; 'I' for Inactive)
    1  A    between atoms: C_3  and  S_13
    2  A    between atoms: C_3  and  C_25
    3  A    between atoms: C_18  and  C_30
                            x       y       z     vdW  Elec       q    Type
                         _______ _______ _______ _____ _____    ______ ____

>  <TORSDO>
F 3

$$$$
=
 OpenBabel11062409433D

 34 39  0  0  1  0  0  0  0  0999 V2000
  159.7420  209.7730  154.5980 C   0  0  2  0  0  3  0  0  0  0  0  0
  156.7600  211.8410  156.1070 C   0  0  0  0  0  2  0  0  0  0  0  0
  159.1800  211.8750  156.4920 O   0  0  0  0  0  0  0  0  0  0  0  0
  162.2430  208.4800  154.7280 C   0  0  0  0  0  2  0  0  0  0  0  0
  159.6250  208.2660  154.7830 C   0  0  0  0  0  2  0  0  0  0  0  0
  162.0150  209.6810  155.5980 C   0  0  0  0  0  0  0  0  0  0  0  0
  162.7620  211.3010  157.2390 C   0  0  0  0  0  3  0  0  0  0  0  0
  163.0200  210.1910  156.4200 C   0  0  0  0  0  3  0  0  0  0  0  0
  161.0000  207.5540  154.6930 C   0  0  1  0  0  3  0  0  0  0  0  0
  160.4800  211.3690  156.4270 C   0  0  0  0  0  0  0  0  0  0  0  0
  160.7680  210.3140  155.5540 C   0  0  0  0  0  0  0  0  0  0  0  0
  161.4880  211.8810  157.2490 C   0  0  0  0  0  3  0  0  0  0  0  0
  156.8290  213.1850  155.3870 C   0  0  0  0  0  2  0  0  0  0  0  0
  156.4050  213.1070  153.9200 C   0  0  2  0  0  3  0  0  0  0  0  0
  156.9400  211.8870  153.1590 C   0  0  0  0  0  2  0  0  0  0  0  0
  158.0880  211.0880  156.0160 C   0  0  2  0  0  3  0  0  0  0  0  0
  158.3780  211.5400  153.5170 C   0  0  0  0  0  2  0  0  0  0  0  0
  158.3860  210.4930  154.6240 C   0  0  1  0  0  3  0  0  0  0  0  0
  160.9520  204.3820  152.5650 C   0  0  0  0  0  3  0  0  0  0  0  0
  161.2460  207.1810  152.2310 C   0  0  0  0  0  3  0  0  0  0  0  0
  161.4470  205.3250  149.0310 N   0  0  0  0  0  0  0  0  0  0  0  0
  161.6110  205.1600  147.6170 C   0  0  0  0  0  0  0  0  0  0  0  0
  161.2620  204.2290  149.9880 C   0  0  0  0  0  2  0  0  0  0  0  0
  161.6600  206.1650  146.8600 O   0  0  0  0  0  0  0  0  0  0  0  0
  161.1490  204.9420  151.3040 C   0  0  0  0  0  0  0  0  0  0  0  0
  161.6960  203.8000  147.0210 C   0  0  0  0  0  1  0  0  0  0  0  0
  161.4890  206.5560  149.7490 C   0  0  0  0  0  0  0  0  0  0  0  0
  161.2920  206.3020  151.1510 C   0  0  0  0  0  0  0  0  0  0  0  0
  161.6950  207.6830  149.2270 O   0  0  0  0  0  0  0  0  0  0  0  0
  161.0510  206.6380  153.5130 C   0  0  0  0  0  0  0  0  0  0  0  0
  160.9000  205.2420  153.6740 C   0  0  0  0  0  3  0  0  0  0  0  0
  156.7970  214.4030  153.2210 C   0  0  0  0  0  2  0  0  0  0  0  0
  157.3290  214.0890  151.5100 S   0  0  0  0  0  0  0  0  0  0  0  0
  159.0620  214.4460  151.9120 C   0  0  0  0  0  1  0  0  0  0  0  0
  1 18  1  0  0  0  0
  1  5  1  1  0  0  0
  1 11  1  0  0  0  0
  4  6  1  0  0  0  0
  6  8  1  0  0  0  0
  7 12  1  0  0  0  0
  8  7  2  0  0  0  0
  9 30  1  6  0  0  0
  9  4  1  0  0  0  0
  9  5  1  0  0  0  0
 10  3  1  0  0  0  0
 10 12  2  0  0  0  0
 11  6  2  0  0  0  0
 11 10  1  0  0  0  0
 13  2  1  0  0  0  0
 14 32  1  6  0  0  0
 14 13  1  0  0  0  0
 15 17  1  0  0  0  0
 15 14  1  0  0  0  0
 16  2  1  6  0  0  0
 16  3  1  0  0  0  0
 18 17  1  6  0  0  0
 18 16  1  0  0  0  0
 19 31  1  0  0  0  0
 20 30  1  0  0  0  0
 21 27  1  0  0  0  0
 21 23  1  0  0  0  0
 22 21  1  0  0  0  0
 23 25  1  0  0  0  0
 24 22  2  0  0  0  0
 25 19  2  0  0  0  0
 26 22  1  0  0  0  0
 27 28  1  0  0  0  0
 28 25  1  0  0  0  0
 28 20  2  0  0  0  0
 29 27  2  0  0  0  0
 30 31  2  0  0  0  0
 33 34  1  0  0  0  0
 33 32  1  0  0  0  0
M  END
>  <MODEL>
4

>  <REMARK>
 VINA RESULT:      -5.9      2.157      3.663
  Name = 
  3 active torsions:
  status: ('A' for Active; 'I' for Inactive)
    1  A    between atoms: C_3  and  S_13
    2  A    between atoms: C_3  and  C_25
    3  A    between atoms: C_18  and  C_30
                            x       y       z     vdW  Elec       q    Type
                         _______ _______ _______ _____ _____    ______ ____

>  <TORSDO>
F 3

$$$$
=
 OpenBabel11062409433D

 34 39  0  0  1  0  0  0  0  0999 V2000
  160.1520  210.7410  152.0130 C   0  0  2  0  0  3  0  0  0  0  0  0
  159.6640  212.4110  155.5360 C   0  0  0  0  0  2  0  0  0  0  0  0
  159.8340  213.3190  153.2670 O   0  0  0  0  0  0  0  0  0  0  0  0
  161.1490  210.6400  149.3790 C   0  0  0  0  0  2  0  0  0  0  0  0
  161.4090  209.8910  151.8830 C   0  0  0  0  0  2  0  0  0  0  0  0
  160.8250  211.9810  149.9680 C   0  0  0  0  0  0  0  0  0  0  0  0
  160.6720  214.3960  149.8230 C   0  0  0  0  0  3  0  0  0  0  0  0
  160.9600  213.1570  149.2290 C   0  0  0  0  0  3  0  0  0  0  0  0
  161.8520  209.7170  150.4070 C   0  0  1  0  0  3  0  0  0  0  0  0
  160.1410  213.2750  151.9050 C   0  0  0  0  0  0  0  0  0  0  0  0
  160.3510  212.0390  151.2830 C   0  0  0  0  0  0  0  0  0  0  0  0
  160.2730  214.4530  151.1630 C   0  0  0  0  0  3  0  0  0  0  0  0
  158.1780  212.7530  155.5900 C   0  0  0  0  0  2  0  0  0  0  0  0
  157.2790  211.5250  155.7340 C   0  0  2  0  0  3  0  0  0  0  0  0
  157.6820  210.3280  154.8620 C   0  0  0  0  0  2  0  0  0  0  0  0
  160.1380  212.1980  154.0970 C   0  0  2  0  0  3  0  0  0  0  0  0
  158.1440  210.7290  153.4690 C   0  0  0  0  0  2  0  0  0  0  0  0
  159.6610  210.8770  153.4610 C   0  0  1  0  0  3  0  0  0  0  0  0
  161.8220  206.5720  148.2370 C   0  0  0  0  0  3  0  0  0  0  0  0
  161.5270  207.2990  150.9610 C   0  0  0  0  0  3  0  0  0  0  0  0
  161.2180  203.6490  150.4080 N   0  0  0  0  0  0  0  0  0  0  0  0
  161.0090  202.2790  150.7720 C   0  0  0  0  0  0  0  0  0  0  0  0
  161.4300  204.1300  149.0380 C   0  0  0  0  0  2  0  0  0  0  0  0
  160.9390  201.9450  151.9840 O   0  0  0  0  0  0  0  0  0  0  0  0
  161.5870  205.6120  149.2190 C   0  0  0  0  0  0  0  0  0  0  0  0
  160.9000  201.2280  149.7250 C   0  0  0  0  0  1  0  0  0  0  0  0
  161.2030  204.7690  151.2890 C   0  0  0  0  0  0  0  0  0  0  0  0
  161.4430  205.9730  150.5390 C   0  0  0  0  0  0  0  0  0  0  0  0
  160.9830  204.7040  152.5270 O   0  0  0  0  0  0  0  0  0  0  0  0
  161.7610  208.2850  149.9870 C   0  0  0  0  0  0  0  0  0  0  0  0
  161.9130  207.9180  148.6310 C   0  0  0  0  0  3  0  0  0  0  0  0
  155.8350  211.9320  155.4700 C   0  0  0  0  0  2  0  0  0  0  0  0
  155.6920  213.7320  155.2500 S   0  0  0  0  0  0  0  0  0  0  0  0
  155.2060  213.5490  153.5110 C   0  0  0  0  0  1  0  0  0  0  0  0
  1  5  1  1  0  0  0
  1 18  1  0  0  0  0
  2 13  1  0  0  0  0
  3 16  1  0  0  0  0
  4  6  1  0  0  0  0
  4  9  1  0  0  0  0
  6 11  1  0  0  0  0
  7 12  2  0  0  0  0
  8  7  1  0  0  0  0
  8  6  2  0  0  0  0
  9 30  1  6  0  0  0
  9  5  1  0  0  0  0
 10  3  1  0  0  0  0
 11 10  2  0  0  0  0
 11  1  1  0  0  0  0
 12 10  1  0  0  0  0
 13 14  1  0  0  0  0
 14 32  1  6  0  0  0
 15 14  1  0  0  0  0
 16  2  1  1  0  0  0
 17 15  1  0  0  0  0
 18 17  1  6  0  0  0
 18 16  1  0  0  0  0
 19 31  2  0  0  0  0
 19 25  1  0  0  0  0
 21 22  1  0  0  0  0
 21 27  1  0  0  0  0
 22 24  2  0  0  0  0
 23 25  1  0  0  0  0
 23 21  1  0  0  0  0
 25 28  2  0  0  0  0
 26 22  1  0  0  0  0
 27 29  2  0  0  0  0
 28 20  1  0  0  0  0
 28 27  1  0  0  0  0
 30 20  2  0  0  0  0
 31 30  1  0  0  0  0
 33 32  1  0  0  0  0
 34 33  1  0  0  0  0
M  END
>  <MODEL>
5

>  <REMARK>
 VINA RESULT:      -5.0      1.710      2.393
  Name = 
  3 active torsions:
  status: ('A' for Active; 'I' for Inactive)
    1  A    between atoms: C_3  and  S_13
    2  A    between atoms: C_3  and  C_25
    3  A    between atoms: C_18  and  C_30
                            x       y       z     vdW  Elec       q    Type
                         _______ _______ _______ _____ _____    ______ ____

>  <TORSDO>
F 3

$$$$
=
 OpenBabel11062409433D

 34 39  0  0  1  0  0  0  0  0999 V2000
  161.2220  210.6680  150.4040 C   0  0  2  0  0  3  0  0  0  0  0  0
  163.5000  212.5650  147.8250 C   0  0  0  0  0  2  0  0  0  0  0  0
  162.8470  210.2160  148.0630 O   0  0  0  0  0  0  0  0  0  0  0  0
  160.5000  208.4510  151.9880 C   0  0  0  0  0  2  0  0  0  0  0  0
  161.6580  210.8050  151.8560 C   0  0  0  0  0  2  0  0  0  0  0  0
  161.1990  208.1990  150.6840 C   0  0  0  0  0  0  0  0  0  0  0  0
  162.1280  206.7090  149.0140 C   0  0  0  0  0  3  0  0  0  0  0  0
  161.4490  206.9050  150.2260 C   0  0  0  0  0  3  0  0  0  0  0  0
  161.1170  209.6550  152.7440 C   0  0  1  0  0  3  0  0  0  0  0  0
  162.3270  209.1080  148.7370 C   0  0  0  0  0  0  0  0  0  0  0  0
  161.5790  209.2970  149.9050 C   0  0  0  0  0  0  0  0  0  0  0  0
  162.5760  207.8110  148.2770 C   0  0  0  0  0  3  0  0  0  0  0  0
  162.6260  212.7100  146.5830 C   0  0  0  0  0  2  0  0  0  0  0  0
  161.4930  213.7220  146.7550 C   0  0  2  0  0  3  0  0  0  0  0  0
  160.7690  213.6520  148.1060 C   0  0  0  0  0  2  0  0  0  0  0  0
  162.9830  211.4610  148.7490 C   0  0  2  0  0  3  0  0  0  0  0  0
  160.5500  212.2280  148.5970 C   0  0  0  0  0  2  0  0  0  0  0  0
  161.6970  211.8280  149.5170 C   0  0  1  0  0  3  0  0  0  0  0  0
  159.3510  210.2270  156.0840 C   0  0  0  0  0  3  0  0  0  0  0  0
  159.1990  211.1230  153.4000 C   0  0  0  0  0  3  0  0  0  0  0  0
  156.6500  212.6910  155.5840 N   0  0  0  0  0  0  0  0  0  0  0  0
  155.5380  213.5340  155.9070 C   0  0  0  0  0  0  0  0  0  0  0  0
  157.3310  211.8010  156.5300 C   0  0  0  0  0  2  0  0  0  0  0  0
  155.0820  214.3420  155.0550 O   0  0  0  0  0  0  0  0  0  0  0  0
  158.3960  211.1610  155.6890 C   0  0  0  0  0  0  0  0  0  0  0  0
  154.9240  213.4880  157.2610 C   0  0  0  0  0  1  0  0  0  0  0  0
  157.2430  212.5310  154.2980 C   0  0  0  0  0  0  0  0  0  0  0  0
  158.3280  211.5900  154.3830 C   0  0  0  0  0  0  0  0  0  0  0  0
  156.8510  213.1090  153.2500 O   0  0  0  0  0  0  0  0  0  0  0  0
  160.1690  210.1780  153.7760 C   0  0  0  0  0  0  0  0  0  0  0  0
  160.2450  209.7380  155.1170 C   0  0  0  0  0  3  0  0  0  0  0  0
  160.5120  213.5710  145.6000 C   0  0  0  0  0  2  0  0  0  0  0  0
  161.3570  213.0010  144.0930 S   0  0  0  0  0  0  0  0  0  0  0  0
  159.8510  212.2030  143.4690 C   0  0  0  0  0  1  0  0  0  0  0  0
  1  5  1  1  0  0  0
  3 10  1  0  0  0  0
  3 16  1  0  0  0  0
  4  9  1  0  0  0  0
  5  9  1  0  0  0  0
  6  4  1  0  0  0  0
  7  8  2  0  0  0  0
  8  6  1  0  0  0  0
  9 30  1  1  0  0  0
 10 11  1  0  0  0  0
 11  1  1  0  0  0  0
 11  6  2  0  0  0  0
 12 10  2  0  0  0  0
 12  7  1  0  0  0  0
 13 14  1  0  0  0  0
 13  2  1  0  0  0  0
 14 32  1  6  0  0  0
 14 15  1  0  0  0  0
 15 17  1  0  0  0  0
 16  2  1  6  0  0  0
 16 18  1  0  0  0  0
 18 17  1  6  0  0  0
 18  1  1  0  0  0  0
 20 30  2  0  0  0  0
 20 28  1  0  0  0  0
 21 22  1  0  0  0  0
 21 23  1  0  0  0  0
 22 26  1  0  0  0  0
 24 22  2  0  0  0  0
 25 19  1  0  0  0  0
 25 23  1  0  0  0  0
 27 28  1  0  0  0  0
 27 21  1  0  0  0  0
 28 25  2  0  0  0  0
 29 27  2  0  0  0  0
 30 31  1  0  0  0  0
 31 19  2  0  0  0  0
 33 32  1  0  0  0  0
 34 33  1  0  0  0  0
M  END
>  <MODEL>
6

>  <REMARK>
 VINA RESULT:      -4.8      4.117      8.986
  Name = 
  3 active torsions:
  status: ('A' for Active; 'I' for Inactive)
    1  A    between atoms: C_3  and  S_13
    2  A    between atoms: C_3  and  C_25
    3  A    between atoms: C_18  and  C_30
                            x       y       z     vdW  Elec       q    Type
                         _______ _______ _______ _____ _____    ______ ____

>  <TORSDO>
F 3

$$$$
=
 OpenBabel11062409433D

 34 39  0  0  1  0  0  0  0  0999 V2000
  159.9270  210.0510  153.8430 C   0  0  2  0  0  3  0  0  0  0  0  0
  156.8800  210.7130  156.2320 C   0  0  0  0  0  2  0  0  0  0  0  0
  159.2650  211.2530  156.3800 O   0  0  0  0  0  0  0  0  0  0  0  0
  162.6310  209.4730  153.2940 C   0  0  0  0  0  2  0  0  0  0  0  0
  160.1700  208.5830  153.5160 C   0  0  0  0  0  2  0  0  0  0  0  0
  162.3050  210.2490  154.5360 C   0  0  0  0  0  0  0  0  0  0  0  0
  162.9610  211.4260  156.5510 C   0  0  0  0  0  3  0  0  0  0  0  0
  163.3050  210.7250  155.3850 C   0  0  0  0  0  3  0  0  0  0  0  0
  161.6280  208.3140  153.0630 C   0  0  1  0  0  3  0  0  0  0  0  0
  160.6120  211.1450  156.0260 C   0  0  0  0  0  0  0  0  0  0  0  0
  160.9640  210.5200  154.8250 C   0  0  0  0  0  0  0  0  0  0  0  0
  161.6140  211.6240  156.8760 C   0  0  0  0  0  3  0  0  0  0  0  0
  156.5340  212.1830  156.0060 C   0  0  0  0  0  2  0  0  0  0  0  0
  155.8890  212.4510  154.6460 C   0  0  2  0  0  3  0  0  0  0  0  0
  156.5330  211.7030  153.4710 C   0  0  0  0  0  2  0  0  0  0  0  0
  158.3020  210.3950  155.7680 C   0  0  2  0  0  3  0  0  0  0  0  0
  158.0520  211.6480  153.5550 C   0  0  0  0  0  2  0  0  0  0  0  0
  158.4740  210.3520  154.2360 C   0  0  1  0  0  3  0  0  0  0  0  0
  161.9410  208.3210  149.2550 C   0  0  0  0  0  3  0  0  0  0  0  0
  161.4710  206.4850  151.3620 C   0  0  0  0  0  3  0  0  0  0  0  0
  161.4750  204.8720  148.0280 N   0  0  0  0  0  0  0  0  0  0  0  0
  161.3590  203.7950  147.0900 C   0  0  0  0  0  0  0  0  0  0  0  0
  161.7080  206.2750  147.6690 C   0  0  0  0  0  2  0  0  0  0  0  0
  161.2620  202.6070  147.4950 O   0  0  0  0  0  0  0  0  0  0  0  0
  161.7400  206.9670  149.0000 C   0  0  0  0  0  0  0  0  0  0  0  0
  161.3790  204.0620  145.6270 C   0  0  0  0  0  1  0  0  0  0  0  0
  161.3340  204.7800  149.4430 C   0  0  0  0  0  0  0  0  0  0  0  0
  161.5110  206.0820  150.0290 C   0  0  0  0  0  0  0  0  0  0  0  0
  161.0660  203.7210  150.0690 O   0  0  0  0  0  0  0  0  0  0  0  0
  161.6690  207.8490  151.6430 C   0  0  0  0  0  0  0  0  0  0  0  0
  161.9080  208.7600  150.5900 C   0  0  0  0  0  3  0  0  0  0  0  0
  155.8680  213.9530  154.3940 C   0  0  0  0  0  2  0  0  0  0  0  0
  154.3920  214.4370  153.4470 S   0  0  0  0  0  0  0  0  0  0  0  0
  155.3150  214.4530  151.8850 C   0  0  0  0  0  1  0  0  0  0  0  0
  1  5  1  1  0  0  0
  1 18  1  0  0  0  0
  1 11  1  0  0  0  0
  4  6  1  0  0  0  0
  6 11  2  0  0  0  0
  6  8  1  0  0  0  0
  7 12  1  0  0  0  0
  8  7  2  0  0  0  0
  9 30  1  6  0  0  0
  9  4  1  0  0  0  0
  9  5  1  0  0  0  0
 10  3  1  0  0  0  0
 10 12  2  0  0  0  0
 11 10  1  0  0  0  0
 13  2  1  0  0  0  0
 14 32  1  6  0  0  0
 14 13  1  0  0  0  0
 15 17  1  0  0  0  0
 15 14  1  0  0  0  0
 16  2  1  6  0  0  0
 16  3  1  0  0  0  0
 18 17  1  6  0  0  0
 18 16  1  0  0  0  0
 19 31  1  0  0  0  0
 20 30  1  0  0  0  0
 21 27  1  0  0  0  0
 22 24  2  0  0  0  0
 22 21  1  0  0  0  0
 23 21  1  0  0  0  0
 23 25  1  0  0  0  0
 25 19  2  0  0  0  0
 25 28  1  0  0  0  0
 26 22  1  0  0  0  0
 27 28  1  0  0  0  0
 27 29  2  0  0  0  0
 28 20  2  0  0  0  0
 31 30  2  0  0  0  0
 33 32  1  0  0  0  0
 34 33  1  0  0  0  0
M  END
>  <MODEL>
7

>  <REMARK>
 VINA RESULT:      -4.8      2.242      3.428
  Name = 
  3 active torsions:
  status: ('A' for Active; 'I' for Inactive)
    1  A    between atoms: C_3  and  S_13
    2  A    between atoms: C_3  and  C_25
    3  A    between atoms: C_18  and  C_30
                            x       y       z     vdW  Elec       q    Type
                         _______ _______ _______ _____ _____    ______ ____

>  <TORSDO>
F 3

$$$$
