=
 OpenBabel11052422193D

 25 27  0  0  1  0  0  0  0  0999 V2000
  160.8870  208.2030  152.3750 N   0  0  0  0  0  0  0  0  0  0  0  0
  160.9610  207.0010  151.5910 C   0  0  0  0  0  0  0  0  0  0  0  0
  161.5820  207.0310  154.4020 C   0  0  0  0  0  2  0  0  0  0  0  0
  161.0260  209.5420  151.8160 C   0  0  1  0  0  3  0  0  0  0  0  0
  161.3930  205.7800  153.6680 N   0  0  0  0  0  2  0  0  0  0  0  0
  160.7850  210.5510  152.9310 C   0  0  2  0  0  3  0  0  0  0  0  0
  161.2380  204.5890  151.5180 C   0  0  0  0  0  0  0  0  0  0  0  0
  161.4550  203.4060  152.1460 F   0  0  0  0  0  0  0  0  0  0  0  0
  160.7940  207.0200  150.2000 C   0  0  0  0  0  3  0  0  0  0  0  0
  160.6810  208.1150  153.8140 C   0  0  1  0  0  3  0  0  0  0  0  0
  161.0670  209.7340  154.5350 S   0  0  0  0  0  0  0  0  0  0  0  0
  161.0670  204.6150  150.1310 C   0  0  0  0  0  3  0  0  0  0  0  0
  160.8500  205.8250  149.4630 C   0  0  0  0  0  0  0  0  0  0  0  0
  161.1980  205.7820  152.2480 C   0  0  0  0  0  0  0  0  0  0  0  0
  160.6830  205.8120  148.0400 N   0  0  0  0  0  0  0  0  0  0  0  0
  161.6620  205.9910  147.2110 C   0  0  0  0  0  3  0  0  0  0  0  0
  161.4210  205.9690  145.7400 C   0  0  2  0  0  3  0  0  0  0  0  0
  160.1310  206.4230  145.4700 O   0  0  0  0  0  1  0  0  0  0  0  0
  161.6020  204.5900  145.1930 C   0  0  0  0  0  0  0  0  0  0  0  0
  160.5520  203.9710  144.5290 O   0  0  0  0  0  0  0  0  0  0  0  0
  162.7050  203.9940  145.3120 O   0  0  0  0  0  1  0  0  0  0  0  0
  158.3130  211.4190  152.8130 N   0  0  0  0  0  0  0  0  0  0  0  0
  159.4040  211.0360  152.8650 C   0  0  0  0  0  0  0  0  0  0  0  0
  162.3180  210.2850  149.9200 O   0  0  0  0  0  1  0  0  0  0  0  0
  162.4110  209.7410  151.2030 C   0  0  0  0  0  2  0  0  0  0  0  0
  1 10  1  0  0  0  0
  2 14  1  0  0  0  0
  2  1  1  0  0  0  0
  4 25  1  1  0  0  0
  4  1  1  0  0  0  0
  4  6  1  0  0  0  0
  5  3  1  0  0  0  0
  6 23  1  1  0  0  0
  6 11  1  0  0  0  0
  7  8  1  0  0  0  0
  7 14  2  0  0  0  0
  9  2  2  0  0  0  0
 10  3  1  1  0  0  0
 10 11  1  0  0  0  0
 12  7  1  0  0  0  0
 13 12  2  0  0  0  0
 13  9  1  0  0  0  0
 14  5  1  0  0  0  0
 15 13  1  0  0  0  0
 16 15  2  0  0  0  0
 17 18  1  1  0  0  0
 17 16  1  0  0  0  0
 19 21  1  0  0  0  0
 19 17  1  0  0  0  0
 20 19  2  0  0  0  0
 22 23  3  0  0  0  0
 24 25  1  0  0  0  0
M  END
>  <MODEL>
1

>  <REMARK>
 VINA RESULT:      -7.6      0.000      0.000
  Name = 
  5 active torsions:
  status: ('A' for Active; 'I' for Inactive)
    1  A    between atoms: C_2  and  C_21
    2  A    between atoms: C_5  and  C_22
    3  A    between atoms: N_6  and  C_23
    4  A    between atoms: C_10  and  C_11
    5  A    between atoms: C_15  and  C_21
                            x       y       z     vdW  Elec       q    Type
                         _______ _______ _______ _____ _____    ______ ____

>  <TORSDO>
F 5

$$$$
=
 OpenBabel11052422193D

 25 27  0  0  1  0  0  0  0  0999 V2000
  160.8730  208.1960  152.5550 N   0  0  0  0  0  0  0  0  0  0  0  0
  160.9610  206.9220  151.8970 C   0  0  0  0  0  0  0  0  0  0  0  0
  161.4610  207.2210  154.7170 C   0  0  0  0  0  2  0  0  0  0  0  0
  161.0580  209.4710  151.8750 C   0  0  1  0  0  3  0  0  0  0  0  0
  161.2820  205.9060  154.1010 N   0  0  0  0  0  2  0  0  0  0  0  0
  160.7870  210.5880  152.8740 C   0  0  2  0  0  3  0  0  0  0  0  0
  161.2000  204.5110  152.0730 C   0  0  0  0  0  0  0  0  0  0  0  0
  161.3700  203.3930  152.8230 F   0  0  0  0  0  0  0  0  0  0  0  0
  160.8550  206.8060  150.5050 C   0  0  0  0  0  3  0  0  0  0  0  0
  160.6040  208.2530  153.9860 C   0  0  1  0  0  3  0  0  0  0  0  0
  160.9850  209.9300  154.5610 S   0  0  0  0  0  0  0  0  0  0  0  0
  161.0900  204.4020  150.6840 C   0  0  0  0  0  3  0  0  0  0  0  0
  160.9210  205.5430  149.8920 C   0  0  0  0  0  0  0  0  0  0  0  0
  161.1490  205.7710  152.6800 C   0  0  0  0  0  0  0  0  0  0  0  0
  160.8160  205.3910  148.4710 N   0  0  0  0  0  0  0  0  0  0  0  0
  161.3940  204.4340  147.8170 C   0  0  0  0  0  3  0  0  0  0  0  0
  161.2470  204.3340  146.3360 C   0  0  2  0  0  3  0  0  0  0  0  0
  161.1870  202.9910  145.9630 O   0  0  0  0  0  1  0  0  0  0  0  0
  162.3860  205.0060  145.6430 C   0  0  0  0  0  0  0  0  0  0  0  0
  163.6890  204.7270  146.0310 O   0  0  0  0  0  1  0  0  0  0  0  0
  162.1740  205.8090  144.6950 O   0  0  0  0  0  0  0  0  0  0  0  0
  158.3360  211.4710  152.5620 N   0  0  0  0  0  0  0  0  0  0  0  0
  159.4180  211.0810  152.6990 C   0  0  0  0  0  0  0  0  0  0  0  0
  162.4420  209.9750  149.9640 O   0  0  0  0  0  1  0  0  0  0  0  0
  162.4720  209.5910  151.3070 C   0  0  0  0  0  2  0  0  0  0  0  0
  1 10  1  0  0  0  0
  2  1  1  0  0  0  0
  2 14  1  0  0  0  0
  4 25  1  1  0  0  0
  4  1  1  0  0  0  0
  4  6  1  0  0  0  0
  5  3  1  0  0  0  0
  6 23  1  1  0  0  0
  6 11  1  0  0  0  0
  7 14  2  0  0  0  0
  7  8  1  0  0  0  0
  9  2  2  0  0  0  0
 10 11  1  0  0  0  0
 10  3  1  1  0  0  0
 12  7  1  0  0  0  0
 13  9  1  0  0  0  0
 13 12  2  0  0  0  0
 14  5  1  0  0  0  0
 15 13  1  0  0  0  0
 16 15  2  0  0  0  0
 17 18  1  1  0  0  0
 17 16  1  0  0  0  0
 19 20  1  0  0  0  0
 19 17  1  0  0  0  0
 21 19  2  0  0  0  0
 22 23  3  0  0  0  0
 24 25  1  0  0  0  0
M  END
>  <MODEL>
2

>  <REMARK>
 VINA RESULT:      -7.0      0.878      1.259
  Name = 
  5 active torsions:
  status: ('A' for Active; 'I' for Inactive)
    1  A    between atoms: C_2  and  C_21
    2  A    between atoms: C_5  and  C_22
    3  A    between atoms: N_6  and  C_23
    4  A    between atoms: C_10  and  C_11
    5  A    between atoms: C_15  and  C_21
                            x       y       z     vdW  Elec       q    Type
                         _______ _______ _______ _____ _____    ______ ____

>  <TORSDO>
F 5

$$$$
=
 OpenBabel11052422193D

 25 27  0  0  1  0  0  0  0  0999 V2000
  161.3550  204.1890  148.3730 N   0  0  0  0  0  0  0  0  0  0  0  0
  161.2590  204.5880  149.7500 C   0  0  0  0  0  0  0  0  0  0  0  0
  160.2910  202.0380  148.8320 C   0  0  0  0  0  2  0  0  0  0  0  0
  161.4240  205.1280  147.2620 C   0  0  1  0  0  3  0  0  0  0  0  0
  160.4440  202.3370  150.2560 N   0  0  0  0  0  2  0  0  0  0  0  0
  161.6220  204.3340  145.9780 C   0  0  2  0  0  3  0  0  0  0  0  0
  160.7510  203.9950  152.0500 C   0  0  0  0  0  0  0  0  0  0  0  0
  160.3370  203.0890  152.9710 F   0  0  0  0  0  0  0  0  0  0  0  0
  161.6030  205.8820  150.1650 C   0  0  0  0  0  3  0  0  0  0  0  0
  161.3650  202.7720  148.0320 C   0  0  1  0  0  3  0  0  0  0  0  0
  161.0560  202.6230  146.2510 S   0  0  0  0  0  0  0  0  0  0  0  0
  161.0990  205.2860  152.4570 C   0  0  0  0  0  3  0  0  0  0  0  0
  161.5210  206.2370  151.5220 C   0  0  0  0  0  0  0  0  0  0  0  0
  160.8180  203.6480  150.6960 C   0  0  0  0  0  0  0  0  0  0  0  0
  161.8660  207.5510  151.9760 N   0  0  0  0  0  0  0  0  0  0  0  0
  160.9880  208.4780  152.1920 C   0  0  0  0  0  3  0  0  0  0  0  0
  161.4120  209.8280  152.6620 C   0  0  2  0  0  3  0  0  0  0  0  0
  162.6610  210.1390  152.1250 O   0  0  0  0  0  1  0  0  0  0  0  0
  161.4710  209.8770  154.1540 C   0  0  0  0  0  0  0  0  0  0  0  0
  160.6860  209.0090  154.9020 O   0  0  0  0  0  1  0  0  0  0  0  0
  162.2410  210.6840  154.7380 O   0  0  0  0  0  0  0  0  0  0  0  0
  164.1640  204.3220  145.3330 N   0  0  0  0  0  0  0  0  0  0  0  0
  163.0420  204.3280  145.6180 C   0  0  0  0  0  0  0  0  0  0  0  0
  159.8750  206.3300  145.8570 O   0  0  0  0  0  1  0  0  0  0  0  0
  160.1560  205.9760  147.1790 C   0  0  0  0  0  2  0  0  0  0  0  0
  1  2  1  0  0  0  0
  2  9  2  0  0  0  0
  2 14  1  0  0  0  0
  3  5  1  0  0  0  0
  4 25  1  6  0  0  0
  4  1  1  0  0  0  0
  5 14  1  0  0  0  0
  6 23  1  1  0  0  0
  6 11  1  0  0  0  0
  6  4  1  0  0  0  0
  7 12  1  0  0  0  0
  7  8  1  0  0  0  0
  9 13  1  0  0  0  0
 10  1  1  0  0  0  0
 10  3  1  1  0  0  0
 11 10  1  0  0  0  0
 13 15  1  0  0  0  0
 13 12  2  0  0  0  0
 14  7  2  0  0  0  0
 15 16  2  0  0  0  0
 16 17  1  0  0  0  0
 17 18  1  6  0  0  0
 17 19  1  0  0  0  0
 19 21  2  0  0  0  0
 19 20  1  0  0  0  0
 22 23  3  0  0  0  0
 24 25  1  0  0  0  0
M  END
>  <MODEL>
3

>  <REMARK>
 VINA RESULT:      -6.4      3.191      7.307
  Name = 
  5 active torsions:
  status: ('A' for Active; 'I' for Inactive)
    1  A    between atoms: C_2  and  C_21
    2  A    between atoms: C_5  and  C_22
    3  A    between atoms: N_6  and  C_23
    4  A    between atoms: C_10  and  C_11
    5  A    between atoms: C_15  and  C_21
                            x       y       z     vdW  Elec       q    Type
                         _______ _______ _______ _____ _____    ______ ____

>  <TORSDO>
F 5

$$$$
=
 OpenBabel11052422193D

 25 27  0  0  1  0  0  0  0  0999 V2000
  161.5750  205.7740  148.5090 N   0  0  0  0  0  0  0  0  0  0  0  0
  161.5450  206.8720  149.4350 C   0  0  0  0  0  0  0  0  0  0  0  0
  160.6030  204.2470  150.1490 C   0  0  0  0  0  2  0  0  0  0  0  0
  161.5540  205.9380  147.0610 C   0  0  1  0  0  3  0  0  0  0  0  0
  160.8270  205.2860  151.1550 N   0  0  0  0  0  2  0  0  0  0  0  0
  161.7030  204.5630  146.4240 C   0  0  2  0  0  3  0  0  0  0  0  0
  161.1840  207.6600  151.7050 C   0  0  0  0  0  0  0  0  0  0  0  0
  160.8490  207.4210  152.9980 F   0  0  0  0  0  0  0  0  0  0  0  0
  161.8720  208.1760  149.0390 C   0  0  0  0  0  3  0  0  0  0  0  0
  161.6080  204.4070  149.0110 C   0  0  1  0  0  3  0  0  0  0  0  0
  161.2050  203.2960  147.6350 S   0  0  0  0  0  0  0  0  0  0  0  0
  161.5150  208.9570  151.3030 C   0  0  0  0  0  3  0  0  0  0  0  0
  161.8570  209.2250  149.9740 C   0  0  0  0  0  0  0  0  0  0  0  0
  161.1850  206.6180  150.7690 C   0  0  0  0  0  0  0  0  0  0  0  0
  162.1870  210.5680  149.6000 N   0  0  0  0  0  0  0  0  0  0  0  0
  161.8540  211.0880  148.4610 C   0  0  0  0  0  3  0  0  0  0  0  0
  162.2320  212.4920  148.1310 C   0  0  2  0  0  3  0  0  0  0  0  0
  161.5680  213.3690  148.9890 O   0  0  0  0  0  1  0  0  0  0  0  0
  161.8940  212.8130  146.7110 C   0  0  0  0  0  0  0  0  0  0  0  0
  160.6240  212.5330  146.2260 O   0  0  0  0  0  1  0  0  0  0  0  0
  162.7460  213.3540  145.9570 O   0  0  0  0  0  0  0  0  0  0  0  0
  164.2040  204.1790  145.7350 N   0  0  0  0  0  0  0  0  0  0  0  0
  163.1000  204.3480  146.0390 C   0  0  0  0  0  0  0  0  0  0  0  0
  159.9510  206.2500  145.2860 O   0  0  0  0  0  1  0  0  0  0  0  0
  160.2590  206.6050  146.6010 C   0  0  0  0  0  2  0  0  0  0  0  0
  1 10  1  0  0  0  0
  1  2  1  0  0  0  0
  2 14  1  0  0  0  0
  3  5  1  0  0  0  0
  4 25  1  1  0  0  0
  4  1  1  0  0  0  0
  6 23  1  1  0  0  0
  6  4  1  0  0  0  0
  6 11  1  0  0  0  0
  7  8  1  0  0  0  0
  9  2  2  0  0  0  0
  9 13  1  0  0  0  0
 10  3  1  1  0  0  0
 11 10  1  0  0  0  0
 12  7  1  0  0  0  0
 13 12  2  0  0  0  0
 14  5  1  0  0  0  0
 14  7  2  0  0  0  0
 15 13  1  0  0  0  0
 16 15  2  0  0  0  0
 17 16  1  0  0  0  0
 17 18  1  1  0  0  0
 19 17  1  0  0  0  0
 20 19  1  0  0  0  0
 21 19  2  0  0  0  0
 22 23  3  0  0  0  0
 24 25  1  0  0  0  0
M  END
>  <MODEL>
4

>  <REMARK>
 VINA RESULT:      -6.3      3.359      6.604
  Name = 
  5 active torsions:
  status: ('A' for Active; 'I' for Inactive)
    1  A    between atoms: C_2  and  C_21
    2  A    between atoms: C_5  and  C_22
    3  A    between atoms: N_6  and  C_23
    4  A    between atoms: C_10  and  C_11
    5  A    between atoms: C_15  and  C_21
                            x       y       z     vdW  Elec       q    Type
                         _______ _______ _______ _____ _____    ______ ____

>  <TORSDO>
F 5

$$$$
=
 OpenBabel11052422193D

 25 27  0  0  1  0  0  0  0  0999 V2000
  160.4750  209.0340  153.9270 N   0  0  0  0  0  0  0  0  0  0  0  0
  160.8200  207.8930  153.1230 C   0  0  0  0  0  0  0  0  0  0  0  0
  160.5410  207.7170  155.9830 C   0  0  0  0  0  2  0  0  0  0  0  0
  160.7430  210.4110  153.5330 C   0  0  1  0  0  3  0  0  0  0  0  0
  160.6230  206.5230  155.1420 N   0  0  0  0  0  2  0  0  0  0  0  0
  160.1420  211.3330  154.5850 C   0  0  2  0  0  3  0  0  0  0  0  0
  161.1720  205.4950  152.9720 C   0  0  0  0  0  0  0  0  0  0  0  0
  161.2160  204.2690  153.5530 F   0  0  0  0  0  0  0  0  0  0  0  0
  161.0910  208.0150  151.7540 C   0  0  0  0  0  3  0  0  0  0  0  0
  159.8370  208.8370  155.2220 C   0  0  1  0  0  3  0  0  0  0  0  0
  159.9370  210.4000  156.1370 S   0  0  0  0  0  0  0  0  0  0  0  0
  161.4380  205.6230  151.6060 C   0  0  0  0  0  3  0  0  0  0  0  0
  161.4040  206.8780  150.9900 C   0  0  0  0  0  0  0  0  0  0  0  0
  160.8760  206.6300  153.7350 C   0  0  0  0  0  0  0  0  0  0  0  0
  161.6850  206.9700  149.5880 N   0  0  0  0  0  0  0  0  0  0  0  0
  161.4680  205.9990  148.7580 C   0  0  0  0  0  3  0  0  0  0  0  0
  161.7850  206.1570  147.3090 C   0  0  2  0  0  3  0  0  0  0  0  0
  160.6550  206.6120  146.6300 O   0  0  0  0  0  1  0  0  0  0  0  0
  162.2470  204.8640  146.7220 C   0  0  0  0  0  0  0  0  0  0  0  0
  163.5240  204.7700  146.1840 O   0  0  0  0  0  0  0  0  0  0  0  0
  161.4960  203.8530  146.7300 O   0  0  0  0  0  1  0  0  0  0  0  0
  157.8050  212.1960  153.7670 N   0  0  0  0  0  0  0  0  0  0  0  0
  158.8370  211.8150  154.1280 C   0  0  0  0  0  0  0  0  0  0  0  0
  162.8720  210.6530  154.6430 O   0  0  0  0  0  1  0  0  0  0  0  0
  162.2440  210.6600  153.3950 C   0  0  0  0  0  2  0  0  0  0  0  0
  1 10  1  0  0  0  0
  2 14  1  0  0  0  0
  2  1  1  0  0  0  0
  4 25  1  1  0  0  0
  4  1  1  0  0  0  0
  4  6  1  0  0  0  0
  5  3  1  0  0  0  0
  6 23  1  6  0  0  0
  6 11  1  0  0  0  0
  7  8  1  0  0  0  0
  7 14  2  0  0  0  0
  9  2  2  0  0  0  0
 10  3  1  1  0  0  0
 10 11  1  0  0  0  0
 12  7  1  0  0  0  0
 13 12  2  0  0  0  0
 13  9  1  0  0  0  0
 14  5  1  0  0  0  0
 15 13  1  0  0  0  0
 16 15  2  0  0  0  0
 17 18  1  6  0  0  0
 17 16  1  0  0  0  0
 19 21  1  0  0  0  0
 19 17  1  0  0  0  0
 20 19  2  0  0  0  0
 22 23  3  0  0  0  0
 25 24  1  0  0  0  0
M  END
>  <MODEL>
5

>  <REMARK>
 VINA RESULT:      -5.9      1.758      2.106
  Name = 
  5 active torsions:
  status: ('A' for Active; 'I' for Inactive)
    1  A    between atoms: C_2  and  C_21
    2  A    between atoms: C_5  and  C_22
    3  A    between atoms: N_6  and  C_23
    4  A    between atoms: C_10  and  C_11
    5  A    between atoms: C_15  and  C_21
                            x       y       z     vdW  Elec       q    Type
                         _______ _______ _______ _____ _____    ______ ____

>  <TORSDO>
F 5

$$$$
=
 OpenBabel11052422193D

 25 27  0  0  1  0  0  0  0  0999 V2000
  161.3510  204.2860  148.2230 N   0  0  0  0  0  0  0  0  0  0  0  0
  161.2700  204.8480  149.5430 C   0  0  0  0  0  0  0  0  0  0  0  0
  160.3700  202.1750  148.9630 C   0  0  0  0  0  2  0  0  0  0  0  0
  161.3680  205.0850  147.0040 C   0  0  1  0  0  3  0  0  0  0  0  0
  160.5410  202.6500  150.3370 N   0  0  0  0  0  2  0  0  0  0  0  0
  161.5660  204.1470  145.8220 C   0  0  2  0  0  3  0  0  0  0  0  0
  160.8280  204.5240  151.9090 C   0  0  0  0  0  0  0  0  0  0  0  0
  160.4620  203.7240  152.9430 F   0  0  0  0  0  0  0  0  0  0  0  0
  161.5780  206.1920  149.7890 C   0  0  0  0  0  3  0  0  0  0  0  0
  161.4020  202.8400  148.0560 C   0  0  1  0  0  3  0  0  0  0  0  0
  161.0640  202.4660  146.3140 S   0  0  0  0  0  0  0  0  0  0  0  0
  161.1400  205.8650  152.1480 C   0  0  0  0  0  3  0  0  0  0  0  0
  161.5120  206.7070  151.0950 C   0  0  0  0  0  0  0  0  0  0  0  0
  160.8790  204.0170  150.6060 C   0  0  0  0  0  0  0  0  0  0  0  0
  161.8220  208.0770  151.3790 N   0  0  0  0  0  0  0  0  0  0  0  0
  161.7050  209.0250  150.5030 C   0  0  0  0  0  3  0  0  0  0  0  0
  162.0470  210.4310  150.8600 C   0  0  2  0  0  3  0  0  0  0  0  0
  161.2360  210.8560  151.9130 O   0  0  0  0  0  1  0  0  0  0  0  0
  161.8720  211.3360  149.6850 C   0  0  0  0  0  0  0  0  0  0  0  0
  162.3980  210.9710  148.4520 O   0  0  0  0  0  0  0  0  0  0  0  0
  161.2340  212.4170  149.7980 O   0  0  0  0  0  1  0  0  0  0  0  0
  164.0940  204.1350  145.1230 N   0  0  0  0  0  0  0  0  0  0  0  0
  162.9780  204.1400  145.4310 C   0  0  0  0  0  0  0  0  0  0  0  0
  159.8890  206.2890  145.5260 O   0  0  0  0  0  1  0  0  0  0  0  0
  160.0700  205.8770  146.8490 C   0  0  0  0  0  2  0  0  0  0  0  0
  1  2  1  0  0  0  0
  2  9  2  0  0  0  0
  2 14  1  0  0  0  0
  3  5  1  0  0  0  0
  4 25  1  6  0  0  0
  4  1  1  0  0  0  0
  5 14  1  0  0  0  0
  6 23  1  1  0  0  0
  6 11  1  0  0  0  0
  6  4  1  0  0  0  0
  7 12  1  0  0  0  0
  7  8  1  0  0  0  0
  9 13  1  0  0  0  0
 10  1  1  0  0  0  0
 10  3  1  1  0  0  0
 11 10  1  0  0  0  0
 13 15  1  0  0  0  0
 13 12  2  0  0  0  0
 14  7  2  0  0  0  0
 16 17  1  0  0  0  0
 16 15  2  0  0  0  0
 17 18  1  1  0  0  0
 19 21  1  0  0  0  0
 19 17  1  0  0  0  0
 20 19  2  0  0  0  0
 22 23  3  0  0  0  0
 24 25  1  0  0  0  0
M  END
>  <MODEL>
6

>  <REMARK>
 VINA RESULT:      -5.7      3.023      6.839
  Name = 
  5 active torsions:
  status: ('A' for Active; 'I' for Inactive)
    1  A    between atoms: C_2  and  C_21
    2  A    between atoms: C_5  and  C_22
    3  A    between atoms: N_6  and  C_23
    4  A    between atoms: C_10  and  C_11
    5  A    between atoms: C_15  and  C_21
                            x       y       z     vdW  Elec       q    Type
                         _______ _______ _______ _____ _____    ______ ____

>  <TORSDO>
F 5

$$$$
=
 OpenBabel11052422193D

 25 27  0  0  1  0  0  0  0  0999 V2000
  160.9570  203.8150  149.0810 N   0  0  0  0  0  0  0  0  0  0  0  0
  161.2000  205.1900  149.4190 C   0  0  0  0  0  0  0  0  0  0  0  0
  162.3240  203.9750  147.0630 C   0  0  0  0  0  2  0  0  0  0  0  0
  160.6170  202.7900  150.0600 C   0  0  1  0  0  3  0  0  0  0  0  0
  162.3410  205.4240  147.2660 N   0  0  0  0  0  2  0  0  0  0  0  0
  160.3350  201.4930  149.3140 C   0  0  2  0  0  3  0  0  0  0  0  0
  162.0990  207.3530  148.7770 C   0  0  0  0  0  0  0  0  0  0  0  0
  162.7450  208.1460  147.8850 F   0  0  0  0  0  0  0  0  0  0  0  0
  160.7670  205.7350  150.6350 C   0  0  0  0  0  3  0  0  0  0  0  0
  161.0670  203.3810  147.6950 C   0  0  1  0  0  3  0  0  0  0  0  0
  161.1330  201.5690  147.6780 S   0  0  0  0  0  0  0  0  0  0  0  0
  161.6610  207.8910  149.9910 C   0  0  0  0  0  3  0  0  0  0  0  0
  160.9990  207.0900  150.9270 C   0  0  0  0  0  0  0  0  0  0  0  0
  161.8800  206.0000  148.4950 C   0  0  0  0  0  0  0  0  0  0  0  0
  160.5680  207.6760  152.1610 N   0  0  0  0  0  0  0  0  0  0  0  0
  161.3380  208.4070  152.9030 C   0  0  0  0  0  3  0  0  0  0  0  0
  160.8300  208.9870  154.1800 C   0  0  2  0  0  3  0  0  0  0  0  0
  161.4630  210.2050  154.4250 O   0  0  0  0  0  1  0  0  0  0  0  0
  161.0660  208.0510  155.3190 C   0  0  0  0  0  0  0  0  0  0  0  0
  161.9570  208.4010  156.3250 O   0  0  0  0  0  1  0  0  0  0  0  0
  160.4480  206.9550  155.3860 O   0  0  0  0  0  0  0  0  0  0  0  0
  157.7460  201.1990  149.0110 N   0  0  0  0  0  0  0  0  0  0  0  0
  158.8880  201.3290  149.1450 C   0  0  0  0  0  0  0  0  0  0  0  0
  161.3100  202.8330  152.3700 O   0  0  0  0  0  1  0  0  0  0  0  0
  161.7500  202.5940  151.0660 C   0  0  0  0  0  2  0  0  0  0  0  0
  1  2  1  0  0  0  0
  1  4  1  0  0  0  0
  2  9  1  0  0  0  0
  3  5  1  0  0  0  0
  4 25  1  1  0  0  0
  5 14  1  0  0  0  0
  6 23  1  6  0  0  0
  6  4  1  0  0  0  0
  7 12  2  0  0  0  0
  8  7  1  0  0  0  0
  9 13  2  0  0  0  0
 10  3  1  1  0  0  0
 10  1  1  0  0  0  0
 11 10  1  0  0  0  0
 11  6  1  0  0  0  0
 12 13  1  0  0  0  0
 13 15  1  0  0  0  0
 14  7  1  0  0  0  0
 14  2  2  0  0  0  0
 15 16  2  0  0  0  0
 16 17  1  0  0  0  0
 17 18  1  1  0  0  0
 17 19  1  0  0  0  0
 19 21  2  0  0  0  0
 19 20  1  0  0  0  0
 22 23  3  0  0  0  0
 25 24  1  0  0  0  0
M  END
>  <MODEL>
7

>  <REMARK>
 VINA RESULT:      -5.6      4.140      7.796
  Name = 
  5 active torsions:
  status: ('A' for Active; 'I' for Inactive)
    1  A    between atoms: C_2  and  C_21
    2  A    between atoms: C_5  and  C_22
    3  A    between atoms: N_6  and  C_23
    4  A    between atoms: C_10  and  C_11
    5  A    between atoms: C_15  and  C_21
                            x       y       z     vdW  Elec       q    Type
                         _______ _______ _______ _____ _____    ______ ____

>  <TORSDO>
F 5

$$$$
=
 OpenBabel11052422193D

 25 27  0  0  1  0  0  0  0  0999 V2000
  158.6730  211.4100  154.9480 N   0  0  0  0  0  0  0  0  0  0  0  0
  159.9120  210.9430  154.3890 C   0  0  0  0  0  0  0  0  0  0  0  0
  159.8100  212.4010  156.8700 C   0  0  0  0  0  2  0  0  0  0  0  0
  157.4820  211.6850  154.1550 C   0  0  1  0  0  3  0  0  0  0  0  0
  161.0170  211.6960  156.4390 N   0  0  0  0  0  2  0  0  0  0  0  0
  156.3520  212.0570  155.1060 C   0  0  2  0  0  3  0  0  0  0  0  0
  162.3010  210.5920  154.6500 C   0  0  0  0  0  0  0  0  0  0  0  0
  163.4370  210.7030  155.3840 F   0  0  0  0  0  0  0  0  0  0  0  0
  159.9690  210.3580  153.1170 C   0  0  0  0  0  3  0  0  0  0  0  0
  158.5730  211.6510  156.3810 C   0  0  1  0  0  3  0  0  0  0  0  0
  157.0700  212.6210  156.6820 S   0  0  0  0  0  0  0  0  0  0  0  0
  162.3500  210.0080  153.3820 C   0  0  0  0  0  3  0  0  0  0  0  0
  161.1920  209.8900  152.6070 C   0  0  0  0  0  0  0  0  0  0  0  0
  161.0850  211.0720  155.1500 C   0  0  0  0  0  0  0  0  0  0  0  0
  161.2830  209.2880  151.3100 N   0  0  0  0  0  0  0  0  0  0  0  0
  162.1030  208.3240  151.0340 C   0  0  0  0  0  3  0  0  0  0  0  0
  162.1510  207.7410  149.6620 C   0  0  2  0  0  3  0  0  0  0  0  0
  161.9560  208.7500  148.7190 O   0  0  0  0  0  1  0  0  0  0  0  0
  161.1120  206.6810  149.4980 C   0  0  0  0  0  0  0  0  0  0  0  0
  160.8390  205.8170  150.5510 O   0  0  0  0  0  1  0  0  0  0  0  0
  160.4680  206.5770  148.4210 O   0  0  0  0  0  0  0  0  0  0  0  0
  154.8380  209.9580  155.5350 N   0  0  0  0  0  0  0  0  0  0  0  0
  155.5060  210.8840  155.3460 C   0  0  0  0  0  0  0  0  0  0  0  0
  156.6810  213.7300  153.1560 O   0  0  0  0  0  1  0  0  0  0  0  0
  157.7350  212.8130  153.1560 C   0  0  0  0  0  2  0  0  0  0  0  0
  1 10  1  0  0  0  0
  2  1  1  0  0  0  0
  2 14  1  0  0  0  0
  4 25  1  6  0  0  0
  4  1  1  0  0  0  0
  4  6  1  0  0  0  0
  5  3  1  0  0  0  0
  6 23  1  1  0  0  0
  6 11  1  0  0  0  0
  7 14  2  0  0  0  0
  7  8  1  0  0  0  0
  9  2  2  0  0  0  0
 10 11  1  0  0  0  0
 10  3  1  6  0  0  0
 12  7  1  0  0  0  0
 13  9  1  0  0  0  0
 13 12  2  0  0  0  0
 14  5  1  0  0  0  0
 15 13  1  0  0  0  0
 16 15  2  0  0  0  0
 17 18  1  6  0  0  0
 17 16  1  0  0  0  0
 19 17  1  0  0  0  0
 19 20  1  0  0  0  0
 21 19  2  0  0  0  0
 23 22  3  0  0  0  0
 25 24  1  0  0  0  0
M  END
>  <MODEL>
8

>  <REMARK>
 VINA RESULT:      -5.1      3.679      5.536
  Name = 
  5 active torsions:
  status: ('A' for Active; 'I' for Inactive)
    1  A    between atoms: C_2  and  C_21
    2  A    between atoms: C_5  and  C_22
    3  A    between atoms: N_6  and  C_23
    4  A    between atoms: C_10  and  C_11
    5  A    between atoms: C_15  and  C_21
                            x       y       z     vdW  Elec       q    Type
                         _______ _______ _______ _____ _____    ______ ____

>  <TORSDO>
F 5

$$$$
=
 OpenBabel11052422193D

 25 27  0  0  1  0  0  0  0  0999 V2000
  159.3650  211.2530  154.9600 N   0  0  0  0  0  0  0  0  0  0  0  0
  160.1000  210.0240  154.8400 C   0  0  0  0  0  0  0  0  0  0  0  0
  160.3140  211.7110  157.1640 C   0  0  0  0  0  2  0  0  0  0  0  0
  158.8960  212.0290  153.8190 C   0  0  1  0  0  3  0  0  0  0  0  0
  160.8400  210.3450  157.1510 N   0  0  0  0  0  2  0  0  0  0  0  0
  158.0740  213.1980  154.3430 C   0  0  2  0  0  3  0  0  0  0  0  0
  161.5210  208.3500  155.8790 C   0  0  0  0  0  0  0  0  0  0  0  0
  162.2150  207.8910  156.9510 F   0  0  0  0  0  0  0  0  0  0  0  0
  160.1000  209.2810  153.6520 C   0  0  0  0  0  3  0  0  0  0  0  0
  159.0710  211.7930  156.2810 C   0  0  1  0  0  3  0  0  0  0  0  0
  158.5390  213.5140  156.0760 S   0  0  0  0  0  0  0  0  0  0  0  0
  161.5140  207.6120  154.6920 C   0  0  0  0  0  3  0  0  0  0  0  0
  160.8100  208.0720  153.5730 C   0  0  0  0  0  0  0  0  0  0  0  0
  160.8260  209.5630  155.9510 C   0  0  0  0  0  0  0  0  0  0  0  0
  160.8290  207.2890  152.3730 N   0  0  0  0  0  0  0  0  0  0  0  0
  161.4580  206.1610  152.2740 C   0  0  0  0  0  3  0  0  0  0  0  0
  161.4410  205.3950  150.9950 C   0  0  2  0  0  3  0  0  0  0  0  0
  160.6760  206.0800  150.0500 O   0  0  0  0  0  1  0  0  0  0  0  0
  160.8860  204.0240  151.2030 C   0  0  0  0  0  0  0  0  0  0  0  0
  160.6180  203.2160  150.1060 O   0  0  0  0  0  0  0  0  0  0  0  0
  160.6790  203.5870  152.3670 O   0  0  0  0  0  1  0  0  0  0  0  0
  155.5220  212.6070  154.2150 N   0  0  0  0  0  0  0  0  0  0  0  0
  156.6480  212.8680  154.2720 C   0  0  0  0  0  0  0  0  0  0  0  0
  159.8470  212.2950  151.6180 O   0  0  0  0  0  1  0  0  0  0  0  0
  160.0680  212.5310  152.9770 C   0  0  0  0  0  2  0  0  0  0  0  0
  1 10  1  0  0  0  0
  2  1  1  0  0  0  0
  2 14  1  0  0  0  0
  4 25  1  1  0  0  0
  4  6  1  0  0  0  0
  4  1  1  0  0  0  0
  5  3  1  0  0  0  0
  6 23  1  1  0  0  0
  6 11  1  0  0  0  0
  7 14  2  0  0  0  0
  7  8  1  0  0  0  0
  9  2  2  0  0  0  0
 10  3  1  1  0  0  0
 11 10  1  0  0  0  0
 12  7  1  0  0  0  0
 13  9  1  0  0  0  0
 13 12  2  0  0  0  0
 14  5  1  0  0  0  0
 15 13  1  0  0  0  0
 16 15  2  0  0  0  0
 17 18  1  6  0  0  0
 17 19  1  0  0  0  0
 17 16  1  0  0  0  0
 19 21  1  0  0  0  0
 20 19  2  0  0  0  0
 22 23  3  0  0  0  0
 24 25  1  0  0  0  0
M  END
>  <MODEL>
9

>  <REMARK>
 VINA RESULT:      -5.0      3.482      5.005
  Name = 
  5 active torsions:
  status: ('A' for Active; 'I' for Inactive)
    1  A    between atoms: C_2  and  C_21
    2  A    between atoms: C_5  and  C_22
    3  A    between atoms: N_6  and  C_23
    4  A    between atoms: C_10  and  C_11
    5  A    between atoms: C_15  and  C_21
                            x       y       z     vdW  Elec       q    Type
                         _______ _______ _______ _____ _____    ______ ____

>  <TORSDO>
F 5

$$$$
