=
 OpenBabel11052422573D

 28 32  0  0  0  0  0  0  0  0999 V2000
  161.2430  205.0070  148.7440 C   0  0  0  0  0  0  0  0  0  0  0  0
  160.7020  206.4750  153.5540 C   0  0  0  0  0  3  0  0  0  0  0  0
  162.2770  209.7740  148.6020 N   0  0  0  0  0  1  0  0  0  0  0  0
  161.2200  208.8340  153.4530 C   0  0  0  0  0  0  0  0  0  0  0  0
  161.3060  207.5100  151.4170 C   0  0  0  0  0  0  0  0  0  0  0  0
  160.6230  207.7850  155.5350 C   0  0  0  0  0  0  0  0  0  0  0  0
  161.0760  207.5930  152.7980 C   0  0  0  0  0  0  0  0  0  0  0  0
  161.8070  209.8610  151.3770 N   0  0  0  0  0  0  0  0  0  0  0  0
  160.9930  208.9290  154.8250 C   0  0  0  0  0  3  0  0  0  0  0  0
  161.7590  207.3780  148.6720 C   0  0  0  0  0  0  0  0  0  0  0  0
  161.1760  206.3300  150.7520 N   0  0  0  0  0  0  0  0  0  0  0  0
  161.5890  209.9600  152.7170 C   0  0  0  0  0  3  0  0  0  0  0  0
  161.8270  206.0990  146.6710 C   0  0  0  0  0  3  0  0  0  0  0  0
  161.9040  208.6060  149.3320 C   0  0  0  0  0  0  0  0  0  0  0  0
  161.9670  207.2800  147.3310 N   0  0  0  0  0  0  0  0  0  0  0  0
  160.3330  207.8840  157.2580 Cl  0  0  0  0  0  0  0  0  0  0  0  0
  160.4860  206.5930  154.8910 N   0  0  0  0  0  0  0  0  0  0  0  0
  161.6760  208.6790  150.7130 C   0  0  0  0  0  0  0  0  0  0  0  0
  161.4590  204.9440  147.3660 C   0  0  0  0  0  3  0  0  0  0  0  0
  161.3880  206.2340  149.4110 C   0  0  0  0  0  0  0  0  0  0  0  0
  160.8310  203.7650  149.4720 C   0  0  0  0  0  2  0  0  0  0  0  0
  161.0020  202.5600  148.6070 C   0  0  0  0  0  0  0  0  0  0  0  0
  161.2850  200.2890  146.9960 C   0  0  0  0  0  0  0  0  0  0  0  0
  160.6900  202.6240  147.2440 C   0  0  0  0  0  3  0  0  0  0  0  0
  161.4510  201.3570  149.1640 C   0  0  0  0  0  3  0  0  0  0  0  0
  161.5930  200.2230  148.3590 C   0  0  0  0  0  3  0  0  0  0  0  0
  161.4240  199.1900  146.2180 F   0  0  0  0  0  0  0  0  0  0  0  0
  160.8320  201.4890  146.4390 C   0  0  0  0  0  3  0  0  0  0  0  0
  1 20  1  0  0  0  0
  1 21  1  0  0  0  0
  2 17  1  0  0  0  0
  3 14  1  0  0  0  0
  4  9  2  0  0  0  0
  5  7  1  0  0  0  0
  6 16  1  0  0  0  0
  7  4  1  0  0  0  0
  7  2  2  0  0  0  0
  8 12  2  0  0  0  0
  9  6  1  0  0  0  0
 10 14  2  0  0  0  0
 10 20  1  0  0  0  0
 11  5  1  0  0  0  0
 12  4  1  0  0  0  0
 13 15  2  0  0  0  0
 13 19  1  0  0  0  0
 14 18  1  0  0  0  0
 15 10  1  0  0  0  0
 17  6  2  0  0  0  0
 18  8  1  0  0  0  0
 18  5  2  0  0  0  0
 19  1  2  0  0  0  0
 20 11  2  0  0  0  0
 22 25  1  0  0  0  0
 22 21  1  0  0  0  0
 23 26  1  0  0  0  0
 24 22  2  0  0  0  0
 26 25  2  0  0  0  0
 27 23  1  0  0  0  0
 28 23  2  0  0  0  0
 28 24  1  0  0  0  0
M  END
>  <MODEL>
1

>  <REMARK>
 VINA RESULT:     -10.8      0.000      0.000
  Name = 
  2 active torsions:
  status: ('A' for Active; 'I' for Inactive)
    1  A    between atoms: C_1  and  C_2
    2  A    between atoms: C_2  and  C_3
                            x       y       z     vdW  Elec       q    Type
                         _______ _______ _______ _____ _____    ______ ____

>  <TORSDO>
F 2

$$$$
=
 OpenBabel11052422573D

 28 32  0  0  0  0  0  0  0  0999 V2000
  161.0750  207.5210  152.2590 C   0  0  0  0  0  0  0  0  0  0  0  0
  161.2430  206.5430  147.3000 C   0  0  0  0  0  3  0  0  0  0  0  0
  161.1620  202.6460  152.0640 N   0  0  0  0  0  1  0  0  0  0  0  0
  161.2860  204.1270  147.2340 C   0  0  0  0  0  0  0  0  0  0  0  0
  161.2070  205.2560  149.3840 C   0  0  0  0  0  0  0  0  0  0  0  0
  161.3200  205.4220  145.2060 C   0  0  0  0  0  0  0  0  0  0  0  0
  161.2450  205.3210  147.9840 C   0  0  0  0  0  0  0  0  0  0  0  0
  161.2470  202.8560  149.2560 N   0  0  0  0  0  0  0  0  0  0  0  0
  161.3230  204.1780  145.8410 C   0  0  0  0  0  3  0  0  0  0  0  0
  161.1200  205.0960  152.1630 C   0  0  0  0  0  0  0  0  0  0  0  0
  161.1670  206.3870  150.1400 N   0  0  0  0  0  0  0  0  0  0  0  0
  161.2850  202.8990  147.8970 C   0  0  0  0  0  3  0  0  0  0  0  0
  161.0220  206.1880  154.2710 C   0  0  0  0  0  3  0  0  0  0  0  0
  161.1640  203.9150  151.4100 C   0  0  0  0  0  0  0  0  0  0  0  0
  161.0710  205.0540  153.5230 N   0  0  0  0  0  0  0  0  0  0  0  0
  161.3660  205.5070  143.4580 Cl  0  0  0  0  0  0  0  0  0  0  0  0
  161.2800  206.5670  145.9410 N   0  0  0  0  0  0  0  0  0  0  0  0
  161.2060  203.9890  150.0110 C   0  0  0  0  0  0  0  0  0  0  0  0
  161.0210  207.4400  153.6520 C   0  0  0  0  0  3  0  0  0  0  0  0
  161.1220  206.3420  151.4990 C   0  0  0  0  0  0  0  0  0  0  0  0
  161.0540  208.8700  151.6090 C   0  0  0  0  0  2  0  0  0  0  0  0
  160.7480  209.9370  152.6070 C   0  0  0  0  0  0  0  0  0  0  0  0
  160.1560  211.9090  154.5030 C   0  0  0  0  0  0  0  0  0  0  0  0
  161.6740  210.2450  153.6110 C   0  0  0  0  0  3  0  0  0  0  0  0
  159.5240  210.6140  152.5560 C   0  0  0  0  0  3  0  0  0  0  0  0
  159.2290  211.6000  153.5020 C   0  0  0  0  0  3  0  0  0  0  0  0
  159.8690  212.8640  155.4190 F   0  0  0  0  0  0  0  0  0  0  0  0
  161.3780  211.2310  154.5580 C   0  0  0  0  0  3  0  0  0  0  0  0
  1 19  1  0  0  0  0
  2  7  1  0  0  0  0
  4 12  1  0  0  0  0
  4  7  2  0  0  0  0
  5 18  1  0  0  0  0
  5 11  2  0  0  0  0
  6  9  2  0  0  0  0
  6 17  1  0  0  0  0
  7  5  1  0  0  0  0
  8 18  1  0  0  0  0
  9  4  1  0  0  0  0
 10 15  2  0  0  0  0
 11 20  1  0  0  0  0
 12  8  2  0  0  0  0
 14  3  1  0  0  0  0
 14 10  1  0  0  0  0
 15 13  1  0  0  0  0
 16  6  1  0  0  0  0
 17  2  2  0  0  0  0
 18 14  2  0  0  0  0
 19 13  2  0  0  0  0
 20 10  1  0  0  0  0
 20  1  2  0  0  0  0
 21  1  1  0  0  0  0
 21 22  1  0  0  0  0
 22 24  1  0  0  0  0
 23 28  1  0  0  0  0
 23 27  1  0  0  0  0
 24 28  2  0  0  0  0
 25 22  2  0  0  0  0
 25 26  1  0  0  0  0
 26 23  2  0  0  0  0
M  END
>  <MODEL>
2

>  <REMARK>
 VINA RESULT:     -10.3      4.472      8.769
  Name = 
  2 active torsions:
  status: ('A' for Active; 'I' for Inactive)
    1  A    between atoms: C_1  and  C_2
    2  A    between atoms: C_2  and  C_3
                            x       y       z     vdW  Elec       q    Type
                         _______ _______ _______ _____ _____    ______ ____

>  <TORSDO>
F 2

$$$$
=
 OpenBabel11052422573D

 28 32  0  0  0  0  0  0  0  0999 V2000
  161.1400  204.0370  149.7850 C   0  0  0  0  0  0  0  0  0  0  0  0
  161.8800  208.9360  148.7730 C   0  0  0  0  0  3  0  0  0  0  0  0
  161.1110  206.1260  154.1950 N   0  0  0  0  0  1  0  0  0  0  0  0
  161.8610  209.9430  150.9710 C   0  0  0  0  0  0  0  0  0  0  0  0
  161.5430  207.5440  150.7610 C   0  0  0  0  0  0  0  0  0  0  0  0
  162.1900  211.2820  148.9980 C   0  0  0  0  0  0  0  0  0  0  0  0
  161.7590  208.7930  150.1610 C   0  0  0  0  0  0  0  0  0  0  0  0
  161.5370  208.6010  152.9200 N   0  0  0  0  0  0  0  0  0  0  0  0
  162.0770  211.1910  150.3870 C   0  0  0  0  0  3  0  0  0  0  0  0
  161.1240  205.0750  151.9790 C   0  0  0  0  0  0  0  0  0  0  0  0
  161.4400  206.4130  150.0110 N   0  0  0  0  0  0  0  0  0  0  0  0
  161.7460  209.8210  152.3560 C   0  0  0  0  0  3  0  0  0  0  0  0
  160.8320  202.7240  151.7880 C   0  0  0  0  0  3  0  0  0  0  0  0
  161.2230  206.2240  152.7750 C   0  0  0  0  0  0  0  0  0  0  0  0
  160.9250  203.8520  152.5430 N   0  0  0  0  0  0  0  0  0  0  0  0
  162.4620  212.8390  148.2460 Cl  0  0  0  0  0  0  0  0  0  0  0  0
  162.0910  210.1640  148.2270 N   0  0  0  0  0  0  0  0  0  0  0  0
  161.4350  207.4690  152.1680 C   0  0  0  0  0  0  0  0  0  0  0  0
  160.9410  202.7980  150.3980 C   0  0  0  0  0  3  0  0  0  0  0  0
  161.2370  205.1920  150.5770 C   0  0  0  0  0  0  0  0  0  0  0  0
  161.2740  204.0970  148.2940 C   0  0  0  0  0  2  0  0  0  0  0  0
  161.2180  202.7290  147.7000 C   0  0  0  0  0  0  0  0  0  0  0  0
  161.1520  200.1690  146.5710 C   0  0  0  0  0  0  0  0  0  0  0  0
  161.5550  201.6120  148.4740 C   0  0  0  0  0  3  0  0  0  0  0  0
  160.8520  202.5620  146.3590 C   0  0  0  0  0  3  0  0  0  0  0  0
  160.8180  201.2840  145.7960 C   0  0  0  0  0  3  0  0  0  0  0  0
  161.1170  198.9300  146.0240 F   0  0  0  0  0  0  0  0  0  0  0  0
  161.5210  200.3330  147.9090 C   0  0  0  0  0  3  0  0  0  0  0  0
  1 19  2  0  0  0  0
  1 20  1  0  0  0  0
  2  7  1  0  0  0  0
  4 12  1  0  0  0  0
  5 18  1  0  0  0  0
  6  9  2  0  0  0  0
  7  5  1  0  0  0  0
  7  4  2  0  0  0  0
  9  4  1  0  0  0  0
 10 15  1  0  0  0  0
 10 14  1  0  0  0  0
 11 20  1  0  0  0  0
 11  5  2  0  0  0  0
 12  8  2  0  0  0  0
 13 15  2  0  0  0  0
 14  3  1  0  0  0  0
 16  6  1  0  0  0  0
 17  2  2  0  0  0  0
 17  6  1  0  0  0  0
 18 14  2  0  0  0  0
 18  8  1  0  0  0  0
 19 13  1  0  0  0  0
 20 10  2  0  0  0  0
 21  1  1  0  0  0  0
 22 21  1  0  0  0  0
 22 24  1  0  0  0  0
 23 28  1  0  0  0  0
 25 22  2  0  0  0  0
 26 25  1  0  0  0  0
 26 23  2  0  0  0  0
 27 23  1  0  0  0  0
 28 24  2  0  0  0  0
M  END
>  <MODEL>
3

>  <REMARK>
 VINA RESULT:      -9.8      2.432      4.290
  Name = 
  2 active torsions:
  status: ('A' for Active; 'I' for Inactive)
    1  A    between atoms: C_1  and  C_2
    2  A    between atoms: C_2  and  C_3
                            x       y       z     vdW  Elec       q    Type
                         _______ _______ _______ _____ _____    ______ ____

>  <TORSDO>
F 2

$$$$
=
 OpenBabel11052422573D

 28 32  0  0  0  0  0  0  0  0999 V2000
  161.9420  208.9160  150.1420 C   0  0  0  0  0  0  0  0  0  0  0  0
  161.4450  204.2200  148.3300 C   0  0  0  0  0  3  0  0  0  0  0  0
  161.0000  206.2540  154.1220 N   0  0  0  0  0  1  0  0  0  0  0  0
  160.9800  202.9280  150.3190 C   0  0  0  0  0  0  0  0  0  0  0  0
  161.3360  205.3230  150.5150 C   0  0  0  0  0  0  0  0  0  0  0  0
  161.0940  201.8760  148.1570 C   0  0  0  0  0  0  0  0  0  0  0  0
  161.2570  204.1720  149.7170 C   0  0  0  0  0  0  0  0  0  0  0  0
  160.8660  203.9870  152.4570 N   0  0  0  0  0  0  0  0  0  0  0  0
  160.8980  201.7760  149.5360 C   0  0  0  0  0  3  0  0  0  0  0  0
  161.4750  207.5930  152.1230 C   0  0  0  0  0  0  0  0  0  0  0  0
  161.6010  206.5410  149.9690 N   0  0  0  0  0  0  0  0  0  0  0  0
  160.7870  202.8600  151.6990 C   0  0  0  0  0  3  0  0  0  0  0  0
  161.8010  209.9380  152.3250 C   0  0  0  0  0  3  0  0  0  0  0  0
  161.2040  206.3510  152.7130 C   0  0  0  0  0  0  0  0  0  0  0  0
  161.5440  208.7230  152.8790 N   0  0  0  0  0  0  0  0  0  0  0  0
  160.9950  200.4430  147.1570 Cl  0  0  0  0  0  0  0  0  0  0  0  0
  161.3600  203.0840  147.5880 N   0  0  0  0  0  0  0  0  0  0  0  0
  161.1310  205.2050  151.9090 C   0  0  0  0  0  0  0  0  0  0  0  0
  162.0010  210.0550  150.9470 C   0  0  0  0  0  3  0  0  0  0  0  0
  161.6730  207.6680  150.7270 C   0  0  0  0  0  0  0  0  0  0  0  0
  162.1400  209.0600  148.6640 C   0  0  0  0  0  2  0  0  0  0  0  0
  162.0170  210.4880  148.2480 C   0  0  0  0  0  0  0  0  0  0  0  0
  161.8060  213.1580  147.4340 C   0  0  0  0  0  0  0  0  0  0  0  0
  160.8600  210.9350  147.6000 C   0  0  0  0  0  3  0  0  0  0  0  0
  163.0710  211.3790  148.4840 C   0  0  0  0  0  3  0  0  0  0  0  0
  162.9650  212.7120  148.0780 C   0  0  0  0  0  3  0  0  0  0  0  0
  161.7050  214.4500  147.0410 F   0  0  0  0  0  0  0  0  0  0  0  0
  160.7540  212.2690  147.1940 C   0  0  0  0  0  3  0  0  0  0  0  0
  1 20  2  0  0  0  0
  1 19  1  0  0  0  0
  2  7  1  0  0  0  0
  4 12  1  0  0  0  0
  5 18  1  0  0  0  0
  6  9  2  0  0  0  0
  7  4  2  0  0  0  0
  7  5  1  0  0  0  0
  9  4  1  0  0  0  0
 10 14  1  0  0  0  0
 10 15  2  0  0  0  0
 11  5  2  0  0  0  0
 11 20  1  0  0  0  0
 12  8  2  0  0  0  0
 13 15  1  0  0  0  0
 14  3  1  0  0  0  0
 16  6  1  0  0  0  0
 17  6  1  0  0  0  0
 17  2  2  0  0  0  0
 18  8  1  0  0  0  0
 18 14  2  0  0  0  0
 19 13  2  0  0  0  0
 20 10  1  0  0  0  0
 21  1  1  0  0  0  0
 22 25  1  0  0  0  0
 22 21  1  0  0  0  0
 23 26  1  0  0  0  0
 24 22  2  0  0  0  0
 26 25  2  0  0  0  0
 27 23  1  0  0  0  0
 28 23  2  0  0  0  0
 28 24  1  0  0  0  0
M  END
>  <MODEL>
4

>  <REMARK>
 VINA RESULT:      -9.6      4.361      7.920
  Name = 
  2 active torsions:
  status: ('A' for Active; 'I' for Inactive)
    1  A    between atoms: C_1  and  C_2
    2  A    between atoms: C_2  and  C_3
                            x       y       z     vdW  Elec       q    Type
                         _______ _______ _______ _____ _____    ______ ____

>  <TORSDO>
F 2

$$$$
=
 OpenBabel11052422573D

 28 32  0  0  0  0  0  0  0  0999 V2000
  161.2150  209.1730  152.6990 C   0  0  0  0  0  0  0  0  0  0  0  0
  161.3280  207.2180  148.0360 C   0  0  0  0  0  3  0  0  0  0  0  0
  161.0200  204.3600  153.4780 N   0  0  0  0  0  1  0  0  0  0  0  0
  161.2310  204.8390  148.4530 C   0  0  0  0  0  0  0  0  0  0  0  0
  161.2170  206.3760  150.3340 C   0  0  0  0  0  0  0  0  0  0  0  0
  161.3410  205.7000  146.2080 C   0  0  0  0  0  0  0  0  0  0  0  0
  161.2600  206.1590  148.9490 C   0  0  0  0  0  0  0  0  0  0  0  0
  161.1180  204.0010  150.6870 N   0  0  0  0  0  0  0  0  0  0  0  0
  161.2710  204.6100  147.0780 C   0  0  0  0  0  3  0  0  0  0  0  0
  161.1190  206.7790  153.0880 C   0  0  0  0  0  0  0  0  0  0  0  0
  161.2420  207.6360  150.8490 N   0  0  0  0  0  0  0  0  0  0  0  0
  161.1590  203.7700  149.3460 C   0  0  0  0  0  3  0  0  0  0  0  0
  161.0850  208.2730  154.9360 C   0  0  0  0  0  3  0  0  0  0  0  0
  161.0960  205.4710  152.5850 C   0  0  0  0  0  0  0  0  0  0  0  0
  161.0680  207.0110  154.4280 N   0  0  0  0  0  0  0  0  0  0  0  0
  161.3930  205.4330  144.4790 Cl  0  0  0  0  0  0  0  0  0  0  0  0
  161.3670  206.9690  146.7000 N   0  0  0  0  0  0  0  0  0  0  0  0
  161.1430  205.2620  151.2000 C   0  0  0  0  0  0  0  0  0  0  0  0
  161.1560  209.3740  154.0800 C   0  0  0  0  0  3  0  0  0  0  0  0
  161.1940  207.8650  152.1890 C   0  0  0  0  0  0  0  0  0  0  0  0
  161.2720  210.3640  151.7930 C   0  0  0  0  0  2  0  0  0  0  0  0
  160.1910  211.3380  152.1270 C   0  0  0  0  0  0  0  0  0  0  0  0
  158.1450  213.1540  152.7190 C   0  0  0  0  0  0  0  0  0  0  0  0
  159.1160  210.9460  152.9340 C   0  0  0  0  0  3  0  0  0  0  0  0
  160.2370  212.6400  151.6140 C   0  0  0  0  0  3  0  0  0  0  0  0
  159.2160  213.5460  151.9100 C   0  0  0  0  0  3  0  0  0  0  0  0
  157.1560  214.0340  153.0060 F   0  0  0  0  0  0  0  0  0  0  0  0
  158.0940  211.8540  153.2310 C   0  0  0  0  0  3  0  0  0  0  0  0
  1 19  1  0  0  0  0
  2  7  1  0  0  0  0
  4  7  2  0  0  0  0
  4 12  1  0  0  0  0
  5 11  2  0  0  0  0
  5 18  1  0  0  0  0
  6 17  1  0  0  0  0
  6  9  2  0  0  0  0
  7  5  1  0  0  0  0
  8 18  1  0  0  0  0
  9  4  1  0  0  0  0
 10 15  2  0  0  0  0
 11 20  1  0  0  0  0
 12  8  2  0  0  0  0
 14 10  1  0  0  0  0
 14  3  1  0  0  0  0
 15 13  1  0  0  0  0
 16  6  1  0  0  0  0
 17  2  2  0  0  0  0
 18 14  2  0  0  0  0
 19 13  2  0  0  0  0
 20  1  2  0  0  0  0
 20 10  1  0  0  0  0
 21 22  1  0  0  0  0
 21  1  1  0  0  0  0
 22 24  1  0  0  0  0
 23 27  1  0  0  0  0
 23 28  1  0  0  0  0
 24 28  2  0  0  0  0
 25 26  1  0  0  0  0
 25 22  2  0  0  0  0
 26 23  2  0  0  0  0
M  END
>  <MODEL>
5

>  <REMARK>
 VINA RESULT:      -9.4      4.484      8.776
  Name = 
  2 active torsions:
  status: ('A' for Active; 'I' for Inactive)
    1  A    between atoms: C_1  and  C_2
    2  A    between atoms: C_2  and  C_3
                            x       y       z     vdW  Elec       q    Type
                         _______ _______ _______ _____ _____    ______ ____

>  <TORSDO>
F 2

$$$$
=
 OpenBabel11052422573D

 28 32  0  0  0  0  0  0  0  0999 V2000
  161.2750  206.0070  151.6710 C   0  0  0  0  0  0  0  0  0  0  0  0
  161.4760  206.0570  146.6180 C   0  0  0  0  0  3  0  0  0  0  0  0
  160.6070  201.3270  150.4600 N   0  0  0  0  0  1  0  0  0  0  0  0
  161.1430  203.7310  146.0480 C   0  0  0  0  0  0  0  0  0  0  0  0
  161.1600  204.3910  148.3860 C   0  0  0  0  0  0  0  0  0  0  0  0
  161.4560  205.3930  144.3360 C   0  0  0  0  0  0  0  0  0  0  0  0
  161.2610  204.7350  147.0300 C   0  0  0  0  0  0  0  0  0  0  0  0
  160.8300  202.0940  147.7590 N   0  0  0  0  0  0  0  0  0  0  0  0
  161.2400  204.0610  144.6960 C   0  0  0  0  0  3  0  0  0  0  0  0
  160.9440  203.6780  151.0690 C   0  0  0  0  0  0  0  0  0  0  0  0
  161.2690  205.3330  149.3610 N   0  0  0  0  0  0  0  0  0  0  0  0
  160.9260  202.4090  146.4390 C   0  0  0  0  0  3  0  0  0  0  0  0
  160.9390  204.3140  153.3590 C   0  0  0  0  0  3  0  0  0  0  0  0
  160.8320  202.6860  150.0860 C   0  0  0  0  0  0  0  0  0  0  0  0
  160.8380  203.3650  152.3900 N   0  0  0  0  0  0  0  0  0  0  0  0
  161.5810  205.8280  142.6450 Cl  0  0  0  0  0  0  0  0  0  0  0  0
  161.5680  206.3540  145.2940 N   0  0  0  0  0  0  0  0  0  0  0  0
  160.9380  203.0390  148.7340 C   0  0  0  0  0  0  0  0  0  0  0  0
  161.1560  205.6500  153.0160 C   0  0  0  0  0  3  0  0  0  0  0  0
  161.1660  205.0170  150.6810 C   0  0  0  0  0  0  0  0  0  0  0  0
  161.4890  207.4460  151.3170 C   0  0  0  0  0  2  0  0  0  0  0  0
  161.0340  208.3390  152.4240 C   0  0  0  0  0  0  0  0  0  0  0  0
  160.2190  210.0270  154.5020 C   0  0  0  0  0  0  0  0  0  0  0  0
  160.4570  209.5800  152.1340 C   0  0  0  0  0  3  0  0  0  0  0  0
  161.2070  207.9450  153.7560 C   0  0  0  0  0  3  0  0  0  0  0  0
  160.7990  208.7880  154.7940 C   0  0  0  0  0  3  0  0  0  0  0  0
  159.8240  210.8430  155.5080 F   0  0  0  0  0  0  0  0  0  0  0  0
  160.0490  210.4230  153.1730 C   0  0  0  0  0  3  0  0  0  0  0  0
  1 19  1  0  0  0  0
  2  7  1  0  0  0  0
  4 12  1  0  0  0  0
  4  7  2  0  0  0  0
  5 18  1  0  0  0  0
  5 11  2  0  0  0  0
  6  9  2  0  0  0  0
  6 17  1  0  0  0  0
  7  5  1  0  0  0  0
  8 18  1  0  0  0  0
  9  4  1  0  0  0  0
 10 15  2  0  0  0  0
 11 20  1  0  0  0  0
 12  8  2  0  0  0  0
 14  3  1  0  0  0  0
 14 10  1  0  0  0  0
 15 13  1  0  0  0  0
 16  6  1  0  0  0  0
 17  2  2  0  0  0  0
 18 14  2  0  0  0  0
 19 13  2  0  0  0  0
 20 10  1  0  0  0  0
 20  1  2  0  0  0  0
 21  1  1  0  0  0  0
 21 22  1  0  0  0  0
 22 25  1  0  0  0  0
 23 26  1  0  0  0  0
 23 27  1  0  0  0  0
 24 22  2  0  0  0  0
 24 28  1  0  0  0  0
 25 26  2  0  0  0  0
 28 23  2  0  0  0  0
M  END
>  <MODEL>
6

>  <REMARK>
 VINA RESULT:      -9.3      4.466      8.582
  Name = 
  2 active torsions:
  status: ('A' for Active; 'I' for Inactive)
    1  A    between atoms: C_1  and  C_2
    2  A    between atoms: C_2  and  C_3
                            x       y       z     vdW  Elec       q    Type
                         _______ _______ _______ _____ _____    ______ ____

>  <TORSDO>
F 2

$$$$
=
 OpenBabel11052422573D

 28 32  0  0  0  0  0  0  0  0999 V2000
  161.5700  207.3780  152.8320 C   0  0  0  0  0  0  0  0  0  0  0  0
  161.9950  210.9060  149.2330 C   0  0  0  0  0  3  0  0  0  0  0  0
  159.1200  211.1770  154.6680 N   0  0  0  0  0  1  0  0  0  0  0  0
  160.7750  212.7710  150.1680 C   0  0  0  0  0  0  0  0  0  0  0  0
  160.9450  210.7060  151.4380 C   0  0  0  0  0  0  0  0  0  0  0  0
  161.8180  212.9330  148.0060 C   0  0  0  0  0  0  0  0  0  0  0  0
  161.2420  211.4460  150.2830 C   0  0  0  0  0  0  0  0  0  0  0  0
  159.7480  212.5960  152.3180 N   0  0  0  0  0  0  0  0  0  0  0  0
  161.0640  213.5170  149.0260 C   0  0  0  0  0  3  0  0  0  0  0  0
  160.3500  209.2670  153.7460 C   0  0  0  0  0  0  0  0  0  0  0  0
  161.3790  209.4250  151.5830 N   0  0  0  0  0  0  0  0  0  0  0  0
  160.0250  213.3280  151.2050 C   0  0  0  0  0  3  0  0  0  0  0  0
  160.5260  207.2590  155.0060 C   0  0  0  0  0  3  0  0  0  0  0  0
  159.8860  210.5830  153.6210 C   0  0  0  0  0  0  0  0  0  0  0  0
  160.0810  208.5360  154.8630 N   0  0  0  0  0  0  0  0  0  0  0  0
  162.1930  213.8520  146.5640 Cl  0  0  0  0  0  0  0  0  0  0  0  0
  162.2650  211.6530  148.1290 N   0  0  0  0  0  0  0  0  0  0  0  0
  160.1840  211.3130  152.4620 C   0  0  0  0  0  0  0  0  0  0  0  0
  161.2800  206.6600  153.9940 C   0  0  0  0  0  3  0  0  0  0  0  0
  161.1070  208.6960  152.7000 C   0  0  0  0  0  0  0  0  0  0  0  0
  162.3960  206.7280  151.7640 C   0  0  0  0  0  2  0  0  0  0  0  0
  161.7090  205.5190  151.2230 C   0  0  0  0  0  0  0  0  0  0  0  0
  160.4560  203.2380  150.1910 C   0  0  0  0  0  0  0  0  0  0  0  0
  161.5870  204.3680  152.0110 C   0  0  0  0  0  3  0  0  0  0  0  0
  161.2060  205.5240  149.9170 C   0  0  0  0  0  3  0  0  0  0  0  0
  160.5800  204.3860  149.4020 C   0  0  0  0  0  3  0  0  0  0  0  0
  159.8490  202.1360  149.6920 F   0  0  0  0  0  0  0  0  0  0  0  0
  160.9610  203.2290  151.4950 C   0  0  0  0  0  3  0  0  0  0  0  0
  1 19  1  0  0  0  0
  2  7  1  0  0  0  0
  4  7  2  0  0  0  0
  4 12  1  0  0  0  0
  5 11  2  0  0  0  0
  5 18  1  0  0  0  0
  6 17  1  0  0  0  0
  6  9  2  0  0  0  0
  7  5  1  0  0  0  0
  8 18  1  0  0  0  0
  9  4  1  0  0  0  0
 10 15  2  0  0  0  0
 11 20  1  0  0  0  0
 12  8  2  0  0  0  0
 14 10  1  0  0  0  0
 14  3  1  0  0  0  0
 15 13  1  0  0  0  0
 16  6  1  0  0  0  0
 17  2  2  0  0  0  0
 18 14  2  0  0  0  0
 19 13  2  0  0  0  0
 20  1  2  0  0  0  0
 20 10  1  0  0  0  0
 21  1  1  0  0  0  0
 22 21  1  0  0  0  0
 22 24  1  0  0  0  0
 23 28  1  0  0  0  0
 25 22  2  0  0  0  0
 26 25  1  0  0  0  0
 26 23  2  0  0  0  0
 27 23  1  0  0  0  0
 28 24  2  0  0  0  0
M  END
>  <MODEL>
7

>  <REMARK>
 VINA RESULT:      -9.2      3.487      6.010
  Name = 
  2 active torsions:
  status: ('A' for Active; 'I' for Inactive)
    1  A    between atoms: C_1  and  C_2
    2  A    between atoms: C_2  and  C_3
                            x       y       z     vdW  Elec       q    Type
                         _______ _______ _______ _____ _____    ______ ____

>  <TORSDO>
F 2

$$$$
=
 OpenBabel11052422573D

 28 32  0  0  0  0  0  0  0  0999 V2000
  160.3340  211.0750  153.4050 C   0  0  0  0  0  0  0  0  0  0  0  0
  161.9920  212.2940  148.7850 C   0  0  0  0  0  3  0  0  0  0  0  0
  156.8860  214.0880  151.7160 N   0  0  0  0  0  1  0  0  0  0  0  0
  160.2690  213.7830  147.9750 C   0  0  0  0  0  0  0  0  0  0  0  0
  160.0590  212.8180  150.1950 C   0  0  0  0  0  0  0  0  0  0  0  0
  162.1810  213.2470  146.6160 C   0  0  0  0  0  0  0  0  0  0  0  0
  160.7760  212.9560  148.9980 C   0  0  0  0  0  0  0  0  0  0  0  0
  158.3790  214.3080  149.3380 N   0  0  0  0  0  0  0  0  0  0  0  0
  160.9740  213.9290  146.7810 C   0  0  0  0  0  3  0  0  0  0  0  0
  158.6170  212.5730  152.5650 C   0  0  0  0  0  0  0  0  0  0  0  0
  160.5180  212.0290  151.2040 N   0  0  0  0  0  0  0  0  0  0  0  0
  159.0610  214.4530  148.1700 C   0  0  0  0  0  3  0  0  0  0  0  0
  158.4100  211.6520  154.7460 C   0  0  0  0  0  3  0  0  0  0  0  0
  158.1190  213.3900  151.5410 C   0  0  0  0  0  0  0  0  0  0  0  0
  157.9410  212.4350  153.7390 N   0  0  0  0  0  0  0  0  0  0  0  0
  163.0810  213.4170  145.1250 Cl  0  0  0  0  0  0  0  0  0  0  0  0
  162.6610  212.4520  147.6120 N   0  0  0  0  0  0  0  0  0  0  0  0
  158.8400  213.5180  150.3470 C   0  0  0  0  0  0  0  0  0  0  0  0
  159.6150  210.9620  154.5970 C   0  0  0  0  0  3  0  0  0  0  0  0
  159.8380  211.8900  152.3740 C   0  0  0  0  0  0  0  0  0  0  0  0
  161.6330  210.3440  153.2670 C   0  0  0  0  0  2  0  0  0  0  0  0
  161.4040  208.9230  152.8720 C   0  0  0  0  0  0  0  0  0  0  0  0
  161.0160  206.2520  152.1300 C   0  0  0  0  0  0  0  0  0  0  0  0
  161.2120  207.9430  153.8530 C   0  0  0  0  0  3  0  0  0  0  0  0
  161.4070  208.5630  151.5190 C   0  0  0  0  0  3  0  0  0  0  0  0
  161.2120  207.2290  151.1490 C   0  0  0  0  0  3  0  0  0  0  0  0
  160.8260  204.9610  151.7700 F   0  0  0  0  0  0  0  0  0  0  0  0
  161.0170  206.6090  153.4820 C   0  0  0  0  0  3  0  0  0  0  0  0
  1 19  1  0  0  0  0
  2  7  1  0  0  0  0
  4 12  1  0  0  0  0
  4  7  2  0  0  0  0
  5 18  1  0  0  0  0
  5 11  2  0  0  0  0
  6  9  2  0  0  0  0
  6 17  1  0  0  0  0
  7  5  1  0  0  0  0
  8 18  1  0  0  0  0
  9  4  1  0  0  0  0
 10 15  2  0  0  0  0
 11 20  1  0  0  0  0
 12  8  2  0  0  0  0
 14  3  1  0  0  0  0
 14 10  1  0  0  0  0
 15 13  1  0  0  0  0
 16  6  1  0  0  0  0
 17  2  2  0  0  0  0
 18 14  2  0  0  0  0
 19 13  2  0  0  0  0
 20 10  1  0  0  0  0
 20  1  2  0  0  0  0
 21  1  1  0  0  0  0
 22 21  1  0  0  0  0
 22 24  1  0  0  0  0
 23 28  1  0  0  0  0
 25 22  2  0  0  0  0
 26 25  1  0  0  0  0
 26 23  2  0  0  0  0
 27 23  1  0  0  0  0
 28 24  2  0  0  0  0
M  END
>  <MODEL>
8

>  <REMARK>
 VINA RESULT:      -8.4      5.070      8.147
  Name = 
  2 active torsions:
  status: ('A' for Active; 'I' for Inactive)
    1  A    between atoms: C_1  and  C_2
    2  A    between atoms: C_2  and  C_3
                            x       y       z     vdW  Elec       q    Type
                         _______ _______ _______ _____ _____    ______ ____

>  <TORSDO>
F 2

$$$$
=
 OpenBabel11052422573D

 28 32  0  0  0  0  0  0  0  0999 V2000
  161.2430  206.4100  149.8530 C   0  0  0  0  0  0  0  0  0  0  0  0
  160.1610  210.8840  151.9490 C   0  0  0  0  0  3  0  0  0  0  0  0
  161.2040  205.4460  154.6370 N   0  0  0  0  0  1  0  0  0  0  0  0
  160.1480  210.3760  154.3120 C   0  0  0  0  0  0  0  0  0  0  0  0
  160.6110  208.6020  152.7190 C   0  0  0  0  0  0  0  0  0  0  0  0
  159.7100  212.6070  153.5220 C   0  0  0  0  0  0  0  0  0  0  0  0
  160.3080  209.9460  152.9790 C   0  0  0  0  0  0  0  0  0  0  0  0
  160.5880  208.1580  155.0810 N   0  0  0  0  0  0  0  0  0  0  0  0
  159.8480  211.7110  154.5840 C   0  0  0  0  0  3  0  0  0  0  0  0
  161.2230  205.9290  152.2330 C   0  0  0  0  0  0  0  0  0  0  0  0
  160.7730  208.1510  151.4450 N   0  0  0  0  0  0  0  0  0  0  0  0
  160.2940  209.4580  155.3520 C   0  0  0  0  0  3  0  0  0  0  0  0
  161.6970  204.1890  150.6850 C   0  0  0  0  0  3  0  0  0  0  0  0
  161.0570  206.3640  153.5540 C   0  0  0  0  0  0  0  0  0  0  0  0
  161.5270  204.6300  151.9600 N   0  0  0  0  0  0  0  0  0  0  0  0
  159.3340  214.2860  153.8420 Cl  0  0  0  0  0  0  0  0  0  0  0  0
  159.8680  212.1790  152.2390 N   0  0  0  0  0  0  0  0  0  0  0  0
  160.7510  207.7090  153.8050 C   0  0  0  0  0  0  0  0  0  0  0  0
  161.5610  205.0710  149.6110 C   0  0  0  0  0  3  0  0  0  0  0  0
  161.0740  206.8520  151.1750 C   0  0  0  0  0  0  0  0  0  0  0  0
  161.1190  207.3480  148.6930 C   0  0  0  0  0  2  0  0  0  0  0  0
  161.2500  206.6140  147.3990 C   0  0  0  0  0  0  0  0  0  0  0  0
  161.5040  205.2740  144.9560 C   0  0  0  0  0  0  0  0  0  0  0  0
  162.4550  205.9850  147.0660 C   0  0  0  0  0  3  0  0  0  0  0  0
  160.1730  206.5750  146.5050 C   0  0  0  0  0  3  0  0  0  0  0  0
  160.3000  205.9050  145.2850 C   0  0  0  0  0  3  0  0  0  0  0  0
  161.6250  204.6240  143.7740 F   0  0  0  0  0  0  0  0  0  0  0  0
  162.5810  205.3150  145.8450 C   0  0  0  0  0  3  0  0  0  0  0  0
  1 20  1  0  0  0  0
  2 17  2  0  0  0  0
  2  7  1  0  0  0  0
  4  9  1  0  0  0  0
  4 12  1  0  0  0  0
  5  7  1  0  0  0  0
  5 18  1  0  0  0  0
  6 16  1  0  0  0  0
  6  9  2  0  0  0  0
  7  4  2  0  0  0  0
  8 12  2  0  0  0  0
 10 14  1  0  0  0  0
 11  5  2  0  0  0  0
 13 15  2  0  0  0  0
 14 18  2  0  0  0  0
 14  3  1  0  0  0  0
 15 10  1  0  0  0  0
 17  6  1  0  0  0  0
 18  8  1  0  0  0  0
 19  1  2  0  0  0  0
 19 13  1  0  0  0  0
 20 11  1  0  0  0  0
 20 10  2  0  0  0  0
 21  1  1  0  0  0  0
 22 21  1  0  0  0  0
 23 26  2  0  0  0  0
 23 28  1  0  0  0  0
 24 22  1  0  0  0  0
 25 22  2  0  0  0  0
 26 25  1  0  0  0  0
 27 23  1  0  0  0  0
 28 24  2  0  0  0  0
M  END
>  <MODEL>
9

>  <REMARK>
 VINA RESULT:      -7.9      2.983      4.516
  Name = 
  2 active torsions:
  status: ('A' for Active; 'I' for Inactive)
    1  A    between atoms: C_1  and  C_2
    2  A    between atoms: C_2  and  C_3
                            x       y       z     vdW  Elec       q    Type
                         _______ _______ _______ _____ _____    ______ ____

>  <TORSDO>
F 2

$$$$
