=
 OpenBabel11062408103D

 34 39  0  0  1  0  0  0  0  0999 V2000
  157.3550  212.9880  155.5690 N   0  0  0  0  0  0  0  0  0  0  0  0
  156.6010  213.5020  153.2910 C   0  0  0  0  0  0  0  0  0  0  0  0
  158.5190  212.0760  153.7730 C   0  0  0  0  0  0  0  0  0  0  0  0
  160.0460  211.4640  151.9470 O   0  0  0  0  0  0  0  0  0  0  0  0
  155.2580  214.2160  155.3310 C   0  0  0  0  0  2  0  0  0  0  0  0
  159.2290  210.1460  155.3430 C   0  0  2  0  0  3  0  0  0  0  0  0
  160.5570  208.2720  156.0690 O   0  0  0  0  0  1  0  0  0  0  0  0
  155.5650  214.4530  153.8360 C   0  0  0  0  0  2  0  0  0  0  0  0
  158.0460  212.7400  151.4880 C   0  0  0  0  0  3  0  0  0  0  0  0
  161.6700  209.6950  154.4740 C   0  0  2  0  0  3  0  0  0  0  0  0
  157.4270  212.8150  154.1780 C   0  0  0  0  0  0  0  0  0  0  0  0
  163.1070  210.2940  156.2780 F   0  0  0  0  0  0  0  0  0  0  0  0
  161.7390  209.9430  152.9600 C   0  0  2  0  0  3  0  0  0  0  0  0
  160.4050  210.1720  152.3090 C   0  0  0  0  0  0  0  0  0  0  0  0
  156.5410  214.0380  156.1670 C   0  0  0  0  0  2  0  0  0  0  0  0
  159.3320  211.6680  154.9980 C   0  0  2  0  0  0  0  0  0  0  0  0
  160.3390  209.1380  154.9940 C   0  0  2  0  0  3  0  0  0  0  0  0
  158.5680  212.4270  156.0630 C   0  0  0  0  0  0  0  0  0  0  0  0
  156.9170  213.4570  151.9260 C   0  0  0  0  0  3  0  0  0  0  0  0
  161.3440  211.6620  155.8890 O   0  0  0  0  0  0  0  0  0  0  0  0
  162.3010  210.8270  155.2960 C   0  0  2  0  0  3  0  0  0  0  0  0
  160.6470  212.1670  154.8880 O   0  0  0  0  0  0  0  0  0  0  0  0
  159.5750  209.2290  152.1790 O   0  0  0  0  0  0  0  0  0  0  0  0
  157.9620  209.6140  155.0730 O   0  0  0  0  0  1  0  0  0  0  0  0
  158.8700  212.0590  152.4060 C   0  0  0  0  0  0  0  0  0  0  0  0
  158.9420  212.5480  157.2610 O   0  0  0  0  0  0  0  0  0  0  0  0
  162.6040  208.9050  152.2410 C   0  0  0  0  0  2  0  0  0  0  0  0
  161.3450  206.7840  149.4740 C   0  0  0  0  0  2  0  0  0  0  0  0
  161.7970  207.8580  151.6310 N   0  0  0  0  0  0  0  0  0  0  0  0
  162.1040  207.8930  150.2020 C   0  0  0  0  0  2  0  0  0  0  0  0
  162.2930  205.4990  151.2760 O   0  0  0  0  0  0  0  0  0  0  0  0
  161.3660  206.1900  153.3970 C   0  0  0  0  0  1  0  0  0  0  0  0
  162.2380  206.5690  152.2100 C   0  0  2  0  0  3  0  0  0  0  0  0
  161.1910  205.5840  150.4020 C   0  0  0  0  0  2  0  0  0  0  0  0
  1 18  1  0  0  0  0
  1 15  1  0  0  0  0
  2  8  1  0  0  0  0
  2 11  1  0  0  0  0
  3 11  2  0  0  0  0
  3 16  1  0  0  0  0
  4 14  1  0  0  0  0
  4 25  1  0  0  0  0
  5 15  1  0  0  0  0
  6 24  1  6  0  0  0
  8  5  1  0  0  0  0
  9 19  1  0  0  0  0
  9 25  2  0  0  0  0
 10 17  1  0  0  0  0
 10 21  1  0  0  0  0
 11  1  1  0  0  0  0
 13 10  1  0  0  0  0
 14 13  1  0  0  0  0
 16  6  1  0  0  0  0
 16 18  1  0  0  0  0
 17  6  1  0  0  0  0
 17  7  1  0  0  0  0
 18 26  2  0  0  0  0
 19  2  2  0  0  0  0
 21 20  1  0  0  0  0
 21 12  1  0  0  0  0
 22 16  1  0  0  0  0
 22 20  1  0  0  0  0
 23 14  2  0  0  0  0
 25  3  1  0  0  0  0
 27 13  1  0  0  0  0
 28 30  1  0  0  0  0
 28 34  1  0  0  0  0
 29 33  1  0  0  0  0
 29 27  1  0  0  0  0
 30 29  1  0  0  0  0
 31 33  1  0  0  0  0
 33 32  1  0  0  0  0
 34 31  1  0  0  0  0
M  END
>  <MODEL>
1

>  <REMARK>
 VINA RESULT:      -4.1      0.000      0.000
  Name = 
  2 active torsions:
  status: ('A' for Active; 'I' for Inactive)
    1  A    between atoms: C_3  and  N_13
    2  A    between atoms: C_3  and  C_17
                            x       y       z     vdW  Elec       q    Type
                         _______ _______ _______ _____ _____    ______ ____

>  <TORSDO>
F 2

$$$$
=
 OpenBabel11062408103D

 34 39  0  0  1  0  0  0  0  0999 V2000
  161.1780  204.7860  151.8170 N   0  0  0  0  0  0  0  0  0  0  0  0
  161.0780  203.9110  149.5260 C   0  0  0  0  0  0  0  0  0  0  0  0
  161.3020  206.2830  150.0400 C   0  0  0  0  0  0  0  0  0  0  0  0
  160.9790  207.9330  148.2470 O   0  0  0  0  0  0  0  0  0  0  0  0
  161.2230  202.3610  151.5400 C   0  0  0  0  0  2  0  0  0  0  0  0
  162.6130  207.8740  151.6030 C   0  0  2  0  0  3  0  0  0  0  0  0
  163.5320  209.9750  152.3400 O   0  0  0  0  0  1  0  0  0  0  0  0
  160.8230  202.5210  150.0570 C   0  0  0  0  0  2  0  0  0  0  0  0
  160.9270  205.5680  147.7530 C   0  0  0  0  0  3  0  0  0  0  0  0
  161.6990  210.2030  150.7930 C   0  0  2  0  0  3  0  0  0  0  0  0
  161.2530  204.9600  150.4260 C   0  0  0  0  0  0  0  0  0  0  0  0
  160.4810  211.0860  152.6410 F   0  0  0  0  0  0  0  0  0  0  0  0
  161.4150  210.1550  149.2840 C   0  0  2  0  0  3  0  0  0  0  0  0
  161.9010  208.9090  148.6020 C   0  0  0  0  0  0  0  0  0  0  0  0
  160.7240  203.5340  152.4070 C   0  0  0  0  0  2  0  0  0  0  0  0
  161.2540  207.1700  151.2800 C   0  0  2  0  0  0  0  0  0  0  0  0
  162.8820  209.3530  151.2710 C   0  0  2  0  0  3  0  0  0  0  0  0
  161.0320  206.1060  152.3350 C   0  0  0  0  0  0  0  0  0  0  0  0
  160.9180  204.2240  148.1700 C   0  0  0  0  0  3  0  0  0  0  0  0
  160.2280  208.8730  152.2240 O   0  0  0  0  0  0  0  0  0  0  0  0
  160.4250  210.1360  151.6450 C   0  0  2  0  0  3  0  0  0  0  0  0
  160.1380  208.0310  151.2110 O   0  0  0  0  0  0  0  0  0  0  0  0
  163.1360  208.6980  148.4380 O   0  0  0  0  0  0  0  0  0  0  0  0
  163.7230  207.0780  151.2940 O   0  0  0  0  0  1  0  0  0  0  0  0
  161.0990  206.6120  148.6820 C   0  0  0  0  0  0  0  0  0  0  0  0
  160.7630  206.3420  153.5440 O   0  0  0  0  0  0  0  0  0  0  0  0
  161.8280  211.4470  148.5750 C   0  0  0  0  0  2  0  0  0  0  0  0
  159.4840  214.2690  149.1050 C   0  0  0  0  0  2  0  0  0  0  0  0
  160.6800  212.2940  148.2830 N   0  0  0  0  0  0  0  0  0  0  0  0
  160.6290  213.2880  149.3530 C   0  0  0  0  0  2  0  0  0  0  0  0
  160.5250  214.3190  146.9350 O   0  0  0  0  0  0  0  0  0  0  0  0
  160.3270  212.1720  145.8440 C   0  0  0  0  0  1  0  0  0  0  0  0
  160.9450  212.9610  146.9880 C   0  0  2  0  0  3  0  0  0  0  0  0
  159.2930  214.4530  147.6040 C   0  0  0  0  0  2  0  0  0  0  0  0
  1 18  1  0  0  0  0
  1 15  1  0  0  0  0
  2  8  1  0  0  0  0
  2 11  1  0  0  0  0
  3 11  2  0  0  0  0
  3 16  1  0  0  0  0
  4 14  1  0  0  0  0
  4 25  1  0  0  0  0
  5 15  1  0  0  0  0
  6 24  1  6  0  0  0
  8  5  1  0  0  0  0
  9 19  1  0  0  0  0
  9 25  2  0  0  0  0
 10 17  1  0  0  0  0
 10 21  1  0  0  0  0
 11  1  1  0  0  0  0
 13 10  1  0  0  0  0
 14 13  1  0  0  0  0
 16  6  1  0  0  0  0
 16 18  1  0  0  0  0
 17  6  1  0  0  0  0
 17  7  1  0  0  0  0
 18 26  2  0  0  0  0
 19  2  2  0  0  0  0
 21 20  1  0  0  0  0
 21 12  1  0  0  0  0
 22 16  1  0  0  0  0
 22 20  1  0  0  0  0
 23 14  2  0  0  0  0
 25  3  1  0  0  0  0
 27 13  1  0  0  0  0
 28 30  1  0  0  0  0
 29 27  1  0  0  0  0
 29 30  1  0  0  0  0
 31 33  1  0  0  0  0
 31 34  1  0  0  0  0
 32 33  1  0  0  0  0
 33 29  1  0  0  0  0
 34 28  1  0  0  0  0
M  END
>  <MODEL>
2

>  <REMARK>
 VINA RESULT:      -3.9      4.046      7.848
  Name = 
  2 active torsions:
  status: ('A' for Active; 'I' for Inactive)
    1  A    between atoms: C_3  and  N_13
    2  A    between atoms: C_3  and  C_17
                            x       y       z     vdW  Elec       q    Type
                         _______ _______ _______ _____ _____    ______ ____

>  <TORSDO>
F 2

$$$$
=
 OpenBabel11062408103D

 34 39  0  0  1  0  0  0  0  0999 V2000
  161.2030  202.8320  150.0890 N   0  0  0  0  0  0  0  0  0  0  0  0
  161.1950  203.7350  147.8070 C   0  0  0  0  0  0  0  0  0  0  0  0
  161.2450  205.1400  149.7980 C   0  0  0  0  0  0  0  0  0  0  0  0
  160.8310  207.5520  149.5740 O   0  0  0  0  0  0  0  0  0  0  0  0
  161.4210  201.2390  148.2510 C   0  0  0  0  0  2  0  0  0  0  0  0
  162.4210  205.3060  152.0970 C   0  0  2  0  0  3  0  0  0  0  0  0
  163.1820  206.3900  154.1090 O   0  0  0  0  0  1  0  0  0  0  0  0
  161.0300  202.3440  147.2450 C   0  0  0  0  0  2  0  0  0  0  0  0
  160.9510  206.1470  147.6120 C   0  0  0  0  0  3  0  0  0  0  0  0
  161.3570  207.5270  153.0200 C   0  0  2  0  0  3  0  0  0  0  0  0
  161.2840  203.9040  149.1870 C   0  0  0  0  0  0  0  0  0  0  0  0
  160.0570  206.8720  154.9070 F   0  0  0  0  0  0  0  0  0  0  0  0
  161.0970  208.5010  151.8620 C   0  0  2  0  0  3  0  0  0  0  0  0
  161.6780  208.0680  150.5470 C   0  0  0  0  0  0  0  0  0  0  0  0
  160.8300  201.4930  149.6520 C   0  0  0  0  0  2  0  0  0  0  0  0
  161.1190  204.9500  151.3070 C   0  0  2  0  0  0  0  0  0  0  0  0
  162.5910  206.6290  152.8660 C   0  0  2  0  0  3  0  0  0  0  0  0
  160.9590  203.4440  151.3520 C   0  0  0  0  0  0  0  0  0  0  0  0
  161.0300  204.8770  147.0110 C   0  0  0  0  0  3  0  0  0  0  0  0
  159.9650  205.5180  153.0920 O   0  0  0  0  0  0  0  0  0  0  0  0
  160.0800  206.8450  153.5300 C   0  0  2  0  0  3  0  0  0  0  0  0
  159.9470  205.5810  151.7740 O   0  0  0  0  0  0  0  0  0  0  0  0
  162.9260  208.0770  150.3540 O   0  0  0  0  0  0  0  0  0  0  0  0
  163.5880  204.9780  151.3950 O   0  0  0  0  0  1  0  0  0  0  0  0
  161.0380  206.2920  149.0100 C   0  0  0  0  0  0  0  0  0  0  0  0
  160.6590  202.7880  152.3860 O   0  0  0  0  0  0  0  0  0  0  0  0
  161.4280  209.9480  152.2350 C   0  0  0  0  0  2  0  0  0  0  0  0
  161.1930  211.0990  155.7510 C   0  0  0  0  0  2  0  0  0  0  0  0
  160.7490  210.3590  153.4570 N   0  0  0  0  0  0  0  0  0  0  0  0
  161.8020  210.6020  154.4410 C   0  0  0  0  0  2  0  0  0  0  0  0
  160.0820  212.5780  154.2100 O   0  0  0  0  0  0  0  0  0  0  0  0
  158.5960  211.3420  152.7610 C   0  0  0  0  0  1  0  0  0  0  0  0
  160.0370  211.6220  153.1590 C   0  0  2  0  0  3  0  0  0  0  0  0
  159.9440  211.9190  155.4480 C   0  0  0  0  0  2  0  0  0  0  0  0
  1 18  1  0  0  0  0
  2 11  1  0  0  0  0
  3 16  1  0  0  0  0
  4 14  1  0  0  0  0
  5 15  1  0  0  0  0
  6 24  1  6  0  0  0
  6 17  1  0  0  0  0
  8  2  1  0  0  0  0
  8  5  1  0  0  0  0
  9 25  2  0  0  0  0
 10 21  1  0  0  0  0
 11  3  2  0  0  0  0
 11  1  1  0  0  0  0
 13 27  1  0  0  0  0
 13 10  1  0  0  0  0
 14 13  1  0  0  0  0
 15  1  1  0  0  0  0
 16 18  1  0  0  0  0
 16 22  1  0  0  0  0
 16  6  1  0  0  0  0
 17 10  1  0  0  0  0
 17  7  1  0  0  0  0
 18 26  2  0  0  0  0
 19  9  1  0  0  0  0
 19  2  2  0  0  0  0
 20 21  1  0  0  0  0
 21 12  1  0  0  0  0
 22 20  1  0  0  0  0
 23 14  2  0  0  0  0
 25  4  1  0  0  0  0
 25  3  1  0  0  0  0
 27 29  1  0  0  0  0
 29 30  1  0  0  0  0
 30 28  1  0  0  0  0
 31 34  1  0  0  0  0
 32 33  1  0  0  0  0
 33 29  1  0  0  0  0
 33 31  1  0  0  0  0
 34 28  1  0  0  0  0
M  END
>  <MODEL>
3

>  <REMARK>
 VINA RESULT:      -3.0      2.622      8.301
  Name = 
  2 active torsions:
  status: ('A' for Active; 'I' for Inactive)
    1  A    between atoms: C_3  and  N_13
    2  A    between atoms: C_3  and  C_17
                            x       y       z     vdW  Elec       q    Type
                         _______ _______ _______ _____ _____    ______ ____

>  <TORSDO>
F 2

$$$$
=
 OpenBabel11062408103D

 34 39  0  0  1  0  0  0  0  0999 V2000
  161.2080  204.9620  151.5140 N   0  0  0  0  0  0  0  0  0  0  0  0
  161.0030  204.3560  149.1450 C   0  0  0  0  0  0  0  0  0  0  0  0
  161.2440  206.6550  149.9190 C   0  0  0  0  0  0  0  0  0  0  0  0
  160.8320  208.4980  148.3460 O   0  0  0  0  0  0  0  0  0  0  0  0
  161.2470  202.5850  150.9580 C   0  0  0  0  0  2  0  0  0  0  0  0
  162.6230  208.0660  151.5930 C   0  0  2  0  0  3  0  0  0  0  0  0
  163.5700  210.0760  152.5240 O   0  0  0  0  0  1  0  0  0  0  0  0
  160.7780  202.9120  149.5230 C   0  0  0  0  0  2  0  0  0  0  0  0
  160.7640  206.2050  147.5840 C   0  0  0  0  0  3  0  0  0  0  0  0
  161.6650  210.4650  151.1000 C   0  0  2  0  0  3  0  0  0  0  0  0
  161.2180  205.2960  150.1510 C   0  0  0  0  0  0  0  0  0  0  0  0
  160.5340  211.1190  153.0930 F   0  0  0  0  0  0  0  0  0  0  0  0
  161.3100  210.5890  149.6110 C   0  0  2  0  0  3  0  0  0  0  0  0
  161.7670  209.4340  148.7680 C   0  0  0  0  0  0  0  0  0  0  0  0
  160.7860  203.6470  151.9760 C   0  0  0  0  0  2  0  0  0  0  0  0
  161.2520  207.3930  151.2540 C   0  0  2  0  0  0  0  0  0  0  0  0
  162.8720  209.5760  151.4210 C   0  0  2  0  0  3  0  0  0  0  0  0
  161.0840  206.2120  152.1880 C   0  0  0  0  0  0  0  0  0  0  0  0
  160.7780  204.8220  147.8430 C   0  0  0  0  0  3  0  0  0  0  0  0
  160.2680  208.9670  152.4350 O   0  0  0  0  0  0  0  0  0  0  0  0
  160.4330  210.2890  151.9980 C   0  0  2  0  0  3  0  0  0  0  0  0
  160.1320  208.2470  151.3370 O   0  0  0  0  0  0  0  0  0  0  0  0
  162.9930  209.2540  148.5230 O   0  0  0  0  0  0  0  0  0  0  0  0
  163.7190  207.3200  151.1420 O   0  0  0  0  0  1  0  0  0  0  0  0
  160.9770  207.1370  148.6190 C   0  0  0  0  0  0  0  0  0  0  0  0
  160.8720  206.3050  153.4270 O   0  0  0  0  0  0  0  0  0  0  0  0
  161.6860  211.9580  149.0380 C   0  0  0  0  0  2  0  0  0  0  0  0
  160.2120  212.3560  145.6600 C   0  0  0  0  0  2  0  0  0  0  0  0
  161.6800  211.9530  147.5810 N   0  0  0  0  0  0  0  0  0  0  0  0
  160.3120  212.2780  147.1830 C   0  0  0  0  0  2  0  0  0  0  0  0
  162.1440  213.7510  146.0030 O   0  0  0  0  0  0  0  0  0  0  0  0
  163.9890  212.4540  146.8720 C   0  0  0  0  0  1  0  0  0  0  0  0
  162.6020  213.0210  147.1350 C   0  0  2  0  0  3  0  0  0  0  0  0
  161.5320  212.8670  145.0930 C   0  0  0  0  0  2  0  0  0  0  0  0
  1 15  1  0  0  0  0
  1 18  1  0  0  0  0
  2  8  1  0  0  0  0
  2 11  1  0  0  0  0
  3 11  2  0  0  0  0
  3 16  1  0  0  0  0
  4 25  1  0  0  0  0
  4 14  1  0  0  0  0
  5 15  1  0  0  0  0
  6 24  1  6  0  0  0
  8  5  1  0  0  0  0
  9 19  1  0  0  0  0
  9 25  2  0  0  0  0
 10 17  1  0  0  0  0
 10 21  1  0  0  0  0
 11  1  1  0  0  0  0
 13 10  1  0  0  0  0
 14 13  1  0  0  0  0
 16 22  1  0  0  0  0
 16  6  1  0  0  0  0
 16 18  1  0  0  0  0
 17  6  1  0  0  0  0
 17  7  1  0  0  0  0
 18 26  2  0  0  0  0
 19  2  2  0  0  0  0
 21 20  1  0  0  0  0
 21 12  1  0  0  0  0
 22 20  1  0  0  0  0
 23 14  2  0  0  0  0
 25  3  1  0  0  0  0
 27 13  1  0  0  0  0
 28 30  1  0  0  0  0
 29 27  1  0  0  0  0
 30 29  1  0  0  0  0
 31 33  1  0  0  0  0
 32 33  1  0  0  0  0
 33 29  1  0  0  0  0
 34 28  1  0  0  0  0
 34 31  1  0  0  0  0
M  END
>  <MODEL>
4

>  <REMARK>
 VINA RESULT:      -2.5      4.029      7.662
  Name = 
  2 active torsions:
  status: ('A' for Active; 'I' for Inactive)
    1  A    between atoms: C_3  and  N_13
    2  A    between atoms: C_3  and  C_17
                            x       y       z     vdW  Elec       q    Type
                         _______ _______ _______ _____ _____    ______ ____

>  <TORSDO>
F 2

$$$$
=
 OpenBabel11062408103D

 34 39  0  0  1  0  0  0  0  0999 V2000
  161.1150  203.4970  150.2280 N   0  0  0  0  0  0  0  0  0  0  0  0
  161.1840  204.6350  148.0550 C   0  0  0  0  0  0  0  0  0  0  0  0
  161.2620  205.8190  150.1840 C   0  0  0  0  0  0  0  0  0  0  0  0
  160.9570  208.2570  150.2120 O   0  0  0  0  0  0  0  0  0  0  0  0
  161.2940  202.0990  148.2340 C   0  0  0  0  0  2  0  0  0  0  0  0
  162.4060  205.6890  152.5020 C   0  0  2  0  0  3  0  0  0  0  0  0
  163.1790  206.5190  154.6260 O   0  0  0  0  0  1  0  0  0  0  0  0
  160.9690  203.3210  147.3460 C   0  0  0  0  0  2  0  0  0  0  0  0
  161.0490  207.0630  148.1130 C   0  0  0  0  0  3  0  0  0  0  0  0
  161.4240  207.8450  153.6420 C   0  0  2  0  0  3  0  0  0  0  0  0
  161.2580  204.6540  149.4460 C   0  0  0  0  0  0  0  0  0  0  0  0
  160.0660  207.0540  155.4330 F   0  0  0  0  0  0  0  0  0  0  0  0
  161.2260  208.9470  152.5910 C   0  0  2  0  0  3  0  0  0  0  0  0
  161.8090  208.6290  151.2440 C   0  0  0  0  0  0  0  0  0  0  0  0
  160.6910  202.2300  149.6470 C   0  0  0  0  0  2  0  0  0  0  0  0
  161.1030  205.4770  151.6630 C   0  0  2  0  0  0  0  0  0  0  0  0
  162.6200  206.9140  153.4080 C   0  0  2  0  0  3  0  0  0  0  0  0
  160.8770  203.9830  151.5460 C   0  0  0  0  0  0  0  0  0  0  0  0
  161.0830  205.8610  147.3830 C   0  0  0  0  0  3  0  0  0  0  0  0
  159.9450  205.9050  153.4840 O   0  0  0  0  0  0  0  0  0  0  0  0
  160.1100  207.1720  154.0610 C   0  0  2  0  0  3  0  0  0  0  0  0
  159.9520  206.1070  152.1800 O   0  0  0  0  0  0  0  0  0  0  0  0
  163.0600  208.6020  151.0680 O   0  0  0  0  0  0  0  0  0  0  0  0
  163.5690  205.3840  151.7830 O   0  0  0  0  0  1  0  0  0  0  0  0
  161.1180  207.0560  149.5200 C   0  0  0  0  0  0  0  0  0  0  0  0
  160.5310  203.2360  152.5000 O   0  0  0  0  0  0  0  0  0  0  0  0
  161.6130  210.3300  153.1200 C   0  0  0  0  0  2  0  0  0  0  0  0
  158.0610  211.3830  153.1980 C   0  0  0  0  0  2  0  0  0  0  0  0
  160.4550  211.0640  153.6110 N   0  0  0  0  0  0  0  0  0  0  0  0
  159.3470  210.7060  152.7280 C   0  0  0  0  0  2  0  0  0  0  0  0
  158.7990  210.4440  155.2880 O   0  0  0  0  0  0  0  0  0  0  0  0
  160.8590  211.4810  156.0090 C   0  0  0  0  0  1  0  0  0  0  0  0
  160.1810  210.5840  154.9840 C   0  0  2  0  0  3  0  0  0  0  0  0
  158.0840  211.5150  154.7170 C   0  0  0  0  0  2  0  0  0  0  0  0
  1 18  1  0  0  0  0
  2 11  1  0  0  0  0
  3 16  1  0  0  0  0
  4 14  1  0  0  0  0
  5 15  1  0  0  0  0
  6 24  1  6  0  0  0
  6 17  1  0  0  0  0
  8  2  1  0  0  0  0
  8  5  1  0  0  0  0
  9 25  2  0  0  0  0
 10 21  1  0  0  0  0
 11  3  2  0  0  0  0
 11  1  1  0  0  0  0
 13 27  1  0  0  0  0
 13 10  1  0  0  0  0
 14 13  1  0  0  0  0
 15  1  1  0  0  0  0
 16 22  1  0  0  0  0
 16  6  1  0  0  0  0
 17 10  1  0  0  0  0
 17  7  1  0  0  0  0
 18 16  1  0  0  0  0
 18 26  2  0  0  0  0
 19  2  2  0  0  0  0
 19  9  1  0  0  0  0
 20 21  1  0  0  0  0
 21 12  1  0  0  0  0
 22 20  1  0  0  0  0
 23 14  2  0  0  0  0
 25  3  1  0  0  0  0
 25  4  1  0  0  0  0
 27 29  1  0  0  0  0
 28 34  1  0  0  0  0
 29 33  1  0  0  0  0
 30 28  1  0  0  0  0
 30 29  1  0  0  0  0
 33 31  1  0  0  0  0
 33 32  1  0  0  0  0
 34 31  1  0  0  0  0
M  END
>  <MODEL>
5

>  <REMARK>
 VINA RESULT:      -1.7      2.437      7.772
  Name = 
  2 active torsions:
  status: ('A' for Active; 'I' for Inactive)
    1  A    between atoms: C_3  and  N_13
    2  A    between atoms: C_3  and  C_17
                            x       y       z     vdW  Elec       q    Type
                         _______ _______ _______ _____ _____    ______ ____

>  <TORSDO>
F 2

$$$$
=
 OpenBabel11062408103D

 34 39  0  0  1  0  0  0  0  0999 V2000
  161.2830  209.7740  152.7670 N   0  0  0  0  0  0  0  0  0  0  0  0
  160.9660  208.5680  154.8810 C   0  0  0  0  0  0  0  0  0  0  0  0
  161.1590  207.4510  152.7220 C   0  0  0  0  0  0  0  0  0  0  0  0
  160.5850  205.0680  152.5500 O   0  0  0  0  0  0  0  0  0  0  0  0
  161.3840  211.0780  154.8290 C   0  0  0  0  0  2  0  0  0  0  0  0
  162.5750  207.5190  150.5570 C   0  0  2  0  0  3  0  0  0  0  0  0
  163.4930  206.6700  148.4980 O   0  0  0  0  0  1  0  0  0  0  0  0
  160.8200  209.8760  155.6190 C   0  0  0  0  0  2  0  0  0  0  0  0
  160.5640  206.1760  154.6980 C   0  0  0  0  0  3  0  0  0  0  0  0
  161.4950  205.5300  149.2170 C   0  0  2  0  0  3  0  0  0  0  0  0
  161.2010  208.5840  153.5080 C   0  0  0  0  0  0  0  0  0  0  0  0
  160.4550  206.5320  147.3220 F   0  0  0  0  0  0  0  0  0  0  0  0
  161.0510  204.4270  150.1890 C   0  0  2  0  0  3  0  0  0  0  0  0
  161.5050  204.6310  151.6050 C   0  0  0  0  0  0  0  0  0  0  0  0
  160.9400  211.0630  153.3530 C   0  0  0  0  0  2  0  0  0  0  0  0
  161.2150  207.8570  151.2520 C   0  0  2  0  0  0  0  0  0  0  0  0
  162.7530  206.3060  149.6260 C   0  0  2  0  0  3  0  0  0  0  0  0
  161.1480  209.3620  151.4100 C   0  0  0  0  0  0  0  0  0  0  0  0
  160.6480  207.3420  155.4810 C   0  0  0  0  0  3  0  0  0  0  0  0
  160.2380  207.6260  149.2940 O   0  0  0  0  0  0  0  0  0  0  0  0
  160.3250  206.3670  148.6830 C   0  0  2  0  0  3  0  0  0  0  0  0
  160.0680  207.3830  150.5800 O   0  0  0  0  0  0  0  0  0  0  0  0
  162.7210  204.5040  151.9230 O   0  0  0  0  0  0  0  0  0  0  0  0
  163.6720  207.6610  151.4160 O   0  0  0  0  0  1  0  0  0  0  0  0
  160.7990  206.2190  153.3090 C   0  0  0  0  0  0  0  0  0  0  0  0
  161.0030  210.1740  150.4570 O   0  0  0  0  0  0  0  0  0  0  0  0
  161.3390  203.0250  149.6450 C   0  0  0  0  0  2  0  0  0  0  0  0
  161.4130  203.0880  145.9400 C   0  0  0  0  0  2  0  0  0  0  0  0
  160.8050  202.8470  148.3020 N   0  0  0  0  0  0  0  0  0  0  0  0
  161.8560  203.2910  147.3880 C   0  0  0  0  0  2  0  0  0  0  0  0
  160.8870  200.9110  146.8240 O   0  0  0  0  0  0  0  0  0  0  0  0
  159.1110  201.0600  148.4550 C   0  0  0  0  0  1  0  0  0  0  0  0
  160.5550  201.4000  148.1170 C   0  0  2  0  0  3  0  0  0  0  0  0
  160.5110  201.8620  145.8540 C   0  0  0  0  0  2  0  0  0  0  0  0
  1 15  1  0  0  0  0
  1 11  1  0  0  0  0
  2 19  1  0  0  0  0
  2  8  1  0  0  0  0
  3 25  2  0  0  0  0
  3 11  1  0  0  0  0
  4 25  1  0  0  0  0
  5  8  1  0  0  0  0
  6 16  1  0  0  0  0
  6 24  1  1  0  0  0
  7 17  1  0  0  0  0
  9 19  2  0  0  0  0
 10 17  1  0  0  0  0
 10 13  1  0  0  0  0
 11  2  2  0  0  0  0
 12 21  1  0  0  0  0
 13 14  1  0  0  0  0
 14 23  2  0  0  0  0
 14  4  1  0  0  0  0
 15  5  1  0  0  0  0
 16 18  1  0  0  0  0
 16  3  1  0  0  0  0
 17  6  1  0  0  0  0
 18  1  1  0  0  0  0
 20 22  1  0  0  0  0
 21 10  1  0  0  0  0
 21 20  1  0  0  0  0
 22 16  1  0  0  0  0
 25  9  1  0  0  0  0
 26 18  2  0  0  0  0
 27 13  1  0  0  0  0
 28 30  1  0  0  0  0
 29 27  1  0  0  0  0
 30 29  1  0  0  0  0
 31 33  1  0  0  0  0
 33 29  1  0  0  0  0
 33 32  1  0  0  0  0
 34 28  1  0  0  0  0
 34 31  1  0  0  0  0
M  END
>  <MODEL>
6

>  <REMARK>
 VINA RESULT:      -1.5      4.078      6.740
  Name = 
  2 active torsions:
  status: ('A' for Active; 'I' for Inactive)
    1  A    between atoms: C_3  and  N_13
    2  A    between atoms: C_3  and  C_17
                            x       y       z     vdW  Elec       q    Type
                         _______ _______ _______ _____ _____    ______ ____

>  <TORSDO>
F 2

$$$$
=
 OpenBabel11062408103D

 34 39  0  0  1  0  0  0  0  0999 V2000
  161.0850  204.4120  146.9580 N   0  0  0  0  0  0  0  0  0  0  0  0
  160.9090  202.1120  147.7950 C   0  0  0  0  0  0  0  0  0  0  0  0
  161.2840  204.0350  149.2450 C   0  0  0  0  0  0  0  0  0  0  0  0
  161.9540  203.6630  151.5800 O   0  0  0  0  0  0  0  0  0  0  0  0
  160.4430  202.6830  145.3590 C   0  0  0  0  0  2  0  0  0  0  0  0
  160.4410  206.4530  149.6150 C   0  0  2  0  0  3  0  0  0  0  0  0
  160.0810  208.4980  150.8360 O   0  0  0  0  0  1  0  0  0  0  0  0
  160.8310  201.5910  146.3810 C   0  0  0  0  0  2  0  0  0  0  0  0
  161.4140  201.7890  150.1520 C   0  0  0  0  0  3  0  0  0  0  0  0
  161.8740  207.1460  151.7080 C   0  0  2  0  0  3  0  0  0  0  0  0
  161.0180  203.4840  148.0090 C   0  0  0  0  0  0  0  0  0  0  0  0
  163.3170  208.8810  150.9440 F   0  0  0  0  0  0  0  0  0  0  0  0
  162.1000  205.9250  152.6130 C   0  0  2  0  0  3  0  0  0  0  0  0
  161.3070  204.7110  152.2220 C   0  0  0  0  0  0  0  0  0  0  0  0
  161.2350  203.9880  145.5720 C   0  0  0  0  0  2  0  0  0  0  0  0
  161.5790  205.5230  149.0790 C   0  0  2  0  0  0  0  0  0  0  0  0
  160.5320  207.1820  150.9680 C   0  0  2  0  0  3  0  0  0  0  0  0
  161.5610  205.6100  147.5670 C   0  0  0  0  0  0  0  0  0  0  0  0
  161.1070  201.2560  148.8870 C   0  0  0  0  0  3  0  0  0  0  0  0
  163.0120  207.1260  149.5440 O   0  0  0  0  0  0  0  0  0  0  0  0
  163.1150  207.5200  150.8860 C   0  0  2  0  0  3  0  0  0  0  0  0
  162.8680  205.8150  149.5710 O   0  0  0  0  0  0  0  0  0  0  0  0
  160.0540  204.6740  152.3820 O   0  0  0  0  0  0  0  0  0  0  0  0
  159.1630  205.9150  149.4170 O   0  0  0  0  0  1  0  0  0  0  0  0
  161.5260  203.1810  150.3420 C   0  0  0  0  0  0  0  0  0  0  0  0
  161.9100  206.6240  146.9050 O   0  0  0  0  0  0  0  0  0  0  0  0
  161.9960  206.2770  154.0980 C   0  0  0  0  0  2  0  0  0  0  0  0
  158.9380  207.5530  155.7610 C   0  0  0  0  0  2  0  0  0  0  0  0
  160.9190  207.2230  154.3540 N   0  0  0  0  0  0  0  0  0  0  0  0
  160.0740  206.6070  155.3760 C   0  0  0  0  0  2  0  0  0  0  0  0
  160.7970  209.0730  155.9370 O   0  0  0  0  0  0  0  0  0  0  0  0
  161.7960  209.4540  153.7700 C   0  0  0  0  0  1  0  0  0  0  0  0
  161.5370  208.4570  154.8900 C   0  0  2  0  0  3  0  0  0  0  0  0
  159.4210  208.9950  155.6460 C   0  0  0  0  0  2  0  0  0  0  0  0
  1 18  1  0  0  0  0
  1 11  1  0  0  0  0
  2 11  2  0  0  0  0
  2 19  1  0  0  0  0
  3 25  2  0  0  0  0
  4 14  1  0  0  0  0
  5 15  1  0  0  0  0
  5  8  1  0  0  0  0
  6 24  1  1  0  0  0
  6 17  1  0  0  0  0
  7 17  1  0  0  0  0
  8  2  1  0  0  0  0
  9 25  1  0  0  0  0
 10 13  1  0  0  0  0
 11  3  1  0  0  0  0
 13 27  1  0  0  0  0
 14 23  2  0  0  0  0
 14 13  1  0  0  0  0
 15  1  1  0  0  0  0
 16  3  1  0  0  0  0
 16 22  1  0  0  0  0
 16  6  1  0  0  0  0
 17 10  1  0  0  0  0
 18 16  1  0  0  0  0
 19  9  2  0  0  0  0
 20 22  1  0  0  0  0
 20 21  1  0  0  0  0
 21 12  1  0  0  0  0
 21 10  1  0  0  0  0
 25  4  1  0  0  0  0
 26 18  2  0  0  0  0
 27 29  1  0  0  0  0
 29 33  1  0  0  0  0
 29 30  1  0  0  0  0
 30 28  1  0  0  0  0
 32 33  1  0  0  0  0
 33 31  1  0  0  0  0
 34 28  1  0  0  0  0
 34 31  1  0  0  0  0
M  END
>  <MODEL>
7

>  <REMARK>
 VINA RESULT:      -1.5      3.727      9.005
  Name = 
  2 active torsions:
  status: ('A' for Active; 'I' for Inactive)
    1  A    between atoms: C_3  and  N_13
    2  A    between atoms: C_3  and  C_17
                            x       y       z     vdW  Elec       q    Type
                         _______ _______ _______ _____ _____    ______ ____

>  <TORSDO>
F 2

$$$$
