=
 OpenBabel11052422053D

 30 31  0  0  1  0  0  0  0  0999 V2000
  161.5480  205.9440  149.4950 C   0  0  1  0  0  3  0  0  0  0  0  0
  161.5900  204.8980  151.9210 C   0  0  1  0  0  3  0  0  0  0  0  0
  159.4240  204.7870  150.5570 C   0  0  0  0  0  1  0  0  0  0  0  0
  161.8270  203.7990  150.8950 C   0  0  2  0  0  3  0  0  0  0  0  0
  162.8660  205.7150  152.0590 C   0  0  0  0  0  1  0  0  0  0  0  0
  160.9370  204.9910  150.5400 C   0  0  1  0  0  0  0  0  0  0  0  0
  161.0600  202.5440  151.2980 C   0  0  0  0  0  2  0  0  0  0  0  0
  161.2070  201.4700  150.2320 C   0  0  0  0  0  2  0  0  0  0  0  0
  160.3600  201.7400  149.1570 O   0  0  0  0  0  0  0  0  0  0  0  0
  161.0150  201.2000  148.0470 C   0  0  0  0  0  2  0  0  0  0  0  0
  160.9510  202.1710  146.8820 C   0  0  0  0  0  2  0  0  0  0  0  0
  160.3980  201.4790  145.6510 C   0  0  0  0  0  1  0  0  0  0  0  0
  161.3850  205.4020  148.0680 C   0  0  1  0  0  3  0  0  0  0  0  0
  160.3810  206.2060  147.2480 C   0  0  0  0  0  1  0  0  0  0  0  0
  162.7300  205.3380  147.3630 C   0  0  0  0  0  2  0  0  0  0  0  0
  162.5490  205.4660  145.8610 C   0  0  0  0  0  2  0  0  0  0  0  0
  163.1240  204.3670  145.2280 O   0  0  0  0  0  1  0  0  0  0  0  0
  161.0370  207.3800  149.6360 C   0  0  0  0  0  2  0  0  0  0  0  0
  162.1890  208.3710  149.5770 C   0  0  0  0  0  2  0  0  0  0  0  0
  162.1050  209.3080  150.6900 N   0  0  0  0  0  0  0  0  0  0  0  0
  160.9770  208.9420  151.5580 C   0  0  0  0  0  2  0  0  0  0  0  0
  161.8150  210.1500  153.4470 O   0  0  0  0  0  0  0  0  0  0  0  0
  161.2570  209.1010  153.0290 C   0  0  0  0  0  0  0  0  0  0  0  0
  160.8670  208.0740  153.9420 N   0  0  0  0  0  2  0  0  0  0  0  0
  161.0820  208.1970  155.3740 C   0  0  0  0  0  2  0  0  0  0  0  0
  160.1490  207.2590  156.1080 C   0  0  0  0  0  1  0  0  0  0  0  0
  161.9160  210.6530  150.1540 C   0  0  0  0  0  2  0  0  0  0  0  0
  162.6340  212.0340  148.2630 C   0  0  0  0  0  2  0  0  0  0  0  0
  162.2450  210.6710  148.6740 C   0  0  2  0  0  3  0  0  0  0  0  0
  161.3450  211.5300  148.0180 O   0  0  0  0  0  0  0  0  0  0  0  0
  1 18  1  6  0  0  0
  1  6  1  0  0  0  0
  2  5  1  6  0  0  0
  4  7  1  1  0  0  0
  4  2  1  0  0  0  0
  6  3  1  6  0  0  0
  6  4  1  0  0  0  0
  6  2  1  0  0  0  0
  8  7  1  0  0  0  0
  9  8  1  0  0  0  0
 10  9  1  0  0  0  0
 11 10  1  0  0  0  0
 12 11  1  0  0  0  0
 13 14  1  6  0  0  0
 13  1  1  0  0  0  0
 15 13  1  0  0  0  0
 16 15  1  0  0  0  0
 17 16  1  0  0  0  0
 19 18  1  0  0  0  0
 19 20  1  0  0  0  0
 20 21  1  0  0  0  0
 21 23  1  0  0  0  0
 23 22  2  0  0  0  0
 23 24  1  0  0  0  0
 24 25  1  0  0  0  0
 25 26  1  0  0  0  0
 27 20  1  0  0  0  0
 28 29  1  0  0  0  0
 29 27  1  1  0  0  0
 30 28  1  0  0  0  0
 30 29  1  0  0  0  0
M  END
>  <MODEL>
1

>  <REMARK>
 VINA RESULT:      -5.3      0.000      0.000
  Name = 
  17 active torsions:
  status: ('A' for Active; 'I' for Inactive)
    1  A    between atoms: C_1  and  N_4
    2  A    between atoms: C_1  and  C_22
    3  A    between atoms: C_2  and  C_14
    4  A    between atoms: C_2  and  C_29
    5  A    between atoms: N_4  and  C_5
    6  A    between atoms: N_4  and  C_9
    7  A    between atoms: C_5  and  C_17
    8  A    between atoms: C_9  and  C_12
    9  A    between atoms: C_10  and  O_15
   10  A    between atoms: C_10  and  C_16
   11  A    between atoms: C_11  and  C_24
   12  A    between atoms: C_13  and  N_27
   13  A    between atoms: C_14  and  C_20
   14  A    between atoms: O_15  and  C_25
   15  A    between atoms: C_22  and  C_29
   16  A    between atoms: C_23  and  C_29
   17  A    between atoms: C_24  and  C_25
                            x       y       z     vdW  Elec       q    Type
                         _______ _______ _______ _____ _____    ______ ____

>  <TORSDO>
F 17

$$$$
=
 OpenBabel11052422053D

 30 31  0  0  1  0  0  0  0  0999 V2000
  161.6910  206.7840  150.8260 C   0  0  1  0  0  3  0  0  0  0  0  0
  160.5300  204.4180  150.6380 C   0  0  1  0  0  3  0  0  0  0  0  0
  159.8470  206.2700  149.0050 C   0  0  0  0  0  1  0  0  0  0  0  0
  161.6720  204.4990  149.6350 C   0  0  2  0  0  3  0  0  0  0  0  0
  161.1180  204.2160  152.0260 C   0  0  0  0  0  1  0  0  0  0  0  0
  160.8890  205.7610  149.9980 C   0  0  1  0  0  0  0  0  0  0  0  0
  161.2490  203.8570  148.3190 C   0  0  0  0  0  2  0  0  0  0  0  0
  162.2430  204.1990  147.2210 C   0  0  0  0  0  2  0  0  0  0  0  0
  162.0910  203.3250  146.1430 O   0  0  0  0  0  0  0  0  0  0  0  0
  161.2090  203.9780  145.2800 C   0  0  0  0  0  2  0  0  0  0  0  0
  161.5290  205.4610  145.2330 C   0  0  0  0  0  2  0  0  0  0  0  0
  160.2510  206.2770  145.2520 C   0  0  0  0  0  1  0  0  0  0  0  0
  162.5270  207.7080  149.9300 C   0  0  1  0  0  3  0  0  0  0  0  0
  162.3820  207.3760  148.4490 C   0  0  0  0  0  1  0  0  0  0  0  0
  162.1810  209.1650  150.1930 C   0  0  0  0  0  2  0  0  0  0  0  0
  162.0720  209.9300  148.8860 C   0  0  0  0  0  2  0  0  0  0  0  0
  161.9390  211.2900  149.1530 O   0  0  0  0  0  1  0  0  0  0  0  0
  160.8150  207.5620  151.8110 C   0  0  0  0  0  2  0  0  0  0  0  0
  161.3910  207.4920  153.2170 C   0  0  0  0  0  2  0  0  0  0  0  0
  160.8290  208.5510  154.0460 N   0  0  0  0  0  0  0  0  0  0  0  0
  161.2980  209.8570  153.5600 C   0  0  0  0  0  2  0  0  0  0  0  0
  159.1450  210.7630  154.0800 O   0  0  0  0  0  0  0  0  0  0  0  0
  160.2090  210.8860  153.4170 C   0  0  0  0  0  0  0  0  0  0  0  0
  160.3990  212.0060  152.5520 N   0  0  0  0  0  2  0  0  0  0  0  0
  159.3920  213.0460  152.4100 C   0  0  0  0  0  2  0  0  0  0  0  0
  159.1350  213.3030  150.9410 C   0  0  0  0  0  1  0  0  0  0  0  0
  161.2570  208.3400  155.4260 C   0  0  0  0  0  2  0  0  0  0  0  0
  160.1960  207.1100  157.2590 C   0  0  0  0  0  2  0  0  0  0  0  0
  160.0470  208.2520  156.3360 C   0  0  2  0  0  3  0  0  0  0  0  0
  159.3940  207.0280  156.1080 O   0  0  0  0  0  0  0  0  0  0  0  0
  1 18  1  6  0  0  0
  2  5  1  1  0  0  0
  4  7  1  6  0  0  0
  4  6  1  0  0  0  0
  4  2  1  0  0  0  0
  6  3  1  6  0  0  0
  6  2  1  0  0  0  0
  6  1  1  0  0  0  0
  8  7  1  0  0  0  0
  9  8  1  0  0  0  0
 10  9  1  0  0  0  0
 11 12  1  0  0  0  0
 11 10  1  0  0  0  0
 13 14  1  6  0  0  0
 13 15  1  0  0  0  0
 13  1  1  0  0  0  0
 16 17  1  0  0  0  0
 16 15  1  0  0  0  0
 18 19  1  0  0  0  0
 19 20  1  0  0  0  0
 20 27  1  0  0  0  0
 21 20  1  0  0  0  0
 23 21  1  0  0  0  0
 23 22  2  0  0  0  0
 24 23  1  0  0  0  0
 25 24  1  0  0  0  0
 26 25  1  0  0  0  0
 29 27  1  6  0  0  0
 29 28  1  0  0  0  0
 30 29  1  0  0  0  0
 30 28  1  0  0  0  0
M  END
>  <MODEL>
2

>  <REMARK>
 VINA RESULT:      -5.0      2.011      4.894
  Name = 
  17 active torsions:
  status: ('A' for Active; 'I' for Inactive)
    1  A    between atoms: C_1  and  N_4
    2  A    between atoms: C_1  and  C_22
    3  A    between atoms: C_2  and  C_14
    4  A    between atoms: C_2  and  C_29
    5  A    between atoms: N_4  and  C_5
    6  A    between atoms: N_4  and  C_9
    7  A    between atoms: C_5  and  C_17
    8  A    between atoms: C_9  and  C_12
    9  A    between atoms: C_10  and  O_15
   10  A    between atoms: C_10  and  C_16
   11  A    between atoms: C_11  and  C_24
   12  A    between atoms: C_13  and  N_27
   13  A    between atoms: C_14  and  C_20
   14  A    between atoms: O_15  and  C_25
   15  A    between atoms: C_22  and  C_29
   16  A    between atoms: C_23  and  C_29
   17  A    between atoms: C_24  and  C_25
                            x       y       z     vdW  Elec       q    Type
                         _______ _______ _______ _____ _____    ______ ____

>  <TORSDO>
F 17

$$$$
=
 OpenBabel11052422053D

 30 31  0  0  1  0  0  0  0  0999 V2000
  161.5570  206.2110  149.1690 C   0  0  1  0  0  3  0  0  0  0  0  0
  161.6480  205.3990  151.6810 C   0  0  1  0  0  3  0  0  0  0  0  0
  159.4400  205.2130  150.3960 C   0  0  0  0  0  1  0  0  0  0  0  0
  161.8300  204.2020  150.7590 C   0  0  2  0  0  3  0  0  0  0  0  0
  162.9450  206.1930  151.7060 C   0  0  0  0  0  1  0  0  0  0  0  0
  160.9560  205.3760  150.3170 C   0  0  1  0  0  0  0  0  0  0  0  0
  161.0480  203.0100  151.3010 C   0  0  0  0  0  2  0  0  0  0  0  0
  160.5490  202.1420  150.1580 C   0  0  0  0  0  2  0  0  0  0  0  0
  161.4720  201.1320  149.8820 O   0  0  0  0  0  0  0  0  0  0  0  0
  161.2370  200.7930  148.5470 C   0  0  0  0  0  2  0  0  0  0  0  0
  161.2080  202.0450  147.6900 C   0  0  0  0  0  2  0  0  0  0  0  0
  160.7690  201.7070  146.2780 C   0  0  0  0  0  1  0  0  0  0  0  0
  161.4180  205.4990  147.8170 C   0  0  1  0  0  3  0  0  0  0  0  0
  160.4400  206.2040  146.8820 C   0  0  0  0  0  1  0  0  0  0  0  0
  162.7760  205.3390  147.1540 C   0  0  0  0  0  2  0  0  0  0  0  0
  162.6150  205.0550  145.6710 C   0  0  0  0  0  2  0  0  0  0  0  0
  163.5710  204.1260  145.2690 O   0  0  0  0  0  1  0  0  0  0  0  0
  161.0150  207.6420  149.1340 C   0  0  0  0  0  2  0  0  0  0  0  0
  162.1440  208.6420  148.9370 C   0  0  0  0  0  2  0  0  0  0  0  0
  161.8180  209.9050  149.5880 N   0  0  0  0  0  0  0  0  0  0  0  0
  162.4510  211.0130  148.8570 C   0  0  0  0  0  2  0  0  0  0  0  0
  161.4530  213.1730  149.1160 O   0  0  0  0  0  0  0  0  0  0  0  0
  161.4970  212.1040  148.4500 C   0  0  0  0  0  0  0  0  0  0  0  0
  160.6670  211.9310  147.3010 N   0  0  0  0  0  2  0  0  0  0  0  0
  159.7580  212.9710  146.8460 C   0  0  0  0  0  2  0  0  0  0  0  0
  160.4190  213.7760  145.7490 C   0  0  0  0  0  1  0  0  0  0  0  0
  162.3060  209.8610  150.9630 C   0  0  0  0  0  2  0  0  0  0  0  0
  161.5180  209.9080  153.2820 C   0  0  0  0  0  2  0  0  0  0  0  0
  161.2360  210.3710  151.9090 C   0  0  2  0  0  3  0  0  0  0  0  0
  160.5620  209.2730  152.4710 O   0  0  0  0  0  0  0  0  0  0  0  0
  1 18  1  6  0  0  0
  1  6  1  0  0  0  0
  2  5  1  6  0  0  0
  4  7  1  1  0  0  0
  4  2  1  0  0  0  0
  6  3  1  6  0  0  0
  6  4  1  0  0  0  0
  6  2  1  0  0  0  0
  8  7  1  0  0  0  0
  9  8  1  0  0  0  0
 10  9  1  0  0  0  0
 11 10  1  0  0  0  0
 12 11  1  0  0  0  0
 13 14  1  6  0  0  0
 13  1  1  0  0  0  0
 15 13  1  0  0  0  0
 16 15  1  0  0  0  0
 17 16  1  0  0  0  0
 19 18  1  0  0  0  0
 19 20  1  0  0  0  0
 20 27  1  0  0  0  0
 21 20  1  0  0  0  0
 23 21  1  0  0  0  0
 23 22  2  0  0  0  0
 24 23  1  0  0  0  0
 25 24  1  0  0  0  0
 26 25  1  0  0  0  0
 29 27  1  6  0  0  0
 29 30  1  0  0  0  0
 29 28  1  0  0  0  0
 30 28  1  0  0  0  0
M  END
>  <MODEL>
3

>  <REMARK>
 VINA RESULT:      -4.7      1.531      3.904
  Name = 
  17 active torsions:
  status: ('A' for Active; 'I' for Inactive)
    1  A    between atoms: C_1  and  N_4
    2  A    between atoms: C_1  and  C_22
    3  A    between atoms: C_2  and  C_14
    4  A    between atoms: C_2  and  C_29
    5  A    between atoms: N_4  and  C_5
    6  A    between atoms: N_4  and  C_9
    7  A    between atoms: C_5  and  C_17
    8  A    between atoms: C_9  and  C_12
    9  A    between atoms: C_10  and  O_15
   10  A    between atoms: C_10  and  C_16
   11  A    between atoms: C_11  and  C_24
   12  A    between atoms: C_13  and  N_27
   13  A    between atoms: C_14  and  C_20
   14  A    between atoms: O_15  and  C_25
   15  A    between atoms: C_22  and  C_29
   16  A    between atoms: C_23  and  C_29
   17  A    between atoms: C_24  and  C_25
                            x       y       z     vdW  Elec       q    Type
                         _______ _______ _______ _____ _____    ______ ____

>  <TORSDO>
F 17

$$$$
=
 OpenBabel11052422053D

 30 31  0  0  1  0  0  0  0  0999 V2000
  161.6690  207.3010  151.2740 C   0  0  1  0  0  3  0  0  0  0  0  0
  160.5850  204.9160  151.6170 C   0  0  1  0  0  3  0  0  0  0  0  0
  159.9150  206.3030  149.5700 C   0  0  0  0  0  1  0  0  0  0  0  0
  161.7630  204.8000  150.6610 C   0  0  2  0  0  3  0  0  0  0  0  0
  161.1220  205.0700  153.0320 C   0  0  0  0  0  1  0  0  0  0  0  0
  160.9300  206.0820  150.6890 C   0  0  1  0  0  0  0  0  0  0  0  0
  161.4100  203.8500  149.5220 C   0  0  0  0  0  2  0  0  0  0  0  0
  160.7650  202.5870  150.0690 C   0  0  0  0  0  2  0  0  0  0  0  0
  160.6920  201.6120  149.0730 O   0  0  0  0  0  0  0  0  0  0  0  0
  161.0690  202.2740  147.9020 C   0  0  0  0  0  2  0  0  0  0  0  0
  160.8320  201.3800  146.6990 C   0  0  0  0  0  2  0  0  0  0  0  0
  160.6280  202.2180  145.4520 C   0  0  0  0  0  1  0  0  0  0  0  0
  162.5000  208.0270  150.2090 C   0  0  1  0  0  3  0  0  0  0  0  0
  162.4050  207.3630  148.8390 C   0  0  0  0  0  1  0  0  0  0  0  0
  162.1020  209.4920  150.1260 C   0  0  0  0  0  2  0  0  0  0  0  0
  162.0600  209.9510  148.6800 C   0  0  0  0  0  2  0  0  0  0  0  0
  162.1650  211.3390  148.6290 O   0  0  0  0  0  1  0  0  0  0  0  0
  160.7360  208.2480  152.0330 C   0  0  0  0  0  2  0  0  0  0  0  0
  161.3430  208.6490  153.3680 C   0  0  0  0  0  2  0  0  0  0  0  0
  160.3750  209.4010  154.1570 N   0  0  0  0  0  0  0  0  0  0  0  0
  160.4100  210.8170  153.7600 C   0  0  0  0  0  2  0  0  0  0  0  0
  158.6210  211.6120  152.3840 O   0  0  0  0  0  0  0  0  0  0  0  0
  159.0500  211.4290  153.5540 C   0  0  0  0  0  0  0  0  0  0  0  0
  158.2480  211.7760  154.6830 N   0  0  0  0  0  2  0  0  0  0  0  0
  156.9140  212.3350  154.5350 C   0  0  0  0  0  2  0  0  0  0  0  0
  155.8830  211.2770  154.8650 C   0  0  0  0  0  1  0  0  0  0  0  0
  160.7170  209.2630  155.5700 C   0  0  0  0  0  2  0  0  0  0  0  0
  160.3220  207.4290  157.1450 C   0  0  0  0  0  2  0  0  0  0  0  0
  161.0050  207.8100  155.8930 C   0  0  2  0  0  3  0  0  0  0  0  0
  161.6920  207.7420  157.1180 O   0  0  0  0  0  0  0  0  0  0  0  0
  1 18  1  6  0  0  0
  2  5  1  1  0  0  0
  4  7  1  6  0  0  0
  4  6  1  0  0  0  0
  4  2  1  0  0  0  0
  6  3  1  6  0  0  0
  6  1  1  0  0  0  0
  6  2  1  0  0  0  0
  7  8  1  0  0  0  0
  9  8  1  0  0  0  0
 10  9  1  0  0  0  0
 11 10  1  0  0  0  0
 12 11  1  0  0  0  0
 13 14  1  6  0  0  0
 13  1  1  0  0  0  0
 15 13  1  0  0  0  0
 16 15  1  0  0  0  0
 17 16  1  0  0  0  0
 18 19  1  0  0  0  0
 19 20  1  0  0  0  0
 20 27  1  0  0  0  0
 21 20  1  0  0  0  0
 22 23  2  0  0  0  0
 23 21  1  0  0  0  0
 23 24  1  0  0  0  0
 25 24  1  0  0  0  0
 25 26  1  0  0  0  0
 29 27  1  1  0  0  0
 29 30  1  0  0  0  0
 29 28  1  0  0  0  0
 30 28  1  0  0  0  0
M  END
>  <MODEL>
4

>  <REMARK>
 VINA RESULT:      -4.6      2.334      4.545
  Name = 
  17 active torsions:
  status: ('A' for Active; 'I' for Inactive)
    1  A    between atoms: C_1  and  N_4
    2  A    between atoms: C_1  and  C_22
    3  A    between atoms: C_2  and  C_14
    4  A    between atoms: C_2  and  C_29
    5  A    between atoms: N_4  and  C_5
    6  A    between atoms: N_4  and  C_9
    7  A    between atoms: C_5  and  C_17
    8  A    between atoms: C_9  and  C_12
    9  A    between atoms: C_10  and  O_15
   10  A    between atoms: C_10  and  C_16
   11  A    between atoms: C_11  and  C_24
   12  A    between atoms: C_13  and  N_27
   13  A    between atoms: C_14  and  C_20
   14  A    between atoms: O_15  and  C_25
   15  A    between atoms: C_22  and  C_29
   16  A    between atoms: C_23  and  C_29
   17  A    between atoms: C_24  and  C_25
                            x       y       z     vdW  Elec       q    Type
                         _______ _______ _______ _____ _____    ______ ____

>  <TORSDO>
F 17

$$$$
=
 OpenBabel11052422053D

 30 31  0  0  1  0  0  0  0  0999 V2000
  161.1550  207.5490  151.7700 C   0  0  1  0  0  3  0  0  0  0  0  0
  161.4030  205.6740  149.9250 C   0  0  1  0  0  3  0  0  0  0  0  0
  163.3000  206.0160  151.6130 C   0  0  0  0  0  1  0  0  0  0  0  0
  160.8980  205.0460  151.2170 C   0  0  2  0  0  3  0  0  0  0  0  0
  160.2520  206.4170  149.2660 C   0  0  0  0  0  1  0  0  0  0  0  0
  161.8310  206.2560  151.2740 C   0  0  1  0  0  0  0  0  0  0  0  0
  161.5940  203.7090  151.4460 C   0  0  0  0  0  2  0  0  0  0  0  0
  160.6050  202.5650  151.2880 C   0  0  0  0  0  2  0  0  0  0  0  0
  161.1030  201.6170  150.3940 O   0  0  0  0  0  0  0  0  0  0  0  0
  160.1980  201.6240  149.3300 C   0  0  0  0  0  2  0  0  0  0  0  0
  160.9460  201.5920  148.0100 C   0  0  0  0  0  2  0  0  0  0  0  0
  161.2980  203.0000  147.5700 C   0  0  0  0  0  1  0  0  0  0  0  0
  160.6320  207.4030  153.2050 C   0  0  1  0  0  3  0  0  0  0  0  0
  161.2710  206.2320  153.9440 C   0  0  0  0  0  1  0  0  0  0  0  0
  160.8240  208.6980  153.9790 C   0  0  0  0  0  2  0  0  0  0  0  0
  160.3060  208.5500  155.3980 C   0  0  0  0  0  2  0  0  0  0  0  0
  159.6650  209.7260  155.7830 O   0  0  0  0  0  1  0  0  0  0  0  0
  162.0430  208.7840  151.5940 C   0  0  0  0  0  2  0  0  0  0  0  0
  161.9740  209.3000  150.1660 C   0  0  0  0  0  2  0  0  0  0  0  0
  161.4670  210.6670  150.1470 N   0  0  0  0  0  0  0  0  0  0  0  0
  162.3750  211.5180  149.3620 C   0  0  0  0  0  2  0  0  0  0  0  0
  161.9070  213.6860  148.4640 O   0  0  0  0  0  0  0  0  0  0  0  0
  161.6730  212.4490  148.4110 C   0  0  0  0  0  0  0  0  0  0  0  0
  160.7660  211.9240  147.4400 N   0  0  0  0  0  2  0  0  0  0  0  0
  160.0940  212.7790  146.4750 C   0  0  0  0  0  2  0  0  0  0  0  0
  160.9450  212.9030  145.2300 C   0  0  0  0  0  1  0  0  0  0  0  0
  161.3810  211.1510  151.5210 C   0  0  0  0  0  2  0  0  0  0  0  0
  159.8650  212.1830  153.1450 C   0  0  0  0  0  2  0  0  0  0  0  0
  160.1100  211.9580  151.7070 C   0  0  2  0  0  3  0  0  0  0  0  0
  159.1820  211.1860  152.4280 O   0  0  0  0  0  0  0  0  0  0  0  0
  1 18  1  1  0  0  0
  1 13  1  0  0  0  0
  2  5  1  6  0  0  0
  2  4  1  0  0  0  0
  2  6  1  0  0  0  0
  4  6  1  0  0  0  0
  4  7  1  1  0  0  0
  6  3  1  1  0  0  0
  6  1  1  0  0  0  0
  8  7  1  0  0  0  0
  9  8  1  0  0  0  0
 10  9  1  0  0  0  0
 11 10  1  0  0  0  0
 12 11  1  0  0  0  0
 13 14  1  1  0  0  0
 13 15  1  0  0  0  0
 15 16  1  0  0  0  0
 16 17  1  0  0  0  0
 19 18  1  0  0  0  0
 20 19  1  0  0  0  0
 20 27  1  0  0  0  0
 21 20  1  0  0  0  0
 23 22  2  0  0  0  0
 23 21  1  0  0  0  0
 24 23  1  0  0  0  0
 25 24  1  0  0  0  0
 26 25  1  0  0  0  0
 29 27  1  1  0  0  0
 29 30  1  0  0  0  0
 29 28  1  0  0  0  0
 30 28  1  0  0  0  0
M  END
>  <MODEL>
5

>  <REMARK>
 VINA RESULT:      -4.6      2.092      5.591
  Name = 
  17 active torsions:
  status: ('A' for Active; 'I' for Inactive)
    1  A    between atoms: C_1  and  N_4
    2  A    between atoms: C_1  and  C_22
    3  A    between atoms: C_2  and  C_14
    4  A    between atoms: C_2  and  C_29
    5  A    between atoms: N_4  and  C_5
    6  A    between atoms: N_4  and  C_9
    7  A    between atoms: C_5  and  C_17
    8  A    between atoms: C_9  and  C_12
    9  A    between atoms: C_10  and  O_15
   10  A    between atoms: C_10  and  C_16
   11  A    between atoms: C_11  and  C_24
   12  A    between atoms: C_13  and  N_27
   13  A    between atoms: C_14  and  C_20
   14  A    between atoms: O_15  and  C_25
   15  A    between atoms: C_22  and  C_29
   16  A    between atoms: C_23  and  C_29
   17  A    between atoms: C_24  and  C_25
                            x       y       z     vdW  Elec       q    Type
                         _______ _______ _______ _____ _____    ______ ____

>  <TORSDO>
F 17

$$$$
=
 OpenBabel11052422053D

 30 31  0  0  1  0  0  0  0  0999 V2000
  161.4190  206.5510  150.1970 C   0  0  1  0  0  3  0  0  0  0  0  0
  160.8790  206.6160  147.6110 C   0  0  1  0  0  3  0  0  0  0  0  0
  163.0270  207.7240  148.4600 C   0  0  0  0  0  1  0  0  0  0  0  0
  161.8300  205.4620  147.8980 C   0  0  2  0  0  3  0  0  0  0  0  0
  159.4840  206.2200  148.0720 C   0  0  0  0  0  1  0  0  0  0  0  0
  161.9000  206.7340  148.7450 C   0  0  1  0  0  0  0  0  0  0  0  0
  162.8860  205.3810  146.8020 C   0  0  0  0  0  2  0  0  0  0  0  0
  162.5170  204.3070  145.7910 C   0  0  0  0  0  2  0  0  0  0  0  0
  161.6960  204.8420  144.7980 O   0  0  0  0  0  0  0  0  0  0  0  0
  160.6160  203.9590  144.7180 C   0  0  0  0  0  2  0  0  0  0  0  0
  160.9120  202.7030  145.5170 C   0  0  0  0  0  2  0  0  0  0  0  0
  159.9940  201.5760  145.0860 C   0  0  0  0  0  1  0  0  0  0  0  0
  161.7390  205.1480  150.7290 C   0  0  1  0  0  3  0  0  0  0  0  0
  162.4280  205.1810  152.0890 C   0  0  0  0  0  1  0  0  0  0  0  0
  160.4810  204.2950  150.7830 C   0  0  0  0  0  2  0  0  0  0  0  0
  160.8040  202.8510  150.4460 C   0  0  0  0  0  2  0  0  0  0  0  0
  160.2810  202.5390  149.1930 O   0  0  0  0  0  1  0  0  0  0  0  0
  161.9190  207.6580  151.1280 C   0  0  0  0  0  2  0  0  0  0  0  0
  160.7540  208.4280  151.7280 C   0  0  0  0  0  2  0  0  0  0  0  0
  161.0890  209.8420  151.8440 N   0  0  0  0  0  0  0  0  0  0  0  0
  162.0850  210.1960  150.8220 C   0  0  0  0  0  2  0  0  0  0  0  0
  160.8980  212.2280  150.3820 O   0  0  0  0  0  0  0  0  0  0  0  0
  161.6720  211.3410  149.9350 C   0  0  0  0  0  0  0  0  0  0  0  0
  162.1810  211.4270  148.6030 N   0  0  0  0  0  2  0  0  0  0  0  0
  161.8420  212.5330  147.7220 C   0  0  0  0  0  2  0  0  0  0  0  0
  160.5770  212.2030  146.9590 C   0  0  0  0  0  1  0  0  0  0  0  0
  161.6250  210.0860  153.1790 C   0  0  0  0  0  2  0  0  0  0  0  0
  160.2830  210.7200  155.1280 C   0  0  0  0  0  2  0  0  0  0  0  0
  160.8490  211.2010  153.8530 C   0  0  2  0  0  3  0  0  0  0  0  0
  159.5010  210.8170  153.9640 O   0  0  0  0  0  0  0  0  0  0  0  0
  1 13  1  0  0  0  0
  1 18  1  1  0  0  0
  2  4  1  0  0  0  0
  2  5  1  1  0  0  0
  2  6  1  0  0  0  0
  4  7  1  6  0  0  0
  4  6  1  0  0  0  0
  6  3  1  6  0  0  0
  6  1  1  0  0  0  0
  8  7  1  0  0  0  0
  9  8  1  0  0  0  0
 10  9  1  0  0  0  0
 10 11  1  0  0  0  0
 12 11  1  0  0  0  0
 13 15  1  0  0  0  0
 13 14  1  1  0  0  0
 16 15  1  0  0  0  0
 17 16  1  0  0  0  0
 18 19  1  0  0  0  0
 19 20  1  0  0  0  0
 20 27  1  0  0  0  0
 21 20  1  0  0  0  0
 23 22  2  0  0  0  0
 23 21  1  0  0  0  0
 24 23  1  0  0  0  0
 25 24  1  0  0  0  0
 26 25  1  0  0  0  0
 29 27  1  6  0  0  0
 29 30  1  0  0  0  0
 29 28  1  0  0  0  0
 30 28  1  0  0  0  0
M  END
>  <MODEL>
6

>  <REMARK>
 VINA RESULT:      -4.5      1.604      4.917
  Name = 
  17 active torsions:
  status: ('A' for Active; 'I' for Inactive)
    1  A    between atoms: C_1  and  N_4
    2  A    between atoms: C_1  and  C_22
    3  A    between atoms: C_2  and  C_14
    4  A    between atoms: C_2  and  C_29
    5  A    between atoms: N_4  and  C_5
    6  A    between atoms: N_4  and  C_9
    7  A    between atoms: C_5  and  C_17
    8  A    between atoms: C_9  and  C_12
    9  A    between atoms: C_10  and  O_15
   10  A    between atoms: C_10  and  C_16
   11  A    between atoms: C_11  and  C_24
   12  A    between atoms: C_13  and  N_27
   13  A    between atoms: C_14  and  C_20
   14  A    between atoms: O_15  and  C_25
   15  A    between atoms: C_22  and  C_29
   16  A    between atoms: C_23  and  C_29
   17  A    between atoms: C_24  and  C_25
                            x       y       z     vdW  Elec       q    Type
                         _______ _______ _______ _____ _____    ______ ____

>  <TORSDO>
F 17

$$$$
=
 OpenBabel11052422053D

 30 31  0  0  1  0  0  0  0  0999 V2000
  161.0020  208.8840  153.4180 C   0  0  1  0  0  3  0  0  0  0  0  0
  160.9490  211.2070  154.6760 C   0  0  1  0  0  3  0  0  0  0  0  0
  159.2150  210.7440  152.8470 C   0  0  0  0  0  1  0  0  0  0  0  0
  159.9420  210.2640  155.3180 C   0  0  2  0  0  3  0  0  0  0  0  0
  162.3460  210.7990  155.1180 C   0  0  0  0  0  1  0  0  0  0  0  0
  160.2340  210.1580  153.8210 C   0  0  1  0  0  0  0  0  0  0  0  0
  158.6640  211.0260  155.6530 C   0  0  0  0  0  2  0  0  0  0  0  0
  158.9250  212.0290  156.7650 C   0  0  0  0  0  2  0  0  0  0  0  0
  158.6600  213.3250  156.3170 O   0  0  0  0  0  0  0  0  0  0  0  0
  157.3830  213.2500  155.7560 C   0  0  0  0  0  2  0  0  0  0  0  0
  157.2250  214.3110  154.6820 C   0  0  0  0  0  2  0  0  0  0  0  0
  157.0690  213.6630  153.3200 C   0  0  0  0  0  1  0  0  0  0  0  0
  160.6750  207.7060  154.3460 C   0  0  1  0  0  3  0  0  0  0  0  0
  160.8750  206.3540  153.6690 C   0  0  0  0  0  1  0  0  0  0  0  0
  161.4900  207.7930  155.6270 C   0  0  0  0  0  2  0  0  0  0  0  0
  160.7260  207.1760  156.7850 C   0  0  0  0  0  2  0  0  0  0  0  0
  159.3810  207.0590  156.4450 O   0  0  0  0  0  1  0  0  0  0  0  0
  160.8210  208.5290  151.9400 C   0  0  0  0  0  2  0  0  0  0  0  0
  161.8590  209.2380  151.0840 C   0  0  0  0  0  2  0  0  0  0  0  0
  161.6930  208.8710  149.6820 N   0  0  0  0  0  0  0  0  0  0  0  0
  162.2370  207.5230  149.4590 C   0  0  0  0  0  2  0  0  0  0  0  0
  160.3430  206.4460  148.4700 O   0  0  0  0  0  0  0  0  0  0  0  0
  161.5570  206.7620  148.3530 C   0  0  0  0  0  0  0  0  0  0  0  0
  162.2830  206.4250  147.1710 N   0  0  0  0  0  2  0  0  0  0  0  0
  161.6600  205.7250  146.0600 C   0  0  0  0  0  2  0  0  0  0  0  0
  162.5280  204.5550  145.6490 C   0  0  0  0  0  1  0  0  0  0  0  0
  162.4000  209.8460  148.8580 C   0  0  0  0  0  2  0  0  0  0  0  0
  161.5140  211.9420  147.9520 C   0  0  0  0  0  2  0  0  0  0  0  0
  161.9220  211.2470  149.1880 C   0  0  2  0  0  3  0  0  0  0  0  0
  162.7630  212.1780  148.5530 O   0  0  0  0  0  0  0  0  0  0  0  0
  1 18  1  6  0  0  0
  1  6  1  0  0  0  0
  1 13  1  0  0  0  0
  2  5  1  1  0  0  0
  2  4  1  0  0  0  0
  4  7  1  6  0  0  0
  6  3  1  6  0  0  0
  6  2  1  0  0  0  0
  6  4  1  0  0  0  0
  7  8  1  0  0  0  0
  9  8  1  0  0  0  0
 10  9  1  0  0  0  0
 11 10  1  0  0  0  0
 12 11  1  0  0  0  0
 13 14  1  6  0  0  0
 13 15  1  0  0  0  0
 15 16  1  0  0  0  0
 17 16  1  0  0  0  0
 19 18  1  0  0  0  0
 20 19  1  0  0  0  0
 21 20  1  0  0  0  0
 23 22  2  0  0  0  0
 23 21  1  0  0  0  0
 24 23  1  0  0  0  0
 25 24  1  0  0  0  0
 26 25  1  0  0  0  0
 27 20  1  0  0  0  0
 28 30  1  0  0  0  0
 28 29  1  0  0  0  0
 29 27  1  6  0  0  0
 30 29  1  0  0  0  0
M  END
>  <MODEL>
7

>  <REMARK>
 VINA RESULT:      -4.4      3.202      8.466
  Name = 
  17 active torsions:
  status: ('A' for Active; 'I' for Inactive)
    1  A    between atoms: C_1  and  N_4
    2  A    between atoms: C_1  and  C_22
    3  A    between atoms: C_2  and  C_14
    4  A    between atoms: C_2  and  C_29
    5  A    between atoms: N_4  and  C_5
    6  A    between atoms: N_4  and  C_9
    7  A    between atoms: C_5  and  C_17
    8  A    between atoms: C_9  and  C_12
    9  A    between atoms: C_10  and  O_15
   10  A    between atoms: C_10  and  C_16
   11  A    between atoms: C_11  and  C_24
   12  A    between atoms: C_13  and  N_27
   13  A    between atoms: C_14  and  C_20
   14  A    between atoms: O_15  and  C_25
   15  A    between atoms: C_22  and  C_29
   16  A    between atoms: C_23  and  C_29
   17  A    between atoms: C_24  and  C_25
                            x       y       z     vdW  Elec       q    Type
                         _______ _______ _______ _____ _____    ______ ____

>  <TORSDO>
F 17

$$$$
=
 OpenBabel11052422053D

 30 31  0  0  1  0  0  0  0  0999 V2000
  161.2900  207.3740  151.6640 C   0  0  1  0  0  3  0  0  0  0  0  0
  160.8920  205.0870  150.4020 C   0  0  1  0  0  3  0  0  0  0  0  0
  163.0420  205.3990  151.7600 C   0  0  0  0  0  1  0  0  0  0  0  0
  160.4640  204.9400  151.8550 C   0  0  2  0  0  3  0  0  0  0  0  0
  159.8290  205.8840  149.6610 C   0  0  0  0  0  1  0  0  0  0  0  0
  161.6170  205.8780  151.4930 C   0  0  1  0  0  0  0  0  0  0  0  0
  160.9060  203.5820  152.3870 C   0  0  0  0  0  2  0  0  0  0  0  0
  160.5110  202.4800  151.4170 C   0  0  0  0  0  2  0  0  0  0  0  0
  161.6460  201.8100  150.9610 O   0  0  0  0  0  0  0  0  0  0  0  0
  161.1740  200.9520  149.9650 C   0  0  0  0  0  2  0  0  0  0  0  0
  160.2470  201.7040  149.0270 C   0  0  0  0  0  2  0  0  0  0  0  0
  160.8300  201.7400  147.6270 C   0  0  0  0  0  1  0  0  0  0  0  0
  160.7650  207.6830  153.0720 C   0  0  1  0  0  3  0  0  0  0  0  0
  161.4760  206.8740  154.1530 C   0  0  0  0  0  1  0  0  0  0  0  0
  160.8610  209.1720  153.3640 C   0  0  0  0  0  2  0  0  0  0  0  0
  160.3990  209.4670  154.7800 C   0  0  0  0  0  2  0  0  0  0  0  0
  159.9860  210.7940  154.8670 O   0  0  0  0  0  1  0  0  0  0  0  0
  162.4540  208.2820  151.2620 C   0  0  0  0  0  2  0  0  0  0  0  0
  161.9560  209.4810  150.4710 C   0  0  0  0  0  2  0  0  0  0  0  0
  161.6150  209.0830  149.1110 N   0  0  0  0  0  0  0  0  0  0  0  0
  162.5690  208.0670  148.6420 C   0  0  0  0  0  2  0  0  0  0  0  0
  160.8910  207.3560  147.0910 O   0  0  0  0  0  0  0  0  0  0  0  0
  161.9920  207.0970  147.6450 C   0  0  0  0  0  0  0  0  0  0  0  0
  162.7070  205.9060  147.3160 N   0  0  0  0  0  2  0  0  0  0  0  0
  162.2100  204.9580  146.3320 C   0  0  0  0  0  2  0  0  0  0  0  0
  163.3780  204.2930  145.6360 C   0  0  0  0  0  1  0  0  0  0  0  0
  161.6680  210.2620  148.2520 C   0  0  0  0  0  2  0  0  0  0  0  0
  161.6750  212.7070  148.3950 C   0  0  0  0  0  2  0  0  0  0  0  0
  162.1250  211.4660  149.0530 C   0  0  2  0  0  3  0  0  0  0  0  0
  162.9940  212.2380  148.2620 O   0  0  0  0  0  0  0  0  0  0  0  0
  1 18  1  1  0  0  0
  1 13  1  0  0  0  0
  2  5  1  6  0  0  0
  2  6  1  0  0  0  0
  2  4  1  0  0  0  0
  4  7  1  1  0  0  0
  6  1  1  0  0  0  0
  6  3  1  1  0  0  0
  6  4  1  0  0  0  0
  8  7  1  0  0  0  0
  9  8  1  0  0  0  0
 10  9  1  0  0  0  0
 11 10  1  0  0  0  0
 12 11  1  0  0  0  0
 13 15  1  0  0  0  0
 13 14  1  1  0  0  0
 15 16  1  0  0  0  0
 16 17  1  0  0  0  0
 19 18  1  0  0  0  0
 20 19  1  0  0  0  0
 21 20  1  0  0  0  0
 22 23  2  0  0  0  0
 23 21  1  0  0  0  0
 24 23  1  0  0  0  0
 25 24  1  0  0  0  0
 26 25  1  0  0  0  0
 27 20  1  0  0  0  0
 28 29  1  0  0  0  0
 29 27  1  6  0  0  0
 30 28  1  0  0  0  0
 30 29  1  0  0  0  0
M  END
>  <MODEL>
8

>  <REMARK>
 VINA RESULT:      -4.2      1.840      5.279
  Name = 
  17 active torsions:
  status: ('A' for Active; 'I' for Inactive)
    1  A    between atoms: C_1  and  N_4
    2  A    between atoms: C_1  and  C_22
    3  A    between atoms: C_2  and  C_14
    4  A    between atoms: C_2  and  C_29
    5  A    between atoms: N_4  and  C_5
    6  A    between atoms: N_4  and  C_9
    7  A    between atoms: C_5  and  C_17
    8  A    between atoms: C_9  and  C_12
    9  A    between atoms: C_10  and  O_15
   10  A    between atoms: C_10  and  C_16
   11  A    between atoms: C_11  and  C_24
   12  A    between atoms: C_13  and  N_27
   13  A    between atoms: C_14  and  C_20
   14  A    between atoms: O_15  and  C_25
   15  A    between atoms: C_22  and  C_29
   16  A    between atoms: C_23  and  C_29
   17  A    between atoms: C_24  and  C_25
                            x       y       z     vdW  Elec       q    Type
                         _______ _______ _______ _____ _____    ______ ____

>  <TORSDO>
F 17

$$$$
=
 OpenBabel11052422053D

 30 31  0  0  1  0  0  0  0  0999 V2000
  160.9910  208.6110  154.1730 C   0  0  1  0  0  3  0  0  0  0  0  0
  161.2970  210.7880  152.7080 C   0  0  1  0  0  3  0  0  0  0  0  0
  158.9300  209.9240  153.1700 C   0  0  0  0  0  1  0  0  0  0  0  0
  161.0070  211.1880  154.1480 C   0  0  2  0  0  3  0  0  0  0  0  0
  162.7380  210.3120  152.6180 C   0  0  0  0  0  1  0  0  0  0  0  0
  160.4010  209.9040  153.5780 C   0  0  1  0  0  0  0  0  0  0  0  0
  160.0500  212.3740  154.1710 C   0  0  0  0  0  2  0  0  0  0  0  0
  159.8110  212.8330  155.6000 C   0  0  0  0  0  2  0  0  0  0  0  0
  159.1630  211.8320  156.3250 O   0  0  0  0  0  0  0  0  0  0  0  0
  157.8290  212.2430  156.3790 C   0  0  0  0  0  2  0  0  0  0  0  0
  156.9260  211.1540  155.8270 C   0  0  0  0  0  2  0  0  0  0  0  0
  156.0050  211.7220  154.7650 C   0  0  0  0  0  1  0  0  0  0  0  0
  160.6840  208.4830  155.6710 C   0  0  1  0  0  3  0  0  0  0  0  0
  159.8170  207.2690  155.9890 C   0  0  0  0  0  1  0  0  0  0  0  0
  161.9700  208.4550  156.4810 C   0  0  0  0  0  2  0  0  0  0  0  0
  162.1360  209.7470  157.2610 C   0  0  0  0  0  2  0  0  0  0  0  0
  163.3680  210.3200  156.9540 O   0  0  0  0  0  1  0  0  0  0  0  0
  160.5880  207.3620  153.3860 C   0  0  0  0  0  2  0  0  0  0  0  0
  161.6010  207.0620  152.2930 C   0  0  0  0  0  2  0  0  0  0  0  0
  161.1240  205.9760  151.4460 N   0  0  0  0  0  0  0  0  0  0  0  0
  161.9070  204.7610  151.7150 C   0  0  0  0  0  2  0  0  0  0  0  0
  160.5820  202.8690  152.3410 O   0  0  0  0  0  0  0  0  0  0  0  0
  161.1760  203.4800  151.4130 C   0  0  0  0  0  0  0  0  0  0  0  0
  161.1420  202.9790  150.0760 N   0  0  0  0  0  2  0  0  0  0  0  0
  160.4170  201.7670  149.7280 C   0  0  0  0  0  2  0  0  0  0  0  0
  160.8310  201.3100  148.3460 C   0  0  0  0  0  1  0  0  0  0  0  0
  161.2710  206.3740  150.0490 C   0  0  0  0  0  2  0  0  0  0  0  0
  161.6310  208.3530  148.6520 C   0  0  0  0  0  2  0  0  0  0  0  0
  161.9130  207.7450  149.9670 C   0  0  2  0  0  3  0  0  0  0  0  0
  162.8650  207.7420  148.9330 O   0  0  0  0  0  0  0  0  0  0  0  0
  1 18  1  6  0  0  0
  1 13  1  0  0  0  0
  2  5  1  1  0  0  0
  2  6  1  0  0  0  0
  2  4  1  0  0  0  0
  4  7  1  6  0  0  0
  6  3  1  6  0  0  0
  6  4  1  0  0  0  0
  6  1  1  0  0  0  0
  7  8  1  0  0  0  0
  8  9  1  0  0  0  0
  9 10  1  0  0  0  0
 11 10  1  0  0  0  0
 12 11  1  0  0  0  0
 13 14  1  6  0  0  0
 13 15  1  0  0  0  0
 15 16  1  0  0  0  0
 17 16  1  0  0  0  0
 19 18  1  0  0  0  0
 20 21  1  0  0  0  0
 20 19  1  0  0  0  0
 23 21  1  0  0  0  0
 23 22  2  0  0  0  0
 24 23  1  0  0  0  0
 25 24  1  0  0  0  0
 26 25  1  0  0  0  0
 27 20  1  0  0  0  0
 28 30  1  0  0  0  0
 28 29  1  0  0  0  0
 29 27  1  6  0  0  0
 30 29  1  0  0  0  0
M  END
>  <MODEL>
9

>  <REMARK>
 VINA RESULT:      -4.2      3.075      8.568
  Name = 
  17 active torsions:
  status: ('A' for Active; 'I' for Inactive)
    1  A    between atoms: C_1  and  N_4
    2  A    between atoms: C_1  and  C_22
    3  A    between atoms: C_2  and  C_14
    4  A    between atoms: C_2  and  C_29
    5  A    between atoms: N_4  and  C_5
    6  A    between atoms: N_4  and  C_9
    7  A    between atoms: C_5  and  C_17
    8  A    between atoms: C_9  and  C_12
    9  A    between atoms: C_10  and  O_15
   10  A    between atoms: C_10  and  C_16
   11  A    between atoms: C_11  and  C_24
   12  A    between atoms: C_13  and  N_27
   13  A    between atoms: C_14  and  C_20
   14  A    between atoms: O_15  and  C_25
   15  A    between atoms: C_22  and  C_29
   16  A    between atoms: C_23  and  C_29
   17  A    between atoms: C_24  and  C_25
                            x       y       z     vdW  Elec       q    Type
                         _______ _______ _______ _____ _____    ______ ____

>  <TORSDO>
F 17

$$$$
