=
 OpenBabel11052422033D

 30 33  0  0  1  0  0  0  0  0999 V2000
  160.8210  204.2970  152.0210 C   0  0  0  0  0  0  0  0  0  0  0  0
  160.9150  206.3470  153.2770 C   0  0  0  0  0  3  0  0  0  0  0  0
  162.1240  208.5990  149.8580 N   0  0  0  0  0  0  0  0  0  0  0  0
  159.6570  206.2770  149.0870 C   0  0  0  0  0  1  0  0  0  0  0  0
  161.9760  203.4550  151.9390 N   0  0  0  0  0  2  0  0  0  0  0  0
  160.6820  201.4710  149.5500 C   0  0  2  0  0  3  0  0  0  0  0  0
  160.8060  201.3220  151.0820 C   0  0  0  0  0  2  0  0  0  0  0  0
  163.0290  201.3860  151.9300 O   0  0  0  0  0  0  0  0  0  0  0  0
  162.0050  205.9930  147.0080 C   0  0  2  0  0  3  0  0  0  0  0  0
  162.2660  207.9910  148.5730 C   0  0  0  0  0  0  0  0  0  0  0  0
  161.9810  202.0400  151.6960 C   0  0  0  0  0  0  0  0  0  0  0  0
  161.7840  203.0590  148.6320 C   0  0  2  0  0  3  0  0  0  0  0  0
  161.0630  207.8320  153.4320 C   0  0  0  0  0  2  0  0  0  0  0  0
  162.6470  204.6210  146.7740 C   0  0  0  0  0  2  0  0  0  0  0  0
  162.0310  201.5770  148.8460 C   0  0  0  0  0  2  0  0  0  0  0  0
  159.6660  203.8030  152.1090 O   0  0  0  0  0  0  0  0  0  0  0  0
  161.7450  207.8260  151.0090 C   0  0  0  0  0  0  0  0  0  0  0  0
  161.8130  208.4120  152.3200 N   0  0  0  0  0  0  0  0  0  0  0  0
  160.3800  202.9110  149.1880 C   0  0  0  0  0  2  0  0  0  0  0  0
  160.9950  205.7530  152.0830 C   0  0  0  0  0  0  0  0  0  0  0  0
  161.0940  205.9720  149.4900 C   0  0  1  0  0  3  0  0  0  0  0  0
  162.5790  208.6970  147.5770 O   0  0  0  0  0  0  0  0  0  0  0  0
  162.1250  206.5010  148.4630 C   0  0  1  0  0  3  0  0  0  0  0  0
  161.0760  202.9090  146.3730 O   0  0  0  0  0  0  0  0  0  0  0  0
  162.4080  209.7250  152.5070 C   0  0  0  0  0  1  0  0  0  0  0  0
  161.3370  206.5450  150.8700 C   0  0  1  0  0  3  0  0  0  0  0  0
  161.7800  203.4750  147.1960 C   0  0  0  0  0  0  0  0  0  0  0  0
  160.7040  206.0640  146.4980 O   0  0  0  0  0  0  0  0  0  0  0  0
  160.8640  206.3040  145.1330 C   0  0  0  0  0  2  0  0  0  0  0  0
  160.3200  205.1300  144.3480 C   0  0  0  0  0  1  0  0  0  0  0  0
  1 20  1  0  0  0  0
  1 16  2  0  0  0  0
  2 13  1  0  0  0  0
  3 17  2  0  0  0  0
  5  1  1  0  0  0  0
  6 15  1  6  0  0  0
  6  7  1  0  0  0  0
  7 11  1  0  0  0  0
  9 28  1  1  0  0  0
  9 23  1  0  0  0  0
 10  3  1  0  0  0  0
 11  8  2  0  0  0  0
 11  5  1  0  0  0  0
 12 15  1  6  0  0  0
 12 19  1  0  0  0  0
 14  9  1  0  0  0  0
 14 27  1  0  0  0  0
 17 18  1  0  0  0  0
 18 25  1  0  0  0  0
 18 13  1  0  0  0  0
 19  6  1  0  0  0  0
 20  2  2  0  0  0  0
 21  4  1  6  0  0  0
 21 26  1  0  0  0  0
 22 10  2  0  0  0  0
 23 10  1  6  0  0  0
 23 21  1  0  0  0  0
 24 27  2  0  0  0  0
 26 17  1  6  0  0  0
 26 20  1  0  0  0  0
 27 12  1  0  0  0  0
 29 28  1  0  0  0  0
 30 29  1  0  0  0  0
M  END
>  <MODEL>
1

>  <REMARK>
 VINA RESULT:      -4.8      0.000      0.000
  Name = 
  2 active torsions:
  status: ('A' for Active; 'I' for Inactive)
    1  A    between atoms: C_7  and  O_26
    2  A    between atoms: C_10  and  O_26
                            x       y       z     vdW  Elec       q    Type
                         _______ _______ _______ _____ _____    ______ ____

>  <TORSDO>
F 2

$$$$
=
 OpenBabel11052422033D

 30 33  0  0  1  0  0  0  0  0999 V2000
  162.0240  208.1990  150.4120 C   0  0  0  0  0  0  0  0  0  0  0  0
  162.0190  210.2080  149.0890 C   0  0  0  0  0  3  0  0  0  0  0  0
  160.2400  212.4880  152.2290 N   0  0  0  0  0  2  0  0  0  0  0  0
  162.6740  210.3090  153.4130 C   0  0  0  0  0  1  0  0  0  0  0  0
  160.9070  207.3040  150.3590 N   0  0  0  0  0  2  0  0  0  0  0  0
  161.9370  205.4490  152.9690 C   0  0  2  0  0  3  0  0  0  0  0  0
  162.0380  205.2540  151.4410 C   0  0  0  0  0  2  0  0  0  0  0  0
  159.9560  205.1880  150.2890 O   0  0  0  0  0  0  0  0  0  0  0  0
  160.0690  209.9670  155.1510 C   0  0  2  0  0  3  0  0  0  0  0  0
  159.9450  211.9080  153.5000 C   0  0  0  0  0  0  0  0  0  0  0  0
  160.9310  205.8980  150.6450 C   0  0  0  0  0  0  0  0  0  0  0  0
  160.6470  207.0060  153.6710 C   0  0  2  0  0  3  0  0  0  0  0  0
  161.8290  211.6800  148.8660 C   0  0  0  0  0  2  0  0  0  0  0  0
  159.4620  208.5730  155.3380 C   0  0  0  0  0  2  0  0  0  0  0  0
  160.4990  205.5090  153.4740 C   0  0  0  0  0  2  0  0  0  0  0  0
  163.2010  207.7590  150.5030 O   0  0  0  0  0  0  0  0  0  0  0  0
  160.8110  211.7040  151.1680 C   0  0  0  0  0  0  0  0  0  0  0  0
  160.9040  212.2520  149.8420 N   0  0  0  0  0  0  0  0  0  0  0  0
  162.1210  206.9110  153.3230 C   0  0  0  0  0  2  0  0  0  0  0  0
  161.7960  209.6420  150.2780 C   0  0  0  0  0  0  0  0  0  0  0  0
  161.3220  209.9240  152.8230 C   0  0  1  0  0  3  0  0  0  0  0  0
  159.4630  212.6240  154.4190 O   0  0  0  0  0  0  0  0  0  0  0  0
  160.1350  210.4300  153.6780 C   0  0  1  0  0  3  0  0  0  0  0  0
  161.0340  206.9490  156.0110 O   0  0  0  0  0  0  0  0  0  0  0  0
  160.2840  213.5290  149.5310 C   0  0  0  0  0  1  0  0  0  0  0  0
  161.2520  210.4490  151.4050 C   0  0  0  0  0  0  0  0  0  0  0  0
  160.4300  207.4590  155.0800 C   0  0  0  0  0  0  0  0  0  0  0  0
  161.2810  210.1140  155.8360 O   0  0  0  0  0  0  0  0  0  0  0  0
  160.9240  210.5460  157.1140 C   0  0  0  0  0  2  0  0  0  0  0  0
  161.2590  212.0150  157.2610 C   0  0  0  0  0  1  0  0  0  0  0  0
  1 16  2  0  0  0  0
  2 20  2  0  0  0  0
  3 10  1  0  0  0  0
  5  1  1  0  0  0  0
  5 11  1  0  0  0  0
  6  7  1  6  0  0  0
  6 19  1  0  0  0  0
  6 15  1  0  0  0  0
  8 11  2  0  0  0  0
  9 14  1  0  0  0  0
  9 28  1  6  0  0  0
 10 22  2  0  0  0  0
 11  7  1  0  0  0  0
 12 19  1  1  0  0  0
 12 27  1  0  0  0  0
 13  2  1  0  0  0  0
 13 18  1  0  0  0  0
 15 12  1  0  0  0  0
 17 26  2  0  0  0  0
 17  3  1  0  0  0  0
 18 17  1  0  0  0  0
 20  1  1  0  0  0  0
 20 26  1  0  0  0  0
 21  4  1  1  0  0  0
 21 23  1  0  0  0  0
 23 10  1  1  0  0  0
 23  9  1  0  0  0  0
 25 18  1  0  0  0  0
 26 21  1  0  0  0  0
 27 14  1  0  0  0  0
 27 24  2  0  0  0  0
 28 29  1  0  0  0  0
 29 30  1  0  0  0  0
M  END
>  <MODEL>
2

>  <REMARK>
 VINA RESULT:      -4.7      3.502      7.209
  Name = 
  2 active torsions:
  status: ('A' for Active; 'I' for Inactive)
    1  A    between atoms: C_7  and  O_26
    2  A    between atoms: C_10  and  O_26
                            x       y       z     vdW  Elec       q    Type
                         _______ _______ _______ _____ _____    ______ ____

>  <TORSDO>
F 2

$$$$
=
 OpenBabel11052422033D

 30 33  0  0  1  0  0  0  0  0999 V2000
  162.0430  207.5770  147.9310 C   0  0  0  0  0  0  0  0  0  0  0  0
  162.0530  209.6020  149.2300 C   0  0  0  0  0  3  0  0  0  0  0  0
  160.8290  207.5530  152.7680 N   0  0  0  0  0  2  0  0  0  0  0  0
  163.1940  205.7540  150.9700 C   0  0  0  0  0  1  0  0  0  0  0  0
  160.8590  207.1820  147.2300 N   0  0  0  0  0  2  0  0  0  0  0  0
  162.0210  204.1200  146.4620 C   0  0  2  0  0  3  0  0  0  0  0  0
  161.9330  205.4380  145.6630 C   0  0  0  0  0  2  0  0  0  0  0  0
  159.7370  206.3150  145.3920 O   0  0  0  0  0  0  0  0  0  0  0  0
  160.7820  203.8510  151.6630 C   0  0  2  0  0  3  0  0  0  0  0  0
  160.6310  206.1380  152.7840 C   0  0  0  0  0  0  0  0  0  0  0  0
  160.8000  206.3480  146.0630 C   0  0  0  0  0  0  0  0  0  0  0  0
  160.9490  204.0280  148.3120 C   0  0  2  0  0  3  0  0  0  0  0  0
  161.9590  210.3930  150.5020 C   0  0  0  0  0  2  0  0  0  0  0  0
  160.0890  203.0690  150.5430 C   0  0  0  0  0  2  0  0  0  0  0  0
  160.6580  203.5850  146.8900 C   0  0  0  0  0  2  0  0  0  0  0  0
  163.1840  207.3960  147.4270 O   0  0  0  0  0  0  0  0  0  0  0  0
  161.2120  208.2370  151.5640 C   0  0  0  0  0  0  0  0  0  0  0  0
  161.1990  209.6750  151.5220 N   0  0  0  0  0  0  0  0  0  0  0  0
  162.3620  204.4080  147.9100 C   0  0  0  0  0  2  0  0  0  0  0  0
  161.9200  208.2730  149.2170 C   0  0  0  0  0  0  0  0  0  0  0  0
  161.7590  206.0390  150.5460 C   0  0  1  0  0  3  0  0  0  0  0  0
  160.3150  205.5620  153.8590 O   0  0  0  0  0  0  0  0  0  0  0  0
  160.7190  205.3860  151.4880 C   0  0  1  0  0  3  0  0  0  0  0  0
  161.5890  201.9020  149.1480 O   0  0  0  0  0  0  0  0  0  0  0  0
  160.6540  210.4370  152.6330 C   0  0  0  0  0  1  0  0  0  0  0  0
  161.5730  207.5390  150.4640 C   0  0  0  0  0  0  0  0  0  0  0  0
  160.9280  202.9160  149.3120 C   0  0  0  0  0  0  0  0  0  0  0  0
  162.0710  203.3720  151.9260 O   0  0  0  0  0  0  0  0  0  0  0  0
  161.9120  202.0010  152.1320 C   0  0  0  0  0  2  0  0  0  0  0  0
  163.2650  201.3240  152.0790 C   0  0  0  0  0  1  0  0  0  0  0  0
  1 20  1  0  0  0  0
  2 13  1  0  0  0  0
  3 10  1  0  0  0  0
  5  1  1  0  0  0  0
  6  7  1  6  0  0  0
  6 15  1  0  0  0  0
  6 19  1  0  0  0  0
  7 11  1  0  0  0  0
  8 11  2  0  0  0  0
  9 28  1  6  0  0  0
 10 22  2  0  0  0  0
 11  5  1  0  0  0  0
 12 15  1  6  0  0  0
 12 27  1  0  0  0  0
 13 18  1  0  0  0  0
 14  9  1  0  0  0  0
 16  1  2  0  0  0  0
 17  3  1  0  0  0  0
 18 17  1  0  0  0  0
 18 25  1  0  0  0  0
 19 12  1  0  0  0  0
 20  2  2  0  0  0  0
 20 26  1  0  0  0  0
 21  4  1  1  0  0  0
 21 23  1  0  0  0  0
 23  9  1  0  0  0  0
 23 10  1  1  0  0  0
 24 27  2  0  0  0  0
 26 21  1  0  0  0  0
 26 17  2  0  0  0  0
 27 14  1  0  0  0  0
 28 29  1  0  0  0  0
 30 29  1  0  0  0  0
M  END
>  <MODEL>
3

>  <REMARK>
 VINA RESULT:      -2.7      1.715      5.071
  Name = 
  2 active torsions:
  status: ('A' for Active; 'I' for Inactive)
    1  A    between atoms: C_7  and  O_26
    2  A    between atoms: C_10  and  O_26
                            x       y       z     vdW  Elec       q    Type
                         _______ _______ _______ _____ _____    ______ ____

>  <TORSDO>
F 2

$$$$
=
 OpenBabel11052422033D

 30 33  0  0  1  0  0  0  0  0999 V2000
  160.0640  210.0690  154.0520 C   0  0  0  0  0  0  0  0  0  0  0  0
  160.8050  207.7920  154.2850 C   0  0  0  0  0  3  0  0  0  0  0  0
  162.1060  207.6070  150.2240 N   0  0  0  0  0  2  0  0  0  0  0  0
  162.9120  210.6380  151.7170 C   0  0  0  0  0  1  0  0  0  0  0  0
  158.7150  210.3470  153.6610 N   0  0  0  0  0  2  0  0  0  0  0  0
  159.2590  213.6280  153.1600 C   0  0  2  0  0  3  0  0  0  0  0  0
  158.6500  212.8350  154.3360 C   0  0  0  0  0  2  0  0  0  0  0  0
  156.7280  211.5390  153.7960 O   0  0  0  0  0  0  0  0  0  0  0  0
  161.5150  211.2070  148.9520 C   0  0  2  0  0  3  0  0  0  0  0  0
  162.0100  208.7360  149.3550 C   0  0  0  0  0  0  0  0  0  0  0  0
  157.9770  211.5430  153.9480 C   0  0  0  0  0  0  0  0  0  0  0  0
  159.5650  212.5710  151.3250 C   0  0  2  0  0  3  0  0  0  0  0  0
  161.4910  206.5390  153.8250 C   0  0  0  0  0  2  0  0  0  0  0  0
  160.3050  212.1450  148.8940 C   0  0  0  0  0  2  0  0  0  0  0  0
  158.4730  213.4770  151.8620 C   0  0  0  0  0  2  0  0  0  0  0  0
  160.6540  210.7920  154.8990 O   0  0  0  0  0  0  0  0  0  0  0  0
  161.6370  207.6700  151.5810 C   0  0  0  0  0  0  0  0  0  0  0  0
  161.5500  206.4690  152.3670 N   0  0  0  0  0  0  0  0  0  0  0  0
  160.4120  212.8570  152.5510 C   0  0  0  0  0  2  0  0  0  0  0  0
  160.7390  208.8820  153.5150 C   0  0  0  0  0  0  0  0  0  0  0  0
  161.5130  210.1420  151.3720 C   0  0  1  0  0  3  0  0  0  0  0  0
  162.4470  208.6590  148.1760 O   0  0  0  0  0  0  0  0  0  0  0  0
  161.3040  209.9660  149.8490 C   0  0  1  0  0  3  0  0  0  0  0  0
  160.6600  214.2010  149.9940 O   0  0  0  0  0  0  0  0  0  0  0  0
  161.7830  205.1730  151.7530 C   0  0  0  0  0  1  0  0  0  0  0  0
  161.2640  208.8520  152.1230 C   0  0  0  0  0  0  0  0  0  0  0  0
  160.2070  213.0690  150.0690 C   0  0  0  0  0  0  0  0  0  0  0  0
  162.7060  211.8920  149.2200 O   0  0  0  0  0  0  0  0  0  0  0  0
  163.2160  212.2340  147.9680 C   0  0  0  0  0  2  0  0  0  0  0  0
  163.1360  213.7340  147.7830 C   0  0  0  0  0  1  0  0  0  0  0  0
  1 16  2  0  0  0  0
  3 17  1  0  0  0  0
  5 11  1  0  0  0  0
  5  1  1  0  0  0  0
  6 15  1  6  0  0  0
  6  7  1  0  0  0  0
  8 11  2  0  0  0  0
  9 28  1  1  0  0  0
  9 23  1  0  0  0  0
 10  3  1  0  0  0  0
 11  7  1  0  0  0  0
 12 15  1  1  0  0  0
 12 19  1  0  0  0  0
 13  2  1  0  0  0  0
 14  9  1  0  0  0  0
 14 27  1  0  0  0  0
 17 26  2  0  0  0  0
 17 18  1  0  0  0  0
 18 13  1  0  0  0  0
 19  6  1  0  0  0  0
 20  1  1  0  0  0  0
 20  2  2  0  0  0  0
 21  4  1  6  0  0  0
 21 26  1  0  0  0  0
 22 10  2  0  0  0  0
 23 10  1  6  0  0  0
 23 21  1  0  0  0  0
 24 27  2  0  0  0  0
 25 18  1  0  0  0  0
 26 20  1  0  0  0  0
 27 12  1  0  0  0  0
 29 28  1  0  0  0  0
 30 29  1  0  0  0  0
M  END
>  <MODEL>
4

>  <REMARK>
 VINA RESULT:      -2.6      3.965      7.649
  Name = 
  2 active torsions:
  status: ('A' for Active; 'I' for Inactive)
    1  A    between atoms: C_7  and  O_26
    2  A    between atoms: C_10  and  O_26
                            x       y       z     vdW  Elec       q    Type
                         _______ _______ _______ _____ _____    ______ ____

>  <TORSDO>
F 2

$$$$
=
 OpenBabel11052422033D

 30 33  0  0  1  0  0  0  0  0999 V2000
  158.6940  213.4750  153.8000 C   0  0  0  0  0  0  0  0  0  0  0  0
  158.9200  214.4190  151.5990 C   0  0  0  0  0  3  0  0  0  0  0  0
  161.5110  211.2780  150.3190 N   0  0  0  0  0  2  0  0  0  0  0  0
  158.8740  210.0930  152.2460 C   0  0  0  0  0  1  0  0  0  0  0  0
  159.5950  213.8630  154.8420 N   0  0  0  0  0  2  0  0  0  0  0  0
  158.5730  211.4720  156.9760 C   0  0  2  0  0  3  0  0  0  0  0  0
  158.2360  212.9730  156.8450 C   0  0  0  0  0  2  0  0  0  0  0  0
  160.0940  214.4490  157.0320 O   0  0  0  0  0  0  0  0  0  0  0  0
  161.5650  208.8950  153.3600 C   0  0  2  0  0  3  0  0  0  0  0  0
  161.8510  210.1900  151.1800 C   0  0  0  0  0  0  0  0  0  0  0  0
  159.3330  213.8200  156.2520 C   0  0  0  0  0  0  0  0  0  0  0  0
  160.2260  210.7400  155.8290 C   0  0  2  0  0  3  0  0  0  0  0  0
  159.3650  214.4180  150.1660 C   0  0  0  0  0  2  0  0  0  0  0  0
  161.9050  209.0520  154.8460 C   0  0  0  0  0  2  0  0  0  0  0  0
  160.0490  211.2100  157.2610 C   0  0  0  0  0  2  0  0  0  0  0  0
  157.4760  213.2650  154.0440 O   0  0  0  0  0  0  0  0  0  0  0  0
  160.6620  212.3460  150.7690 C   0  0  0  0  0  0  0  0  0  0  0  0
  160.5050  213.5260  149.9630 N   0  0  0  0  0  0  0  0  0  0  0  0
  158.7290  210.8490  155.6030 C   0  0  0  0  0  2  0  0  0  0  0  0
  159.1810  213.3970  152.4180 C   0  0  0  0  0  0  0  0  0  0  0  0
  160.0330  210.9560  152.7290 C   0  0  1  0  0  3  0  0  0  0  0  0
  162.5810  209.2560  150.7520 O   0  0  0  0  0  0  0  0  0  0  0  0
  161.3990  210.2370  152.6110 C   0  0  1  0  0  3  0  0  0  0  0  0
  160.1470  208.4130  156.2810 O   0  0  0  0  0  0  0  0  0  0  0  0
  161.3180  213.7140  148.7720 C   0  0  0  0  0  1  0  0  0  0  0  0
  160.0170  212.2560  151.9540 C   0  0  0  0  0  0  0  0  0  0  0  0
  160.7120  209.3310  155.7070 C   0  0  0  0  0  0  0  0  0  0  0  0
  160.5080  208.0040  153.1490 O   0  0  0  0  0  0  0  0  0  0  0  0
  161.0960  206.7390  153.1490 C   0  0  0  0  0  2  0  0  0  0  0  0
  161.2520  206.2560  151.7230 C   0  0  0  0  0  1  0  0  0  0  0  0
  1 16  2  0  0  0  0
  1  5  1  0  0  0  0
  2 20  2  0  0  0  0
  3 17  1  0  0  0  0
  3 10  1  0  0  0  0
  5 11  1  0  0  0  0
  6 19  1  6  0  0  0
  6 15  1  0  0  0  0
  7  6  1  0  0  0  0
  9 28  1  1  0  0  0
  9 14  1  0  0  0  0
 11  7  1  0  0  0  0
 11  8  2  0  0  0  0
 12 19  1  6  0  0  0
 12 15  1  0  0  0  0
 13  2  1  0  0  0  0
 14 27  1  0  0  0  0
 17 26  2  0  0  0  0
 18 13  1  0  0  0  0
 18 17  1  0  0  0  0
 20  1  1  0  0  0  0
 21  4  1  6  0  0  0
 22 10  2  0  0  0  0
 23 10  1  6  0  0  0
 23 21  1  0  0  0  0
 23  9  1  0  0  0  0
 25 18  1  0  0  0  0
 26 20  1  0  0  0  0
 26 21  1  0  0  0  0
 27 12  1  0  0  0  0
 27 24  2  0  0  0  0
 29 28  1  0  0  0  0
 30 29  1  0  0  0  0
M  END
>  <MODEL>
5

>  <REMARK>
 VINA RESULT:      -2.6      5.029      8.913
  Name = 
  2 active torsions:
  status: ('A' for Active; 'I' for Inactive)
    1  A    between atoms: C_7  and  O_26
    2  A    between atoms: C_10  and  O_26
                            x       y       z     vdW  Elec       q    Type
                         _______ _______ _______ _____ _____    ______ ____

>  <TORSDO>
F 2

$$$$
=
 OpenBabel11052422033D

 30 33  0  0  1  0  0  0  0  0999 V2000
  161.5590  210.2530  152.5900 C   0  0  0  0  0  0  0  0  0  0  0  0
  161.8780  211.2570  150.4270 C   0  0  0  0  0  3  0  0  0  0  0  0
  158.2990  213.5580  150.7650 N   0  0  0  0  0  0  0  0  0  0  0  0
  160.0840  213.4750  153.7440 C   0  0  0  0  0  1  0  0  0  0  0  0
  160.8390  209.0210  152.7090 N   0  0  0  0  0  2  0  0  0  0  0  0
  160.6450  209.1540  156.0640 C   0  0  2  0  0  3  0  0  0  0  0  0
  161.5820  208.3980  155.0980 C   0  0  0  0  0  2  0  0  0  0  0  0
  160.4980  206.9030  153.5960 O   0  0  0  0  0  0  0  0  0  0  0  0
  157.0770  212.7540  154.3410 C   0  0  2  0  0  3  0  0  0  0  0  0
  157.4860  213.5110  151.9380 C   0  0  0  0  0  0  0  0  0  0  0  0
  160.9740  208.0560  153.7620 C   0  0  0  0  0  0  0  0  0  0  0  0
  158.9100  210.0780  155.2160 C   0  0  2  0  0  3  0  0  0  0  0  0
  161.5600  212.2240  149.3250 C   0  0  0  0  0  2  0  0  0  0  0  0
  156.7440  211.4670  155.1020 C   0  0  0  0  0  2  0  0  0  0  0  0
  159.1790  208.7570  155.9130 C   0  0  0  0  0  2  0  0  0  0  0  0
  162.5620  210.4880  153.3150 O   0  0  0  0  0  0  0  0  0  0  0  0
  159.4860  212.7560  150.6490 C   0  0  0  0  0  0  0  0  0  0  0  0
  160.1670  212.6620  149.3860 N   0  0  0  0  0  0  0  0  0  0  0  0
  160.3270  210.5300  155.5140 C   0  0  0  0  0  2  0  0  0  0  0  0
  161.1670  211.2190  151.5580 C   0  0  0  0  0  0  0  0  0  0  0  0
  159.3610  212.3050  153.0880 C   0  0  1  0  0  3  0  0  0  0  0  0
  156.4610  214.2400  152.0210 O   0  0  0  0  0  0  0  0  0  0  0  0
  157.8300  212.5190  153.0120 C   0  0  1  0  0  3  0  0  0  0  0  0
  157.9880  211.2050  157.0880 O   0  0  0  0  0  0  0  0  0  0  0  0
  159.5790  213.2430  148.1900 C   0  0  0  0  0  1  0  0  0  0  0  0
  159.9620  212.0790  151.7170 C   0  0  1  0  0  3  0  0  0  0  0  0
  157.8910  210.9310  155.9020 C   0  0  0  0  0  0  0  0  0  0  0  0
  157.6790  213.7150  155.1610 O   0  0  0  0  0  0  0  0  0  0  0  0
  156.6180  214.3920  155.7640 C   0  0  0  0  0  2  0  0  0  0  0  0
  156.8450  214.4530  157.2590 C   0  0  0  0  0  1  0  0  0  0  0  0
  1  5  1  0  0  0  0
  1 16  2  0  0  0  0
  2 20  2  0  0  0  0
  3 10  1  0  0  0  0
  5 11  1  0  0  0  0
  6  7  1  6  0  0  0
  8 11  2  0  0  0  0
  9 14  1  0  0  0  0
  9 28  1  1  0  0  0
 10 22  2  0  0  0  0
 11  7  1  0  0  0  0
 12 19  1  1  0  0  0
 12 27  1  0  0  0  0
 12 15  1  0  0  0  0
 13 18  1  0  0  0  0
 13  2  1  0  0  0  0
 14 27  1  0  0  0  0
 15  6  1  0  0  0  0
 17  3  2  0  0  0  0
 18 17  1  0  0  0  0
 19  6  1  0  0  0  0
 20 26  1  0  0  0  0
 20  1  1  0  0  0  0
 21  4  1  6  0  0  0
 23 10  1  6  0  0  0
 23 21  1  0  0  0  0
 23  9  1  0  0  0  0
 25 18  1  0  0  0  0
 26 17  1  1  0  0  0
 26 21  1  0  0  0  0
 27 24  2  0  0  0  0
 28 29  1  0  0  0  0
 29 30  1  0  0  0  0
M  END
>  <MODEL>
6

>  <REMARK>
 VINA RESULT:      -2.2      5.788      9.183
  Name = 
  2 active torsions:
  status: ('A' for Active; 'I' for Inactive)
    1  A    between atoms: C_7  and  O_26
    2  A    between atoms: C_10  and  O_26
                            x       y       z     vdW  Elec       q    Type
                         _______ _______ _______ _____ _____    ______ ____

>  <TORSDO>
F 2

$$$$
=
 OpenBabel11052422033D

 30 33  0  0  1  0  0  0  0  0999 V2000
  160.5740  210.7750  153.0560 C   0  0  0  0  0  0  0  0  0  0  0  0
  160.8310  212.2460  151.1700 C   0  0  0  0  0  3  0  0  0  0  0  0
  162.4870  209.1470  148.7460 N   0  0  0  0  0  0  0  0  0  0  0  0
  159.8170  208.0210  150.6630 C   0  0  0  0  0  1  0  0  0  0  0  0
  161.6270  210.6540  154.0190 N   0  0  0  0  0  2  0  0  0  0  0  0
  160.2520  208.0110  155.5800 C   0  0  2  0  0  3  0  0  0  0  0  0
  160.2700  209.5220  155.8970 C   0  0  0  0  0  2  0  0  0  0  0  0
  162.4330  210.4710  156.1880 O   0  0  0  0  0  0  0  0  0  0  0  0
  162.2330  206.0310  151.0170 C   0  0  2  0  0  3  0  0  0  0  0  0
  162.6310  207.8120  149.2330 C   0  0  0  0  0  0  0  0  0  0  0  0
  161.4820  210.2620  155.3910 C   0  0  0  0  0  0  0  0  0  0  0  0
  161.5810  207.3190  154.0510 C   0  0  2  0  0  3  0  0  0  0  0  0
  161.1400  212.5660  149.7370 C   0  0  0  0  0  2  0  0  0  0  0  0
  162.7240  205.6800  152.4250 C   0  0  0  0  0  2  0  0  0  0  0  0
  161.6430  207.3830  155.5660 C   0  0  0  0  0  2  0  0  0  0  0  0
  159.3660  210.7560  153.4130 O   0  0  0  0  0  0  0  0  0  0  0  0
  161.9560  210.1900  149.5800 C   0  0  0  0  0  0  0  0  0  0  0  0
  162.0150  211.5590  149.1420 N   0  0  0  0  0  0  0  0  0  0  0  0
  160.1400  207.7920  154.0840 C   0  0  0  0  0  2  0  0  0  0  0  0
  160.9110  211.0000  151.6460 C   0  0  0  0  0  0  0  0  0  0  0  0
  161.1840  208.4530  151.1790 C   0  0  1  0  0  3  0  0  0  0  0  0
  163.0810  206.9130  148.4730 O   0  0  0  0  0  0  0  0  0  0  0  0
  162.3260  207.5360  150.6770 C   0  0  1  0  0  3  0  0  0  0  0  0
  160.9920  205.0270  153.8860 O   0  0  0  0  0  0  0  0  0  0  0  0
  162.7460  211.9120  147.9360 C   0  0  0  0  0  1  0  0  0  0  0  0
  161.4110  209.8960  150.7820 C   0  0  1  0  0  3  0  0  0  0  0  0
  161.7080  205.9370  153.4950 C   0  0  0  0  0  0  0  0  0  0  0  0
  160.9800  205.4730  150.7380 O   0  0  0  0  0  0  0  0  0  0  0  0
  161.2430  204.1460  150.3970 C   0  0  0  0  0  2  0  0  0  0  0  0
  161.2020  203.9940  148.8920 C   0  0  0  0  0  1  0  0  0  0  0  0
  1 16  2  0  0  0  0
  1  5  1  0  0  0  0
  2 20  2  0  0  0  0
  3 10  1  0  0  0  0
  3 17  2  0  0  0  0
  5 11  1  0  0  0  0
  6 19  1  6  0  0  0
  6  7  1  0  0  0  0
  9 28  1  1  0  0  0
  9 14  1  0  0  0  0
 11  7  1  0  0  0  0
 11  8  2  0  0  0  0
 12 19  1  1  0  0  0
 12 15  1  0  0  0  0
 13  2  1  0  0  0  0
 14 27  1  0  0  0  0
 15  6  1  0  0  0  0
 18 17  1  0  0  0  0
 18 13  1  0  0  0  0
 20  1  1  0  0  0  0
 21  4  1  6  0  0  0
 22 10  2  0  0  0  0
 23 10  1  6  0  0  0
 23  9  1  0  0  0  0
 23 21  1  0  0  0  0
 25 18  1  0  0  0  0
 26 17  1  6  0  0  0
 26 21  1  0  0  0  0
 26 20  1  0  0  0  0
 27 24  2  0  0  0  0
 27 12  1  0  0  0  0
 29 28  1  0  0  0  0
 30 29  1  0  0  0  0
M  END
>  <MODEL>
7

>  <REMARK>
 VINA RESULT:      -2.1      2.962      6.058
  Name = 
  2 active torsions:
  status: ('A' for Active; 'I' for Inactive)
    1  A    between atoms: C_7  and  O_26
    2  A    between atoms: C_10  and  O_26
                            x       y       z     vdW  Elec       q    Type
                         _______ _______ _______ _____ _____    ______ ____

>  <TORSDO>
F 2

$$$$
