=
 OpenBabel11062410443D

 32 36  0  0  1  0  0  0  0  0999 V2000
  162.0300  205.9370  151.7350 C   0  0  1  0  0  3  0  0  0  0  0  0
  160.7060  210.9080  151.6220 C   0  0  0  0  0  0  0  0  0  0  0  0
  162.5260  212.6930  147.4990 C   0  0  0  0  0  3  0  0  0  0  0  0
  161.9320  213.8820  147.7820 N   0  0  0  0  0  0  0  0  0  0  0  0
  161.1210  208.6240  152.3240 C   0  0  0  0  0  0  0  0  0  0  0  0
  162.0570  209.4400  150.2370 C   0  0  0  0  0  3  0  0  0  0  0  0
  162.5790  207.0950  150.9010 C   0  0  0  0  0  2  0  0  0  0  0  0
  162.3900  211.6140  148.3740 C   0  0  0  0  0  3  0  0  0  0  0  0
  161.4740  210.6980  150.4550 C   0  0  0  0  0  0  0  0  0  0  0  0
  161.6350  211.7610  149.5470 C   0  0  0  0  0  0  0  0  0  0  0  0
  160.2640  213.1610  150.9940 C   0  0  0  0  0  0  0  0  0  0  0  0
  161.8390  206.3720  153.1910 C   0  0  0  0  0  2  0  0  0  0  0  0
  161.8720  208.3990  151.1510 C   0  0  0  0  0  0  0  0  0  0  0  0
  160.8370  207.5210  153.3020 C   0  0  0  0  0  2  0  0  0  0  0  0
  161.1930  214.0590  148.9090 C   0  0  0  0  0  3  0  0  0  0  0  0
  161.0230  213.0060  149.8190 C   0  0  0  0  0  0  0  0  0  0  0  0
  160.5290  209.8720  152.5410 C   0  0  0  0  0  3  0  0  0  0  0  0
  160.1290  212.1160  151.8520 N   0  0  0  0  0  0  0  0  0  0  0  0
  160.7460  205.3900  151.1210 C   0  0  0  0  0  2  0  0  0  0  0  0
  160.8350  205.4020  149.6050 C   0  0  0  0  0  2  0  0  0  0  0  0
  161.0930  204.0250  149.0910 C   0  0  0  0  0  0  0  0  0  0  0  0
  160.7690  202.8450  149.9410 C   0  0  0  0  0  1  0  0  0  0  0  0
  161.5860  203.8620  147.9870 O   0  0  0  0  0  0  0  0  0  0  0  0
  159.5780  214.4530  151.3160 C   0  0  0  0  0  2  0  0  0  0  0  0
  157.5050  214.1900  149.1890 C   0  0  0  0  0  0  0  0  0  0  0  0
  157.2210  214.1450  150.4640 C   0  0  0  0  0  0  0  0  0  0  0  0
  157.4180  214.1590  152.5840 C   0  0  0  0  0  0  0  0  0  0  0  0
  156.0820  214.0030  152.2770 C   0  0  0  0  0  3  0  0  0  0  0  0
  155.9620  213.9960  150.9290 N   0  0  0  0  0  2  0  0  0  0  0  0
  157.7740  214.2350  147.9820 O   0  0  0  0  0  0  0  0  0  0  0  0
  157.9190  214.2130  153.8120 C   0  0  0  0  0  1  0  0  0  0  0  0
  158.1370  214.2430  151.4500 N   0  0  0  0  0  0  0  0  0  0  0  0
  1 19  1  6  0  0  0
  1 12  1  0  0  0  0
  2 18  1  0  0  0  0
  2 17  1  0  0  0  0
  3  4  2  0  0  0  0
  3  8  1  0  0  0  0
  4 15  1  0  0  0  0
  5 17  2  0  0  0  0
  5 14  1  0  0  0  0
  6  9  1  0  0  0  0
  6 13  2  0  0  0  0
  7 13  1  0  0  0  0
  7  1  1  0  0  0  0
  8 10  2  0  0  0  0
  9  2  2  0  0  0  0
 10 16  1  0  0  0  0
 10  9  1  0  0  0  0
 11 24  1  0  0  0  0
 11 18  2  0  0  0  0
 12 14  1  0  0  0  0
 13  5  1  0  0  0  0
 15 16  2  0  0  0  0
 16 11  1  0  0  0  0
 20 19  1  0  0  0  0
 21 20  1  0  0  0  0
 21 22  1  0  0  0  0
 23 21  2  0  0  0  0
 24 32  1  0  0  0  0
 25 26  2  0  0  0  0
 26 29  1  0  0  0  0
 26 32  1  0  0  0  0
 27 31  1  0  0  0  0
 28 27  2  0  0  0  0
 29 28  1  0  0  0  0
 30 25  2  0  0  0  0
 32 27  1  0  0  0  0
M  END
>  <MODEL>
1

>  <REMARK>
 VINA RESULT:      -7.7      0.000      0.000
  Name = 
  5 active torsions:
  status: ('A' for Active; 'I' for Inactive)
    1  A    between atoms: C_1  and  C_10
    2  A    between atoms: C_2  and  C_24
    3  A    between atoms: C_10  and  C_24
    4  A    between atoms: C_16  and  C_27
    5  A    between atoms: C_27  and  N_32
                            x       y       z     vdW  Elec       q    Type
                         _______ _______ _______ _____ _____    ______ ____

>  <TORSDO>
F 5

$$$$
=
 OpenBabel11062410443D

 32 36  0  0  1  0  0  0  0  0999 V2000
  161.0840  209.6390  152.8690 C   0  0  1  0  0  3  0  0  0  0  0  0
  161.9160  206.2930  149.0490 C   0  0  0  0  0  0  0  0  0  0  0  0
  160.3180  202.0040  150.6420 C   0  0  0  0  0  3  0  0  0  0  0  0
  160.6040  201.4740  149.4240 N   0  0  0  0  0  0  0  0  0  0  0  0
  161.9300  208.2640  150.4630 C   0  0  0  0  0  0  0  0  0  0  0  0
  161.0990  206.1530  151.3310 C   0  0  0  0  0  3  0  0  0  0  0  0
  161.1220  208.1100  152.8750 C   0  0  0  0  0  2  0  0  0  0  0  0
  160.5620  203.3550  150.8950 C   0  0  0  0  0  3  0  0  0  0  0  0
  161.3660  205.5300  150.1010 C   0  0  0  0  0  0  0  0  0  0  0  0
  161.1040  204.1640  149.8860 C   0  0  0  0  0  0  0  0  0  0  0  0
  161.9350  204.3980  147.6090 C   0  0  0  0  0  0  0  0  0  0  0  0
  162.2460  210.1980  152.0440 C   0  0  0  0  0  2  0  0  0  0  0  0
  161.3610  207.5130  151.5140 C   0  0  0  0  0  0  0  0  0  0  0  0
  162.1660  209.7410  150.5870 C   0  0  0  0  0  2  0  0  0  0  0  0
  161.1300  202.2300  148.4240 C   0  0  0  0  0  3  0  0  0  0  0  0
  161.3910  203.5930  148.6260 C   0  0  0  0  0  0  0  0  0  0  0  0
  162.1870  207.6510  149.2340 C   0  0  0  0  0  3  0  0  0  0  0  0
  162.1790  205.7140  147.8490 N   0  0  0  0  0  0  0  0  0  0  0  0
  159.7310  210.1430  152.3810 C   0  0  0  0  0  2  0  0  0  0  0  0
  159.1540  211.1490  153.3610 C   0  0  0  0  0  2  0  0  0  0  0  0
  158.8080  212.4180  152.6570 C   0  0  0  0  0  0  0  0  0  0  0  0
  159.6960  212.9320  151.5770 C   0  0  0  0  0  1  0  0  0  0  0  0
  157.8120  213.0480  152.9750 O   0  0  0  0  0  0  0  0  0  0  0  0
  162.2360  203.8450  146.2500 C   0  0  0  0  0  2  0  0  0  0  0  0
  160.6760  201.4210  145.4870 C   0  0  0  0  0  0  0  0  0  0  0  0
  160.3360  202.6270  145.1160 C   0  0  0  0  0  0  0  0  0  0  0  0
  160.3290  204.7410  144.8630 C   0  0  0  0  0  0  0  0  0  0  0  0
  159.2520  204.2220  144.1760 C   0  0  0  0  0  3  0  0  0  0  0  0
  159.2610  202.8790  144.3400 N   0  0  0  0  0  2  0  0  0  0  0  0
  161.0000  200.2780  145.8380 O   0  0  0  0  0  0  0  0  0  0  0  0
  160.6450  206.0280  144.9300 C   0  0  0  0  0  1  0  0  0  0  0  0
  161.0100  203.7440  145.4600 N   0  0  0  0  0  0  0  0  0  0  0  0
  1 19  1  6  0  0  0
  1  7  1  0  0  0  0
  2 17  2  0  0  0  0
  2  9  1  0  0  0  0
  3  8  1  0  0  0  0
  4  3  2  0  0  0  0
  5 14  1  0  0  0  0
  5 13  2  0  0  0  0
  6 13  1  0  0  0  0
  9  6  2  0  0  0  0
 10  9  1  0  0  0  0
 10  8  2  0  0  0  0
 11 18  2  0  0  0  0
 11 16  1  0  0  0  0
 12  1  1  0  0  0  0
 13  7  1  0  0  0  0
 14 12  1  0  0  0  0
 15 16  2  0  0  0  0
 15  4  1  0  0  0  0
 16 10  1  0  0  0  0
 17  5  1  0  0  0  0
 18  2  1  0  0  0  0
 19 20  1  0  0  0  0
 21 23  2  0  0  0  0
 21 20  1  0  0  0  0
 22 21  1  0  0  0  0
 24 11  1  0  0  0  0
 25 30  2  0  0  0  0
 26 32  1  0  0  0  0
 26 25  2  0  0  0  0
 27 31  1  0  0  0  0
 27 32  1  0  0  0  0
 28 29  1  0  0  0  0
 28 27  2  0  0  0  0
 29 26  1  0  0  0  0
 32 24  1  0  0  0  0
M  END
>  <MODEL>
2

>  <REMARK>
 VINA RESULT:      -7.4      4.411      9.473
  Name = 
  5 active torsions:
  status: ('A' for Active; 'I' for Inactive)
    1  A    between atoms: C_1  and  C_10
    2  A    between atoms: C_2  and  C_24
    3  A    between atoms: C_10  and  C_24
    4  A    between atoms: C_16  and  C_27
    5  A    between atoms: C_27  and  N_32
                            x       y       z     vdW  Elec       q    Type
                         _______ _______ _______ _____ _____    ______ ____

>  <TORSDO>
F 5

$$$$
=
 OpenBabel11062410443D

 32 36  0  0  1  0  0  0  0  0999 V2000
  161.1910  209.0080  155.4370 C   0  0  1  0  0  3  0  0  0  0  0  0
  160.8180  206.8430  150.7840 C   0  0  0  0  0  0  0  0  0  0  0  0
  161.1670  202.0610  151.4920 C   0  0  0  0  0  3  0  0  0  0  0  0
  160.9480  201.8740  150.1640 N   0  0  0  0  0  0  0  0  0  0  0  0
  161.0680  208.4300  152.6000 C   0  0  0  0  0  0  0  0  0  0  0  0
  161.2420  206.0480  153.0390 C   0  0  0  0  0  3  0  0  0  0  0  0
  161.5640  207.6050  154.9590 C   0  0  0  0  0  2  0  0  0  0  0  0
  161.1970  203.3500  152.0240 C   0  0  0  0  0  3  0  0  0  0  0  0
  161.0200  205.7710  151.6810 C   0  0  0  0  0  0  0  0  0  0  0  0
  160.9980  204.4550  151.1830 C   0  0  0  0  0  0  0  0  0  0  0  0
  160.5670  205.3400  148.9550 C   0  0  0  0  0  0  0  0  0  0  0  0
  161.6620  210.0580  154.4270 C   0  0  0  0  0  2  0  0  0  0  0  0
  161.2510  207.3650  153.5070 C   0  0  0  0  0  0  0  0  0  0  0  0
  161.0000  209.8570  153.0640 C   0  0  0  0  0  2  0  0  0  0  0  0
  160.7510  202.9220  149.3210 C   0  0  0  0  0  3  0  0  0  0  0  0
  160.7680  204.2370  149.8050 C   0  0  0  0  0  0  0  0  0  0  0  0
  160.8360  208.1590  151.2490 C   0  0  0  0  0  3  0  0  0  0  0  0
  160.5980  206.5990  149.4660 N   0  0  0  0  0  0  0  0  0  0  0  0
  159.6950  209.1040  155.7160 C   0  0  0  0  0  2  0  0  0  0  0  0
  159.3490  210.4630  156.2980 C   0  0  0  0  0  2  0  0  0  0  0  0
  158.3310  211.1460  155.4470 C   0  0  0  0  0  0  0  0  0  0  0  0
  158.7060  212.3640  154.6760 C   0  0  0  0  0  1  0  0  0  0  0  0
  157.1870  210.7230  155.3960 O   0  0  0  0  0  0  0  0  0  0  0  0
  160.2980  205.1600  147.4930 C   0  0  0  0  0  2  0  0  0  0  0  0
  161.0130  202.9190  145.6610 C   0  0  0  0  0  0  0  0  0  0  0  0
  161.8460  203.8790  145.9630 C   0  0  0  0  0  0  0  0  0  0  0  0
  162.6790  205.6440  146.8140 C   0  0  0  0  0  0  0  0  0  0  0  0
  163.6420  205.0510  146.0260 C   0  0  0  0  0  3  0  0  0  0  0  0
  163.1090  203.9300  145.4880 N   0  0  0  0  0  2  0  0  0  0  0  0
  160.2230  202.0090  145.3770 O   0  0  0  0  0  0  0  0  0  0  0  0
  162.8400  206.7660  147.5050 C   0  0  0  0  0  1  0  0  0  0  0  0
  161.5480  204.9160  146.7730 N   0  0  0  0  0  0  0  0  0  0  0  0
  1 19  1  6  0  0  0
  2 17  2  0  0  0  0
  2  9  1  0  0  0  0
  3  8  1  0  0  0  0
  4  3  2  0  0  0  0
  5 14  1  0  0  0  0
  5 13  2  0  0  0  0
  6 13  1  0  0  0  0
  7  1  1  0  0  0  0
  9  6  2  0  0  0  0
 10  9  1  0  0  0  0
 10  8  2  0  0  0  0
 11 18  2  0  0  0  0
 11 16  1  0  0  0  0
 12  1  1  0  0  0  0
 13  7  1  0  0  0  0
 14 12  1  0  0  0  0
 15 16  2  0  0  0  0
 15  4  1  0  0  0  0
 16 10  1  0  0  0  0
 17  5  1  0  0  0  0
 18  2  1  0  0  0  0
 19 20  1  0  0  0  0
 21 20  1  0  0  0  0
 22 21  1  0  0  0  0
 23 21  2  0  0  0  0
 24 11  1  0  0  0  0
 25 26  2  0  0  0  0
 26 32  1  0  0  0  0
 27 31  1  0  0  0  0
 28 27  2  0  0  0  0
 29 26  1  0  0  0  0
 29 28  1  0  0  0  0
 30 25  2  0  0  0  0
 32 27  1  0  0  0  0
 32 24  1  0  0  0  0
M  END
>  <MODEL>
3

>  <REMARK>
 VINA RESULT:      -7.3      4.306      9.017
  Name = 
  5 active torsions:
  status: ('A' for Active; 'I' for Inactive)
    1  A    between atoms: C_1  and  C_10
    2  A    between atoms: C_2  and  C_24
    3  A    between atoms: C_10  and  C_24
    4  A    between atoms: C_16  and  C_27
    5  A    between atoms: C_27  and  N_32
                            x       y       z     vdW  Elec       q    Type
                         _______ _______ _______ _____ _____    ______ ____

>  <TORSDO>
F 5

$$$$
=
 OpenBabel11062410443D

 32 36  0  0  1  0  0  0  0  0999 V2000
  161.2080  209.0500  155.6610 C   0  0  1  0  0  3  0  0  0  0  0  0
  160.7970  206.9280  150.9910 C   0  0  0  0  0  0  0  0  0  0  0  0
  161.1340  202.1390  151.6540 C   0  0  0  0  0  3  0  0  0  0  0  0
  160.9050  201.9650  150.3260 N   0  0  0  0  0  0  0  0  0  0  0  0
  161.0640  208.4980  152.8200 C   0  0  0  0  0  0  0  0  0  0  0  0
  161.2330  206.1110  153.2360 C   0  0  0  0  0  3  0  0  0  0  0  0
  161.5730  207.6500  155.1680 C   0  0  0  0  0  2  0  0  0  0  0  0
  161.1710  203.4230  152.1980 C   0  0  0  0  0  3  0  0  0  0  0  0
  161.0010  205.8480  151.8770 C   0  0  0  0  0  0  0  0  0  0  0  0
  160.9710  204.5360  151.3680 C   0  0  0  0  0  0  0  0  0  0  0  0
  160.5280  205.4420  149.1520 C   0  0  0  0  0  0  0  0  0  0  0  0
  161.6760  210.1080  154.6570 C   0  0  0  0  0  2  0  0  0  0  0  0
  161.2490  207.4240  153.7160 C   0  0  0  0  0  0  0  0  0  0  0  0
  161.0040  209.9210  153.2970 C   0  0  0  0  0  2  0  0  0  0  0  0
  160.7060  203.0200  149.4940 C   0  0  0  0  0  3  0  0  0  0  0  0
  160.7310  204.3310  149.9900 C   0  0  0  0  0  0  0  0  0  0  0  0
  160.8220  208.2400  151.4680 C   0  0  0  0  0  3  0  0  0  0  0  0
  160.5670  206.6970  149.6730 N   0  0  0  0  0  0  0  0  0  0  0  0
  159.7140  209.1480  155.9510 C   0  0  0  0  0  2  0  0  0  0  0  0
  159.3870  210.4760  156.6130 C   0  0  0  0  0  2  0  0  0  0  0  0
  158.4320  211.2520  155.7700 C   0  0  0  0  0  0  0  0  0  0  0  0
  158.7430  212.6630  155.4060 C   0  0  0  0  0  1  0  0  0  0  0  0
  157.3880  210.7440  155.3940 O   0  0  0  0  0  0  0  0  0  0  0  0
  160.2490  205.2770  147.6890 C   0  0  0  0  0  2  0  0  0  0  0  0
  162.7250  206.9300  147.5270 C   0  0  0  0  0  0  0  0  0  0  0  0
  162.5890  205.7950  146.8940 C   0  0  0  0  0  0  0  0  0  0  0  0
  161.7730  203.9700  146.1630 C   0  0  0  0  0  0  0  0  0  0  0  0
  163.0360  204.1200  145.6300 C   0  0  0  0  0  3  0  0  0  0  0  0
  163.5500  205.2810  146.0980 N   0  0  0  0  0  2  0  0  0  0  0  0
  162.8510  208.0070  148.1250 O   0  0  0  0  0  0  0  0  0  0  0  0
  160.9610  202.9460  145.9280 C   0  0  0  0  0  1  0  0  0  0  0  0
  161.4900  205.0150  146.9620 N   0  0  0  0  0  0  0  0  0  0  0  0
  1 19  1  6  0  0  0
  2 17  2  0  0  0  0
  2  9  1  0  0  0  0
  3  8  1  0  0  0  0
  4  3  2  0  0  0  0
  5 14  1  0  0  0  0
  5 13  2  0  0  0  0
  6 13  1  0  0  0  0
  7  1  1  0  0  0  0
  9  6  2  0  0  0  0
 10  9  1  0  0  0  0
 10  8  2  0  0  0  0
 11 18  2  0  0  0  0
 11 16  1  0  0  0  0
 12  1  1  0  0  0  0
 13  7  1  0  0  0  0
 14 12  1  0  0  0  0
 15 16  2  0  0  0  0
 15  4  1  0  0  0  0
 16 10  1  0  0  0  0
 17  5  1  0  0  0  0
 18  2  1  0  0  0  0
 19 20  1  0  0  0  0
 21 20  1  0  0  0  0
 22 21  1  0  0  0  0
 23 21  2  0  0  0  0
 24 11  1  0  0  0  0
 25 30  2  0  0  0  0
 26 32  1  0  0  0  0
 26 25  2  0  0  0  0
 27 32  1  0  0  0  0
 28 29  1  0  0  0  0
 28 27  2  0  0  0  0
 29 26  1  0  0  0  0
 31 27  1  0  0  0  0
 32 24  1  0  0  0  0
M  END
>  <MODEL>
4

>  <REMARK>
 VINA RESULT:      -7.2      4.394      8.854
  Name = 
  5 active torsions:
  status: ('A' for Active; 'I' for Inactive)
    1  A    between atoms: C_1  and  C_10
    2  A    between atoms: C_2  and  C_24
    3  A    between atoms: C_10  and  C_24
    4  A    between atoms: C_16  and  C_27
    5  A    between atoms: C_27  and  N_32
                            x       y       z     vdW  Elec       q    Type
                         _______ _______ _______ _____ _____    ______ ____

>  <TORSDO>
F 5

$$$$
=
 OpenBabel11062410443D

 32 36  0  0  1  0  0  0  0  0999 V2000
  161.2140  202.8250  150.1600 C   0  0  1  0  0  3  0  0  0  0  0  0
  161.2120  207.5370  152.2280 C   0  0  0  0  0  0  0  0  0  0  0  0
  162.0880  210.6080  148.5820 C   0  0  0  0  0  3  0  0  0  0  0  0
  161.9260  211.6420  149.4490 N   0  0  0  0  0  0  0  0  0  0  0  0
  161.2310  205.1320  151.9130 C   0  0  0  0  0  0  0  0  0  0  0  0
  161.6660  206.6060  150.0310 C   0  0  0  0  0  3  0  0  0  0  0  0
  161.7580  204.1490  149.6220 C   0  0  0  0  0  2  0  0  0  0  0  0
  161.9560  209.2920  149.0270 C   0  0  0  0  0  3  0  0  0  0  0  0
  161.5120  207.7280  150.8610 C   0  0  0  0  0  0  0  0  0  0  0  0
  161.6530  209.0400  150.3730 C   0  0  0  0  0  0  0  0  0  0  0  0
  161.1810  209.8860  152.6070 C   0  0  0  0  0  0  0  0  0  0  0  0
  161.5880  202.6550  151.6350 C   0  0  0  0  0  2  0  0  0  0  0  0
  161.5120  205.3140  150.5410 C   0  0  0  0  0  0  0  0  0  0  0  0
  160.9890  203.7690  152.4940 C   0  0  0  0  0  2  0  0  0  0  0  0
  161.6320  211.4340  150.7590 C   0  0  0  0  0  3  0  0  0  0  0  0
  161.4850  210.1310  151.2560 C   0  0  0  0  0  0  0  0  0  0  0  0
  161.0670  206.2460  152.7400 C   0  0  0  0  0  3  0  0  0  0  0  0
  161.0540  208.6070  153.0490 N   0  0  0  0  0  0  0  0  0  0  0  0
  159.7110  202.7240  149.9280 C   0  0  0  0  0  2  0  0  0  0  0  0
  159.3910  201.5570  149.0110 C   0  0  0  0  0  2  0  0  0  0  0  0
  160.5600  201.2530  148.1340 C   0  0  0  0  0  0  0  0  0  0  0  0
  160.7200  201.9710  146.8390 C   0  0  0  0  0  1  0  0  0  0  0  0
  161.3740  200.4060  148.4640 O   0  0  0  0  0  0  0  0  0  0  0  0
  160.9720  211.0090  153.5770 C   0  0  0  0  0  2  0  0  0  0  0  0
  158.5330  212.2540  152.3990 C   0  0  0  0  0  0  0  0  0  0  0  0
  158.5160  211.5910  153.5240 C   0  0  0  0  0  0  0  0  0  0  0  0
  159.1350  210.4500  155.2120 C   0  0  0  0  0  0  0  0  0  0  0  0
  157.7850  210.7030  155.3350 C   0  0  0  0  0  3  0  0  0  0  0  0
  157.3960  211.4280  154.2610 N   0  0  0  0  0  2  0  0  0  0  0  0
  158.5510  212.8850  151.3330 O   0  0  0  0  0  0  0  0  0  0  0  0
  159.8670  209.7640  156.0810 C   0  0  0  0  0  1  0  0  0  0  0  0
  159.5970  211.0000  154.0740 N   0  0  0  0  0  0  0  0  0  0  0  0
  1 19  1  1  0  0  0
  1 12  1  0  0  0  0
  2 17  2  0  0  0  0
  2 18  1  0  0  0  0
  3  8  2  0  0  0  0
  3  4  1  0  0  0  0
  4 15  2  0  0  0  0
  5 14  1  0  0  0  0
  5 17  1  0  0  0  0
  6 13  1  0  0  0  0
  6  9  2  0  0  0  0
  7  1  1  0  0  0  0
  7 13  1  0  0  0  0
  8 10  1  0  0  0  0
  9  2  1  0  0  0  0
 10  9  1  0  0  0  0
 10 16  2  0  0  0  0
 11 18  2  0  0  0  0
 11 24  1  0  0  0  0
 12 14  1  0  0  0  0
 13  5  2  0  0  0  0
 15 16  1  0  0  0  0
 16 11  1  0  0  0  0
 20 19  1  0  0  0  0
 21 23  2  0  0  0  0
 21 20  1  0  0  0  0
 22 21  1  0  0  0  0
 24 32  1  0  0  0  0
 25 26  2  0  0  0  0
 26 32  1  0  0  0  0
 26 29  1  0  0  0  0
 27 28  2  0  0  0  0
 27 31  1  0  0  0  0
 29 28  1  0  0  0  0
 30 25  2  0  0  0  0
 32 27  1  0  0  0  0
M  END
>  <MODEL>
5

>  <REMARK>
 VINA RESULT:      -7.2      2.292      3.690
  Name = 
  5 active torsions:
  status: ('A' for Active; 'I' for Inactive)
    1  A    between atoms: C_1  and  C_10
    2  A    between atoms: C_2  and  C_24
    3  A    between atoms: C_10  and  C_24
    4  A    between atoms: C_16  and  C_27
    5  A    between atoms: C_27  and  N_32
                            x       y       z     vdW  Elec       q    Type
                         _______ _______ _______ _____ _____    ______ ____

>  <TORSDO>
F 5

$$$$
=
 OpenBabel11062410443D

 32 36  0  0  1  0  0  0  0  0999 V2000
  162.0560  205.9860  151.6600 C   0  0  1  0  0  3  0  0  0  0  0  0
  160.6080  210.9240  151.7040 C   0  0  0  0  0  0  0  0  0  0  0  0
  162.4620  212.9060  147.6880 C   0  0  0  0  0  3  0  0  0  0  0  0
  161.8320  214.0690  148.0020 N   0  0  0  0  0  0  0  0  0  0  0  0
  161.0680  208.6260  152.3300 C   0  0  0  0  0  0  0  0  0  0  0  0
  162.0230  209.5430  150.2930 C   0  0  0  0  0  3  0  0  0  0  0  0
  162.5920  207.1880  150.8810 C   0  0  0  0  0  2  0  0  0  0  0  0
  162.3360  211.7930  148.5190 C   0  0  0  0  0  3  0  0  0  0  0  0
  161.4040  210.7770  150.5460 C   0  0  0  0  0  0  0  0  0  0  0  0
  161.5550  211.8770  149.6810 C   0  0  0  0  0  0  0  0  0  0  0  0
  160.1210  213.1870  151.1510 C   0  0  0  0  0  0  0  0  0  0  0  0
  161.8260  206.3610  153.1270 C   0  0  0  0  0  2  0  0  0  0  0  0
  161.8470  208.4640  151.1650 C   0  0  0  0  0  0  0  0  0  0  0  0
  160.7930  207.4800  153.2600 C   0  0  0  0  0  2  0  0  0  0  0  0
  161.0680  214.1850  149.1200 C   0  0  0  0  0  3  0  0  0  0  0  0
  160.9060  213.0950  149.9870 C   0  0  0  0  0  0  0  0  0  0  0  0
  160.4410  209.8500  152.5800 C   0  0  0  0  0  3  0  0  0  0  0  0
  159.9970  212.1070  151.9670 N   0  0  0  0  0  0  0  0  0  0  0  0
  160.7990  205.4320  151.0010 C   0  0  0  0  0  2  0  0  0  0  0  0
  161.1650  204.5080  149.8520 C   0  0  0  0  0  2  0  0  0  0  0  0
  160.9100  205.1810  148.5450 C   0  0  0  0  0  0  0  0  0  0  0  0
  161.3060  204.5100  147.2760 C   0  0  0  0  0  1  0  0  0  0  0  0
  160.3970  206.2880  148.5120 O   0  0  0  0  0  0  0  0  0  0  0  0
  159.3960  214.4490  151.5070 C   0  0  0  0  0  2  0  0  0  0  0  0
  158.4340  213.9980  154.2920 C   0  0  0  0  0  0  0  0  0  0  0  0
  157.6470  213.9260  153.2510 C   0  0  0  0  0  0  0  0  0  0  0  0
  156.9370  213.9570  151.2450 C   0  0  0  0  0  0  0  0  0  0  0  0
  155.8790  213.6410  152.0710 C   0  0  0  0  0  3  0  0  0  0  0  0
  156.3350  213.6220  153.3450 N   0  0  0  0  0  0  0  0  0  0  0  0
  159.1810  214.0640  155.2780 O   0  0  0  0  0  0  0  0  0  0  0  0
  156.8690  214.0660  149.9240 C   0  0  0  0  0  2  0  0  0  0  0  0
  158.0480  214.1420  151.9810 N   0  0  0  0  0  0  0  0  0  0  0  0
  1 19  1  6  0  0  0
  1 12  1  0  0  0  0
  2 18  1  0  0  0  0
  2 17  1  0  0  0  0
  3  4  2  0  0  0  0
  3  8  1  0  0  0  0
  4 15  1  0  0  0  0
  5 17  2  0  0  0  0
  5 14  1  0  0  0  0
  6  9  1  0  0  0  0
  6 13  2  0  0  0  0
  7 13  1  0  0  0  0
  7  1  1  0  0  0  0
  8 10  2  0  0  0  0
  9  2  2  0  0  0  0
 10 16  1  0  0  0  0
 10  9  1  0  0  0  0
 11 24  1  0  0  0  0
 11 18  2  0  0  0  0
 12 14  1  0  0  0  0
 13  5  1  0  0  0  0
 15 16  2  0  0  0  0
 16 11  1  0  0  0  0
 20 19  1  0  0  0  0
 21 20  1  0  0  0  0
 22 21  1  0  0  0  0
 23 21  2  0  0  0  0
 24 32  1  0  0  0  0
 25 30  2  0  0  0  0
 26 29  1  0  0  0  0
 26 25  2  0  0  0  0
 27 32  1  0  0  0  0
 27 28  1  0  0  0  0
 28 29  2  0  0  0  0
 31 27  2  0  0  0  0
 32 26  1  0  0  0  0
M  END
>  <MODEL>
6

>  <REMARK>
 VINA RESULT:      -7.1      1.560      2.063
  Name = 
  5 active torsions:
  status: ('A' for Active; 'I' for Inactive)
    1  A    between atoms: C_1  and  C_10
    2  A    between atoms: C_2  and  C_24
    3  A    between atoms: C_10  and  C_24
    4  A    between atoms: C_16  and  C_27
    5  A    between atoms: C_27  and  N_32
                            x       y       z     vdW  Elec       q    Type
                         _______ _______ _______ _____ _____    ______ ____

>  <TORSDO>
F 5

$$$$
=
 OpenBabel11062410443D

 32 36  0  0  1  0  0  0  0  0999 V2000
  161.2580  202.8610  150.1900 C   0  0  1  0  0  3  0  0  0  0  0  0
  161.2600  207.5860  152.2290 C   0  0  0  0  0  0  0  0  0  0  0  0
  162.1120  210.6360  148.5600 C   0  0  0  0  0  3  0  0  0  0  0  0
  161.9530  211.6750  149.4210 N   0  0  0  0  0  0  0  0  0  0  0  0
  161.2820  205.1790  151.9280 C   0  0  0  0  0  0  0  0  0  0  0  0
  161.7040  206.6420  150.0360 C   0  0  0  0  0  3  0  0  0  0  0  0
  161.7960  204.1820  149.6400 C   0  0  0  0  0  2  0  0  0  0  0  0
  161.9840  209.3220  149.0130 C   0  0  0  0  0  3  0  0  0  0  0  0
  161.5530  207.7680  150.8600 C   0  0  0  0  0  0  0  0  0  0  0  0
  161.6890  209.0780  150.3630 C   0  0  0  0  0  0  0  0  0  0  0  0
  161.2290  209.9370  152.5950 C   0  0  0  0  0  0  0  0  0  0  0  0
  161.6400  202.7010  151.6640 C   0  0  0  0  0  2  0  0  0  0  0  0
  161.5540  205.3530  150.5540 C   0  0  0  0  0  0  0  0  0  0  0  0
  161.0440  203.8190  152.5190 C   0  0  0  0  0  2  0  0  0  0  0  0
  161.6670  211.4740  150.7340 C   0  0  0  0  0  3  0  0  0  0  0  0
  161.5250  210.1740  151.2400 C   0  0  0  0  0  0  0  0  0  0  0  0
  161.1200  206.2980  152.7500 C   0  0  0  0  0  3  0  0  0  0  0  0
  161.1060  208.6600  153.0450 N   0  0  0  0  0  0  0  0  0  0  0  0
  159.7530  202.7570  149.9670 C   0  0  0  0  0  2  0  0  0  0  0  0
  159.4280  201.5690  149.0790 C   0  0  0  0  0  2  0  0  0  0  0  0
  160.6070  201.2160  148.2350 C   0  0  0  0  0  0  0  0  0  0  0  0
  160.7350  201.7890  146.8660 C   0  0  0  0  0  1  0  0  0  0  0  0
  161.4550  200.4450  148.6530 O   0  0  0  0  0  0  0  0  0  0  0  0
  161.0240  211.0650  153.5590 C   0  0  0  0  0  2  0  0  0  0  0  0
  159.9280  209.9270  156.0870 C   0  0  0  0  0  0  0  0  0  0  0  0
  159.1810  210.5250  155.1980 C   0  0  0  0  0  0  0  0  0  0  0  0
  158.5530  211.5570  153.4450 C   0  0  0  0  0  0  0  0  0  0  0  0
  157.4410  211.3180  154.2240 C   0  0  0  0  0  3  0  0  0  0  0  0
  157.8450  210.6620  155.3370 N   0  0  0  0  0  0  0  0  0  0  0  0
  160.6370  209.3590  156.9290 O   0  0  0  0  0  0  0  0  0  0  0  0
  158.5460  212.1800  152.2730 C   0  0  0  0  0  2  0  0  0  0  0  0
  159.6480  211.0660  154.0540 N   0  0  0  0  0  0  0  0  0  0  0  0
  1 19  1  1  0  0  0
  1 12  1  0  0  0  0
  2 17  2  0  0  0  0
  2 18  1  0  0  0  0
  3  8  2  0  0  0  0
  3  4  1  0  0  0  0
  4 15  2  0  0  0  0
  5 14  1  0  0  0  0
  5 17  1  0  0  0  0
  6 13  1  0  0  0  0
  6  9  2  0  0  0  0
  7  1  1  0  0  0  0
  7 13  1  0  0  0  0
  8 10  1  0  0  0  0
  9  2  1  0  0  0  0
 10  9  1  0  0  0  0
 10 16  2  0  0  0  0
 11 18  2  0  0  0  0
 11 24  1  0  0  0  0
 12 14  1  0  0  0  0
 13  5  2  0  0  0  0
 15 16  1  0  0  0  0
 16 11  1  0  0  0  0
 20 19  1  0  0  0  0
 21 23  2  0  0  0  0
 21 20  1  0  0  0  0
 22 21  1  0  0  0  0
 24 32  1  0  0  0  0
 25 30  2  0  0  0  0
 26 29  1  0  0  0  0
 26 25  2  0  0  0  0
 27 32  1  0  0  0  0
 27 28  1  0  0  0  0
 28 29  2  0  0  0  0
 31 27  2  0  0  0  0
 32 26  1  0  0  0  0
M  END
>  <MODEL>
7

>  <REMARK>
 VINA RESULT:      -7.0      2.962      4.233
  Name = 
  5 active torsions:
  status: ('A' for Active; 'I' for Inactive)
    1  A    between atoms: C_1  and  C_10
    2  A    between atoms: C_2  and  C_24
    3  A    between atoms: C_10  and  C_24
    4  A    between atoms: C_16  and  C_27
    5  A    between atoms: C_27  and  N_32
                            x       y       z     vdW  Elec       q    Type
                         _______ _______ _______ _____ _____    ______ ____

>  <TORSDO>
F 5

$$$$
=
 OpenBabel11062410443D

 32 36  0  0  1  0  0  0  0  0999 V2000
  161.4090  209.5690  152.8640 C   0  0  1  0  0  3  0  0  0  0  0  0
  161.4330  205.8810  149.2760 C   0  0  0  0  0  0  0  0  0  0  0  0
  160.7780  201.6990  151.6380 C   0  0  0  0  0  3  0  0  0  0  0  0
  160.7540  201.0570  150.4400 N   0  0  0  0  0  0  0  0  0  0  0  0
  161.6610  207.9930  150.4460 C   0  0  0  0  0  0  0  0  0  0  0  0
  161.3200  205.9410  151.7010 C   0  0  0  0  0  3  0  0  0  0  0  0
  161.5940  208.0560  152.9920 C   0  0  0  0  0  2  0  0  0  0  0  0
  160.9530  203.0830  151.6890 C   0  0  0  0  0  3  0  0  0  0  0  0
  161.2830  205.2050  150.5070 C   0  0  0  0  0  0  0  0  0  0  0  0
  161.1030  203.8090  150.4980 C   0  0  0  0  0  0  0  0  0  0  0  0
  161.2220  203.8420  148.0660 C   0  0  0  0  0  0  0  0  0  0  0  0
  162.2270  210.1090  151.6880 C   0  0  0  0  0  2  0  0  0  0  0  0
  161.4910  207.3290  151.6800 C   0  0  0  0  0  0  0  0  0  0  0  0
  161.7780  209.4880  150.3660 C   0  0  0  0  0  2  0  0  0  0  0  0
  160.8970  201.7290  149.2680 C   0  0  0  0  0  3  0  0  0  0  0  0
  161.0720  203.1210  149.2640 C   0  0  0  0  0  0  0  0  0  0  0  0
  161.6130  207.2650  149.2540 C   0  0  0  0  0  3  0  0  0  0  0  0
  161.3970  205.1900  148.1080 N   0  0  0  0  0  0  0  0  0  0  0  0
  159.9310  209.9240  152.7530 C   0  0  0  0  0  2  0  0  0  0  0  0
  159.6340  211.2060  153.5130 C   0  0  0  0  0  2  0  0  0  0  0  0
  159.7360  210.9710  154.9830 C   0  0  0  0  0  0  0  0  0  0  0  0
  160.7140  211.7520  155.7910 C   0  0  0  0  0  1  0  0  0  0  0  0
  159.0360  210.1290  155.5220 O   0  0  0  0  0  0  0  0  0  0  0  0
  161.1740  203.1620  146.7320 C   0  0  0  0  0  2  0  0  0  0  0  0
  159.5420  204.0100  144.3860 C   0  0  0  0  0  0  0  0  0  0  0  0
  160.7500  204.4570  144.6070 C   0  0  0  0  0  0  0  0  0  0  0  0
  162.6580  204.7830  145.4940 C   0  0  0  0  0  0  0  0  0  0  0  0
  162.5850  205.5370  144.3420 C   0  0  0  0  0  3  0  0  0  0  0  0
  161.3710  205.3270  143.7820 N   0  0  0  0  0  2  0  0  0  0  0  0
  158.3990  203.5840  144.1760 O   0  0  0  0  0  0  0  0  0  0  0  0
  163.7030  204.7330  146.3110 C   0  0  0  0  0  1  0  0  0  0  0  0
  161.5070  204.1070  145.6680 N   0  0  0  0  0  0  0  0  0  0  0  0
  1 19  1  6  0  0  0
  1  7  1  0  0  0  0
  2  9  1  0  0  0  0
  3  8  1  0  0  0  0
  4  3  2  0  0  0  0
  5 13  2  0  0  0  0
  9  6  2  0  0  0  0
 10  9  1  0  0  0  0
 10  8  2  0  0  0  0
 11 18  2  0  0  0  0
 11 16  1  0  0  0  0
 12  1  1  0  0  0  0
 13  6  1  0  0  0  0
 13  7  1  0  0  0  0
 14  5  1  0  0  0  0
 14 12  1  0  0  0  0
 15  4  1  0  0  0  0
 16 15  2  0  0  0  0
 16 10  1  0  0  0  0
 17  2  2  0  0  0  0
 17  5  1  0  0  0  0
 18  2  1  0  0  0  0
 19 20  1  0  0  0  0
 20 21  1  0  0  0  0
 21 23  2  0  0  0  0
 21 22  1  0  0  0  0
 24 11  1  0  0  0  0
 25 26  2  0  0  0  0
 26 32  1  0  0  0  0
 27 32  1  0  0  0  0
 27 31  1  0  0  0  0
 28 27  2  0  0  0  0
 29 28  1  0  0  0  0
 29 26  1  0  0  0  0
 30 25  2  0  0  0  0
 32 24  1  0  0  0  0
M  END
>  <MODEL>
8

>  <REMARK>
 VINA RESULT:      -6.8      4.591      9.316
  Name = 
  5 active torsions:
  status: ('A' for Active; 'I' for Inactive)
    1  A    between atoms: C_1  and  C_10
    2  A    between atoms: C_2  and  C_24
    3  A    between atoms: C_10  and  C_24
    4  A    between atoms: C_16  and  C_27
    5  A    between atoms: C_27  and  N_32
                            x       y       z     vdW  Elec       q    Type
                         _______ _______ _______ _____ _____    ______ ____

>  <TORSDO>
F 5

$$$$
=
 OpenBabel11062410443D

 32 36  0  0  1  0  0  0  0  0999 V2000
  162.1530  205.8680  151.4430 C   0  0  1  0  0  3  0  0  0  0  0  0
  160.2870  210.3780  153.0720 C   0  0  0  0  0  0  0  0  0  0  0  0
  160.8360  213.4740  149.3840 C   0  0  0  0  0  3  0  0  0  0  0  0
  160.1970  214.4220  150.1180 N   0  0  0  0  0  0  0  0  0  0  0  0
  161.1160  208.1010  152.9700 C   0  0  0  0  0  0  0  0  0  0  0  0
  161.4180  209.5880  151.0730 C   0  0  0  0  0  3  0  0  0  0  0  0
  162.3480  207.2820  150.8960 C   0  0  0  0  0  2  0  0  0  0  0  0
  161.0390  212.1970  149.9090 C   0  0  0  0  0  3  0  0  0  0  0  0
  160.7660  210.6210  151.7660 C   0  0  0  0  0  0  0  0  0  0  0  0
  160.5800  211.8950  151.2000 C   0  0  0  0  0  0  0  0  0  0  0  0
  159.4530  212.6010  153.2400 C   0  0  0  0  0  0  0  0  0  0  0  0
  162.2740  205.8650  152.9700 C   0  0  0  0  0  2  0  0  0  0  0  0
  161.5810  208.3290  151.6570 C   0  0  0  0  0  0  0  0  0  0  0  0
  161.2050  206.7480  153.6150 C   0  0  0  0  0  2  0  0  0  0  0  0
  159.7390  214.1630  151.3720 C   0  0  0  0  0  3  0  0  0  0  0  0
  159.9160  212.8960  151.9450 C   0  0  0  0  0  0  0  0  0  0  0  0
  160.4580  209.1230  153.6600 C   0  0  0  0  0  3  0  0  0  0  0  0
  159.6500  211.3600  153.7600 N   0  0  0  0  0  0  0  0  0  0  0  0
  160.8290  205.2820  150.9660 C   0  0  0  0  0  2  0  0  0  0  0  0
  161.0720  204.0810  150.0680 C   0  0  0  0  0  2  0  0  0  0  0  0
  161.0810  204.4990  148.6360 C   0  0  0  0  0  0  0  0  0  0  0  0
  161.5840  203.5620  147.5940 C   0  0  0  0  0  1  0  0  0  0  0  0
  160.6970  205.6130  148.3170 O   0  0  0  0  0  0  0  0  0  0  0  0
  158.7230  213.6200  154.0610 C   0  0  0  0  0  2  0  0  0  0  0  0
  155.8770  212.7970  154.3950 C   0  0  0  0  0  0  0  0  0  0  0  0
  156.7750  212.6360  155.3310 C   0  0  0  0  0  0  0  0  0  0  0  0
  158.6230  212.6530  156.3880 C   0  0  0  0  0  0  0  0  0  0  0  0
  157.6610  212.1090  157.2130 C   0  0  0  0  0  3  0  0  0  0  0  0
  156.4890  212.1000  156.5360 N   0  0  0  0  0  0  0  0  0  0  0  0
  155.0270  212.9530  153.5090 O   0  0  0  0  0  0  0  0  0  0  0  0
  159.8990  212.8250  156.7120 C   0  0  0  0  0  2  0  0  0  0  0  0
  158.0730  212.9800  155.2040 N   0  0  0  0  0  0  0  0  0  0  0  0
  1 19  1  1  0  0  0
  1 12  1  0  0  0  0
  2 17  2  0  0  0  0
  2 18  1  0  0  0  0
  3  8  2  0  0  0  0
  3  4  1  0  0  0  0
  4 15  2  0  0  0  0
  5 14  1  0  0  0  0
  5 17  1  0  0  0  0
  6 13  1  0  0  0  0
  6  9  2  0  0  0  0
  7  1  1  0  0  0  0
  7 13  1  0  0  0  0
  8 10  1  0  0  0  0
  9  2  1  0  0  0  0
 10  9  1  0  0  0  0
 10 16  2  0  0  0  0
 11 18  2  0  0  0  0
 11 24  1  0  0  0  0
 12 14  1  0  0  0  0
 13  5  2  0  0  0  0
 15 16  1  0  0  0  0
 16 11  1  0  0  0  0
 20 19  1  0  0  0  0
 21 20  1  0  0  0  0
 22 21  1  0  0  0  0
 23 21  2  0  0  0  0
 24 32  1  0  0  0  0
 25 26  2  0  0  0  0
 26 29  1  0  0  0  0
 27 31  2  0  0  0  0
 27 28  1  0  0  0  0
 29 28  2  0  0  0  0
 30 25  2  0  0  0  0
 32 26  1  0  0  0  0
 32 27  1  0  0  0  0
M  END
>  <MODEL>
9

>  <REMARK>
 VINA RESULT:      -6.6      2.338      3.023
  Name = 
  5 active torsions:
  status: ('A' for Active; 'I' for Inactive)
    1  A    between atoms: C_1  and  C_10
    2  A    between atoms: C_2  and  C_24
    3  A    between atoms: C_10  and  C_24
    4  A    between atoms: C_16  and  C_27
    5  A    between atoms: C_27  and  N_32
                            x       y       z     vdW  Elec       q    Type
                         _______ _______ _______ _____ _____    ______ ____

>  <TORSDO>
F 5

$$$$
