=
 OpenBabel11052422303D

 31 35  0  0  1  0  0  0  0  0999 V2000
  161.0390  201.1180  149.6400 C   0  0  0  0  0  0  0  0  0  0  0  0
  161.1440  204.9200  149.1770 C   0  0  0  0  0  0  0  0  0  0  0  0
  161.3030  205.1820  147.7800 C   0  0  0  0  0  0  0  0  0  0  0  0
  162.6170  204.3700  145.7700 C   0  0  0  0  0  2  0  0  0  0  0  0
  161.2210  203.5460  149.7850 C   0  0  0  0  0  0  0  0  0  0  0  0
  161.2910  201.0070  151.0090 C   0  0  0  0  0  3  0  0  0  0  0  0
  161.5820  204.0370  146.8330 C   0  0  0  0  0  2  0  0  0  0  0  0
  160.7530  205.7660  151.5480 C   0  0  2  0  0  3  0  0  0  0  0  0
  160.8330  200.0050  148.8970 F   0  0  0  0  0  0  0  0  0  0  0  0
  160.8640  207.5450  148.1970 C   0  0  0  0  0  3  0  0  0  0  0  0
  161.9400  204.9310  144.5210 C   0  0  0  0  0  2  0  0  0  0  0  0
  161.6620  204.6320  152.0140 C   0  0  0  0  0  2  0  0  0  0  0  0
  160.9200  206.0080  150.0620 C   0  0  0  0  0  0  0  0  0  0  0  0
  160.9990  202.3770  149.0370 C   0  0  0  0  0  3  0  0  0  0  0  0
  160.8530  205.9550  144.8430 C   0  0  0  0  0  2  0  0  0  0  0  0
  161.4410  203.4180  151.1740 C   0  0  0  0  0  0  0  0  0  0  0  0
  161.4910  202.1560  151.7740 C   0  0  0  0  0  3  0  0  0  0  0  0
  160.7520  207.2970  149.5550 C   0  0  0  0  0  3  0  0  0  0  0  0
  161.1320  206.5150  147.2990 C   0  0  0  0  0  0  0  0  0  0  0  0
  161.3450  206.9580  145.8740 C   0  0  0  0  0  2  0  0  0  0  0  0
  161.8180  210.7450  155.7430 C   0  0  2  0  0  3  0  0  0  0  0  0
  161.6460  209.4150  153.6560 C   0  0  0  0  0  2  0  0  0  0  0  0
  161.1910  207.2880  156.5780 O   0  0  0  0  0  0  0  0  0  0  0  0
  160.3710  206.0630  154.3550 O   0  0  0  0  0  0  0  0  0  0  0  0
  161.5730  212.0420  156.3460 N   0  0  0  0  0  1  0  0  0  0  0  0
  160.8500  207.0510  153.7350 C   0  0  0  0  0  0  0  0  0  0  0  0
  161.2730  210.7330  154.3240 C   0  0  0  0  0  2  0  0  0  0  0  0
  161.1880  208.3360  155.8790 C   0  0  0  0  0  0  0  0  0  0  0  0
  161.1750  208.2650  154.4360 N   0  0  0  0  0  0  0  0  0  0  0  0
  161.0480  206.9700  152.3190 N   0  0  0  0  0  2  0  0  0  0  0  0
  161.1370  209.6640  156.5720 C   0  0  0  0  0  2  0  0  0  0  0  0
  1  6  1  0  0  0  0
  2  5  1  0  0  0  0
  2 13  1  0  0  0  0
  3  2  2  0  0  0  0
  4  7  1  0  0  0  0
  5 16  2  0  0  0  0
  6 17  2  0  0  0  0
  7  3  1  0  0  0  0
  8 12  1  0  0  0  0
  8 30  1  1  0  0  0
  9  1  1  0  0  0  0
 10 18  1  0  0  0  0
 11 15  1  0  0  0  0
 11  4  1  0  0  0  0
 13  8  1  0  0  0  0
 14  1  2  0  0  0  0
 14  5  1  0  0  0  0
 15 20  1  0  0  0  0
 16 17  1  0  0  0  0
 16 12  1  0  0  0  0
 18 13  2  0  0  0  0
 19  3  1  0  0  0  0
 19 10  2  0  0  0  0
 20 19  1  0  0  0  0
 21 25  1  1  0  0  0
 21 31  1  0  0  0  0
 22 27  1  0  0  0  0
 22 29  1  0  0  0  0
 26 24  2  0  0  0  0
 26 29  1  0  0  0  0
 27 21  1  0  0  0  0
 28 31  1  0  0  0  0
 28 23  2  0  0  0  0
 29 28  1  0  0  0  0
 30 26  1  0  0  0  0
M  END
>  <MODEL>
1

>  <REMARK>
 VINA RESULT:      -9.1      0.000      0.000
  Name = 
  1 active torsions:
  status: ('A' for Active; 'I' for Inactive)
    1  A    between atoms: C_15  and  N_23
                            x       y       z     vdW  Elec       q    Type
                         _______ _______ _______ _____ _____    ______ ____

>  <TORSDO>
F 1

$$$$
=
 OpenBabel11052422303D

 31 35  0  0  1  0  0  0  0  0999 V2000
  161.3040  210.5790  154.8260 C   0  0  0  0  0  0  0  0  0  0  0  0
  161.4800  209.7200  151.0970 C   0  0  0  0  0  0  0  0  0  0  0  0
  161.4000  210.9470  150.3650 C   0  0  0  0  0  0  0  0  0  0  0  0
  160.1210  213.1350  150.3420 C   0  0  0  0  0  2  0  0  0  0  0  0
  161.2830  209.6190  152.5850 C   0  0  0  0  0  0  0  0  0  0  0  0
  160.9870  209.3350  155.3730 C   0  0  0  0  0  3  0  0  0  0  0  0
  161.0840  212.2320  151.0960 C   0  0  0  0  0  2  0  0  0  0  0  0
  161.8260  207.1970  151.1370 C   0  0  2  0  0  3  0  0  0  0  0  0
  161.4650  211.6530  155.6350 F   0  0  0  0  0  0  0  0  0  0  0  0
  161.9820  209.7420  148.3260 C   0  0  0  0  0  3  0  0  0  0  0  0
  160.8880  214.1070  149.4460 C   0  0  0  0  0  2  0  0  0  0  0  0
  160.8220  207.1610  152.2860 C   0  0  0  0  0  2  0  0  0  0  0  0
  161.7400  208.5140  150.3940 C   0  0  0  0  0  0  0  0  0  0  0  0
  161.4560  210.7160  153.4450 C   0  0  0  0  0  3  0  0  0  0  0  0
  162.0280  213.4370  148.6820 C   0  0  0  0  0  2  0  0  0  0  0  0
  160.9950  208.3610  153.1570 C   0  0  0  0  0  0  0  0  0  0  0  0
  160.8330  208.2270  154.5400 C   0  0  0  0  0  3  0  0  0  0  0  0
  162.0180  208.5480  149.0270 C   0  0  0  0  0  3  0  0  0  0  0  0
  161.6820  210.9410  148.9660 C   0  0  0  0  0  0  0  0  0  0  0  0
  161.5620  212.1340  148.0520 C   0  0  0  0  0  2  0  0  0  0  0  0
  160.7910  201.5810  147.8350 C   0  0  2  0  0  3  0  0  0  0  0  0
  161.1260  203.9830  148.3560 C   0  0  0  0  0  2  0  0  0  0  0  0
  160.7480  202.0420  151.4150 O   0  0  0  0  0  0  0  0  0  0  0  0
  161.7540  204.4600  151.9240 O   0  0  0  0  0  0  0  0  0  0  0  0
  161.1140  200.5120  146.9070 N   0  0  0  0  0  1  0  0  0  0  0  0
  161.5400  204.7120  150.7070 C   0  0  0  0  0  0  0  0  0  0  0  0
  161.5660  202.8320  147.4580 C   0  0  0  0  0  2  0  0  0  0  0  0
  161.0260  202.2920  150.2120 C   0  0  0  0  0  0  0  0  0  0  0  0
  161.2790  203.6450  149.7750 N   0  0  0  0  0  0  0  0  0  0  0  0
  161.5820  206.0670  150.2460 N   0  0  0  0  0  2  0  0  0  0  0  0
  161.1500  201.1500  149.2500 C   0  0  0  0  0  2  0  0  0  0  0  0
  1  6  1  0  0  0  0
  1  9  1  0  0  0  0
  2  5  1  0  0  0  0
  3  7  1  0  0  0  0
  3  2  2  0  0  0  0
  4  7  1  0  0  0  0
  5 16  2  0  0  0  0
  5 14  1  0  0  0  0
  8 30  1  6  0  0  0
  8 12  1  0  0  0  0
 10 19  2  0  0  0  0
 10 18  1  0  0  0  0
 11  4  1  0  0  0  0
 12 16  1  0  0  0  0
 13  2  1  0  0  0  0
 13  8  1  0  0  0  0
 14  1  2  0  0  0  0
 15 11  1  0  0  0  0
 16 17  1  0  0  0  0
 17  6  2  0  0  0  0
 18 13  2  0  0  0  0
 19  3  1  0  0  0  0
 20 15  1  0  0  0  0
 20 19  1  0  0  0  0
 21 25  1  6  0  0  0
 21 31  1  0  0  0  0
 22 29  1  0  0  0  0
 26 24  2  0  0  0  0
 27 21  1  0  0  0  0
 27 22  1  0  0  0  0
 28 23  2  0  0  0  0
 29 28  1  0  0  0  0
 29 26  1  0  0  0  0
 30 26  1  0  0  0  0
 31 28  1  0  0  0  0
M  END
>  <MODEL>
2

>  <REMARK>
 VINA RESULT:      -8.6      4.041      7.979
  Name = 
  1 active torsions:
  status: ('A' for Active; 'I' for Inactive)
    1  A    between atoms: C_15  and  N_23
                            x       y       z     vdW  Elec       q    Type
                         _______ _______ _______ _____ _____    ______ ____

>  <TORSDO>
F 1

$$$$
=
 OpenBabel11052422303D

 31 35  0  0  1  0  0  0  0  0999 V2000
  161.6120  212.2040  149.7620 C   0  0  0  0  0  0  0  0  0  0  0  0
  161.3670  208.7810  151.4660 C   0  0  0  0  0  0  0  0  0  0  0  0
  161.4680  208.9910  152.8770 C   0  0  0  0  0  0  0  0  0  0  0  0
  162.8000  210.3280  154.5700 C   0  0  0  0  0  2  0  0  0  0  0  0
  161.5810  209.8620  150.4420 C   0  0  0  0  0  0  0  0  0  0  0  0
  161.9050  211.8300  148.4500 C   0  0  0  0  0  3  0  0  0  0  0  0
  161.8250  210.3630  153.4040 C   0  0  0  0  0  2  0  0  0  0  0  0
  160.9600  207.2220  149.4940 C   0  0  2  0  0  3  0  0  0  0  0  0
  161.4870  213.5140  150.0810 F   0  0  0  0  0  0  0  0  0  0  0  0
  160.8310  206.6660  153.2460 C   0  0  0  0  0  3  0  0  0  0  0  0
  162.0460  210.2720  155.8970 C   0  0  0  0  0  2  0  0  0  0  0  0
  161.9770  208.0610  148.7260 C   0  0  0  0  0  2  0  0  0  0  0  0
  161.0690  207.4800  150.9820 C   0  0  0  0  0  0  0  0  0  0  0  0
  161.4450  211.2270  150.7460 C   0  0  0  0  0  3  0  0  0  0  0  0
  160.8800  209.2840  155.8770 C   0  0  0  0  0  2  0  0  0  0  0  0
  161.8440  209.5000  149.1030 C   0  0  0  0  0  0  0  0  0  0  0  0
  162.0200  210.4790  148.1210 C   0  0  0  0  0  3  0  0  0  0  0  0
  160.7750  206.4520  151.8790 C   0  0  0  0  0  3  0  0  0  0  0  0
  161.1680  207.9140  153.7640 C   0  0  0  0  0  0  0  0  0  0  0  0
  161.3060  207.9600  155.2640 C   0  0  0  0  0  2  0  0  0  0  0  0
  161.6560  201.0540  147.2570 C   0  0  2  0  0  3  0  0  0  0  0  0
  161.5810  203.0210  148.7670 C   0  0  0  0  0  2  0  0  0  0  0  0
  161.2870  204.0580  145.2870 O   0  0  0  0  0  0  0  0  0  0  0  0
  160.5580  206.0180  146.9430 O   0  0  0  0  0  0  0  0  0  0  0  0
  161.3160  199.6490  147.1220 N   0  0  0  0  0  1  0  0  0  0  0  0
  160.9630  205.2680  147.8730 C   0  0  0  0  0  0  0  0  0  0  0  0
  161.1120  201.5840  148.5740 C   0  0  0  0  0  2  0  0  0  0  0  0
  161.2060  203.3120  146.2990 C   0  0  0  0  0  0  0  0  0  0  0  0
  161.1980  203.8680  147.6330 N   0  0  0  0  0  0  0  0  0  0  0  0
  161.1650  205.8100  149.1830 N   0  0  0  0  0  2  0  0  0  0  0  0
  161.0580  201.8340  146.0950 C   0  0  0  0  0  2  0  0  0  0  0  0
  1  9  1  0  0  0  0
  1 14  1  0  0  0  0
  2  3  1  0  0  0  0
  3  7  1  0  0  0  0
  3 19  2  0  0  0  0
  4 11  1  0  0  0  0
  5 14  2  0  0  0  0
  5  2  1  0  0  0  0
  6  1  2  0  0  0  0
  7  4  1  0  0  0  0
  8 30  1  1  0  0  0
  8 13  1  0  0  0  0
 10 19  1  0  0  0  0
 12 16  1  0  0  0  0
 12  8  1  0  0  0  0
 13  2  2  0  0  0  0
 13 18  1  0  0  0  0
 15 11  1  0  0  0  0
 16  5  1  0  0  0  0
 17  6  1  0  0  0  0
 17 16  2  0  0  0  0
 18 10  2  0  0  0  0
 19 20  1  0  0  0  0
 20 15  1  0  0  0  0
 21 25  1  6  0  0  0
 21 27  1  0  0  0  0
 23 28  2  0  0  0  0
 24 26  2  0  0  0  0
 26 30  1  0  0  0  0
 27 22  1  0  0  0  0
 28 29  1  0  0  0  0
 29 26  1  0  0  0  0
 29 22  1  0  0  0  0
 31 28  1  0  0  0  0
 31 21  1  0  0  0  0
M  END
>  <MODEL>
3

>  <REMARK>
 VINA RESULT:      -7.7      4.244      9.166
  Name = 
  1 active torsions:
  status: ('A' for Active; 'I' for Inactive)
    1  A    between atoms: C_15  and  N_23
                            x       y       z     vdW  Elec       q    Type
                         _______ _______ _______ _____ _____    ______ ____

>  <TORSDO>
F 1

$$$$
=
 OpenBabel11052422303D

 31 35  0  0  1  0  0  0  0  0999 V2000
  162.1340  205.6770  146.4100 C   0  0  0  0  0  0  0  0  0  0  0  0
  161.2720  205.0150  150.0840 C   0  0  0  0  0  0  0  0  0  0  0  0
  161.0170  203.6140  150.2230 C   0  0  0  0  0  0  0  0  0  0  0  0
  159.8180  201.7140  149.0500 C   0  0  0  0  0  2  0  0  0  0  0  0
  161.4860  205.6980  148.7610 C   0  0  0  0  0  0  0  0  0  0  0  0
  161.9570  207.0600  146.3380 C   0  0  0  0  0  3  0  0  0  0  0  0
  160.9340  202.7440  148.9890 C   0  0  0  0  0  2  0  0  0  0  0  0
  161.5720  207.3150  151.1340 C   0  0  2  0  0  3  0  0  0  0  0  0
  162.5280  204.9870  145.3130 F   0  0  0  0  0  0  0  0  0  0  0  0
  161.0000  203.8820  152.6480 C   0  0  0  0  0  3  0  0  0  0  0  0
  160.3290  200.4060  149.6520 C   0  0  0  0  0  2  0  0  0  0  0  0
  160.9190  207.8830  149.8770 C   0  0  0  0  0  2  0  0  0  0  0  0
  161.3100  205.8280  151.2470 C   0  0  0  0  0  0  0  0  0  0  0  0
  161.9070  205.0060  147.6130 C   0  0  0  0  0  3  0  0  0  0  0  0
  161.2060  200.6220  150.8850 C   0  0  0  0  0  2  0  0  0  0  0  0
  161.3440  207.1010  148.6790 C   0  0  0  0  0  0  0  0  0  0  0  0
  161.5630  207.7700  147.4720 C   0  0  0  0  0  3  0  0  0  0  0  0
  161.2050  205.2450  152.5100 C   0  0  0  0  0  3  0  0  0  0  0  0
  160.9070  203.0550  151.5320 C   0  0  0  0  0  0  0  0  0  0  0  0
  160.5630  201.6190  151.8350 C   0  0  0  0  0  2  0  0  0  0  0  0
  159.4910  211.3010  155.9620 C   0  0  2  0  0  3  0  0  0  0  0  0
  160.1050  209.2650  154.6840 C   0  0  0  0  0  2  0  0  0  0  0  0
  160.1730  212.2040  152.5330 O   0  0  0  0  0  0  0  0  0  0  0  0
  161.4410  210.1490  151.4000 O   0  0  0  0  0  0  0  0  0  0  0  0
  159.5470  211.9480  157.2600 N   0  0  0  0  0  1  0  0  0  0  0  0
  161.0180  209.4620  152.3700 C   0  0  0  0  0  0  0  0  0  0  0  0
  160.2750  209.9990  156.0090 C   0  0  0  0  0  2  0  0  0  0  0  0
  160.2330  211.5250  153.5930 C   0  0  0  0  0  0  0  0  0  0  0  0
  160.5020  210.1060  153.5500 N   0  0  0  0  0  0  0  0  0  0  0  0
  161.0750  208.0330  152.3040 N   0  0  0  0  0  2  0  0  0  0  0  0
  160.0820  212.2270  154.9080 C   0  0  0  0  0  2  0  0  0  0  0  0
  1 14  1  0  0  0  0
  2  3  2  0  0  0  0
  2 13  1  0  0  0  0
  3 19  1  0  0  0  0
  4 11  1  0  0  0  0
  5  2  1  0  0  0  0
  6  1  2  0  0  0  0
  6 17  1  0  0  0  0
  7  4  1  0  0  0  0
  7  3  1  0  0  0  0
  8 13  1  0  0  0  0
  8 30  1  1  0  0  0
  9  1  1  0  0  0  0
 11 15  1  0  0  0  0
 12  8  1  0  0  0  0
 13 18  2  0  0  0  0
 14  5  2  0  0  0  0
 15 20  1  0  0  0  0
 16  5  1  0  0  0  0
 16 12  1  0  0  0  0
 17 16  2  0  0  0  0
 18 10  1  0  0  0  0
 19 20  1  0  0  0  0
 19 10  2  0  0  0  0
 21 27  1  0  0  0  0
 21 25  1  1  0  0  0
 22 27  1  0  0  0  0
 23 28  2  0  0  0  0
 24 26  2  0  0  0  0
 26 29  1  0  0  0  0
 28 31  1  0  0  0  0
 29 28  1  0  0  0  0
 29 22  1  0  0  0  0
 30 26  1  0  0  0  0
 31 21  1  0  0  0  0
M  END
>  <MODEL>
4

>  <REMARK>
 VINA RESULT:      -6.7      2.242      4.621
  Name = 
  1 active torsions:
  status: ('A' for Active; 'I' for Inactive)
    1  A    between atoms: C_15  and  N_23
                            x       y       z     vdW  Elec       q    Type
                         _______ _______ _______ _____ _____    ______ ____

>  <TORSDO>
F 1

$$$$
=
 OpenBabel11052422303D

 31 35  0  0  1  0  0  0  0  0999 V2000
  162.2200  205.0040  145.9720 C   0  0  0  0  0  0  0  0  0  0  0  0
  161.3420  204.9530  149.7010 C   0  0  0  0  0  0  0  0  0  0  0  0
  161.0890  203.5940  150.0680 C   0  0  0  0  0  0  0  0  0  0  0  0
  159.9000  201.5230  149.2180 C   0  0  0  0  0  2  0  0  0  0  0  0
  161.5610  205.4100  148.2840 C   0  0  0  0  0  0  0  0  0  0  0  0
  162.0400  206.3550  145.6720 C   0  0  0  0  0  3  0  0  0  0  0  0
  161.0140  202.5320  148.9940 C   0  0  0  0  0  2  0  0  0  0  0  0
  161.6320  207.3970  150.3590 C   0  0  2  0  0  3  0  0  0  0  0  0
  162.6210  204.1440  145.0060 F   0  0  0  0  0  0  0  0  0  0  0  0
  161.0590  204.2580  152.4150 C   0  0  0  0  0  3  0  0  0  0  0  0
  160.4090  200.3340  150.0300 C   0  0  0  0  0  2  0  0  0  0  0  0
  160.9840  207.7480  149.0230 C   0  0  0  0  0  2  0  0  0  0  0  0
  161.3720  205.9470  150.7140 C   0  0  0  0  0  0  0  0  0  0  0  0
  161.9880  204.5390  147.2680 C   0  0  0  0  0  3  0  0  0  0  0  0
  161.2800  200.7520  151.2140 C   0  0  0  0  0  2  0  0  0  0  0  0
  161.4160  206.7800  147.9720 C   0  0  0  0  0  0  0  0  0  0  0  0
  161.6400  207.2420  146.6720 C   0  0  0  0  0  3  0  0  0  0  0  0
  161.2620  205.5800  152.0560 C   0  0  0  0  0  3  0  0  0  0  0  0
  160.9730  203.2580  151.4500 C   0  0  0  0  0  0  0  0  0  0  0  0
  160.6300  201.8910  151.9850 C   0  0  0  0  0  2  0  0  0  0  0  0
  159.5460  212.1190  154.4670 C   0  0  2  0  0  3  0  0  0  0  0  0
  160.1370  209.8990  153.5310 C   0  0  0  0  0  2  0  0  0  0  0  0
  160.3210  212.4700  150.9570 O   0  0  0  0  0  0  0  0  0  0  0  0
  161.5630  210.2390  150.1840 O   0  0  0  0  0  0  0  0  0  0  0  0
  159.5890  212.9570  155.6510 N   0  0  0  0  0  1  0  0  0  0  0  0
  161.1030  209.7190  151.2370 C   0  0  0  0  0  0  0  0  0  0  0  0
  160.2970  210.8250  154.7320 C   0  0  0  0  0  2  0  0  0  0  0  0
  160.3430  211.9610  152.1100 C   0  0  0  0  0  0  0  0  0  0  0  0
  160.5780  210.5470  152.2920 N   0  0  0  0  0  0  0  0  0  0  0  0
  161.1270  208.2960  151.3930 N   0  0  0  0  0  2  0  0  0  0  0  0
  160.1800  212.8600  153.2970 C   0  0  0  0  0  2  0  0  0  0  0  0
  1 14  1  0  0  0  0
  2  3  2  0  0  0  0
  2 13  1  0  0  0  0
  3 19  1  0  0  0  0
  4 11  1  0  0  0  0
  5  2  1  0  0  0  0
  6  1  2  0  0  0  0
  6 17  1  0  0  0  0
  7  4  1  0  0  0  0
  7  3  1  0  0  0  0
  8 13  1  0  0  0  0
  8 30  1  1  0  0  0
  9  1  1  0  0  0  0
 11 15  1  0  0  0  0
 12  8  1  0  0  0  0
 13 18  2  0  0  0  0
 14  5  2  0  0  0  0
 15 20  1  0  0  0  0
 16  5  1  0  0  0  0
 16 12  1  0  0  0  0
 17 16  2  0  0  0  0
 18 10  1  0  0  0  0
 19 20  1  0  0  0  0
 19 10  2  0  0  0  0
 21 27  1  0  0  0  0
 21 25  1  1  0  0  0
 22 27  1  0  0  0  0
 23 28  2  0  0  0  0
 24 26  2  0  0  0  0
 26 30  1  0  0  0  0
 26 29  1  0  0  0  0
 28 29  1  0  0  0  0
 28 31  1  0  0  0  0
 29 22  1  0  0  0  0
 31 21  1  0  0  0  0
M  END
>  <MODEL>
5

>  <REMARK>
 VINA RESULT:      -6.1      2.433      4.815
  Name = 
  1 active torsions:
  status: ('A' for Active; 'I' for Inactive)
    1  A    between atoms: C_15  and  N_23
                            x       y       z     vdW  Elec       q    Type
                         _______ _______ _______ _____ _____    ______ ____

>  <TORSDO>
F 1

$$$$
