=
 OpenBabel11062410383D

 32 37  0  0  1  0  0  0  0  0999 V2000
  159.2990  214.4530  150.4850 C   0  0  0  0  0  3  0  0  0  0  0  0
  161.2720  209.5450  150.7920 C   0  0  1  0  0  3  0  0  0  0  0  0
  160.1470  208.5450  155.4460 C   0  0  0  0  0  3  0  0  0  0  0  0
  160.4420  207.2040  155.2080 C   0  0  0  0  0  3  0  0  0  0  0  0
  161.7740  207.6870  149.4030 C   0  0  2  0  0  3  0  0  0  0  0  0
  161.4580  206.3110  149.7260 N   0  0  0  0  0  0  0  0  0  0  0  0
  161.0250  211.9330  149.9320 C   0  0  0  0  0  0  0  0  0  0  0  0
  160.3300  211.3330  152.2500 C   0  0  0  0  0  2  0  0  0  0  0  0
  161.1300  203.7680  150.7720 C   0  0  0  0  0  0  0  0  0  0  0  0
  159.8780  213.6400  151.3730 C   0  0  0  0  0  3  0  0  0  0  0  0
  160.4240  209.5010  154.4670 C   0  0  0  0  0  3  0  0  0  0  0  0
  161.3130  210.1560  152.1920 C   0  0  1  0  0  3  0  0  0  0  0  0
  160.9760  209.1230  153.2290 C   0  0  0  0  0  0  0  0  0  0  0  0
  162.0600  207.3580  151.7580 C   0  0  2  0  0  3  0  0  0  0  0  0
  160.8780  203.9520  149.4660 C   0  0  0  0  0  3  0  0  0  0  0  0
  160.3850  213.8030  148.3870 C   0  0  0  0  0  3  0  0  0  0  0  0
  160.4420  212.3000  151.1010 C   0  0  0  0  0  0  0  0  0  0  0  0
  160.8200  205.3310  148.8460 C   0  0  0  0  0  2  0  0  0  0  0  0
  161.2170  212.8350  148.7770 C   0  0  0  0  0  3  0  0  0  0  0  0
  159.0650  214.0920  149.0460 C   0  0  1  0  0  3  0  0  0  0  0  0
  161.0270  206.8250  153.9980 C   0  0  0  0  0  3  0  0  0  0  0  0
  161.2940  207.7730  152.9980 C   0  0  0  0  0  0  0  0  0  0  0  0
  161.4650  204.9110  151.6470 C   0  0  0  0  0  3  0  0  0  0  0  0
  161.7490  210.6180  149.8090 C   0  0  0  0  0  2  0  0  0  0  0  0
  162.9370  207.7300  148.4250 C   0  0  0  0  0  1  0  0  0  0  0  0
  161.1050  202.3930  151.3390 C   0  0  0  0  0  1  0  0  0  0  0  0
  162.1550  208.3720  150.6640 N   0  0  2  0  0  0  0  0  0  0  0  0
  161.5700  206.1260  151.1090 C   0  0  0  0  0  0  0  0  0  0  0  0
  156.8540  213.3850  149.5390 C   0  0  0  0  0  1  0  0  0  0  0  0
  158.1080  212.9790  148.9190 N   0  0  0  0  0  0  0  0  0  0  0  0
  157.7930  212.7650  147.5100 C   0  0  0  0  0  2  0  0  0  0  0  0
  156.8970  213.8820  147.0120 C   0  0  0  0  0  1  0  0  0  0  0  0
  1 10  2  0  0  0  0
  2 24  1  6  0  0  0
  2 12  1  0  0  0  0
  4  3  1  0  0  0  0
  5 25  1  6  0  0  0
  5  6  1  0  0  0  0
  5 27  1  0  0  0  0
  6 28  1  0  0  0  0
  7 17  2  0  0  0  0
  9 26  1  0  0  0  0
  9 23  1  0  0  0  0
 11  3  2  0  0  0  0
 12  8  1  6  0  0  0
 12 13  1  0  0  0  0
 13 11  1  0  0  0  0
 14 28  1  6  0  0  0
 14 22  1  0  0  0  0
 15  9  2  0  0  0  0
 16 19  2  0  0  0  0
 16 20  1  0  0  0  0
 17 10  1  0  0  0  0
 17  8  1  0  0  0  0
 18 15  1  0  0  0  0
 18  6  1  0  0  0  0
 19  7  1  0  0  0  0
 20 30  1  1  0  0  0
 20  1  1  0  0  0  0
 21  4  2  0  0  0  0
 22 13  2  0  0  0  0
 22 21  1  0  0  0  0
 24  7  1  0  0  0  0
 27  2  1  0  0  0  0
 27 14  1  0  0  0  0
 28 23  2  0  0  0  0
 30 29  1  0  0  0  0
 31 30  1  0  0  0  0
 32 31  1  0  0  0  0
M  END
>  <MODEL>
1

>  <REMARK>
 VINA RESULT:      -9.2      0.000      0.000
  Name = 
  2 active torsions:
  status: ('A' for Active; 'I' for Inactive)
    1  A    between atoms: C_1  and  N_20
    2  A    between atoms: N_20  and  C_24
                            x       y       z     vdW  Elec       q    Type
                         _______ _______ _______ _____ _____    ______ ____

>  <TORSDO>
F 2

$$$$
=
 OpenBabel11062410383D

 32 37  0  0  1  0  0  0  0  0999 V2000
  159.9610  209.8300  155.6150 C   0  0  0  0  0  3  0  0  0  0  0  0
  161.4990  207.4400  151.1430 C   0  0  1  0  0  3  0  0  0  0  0  0
  160.5570  202.8020  152.3770 C   0  0  0  0  0  3  0  0  0  0  0  0
  160.7160  202.4360  151.0420 C   0  0  0  0  0  3  0  0  0  0  0  0
  161.7510  207.8870  148.8250 C   0  0  2  0  0  3  0  0  0  0  0  0
  161.3320  206.9930  147.7670 N   0  0  0  0  0  0  0  0  0  0  0  0
  161.4190  209.2520  152.9360 C   0  0  0  0  0  0  0  0  0  0  0  0
  160.8060  206.8960  153.4740 C   0  0  0  0  0  2  0  0  0  0  0  0
  160.8370  204.9400  145.9750 C   0  0  0  0  0  0  0  0  0  0  0  0
  160.5150  208.6850  155.2090 C   0  0  0  0  0  3  0  0  0  0  0  0
  160.8620  204.1030  152.7810 C   0  0  0  0  0  3  0  0  0  0  0  0
  161.6750  206.4480  152.2910 C   0  0  1  0  0  3  0  0  0  0  0  0
  161.3070  205.0600  151.8490 C   0  0  0  0  0  0  0  0  0  0  0  0
  162.1410  205.6280  149.5180 C   0  0  2  0  0  3  0  0  0  0  0  0
  160.5280  206.1930  145.6020 C   0  0  0  0  0  3  0  0  0  0  0  0
  160.8630  211.4490  154.0110 C   0  0  0  0  0  3  0  0  0  0  0  0
  160.9400  208.3520  153.8320 C   0  0  0  0  0  0  0  0  0  0  0  0
  160.5590  207.3510  146.5760 C   0  0  0  0  0  2  0  0  0  0  0  0
  161.6250  210.6870  153.2250 C   0  0  0  0  0  3  0  0  0  0  0  0
  159.6140  210.9660  154.6950 C   0  0  1  0  0  3  0  0  0  0  0  0
  161.1940  203.3670  150.1180 C   0  0  0  0  0  3  0  0  0  0  0  0
  161.4880  204.6840  150.5070 C   0  0  0  0  0  0  0  0  0  0  0  0
  161.3220  204.6550  147.3410 C   0  0  0  0  0  3  0  0  0  0  0  0
  162.0130  208.7990  151.6290 C   0  0  0  0  0  2  0  0  0  0  0  0
  162.8550  208.8000  148.3180 C   0  0  0  0  0  1  0  0  0  0  0  0
  160.7210  203.8310  144.9910 C   0  0  0  0  0  1  0  0  0  0  0  0
  162.2640  207.0560  149.9430 N   0  0  2  0  0  0  0  0  0  0  0  0
  161.5050  205.6690  148.1860 C   0  0  0  0  0  0  0  0  0  0  0  0
  157.2690  210.7270  154.4150 C   0  0  0  0  0  1  0  0  0  0  0  0
  158.5550  210.5830  153.7440 N   0  0  0  0  0  0  0  0  0  0  0  0
  158.5250  211.5350  152.6390 C   0  0  0  0  0  2  0  0  0  0  0  0
  157.8390  212.8120  153.0840 C   0  0  0  0  0  1  0  0  0  0  0  0
  2 24  1  1  0  0  0
  2 12  1  0  0  0  0
  3 11  1  0  0  0  0
  4  3  2  0  0  0  0
  5 25  1  6  0  0  0
  5 27  1  0  0  0  0
  6 28  1  0  0  0  0
  6  5  1  0  0  0  0
  7 19  1  0  0  0  0
  7 17  2  0  0  0  0
  8 17  1  0  0  0  0
  9 23  1  0  0  0  0
 10  1  2  0  0  0  0
 12  8  1  1  0  0  0
 13 12  1  0  0  0  0
 13 11  2  0  0  0  0
 14 28  1  6  0  0  0
 14 27  1  0  0  0  0
 14 22  1  0  0  0  0
 15  9  2  0  0  0  0
 15 18  1  0  0  0  0
 16 20  1  0  0  0  0
 17 10  1  0  0  0  0
 18  6  1  0  0  0  0
 19 16  2  0  0  0  0
 20 30  1  6  0  0  0
 20  1  1  0  0  0  0
 21 22  2  0  0  0  0
 21  4  1  0  0  0  0
 22 13  1  0  0  0  0
 23 28  2  0  0  0  0
 24  7  1  0  0  0  0
 26  9  1  0  0  0  0
 27  2  1  0  0  0  0
 30 29  1  0  0  0  0
 31 32  1  0  0  0  0
 31 30  1  0  0  0  0
M  END
>  <MODEL>
2

>  <REMARK>
 VINA RESULT:      -7.1      2.754      4.749
  Name = 
  2 active torsions:
  status: ('A' for Active; 'I' for Inactive)
    1  A    between atoms: C_1  and  N_20
    2  A    between atoms: N_20  and  C_24
                            x       y       z     vdW  Elec       q    Type
                         _______ _______ _______ _____ _____    ______ ____

>  <TORSDO>
F 2

$$$$
