=
 OpenBabel11062410473D

 32 36  0  0  1  0  0  0  0  0999 V2000
  161.7710  205.8200  151.3460 C   0  0  1  0  0  3  0  0  0  0  0  0
  159.9720  209.2110  154.5990 C   0  0  0  0  0  0  0  0  0  0  0  0
  159.7000  213.3890  151.9580 C   0  0  0  0  0  2  0  0  0  0  0  0
  158.4370  213.6340  152.6480 N   0  0  0  0  0  2  0  0  0  0  0  0
  160.8260  207.1030  153.5760 C   0  0  1  0  0  3  0  0  0  0  0  0
  160.9580  209.1850  152.2510 C   0  0  0  0  0  2  0  0  0  0  0  0
  162.4060  207.1990  151.6090 C   0  0  0  0  0  2  0  0  0  0  0  0
  159.9540  211.8900  151.8730 C   0  0  0  0  0  2  0  0  0  0  0  0
  160.2510  209.8940  153.3880 C   0  0  0  0  0  0  0  0  0  0  0  0
  159.7820  211.2110  153.2090 C   0  0  0  0  0  0  0  0  0  0  0  0
  158.8160  211.1680  155.4540 C   0  0  0  0  0  0  0  0  0  0  0  0
  161.2760  205.1170  152.6320 C   0  0  0  0  0  2  0  0  0  0  0  0
  161.7490  207.9840  152.7490 C   0  0  2  0  0  3  0  0  0  0  0  0
  161.4570  205.8760  153.8080 O   0  0  0  0  0  0  0  0  0  0  0  0
  158.5790  213.2750  154.0630 C   0  0  1  0  0  3  0  0  0  0  0  0
  159.0580  211.8510  154.2450 C   0  0  0  0  0  0  0  0  0  0  0  0
  160.4910  207.8230  154.8730 C   0  0  0  0  0  2  0  0  0  0  0  0
  159.4750  214.2070  154.7300 N   0  0  0  0  0  1  0  0  0  0  0  0
  159.2660  209.8570  155.6110 C   0  0  0  0  0  3  0  0  0  0  0  0
  160.6080  205.9410  150.3700 C   0  0  0  0  0  2  0  0  0  0  0  0
  161.0440  205.6230  148.9490 C   0  0  2  0  0  3  0  0  0  0  0  0
  160.0890  206.0670  148.0500 F   0  0  0  0  0  0  0  0  0  0  0  0
  161.5480  203.7710  147.3700 C   0  0  0  0  0  1  0  0  0  0  0  0
  161.2190  204.1240  148.8070 C   0  0  0  0  0  2  0  0  0  0  0  0
  158.0470  211.8180  156.5750 C   0  0  0  0  0  2  0  0  0  0  0  0
  155.1910  210.0160  155.4630 O   0  0  0  0  0  1  0  0  0  0  0  0
  156.0630  211.0680  155.1920 C   0  0  1  0  0  3  0  0  0  0  0  0
  155.7490  213.0210  156.4810 C   0  0  2  0  0  3  0  0  0  0  0  0
  155.5110  213.3890  155.1520 O   0  0  0  0  0  0  0  0  0  0  0  0
  155.3140  212.1750  154.4710 C   0  0  0  0  0  2  0  0  0  0  0  0
  156.4160  214.1450  157.2590 C   0  0  0  0  0  1  0  0  0  0  0  0
  156.5090  211.7020  156.4810 C   0  0  2  0  0  3  0  0  0  0  0  0
  1 20  1  6  0  0  0
  1  7  1  0  0  0  0
  1 12  1  0  0  0  0
  2 17  1  0  0  0  0
  2 19  1  0  0  0  0
  3  4  1  0  0  0  0
  4 15  1  0  0  0  0
  5 14  1  0  0  0  0
  5 17  1  1  0  0  0
  6 13  1  0  0  0  0
  6  9  1  0  0  0  0
  8  3  1  0  0  0  0
  8 10  1  0  0  0  0
  9  2  2  0  0  0  0
 10  9  1  0  0  0  0
 10 16  2  0  0  0  0
 11 19  2  0  0  0  0
 11 25  1  0  0  0  0
 12 14  1  0  0  0  0
 13  7  1  6  0  0  0
 13  5  1  0  0  0  0
 15 16  1  0  0  0  0
 15 18  1  6  0  0  0
 16 11  1  0  0  0  0
 21 22  1  6  0  0  0
 21 20  1  0  0  0  0
 23 24  1  0  0  0  0
 24 21  1  0  0  0  0
 27 26  1  1  0  0  0
 27 32  1  0  0  0  0
 28 32  1  0  0  0  0
 28 31  1  6  0  0  0
 29 28  1  0  0  0  0
 30 29  1  0  0  0  0
 30 27  1  0  0  0  0
 32 25  1  6  0  0  0
M  END
>  <MODEL>
1

>  <REMARK>
 VINA RESULT:      -7.5      0.000      0.000
  Name = 
  5 active torsions:
  status: ('A' for Active; 'I' for Inactive)
    1  A    between atoms: C_1  and  C_20
    2  A    between atoms: C_1  and  C_24
    3  A    between atoms: C_2  and  C_24
    4  A    between atoms: C_16  and  C_27
    5  A    between atoms: C_27  and  C_32
                            x       y       z     vdW  Elec       q    Type
                         _______ _______ _______ _____ _____    ______ ____

>  <TORSDO>
F 5

$$$$
=
 OpenBabel11062410473D

 32 36  0  0  1  0  0  0  0  0999 V2000
  160.8820  208.9030  156.6620 C   0  0  1  0  0  3  0  0  0  0  0  0
  161.0810  206.1090  152.4820 C   0  0  0  0  0  0  0  0  0  0  0  0
  161.9280  209.3930  148.8770 C   0  0  0  0  0  2  0  0  0  0  0  0
  162.8290  208.3960  148.3070 N   0  0  0  0  0  2  0  0  0  0  0  0
  160.8410  206.8440  154.8540 C   0  0  1  0  0  3  0  0  0  0  0  0
  161.0170  208.5790  153.1020 C   0  0  0  0  0  2  0  0  0  0  0  0
  160.0780  209.1930  155.3800 C   0  0  0  0  0  2  0  0  0  0  0  0
  161.8520  209.2110  150.3860 C   0  0  0  0  0  2  0  0  0  0  0  0
  161.2010  207.4660  152.0900 C   0  0  0  0  0  0  0  0  0  0  0  0
  161.5880  207.7760  150.7700 C   0  0  0  0  0  0  0  0  0  0  0  0
  161.6760  205.3920  150.2400 C   0  0  0  0  0  0  0  0  0  0  0  0
  160.9370  207.4000  157.0250 C   0  0  0  0  0  2  0  0  0  0  0  0
  160.2070  208.1110  154.3020 C   0  0  2  0  0  3  0  0  0  0  0  0
  160.2780  206.5610  156.1020 O   0  0  0  0  0  0  0  0  0  0  0  0
  162.2170  207.0690  148.4160 C   0  0  1  0  0  3  0  0  0  0  0  0
  161.8290  206.7350  149.8410 C   0  0  0  0  0  0  0  0  0  0  0  0
  160.6210  205.7130  153.8610 C   0  0  0  0  0  2  0  0  0  0  0  0
  161.0630  206.9740  147.5350 N   0  0  0  0  0  1  0  0  0  0  0  0
  161.3150  205.0970  151.5550 C   0  0  0  0  0  3  0  0  0  0  0  0
  162.3040  209.4340  156.5360 C   0  0  0  0  0  2  0  0  0  0  0  0
  162.3120  210.8950  156.1210 C   0  0  2  0  0  3  0  0  0  0  0  0
  163.6040  211.2940  155.8170 F   0  0  0  0  0  0  0  0  0  0  0  0
  160.5800  212.5460  156.7940 C   0  0  0  0  0  1  0  0  0  0  0  0
  161.7750  211.7390  157.2610 C   0  0  0  0  0  2  0  0  0  0  0  0
  161.9290  204.2600  149.2780 C   0  0  0  0  0  2  0  0  0  0  0  0
  159.7130  201.9240  150.7870 O   0  0  0  0  0  1  0  0  0  0  0  0
  160.9050  202.0890  150.0820 C   0  0  1  0  0  3  0  0  0  0  0  0
  160.6800  202.5500  147.7780 C   0  0  2  0  0  3  0  0  0  0  0  0
  161.3550  201.3280  147.8670 O   0  0  0  0  0  0  0  0  0  0  0  0
  161.1330  200.8860  149.1830 C   0  0  0  0  0  2  0  0  0  0  0  0
  161.1720  203.3730  146.5970 C   0  0  0  0  0  1  0  0  0  0  0  0
  160.7740  203.2440  149.1290 C   0  0  2  0  0  3  0  0  0  0  0  0
  1 20  1  6  0  0  0
  1 12  1  0  0  0  0
  2 17  1  0  0  0  0
  3  8  1  0  0  0  0
  4 15  1  0  0  0  0
  4  3  1  0  0  0  0
  5 17  1  6  0  0  0
  5 14  1  0  0  0  0
  7  1  1  0  0  0  0
  8 10  1  0  0  0  0
  9  2  1  0  0  0  0
  9  6  1  0  0  0  0
 10  9  2  0  0  0  0
 11 19  1  0  0  0  0
 13  6  1  6  0  0  0
 13  5  1  0  0  0  0
 13  7  1  0  0  0  0
 14 12  1  0  0  0  0
 15 18  1  6  0  0  0
 15 16  1  0  0  0  0
 16 11  2  0  0  0  0
 16 10  1  0  0  0  0
 19  2  2  0  0  0  0
 21 22  1  1  0  0  0
 21 20  1  0  0  0  0
 21 24  1  0  0  0  0
 23 24  1  0  0  0  0
 25 11  1  0  0  0  0
 27 26  1  6  0  0  0
 28 31  1  6  0  0  0
 28 29  1  0  0  0  0
 28 32  1  0  0  0  0
 29 30  1  0  0  0  0
 30 27  1  0  0  0  0
 32 25  1  6  0  0  0
 32 27  1  0  0  0  0
M  END
>  <MODEL>
2

>  <REMARK>
 VINA RESULT:      -7.5      4.249      8.906
  Name = 
  5 active torsions:
  status: ('A' for Active; 'I' for Inactive)
    1  A    between atoms: C_1  and  C_20
    2  A    between atoms: C_1  and  C_24
    3  A    between atoms: C_2  and  C_24
    4  A    between atoms: C_16  and  C_27
    5  A    between atoms: C_27  and  C_32
                            x       y       z     vdW  Elec       q    Type
                         _______ _______ _______ _____ _____    ______ ____

>  <TORSDO>
F 5

$$$$
=
 OpenBabel11062410473D

 32 36  0  0  1  0  0  0  0  0999 V2000
  161.5160  210.9950  151.7560 C   0  0  1  0  0  3  0  0  0  0  0  0
  161.5340  206.6450  149.2260 C   0  0  0  0  0  0  0  0  0  0  0  0
  160.9990  203.2030  152.7420 C   0  0  0  0  0  2  0  0  0  0  0  0
  160.1160  202.5150  151.8050 N   0  0  0  0  0  2  0  0  0  0  0  0
  161.6320  209.0680  149.8100 C   0  0  1  0  0  3  0  0  0  0  0  0
  161.6090  207.4200  151.6510 C   0  0  0  0  0  2  0  0  0  0  0  0
  162.4090  209.7880  152.1030 C   0  0  0  0  0  2  0  0  0  0  0  0
  160.9710  204.7000  152.4670 C   0  0  0  0  0  2  0  0  0  0  0  0
  161.4690  206.3310  150.6060 C   0  0  0  0  0  0  0  0  0  0  0  0
  161.1780  205.0110  151.0050 C   0  0  0  0  0  0  0  0  0  0  0  0
  161.0730  204.3290  148.6600 C   0  0  0  0  0  0  0  0  0  0  0  0
  161.4040  211.2600  150.2360 C   0  0  0  0  0  2  0  0  0  0  0  0
  162.3280  208.6380  151.0920 C   0  0  2  0  0  3  0  0  0  0  0  0
  162.1050  210.3310  149.4370 O   0  0  0  0  0  0  0  0  0  0  0  0
  160.6900  202.5820  150.4580 C   0  0  1  0  0  3  0  0  0  0  0  0
  160.9760  204.0050  150.0290 C   0  0  0  0  0  0  0  0  0  0  0  0
  161.8930  208.0250  148.7360 C   0  0  0  0  0  2  0  0  0  0  0  0
  161.8980  201.7730  150.3870 N   0  0  0  0  0  1  0  0  0  0  0  0
  161.3410  205.6440  148.2780 C   0  0  0  0  0  3  0  0  0  0  0  0
  160.1170  210.8100  152.3300 C   0  0  0  0  0  2  0  0  0  0  0  0
  160.1650  210.5390  153.8240 C   0  0  2  0  0  3  0  0  0  0  0  0
  160.0530  209.1790  154.0630 F   0  0  0  0  0  0  0  0  0  0  0  0
  158.1930  212.0090  153.4650 C   0  0  0  0  0  1  0  0  0  0  0  0
  159.0210  211.2700  154.4990 C   0  0  0  0  0  2  0  0  0  0  0  0
  160.8610  203.2850  147.5960 C   0  0  0  0  0  2  0  0  0  0  0  0
  163.0710  205.2960  145.6700 O   0  0  0  0  0  1  0  0  0  0  0  0
  161.7390  204.9810  145.9350 C   0  0  1  0  0  3  0  0  0  0  0  0
  160.9650  202.9450  145.0250 C   0  0  2  0  0  3  0  0  0  0  0  0
  160.2020  203.9540  144.4270 O   0  0  0  0  0  0  0  0  0  0  0  0
  160.9190  205.1400  144.6670 C   0  0  0  0  0  2  0  0  0  0  0  0
  160.1420  201.6870  145.2560 C   0  0  0  0  0  1  0  0  0  0  0  0
  161.6220  203.5200  146.2720 C   0  0  2  0  0  3  0  0  0  0  0  0
  1  7  1  0  0  0  0
  1 20  1  6  0  0  0
  2  9  1  0  0  0  0
  4  3  1  0  0  0  0
  5 17  1  6  0  0  0
  5 13  1  0  0  0  0
  8  3  1  0  0  0  0
  9 10  2  0  0  0  0
  9  6  1  0  0  0  0
 10  8  1  0  0  0  0
 11 16  2  0  0  0  0
 12  1  1  0  0  0  0
 13  6  1  1  0  0  0
 13  7  1  0  0  0  0
 14  5  1  0  0  0  0
 14 12  1  0  0  0  0
 15 18  1  1  0  0  0
 15  4  1  0  0  0  0
 16 15  1  0  0  0  0
 16 10  1  0  0  0  0
 17  2  1  0  0  0  0
 19 11  1  0  0  0  0
 19  2  2  0  0  0  0
 20 21  1  0  0  0  0
 21 22  1  6  0  0  0
 21 24  1  0  0  0  0
 23 24  1  0  0  0  0
 25 11  1  0  0  0  0
 27 26  1  6  0  0  0
 27 32  1  0  0  0  0
 28 31  1  1  0  0  0
 28 32  1  0  0  0  0
 29 30  1  0  0  0  0
 29 28  1  0  0  0  0
 30 27  1  0  0  0  0
 32 25  1  1  0  0  0
M  END
>  <MODEL>
3

>  <REMARK>
 VINA RESULT:      -7.3      4.471      9.904
  Name = 
  5 active torsions:
  status: ('A' for Active; 'I' for Inactive)
    1  A    between atoms: C_1  and  C_20
    2  A    between atoms: C_1  and  C_24
    3  A    between atoms: C_2  and  C_24
    4  A    between atoms: C_16  and  C_27
    5  A    between atoms: C_27  and  C_32
                            x       y       z     vdW  Elec       q    Type
                         _______ _______ _______ _____ _____    ______ ____

>  <TORSDO>
F 5

$$$$
=
 OpenBabel11062410473D

 32 36  0  0  1  0  0  0  0  0999 V2000
  161.1990  210.1230  154.1500 C   0  0  1  0  0  3  0  0  0  0  0  0
  161.0930  207.1170  150.1160 C   0  0  0  0  0  0  0  0  0  0  0  0
  161.3550  202.5510  152.0070 C   0  0  0  0  0  2  0  0  0  0  0  0
  160.3800  202.1730  150.9890 N   0  0  0  0  0  2  0  0  0  0  0  0
  161.1260  209.1220  151.6000 C   0  0  1  0  0  3  0  0  0  0  0  0
  161.5070  206.9040  152.6200 C   0  0  0  0  0  2  0  0  0  0  0  0
  162.2130  208.9950  153.8750 C   0  0  0  0  0  2  0  0  0  0  0  0
  161.1860  204.0230  152.3570 C   0  0  0  0  0  2  0  0  0  0  0  0
  161.2720  206.2910  151.2540 C   0  0  0  0  0  0  0  0  0  0  0  0
  161.1350  204.8940  151.1260 C   0  0  0  0  0  0  0  0  0  0  0  0
  160.7000  205.1590  148.7360 C   0  0  0  0  0  0  0  0  0  0  0  0
  160.8280  210.9360  152.8870 C   0  0  0  0  0  2  0  0  0  0  0  0
  162.0460  208.3220  152.5090 C   0  0  2  0  0  3  0  0  0  0  0  0
  161.4510  210.4790  151.7060 O   0  0  0  0  0  0  0  0  0  0  0  0
  160.7250  202.8220  149.7210 C   0  0  1  0  0  3  0  0  0  0  0  0
  160.8450  204.3240  149.8630 C   0  0  0  0  0  0  0  0  0  0  0  0
  161.2790  208.6120  150.1750 C   0  0  0  0  0  2  0  0  0  0  0  0
  161.9560  202.2570  149.1870 N   0  0  0  0  0  1  0  0  0  0  0  0
  160.8160  206.5420  148.8790 C   0  0  0  0  0  3  0  0  0  0  0  0
  159.9260  209.5610  154.7680 C   0  0  0  0  0  2  0  0  0  0  0  0
  159.9370  209.7050  156.2810 C   0  0  2  0  0  3  0  0  0  0  0  0
  160.8730  210.6540  156.6590 F   0  0  0  0  0  0  0  0  0  0  0  0
  159.6970  207.2390  156.0830 C   0  0  0  0  0  1  0  0  0  0  0  0
  160.2860  208.3690  156.9050 C   0  0  0  0  0  2  0  0  0  0  0  0
  160.3880  204.5850  147.3780 C   0  0  0  0  0  2  0  0  0  0  0  0
  163.0840  206.2340  145.7490 O   0  0  0  0  0  1  0  0  0  0  0  0
  161.7610  205.8090  145.6380 C   0  0  1  0  0  3  0  0  0  0  0  0
  161.4510  203.4970  145.2760 C   0  0  2  0  0  3  0  0  0  0  0  0
  160.9310  204.1410  144.1480 O   0  0  0  0  0  0  0  0  0  0  0  0
  161.4660  205.4410  144.1950 C   0  0  0  0  0  2  0  0  0  0  0  0
  160.6450  202.2570  145.6310 C   0  0  0  0  0  1  0  0  0  0  0  0
  161.5770  204.5220  146.3940 C   0  0  2  0  0  3  0  0  0  0  0  0
  1 20  1  6  0  0  0
  2 17  1  0  0  0  0
  2  9  1  0  0  0  0
  3  8  1  0  0  0  0
  4  3  1  0  0  0  0
  5 17  1  6  0  0  0
  5 14  1  0  0  0  0
  5 13  1  0  0  0  0
  7  1  1  0  0  0  0
  9  6  1  0  0  0  0
 10  9  2  0  0  0  0
 10  8  1  0  0  0  0
 11 19  1  0  0  0  0
 11 16  2  0  0  0  0
 12  1  1  0  0  0  0
 13  6  1  1  0  0  0
 13  7  1  0  0  0  0
 14 12  1  0  0  0  0
 15 18  1  1  0  0  0
 15 16  1  0  0  0  0
 15  4  1  0  0  0  0
 16 10  1  0  0  0  0
 19  2  2  0  0  0  0
 20 21  1  0  0  0  0
 21 22  1  6  0  0  0
 21 24  1  0  0  0  0
 23 24  1  0  0  0  0
 25 11  1  0  0  0  0
 27 26  1  6  0  0  0
 27 32  1  0  0  0  0
 28 31  1  1  0  0  0
 28 32  1  0  0  0  0
 29 30  1  0  0  0  0
 29 28  1  0  0  0  0
 30 27  1  0  0  0  0
 32 25  1  6  0  0  0
M  END
>  <MODEL>
4

>  <REMARK>
 VINA RESULT:      -7.2      4.705      9.790
  Name = 
  5 active torsions:
  status: ('A' for Active; 'I' for Inactive)
    1  A    between atoms: C_1  and  C_20
    2  A    between atoms: C_1  and  C_24
    3  A    between atoms: C_2  and  C_24
    4  A    between atoms: C_16  and  C_27
    5  A    between atoms: C_27  and  C_32
                            x       y       z     vdW  Elec       q    Type
                         _______ _______ _______ _____ _____    ______ ____

>  <TORSDO>
F 5

$$$$
=
 OpenBabel11062410473D

 32 36  0  0  1  0  0  0  0  0999 V2000
  160.8210  201.4830  148.4070 C   0  0  1  0  0  3  0  0  0  0  0  0
  160.9550  205.4210  151.5360 C   0  0  0  0  0  0  0  0  0  0  0  0
  162.4800  209.1720  148.6890 C   0  0  0  0  0  2  0  0  0  0  0  0
  161.5090  209.9910  149.4080 N   0  0  0  0  0  2  0  0  0  0  0  0
  160.6920  203.1250  150.5970 C   0  0  1  0  0  3  0  0  0  0  0  0
  161.6890  204.8710  149.1600 C   0  0  0  0  0  2  0  0  0  0  0  0
  162.0300  202.4230  148.5740 C   0  0  0  0  0  2  0  0  0  0  0  0
  162.0150  207.7220  148.6750 C   0  0  0  0  0  2  0  0  0  0  0  0
  161.4480  205.8610  150.2820 C   0  0  0  0  0  0  0  0  0  0  0  0
  161.6250  207.2400  150.0490 C   0  0  0  0  0  0  0  0  0  0  0  0
  160.8710  207.7160  152.3250 C   0  0  0  0  0  0  0  0  0  0  0  0
  160.1300  201.1270  149.7450 C   0  0  0  0  0  2  0  0  0  0  0  0
  161.8680  203.4580  149.6940 C   0  0  2  0  0  3  0  0  0  0  0  0
  160.7030  201.7530  150.8730 O   0  0  0  0  0  0  0  0  0  0  0  0
  161.5480  209.6520  150.8330 C   0  0  1  0  0  3  0  0  0  0  0  0
  161.3320  208.1720  151.0740 C   0  0  0  0  0  0  0  0  0  0  0  0
  160.7950  203.9590  151.8650 C   0  0  0  0  0  2  0  0  0  0  0  0
  162.8070  210.0880  151.4190 N   0  0  0  0  0  1  0  0  0  0  0  0
  160.6800  206.3500  152.5360 C   0  0  0  0  0  3  0  0  0  0  0  0
  159.7910  202.0940  147.4670 C   0  0  0  0  0  2  0  0  0  0  0  0
  160.1880  201.9020  146.0130 C   0  0  2  0  0  3  0  0  0  0  0  0
  160.7630  200.6540  145.8410 F   0  0  0  0  0  0  0  0  0  0  0  0
  160.5080  204.0170  144.7470 C   0  0  0  0  0  1  0  0  0  0  0  0
  161.1820  202.9780  145.6220 C   0  0  0  0  0  2  0  0  0  0  0  0
  160.5470  208.6820  153.4360 C   0  0  0  0  0  2  0  0  0  0  0  0
  160.4330  206.5630  156.2890 O   0  0  0  0  0  1  0  0  0  0  0  0
  160.0320  207.7830  155.7460 C   0  0  1  0  0  3  0  0  0  0  0  0
  161.6970  209.4530  155.6300 C   0  0  2  0  0  3  0  0  0  0  0  0
  160.7060  209.9490  156.4830 O   0  0  0  0  0  0  0  0  0  0  0  0
  159.9450  208.8250  156.8480 C   0  0  0  0  0  2  0  0  0  0  0  0
  162.3230  210.5610  154.7980 C   0  0  0  0  0  1  0  0  0  0  0  0
  161.1030  208.3050  154.8270 C   0  0  2  0  0  3  0  0  0  0  0  0
  1 20  1  6  0  0  0
  1  7  1  0  0  0  0
  1 12  1  0  0  0  0
  2 17  1  0  0  0  0
  2 19  1  0  0  0  0
  3  4  1  0  0  0  0
  4 15  1  0  0  0  0
  5 14  1  0  0  0  0
  5 17  1  1  0  0  0
  6 13  1  0  0  0  0
  6  9  1  0  0  0  0
  8  3  1  0  0  0  0
  8 10  1  0  0  0  0
  9  2  2  0  0  0  0
 10  9  1  0  0  0  0
 10 16  2  0  0  0  0
 11 19  2  0  0  0  0
 11 25  1  0  0  0  0
 12 14  1  0  0  0  0
 13  7  1  6  0  0  0
 13  5  1  0  0  0  0
 15 16  1  0  0  0  0
 15 18  1  6  0  0  0
 16 11  1  0  0  0  0
 21 22  1  1  0  0  0
 21 20  1  0  0  0  0
 23 24  1  0  0  0  0
 24 21  1  0  0  0  0
 27 26  1  1  0  0  0
 27 30  1  0  0  0  0
 28 31  1  6  0  0  0
 28 29  1  0  0  0  0
 29 30  1  0  0  0  0
 32 25  1  6  0  0  0
 32 28  1  0  0  0  0
 32 27  1  0  0  0  0
M  END
>  <MODEL>
5

>  <REMARK>
 VINA RESULT:      -6.7      3.779      5.485
  Name = 
  5 active torsions:
  status: ('A' for Active; 'I' for Inactive)
    1  A    between atoms: C_1  and  C_20
    2  A    between atoms: C_1  and  C_24
    3  A    between atoms: C_2  and  C_24
    4  A    between atoms: C_16  and  C_27
    5  A    between atoms: C_27  and  C_32
                            x       y       z     vdW  Elec       q    Type
                         _______ _______ _______ _____ _____    ______ ____

>  <TORSDO>
F 5

$$$$
=
 OpenBabel11062410473D

 32 36  0  0  1  0  0  0  0  0999 V2000
  160.5720  211.2840  153.4520 C   0  0  1  0  0  3  0  0  0  0  0  0
  161.4230  207.5810  150.1520 C   0  0  0  0  0  0  0  0  0  0  0  0
  160.7090  203.4430  152.7730 C   0  0  0  0  0  2  0  0  0  0  0  0
  160.0560  202.9110  151.5810 N   0  0  0  0  0  2  0  0  0  0  0  0
  161.1820  209.8260  151.2120 C   0  0  1  0  0  3  0  0  0  0  0  0
  161.0460  207.8270  152.6590 C   0  0  0  0  0  2  0  0  0  0  0  0
  161.5200  210.0940  153.7000 C   0  0  0  0  0  2  0  0  0  0  0  0
  160.5710  204.9590  152.7990 C   0  0  0  0  0  2  0  0  0  0  0  0
  161.1800  206.9770  151.4110 C   0  0  0  0  0  0  0  0  0  0  0  0
  160.9670  205.5860  151.4850 C   0  0  0  0  0  0  0  0  0  0  0  0
  161.2940  205.4120  149.0690 C   0  0  0  0  0  0  0  0  0  0  0  0
  160.6680  211.8560  152.0180 C   0  0  0  0  0  2  0  0  0  0  0  0
  161.7130  209.1830  152.4830 C   0  0  2  0  0  3  0  0  0  0  0  0
  161.5750  211.1690  151.1830 O   0  0  0  0  0  0  0  0  0  0  0  0
  160.8210  203.3010  150.3930 C   0  0  1  0  0  3  0  0  0  0  0  0
  161.0210  204.7990  150.3090 C   0  0  0  0  0  0  0  0  0  0  0  0
  161.7100  209.0540  150.0130 C   0  0  0  0  0  2  0  0  0  0  0  0
  162.1010  202.6100  150.3710 N   0  0  0  0  0  1  0  0  0  0  0  0
  161.4810  206.7930  149.0060 C   0  0  0  0  0  3  0  0  0  0  0  0
  159.1280  210.8860  153.7290 C   0  0  0  0  0  2  0  0  0  0  0  0
  158.6140  211.5310  155.0050 C   0  0  2  0  0  3  0  0  0  0  0  0
  157.5660  210.7870  155.5220 F   0  0  0  0  0  0  0  0  0  0  0  0
  157.1840  213.4130  155.7740 C   0  0  0  0  0  1  0  0  0  0  0  0
  158.1360  212.9360  154.6950 C   0  0  0  0  0  2  0  0  0  0  0  0
  161.3550  204.6040  147.7990 C   0  0  0  0  0  2  0  0  0  0  0  0
  159.9990  206.6090  145.1940 O   0  0  0  0  0  1  0  0  0  0  0  0
  160.4010  205.3270  145.5680 C   0  0  1  0  0  3  0  0  0  0  0  0
  162.7330  204.9600  145.6290 C   0  0  2  0  0  3  0  0  0  0  0  0
  162.2270  204.0950  144.6520 O   0  0  0  0  0  0  0  0  0  0  0  0
  160.9460  204.5930  144.3550 C   0  0  0  0  0  2  0  0  0  0  0  0
  163.8960  204.3320  146.3800 C   0  0  0  0  0  1  0  0  0  0  0  0
  161.5750  205.4180  146.5040 C   0  0  2  0  0  3  0  0  0  0  0  0
  1  7  1  0  0  0  0
  1 20  1  6  0  0  0
  2  9  1  0  0  0  0
  3  8  1  0  0  0  0
  4  3  1  0  0  0  0
  5 17  1  6  0  0  0
  5 13  1  0  0  0  0
  9 10  2  0  0  0  0
  9  6  1  0  0  0  0
 10  8  1  0  0  0  0
 11 16  2  0  0  0  0
 12  1  1  0  0  0  0
 13  6  1  1  0  0  0
 13  7  1  0  0  0  0
 14  5  1  0  0  0  0
 14 12  1  0  0  0  0
 15 18  1  1  0  0  0
 15  4  1  0  0  0  0
 16 15  1  0  0  0  0
 16 10  1  0  0  0  0
 17  2  1  0  0  0  0
 19 11  1  0  0  0  0
 19  2  2  0  0  0  0
 20 21  1  0  0  0  0
 21 22  1  6  0  0  0
 24 21  1  0  0  0  0
 24 23  1  0  0  0  0
 25 11  1  0  0  0  0
 27 26  1  6  0  0  0
 27 32  1  0  0  0  0
 28 31  1  1  0  0  0
 28 32  1  0  0  0  0
 29 28  1  0  0  0  0
 30 29  1  0  0  0  0
 30 27  1  0  0  0  0
 32 25  1  1  0  0  0
M  END
>  <MODEL>
6

>  <REMARK>
 VINA RESULT:      -6.5      4.361      9.732
  Name = 
  5 active torsions:
  status: ('A' for Active; 'I' for Inactive)
    1  A    between atoms: C_1  and  C_20
    2  A    between atoms: C_1  and  C_24
    3  A    between atoms: C_2  and  C_24
    4  A    between atoms: C_16  and  C_27
    5  A    between atoms: C_27  and  C_32
                            x       y       z     vdW  Elec       q    Type
                         _______ _______ _______ _____ _____    ______ ____

>  <TORSDO>
F 5

$$$$
=
 OpenBabel11062410473D

 32 36  0  0  1  0  0  0  0  0999 V2000
  161.9570  205.1850  151.3500 C   0  0  1  0  0  3  0  0  0  0  0  0
  160.4810  209.7710  152.8020 C   0  0  0  0  0  0  0  0  0  0  0  0
  161.2900  212.6120  148.8300 C   0  0  0  0  0  2  0  0  0  0  0  0
  160.0280  213.2680  149.1570 N   0  0  0  0  0  2  0  0  0  0  0  0
  161.0310  207.3390  152.7700 C   0  0  1  0  0  3  0  0  0  0  0  0
  161.6970  208.7150  150.8290 C   0  0  0  0  0  2  0  0  0  0  0  0
  162.8080  206.4620  151.2040 C   0  0  0  0  0  2  0  0  0  0  0  0
  161.2670  211.1760  149.3360 C   0  0  0  0  0  2  0  0  0  0  0  0
  161.0150  209.8940  151.4950 C   0  0  0  0  0  0  0  0  0  0  0  0
  160.8240  211.0910  150.7750 C   0  0  0  0  0  0  0  0  0  0  0  0
  159.6260  212.0410  152.6820 C   0  0  0  0  0  0  0  0  0  0  0  0
  161.2010  205.1020  152.6970 C   0  0  0  0  0  2  0  0  0  0  0  0
  162.1880  207.7050  151.8550 C   0  0  2  0  0  3  0  0  0  0  0  0
  161.3910  206.2230  153.5340 O   0  0  0  0  0  0  0  0  0  0  0  0
  159.9430  213.4640  150.6070 C   0  0  1  0  0  3  0  0  0  0  0  0
  160.1240  212.1690  151.3700 C   0  0  0  0  0  0  0  0  0  0  0  0
  160.6970  208.5390  153.6420 C   0  0  0  0  0  2  0  0  0  0  0  0
  160.9200  214.4530  151.0380 N   0  0  0  0  0  1  0  0  0  0  0  0
  159.8020  210.8430  153.3760 C   0  0  0  0  0  3  0  0  0  0  0  0
  160.9530  205.0760  150.2110 C   0  0  0  0  0  2  0  0  0  0  0  0
  161.2480  203.8750  149.3280 C   0  0  2  0  0  3  0  0  0  0  0  0
  160.8900  204.1500  148.0190 F   0  0  0  0  0  0  0  0  0  0  0  0
  160.9190  201.4180  149.1330 C   0  0  0  0  0  1  0  0  0  0  0  0
  160.4570  202.6830  149.8310 C   0  0  0  0  0  2  0  0  0  0  0  0
  158.8740  213.1670  153.3430 C   0  0  0  0  0  2  0  0  0  0  0  0
  155.5890  212.2300  154.3270 O   0  0  0  0  0  1  0  0  0  0  0  0
  156.5080  213.2740  154.2350 C   0  0  1  0  0  3  0  0  0  0  0  0
  158.2270  213.2740  155.8530 C   0  0  2  0  0  3  0  0  0  0  0  0
  157.4980  214.4500  156.0600 O   0  0  0  0  0  0  0  0  0  0  0  0
  156.2840  214.2470  155.3800 C   0  0  0  0  0  2  0  0  0  0  0  0
  159.7090  213.4810  156.1260 C   0  0  0  0  0  1  0  0  0  0  0  0
  157.8980  212.7470  154.4640 C   0  0  2  0  0  3  0  0  0  0  0  0
  1 20  1  6  0  0  0
  1 12  1  0  0  0  0
  2 19  1  0  0  0  0
  2 17  1  0  0  0  0
  3  4  1  0  0  0  0
  3  8  1  0  0  0  0
  4 15  1  0  0  0  0
  5 14  1  0  0  0  0
  5 17  1  1  0  0  0
  6  9  1  0  0  0  0
  7  1  1  0  0  0  0
  7 13  1  0  0  0  0
  8 10  1  0  0  0  0
  9  2  2  0  0  0  0
 10 16  2  0  0  0  0
 10  9  1  0  0  0  0
 11 25  1  0  0  0  0
 11 19  2  0  0  0  0
 12 14  1  0  0  0  0
 13  6  1  6  0  0  0
 13  5  1  0  0  0  0
 15 18  1  1  0  0  0
 15 16  1  0  0  0  0
 16 11  1  0  0  0  0
 21 22  1  6  0  0  0
 21 24  1  0  0  0  0
 21 20  1  0  0  0  0
 23 24  1  0  0  0  0
 27 26  1  1  0  0  0
 27 32  1  0  0  0  0
 27 30  1  0  0  0  0
 28 29  1  0  0  0  0
 28 31  1  6  0  0  0
 30 29  1  0  0  0  0
 32 25  1  6  0  0  0
 32 28  1  0  0  0  0
M  END
>  <MODEL>
7

>  <REMARK>
 VINA RESULT:      -6.4      1.761      2.492
  Name = 
  5 active torsions:
  status: ('A' for Active; 'I' for Inactive)
    1  A    between atoms: C_1  and  C_20
    2  A    between atoms: C_1  and  C_24
    3  A    between atoms: C_2  and  C_24
    4  A    between atoms: C_16  and  C_27
    5  A    between atoms: C_27  and  C_32
                            x       y       z     vdW  Elec       q    Type
                         _______ _______ _______ _____ _____    ______ ____

>  <TORSDO>
F 5

$$$$
=
 OpenBabel11062410473D

 32 36  0  0  1  0  0  0  0  0999 V2000
  161.4150  212.5670  149.6740 C   0  0  1  0  0  3  0  0  0  0  0  0
  161.3570  207.5870  148.9570 C   0  0  0  0  0  0  0  0  0  0  0  0
  161.4570  205.7080  153.5350 C   0  0  0  0  0  2  0  0  0  0  0  0
  160.5040  204.7150  153.0490 N   0  0  0  0  0  2  0  0  0  0  0  0
  161.3930  210.0530  148.5830 C   0  0  1  0  0  3  0  0  0  0  0  0
  161.6920  209.2130  150.8880 C   0  0  0  0  0  2  0  0  0  0  0  0
  162.4100  211.5810  150.3170 C   0  0  0  0  0  2  0  0  0  0  0  0
  161.3120  206.9940  152.7320 C   0  0  0  0  0  2  0  0  0  0  0  0
  161.4830  207.8110  150.3500 C   0  0  0  0  0  0  0  0  0  0  0  0
  161.3170  206.7350  151.2460 C   0  0  0  0  0  0  0  0  0  0  0  0
  160.9590  205.2250  149.3570 C   0  0  0  0  0  0  0  0  0  0  0  0
  161.1000  212.2430  148.1940 C   0  0  0  0  0  2  0  0  0  0  0  0
  162.2670  210.1370  149.8250 C   0  0  2  0  0  3  0  0  0  0  0  0
  161.7460  211.0860  147.7080 O   0  0  0  0  0  0  0  0  0  0  0  0
  160.9010  204.2760  151.7080 C   0  0  1  0  0  3  0  0  0  0  0  0
  161.0510  205.4370  150.7480 C   0  0  0  0  0  0  0  0  0  0  0  0
  161.5760  208.6840  147.9460 C   0  0  0  0  0  2  0  0  0  0  0  0
  162.1330  203.5050  151.7780 N   0  0  0  0  0  1  0  0  0  0  0  0
  161.1030  206.3030  148.4820 C   0  0  0  0  0  3  0  0  0  0  0  0
  160.1110  212.6040  150.4600 C   0  0  0  0  0  2  0  0  0  0  0  0
  159.5960  214.0260  150.6080 C   0  0  2  0  0  3  0  0  0  0  0  0
  158.8590  214.1430  151.7750 F   0  0  0  0  0  0  0  0  0  0  0  0
  157.2570  214.2640  149.8010 C   0  0  0  0  0  1  0  0  0  0  0  0
  158.7210  214.3640  149.4180 C   0  0  0  0  0  2  0  0  0  0  0  0
  160.6740  203.8570  148.7950 C   0  0  0  0  0  2  0  0  0  0  0  0
  162.7910  204.5130  146.0150 O   0  0  0  0  0  1  0  0  0  0  0  0
  161.5520  204.0240  146.4270 C   0  0  1  0  0  3  0  0  0  0  0  0
  161.5660  201.8680  147.3880 C   0  0  2  0  0  3  0  0  0  0  0  0
  160.7840  201.7740  146.2310 O   0  0  0  0  0  0  0  0  0  0  0  0
  161.1040  202.9210  145.4840 C   0  0  0  0  0  2  0  0  0  0  0  0
  161.0330  200.9720  148.4950 C   0  0  0  0  0  1  0  0  0  0  0  0
  161.6940  203.3390  147.7570 C   0  0  2  0  0  3  0  0  0  0  0  0
  1  7  1  0  0  0  0
  1 20  1  1  0  0  0
  2  9  1  0  0  0  0
  4  3  1  0  0  0  0
  5 17  1  6  0  0  0
  5 13  1  0  0  0  0
  8  3  1  0  0  0  0
  9  6  1  0  0  0  0
  9 10  2  0  0  0  0
 10  8  1  0  0  0  0
 11 16  2  0  0  0  0
 12  1  1  0  0  0  0
 13  7  1  1  0  0  0
 13  6  1  0  0  0  0
 14 12  1  0  0  0  0
 14  5  1  0  0  0  0
 15 18  1  1  0  0  0
 15  4  1  0  0  0  0
 16 10  1  0  0  0  0
 16 15  1  0  0  0  0
 17  2  1  0  0  0  0
 19  2  2  0  0  0  0
 19 11  1  0  0  0  0
 20 21  1  0  0  0  0
 21 22  1  1  0  0  0
 24 23  1  0  0  0  0
 24 21  1  0  0  0  0
 25 11  1  0  0  0  0
 27 26  1  6  0  0  0
 27 32  1  0  0  0  0
 28 32  1  0  0  0  0
 28 31  1  1  0  0  0
 29 28  1  0  0  0  0
 30 29  1  0  0  0  0
 30 27  1  0  0  0  0
 32 25  1  1  0  0  0
M  END
>  <MODEL>
8

>  <REMARK>
 VINA RESULT:      -5.9      5.362      9.714
  Name = 
  5 active torsions:
  status: ('A' for Active; 'I' for Inactive)
    1  A    between atoms: C_1  and  C_20
    2  A    between atoms: C_1  and  C_24
    3  A    between atoms: C_2  and  C_24
    4  A    between atoms: C_16  and  C_27
    5  A    between atoms: C_27  and  C_32
                            x       y       z     vdW  Elec       q    Type
                         _______ _______ _______ _____ _____    ______ ____

>  <TORSDO>
F 5

$$$$
=
 OpenBabel11062410473D

 32 36  0  0  1  0  0  0  0  0999 V2000
  161.1360  202.8720  147.7450 C   0  0  1  0  0  3  0  0  0  0  0  0
  161.5620  207.8030  148.6530 C   0  0  0  0  0  0  0  0  0  0  0  0
  160.7900  208.2030  153.5260 C   0  0  0  0  0  2  0  0  0  0  0  0
  161.8600  209.1960  153.5200 N   0  0  0  0  0  2  0  0  0  0  0  0
  161.4660  205.5830  147.5180 C   0  0  1  0  0  3  0  0  0  0  0  0
  160.8270  205.7090  149.9030 C   0  0  0  0  0  2  0  0  0  0  0  0
  160.0980  203.7100  148.5160 C   0  0  0  0  0  2  0  0  0  0  0  0
  161.0030  207.2140  152.3870 C   0  0  0  0  0  2  0  0  0  0  0  0
  161.1930  207.1790  149.8710 C   0  0  0  0  0  0  0  0  0  0  0  0
  161.2600  207.9110  151.0740 C   0  0  0  0  0  0  0  0  0  0  0  0
  162.0060  209.8790  149.8310 C   0  0  0  0  0  0  0  0  0  0  0  0
  161.7110  203.5970  146.5050 C   0  0  0  0  0  2  0  0  0  0  0  0
  160.3940  205.2140  148.5310 C   0  0  2  0  0  3  0  0  0  0  0  0
  161.2140  204.9050  146.3210 O   0  0  0  0  0  0  0  0  0  0  0  0
  161.7160  210.0590  152.3440 C   0  0  1  0  0  3  0  0  0  0  0  0
  161.6710  209.2660  151.0560 C   0  0  0  0  0  0  0  0  0  0  0  0
  161.4620  207.0920  147.3270 C   0  0  0  0  0  2  0  0  0  0  0  0
  160.5290  210.8920  152.4760 N   0  0  0  0  0  1  0  0  0  0  0  0
  161.9560  209.1380  148.6500 C   0  0  0  0  0  3  0  0  0  0  0  0
  162.2860  202.4680  148.6580 C   0  0  0  0  0  2  0  0  0  0  0  0
  161.9560  201.2050  149.4350 C   0  0  2  0  0  3  0  0  0  0  0  0
  161.4280  200.2490  148.5830 F   0  0  0  0  0  0  0  0  0  0  0  0
  161.5690  202.4560  151.5490 C   0  0  0  0  0  1  0  0  0  0  0  0
  160.9460  201.5360  150.5160 C   0  0  0  0  0  2  0  0  0  0  0  0
  162.4490  211.3180  149.7770 C   0  0  0  0  0  2  0  0  0  0  0  0
  163.0060  212.5780  146.4990 O   0  0  0  0  0  1  0  0  0  0  0  0
  163.0410  212.8660  147.8630 C   0  0  1  0  0  3  0  0  0  0  0  0
  160.9470  213.2380  148.8880 C   0  0  2  0  0  3  0  0  0  0  0  0
  161.6610  214.4350  149.0130 O   0  0  0  0  0  0  0  0  0  0  0  0
  162.7080  214.3310  148.0810 C   0  0  0  0  0  2  0  0  0  0  0  0
  160.0700  212.9830  150.1040 C   0  0  0  0  0  1  0  0  0  0  0  0
  161.9350  212.1270  148.5650 C   0  0  2  0  0  3  0  0  0  0  0  0
  1  7  1  0  0  0  0
  1 20  1  1  0  0  0
  2  9  1  0  0  0  0
  4  3  1  0  0  0  0
  5 17  1  6  0  0  0
  5 13  1  0  0  0  0
  8  3  1  0  0  0  0
  9  6  1  0  0  0  0
  9 10  2  0  0  0  0
 10  8  1  0  0  0  0
 11 16  2  0  0  0  0
 12  1  1  0  0  0  0
 13  7  1  1  0  0  0
 13  6  1  0  0  0  0
 14 12  1  0  0  0  0
 14  5  1  0  0  0  0
 15 18  1  1  0  0  0
 15  4  1  0  0  0  0
 16 10  1  0  0  0  0
 16 15  1  0  0  0  0
 17  2  1  0  0  0  0
 19  2  2  0  0  0  0
 19 11  1  0  0  0  0
 20 21  1  0  0  0  0
 21 22  1  6  0  0  0
 21 24  1  0  0  0  0
 24 23  1  0  0  0  0
 25 11  1  0  0  0  0
 27 26  1  6  0  0  0
 27 30  1  0  0  0  0
 27 32  1  0  0  0  0
 28 29  1  0  0  0  0
 28 31  1  1  0  0  0
 30 29  1  0  0  0  0
 32 28  1  0  0  0  0
 32 25  1  1  0  0  0
M  END
>  <MODEL>
9

>  <REMARK>
 VINA RESULT:      -5.8      4.563      6.752
  Name = 
  5 active torsions:
  status: ('A' for Active; 'I' for Inactive)
    1  A    between atoms: C_1  and  C_20
    2  A    between atoms: C_1  and  C_24
    3  A    between atoms: C_2  and  C_24
    4  A    between atoms: C_16  and  C_27
    5  A    between atoms: C_27  and  C_32
                            x       y       z     vdW  Elec       q    Type
                         _______ _______ _______ _____ _____    ______ ____

>  <TORSDO>
F 5

$$$$
