=
 OpenBabel11062410113D

 43 48  0  0  1  0  0  0  0  0999 V2000
  160.4300  203.2470  150.1690 C   0  0  1  0  0  3  0  0  0  0  0  0
  161.5790  207.9130  151.9590 C   0  0  0  0  0  0  0  0  0  0  0  0
  161.8210  209.5020  149.6920 C   0  0  0  0  0  0  0  0  0  0  0  0
  161.1260  205.1580  151.6470 C   0  0  0  0  0  0  0  0  0  0  0  0
  161.2680  203.8900  149.0760 C   0  0  0  0  0  2  0  0  0  0  0  0
  160.4920  201.8600  150.0520 O   0  0  0  0  0  1  0  0  0  0  0  0
  161.2690  205.9760  150.5020 C   0  0  0  0  0  0  0  0  0  0  0  0
  160.9660  203.6680  151.5340 C   0  0  0  0  0  2  0  0  0  0  0  0
  161.0810  205.4040  149.1160 C   0  0  0  0  0  2  0  0  0  0  0  0
  161.6020  208.1670  149.5730 N   0  0  0  0  0  0  0  0  0  0  0  0
  161.4840  207.3570  150.6610 C   0  0  0  0  0  0  0  0  0  0  0  0
  161.4530  207.0850  153.0800 C   0  0  0  0  0  3  0  0  0  0  0  0
  161.7890  209.2930  152.1050 C   0  0  0  0  0  0  0  0  0  0  0  0
  161.9120  210.0860  150.9560 C   0  0  0  0  0  3  0  0  0  0  0  0
  161.2340  205.7170  152.9220 C   0  0  0  0  0  3  0  0  0  0  0  0
  161.8640  209.8560  153.3930 O   0  0  0  0  0  0  0  0  0  0  0  0
  159.2720  210.7750  155.9900 C   0  0  0  0  0  2  0  0  0  0  0  0
  158.0950  210.9450  155.0320 C   0  0  2  0  0  3  0  0  0  0  0  0
  159.6500  210.8480  153.0710 C   0  0  0  0  0  2  0  0  0  0  0  0
  160.3730  209.9520  155.3300 C   0  0  0  0  0  2  0  0  0  0  0  0
  160.8260  210.6120  154.0230 C   0  0  1  0  0  3  0  0  0  0  0  0
  158.5610  211.6610  153.7650 C   0  0  0  0  0  2  0  0  0  0  0  0
  155.8060  211.0260  155.7010 O   0  0  0  0  0  1  0  0  0  0  0  0
  157.0020  211.7460  155.7150 C   0  0  0  0  0  2  0  0  0  0  0  0
  161.9150  210.3480  148.4710 C   0  0  0  0  0  2  0  0  0  0  0  0
  162.2590  211.7750  148.8570 C   0  0  0  0  0  2  0  0  0  0  0  0
  161.8090  212.7460  147.7720 C   0  0  2  0  0  3  0  0  0  0  0  0
  160.8540  213.8350  149.6680 O   0  0  0  0  0  1  0  0  0  0  0  0
  161.3590  214.0610  148.3870 C   0  0  0  0  0  2  0  0  0  0  0  0
  160.7050  212.1500  146.8980 C   0  0  0  0  0  2  0  0  0  0  0  0
  159.6710  213.1430  146.5920 N   0  0  0  0  0  0  0  0  0  0  0  0
  157.9800  214.2470  144.9080 S   0  0  0  0  0  0  0  0  0  0  0  0
  158.4290  212.5990  146.9590 N   0  0  0  0  0  2  0  0  0  0  0  0
  159.5940  213.4570  145.1580 C   0  0  1  0  0  0  0  0  0  0  0  0
  160.6890  214.4530  144.8050 C   0  0  0  0  0  1  0  0  0  0  0  0
  157.4170  213.5270  146.4770 C   0  0  0  0  0  2  0  0  0  0  0  0
  159.6880  212.1870  144.2760 C   0  0  0  0  0  2  0  0  0  0  0  0
  160.2950  212.4070  142.9230 C   0  0  0  0  0  0  0  0  0  0  0  0
  160.0600  213.0490  140.5970 C   0  0  0  0  0  3  0  0  0  0  0  0
  162.2340  212.4310  141.4670 C   0  0  0  0  0  3  0  0  0  0  0  0
  161.4290  212.8490  140.4010 C   0  0  0  0  0  3  0  0  0  0  0  0
  161.6670  212.2090  142.7260 C   0  0  0  0  0  3  0  0  0  0  0  0
  159.4940  212.8320  141.8570 C   0  0  0  0  0  3  0  0  0  0  0  0
  1  6  1  1  0  0  0
  1  8  1  0  0  0  0
  2 13  1  0  0  0  0
  2 12  1  0  0  0  0
  3 14  1  0  0  0  0
  4 15  1  0  0  0  0
  5  9  1  0  0  0  0
  5  1  1  0  0  0  0
  7 11  1  0  0  0  0
  7  4  2  0  0  0  0
  8  4  1  0  0  0  0
  9  7  1  0  0  0  0
 10  3  2  0  0  0  0
 10 11  1  0  0  0  0
 11  2  2  0  0  0  0
 13 16  1  0  0  0  0
 14 13  2  0  0  0  0
 15 12  2  0  0  0  0
 18 24  1  1  0  0  0
 18 17  1  0  0  0  0
 19 22  1  0  0  0  0
 19 21  1  0  0  0  0
 20 17  1  0  0  0  0
 21 16  1  6  0  0  0
 21 20  1  0  0  0  0
 22 18  1  0  0  0  0
 23 24  1  0  0  0  0
 25 26  1  0  0  0  0
 25  3  1  0  0  0  0
 27 30  1  1  0  0  0
 27 29  1  0  0  0  0
 27 26  1  0  0  0  0
 29 28  1  0  0  0  0
 31 30  1  0  0  0  0
 31 33  1  0  0  0  0
 32 34  1  0  0  0  0
 32 36  1  0  0  0  0
 34 35  1  6  0  0  0
 34 31  1  0  0  0  0
 36 33  1  0  0  0  0
 37 34  1  0  0  0  0
 38 37  1  0  0  0  0
 39 43  1  0  0  0  0
 40 42  2  0  0  0  0
 41 39  2  0  0  0  0
 41 40  1  0  0  0  0
 42 38  1  0  0  0  0
 43 38  2  0  0  0  0
M  END
>  <MODEL>
1

>  <REMARK>
 VINA RESULT:      -8.9      0.000      0.000
  Name = 
  11 active torsions:
  status: ('A' for Active; 'I' for Inactive)
    1  A    between atoms: O_1  and  C_34
    2  A    between atoms: O_1  and  C_35
    3  A    between atoms: C_2  and  C_6
    4  A    between atoms: C_2  and  C_13
    5  A    between atoms: C_3  and  N_4
    6  A    between atoms: C_3  and  C_12
    7  A    between atoms: C_6  and  C_12
    8  A    between atoms: C_11  and  C_14
    9  A    between atoms: C_12  and  C_17
   10  A    between atoms: C_14  and  C_22
   11  A    between atoms: C_19  and  C_37
                            x       y       z     vdW  Elec       q    Type
                         _______ _______ _______ _____ _____    ______ ____

>  <TORSDO>
F 11

$$$$
=
 OpenBabel11062410113D

 43 48  0  0  1  0  0  0  0  0999 V2000
  160.6740  202.8110  148.2950 C   0  0  1  0  0  3  0  0  0  0  0  0
  161.3940  206.9130  151.2870 C   0  0  0  0  0  0  0  0  0  0  0  0
  161.8770  209.0020  149.5200 C   0  0  0  0  0  0  0  0  0  0  0  0
  161.0930  204.3120  150.2680 C   0  0  0  0  0  0  0  0  0  0  0  0
  161.6270  203.7020  147.5150 C   0  0  0  0  0  2  0  0  0  0  0  0
  160.8040  201.4920  147.8610 O   0  0  0  0  0  1  0  0  0  0  0  0
  161.3560  205.3830  149.3820 C   0  0  0  0  0  0  0  0  0  0  0  0
  161.0060  202.8920  149.7820 C   0  0  0  0  0  2  0  0  0  0  0  0
  161.3780  205.1610  147.8880 C   0  0  0  0  0  2  0  0  0  0  0  0
  161.7280  207.7340  149.0570 N   0  0  0  0  0  0  0  0  0  0  0  0
  161.4960  206.6850  149.8940 C   0  0  0  0  0  0  0  0  0  0  0  0
  161.1510  205.8380  152.1500 C   0  0  0  0  0  3  0  0  0  0  0  0
  161.5300  208.2180  151.7850 C   0  0  0  0  0  0  0  0  0  0  0  0
  161.7770  209.2650  150.8870 C   0  0  0  0  0  3  0  0  0  0  0  0
  161.0070  204.5470  151.6420 C   0  0  0  0  0  3  0  0  0  0  0  0
  161.4100  208.4540  153.1670 O   0  0  0  0  0  0  0  0  0  0  0  0
  159.7150  210.6170  155.7660 C   0  0  0  0  0  2  0  0  0  0  0  0
  158.6360  211.1980  154.8560 C   0  0  2  0  0  3  0  0  0  0  0  0
  159.8070  210.2750  152.8440 C   0  0  0  0  0  2  0  0  0  0  0  0
  160.2940  209.3470  155.1520 C   0  0  0  0  0  2  0  0  0  0  0  0
  160.8570  209.6340  153.7560 C   0  0  1  0  0  3  0  0  0  0  0  0
  159.2380  211.5340  153.4920 C   0  0  0  0  0  2  0  0  0  0  0  0
  156.9670  212.9000  154.7500 O   0  0  0  0  0  1  0  0  0  0  0  0
  158.0570  212.4470  155.4950 C   0  0  0  0  0  2  0  0  0  0  0  0
  162.1030  210.1180  148.5610 C   0  0  0  0  0  2  0  0  0  0  0  0
  161.9780  211.4500  149.2790 C   0  0  0  0  0  2  0  0  0  0  0  0
  161.6490  212.5610  148.2910 C   0  0  2  0  0  3  0  0  0  0  0  0
  160.3410  213.3340  150.1310 O   0  0  0  0  0  1  0  0  0  0  0  0
  161.0620  213.7610  149.0160 C   0  0  0  0  0  2  0  0  0  0  0  0
  160.7060  212.0810  147.1870 C   0  0  0  0  0  2  0  0  0  0  0  0
  159.7050  213.1000  146.8570 N   0  0  0  0  0  0  0  0  0  0  0  0
  158.1140  214.2740  145.1240 S   0  0  0  0  0  0  0  0  0  0  0  0
  158.4390  212.5720  147.1540 N   0  0  0  0  0  2  0  0  0  0  0  0
  159.7010  213.4480  145.4290 C   0  0  1  0  0  0  0  0  0  0  0  0
  160.8290  214.4310  145.1510 C   0  0  0  0  0  1  0  0  0  0  0  0
  157.4660  213.5300  146.6480 C   0  0  0  0  0  2  0  0  0  0  0  0
  159.8130  212.1970  144.5220 C   0  0  0  0  0  2  0  0  0  0  0  0
  160.3800  212.4590  143.1600 C   0  0  0  0  0  0  0  0  0  0  0  0
  162.2850  212.5630  141.6640 C   0  0  0  0  0  3  0  0  0  0  0  0
  160.0620  213.0370  140.8260 C   0  0  0  0  0  3  0  0  0  0  0  0
  161.4390  212.9160  140.6080 C   0  0  0  0  0  3  0  0  0  0  0  0
  159.5340  212.8090  142.1000 C   0  0  0  0  0  3  0  0  0  0  0  0
  161.7560  212.3310  142.9370 C   0  0  0  0  0  3  0  0  0  0  0  0
  1  6  1  6  0  0  0
  1  8  1  0  0  0  0
  2 13  1  0  0  0  0
  2 12  1  0  0  0  0
  3 14  1  0  0  0  0
  4 15  1  0  0  0  0
  5  9  1  0  0  0  0
  5  1  1  0  0  0  0
  7 11  1  0  0  0  0
  7  4  2  0  0  0  0
  8  4  1  0  0  0  0
  9  7  1  0  0  0  0
 10  3  2  0  0  0  0
 10 11  1  0  0  0  0
 11  2  2  0  0  0  0
 13 16  1  0  0  0  0
 14 13  2  0  0  0  0
 15 12  2  0  0  0  0
 18 24  1  1  0  0  0
 18 17  1  0  0  0  0
 19 22  1  0  0  0  0
 19 21  1  0  0  0  0
 20 17  1  0  0  0  0
 21 16  1  6  0  0  0
 21 20  1  0  0  0  0
 22 18  1  0  0  0  0
 23 24  1  0  0  0  0
 25 26  1  0  0  0  0
 25  3  1  0  0  0  0
 27 30  1  6  0  0  0
 27 29  1  0  0  0  0
 27 26  1  0  0  0  0
 29 28  1  0  0  0  0
 31 33  1  0  0  0  0
 31 30  1  0  0  0  0
 32 34  1  0  0  0  0
 32 36  1  0  0  0  0
 34 35  1  6  0  0  0
 34 31  1  0  0  0  0
 36 33  1  0  0  0  0
 37 34  1  0  0  0  0
 38 37  1  0  0  0  0
 39 43  2  0  0  0  0
 40 42  1  0  0  0  0
 41 40  2  0  0  0  0
 41 39  1  0  0  0  0
 42 38  2  0  0  0  0
 43 38  1  0  0  0  0
M  END
>  <MODEL>
2

>  <REMARK>
 VINA RESULT:      -8.8      0.884      1.285
  Name = 
  11 active torsions:
  status: ('A' for Active; 'I' for Inactive)
    1  A    between atoms: O_1  and  C_34
    2  A    between atoms: O_1  and  C_35
    3  A    between atoms: C_2  and  C_6
    4  A    between atoms: C_2  and  C_13
    5  A    between atoms: C_3  and  N_4
    6  A    between atoms: C_3  and  C_12
    7  A    between atoms: C_6  and  C_12
    8  A    between atoms: C_11  and  C_14
    9  A    between atoms: C_12  and  C_17
   10  A    between atoms: C_14  and  C_22
   11  A    between atoms: C_19  and  C_37
                            x       y       z     vdW  Elec       q    Type
                         _______ _______ _______ _____ _____    ______ ____

>  <TORSDO>
F 11

$$$$
=
 OpenBabel11062410113D

 43 48  0  0  1  0  0  0  0  0999 V2000
  161.3180  203.3430  148.7620 C   0  0  1  0  0  3  0  0  0  0  0  0
  162.0320  208.3660  149.5160 C   0  0  0  0  0  0  0  0  0  0  0  0
  161.2840  208.7980  152.1570 C   0  0  0  0  0  0  0  0  0  0  0  0
  161.6990  205.8030  148.4110 C   0  0  0  0  0  0  0  0  0  0  0  0
  160.2850  203.7330  149.8080 C   0  0  0  0  0  2  0  0  0  0  0  0
  160.9070  202.1830  148.1080 O   0  0  0  0  0  1  0  0  0  0  0  0
  161.3070  206.0430  149.7490 C   0  0  0  0  0  0  0  0  0  0  0  0
  161.4650  204.4740  147.7490 C   0  0  0  0  0  2  0  0  0  0  0  0
  160.8060  204.9150  150.6210 C   0  0  0  0  0  2  0  0  0  0  0  0
  161.1350  207.5710  151.5960 N   0  0  0  0  0  0  0  0  0  0  0  0
  161.4850  207.3240  150.3030 C   0  0  0  0  0  0  0  0  0  0  0  0
  162.3970  208.1140  148.1890 C   0  0  0  0  0  3  0  0  0  0  0  0
  162.2090  209.6370  150.0820 C   0  0  0  0  0  0  0  0  0  0  0  0
  161.8260  209.8470  151.4140 C   0  0  0  0  0  3  0  0  0  0  0  0
  162.2250  206.8430  147.6410 C   0  0  0  0  0  3  0  0  0  0  0  0
  162.7700  210.6720  149.3110 O   0  0  0  0  0  0  0  0  0  0  0  0
  160.2020  212.3420  147.0920 C   0  0  0  0  0  2  0  0  0  0  0  0
  161.1580  213.2930  146.3770 C   0  0  2  0  0  3  0  0  0  0  0  0
  162.9680  212.7390  148.0160 C   0  0  0  0  0  2  0  0  0  0  0  0
  160.9790  211.1950  147.7300 C   0  0  0  0  0  2  0  0  0  0  0  0
  162.0350  211.7350  148.6990 C   0  0  1  0  0  3  0  0  0  0  0  0
  162.1610  213.8660  147.3780 C   0  0  0  0  0  2  0  0  0  0  0  0
  160.5030  214.3550  144.3430 O   0  0  0  0  0  1  0  0  0  0  0  0
  160.3640  214.4130  145.7300 C   0  0  0  0  0  2  0  0  0  0  0  0
  160.9110  209.0100  153.5830 C   0  0  0  0  0  2  0  0  0  0  0  0
  161.6000  210.2520  154.1180 C   0  0  0  0  0  2  0  0  0  0  0  0
  160.8320  210.8200  155.3040 C   0  0  2  0  0  3  0  0  0  0  0  0
  162.8760  210.4720  156.4870 O   0  0  0  0  0  1  0  0  0  0  0  0
  161.4880  210.4040  156.6110 C   0  0  0  0  0  2  0  0  0  0  0  0
  159.3610  210.4050  155.2810 C   0  0  0  0  0  2  0  0  0  0  0  0
  158.5000  211.4490  155.8440 N   0  0  0  0  0  0  0  0  0  0  0  0
  156.7260  213.3660  155.5430 S   0  0  0  0  0  0  0  0  0  0  0  0
  157.2910  210.8500  156.2290 N   0  0  0  0  0  2  0  0  0  0  0  0
  158.1670  212.4960  154.8660 C   0  0  1  0  0  0  0  0  0  0  0  0
  159.3290  213.4740  154.7660 C   0  0  0  0  0  1  0  0  0  0  0  0
  156.3990  211.9350  156.6110 C   0  0  0  0  0  2  0  0  0  0  0  0
  157.8100  211.9080  153.4790 C   0  0  0  0  0  2  0  0  0  0  0  0
  158.2780  212.7240  152.3120 C   0  0  0  0  0  0  0  0  0  0  0  0
  159.9810  213.2540  150.6710 C   0  0  0  0  0  3  0  0  0  0  0  0
  157.8720  214.4440  150.6510 C   0  0  0  0  0  3  0  0  0  0  0  0
  159.1450  214.2250  150.1130 C   0  0  0  0  0  3  0  0  0  0  0  0
  157.4400  213.6950  151.7500 C   0  0  0  0  0  3  0  0  0  0  0  0
  159.5480  212.5020  151.7670 C   0  0  0  0  0  3  0  0  0  0  0  0
  1  6  1  6  0  0  0
  1  5  1  0  0  0  0
  2 13  2  0  0  0  0
  2 11  1  0  0  0  0
  3 25  1  0  0  0  0
  4  7  2  0  0  0  0
  5  9  1  0  0  0  0
  7 11  1  0  0  0  0
  7  9  1  0  0  0  0
  8  4  1  0  0  0  0
  8  1  1  0  0  0  0
 10  3  1  0  0  0  0
 11 10  2  0  0  0  0
 12  2  1  0  0  0  0
 13 14  1  0  0  0  0
 14  3  2  0  0  0  0
 15 12  2  0  0  0  0
 15  4  1  0  0  0  0
 16 13  1  0  0  0  0
 17 20  1  0  0  0  0
 18 24  1  1  0  0  0
 18 17  1  0  0  0  0
 18 22  1  0  0  0  0
 19 21  1  0  0  0  0
 20 21  1  0  0  0  0
 21 16  1  6  0  0  0
 22 19  1  0  0  0  0
 23 24  1  0  0  0  0
 25 26  1  0  0  0  0
 27 26  1  6  0  0  0
 27 29  1  0  0  0  0
 28 29  1  0  0  0  0
 30 27  1  0  0  0  0
 30 31  1  0  0  0  0
 31 33  1  0  0  0  0
 32 36  1  0  0  0  0
 33 36  1  0  0  0  0
 34 35  1  6  0  0  0
 34 32  1  0  0  0  0
 34 31  1  0  0  0  0
 37 34  1  0  0  0  0
 38 37  1  0  0  0  0
 39 43  2  0  0  0  0
 40 42  1  0  0  0  0
 41 40  2  0  0  0  0
 41 39  1  0  0  0  0
 42 38  2  0  0  0  0
 43 38  1  0  0  0  0
M  END
>  <MODEL>
3

>  <REMARK>
 VINA RESULT:      -8.0      3.400      7.483
  Name = 
  11 active torsions:
  status: ('A' for Active; 'I' for Inactive)
    1  A    between atoms: O_1  and  C_34
    2  A    between atoms: O_1  and  C_35
    3  A    between atoms: C_2  and  C_6
    4  A    between atoms: C_2  and  C_13
    5  A    between atoms: C_3  and  N_4
    6  A    between atoms: C_3  and  C_12
    7  A    between atoms: C_6  and  C_12
    8  A    between atoms: C_11  and  C_14
    9  A    between atoms: C_12  and  C_17
   10  A    between atoms: C_14  and  C_22
   11  A    between atoms: C_19  and  C_37
                            x       y       z     vdW  Elec       q    Type
                         _______ _______ _______ _____ _____    ______ ____

>  <TORSDO>
F 11

$$$$
=
 OpenBabel11062410113D

 43 48  0  0  1  0  0  0  0  0999 V2000
  160.6180  202.1840  146.1760 C   0  0  1  0  0  3  0  0  0  0  0  0
  161.0800  205.5360  150.0300 C   0  0  0  0  0  0  0  0  0  0  0  0
  161.9150  207.8950  148.8200 C   0  0  0  0  0  0  0  0  0  0  0  0
  160.8120  203.2230  148.4570 C   0  0  0  0  0  0  0  0  0  0  0  0
  161.7150  203.1390  145.7350 C   0  0  0  0  0  2  0  0  0  0  0  0
  160.7490  200.9740  145.4970 O   0  0  0  0  0  1  0  0  0  0  0  0
  161.2520  204.4270  147.8590 C   0  0  0  0  0  0  0  0  0  0  0  0
  160.7320  201.9400  147.6780 C   0  0  0  0  0  2  0  0  0  0  0  0
  161.4830  204.5080  146.3680 C   0  0  0  0  0  2  0  0  0  0  0  0
  161.7760  206.7600  148.0860 N   0  0  0  0  0  0  0  0  0  0  0  0
  161.3750  205.5860  148.6460 C   0  0  0  0  0  0  0  0  0  0  0  0
  160.6630  204.3320  150.6070 C   0  0  0  0  0  3  0  0  0  0  0  0
  161.2020  206.7010  150.8030 C   0  0  0  0  0  0  0  0  0  0  0  0
  161.6270  207.8850  150.1850 C   0  0  0  0  0  3  0  0  0  0  0  0
  160.5360  203.1840  149.8260 C   0  0  0  0  0  3  0  0  0  0  0  0
  160.8920  206.6630  152.1750 O   0  0  0  0  0  0  0  0  0  0  0  0
  161.5060  208.2180  155.5680 C   0  0  0  0  0  2  0  0  0  0  0  0
  160.6760  209.4810  155.3510 C   0  0  2  0  0  3  0  0  0  0  0  0
  160.4860  208.9620  152.9090 C   0  0  0  0  0  2  0  0  0  0  0  0
  161.1010  207.1440  154.5640 C   0  0  0  0  0  2  0  0  0  0  0  0
  161.2620  207.6610  153.1310 C   0  0  1  0  0  3  0  0  0  0  0  0
  160.9030  210.0110  153.9360 C   0  0  0  0  0  2  0  0  0  0  0  0
  162.2940  210.1790  156.9610 O   0  0  0  0  0  1  0  0  0  0  0  0
  161.0770  210.5290  156.3740 C   0  0  0  0  0  2  0  0  0  0  0  0
  162.3300  209.1600  148.1540 C   0  0  0  0  0  2  0  0  0  0  0  0
  161.7470  210.3490  148.8970 C   0  0  0  0  0  2  0  0  0  0  0  0
  161.7990  211.5990  148.0280 C   0  0  2  0  0  3  0  0  0  0  0  0
  162.3100  213.9160  148.2940 O   0  0  0  0  0  1  0  0  0  0  0  0
  162.7330  212.6320  148.6380 C   0  0  0  0  0  2  0  0  0  0  0  0
  160.4090  212.1940  147.8020 C   0  0  0  0  0  2  0  0  0  0  0  0
  160.0870  212.2740  146.3740 N   0  0  0  0  0  0  0  0  0  0  0  0
  158.9380  213.4950  144.3480 S   0  0  0  0  0  0  0  0  0  0  0  0
  161.1500  212.9250  145.7290 N   0  0  0  0  0  2  0  0  0  0  0  0
  158.8760  213.0660  146.1100 C   0  0  1  0  0  0  0  0  0  0  0  0
  157.6500  212.2010  146.3630 C   0  0  0  0  0  1  0  0  0  0  0  0
  160.7210  213.1500  144.3560 C   0  0  0  0  0  2  0  0  0  0  0  0
  158.8300  214.3630  146.9560 C   0  0  0  0  0  2  0  0  0  0  0  0
  157.9390  214.2960  148.1590 C   0  0  0  0  0  0  0  0  0  0  0  0
  157.6620  214.0500  150.5550 C   0  0  0  0  0  3  0  0  0  0  0  0
  155.7250  214.4040  149.1440 C   0  0  0  0  0  3  0  0  0  0  0  0
  156.2800  214.2010  150.4130 C   0  0  0  0  0  3  0  0  0  0  0  0
  156.5540  214.4500  148.0190 C   0  0  0  0  0  3  0  0  0  0  0  0
  158.4910  214.1010  149.4300 C   0  0  0  0  0  3  0  0  0  0  0  0
  1  6  1  6  0  0  0
  1  8  1  0  0  0  0
  2 12  1  0  0  0  0
  2 13  1  0  0  0  0
  3 14  1  0  0  0  0
  4 15  1  0  0  0  0
  5  1  1  0  0  0  0
  5  9  1  0  0  0  0
  7  4  2  0  0  0  0
  7 11  1  0  0  0  0
  8  4  1  0  0  0  0
  9  7  1  0  0  0  0
 10 11  1  0  0  0  0
 10  3  2  0  0  0  0
 11  2  2  0  0  0  0
 13 16  1  0  0  0  0
 14 13  2  0  0  0  0
 15 12  2  0  0  0  0
 18 17  1  0  0  0  0
 18 24  1  1  0  0  0
 19 21  1  0  0  0  0
 19 22  1  0  0  0  0
 20 17  1  0  0  0  0
 21 16  1  6  0  0  0
 21 20  1  0  0  0  0
 22 18  1  0  0  0  0
 24 23  1  0  0  0  0
 25  3  1  0  0  0  0
 25 26  1  0  0  0  0
 27 30  1  1  0  0  0
 27 29  1  0  0  0  0
 27 26  1  0  0  0  0
 28 29  1  0  0  0  0
 31 30  1  0  0  0  0
 32 36  1  0  0  0  0
 32 34  1  0  0  0  0
 33 31  1  0  0  0  0
 34 35  1  1  0  0  0
 34 31  1  0  0  0  0
 34 37  1  0  0  0  0
 36 33  1  0  0  0  0
 37 38  1  0  0  0  0
 38 43  1  0  0  0  0
 40 41  2  0  0  0  0
 41 39  1  0  0  0  0
 42 38  2  0  0  0  0
 42 40  1  0  0  0  0
 43 39  2  0  0  0  0
M  END
>  <MODEL>
4

>  <REMARK>
 VINA RESULT:      -7.8      2.298      4.486
  Name = 
  11 active torsions:
  status: ('A' for Active; 'I' for Inactive)
    1  A    between atoms: O_1  and  C_34
    2  A    between atoms: O_1  and  C_35
    3  A    between atoms: C_2  and  C_6
    4  A    between atoms: C_2  and  C_13
    5  A    between atoms: C_3  and  N_4
    6  A    between atoms: C_3  and  C_12
    7  A    between atoms: C_6  and  C_12
    8  A    between atoms: C_11  and  C_14
    9  A    between atoms: C_12  and  C_17
   10  A    between atoms: C_14  and  C_22
   11  A    between atoms: C_19  and  C_37
                            x       y       z     vdW  Elec       q    Type
                         _______ _______ _______ _____ _____    ______ ____

>  <TORSDO>
F 11

$$$$
=
 OpenBabel11062410113D

 43 48  0  0  1  0  0  0  0  0999 V2000
  160.7360  202.6580  146.7860 C   0  0  1  0  0  3  0  0  0  0  0  0
  161.5130  206.1800  150.4320 C   0  0  0  0  0  0  0  0  0  0  0  0
  161.7530  208.5820  149.0550 C   0  0  0  0  0  0  0  0  0  0  0  0
  161.2470  203.7950  148.9680 C   0  0  0  0  0  0  0  0  0  0  0  0
  161.5790  203.7320  146.1190 C   0  0  0  0  0  2  0  0  0  0  0  0
  160.8900  201.4510  146.1050 O   0  0  0  0  0  1  0  0  0  0  0  0
  161.3880  205.0240  148.2820 C   0  0  0  0  0  0  0  0  0  0  0  0
  161.1860  202.4860  148.2330 C   0  0  0  0  0  2  0  0  0  0  0  0
  161.2960  205.0810  146.7750 C   0  0  0  0  0  2  0  0  0  0  0  0
  161.6230  207.4130  148.3760 N   0  0  0  0  0  0  0  0  0  0  0  0
  161.5090  206.2170  149.0170 C   0  0  0  0  0  0  0  0  0  0  0  0
  161.3910  204.9530  151.0930 C   0  0  0  0  0  3  0  0  0  0  0  0
  161.6290  207.3770  151.1530 C   0  0  0  0  0  0  0  0  0  0  0  0
  161.7530  208.5840  150.4510 C   0  0  0  0  0  3  0  0  0  0  0  0
  161.2650  203.7700  150.3650 C   0  0  0  0  0  3  0  0  0  0  0  0
  161.6140  207.3490  152.5600 O   0  0  0  0  0  0  0  0  0  0  0  0
  160.4000  210.4750  154.3110 C   0  0  0  0  0  2  0  0  0  0  0  0
  160.3340  209.8900  155.7190 C   0  0  2  0  0  3  0  0  0  0  0  0
  160.6560  207.5830  154.8000 C   0  0  0  0  0  2  0  0  0  0  0  0
  161.2950  209.6150  153.4250 C   0  0  0  0  0  2  0  0  0  0  0  0
  160.7880  208.1700  153.3910 C   0  0  1  0  0  3  0  0  0  0  0  0
  159.7660  208.4720  155.6630 C   0  0  0  0  0  2  0  0  0  0  0  0
  158.1980  210.9140  156.0070 O   0  0  0  0  0  1  0  0  0  0  0  0
  159.4580  210.7720  156.5900 C   0  0  0  0  0  2  0  0  0  0  0  0
  161.8470  209.8660  148.3080 C   0  0  0  0  0  2  0  0  0  0  0  0
  162.0720  211.0120  149.2770 C   0  0  0  0  0  2  0  0  0  0  0  0
  161.8770  212.3510  148.5760 C   0  0  2  0  0  3  0  0  0  0  0  0
  160.2940  213.9770  149.3150 O   0  0  0  0  0  1  0  0  0  0  0  0
  161.5510  213.4380  149.5880 C   0  0  0  0  0  2  0  0  0  0  0  0
  160.7980  212.2750  147.4960 C   0  0  0  0  0  2  0  0  0  0  0  0
  161.3770  212.3670  146.1530 N   0  0  0  0  0  0  0  0  0  0  0  0
  161.5780  213.5630  143.8190 S   0  0  0  0  0  0  0  0  0  0  0  0
  162.5760  213.0920  146.2500 N   0  0  0  0  0  2  0  0  0  0  0  0
  160.5120  213.0930  145.2110 C   0  0  1  0  0  0  0  0  0  0  0  0
  159.4270  212.1540  144.7050 C   0  0  0  0  0  1  0  0  0  0  0  0
  163.0280  213.3210  144.8850 C   0  0  0  0  0  2  0  0  0  0  0  0
  159.8990  214.3670  145.8440 C   0  0  0  0  0  2  0  0  0  0  0  0
  158.4010  214.4020  145.8560 C   0  0  0  0  0  0  0  0  0  0  0  0
  156.2930  214.4320  144.6590 C   0  0  0  0  0  3  0  0  0  0  0  0
  156.3080  214.4210  147.0810 C   0  0  0  0  0  3  0  0  0  0  0  0
  155.6010  214.4370  145.8740 C   0  0  0  0  0  3  0  0  0  0  0  0
  157.7060  214.4050  147.0720 C   0  0  0  0  0  3  0  0  0  0  0  0
  157.6910  214.4110  144.6500 C   0  0  0  0  0  3  0  0  0  0  0  0
  1  6  1  6  0  0  0
  1  8  1  0  0  0  0
  2 12  1  0  0  0  0
  2 13  1  0  0  0  0
  3 14  1  0  0  0  0
  4 15  1  0  0  0  0
  5  9  1  0  0  0  0
  5  1  1  0  0  0  0
  7  4  2  0  0  0  0
  7 11  1  0  0  0  0
  8  4  1  0  0  0  0
  9  7  1  0  0  0  0
 10 11  1  0  0  0  0
 10  3  2  0  0  0  0
 11  2  2  0  0  0  0
 13 16  1  0  0  0  0
 14 13  2  0  0  0  0
 15 12  2  0  0  0  0
 17 18  1  0  0  0  0
 18 24  1  1  0  0  0
 19 22  1  0  0  0  0
 20 17  1  0  0  0  0
 21 16  1  6  0  0  0
 21 20  1  0  0  0  0
 21 19  1  0  0  0  0
 22 18  1  0  0  0  0
 23 24  1  0  0  0  0
 25  3  1  0  0  0  0
 25 26  1  0  0  0  0
 27 30  1  6  0  0  0
 27 26  1  0  0  0  0
 27 29  1  0  0  0  0
 28 29  1  0  0  0  0
 31 33  1  0  0  0  0
 31 30  1  0  0  0  0
 32 36  1  0  0  0  0
 32 34  1  0  0  0  0
 34 35  1  6  0  0  0
 34 37  1  0  0  0  0
 34 31  1  0  0  0  0
 36 33  1  0  0  0  0
 37 38  1  0  0  0  0
 38 42  1  0  0  0  0
 39 41  2  0  0  0  0
 41 40  1  0  0  0  0
 42 40  2  0  0  0  0
 43 39  1  0  0  0  0
 43 38  2  0  0  0  0
M  END
>  <MODEL>
5

>  <REMARK>
 VINA RESULT:      -7.6      2.036      3.441
  Name = 
  11 active torsions:
  status: ('A' for Active; 'I' for Inactive)
    1  A    between atoms: O_1  and  C_34
    2  A    between atoms: O_1  and  C_35
    3  A    between atoms: C_2  and  C_6
    4  A    between atoms: C_2  and  C_13
    5  A    between atoms: C_3  and  N_4
    6  A    between atoms: C_3  and  C_12
    7  A    between atoms: C_6  and  C_12
    8  A    between atoms: C_11  and  C_14
    9  A    between atoms: C_12  and  C_17
   10  A    between atoms: C_14  and  C_22
   11  A    between atoms: C_19  and  C_37
                            x       y       z     vdW  Elec       q    Type
                         _______ _______ _______ _____ _____    ______ ____

>  <TORSDO>
F 11

$$$$
=
 OpenBabel11062410113D

 43 48  0  0  1  0  0  0  0  0999 V2000
  161.2430  201.9930  146.7900 C   0  0  1  0  0  3  0  0  0  0  0  0
  161.7920  206.6460  148.8740 C   0  0  0  0  0  0  0  0  0  0  0  0
  161.2700  206.2770  151.5790 C   0  0  0  0  0  0  0  0  0  0  0  0
  161.4780  204.4740  147.1200 C   0  0  0  0  0  0  0  0  0  0  0  0
  160.2930  202.0040  147.9770 C   0  0  0  0  0  2  0  0  0  0  0  0
  160.8280  201.0340  145.8670 O   0  0  0  0  0  1  0  0  0  0  0  0
  161.1990  204.3050  148.4960 C   0  0  0  0  0  0  0  0  0  0  0  0
  161.2450  203.3680  146.1290 C   0  0  0  0  0  2  0  0  0  0  0  0
  160.8310  202.9480  149.0490 C   0  0  0  0  0  2  0  0  0  0  0  0
  161.1260  205.2450  150.7060 N   0  0  0  0  0  0  0  0  0  0  0  0
  161.3680  205.3920  149.3740 C   0  0  0  0  0  0  0  0  0  0  0  0
  162.0460  206.7980  147.5070 C   0  0  0  0  0  3  0  0  0  0  0  0
  161.9620  207.7200  149.7610 C   0  0  0  0  0  0  0  0  0  0  0  0
  161.6930  207.5260  151.1230 C   0  0  0  0  0  3  0  0  0  0  0  0
  161.8840  205.7200  146.6370 C   0  0  0  0  0  3  0  0  0  0  0  0
  162.4030  208.9650  149.2740 O   0  0  0  0  0  0  0  0  0  0  0  0
  161.0510  212.1620  147.7720 C   0  0  0  0  0  2  0  0  0  0  0  0
  161.2220  213.0400  149.0090 C   0  0  2  0  0  3  0  0  0  0  0  0
  161.6990  211.0170  150.4060 C   0  0  0  0  0  2  0  0  0  0  0  0
  161.9280  210.9200  147.8830 C   0  0  0  0  0  2  0  0  0  0  0  0
  161.5920  210.1370  149.1570 C   0  0  1  0  0  3  0  0  0  0  0  0
  160.8210  212.2560  150.2580 C   0  0  0  0  0  2  0  0  0  0  0  0
  159.1000  213.9320  148.3810 O   0  0  0  0  0  1  0  0  0  0  0  0
  160.3590  214.2810  148.8690 C   0  0  0  0  0  2  0  0  0  0  0  0
  161.0190  206.0580  153.0300 C   0  0  0  0  0  2  0  0  0  0  0  0
  161.9510  206.9300  153.8510 C   0  0  0  0  0  2  0  0  0  0  0  0
  161.1720  207.6830  154.9230 C   0  0  2  0  0  3  0  0  0  0  0  0
  159.9750  206.9770  156.8640 O   0  0  0  0  0  1  0  0  0  0  0  0
  160.0590  206.8100  155.4820 C   0  0  0  0  0  2  0  0  0  0  0  0
  160.6110  209.0040  154.3970 C   0  0  0  0  0  2  0  0  0  0  0  0
  161.1610  210.1480  155.1300 N   0  0  0  0  0  0  0  0  0  0  0  0
  160.8450  212.2130  156.7280 S   0  0  0  0  0  0  0  0  0  0  0  0
  161.6190  209.6830  156.3730 N   0  0  0  0  0  2  0  0  0  0  0  0
  160.1520  211.1820  155.4050 C   0  0  1  0  0  0  0  0  0  0  0  0
  159.9640  212.0390  154.1620 C   0  0  0  0  0  1  0  0  0  0  0  0
  161.9870  210.8630  157.1420 C   0  0  0  0  0  2  0  0  0  0  0  0
  158.8060  210.5750  155.8750 C   0  0  0  0  0  2  0  0  0  0  0  0
  157.6470  211.5250  155.8500 C   0  0  0  0  0  0  0  0  0  0  0  0
  156.1040  212.9840  157.0190 C   0  0  0  0  0  3  0  0  0  0  0  0
  155.9750  212.7700  154.6100 C   0  0  0  0  0  3  0  0  0  0  0  0
  155.5020  213.3240  155.8040 C   0  0  0  0  0  3  0  0  0  0  0  0
  157.0460  211.8700  154.6340 C   0  0  0  0  0  3  0  0  0  0  0  0
  157.1770  212.0880  157.0420 C   0  0  0  0  0  3  0  0  0  0  0  0
  1  6  1  6  0  0  0
  1  5  1  0  0  0  0
  2 11  1  0  0  0  0
  2 13  1  0  0  0  0
  3 25  1  0  0  0  0
  4  7  1  0  0  0  0
  5  9  1  0  0  0  0
  7  9  1  0  0  0  0
  7 11  2  0  0  0  0
  8  1  1  0  0  0  0
  8  4  1  0  0  0  0
 10  3  2  0  0  0  0
 11 10  1  0  0  0  0
 12  2  2  0  0  0  0
 13 14  2  0  0  0  0
 14  3  1  0  0  0  0
 15  4  2  0  0  0  0
 15 12  1  0  0  0  0
 16 13  1  0  0  0  0
 17 20  1  0  0  0  0
 17 18  1  0  0  0  0
 18 24  1  6  0  0  0
 18 22  1  0  0  0  0
 20 21  1  0  0  0  0
 21 16  1  1  0  0  0
 21 19  1  0  0  0  0
 22 19  1  0  0  0  0
 23 24  1  0  0  0  0
 25 26  1  0  0  0  0
 27 26  1  6  0  0  0
 27 29  1  0  0  0  0
 29 28  1  0  0  0  0
 30 27  1  0  0  0  0
 30 31  1  0  0  0  0
 31 34  1  0  0  0  0
 31 33  1  0  0  0  0
 32 36  1  0  0  0  0
 33 36  1  0  0  0  0
 34 35  1  6  0  0  0
 34 37  1  0  0  0  0
 34 32  1  0  0  0  0
 38 37  1  0  0  0  0
 38 43  1  0  0  0  0
 39 43  2  0  0  0  0
 40 42  1  0  0  0  0
 40 41  2  0  0  0  0
 41 39  1  0  0  0  0
 42 38  2  0  0  0  0
M  END
>  <MODEL>
6

>  <REMARK>
 VINA RESULT:      -7.6      4.099      8.663
  Name = 
  11 active torsions:
  status: ('A' for Active; 'I' for Inactive)
    1  A    between atoms: O_1  and  C_34
    2  A    between atoms: O_1  and  C_35
    3  A    between atoms: C_2  and  C_6
    4  A    between atoms: C_2  and  C_13
    5  A    between atoms: C_3  and  N_4
    6  A    between atoms: C_3  and  C_12
    7  A    between atoms: C_6  and  C_12
    8  A    between atoms: C_11  and  C_14
    9  A    between atoms: C_12  and  C_17
   10  A    between atoms: C_14  and  C_22
   11  A    between atoms: C_19  and  C_37
                            x       y       z     vdW  Elec       q    Type
                         _______ _______ _______ _____ _____    ______ ____

>  <TORSDO>
F 11

$$$$
=
 OpenBabel11062410113D

 43 48  0  0  1  0  0  0  0  0999 V2000
  160.3320  207.3610  155.2640 C   0  0  1  0  0  3  0  0  0  0  0  0
  161.6500  209.7380  150.9150 C   0  0  0  0  0  0  0  0  0  0  0  0
  162.3300  207.6880  149.1660 C   0  0  0  0  0  0  0  0  0  0  0  0
  160.9970  209.0980  153.5720 C   0  0  0  0  0  0  0  0  0  0  0  0
  161.3610  206.4490  154.6160 C   0  0  0  0  0  2  0  0  0  0  0  0
  160.2840  207.1140  156.6350 O   0  0  0  0  0  1  0  0  0  0  0  0
  161.3620  208.0660  152.6750 C   0  0  0  0  0  0  0  0  0  0  0  0
  160.7200  208.8170  155.0220 C   0  0  0  0  0  2  0  0  0  0  0  0
  161.3070  206.6180  153.1000 C   0  0  0  0  0  2  0  0  0  0  0  0
  162.0090  207.4100  150.4560 N   0  0  0  0  0  0  0  0  0  0  0  0
  161.6780  208.3890  151.3430 C   0  0  0  0  0  0  0  0  0  0  0  0
  161.3050  210.7460  151.8220 C   0  0  0  0  0  3  0  0  0  0  0  0
  161.9630  210.0460  149.5820 C   0  0  0  0  0  0  0  0  0  0  0  0
  162.3070  209.0060  148.7080 C   0  0  0  0  0  3  0  0  0  0  0  0
  160.9870  210.4260  153.1420 C   0  0  0  0  0  3  0  0  0  0  0  0
  161.9190  211.3830  149.1460 O   0  0  0  0  0  0  0  0  0  0  0  0
  162.6840  213.3930  146.0350 C   0  0  0  0  0  2  0  0  0  0  0  0
  161.2450  213.7770  145.6980 C   0  0  2  0  0  3  0  0  0  0  0  0
  160.3900  212.1440  147.3930 C   0  0  0  0  0  2  0  0  0  0  0  0
  162.7860  212.9650  147.4950 C   0  0  0  0  0  2  0  0  0  0  0  0
  161.8310  211.8020  147.7810 C   0  0  1  0  0  3  0  0  0  0  0  0
  160.3230  212.5810  145.9320 C   0  0  0  0  0  2  0  0  0  0  0  0
  161.5080  213.1620  143.4070 O   0  0  0  0  0  1  0  0  0  0  0  0
  161.1690  214.2220  144.2490 C   0  0  0  0  0  2  0  0  0  0  0  0
  162.6590  206.5790  148.2300 C   0  0  0  0  0  2  0  0  0  0  0  0
  161.6780  206.5720  147.0720 C   0  0  0  0  0  2  0  0  0  0  0  0
  161.7950  205.2770  146.2790 C   0  0  2  0  0  3  0  0  0  0  0  0
  160.5210  206.0930  144.4330 O   0  0  0  0  0  1  0  0  0  0  0  0
  161.7610  205.5620  144.7860 C   0  0  0  0  0  2  0  0  0  0  0  0
  160.7070  204.2740  146.6630 C   0  0  0  0  0  2  0  0  0  0  0  0
  160.9670  202.9540  146.0820 N   0  0  0  0  0  0  0  0  0  0  0  0
  160.8520  200.3290  146.2110 S   0  0  0  0  0  0  0  0  0  0  0  0
  159.8810  202.6250  145.2560 N   0  0  0  0  0  2  0  0  0  0  0  0
  161.0660  201.8970  147.1000 C   0  0  1  0  0  0  0  0  0  0  0  0
  162.4570  201.9260  147.7160 C   0  0  0  0  0  1  0  0  0  0  0  0
  160.0820  201.2430  144.8430 C   0  0  0  0  0  2  0  0  0  0  0  0
  159.9700  202.0270  148.1860 C   0  0  0  0  0  2  0  0  0  0  0  0
  160.4710  202.4430  149.5360 C   0  0  0  0  0  0  0  0  0  0  0  0
  160.9240  204.1830  151.1620 C   0  0  0  0  0  3  0  0  0  0  0  0
  161.3750  201.8670  151.7130 C   0  0  0  0  0  3  0  0  0  0  0  0
  161.3780  203.2200  152.0690 C   0  0  0  0  0  3  0  0  0  0  0  0
  160.9230  201.4800  150.4470 C   0  0  0  0  0  3  0  0  0  0  0  0
  160.4680  203.7950  149.8990 C   0  0  0  0  0  3  0  0  0  0  0  0
  1  6  1  1  0  0  0
  2 11  1  0  0  0  0
  2 12  1  0  0  0  0
  3 10  1  0  0  0  0
  4  8  1  0  0  0  0
  5  1  1  0  0  0  0
  7  9  1  0  0  0  0
  7  4  2  0  0  0  0
  8  1  1  0  0  0  0
  9  5  1  0  0  0  0
 10 11  2  0  0  0  0
 11  7  1  0  0  0  0
 12 15  2  0  0  0  0
 13  2  2  0  0  0  0
 14  3  2  0  0  0  0
 14 13  1  0  0  0  0
 15  4  1  0  0  0  0
 16 13  1  0  0  0  0
 17 20  1  0  0  0  0
 18 24  1  6  0  0  0
 18 22  1  0  0  0  0
 18 17  1  0  0  0  0
 19 21  1  0  0  0  0
 20 21  1  0  0  0  0
 21 16  1  1  0  0  0
 22 19  1  0  0  0  0
 23 24  1  0  0  0  0
 25  3  1  0  0  0  0
 26 25  1  0  0  0  0
 27 29  1  6  0  0  0
 27 30  1  0  0  0  0
 27 26  1  0  0  0  0
 28 29  1  0  0  0  0
 31 30  1  0  0  0  0
 31 34  1  0  0  0  0
 32 34  1  0  0  0  0
 33 31  1  0  0  0  0
 34 35  1  1  0  0  0
 34 37  1  0  0  0  0
 36 33  1  0  0  0  0
 36 32  1  0  0  0  0
 37 38  1  0  0  0  0
 38 43  2  0  0  0  0
 38 42  1  0  0  0  0
 39 41  2  0  0  0  0
 40 41  1  0  0  0  0
 42 40  2  0  0  0  0
 43 39  1  0  0  0  0
M  END
>  <MODEL>
7

>  <REMARK>
 VINA RESULT:      -7.1      3.686      9.078
  Name = 
  11 active torsions:
  status: ('A' for Active; 'I' for Inactive)
    1  A    between atoms: O_1  and  C_34
    2  A    between atoms: O_1  and  C_35
    3  A    between atoms: C_2  and  C_6
    4  A    between atoms: C_2  and  C_13
    5  A    between atoms: C_3  and  N_4
    6  A    between atoms: C_3  and  C_12
    7  A    between atoms: C_6  and  C_12
    8  A    between atoms: C_11  and  C_14
    9  A    between atoms: C_12  and  C_17
   10  A    between atoms: C_14  and  C_22
   11  A    between atoms: C_19  and  C_37
                            x       y       z     vdW  Elec       q    Type
                         _______ _______ _______ _____ _____    ______ ____

>  <TORSDO>
F 11

$$$$
=
 OpenBabel11062410113D

 43 48  0  0  1  0  0  0  0  0999 V2000
  160.0780  207.4640  155.2800 C   0  0  1  0  0  3  0  0  0  0  0  0
  161.2730  210.4750  151.3040 C   0  0  0  0  0  0  0  0  0  0  0  0
  162.0240  208.7190  149.2860 C   0  0  0  0  0  0  0  0  0  0  0  0
  160.6620  209.4450  153.8460 C   0  0  0  0  0  0  0  0  0  0  0  0
  161.1400  206.6950  154.5110 C   0  0  0  0  0  2  0  0  0  0  0  0
  160.0490  207.0270  156.6030 O   0  0  0  0  0  1  0  0  0  0  0  0
  161.0630  208.5650  152.8140 C   0  0  0  0  0  0  0  0  0  0  0  0
  160.4060  208.9540  155.2430 C   0  0  0  0  0  2  0  0  0  0  0  0
  161.0700  207.0700  153.0330 C   0  0  0  0  0  2  0  0  0  0  0  0
  161.7240  208.2500  150.5260 N   0  0  0  0  0  0  0  0  0  0  0  0
  161.3570  209.0820  151.5400 C   0  0  0  0  0  0  0  0  0  0  0  0
  160.8920  211.3320  152.3430 C   0  0  0  0  0  3  0  0  0  0  0  0
  161.5640  210.9780  150.0270 C   0  0  0  0  0  0  0  0  0  0  0  0
  161.9450  210.0850  149.0160 C   0  0  0  0  0  3  0  0  0  0  0  0
  160.5950  210.8190  153.6050 C   0  0  0  0  0  3  0  0  0  0  0  0
  161.4630  212.3600  149.7810 O   0  0  0  0  0  0  0  0  0  0  0  0
  160.2840  213.2260  146.2930 C   0  0  0  0  0  2  0  0  0  0  0  0
  161.5730  212.8620  145.5610 C   0  0  2  0  0  3  0  0  0  0  0  0
  162.7830  212.6690  147.7440 C   0  0  0  0  0  2  0  0  0  0  0  0
  160.2520  212.5620  147.6650 C   0  0  0  0  0  2  0  0  0  0  0  0
  161.4790  212.9700  148.4880 C   0  0  1  0  0  3  0  0  0  0  0  0
  162.7780  213.3350  146.3720 C   0  0  0  0  0  2  0  0  0  0  0  0
  162.4710  212.8500  143.3500 O   0  0  0  0  0  1  0  0  0  0  0  0
  161.5740  213.5130  144.1900 C   0  0  0  0  0  2  0  0  0  0  0  0
  162.3930  207.7650  148.2050 C   0  0  0  0  0  2  0  0  0  0  0  0
  161.2480  206.8000  147.9550 C   0  0  0  0  0  2  0  0  0  0  0  0
  161.7560  205.3640  147.9250 C   0  0  2  0  0  3  0  0  0  0  0  0
  161.8360  205.5660  145.5480 O   0  0  0  0  0  1  0  0  0  0  0  0
  162.5510  205.1080  146.6540 C   0  0  0  0  0  2  0  0  0  0  0  0
  160.6160  204.3550  148.0620 C   0  0  0  0  0  2  0  0  0  0  0  0
  160.5100  203.8500  149.4340 N   0  0  0  0  0  0  0  0  0  0  0  0
  161.0040  202.0060  151.2430 S   0  0  0  0  0  0  0  0  0  0  0  0
  161.5780  204.3830  150.1730 N   0  0  0  0  0  2  0  0  0  0  0  0
  160.6260  202.3860  149.5090 C   0  0  1  0  0  0  0  0  0  0  0  0
  159.2860  201.7600  149.1500 C   0  0  0  0  0  1  0  0  0  0  0  0
  161.5490  203.7240  151.4700 C   0  0  0  0  0  2  0  0  0  0  0  0
  161.7580  201.8420  148.6030 C   0  0  0  0  0  2  0  0  0  0  0  0
  161.2890  201.1640  147.3520 C   0  0  0  0  0  0  0  0  0  0  0  0
  160.1310  201.2540  145.2240 C   0  0  0  0  0  3  0  0  0  0  0  0
  161.1730  199.1900  145.9460 C   0  0  0  0  0  3  0  0  0  0  0  0
  160.4370  199.9090  144.9980 C   0  0  0  0  0  3  0  0  0  0  0  0
  161.5970  199.8170  147.1220 C   0  0  0  0  0  3  0  0  0  0  0  0
  160.5590  201.8820  146.3970 C   0  0  0  0  0  3  0  0  0  0  0  0
  1  6  1  1  0  0  0
  2 11  1  0  0  0  0
  2 12  1  0  0  0  0
  3 10  1  0  0  0  0
  4  8  1  0  0  0  0
  5  1  1  0  0  0  0
  7  9  1  0  0  0  0
  7  4  2  0  0  0  0
  8  1  1  0  0  0  0
  9  5  1  0  0  0  0
 10 11  2  0  0  0  0
 11  7  1  0  0  0  0
 12 15  2  0  0  0  0
 13  2  2  0  0  0  0
 14  3  2  0  0  0  0
 14 13  1  0  0  0  0
 15  4  1  0  0  0  0
 16 13  1  0  0  0  0
 17 20  1  0  0  0  0
 18 24  1  6  0  0  0
 18 17  1  0  0  0  0
 18 22  1  0  0  0  0
 19 21  1  0  0  0  0
 20 21  1  0  0  0  0
 21 16  1  1  0  0  0
 22 19  1  0  0  0  0
 23 24  1  0  0  0  0
 25  3  1  0  0  0  0
 26 25  1  0  0  0  0
 27 29  1  6  0  0  0
 27 26  1  0  0  0  0
 27 30  1  0  0  0  0
 28 29  1  0  0  0  0
 30 31  1  0  0  0  0
 31 34  1  0  0  0  0
 31 33  1  0  0  0  0
 32 36  1  0  0  0  0
 33 36  1  0  0  0  0
 34 35  1  6  0  0  0
 34 32  1  0  0  0  0
 37 34  1  0  0  0  0
 38 37  1  0  0  0  0
 39 43  1  0  0  0  0
 40 42  2  0  0  0  0
 41 39  2  0  0  0  0
 41 40  1  0  0  0  0
 42 38  1  0  0  0  0
 43 38  2  0  0  0  0
M  END
>  <MODEL>
8

>  <REMARK>
 VINA RESULT:      -7.1      3.519      8.921
  Name = 
  11 active torsions:
  status: ('A' for Active; 'I' for Inactive)
    1  A    between atoms: O_1  and  C_34
    2  A    between atoms: O_1  and  C_35
    3  A    between atoms: C_2  and  C_6
    4  A    between atoms: C_2  and  C_13
    5  A    between atoms: C_3  and  N_4
    6  A    between atoms: C_3  and  C_12
    7  A    between atoms: C_6  and  C_12
    8  A    between atoms: C_11  and  C_14
    9  A    between atoms: C_12  and  C_17
   10  A    between atoms: C_14  and  C_22
   11  A    between atoms: C_19  and  C_37
                            x       y       z     vdW  Elec       q    Type
                         _______ _______ _______ _____ _____    ______ ____

>  <TORSDO>
F 11

$$$$
=
 OpenBabel11062410113D

 43 48  0  0  1  0  0  0  0  0999 V2000
  157.1720  212.0250  155.2530 C   0  0  1  0  0  3  0  0  0  0  0  0
  160.0470  212.9870  151.1170 C   0  0  0  0  0  0  0  0  0  0  0  0
  161.4420  210.6270  150.6610 C   0  0  0  0  0  0  0  0  0  0  0  0
  158.4020  213.1760  153.3880 C   0  0  0  0  0  0  0  0  0  0  0  0
  158.4050  211.1520  155.4230 C   0  0  0  0  0  2  0  0  0  0  0  0
  156.5850  212.2530  156.4970 O   0  0  0  0  0  1  0  0  0  0  0  0
  159.1320  211.9870  153.1510 C   0  0  0  0  0  0  0  0  0  0  0  0
  157.5750  213.3570  154.6290 C   0  0  0  0  0  2  0  0  0  0  0  0
  158.9600  210.7840  154.0490 C   0  0  0  0  0  2  0  0  0  0  0  0
  160.6400  210.7480  151.7500 N   0  0  0  0  0  0  0  0  0  0  0  0
  159.9460  211.8910  152.0080 C   0  0  0  0  0  0  0  0  0  0  0  0
  159.3320  214.1610  151.3780 C   0  0  0  0  0  3  0  0  0  0  0  0
  160.8590  212.8760  149.9780 C   0  0  0  0  0  0  0  0  0  0  0  0
  161.5610  211.6830  149.7570 C   0  0  0  0  0  3  0  0  0  0  0  0
  158.5210  214.2540  152.5080 C   0  0  0  0  0  3  0  0  0  0  0  0
  160.9490  213.9540  149.0780 O   0  0  0  0  0  0  0  0  0  0  0  0
  158.8690  212.9450  146.0840 C   0  0  0  0  0  2  0  0  0  0  0  0
  160.0290  212.5990  145.1540 C   0  0  2  0  0  3  0  0  0  0  0  0
  161.6490  213.6420  146.7540 C   0  0  0  0  0  2  0  0  0  0  0  0
  159.3390  212.9490  147.5350 C   0  0  0  0  0  2  0  0  0  0  0  0
  160.4980  213.9340  147.7210 C   0  0  1  0  0  3  0  0  0  0  0  0
  161.1440  213.6320  145.3140 C   0  0  0  0  0  2  0  0  0  0  0  0
  159.5330  213.8730  143.1980 O   0  0  0  0  0  1  0  0  0  0  0  0
  159.5360  212.5780  143.7190 C   0  0  0  0  0  2  0  0  0  0  0  0
  162.1580  209.3460  150.4090 C   0  0  0  0  0  2  0  0  0  0  0  0
  161.9580  208.9180  148.9660 C   0  0  0  0  0  2  0  0  0  0  0  0
  161.4380  207.4880  148.9000 C   0  0  2  0  0  3  0  0  0  0  0  0
  160.4590  205.7600  150.2230 O   0  0  0  0  0  1  0  0  0  0  0  0
  161.1810  206.9510  150.2990 C   0  0  0  0  0  2  0  0  0  0  0  0
  162.3930  206.5700  148.1350 C   0  0  0  0  0  2  0  0  0  0  0  0
  161.9150  206.3170  146.7730 N   0  0  0  0  0  0  0  0  0  0  0  0
  160.8690  204.7110  144.9720 S   0  0  0  0  0  0  0  0  0  0  0  0
  160.5720  206.7190  146.7050 N   0  0  0  0  0  2  0  0  0  0  0  0
  161.9540  204.8910  146.4150 C   0  0  1  0  0  0  0  0  0  0  0  0
  163.3730  204.5160  146.0130 C   0  0  0  0  0  1  0  0  0  0  0  0
  160.0790  206.2880  145.4050 C   0  0  0  0  0  2  0  0  0  0  0  0
  161.4400  203.9860  147.5620 C   0  0  0  0  0  2  0  0  0  0  0  0
  161.3180  202.5350  147.2100 C   0  0  0  0  0  0  0  0  0  0  0  0
  161.5210  200.2000  147.8300 C   0  0  0  0  0  3  0  0  0  0  0  0
  160.7240  200.8000  145.6220 C   0  0  0  0  0  3  0  0  0  0  0  0
  161.0610  199.8220  146.5650 C   0  0  0  0  0  3  0  0  0  0  0  0
  160.8540  202.1540  145.9440 C   0  0  0  0  0  3  0  0  0  0  0  0
  161.6460  201.5550  148.1530 C   0  0  0  0  0  3  0  0  0  0  0  0
  1  5  1  0  0  0  0
  1  6  1  1  0  0  0
  2 12  1  0  0  0  0
  2 11  1  0  0  0  0
  3 10  1  0  0  0  0
  4  8  1  0  0  0  0
  7  4  2  0  0  0  0
  7  9  1  0  0  0  0
  8  1  1  0  0  0  0
  9  5  1  0  0  0  0
 10 11  2  0  0  0  0
 11  7  1  0  0  0  0
 12 15  2  0  0  0  0
 13  2  2  0  0  0  0
 14 13  1  0  0  0  0
 14  3  2  0  0  0  0
 15  4  1  0  0  0  0
 16 13  1  0  0  0  0
 17 20  1  0  0  0  0
 18 24  1  6  0  0  0
 18 22  1  0  0  0  0
 18 17  1  0  0  0  0
 19 21  1  0  0  0  0
 20 21  1  0  0  0  0
 21 16  1  1  0  0  0
 22 19  1  0  0  0  0
 23 24  1  0  0  0  0
 25  3  1  0  0  0  0
 26 25  1  0  0  0  0
 27 30  1  1  0  0  0
 27 26  1  0  0  0  0
 27 29  1  0  0  0  0
 28 29  1  0  0  0  0
 31 30  1  0  0  0  0
 32 36  1  0  0  0  0
 32 34  1  0  0  0  0
 33 31  1  0  0  0  0
 34 35  1  6  0  0  0
 34 31  1  0  0  0  0
 34 37  1  0  0  0  0
 36 33  1  0  0  0  0
 38 37  1  0  0  0  0
 38 43  1  0  0  0  0
 39 43  2  0  0  0  0
 40 42  1  0  0  0  0
 40 41  2  0  0  0  0
 41 39  1  0  0  0  0
 42 38  2  0  0  0  0
M  END
>  <MODEL>
9

>  <REMARK>
 VINA RESULT:      -6.7      3.002      8.933
  Name = 
  11 active torsions:
  status: ('A' for Active; 'I' for Inactive)
    1  A    between atoms: O_1  and  C_34
    2  A    between atoms: O_1  and  C_35
    3  A    between atoms: C_2  and  C_6
    4  A    between atoms: C_2  and  C_13
    5  A    between atoms: C_3  and  N_4
    6  A    between atoms: C_3  and  C_12
    7  A    between atoms: C_6  and  C_12
    8  A    between atoms: C_11  and  C_14
    9  A    between atoms: C_12  and  C_17
   10  A    between atoms: C_14  and  C_22
   11  A    between atoms: C_19  and  C_37
                            x       y       z     vdW  Elec       q    Type
                         _______ _______ _______ _____ _____    ______ ____

>  <TORSDO>
F 11

$$$$
