=
 OpenBabel11062407423D

 34 38  0  0  1  0  0  0  0  0999 V2000
  161.1560  208.6370  155.4720 C   0  0  0  0  0  0  0  0  0  0  0  0
  161.0310  207.2440  153.4130 C   0  0  0  0  0  0  0  0  0  0  0  0
  161.0800  209.7910  153.2980 C   0  0  0  0  0  0  0  0  0  0  0  0
  160.5870  212.0300  151.2360 C   0  0  0  0  0  3  0  0  0  0  0  0
  161.1510  206.1490  154.0220 O   0  0  0  0  0  0  0  0  0  0  0  0
  161.3090  208.4410  151.3200 N   0  0  0  0  0  2  0  0  0  0  0  0
  161.0730  208.5490  154.1240 C   0  0  0  0  0  0  0  0  0  0  0  0
  161.3620  210.9410  151.0970 C   0  0  0  0  0  0  0  0  0  0  0  0
  160.9510  211.1300  153.9710 C   0  0  1  0  0  3  0  0  0  0  0  0
  161.2790  209.9590  156.1300 C   0  0  0  0  0  3  0  0  0  0  0  0
  160.7980  207.2240  151.9390 C   0  0  0  0  0  2  0  0  0  0  0  0
  159.5790  212.2640  152.2900 C   0  0  0  0  0  3  0  0  0  0  0  0
  159.6750  211.8220  153.5500 C   0  0  0  0  0  0  0  0  0  0  0  0
  161.2290  209.7250  151.9560 C   0  0  0  0  0  0  0  0  0  0  0  0
  161.2050  211.1030  155.4520 C   0  0  0  0  0  3  0  0  0  0  0  0
  156.4300  211.1090  155.3860 C   0  0  0  0  0  0  0  0  0  0  0  0
  156.2510  212.2950  156.1020 C   0  0  0  0  0  3  0  0  0  0  0  0
  158.5020  211.9750  154.4490 C   0  0  0  0  0  0  0  0  0  0  0  0
  157.1880  213.3250  155.9910 C   0  0  0  0  0  3  0  0  0  0  0  0
  157.5470  210.9530  154.5600 C   0  0  0  0  0  3  0  0  0  0  0  0
  158.3060  213.1680  155.1660 C   0  0  0  0  0  3  0  0  0  0  0  0
  155.5200  210.1120  155.4880 F   0  0  0  0  0  0  0  0  0  0  0  0
  160.1540  207.2260  157.2430 C   0  0  0  0  0  1  0  0  0  0  0  0
  161.1460  207.4770  156.2570 O   0  0  0  0  0  0  0  0  0  0  0  0
  162.2730  210.9360  149.9950 N   0  0  0  0  0  2  0  0  0  0  0  0
  162.1350  212.3600  148.1540 C   0  0  0  0  0  3  0  0  0  0  0  0
  161.8610  211.2160  148.6880 N   0  0  0  0  0  0  0  0  0  0  0  0
  159.9140  213.9150  147.8840 O   0  0  0  0  0  1  0  0  0  0  0  0
  161.6950  212.6640  146.7570 C   0  0  1  0  0  3  0  0  0  0  0  0
  160.3270  213.3980  146.6530 C   0  0  2  0  0  3  0  0  0  0  0  0
  160.9010  213.9310  144.5070 C   0  0  0  0  0  2  0  0  0  0  0  0
  162.3380  213.4150  144.7160 C   0  0  0  0  0  2  0  0  0  0  0  0
  162.6900  213.3940  146.0830 O   0  0  0  0  0  0  0  0  0  0  0  0
  160.3830  214.4490  145.7110 O   0  0  0  0  0  0  0  0  0  0  0  0
  1 10  1  0  0  0  0
  1 24  1  0  0  0  0
  2  5  2  0  0  0  0
  2  7  1  0  0  0  0
  3  9  1  0  0  0  0
  3  7  1  0  0  0  0
  4 12  1  0  0  0  0
  6 11  1  0  0  0  0
  6 14  1  0  0  0  0
  7  1  2  0  0  0  0
  8  4  2  0  0  0  0
  8 14  1  0  0  0  0
  9 15  1  1  0  0  0
 11  2  1  0  0  0  0
 12 13  2  0  0  0  0
 13  9  1  0  0  0  0
 13 18  1  0  0  0  0
 14  3  2  0  0  0  0
 15 10  2  0  0  0  0
 16 22  1  0  0  0  0
 16 17  1  0  0  0  0
 18 20  1  0  0  0  0
 18 21  2  0  0  0  0
 19 17  2  0  0  0  0
 20 16  2  0  0  0  0
 21 19  1  0  0  0  0
 24 23  1  0  0  0  0
 25  8  1  0  0  0  0
 26 27  2  0  0  0  0
 27 25  1  0  0  0  0
 29 26  1  1  0  0  0
 30 29  1  0  0  0  0
 30 28  1  1  0  0  0
 31 32  1  0  0  0  0
 31 34  1  0  0  0  0
 32 33  1  0  0  0  0
 33 29  1  0  0  0  0
 34 30  1  0  0  0  0
M  END
>  <MODEL>
1

>  <REMARK>
 VINA RESULT:      -6.3      0.000      0.000
  Name = 
  5 active torsions:
  status: ('A' for Active; 'I' for Inactive)
    1  A    between atoms: C_1  and  O_19
    2  A    between atoms: C_3  and  C_13
    3  A    between atoms: C_12  and  C_28
    4  A    between atoms: N_17  and  N_29
    5  A    between atoms: C_18  and  N_29
                            x       y       z     vdW  Elec       q    Type
                         _______ _______ _______ _____ _____    ______ ____

>  <TORSDO>
F 5

$$$$
=
 OpenBabel11062407423D

 34 38  0  0  1  0  0  0  0  0999 V2000
  161.4900  208.4350  155.3770 C   0  0  0  0  0  0  0  0  0  0  0  0
  160.9890  206.5190  153.8690 C   0  0  0  0  0  0  0  0  0  0  0  0
  161.5760  208.8230  152.9470 C   0  0  0  0  0  0  0  0  0  0  0  0
  161.4930  210.3370  150.2620 C   0  0  0  0  0  3  0  0  0  0  0  0
  160.8960  205.6770  154.8000 O   0  0  0  0  0  0  0  0  0  0  0  0
  161.4340  206.8960  151.5130 N   0  0  0  0  0  2  0  0  0  0  0  0
  161.3370  207.9410  154.1260 C   0  0  0  0  0  0  0  0  0  0  0  0
  162.0120  209.1210  150.5040 C   0  0  0  0  0  0  0  0  0  0  0  0
  161.7630  210.3010  153.1510 C   0  0  1  0  0  3  0  0  0  0  0  0
  161.9170  209.8400  155.5800 C   0  0  0  0  0  3  0  0  0  0  0  0
  160.7000  206.0800  152.4720 C   0  0  0  0  0  2  0  0  0  0  0  0
  160.6000  211.1050  151.1530 C   0  0  0  0  0  3  0  0  0  0  0  0
  160.6480  211.0790  152.4900 C   0  0  0  0  0  0  0  0  0  0  0  0
  161.6550  208.3010  151.7020 C   0  0  0  0  0  0  0  0  0  0  0  0
  162.0630  210.6950  154.5700 C   0  0  0  0  0  3  0  0  0  0  0  0
  157.7970  211.6960  154.9190 C   0  0  0  0  0  0  0  0  0  0  0  0
  157.4920  213.0330  154.6530 C   0  0  0  0  0  3  0  0  0  0  0  0
  159.5710  211.7600  153.2540 C   0  0  0  0  0  0  0  0  0  0  0  0
  158.2160  213.7350  153.6860 C   0  0  0  0  0  3  0  0  0  0  0  0
  158.8280  211.0620  154.2190 C   0  0  0  0  0  3  0  0  0  0  0  0
  159.2480  213.1010  152.9880 C   0  0  0  0  0  3  0  0  0  0  0  0
  157.0930  211.0120  155.8510 F   0  0  0  0  0  0  0  0  0  0  0  0
  160.0700  207.6820  157.2610 C   0  0  0  0  0  1  0  0  0  0  0  0
  161.2620  207.6180  156.4910 O   0  0  0  0  0  0  0  0  0  0  0  0
  162.8560  208.5690  149.4910 N   0  0  0  0  0  2  0  0  0  0  0  0
  162.4530  206.9530  147.8580 C   0  0  0  0  0  3  0  0  0  0  0  0
  162.3640  208.1840  148.2390 N   0  0  0  0  0  0  0  0  0  0  0  0
  163.5330  204.7010  146.7680 O   0  0  0  0  0  1  0  0  0  0  0  0
  161.9300  206.5390  146.5200 C   0  0  1  0  0  3  0  0  0  0  0  0
  162.6990  205.3580  145.8590 C   0  0  2  0  0  3  0  0  0  0  0  0
  160.9070  205.1160  144.4640 C   0  0  0  0  0  2  0  0  0  0  0  0
  160.0740  206.1170  145.2870 C   0  0  0  0  0  2  0  0  0  0  0  0
  160.5590  206.2360  146.6080 O   0  0  0  0  0  0  0  0  0  0  0  0
  161.8060  204.4200  145.2960 O   0  0  0  0  0  0  0  0  0  0  0  0
  1 10  1  0  0  0  0
  1 24  1  0  0  0  0
  2  7  1  0  0  0  0
  2  5  2  0  0  0  0
  3  9  1  0  0  0  0
  3  7  1  0  0  0  0
  4  8  2  0  0  0  0
  4 12  1  0  0  0  0
  6 14  1  0  0  0  0
  6 11  1  0  0  0  0
  7  1  2  0  0  0  0
  8 14  1  0  0  0  0
  9 15  1  1  0  0  0
 11  2  1  0  0  0  0
 12 13  2  0  0  0  0
 13  9  1  0  0  0  0
 13 18  1  0  0  0  0
 14  3  2  0  0  0  0
 15 10  2  0  0  0  0
 16 22  1  0  0  0  0
 17 16  1  0  0  0  0
 18 20  1  0  0  0  0
 19 17  2  0  0  0  0
 20 16  2  0  0  0  0
 21 18  2  0  0  0  0
 21 19  1  0  0  0  0
 24 23  1  0  0  0  0
 25  8  1  0  0  0  0
 26 27  2  0  0  0  0
 27 25  1  0  0  0  0
 29 33  1  0  0  0  0
 29 26  1  1  0  0  0
 30 29  1  0  0  0  0
 30 28  1  1  0  0  0
 31 32  1  0  0  0  0
 31 34  1  0  0  0  0
 32 33  1  0  0  0  0
 34 30  1  0  0  0  0
M  END
>  <MODEL>
2

>  <REMARK>
 VINA RESULT:      -5.7      3.604      4.217
  Name = 
  5 active torsions:
  status: ('A' for Active; 'I' for Inactive)
    1  A    between atoms: C_1  and  O_19
    2  A    between atoms: C_3  and  C_13
    3  A    between atoms: C_12  and  C_28
    4  A    between atoms: N_17  and  N_29
    5  A    between atoms: C_18  and  N_29
                            x       y       z     vdW  Elec       q    Type
                         _______ _______ _______ _____ _____    ______ ____

>  <TORSDO>
F 5

$$$$
=
 OpenBabel11062407423D

 34 38  0  0  1  0  0  0  0  0999 V2000
  160.8520  210.0200  155.8240 C   0  0  0  0  0  0  0  0  0  0  0  0
  161.0780  208.8820  153.6220 C   0  0  0  0  0  0  0  0  0  0  0  0
  160.2150  211.2750  153.8030 C   0  0  0  0  0  0  0  0  0  0  0  0
  158.8170  213.3770  152.0330 C   0  0  0  0  0  3  0  0  0  0  0  0
  161.6200  207.8490  154.0950 O   0  0  0  0  0  0  0  0  0  0  0  0
  160.7630  210.2960  151.6750 N   0  0  0  0  0  2  0  0  0  0  0  0
  160.7080  210.0390  154.4790 C   0  0  0  0  0  0  0  0  0  0  0  0
  159.9140  212.6580  151.7430 C   0  0  0  0  0  0  0  0  0  0  0  0
  159.6710  212.4060  154.6310 C   0  0  1  0  0  3  0  0  0  0  0  0
  160.5460  211.2280  156.6270 C   0  0  0  0  0  3  0  0  0  0  0  0
  160.7610  208.9230  152.1640 C   0  0  0  0  0  2  0  0  0  0  0  0
  157.8700  213.1290  153.1400 C   0  0  0  0  0  3  0  0  0  0  0  0
  158.2060  212.6310  154.3360 C   0  0  0  0  0  0  0  0  0  0  0  0
  160.2810  211.3970  152.4590 C   0  0  0  0  0  0  0  0  0  0  0  0
  160.0240  212.3290  156.0900 C   0  0  0  0  0  3  0  0  0  0  0  0
  155.3140  210.7820  155.9560 C   0  0  0  0  0  0  0  0  0  0  0  0
  155.0320  211.6110  157.0450 C   0  0  0  0  0  3  0  0  0  0  0  0
  157.1230  212.2650  155.2840 C   0  0  0  0  0  0  0  0  0  0  0  0
  155.7850  212.7690  157.2550 C   0  0  0  0  0  3  0  0  0  0  0  0
  156.3500  211.1120  155.0780 C   0  0  0  0  0  3  0  0  0  0  0  0
  156.8220  213.0960  156.3770 C   0  0  0  0  0  3  0  0  0  0  0  0
  154.5820  209.6630  155.7480 F   0  0  0  0  0  0  0  0  0  0  0  0
  160.4600  208.0360  157.2520 C   0  0  0  0  0  1  0  0  0  0  0  0
  161.3070  208.8630  156.4680 O   0  0  0  0  0  0  0  0  0  0  0  0
  160.6860  213.0870  150.6190 N   0  0  0  0  0  2  0  0  0  0  0  0
  160.8550  213.1240  148.2930 C   0  0  0  0  0  3  0  0  0  0  0  0
  160.1230  213.2540  149.3490 N   0  0  0  0  0  0  0  0  0  0  0  0
  162.5720  213.0310  146.1800 O   0  0  0  0  0  1  0  0  0  0  0  0
  160.2560  213.3040  146.9340 C   0  0  1  0  0  3  0  0  0  0  0  0
  161.2920  213.4250  145.7790 C   0  0  2  0  0  3  0  0  0  0  0  0
  159.5730  212.9870  144.3400 C   0  0  0  0  0  2  0  0  0  0  0  0
  158.6290  212.6330  145.5050 C   0  0  0  0  0  2  0  0  0  0  0  0
  159.3470  212.2660  146.6640 O   0  0  0  0  0  0  0  0  0  0  0  0
  160.9030  212.6520  144.6630 O   0  0  0  0  0  0  0  0  0  0  0  0
  1 24  1  0  0  0  0
  1 10  1  0  0  0  0
  2  5  2  0  0  0  0
  2  7  1  0  0  0  0
  3  7  1  0  0  0  0
  3  9  1  0  0  0  0
  4 12  1  0  0  0  0
  6 11  1  0  0  0  0
  6 14  1  0  0  0  0
  7  1  2  0  0  0  0
  8  4  2  0  0  0  0
  8 14  1  0  0  0  0
  9 15  1  1  0  0  0
 11  2  1  0  0  0  0
 12 13  2  0  0  0  0
 13  9  1  0  0  0  0
 13 18  1  0  0  0  0
 14  3  2  0  0  0  0
 15 10  2  0  0  0  0
 16 17  1  0  0  0  0
 17 19  2  0  0  0  0
 18 21  2  0  0  0  0
 20 18  1  0  0  0  0
 20 16  2  0  0  0  0
 21 19  1  0  0  0  0
 22 16  1  0  0  0  0
 24 23  1  0  0  0  0
 25  8  1  0  0  0  0
 26 27  2  0  0  0  0
 27 25  1  0  0  0  0
 29 26  1  1  0  0  0
 30 28  1  1  0  0  0
 30 29  1  0  0  0  0
 31 34  1  0  0  0  0
 31 32  1  0  0  0  0
 32 33  1  0  0  0  0
 33 29  1  0  0  0  0
 34 30  1  0  0  0  0
M  END
>  <MODEL>
3

>  <REMARK>
 VINA RESULT:      -5.7      1.465      2.033
  Name = 
  5 active torsions:
  status: ('A' for Active; 'I' for Inactive)
    1  A    between atoms: C_1  and  O_19
    2  A    between atoms: C_3  and  C_13
    3  A    between atoms: C_12  and  C_28
    4  A    between atoms: N_17  and  N_29
    5  A    between atoms: C_18  and  N_29
                            x       y       z     vdW  Elec       q    Type
                         _______ _______ _______ _____ _____    ______ ____

>  <TORSDO>
F 5

$$$$
=
 OpenBabel11062407423D

 34 38  0  0  1  0  0  0  0  0999 V2000
  160.3630  211.7850  151.4740 C   0  0  0  0  0  0  0  0  0  0  0  0
  161.8980  210.6690  149.8630 C   0  0  0  0  0  0  0  0  0  0  0  0
  160.7960  209.3790  151.7670 C   0  0  0  0  0  0  0  0  0  0  0  0
  161.0480  206.6410  153.1640 C   0  0  0  0  0  3  0  0  0  0  0  0
  162.0330  211.6840  149.1300 O   0  0  0  0  0  0  0  0  0  0  0  0
  161.9940  208.2490  150.0130 N   0  0  0  0  0  2  0  0  0  0  0  0
  161.0100  210.6730  151.0560 C   0  0  0  0  0  0  0  0  0  0  0  0
  160.9530  206.8860  151.8460 C   0  0  0  0  0  0  0  0  0  0  0  0
  160.0470  209.3640  153.0710 C   0  0  1  0  0  3  0  0  0  0  0  0
  159.4240  211.7190  152.6200 C   0  0  0  0  0  3  0  0  0  0  0  0
  162.6870  209.4430  149.5440 C   0  0  0  0  0  2  0  0  0  0  0  0
  161.3350  207.6300  154.2230 C   0  0  0  0  0  3  0  0  0  0  0  0
  160.9430  208.9100  154.2000 C   0  0  0  0  0  0  0  0  0  0  0  0
  161.2440  208.2190  151.2360 C   0  0  0  0  0  0  0  0  0  0  0  0
  159.2590  210.6140  153.3440 C   0  0  0  0  0  3  0  0  0  0  0  0
  163.3040  211.0500  156.2620 C   0  0  0  0  0  0  0  0  0  0  0  0
  162.4480  211.5240  157.2600 C   0  0  0  0  0  3  0  0  0  0  0  0
  161.4600  209.8310  155.2450 C   0  0  0  0  0  0  0  0  0  0  0  0
  161.1020  211.1500  157.2590 C   0  0  0  0  0  3  0  0  0  0  0  0
  162.8130  210.2050  155.2640 C   0  0  0  0  0  3  0  0  0  0  0  0
  160.6120  210.3050  156.2590 C   0  0  0  0  0  3  0  0  0  0  0  0
  164.6100  211.4070  156.2650 F   0  0  0  0  0  0  0  0  0  0  0  0
  159.4930  213.7630  150.2650 C   0  0  0  0  0  1  0  0  0  0  0  0
  160.5600  213.0060  150.8170 O   0  0  0  0  0  0  0  0  0  0  0  0
  160.6650  205.7670  151.0030 N   0  0  0  0  0  2  0  0  0  0  0  0
  161.4740  204.9370  148.9800 C   0  0  0  0  0  3  0  0  0  0  0  0
  160.7910  205.8320  149.6110 N   0  0  0  0  0  0  0  0  0  0  0  0
  161.1790  202.5950  147.6180 O   0  0  0  0  0  1  0  0  0  0  0  0
  161.6120  205.0040  147.4920 C   0  0  1  0  0  3  0  0  0  0  0  0
  161.6170  203.6210  146.7770 C   0  0  2  0  0  3  0  0  0  0  0  0
  161.1920  204.7470  144.8360 C   0  0  0  0  0  2  0  0  0  0  0  0
  160.9510  206.0640  145.5990 C   0  0  0  0  0  2  0  0  0  0  0  0
  160.6090  205.8270  146.9490 O   0  0  0  0  0  0  0  0  0  0  0  0
  160.8060  203.6430  145.6210 O   0  0  0  0  0  0  0  0  0  0  0  0
  1 10  1  0  0  0  0
  2  7  1  0  0  0  0
  3  9  1  0  0  0  0
  4 12  1  0  0  0  0
  5  2  2  0  0  0  0
  6 14  1  0  0  0  0
  7  1  2  0  0  0  0
  7  3  1  0  0  0  0
  8  4  2  0  0  0  0
  9 15  1  1  0  0  0
  9 13  1  0  0  0  0
 10 15  2  0  0  0  0
 11  2  1  0  0  0  0
 11  6  1  0  0  0  0
 13 12  2  0  0  0  0
 13 18  1  0  0  0  0
 14  3  2  0  0  0  0
 14  8  1  0  0  0  0
 16 22  1  0  0  0  0
 16 17  1  0  0  0  0
 18 20  1  0  0  0  0
 18 21  2  0  0  0  0
 19 17  2  0  0  0  0
 20 16  2  0  0  0  0
 21 19  1  0  0  0  0
 23 24  1  0  0  0  0
 24  1  1  0  0  0  0
 25  8  1  0  0  0  0
 26 27  2  0  0  0  0
 27 25  1  0  0  0  0
 29 26  1  1  0  0  0
 30 29  1  0  0  0  0
 30 28  1  1  0  0  0
 31 32  1  0  0  0  0
 31 34  1  0  0  0  0
 32 33  1  0  0  0  0
 33 29  1  0  0  0  0
 34 30  1  0  0  0  0
M  END
>  <MODEL>
4

>  <REMARK>
 VINA RESULT:      -5.7      3.923      6.401
  Name = 
  5 active torsions:
  status: ('A' for Active; 'I' for Inactive)
    1  A    between atoms: C_1  and  O_19
    2  A    between atoms: C_3  and  C_13
    3  A    between atoms: C_12  and  C_28
    4  A    between atoms: N_17  and  N_29
    5  A    between atoms: C_18  and  N_29
                            x       y       z     vdW  Elec       q    Type
                         _______ _______ _______ _____ _____    ______ ____

>  <TORSDO>
F 5

$$$$
=
 OpenBabel11062407423D

 34 38  0  0  1  0  0  0  0  0999 V2000
  159.7930  212.5550  151.5880 C   0  0  0  0  0  0  0  0  0  0  0  0
  161.5180  212.1990  149.8300 C   0  0  0  0  0  0  0  0  0  0  0  0
  160.7760  210.3080  151.3690 C   0  0  0  0  0  0  0  0  0  0  0  0
  161.6750  207.4630  152.1500 C   0  0  0  0  0  3  0  0  0  0  0  0
  161.4030  213.3530  149.3380 O   0  0  0  0  0  0  0  0  0  0  0  0
  162.1730  209.8930  149.4560 N   0  0  0  0  0  2  0  0  0  0  0  0
  160.6730  211.7390  150.9630 C   0  0  0  0  0  0  0  0  0  0  0  0
  161.5050  207.9610  150.9130 C   0  0  0  0  0  0  0  0  0  0  0  0
  160.0710  209.8370  152.6120 C   0  0  1  0  0  3  0  0  0  0  0  0
  158.9140  212.0270  152.6590 C   0  0  0  0  0  3  0  0  0  0  0  0
  162.5640  211.2870  149.2820 C   0  0  0  0  0  2  0  0  0  0  0  0
  161.7430  208.2350  153.4070 C   0  0  0  0  0  3  0  0  0  0  0  0
  161.0660  209.3650  153.6470 C   0  0  0  0  0  0  0  0  0  0  0  0
  161.4710  209.4260  150.6170 C   0  0  0  0  0  0  0  0  0  0  0  0
  159.0190  210.7830  153.1210 C   0  0  0  0  0  3  0  0  0  0  0  0
  162.9880  211.1460  156.3930 C   0  0  0  0  0  0  0  0  0  0  0  0
  161.9550  211.5190  157.2570 C   0  0  0  0  0  3  0  0  0  0  0  0
  161.3730  210.1290  154.8840 C   0  0  0  0  0  0  0  0  0  0  0  0
  160.6320  211.1950  156.9440 C   0  0  0  0  0  3  0  0  0  0  0  0
  162.6980  210.4510  155.2170 C   0  0  0  0  0  3  0  0  0  0  0  0
  160.3430  210.5000  155.7650 C   0  0  0  0  0  3  0  0  0  0  0  0
  164.2700  211.4550  156.6980 F   0  0  0  0  0  0  0  0  0  0  0  0
  158.6020  214.4120  150.4650 C   0  0  0  0  0  1  0  0  0  0  0  0
  159.6920  213.9010  151.2180 O   0  0  0  0  0  0  0  0  0  0  0  0
  161.4700  207.0180  149.8390 N   0  0  0  0  0  2  0  0  0  0  0  0
  160.8180  204.9080  149.0900 C   0  0  0  0  0  3  0  0  0  0  0  0
  161.2480  205.6540  150.0530 N   0  0  0  0  0  0  0  0  0  0  0  0
  161.5670  203.2220  147.0840 O   0  0  0  0  0  1  0  0  0  0  0  0
  160.5780  203.4490  149.3160 C   0  0  1  0  0  3  0  0  0  0  0  0
  160.8520  202.5470  148.0770 C   0  0  2  0  0  3  0  0  0  0  0  0
  160.8830  200.7720  149.5150 C   0  0  0  0  0  2  0  0  0  0  0  0
  160.8580  201.7070  150.7400 C   0  0  0  0  0  2  0  0  0  0  0  0
  161.3260  203.0000  150.4180 O   0  0  0  0  0  0  0  0  0  0  0  0
  161.5620  201.3830  148.4430 O   0  0  0  0  0  0  0  0  0  0  0  0
  1 10  1  0  0  0  0
  2  7  1  0  0  0  0
  3  9  1  0  0  0  0
  4 12  1  0  0  0  0
  5  2  2  0  0  0  0
  6 14  1  0  0  0  0
  7  3  1  0  0  0  0
  7  1  2  0  0  0  0
  8  4  2  0  0  0  0
  9 15  1  1  0  0  0
  9 13  1  0  0  0  0
 10 15  2  0  0  0  0
 11  6  1  0  0  0  0
 11  2  1  0  0  0  0
 12 13  2  0  0  0  0
 13 18  1  0  0  0  0
 14  8  1  0  0  0  0
 14  3  2  0  0  0  0
 16 22  1  0  0  0  0
 16 17  1  0  0  0  0
 18 20  1  0  0  0  0
 18 21  2  0  0  0  0
 19 17  2  0  0  0  0
 20 16  2  0  0  0  0
 21 19  1  0  0  0  0
 23 24  1  0  0  0  0
 24  1  1  0  0  0  0
 25 27  1  0  0  0  0
 25  8  1  0  0  0  0
 26 27  2  0  0  0  0
 29 26  1  6  0  0  0
 29 33  1  0  0  0  0
 30 28  1  6  0  0  0
 30 34  1  0  0  0  0
 30 29  1  0  0  0  0
 31 32  1  0  0  0  0
 33 32  1  0  0  0  0
 34 31  1  0  0  0  0
M  END
>  <MODEL>
5

>  <REMARK>
 VINA RESULT:      -4.9      3.586      7.310
  Name = 
  5 active torsions:
  status: ('A' for Active; 'I' for Inactive)
    1  A    between atoms: C_1  and  O_19
    2  A    between atoms: C_3  and  C_13
    3  A    between atoms: C_12  and  C_28
    4  A    between atoms: N_17  and  N_29
    5  A    between atoms: C_18  and  N_29
                            x       y       z     vdW  Elec       q    Type
                         _______ _______ _______ _____ _____    ______ ____

>  <TORSDO>
F 5

$$$$
=
 OpenBabel11062407423D

 34 38  0  0  1  0  0  0  0  0999 V2000
  161.5390  210.0850  155.6970 C   0  0  0  0  0  0  0  0  0  0  0  0
  160.0370  208.1350  156.0660 C   0  0  0  0  0  0  0  0  0  0  0  0
  161.3430  208.4180  153.8950 C   0  0  0  0  0  0  0  0  0  0  0  0
  161.4140  207.2160  151.0560 C   0  0  0  0  0  3  0  0  0  0  0  0
  159.7730  208.4340  157.2610 O   0  0  0  0  0  0  0  0  0  0  0  0
  160.1710  206.3790  154.3970 N   0  0  0  0  0  2  0  0  0  0  0  0
  160.9770  208.9410  155.2430 C   0  0  2  0  0  3  0  0  0  0  0  0
  161.4210  206.5580  152.2270 C   0  0  0  0  0  0  0  0  0  0  0  0
  162.1540  209.2750  152.9620 C   0  0  0  0  0  0  0  0  0  0  0  0
  162.5350  210.8090  154.8710 C   0  0  0  0  0  3  0  0  0  0  0  0
  159.3490  206.9630  155.4500 C   0  0  0  0  0  2  0  0  0  0  0  0
  161.0890  208.6420  150.8510 C   0  0  0  0  0  3  0  0  0  0  0  0
  161.3600  209.6210  151.7240 C   0  0  0  0  0  0  0  0  0  0  0  0
  160.9790  207.1730  153.5170 C   0  0  0  0  0  0  0  0  0  0  0  0
  162.8370  210.4370  153.6280 C   0  0  0  0  0  3  0  0  0  0  0  0
  160.6390  212.9510  150.0520 C   0  0  0  0  0  0  0  0  0  0  0  0
  159.8260  213.5690  151.0050 C   0  0  0  0  0  3  0  0  0  0  0  0
  160.8120  210.9770  151.4640 C   0  0  0  0  0  0  0  0  0  0  0  0
  159.5080  212.9000  152.1900 C   0  0  0  0  0  3  0  0  0  0  0  0
  161.1330  211.6650  150.2830 C   0  0  0  0  0  3  0  0  0  0  0  0
  160.0020  211.6130  152.4200 C   0  0  0  0  0  3  0  0  0  0  0  0
  160.9530  213.6000  148.9050 F   0  0  0  0  0  0  0  0  0  0  0  0
  160.4890  211.8050  157.1350 C   0  0  0  0  0  1  0  0  0  0  0  0
  161.1980  210.5870  156.9580 O   0  0  0  0  0  0  0  0  0  0  0  0
  161.7690  205.1720  152.1850 N   0  0  0  0  0  2  0  0  0  0  0  0
  161.1360  204.4060  150.0750 C   0  0  0  0  0  3  0  0  0  0  0  0
  162.0480  204.5110  150.9840 N   0  0  0  0  0  0  0  0  0  0  0  0
  160.0350  201.9340  149.7630 O   0  0  0  0  0  1  0  0  0  0  0  0
  161.4300  203.6990  148.7900 C   0  0  1  0  0  3  0  0  0  0  0  0
  160.9330  202.2250  148.7330 C   0  0  2  0  0  3  0  0  0  0  0  0
  161.1970  202.3400  146.4670 C   0  0  0  0  0  2  0  0  0  0  0  0
  161.4460  203.8600  146.5290 C   0  0  0  0  0  2  0  0  0  0  0  0
  160.9110  204.4280  147.7060 O   0  0  0  0  0  0  0  0  0  0  0  0
  160.3180  201.9430  147.4940 O   0  0  0  0  0  0  0  0  0  0  0  0
  1 24  1  0  0  0  0
  2  5  2  0  0  0  0
  4  8  2  0  0  0  0
  6 11  1  0  0  0  0
  7  3  1  1  0  0  0
  7  1  1  0  0  0  0
  7  2  1  0  0  0  0
  8 14  1  0  0  0  0
  9 15  2  0  0  0  0
  9  3  1  0  0  0  0
 10  1  2  0  0  0  0
 11  2  1  0  0  0  0
 12  4  1  0  0  0  0
 12 13  2  0  0  0  0
 13  9  1  0  0  0  0
 14  3  2  0  0  0  0
 14  6  1  0  0  0  0
 15 10  1  0  0  0  0
 16 20  2  0  0  0  0
 16 17  1  0  0  0  0
 17 19  2  0  0  0  0
 18 13  1  0  0  0  0
 18 21  2  0  0  0  0
 19 21  1  0  0  0  0
 20 18  1  0  0  0  0
 22 16  1  0  0  0  0
 24 23  1  0  0  0  0
 25  8  1  0  0  0  0
 26 27  2  0  0  0  0
 27 25  1  0  0  0  0
 29 26  1  1  0  0  0
 30 29  1  0  0  0  0
 30 28  1  1  0  0  0
 31 32  1  0  0  0  0
 31 34  1  0  0  0  0
 32 33  1  0  0  0  0
 33 29  1  0  0  0  0
 34 30  1  0  0  0  0
M  END
>  <MODEL>
6

>  <REMARK>
 VINA RESULT:      -4.5      4.457      6.515
  Name = 
  5 active torsions:
  status: ('A' for Active; 'I' for Inactive)
    1  A    between atoms: C_1  and  O_19
    2  A    between atoms: C_3  and  C_13
    3  A    between atoms: C_12  and  C_28
    4  A    between atoms: N_17  and  N_29
    5  A    between atoms: C_18  and  N_29
                            x       y       z     vdW  Elec       q    Type
                         _______ _______ _______ _____ _____    ______ ____

>  <TORSDO>
F 5

$$$$
=
 OpenBabel11062407423D

 34 38  0  0  1  0  0  0  0  0999 V2000
  161.9600  204.9140  151.0810 C   0  0  0  0  0  0  0  0  0  0  0  0
  160.6870  205.4830  149.0190 C   0  0  0  0  0  0  0  0  0  0  0  0
  161.8160  207.2840  150.4280 C   0  0  0  0  0  0  0  0  0  0  0  0
  161.8220  210.3560  150.6940 C   0  0  0  0  0  3  0  0  0  0  0  0
  160.4720  204.2840  148.6970 O   0  0  0  0  0  0  0  0  0  0  0  0
  160.8870  207.7800  148.2650 N   0  0  0  0  0  2  0  0  0  0  0  0
  161.4870  205.8430  150.2190 C   0  0  0  0  0  0  0  0  0  0  0  0
  161.9710  209.6280  149.5740 C   0  0  0  0  0  0  0  0  0  0  0  0
  162.4740  207.7160  151.7080 C   0  0  1  0  0  3  0  0  0  0  0  0
  162.8230  205.3170  152.2170 C   0  0  0  0  0  3  0  0  0  0  0  0
  160.0810  206.5680  148.1930 C   0  0  0  0  0  2  0  0  0  0  0  0
  161.3440  209.8670  152.0030 C   0  0  0  0  0  3  0  0  0  0  0  0
  161.5710  208.6410  152.4910 C   0  0  0  0  0  0  0  0  0  0  0  0
  161.5540  208.1960  149.4650 C   0  0  0  0  0  0  0  0  0  0  0  0
  163.0790  206.5920  152.5020 C   0  0  0  0  0  3  0  0  0  0  0  0
  159.9230  208.7880  155.9070 C   0  0  0  0  0  0  0  0  0  0  0  0
  159.6150  207.4420  156.1240 C   0  0  0  0  0  3  0  0  0  0  0  0
  160.8750  208.2310  153.7380 C   0  0  0  0  0  0  0  0  0  0  0  0
  159.9410  206.4880  155.1570 C   0  0  0  0  0  3  0  0  0  0  0  0
  160.5540  209.1780  154.7230 C   0  0  0  0  0  3  0  0  0  0  0  0
  160.5710  206.8800  153.9720 C   0  0  0  0  0  3  0  0  0  0  0  0
  159.6130  209.7140  156.8450 F   0  0  0  0  0  0  0  0  0  0  0  0
  160.7990  202.8400  151.7750 C   0  0  0  0  0  1  0  0  0  0  0  0
  161.6530  203.5600  150.8980 O   0  0  0  0  0  0  0  0  0  0  0  0
  162.4520  210.3170  148.4180 N   0  0  0  0  0  2  0  0  0  0  0  0
  160.8310  211.4290  147.1630 C   0  0  0  0  0  3  0  0  0  0  0  0
  161.8550  211.4910  147.9480 N   0  0  0  0  0  0  0  0  0  0  0  0
  159.9150  211.3840  144.5970 O   0  0  0  0  0  1  0  0  0  0  0  0
  160.1900  212.6820  146.6580 C   0  0  1  0  0  3  0  0  0  0  0  0
  159.8490  212.6710  145.1400 C   0  0  2  0  0  3  0  0  0  0  0  0
  158.4800  214.4530  145.5460 C   0  0  0  0  0  2  0  0  0  0  0  0
  158.6430  214.2880  147.0700 C   0  0  0  0  0  2  0  0  0  0  0  0
  159.0400  212.9770  147.4120 O   0  0  0  0  0  0  0  0  0  0  0  0
  158.5630  213.2030  144.9030 O   0  0  0  0  0  0  0  0  0  0  0  0
  1 10  1  0  0  0  0
  2  7  1  0  0  0  0
  3  9  1  0  0  0  0
  4 12  1  0  0  0  0
  5  2  2  0  0  0  0
  6 14  1  0  0  0  0
  7  3  1  0  0  0  0
  7  1  2  0  0  0  0
  8  4  2  0  0  0  0
  9 13  1  0  0  0  0
  9 15  1  1  0  0  0
 10 15  2  0  0  0  0
 11  6  1  0  0  0  0
 11  2  1  0  0  0  0
 12 13  2  0  0  0  0
 13 18  1  0  0  0  0
 14  8  1  0  0  0  0
 14  3  2  0  0  0  0
 16 17  1  0  0  0  0
 16 22  1  0  0  0  0
 18 21  2  0  0  0  0
 18 20  1  0  0  0  0
 19 17  2  0  0  0  0
 20 16  2  0  0  0  0
 21 19  1  0  0  0  0
 24  1  1  0  0  0  0
 24 23  1  0  0  0  0
 25  8  1  0  0  0  0
 26 27  2  0  0  0  0
 27 25  1  0  0  0  0
 29 26  1  1  0  0  0
 29 33  1  0  0  0  0
 30 28  1  1  0  0  0
 30 29  1  0  0  0  0
 31 32  1  0  0  0  0
 32 33  1  0  0  0  0
 34 30  1  0  0  0  0
 34 31  1  0  0  0  0
M  END
>  <MODEL>
7

>  <REMARK>
 VINA RESULT:      -4.3      2.931      4.406
  Name = 
  5 active torsions:
  status: ('A' for Active; 'I' for Inactive)
    1  A    between atoms: C_1  and  O_19
    2  A    between atoms: C_3  and  C_13
    3  A    between atoms: C_12  and  C_28
    4  A    between atoms: N_17  and  N_29
    5  A    between atoms: C_18  and  N_29
                            x       y       z     vdW  Elec       q    Type
                         _______ _______ _______ _____ _____    ______ ____

>  <TORSDO>
F 5

$$$$
=
 OpenBabel11062407423D

 34 38  0  0  1  0  0  0  0  0999 V2000
  161.3870  207.8310  154.7300 C   0  0  0  0  0  0  0  0  0  0  0  0
  160.8530  206.0350  153.0910 C   0  0  0  0  0  0  0  0  0  0  0  0
  161.5470  208.3680  152.3320 C   0  0  0  0  0  0  0  0  0  0  0  0
  161.5850  210.0500  149.7480 C   0  0  0  0  0  3  0  0  0  0  0  0
  160.7060  205.1390  153.9650 O   0  0  0  0  0  0  0  0  0  0  0  0
  161.3690  206.5420  150.7760 N   0  0  0  0  0  2  0  0  0  0  0  0
  161.2460  207.4230  153.4470 C   0  0  0  0  0  0  0  0  0  0  0  0
  162.0520  208.8030  149.9230 C   0  0  0  0  0  0  0  0  0  0  0  0
  161.7830  209.8210  152.6340 C   0  0  1  0  0  3  0  0  0  0  0  0
  161.8610  209.2020  155.0320 C   0  0  0  0  0  3  0  0  0  0  0  0
  160.5810  205.6960  151.6640 C   0  0  0  0  0  2  0  0  0  0  0  0
  160.6990  210.7950  150.6660 C   0  0  0  0  0  3  0  0  0  0  0  0
  160.7150  210.6820  152.0000 C   0  0  0  0  0  0  0  0  0  0  0  0
  161.6370  207.9230  151.0590 C   0  0  0  0  0  0  0  0  0  0  0  0
  162.0630  210.1130  154.0820 C   0  0  0  0  0  3  0  0  0  0  0  0
  158.1600  213.2490  153.1380 C   0  0  0  0  0  0  0  0  0  0  0  0
  157.6670  212.6520  154.3010 C   0  0  0  0  0  3  0  0  0  0  0  0
  159.6450  211.3540  152.7830 C   0  0  0  0  0  0  0  0  0  0  0  0
  158.1630  211.4130  154.7130 C   0  0  0  0  0  3  0  0  0  0  0  0
  159.1470  212.6060  152.3870 C   0  0  0  0  0  3  0  0  0  0  0  0
  159.1500  210.7690  153.9600 C   0  0  0  0  0  3  0  0  0  0  0  0
  157.6850  214.4530  152.7400 F   0  0  0  0  0  0  0  0  0  0  0  0
  160.4330  207.3670  156.9670 C   0  0  0  0  0  1  0  0  0  0  0  0
  161.1030  206.9550  155.7840 O   0  0  0  0  0  0  0  0  0  0  0  0
  162.9000  208.2830  148.8960 N   0  0  0  0  0  2  0  0  0  0  0  0
  162.9920  206.3640  147.5730 C   0  0  0  0  0  3  0  0  0  0  0  0
  162.4090  207.4800  147.8610 N   0  0  0  0  0  0  0  0  0  0  0  0
  161.7450  204.0540  148.3050 O   0  0  0  0  0  1  0  0  0  0  0  0
  162.4710  205.5040  146.4660 C   0  0  1  0  0  3  0  0  0  0  0  0
  161.9320  204.1160  146.9210 C   0  0  2  0  0  3  0  0  0  0  0  0
  160.8900  203.9800  144.8930 C   0  0  0  0  0  2  0  0  0  0  0  0
  161.2310  205.4480  144.5690 C   0  0  0  0  0  2  0  0  0  0  0  0
  161.4840  206.1940  145.7410 O   0  0  0  0  0  0  0  0  0  0  0  0
  160.7120  203.8100  146.2790 O   0  0  0  0  0  0  0  0  0  0  0  0
  1 10  1  0  0  0  0
  1 24  1  0  0  0  0
  2  7  1  0  0  0  0
  2  5  2  0  0  0  0
  3  9  1  0  0  0  0
  3  7  1  0  0  0  0
  4  8  2  0  0  0  0
  4 12  1  0  0  0  0
  6 14  1  0  0  0  0
  6 11  1  0  0  0  0
  7  1  2  0  0  0  0
  8 14  1  0  0  0  0
  9 15  1  1  0  0  0
 11  2  1  0  0  0  0
 12 13  2  0  0  0  0
 13  9  1  0  0  0  0
 13 18  1  0  0  0  0
 14  3  2  0  0  0  0
 15 10  2  0  0  0  0
 16 17  1  0  0  0  0
 17 19  2  0  0  0  0
 18 21  2  0  0  0  0
 20 18  1  0  0  0  0
 20 16  2  0  0  0  0
 21 19  1  0  0  0  0
 22 16  1  0  0  0  0
 24 23  1  0  0  0  0
 25  8  1  0  0  0  0
 26 27  2  0  0  0  0
 27 25  1  0  0  0  0
 29 30  1  0  0  0  0
 29 26  1  1  0  0  0
 30 28  1  1  0  0  0
 31 34  1  0  0  0  0
 32 31  1  0  0  0  0
 32 33  1  0  0  0  0
 33 29  1  0  0  0  0
 34 30  1  0  0  0  0
M  END
>  <MODEL>
8

>  <REMARK>
 VINA RESULT:      -4.2      3.679      4.744
  Name = 
  5 active torsions:
  status: ('A' for Active; 'I' for Inactive)
    1  A    between atoms: C_1  and  O_19
    2  A    between atoms: C_3  and  C_13
    3  A    between atoms: C_12  and  C_28
    4  A    between atoms: N_17  and  N_29
    5  A    between atoms: C_18  and  N_29
                            x       y       z     vdW  Elec       q    Type
                         _______ _______ _______ _____ _____    ______ ____

>  <TORSDO>
F 5

$$$$
=
 OpenBabel11062407423D

 34 38  0  0  1  0  0  0  0  0999 V2000
  162.1950  205.2110  146.0790 C   0  0  0  0  0  0  0  0  0  0  0  0
  160.5670  206.5270  147.4260 C   0  0  0  0  0  0  0  0  0  0  0  0
  161.5330  204.3270  148.2800 C   0  0  0  0  0  0  0  0  0  0  0  0
  161.0170  202.2850  150.5330 C   0  0  0  0  0  3  0  0  0  0  0  0
  160.5320  207.4980  146.6260 O   0  0  0  0  0  0  0  0  0  0  0  0
  160.2400  205.7670  149.7080 N   0  0  0  0  0  2  0  0  0  0  0  0
  161.4460  205.3500  147.1980 C   0  0  2  0  0  3  0  0  0  0  0  0
  161.1390  203.6190  150.6440 C   0  0  0  0  0  0  0  0  0  0  0  0
  162.2720  203.0420  148.0280 C   0  0  0  0  0  0  0  0  0  0  0  0
  163.1180  204.0610  145.9340 C   0  0  0  0  0  3  0  0  0  0  0  0
  159.6660  206.5440  148.6160 C   0  0  0  0  0  2  0  0  0  0  0  0
  160.8210  201.5220  149.2830 C   0  0  0  0  0  3  0  0  0  0  0  0
  161.3320  201.8600  148.0930 C   0  0  0  0  0  0  0  0  0  0  0  0
  160.9790  204.5570  149.4910 C   0  0  0  0  0  0  0  0  0  0  0  0
  163.1750  203.0740  146.8270 C   0  0  0  0  0  3  0  0  0  0  0  0
  160.9550  199.0770  145.5400 C   0  0  0  0  0  0  0  0  0  0  0  0
  160.1360  199.6860  144.5860 C   0  0  0  0  0  3  0  0  0  0  0  0
  160.9010  201.0990  146.8920 C   0  0  0  0  0  0  0  0  0  0  0  0
  159.7030  201.0010  144.7760 C   0  0  0  0  0  3  0  0  0  0  0  0
  161.3400  199.7820  146.6830 C   0  0  0  0  0  3  0  0  0  0  0  0
  160.0870  201.7050  145.9200 C   0  0  0  0  0  3  0  0  0  0  0  0
  161.3800  197.8050  145.3550 F   0  0  0  0  0  0  0  0  0  0  0  0
  161.5380  205.8830  143.7880 C   0  0  0  0  0  1  0  0  0  0  0  0
  162.1170  206.1630  145.0550 O   0  0  0  0  0  0  0  0  0  0  0  0
  161.3230  204.1400  151.9630 N   0  0  0  0  0  2  0  0  0  0  0  0
  162.1800  206.2850  152.2850 C   0  0  0  0  0  3  0  0  0  0  0  0
  161.1570  205.4980  152.2560 N   0  0  0  0  0  0  0  0  0  0  0  0
  162.4600  208.0270  150.2090 O   0  0  0  0  0  1  0  0  0  0  0  0
  162.0060  207.7360  152.6000 C   0  0  1  0  0  3  0  0  0  0  0  0
  162.3520  208.7010  151.4290 C   0  0  2  0  0  3  0  0  0  0  0  0
  161.2120  210.3190  152.5690 C   0  0  0  0  0  2  0  0  0  0  0  0
  160.6800  209.2900  153.5850 C   0  0  0  0  0  2  0  0  0  0  0  0
  160.6990  207.9800  153.0580 O   0  0  0  0  0  0  0  0  0  0  0  0
  161.3830  209.7210  151.3050 O   0  0  0  0  0  0  0  0  0  0  0  0
  2 11  1  0  0  0  0
  3 14  2  0  0  0  0
  4  8  2  0  0  0  0
  5  2  2  0  0  0  0
  7  1  1  1  0  0  0
  7  2  1  0  0  0  0
  7  3  1  0  0  0  0
  8 25  1  0  0  0  0
  9 13  1  0  0  0  0
  9  3  1  0  0  0  0
 10  1  2  0  0  0  0
 10 15  1  0  0  0  0
 11  6  1  0  0  0  0
 12  4  1  0  0  0  0
 13 12  2  0  0  0  0
 14  6  1  0  0  0  0
 14  8  1  0  0  0  0
 15  9  2  0  0  0  0
 16 20  1  0  0  0  0
 17 19  1  0  0  0  0
 17 16  2  0  0  0  0
 18 13  1  0  0  0  0
 19 21  2  0  0  0  0
 20 18  2  0  0  0  0
 21 18  1  0  0  0  0
 22 16  1  0  0  0  0
 23 24  1  0  0  0  0
 24  1  1  0  0  0  0
 25 27  1  0  0  0  0
 27 26  2  0  0  0  0
 29 26  1  6  0  0  0
 29 33  1  0  0  0  0
 30 28  1  6  0  0  0
 30 29  1  0  0  0  0
 31 32  1  0  0  0  0
 33 32  1  0  0  0  0
 34 30  1  0  0  0  0
 34 31  1  0  0  0  0
M  END
>  <MODEL>
9

>  <REMARK>
 VINA RESULT:      -4.0      6.527     10.619
  Name = 
  5 active torsions:
  status: ('A' for Active; 'I' for Inactive)
    1  A    between atoms: C_1  and  O_19
    2  A    between atoms: C_3  and  C_13
    3  A    between atoms: C_12  and  C_28
    4  A    between atoms: N_17  and  N_29
    5  A    between atoms: C_18  and  N_29
                            x       y       z     vdW  Elec       q    Type
                         _______ _______ _______ _____ _____    ______ ____

>  <TORSDO>
F 5

$$$$
