=
 OpenBabel11062409083D

 37 41  0  0  1  0  0  0  0  0999 V2000
  158.9950  210.8560  154.2300 C   0  0  1  0  0  0  0  0  0  0  0  0
  156.8830  212.0690  155.1750 C   0  0  2  0  0  3  0  0  0  0  0  0
  157.3420  214.4360  152.9670 N   0  0  2  0  0  0  0  0  0  0  0  0
  160.2020  210.0530  154.7620 C   0  0  2  0  0  3  0  0  0  0  0  0
  155.4370  214.0650  155.0490 N   0  0  0  0  0  2  0  0  0  0  0  0
  158.3840  213.8550  152.1070 C   0  0  2  0  0  3  0  0  0  0  0  0
  160.0240  211.3790  156.8620 C   0  0  0  0  0  2  0  0  0  0  0  0
  157.7800  214.3320  154.3800 C   0  0  0  0  0  2  0  0  0  0  0  0
  158.0620  214.1460  150.6330 C   0  0  2  0  0  3  0  0  0  0  0  0
  153.8390  214.4530  153.3960 O   0  0  0  0  0  0  0  0  0  0  0  0
  158.2540  211.4150  155.4710 C   0  0  2  0  0  3  0  0  0  0  0  0
  155.6180  214.1720  151.2290 C   0  0  0  0  0  2  0  0  0  0  0  0
  160.9950  210.8370  155.8160 C   0  0  0  0  0  2  0  0  0  0  0  0
  155.0250  214.1420  153.6890 C   0  0  0  0  0  0  0  0  0  0  0  0
  159.0910  212.2370  156.2510 O   0  0  0  0  0  0  0  0  0  0  0  0
  158.5080  212.4510  152.3510 O   0  0  0  0  0  0  0  0  0  0  0  0
  156.0430  213.8020  152.6490 C   0  0  2  0  0  3  0  0  0  0  0  0
  159.4080  211.9780  153.3070 C   0  0  0  0  0  0  0  0  0  0  0  0
  156.7980  213.6100  155.3240 C   0  0  2  0  0  3  0  0  0  0  0  0
  160.5090  212.5730  153.4750 O   0  0  0  0  0  0  0  0  0  0  0  0
  158.1530  209.9780  153.5440 O   0  0  0  0  0  1  0  0  0  0  0  0
  156.6640  213.6470  150.2480 C   0  0  0  0  0  2  0  0  0  0  0  0
  157.7090  214.1610  147.7140 C   0  0  0  0  0  2  0  0  0  0  0  0
  158.9240  213.5910  148.2960 N   0  0  0  0  0  0  0  0  0  0  0  0
  160.2350  213.2380  150.2020 O   0  0  0  0  0  0  0  0  0  0  0  0
  159.9680  213.0440  147.4240 C   0  0  0  0  0  2  0  0  0  0  0  0
  160.5030  212.4860  145.1620 O   0  0  0  0  0  1  0  0  0  0  0  0
  158.1780  212.6210  145.7140 C   0  0  0  0  0  2  0  0  0  0  0  0
  159.5830  213.1760  145.9520 C   0  0  1  0  0  3  0  0  0  0  0  0
  159.1320  213.6200  149.7190 C   0  0  0  0  0  0  0  0  0  0  0  0
  157.1230  213.2090  146.6690 C   0  0  0  0  0  2  0  0  0  0  0  0
  155.3440  210.3870  154.9700 C   0  0  0  0  0  1  0  0  0  0  0  0
  155.8260  211.3910  155.8260 O   0  0  0  0  0  0  0  0  0  0  0  0
  161.0450  209.5950  153.7070 O   0  0  0  0  0  0  0  0  0  0  0  0
  160.9970  208.2800  153.2420 C   0  0  0  0  0  0  0  0  0  0  0  0
  160.8930  208.0480  151.9450 C   0  0  0  0  0  2  0  0  0  0  0  0
  161.0470  207.1810  154.1490 N   0  0  0  0  0  1  0  0  0  0  0  0
  1 21  1  6  0  0  0
  1  4  1  0  0  0  0
  1 11  1  0  0  0  0
  2 19  1  0  0  0  0
  2 11  1  0  0  0  0
  2 33  1  1  0  0  0
  3  8  1  1  0  0  0
  4 34  1  6  0  0  0
  4 13  1  0  0  0  0
  5 19  1  0  0  0  0
  6 16  1  6  0  0  0
  6  3  1  0  0  0  0
  9 30  1  6  0  0  0
  9  6  1  0  0  0  0
 10 14  2  0  0  0  0
 11 15  1  6  0  0  0
 13  7  1  0  0  0  0
 14  5  1  0  0  0  0
 15  7  1  0  0  0  0
 16 18  1  0  0  0  0
 17 12  1  6  0  0  0
 17  3  1  0  0  0  0
 17 14  1  0  0  0  0
 18 20  2  0  0  0  0
 18  1  1  0  0  0  0
 19  8  1  6  0  0  0
 22  9  1  0  0  0  0
 22 12  1  0  0  0  0
 23 24  1  0  0  0  0
 24 30  1  0  0  0  0
 26 24  1  0  0  0  0
 28 29  1  0  0  0  0
 28 31  1  0  0  0  0
 29 27  1  6  0  0  0
 29 26  1  0  0  0  0
 30 25  2  0  0  0  0
 31 23  1  0  0  0  0
 32 33  1  0  0  0  0
 35 34  1  0  0  0  0
 35 37  1  0  0  0  0
 36 35  2  0  0  0  0
M  END
>  <MODEL>
1

>  <REMARK>
 VINA RESULT:      -4.8      0.000      0.000
  Name = 
  4 active torsions:
  status: ('A' for Active; 'I' for Inactive)
    1  A    between atoms: C_3  and  O_32
    2  A    between atoms: C_5  and  O_17
    3  A    between atoms: C_11  and  O_17
    4  A    between atoms: C_14  and  C_31
                            x       y       z     vdW  Elec       q    Type
                         _______ _______ _______ _____ _____    ______ ____

>  <TORSDO>
F 4

$$$$
=
 OpenBabel11062409083D

 37 41  0  0  1  0  0  0  0  0999 V2000
  160.6410  205.5840  148.6620 C   0  0  1  0  0  0  0  0  0  0  0  0
  160.6930  205.0610  151.2210 C   0  0  2  0  0  3  0  0  0  0  0  0
  162.4430  207.7870  151.6710 N   0  0  2  0  0  0  0  0  0  0  0  0
  160.7340  204.8200  147.3240 C   0  0  2  0  0  3  0  0  0  0  0  0
  161.5330  205.7490  153.4380 N   0  0  0  0  0  2  0  0  0  0  0  0
  162.3520  208.4290  150.3510 C   0  0  2  0  0  3  0  0  0  0  0  0
  162.1450  203.1410  148.5020 C   0  0  0  0  0  2  0  0  0  0  0  0
  162.8730  206.3800  151.4850 C   0  0  0  0  0  2  0  0  0  0  0  0
  162.1250  209.9390  150.5240 C   0  0  2  0  0  3  0  0  0  0  0  0
  160.6660  207.5030  154.7060 O   0  0  0  0  0  0  0  0  0  0  0  0
  160.9490  204.5570  149.7810 C   0  0  2  0  0  3  0  0  0  0  0  0
  160.9570  209.4580  152.6990 C   0  0  0  0  0  2  0  0  0  0  0  0
  162.0120  203.9760  147.2310 C   0  0  0  0  0  2  0  0  0  0  0  0
  161.1040  207.0970  153.5970 C   0  0  0  0  0  0  0  0  0  0  0  0
  162.2280  203.9850  149.6240 O   0  0  0  0  0  0  0  0  0  0  0  0
  161.3150  207.8280  149.5710 O   0  0  0  0  0  0  0  0  0  0  0  0
  161.1630  207.9770  152.3900 C   0  0  2  0  0  3  0  0  0  0  0  0
  161.5990  206.7500  148.7310 C   0  0  0  0  0  0  0  0  0  0  0  0
  161.9430  205.3170  152.1040 C   0  0  2  0  0  3  0  0  0  0  0  0
  162.7110  206.7010  148.1330 O   0  0  0  0  0  0  0  0  0  0  0  0
  159.3320  206.0510  148.8100 O   0  0  0  0  0  1  0  0  0  0  0  0
  160.8910  210.2330  151.3840 C   0  0  0  0  0  2  0  0  0  0  0  0
  160.8520  212.5750  150.2500 C   0  0  0  0  0  2  0  0  0  0  0  0
  161.4170  211.9150  149.0730 N   0  0  0  0  0  0  0  0  0  0  0  0
  162.6750  210.1440  148.2030 O   0  0  0  0  0  0  0  0  0  0  0  0
  161.3610  212.5740  147.7640 C   0  0  0  0  0  2  0  0  0  0  0  0
  160.4760  214.4530  146.5810 O   0  0  0  0  0  1  0  0  0  0  0  0
  159.3370  213.8130  148.5870 C   0  0  0  0  0  2  0  0  0  0  0  0
  160.6780  213.9370  147.8610 C   0  0  1  0  0  3  0  0  0  0  0  0
  162.0850  210.6480  149.2000 C   0  0  0  0  0  0  0  0  0  0  0  0
  159.4460  213.0950  149.9440 C   0  0  0  0  0  2  0  0  0  0  0  0
  160.1750  202.9840  152.0310 C   0  0  0  0  0  1  0  0  0  0  0  0
  159.7000  204.2960  151.8760 O   0  0  0  0  0  0  0  0  0  0  0  0
  160.6000  205.6900  146.2020 O   0  0  0  0  0  0  0  0  0  0  0  0
  160.6820  205.2200  144.8900 C   0  0  0  0  0  0  0  0  0  0  0  0
  161.4790  205.8270  144.0270 C   0  0  0  0  0  2  0  0  0  0  0  0
  159.9090  204.1010  144.4650 N   0  0  0  0  0  1  0  0  0  0  0  0
  1 18  1  0  0  0  0
  1 21  1  1  0  0  0
  1 11  1  0  0  0  0
  2 33  1  1  0  0  0
  2 19  1  0  0  0  0
  3  8  1  6  0  0  0
  3 17  1  0  0  0  0
  4 34  1  6  0  0  0
  4  1  1  0  0  0  0
  5 14  1  0  0  0  0
  6 16  1  6  0  0  0
  6  9  1  0  0  0  0
  6  3  1  0  0  0  0
  7 15  1  0  0  0  0
  9 30  1  6  0  0  0
  9 22  1  0  0  0  0
 11 15  1  1  0  0  0
 11  2  1  0  0  0  0
 13  4  1  0  0  0  0
 13  7  1  0  0  0  0
 14 10  2  0  0  0  0
 17 12  1  1  0  0  0
 17 14  1  0  0  0  0
 18 16  1  0  0  0  0
 19  8  1  6  0  0  0
 19  5  1  0  0  0  0
 20 18  2  0  0  0  0
 22 12  1  0  0  0  0
 24 30  1  0  0  0  0
 24 23  1  0  0  0  0
 25 30  2  0  0  0  0
 26 29  1  0  0  0  0
 26 24  1  0  0  0  0
 28 31  1  0  0  0  0
 29 27  1  6  0  0  0
 29 28  1  0  0  0  0
 31 23  1  0  0  0  0
 33 32  1  0  0  0  0
 35 34  1  0  0  0  0
 36 35  2  0  0  0  0
 37 35  1  0  0  0  0
M  END
>  <MODEL>
2

>  <REMARK>
 VINA RESULT:      -3.6      4.521      7.858
  Name = 
  4 active torsions:
  status: ('A' for Active; 'I' for Inactive)
    1  A    between atoms: C_3  and  O_32
    2  A    between atoms: C_5  and  O_17
    3  A    between atoms: C_11  and  O_17
    4  A    between atoms: C_14  and  C_31
                            x       y       z     vdW  Elec       q    Type
                         _______ _______ _______ _____ _____    ______ ____

>  <TORSDO>
F 4

$$$$
=
 OpenBabel11062409083D

 37 41  0  0  1  0  0  0  0  0999 V2000
  159.4750  211.0190  153.7340 C   0  0  1  0  0  0  0  0  0  0  0  0
  157.3200  212.2580  154.5380 C   0  0  2  0  0  3  0  0  0  0  0  0
  157.7260  214.3970  152.0980 N   0  0  2  0  0  0  0  0  0  0  0  0
  160.7000  210.3120  154.3520 C   0  0  2  0  0  3  0  0  0  0  0  0
  155.8170  214.1860  154.1990 N   0  0  0  0  0  2  0  0  0  0  0  0
  158.7910  213.7620  151.3090 C   0  0  2  0  0  3  0  0  0  0  0  0
  160.4670  211.8430  156.3020 C   0  0  0  0  0  2  0  0  0  0  0  0
  158.1560  214.4530  153.5170 C   0  0  0  0  0  2  0  0  0  0  0  0
  158.4730  213.8890  149.8110 C   0  0  2  0  0  3  0  0  0  0  0  0
  154.2210  214.3510  152.5070 O   0  0  0  0  0  0  0  0  0  0  0  0
  158.7070  211.6800  154.9060 C   0  0  2  0  0  3  0  0  0  0  0  0
  156.0250  213.9030  150.3890 C   0  0  0  0  0  2  0  0  0  0  0  0
  161.4620  211.2250  155.3230 C   0  0  0  0  0  2  0  0  0  0  0  0
  155.4130  214.1090  152.8360 C   0  0  0  0  0  0  0  0  0  0  0  0
  159.5140  212.6040  155.6020 O   0  0  0  0  0  0  0  0  0  0  0  0
  158.9550  212.3950  151.6970 O   0  0  0  0  0  0  0  0  0  0  0  0
  156.4490  213.6940  151.8420 C   0  0  2  0  0  3  0  0  0  0  0  0
  159.8620  212.0510  152.7010 C   0  0  0  0  0  0  0  0  0  0  0  0
  157.1880  213.8030  154.5260 C   0  0  2  0  0  3  0  0  0  0  0  0
  160.9430  212.6940  152.8120 O   0  0  0  0  0  0  0  0  0  0  0  0
  158.6640  210.0490  153.1390 O   0  0  0  0  0  1  0  0  0  0  0  0
  157.0940  213.3110  149.4730 C   0  0  0  0  0  2  0  0  0  0  0  0
  158.5920  214.4100  146.9200 C   0  0  0  0  0  2  0  0  0  0  0  0
  159.5820  213.5300  147.5410 N   0  0  0  0  0  0  0  0  0  0  0  0
  160.4940  212.6440  149.5050 O   0  0  0  0  0  0  0  0  0  0  0  0
  160.6390  212.9240  146.7250 C   0  0  0  0  0  2  0  0  0  0  0  0
  161.4180  212.6150  144.4870 O   0  0  0  0  0  1  0  0  0  0  0  0
  159.0940  213.1240  144.7550 C   0  0  0  0  0  2  0  0  0  0  0  0
  160.5200  213.3470  145.2630 C   0  0  1  0  0  3  0  0  0  0  0  0
  159.5650  213.3050  148.9610 C   0  0  0  0  0  0  0  0  0  0  0  0
  158.0210  213.7600  145.6570 C   0  0  0  0  0  2  0  0  0  0  0  0
  156.4780  211.8330  156.6240 C   0  0  0  0  0  1  0  0  0  0  0  0
  156.2790  211.6190  155.2500 O   0  0  0  0  0  0  0  0  0  0  0  0
  161.5650  209.7740  153.3540 O   0  0  0  0  0  0  0  0  0  0  0  0
  161.4020  208.4800  152.8570 C   0  0  0  0  0  0  0  0  0  0  0  0
  161.6900  207.4430  153.6250 C   0  0  0  0  0  2  0  0  0  0  0  0
  160.9380  208.2610  151.5270 N   0  0  0  0  0  1  0  0  0  0  0  0
  1 21  1  6  0  0  0
  1  4  1  0  0  0  0
  1 11  1  0  0  0  0
  2 11  1  0  0  0  0
  2 33  1  1  0  0  0
  3  8  1  1  0  0  0
  4 34  1  6  0  0  0
  4 13  1  0  0  0  0
  5 19  1  0  0  0  0
  6 16  1  1  0  0  0
  6  3  1  0  0  0  0
  9 30  1  6  0  0  0
  9  6  1  0  0  0  0
 10 14  2  0  0  0  0
 11 15  1  6  0  0  0
 13  7  1  0  0  0  0
 14  5  1  0  0  0  0
 15  7  1  0  0  0  0
 16 18  1  0  0  0  0
 17 12  1  6  0  0  0
 17  3  1  0  0  0  0
 17 14  1  0  0  0  0
 18 20  2  0  0  0  0
 18  1  1  0  0  0  0
 19  8  1  6  0  0  0
 19  2  1  0  0  0  0
 22  9  1  0  0  0  0
 22 12  1  0  0  0  0
 23 24  1  0  0  0  0
 24 30  1  0  0  0  0
 26 24  1  0  0  0  0
 28 29  1  0  0  0  0
 28 31  1  0  0  0  0
 29 27  1  6  0  0  0
 29 26  1  0  0  0  0
 30 25  2  0  0  0  0
 31 23  1  0  0  0  0
 33 32  1  0  0  0  0
 35 34  1  0  0  0  0
 35 36  2  0  0  0  0
 37 35  1  0  0  0  0
M  END
>  <MODEL>
3

>  <REMARK>
 VINA RESULT:      -3.5      1.080      1.135
  Name = 
  4 active torsions:
  status: ('A' for Active; 'I' for Inactive)
    1  A    between atoms: C_3  and  O_32
    2  A    between atoms: C_5  and  O_17
    3  A    between atoms: C_11  and  O_17
    4  A    between atoms: C_14  and  C_31
                            x       y       z     vdW  Elec       q    Type
                         _______ _______ _______ _____ _____    ______ ____

>  <TORSDO>
F 4

$$$$
=
 OpenBabel11062409083D

 37 41  0  0  1  0  0  0  0  0999 V2000
  158.7710  213.6210  152.5300 C   0  0  1  0  0  0  0  0  0  0  0  0
  159.2710  213.3410  155.0800 C   0  0  2  0  0  3  0  0  0  0  0  0
  160.2720  210.2870  154.4760 N   0  0  2  0  0  0  0  0  0  0  0  0
  157.7050  214.2750  151.6270 C   0  0  2  0  0  3  0  0  0  0  0  0
  160.0190  211.8120  156.8660 N   0  0  0  0  0  2  0  0  0  0  0  0
  160.3160  210.2650  153.0070 C   0  0  2  0  0  3  0  0  0  0  0  0
  156.0670  213.8930  153.4630 C   0  0  0  0  0  2  0  0  0  0  0  0
  158.9500  210.8070  154.9030 C   0  0  0  0  0  2  0  0  0  0  0  0
  161.5800  209.5280  152.5370 C   0  0  2  0  0  3  0  0  0  0  0  0
  162.2360  211.2050  157.2610 O   0  0  0  0  0  0  0  0  0  0  0  0
  158.2520  213.7380  153.9850 C   0  0  2  0  0  3  0  0  0  0  0  0
  162.7270  210.2650  154.6510 C   0  0  0  0  0  2  0  0  0  0  0  0
  156.2900  213.7810  151.9560 C   0  0  0  0  0  2  0  0  0  0  0  0
  161.2890  211.3310  156.4390 C   0  0  0  0  0  0  0  0  0  0  0  0
  157.0050  213.0990  154.1460 O   0  0  0  0  0  0  0  0  0  0  0  0
  160.2570  211.5940  152.4830 O   0  0  0  0  0  0  0  0  0  0  0  0
  161.4470  211.0290  154.9830 C   0  0  2  0  0  3  0  0  0  0  0  0
  159.0260  212.1750  152.1710 C   0  0  0  0  0  0  0  0  0  0  0  0
  158.9930  212.0240  155.8490 C   0  0  2  0  0  3  0  0  0  0  0  0
  158.0970  211.4570  151.7080 O   0  0  0  0  0  0  0  0  0  0  0  0
  159.9580  214.3460  152.4030 O   0  0  0  0  0  1  0  0  0  0  0  0
  162.8510  210.1450  153.1330 C   0  0  0  0  0  2  0  0  0  0  0  0
  160.7730  207.0670  151.1460 C   0  0  0  0  0  2  0  0  0  0  0  0
  161.2850  208.2010  150.3770 N   0  0  0  0  0  0  0  0  0  0  0  0
  161.9620  210.4410  150.3570 O   0  0  0  0  0  0  0  0  0  0  0  0
  161.3790  208.1150  148.9160 C   0  0  0  0  0  2  0  0  0  0  0  0
  161.1620  206.6400  147.0480 O   0  0  0  0  0  1  0  0  0  0  0  0
  161.5690  205.6240  149.1770 C   0  0  0  0  0  2  0  0  0  0  0  0
  160.8890  206.7600  148.4100 C   0  0  1  0  0  3  0  0  0  0  0  0
  161.6380  209.4290  151.0390 C   0  0  0  0  0  0  0  0  0  0  0  0
  161.4610  205.7730  150.7050 C   0  0  0  0  0  2  0  0  0  0  0  0
  158.6360  214.4530  156.9770 C   0  0  0  0  0  1  0  0  0  0  0  0
  159.5750  214.4270  155.9330 O   0  0  0  0  0  0  0  0  0  0  0  0
  158.0050  214.1130  150.2420 O   0  0  0  0  0  0  0  0  0  0  0  0
  157.0210  213.7900  149.3070 C   0  0  0  0  0  0  0  0  0  0  0  0
  157.3120  212.9770  148.3050 C   0  0  0  0  0  2  0  0  0  0  0  0
  155.7080  214.3330  149.4110 N   0  0  0  0  0  1  0  0  0  0  0  0
  1 21  1  6  0  0  0
  1 11  1  0  0  0  0
  2 19  1  0  0  0  0
  2 33  1  1  0  0  0
  3  8  1  6  0  0  0
  3 17  1  0  0  0  0
  4 34  1  6  0  0  0
  4 13  1  0  0  0  0
  4  1  1  0  0  0  0
  6 16  1  1  0  0  0
  6  3  1  0  0  0  0
  7 15  1  0  0  0  0
  9 30  1  6  0  0  0
  9  6  1  0  0  0  0
  9 22  1  0  0  0  0
 11 15  1  6  0  0  0
 11  2  1  0  0  0  0
 13  7  1  0  0  0  0
 14  5  1  0  0  0  0
 14 10  2  0  0  0  0
 17 12  1  1  0  0  0
 17 14  1  0  0  0  0
 18 16  1  0  0  0  0
 18  1  1  0  0  0  0
 19  8  1  6  0  0  0
 19  5  1  0  0  0  0
 20 18  2  0  0  0  0
 22 12  1  0  0  0  0
 24 30  1  0  0  0  0
 24 23  1  0  0  0  0
 25 30  2  0  0  0  0
 26 24  1  0  0  0  0
 28 31  1  0  0  0  0
 29 27  1  6  0  0  0
 29 26  1  0  0  0  0
 29 28  1  0  0  0  0
 31 23  1  0  0  0  0
 33 32  1  0  0  0  0
 35 37  1  0  0  0  0
 35 34  1  0  0  0  0
 36 35  2  0  0  0  0
M  END
>  <MODEL>
4

>  <REMARK>
 VINA RESULT:      -3.3      2.552      6.121
  Name = 
  4 active torsions:
  status: ('A' for Active; 'I' for Inactive)
    1  A    between atoms: C_3  and  O_32
    2  A    between atoms: C_5  and  O_17
    3  A    between atoms: C_11  and  O_17
    4  A    between atoms: C_14  and  C_31
                            x       y       z     vdW  Elec       q    Type
                         _______ _______ _______ _____ _____    ______ ____

>  <TORSDO>
F 4

$$$$
=
 OpenBabel11062409083D

 37 41  0  0  1  0  0  0  0  0999 V2000
  159.8150  210.2300  153.4160 C   0  0  1  0  0  0  0  0  0  0  0  0
  159.0560  211.5510  155.5390 C   0  0  2  0  0  3  0  0  0  0  0  0
  158.3460  214.0970  153.6130 N   0  0  2  0  0  0  0  0  0  0  0  0
  160.9260  209.2400  153.0070 C   0  0  2  0  0  3  0  0  0  0  0  0
  158.2230  213.6970  156.4290 N   0  0  0  0  0  2  0  0  0  0  0  0
  158.4680  213.5080  152.2710 C   0  0  2  0  0  3  0  0  0  0  0  0
  162.3730  210.3200  154.7220 C   0  0  0  0  0  2  0  0  0  0  0  0
  159.5720  213.7770  154.3840 C   0  0  0  0  0  2  0  0  0  0  0  0
  157.3180  214.0060  151.3810 C   0  0  2  0  0  3  0  0  0  0  0  0
  156.0250  214.4530  156.2480 O   0  0  0  0  0  0  0  0  0  0  0  0
  160.1600  210.7170  154.8460 C   0  0  2  0  0  3  0  0  0  0  0  0
  155.8940  214.2340  153.4420 C   0  0  0  0  0  2  0  0  0  0  0  0
  162.3280  209.8000  153.2870 C   0  0  0  0  0  2  0  0  0  0  0  0
  157.0460  213.9800  155.6800 C   0  0  0  0  0  0  0  0  0  0  0  0
  161.4230  211.3420  154.8920 O   0  0  0  0  0  0  0  0  0  0  0  0
  158.4900  212.0800  152.3510 O   0  0  0  0  0  0  0  0  0  0  0  0
  157.0720  213.6530  154.2220 C   0  0  2  0  0  3  0  0  0  0  0  0
  159.7040  211.4000  152.4670 C   0  0  0  0  0  0  0  0  0  0  0  0
  159.3390  213.0630  155.7300 C   0  0  2  0  0  3  0  0  0  0  0  0
  160.7270  211.8440  151.8760 O   0  0  0  0  0  0  0  0  0  0  0  0
  158.6010  209.5390  153.4440 O   0  0  0  0  0  1  0  0  0  0  0  0
  155.9490  213.7150  152.0060 C   0  0  0  0  0  2  0  0  0  0  0  0
  159.9440  213.6060  150.1210 C   0  0  0  0  0  2  0  0  0  0  0  0
  158.7250  213.3310  149.3610 N   0  0  0  0  0  0  0  0  0  0  0  0
  156.3940  213.1210  149.3570 O   0  0  0  0  0  0  0  0  0  0  0  0
  158.8140  212.8430  147.9810 C   0  0  0  0  0  2  0  0  0  0  0  0
  160.3210  212.4040  146.1790 O   0  0  0  0  0  1  0  0  0  0  0  0
  161.0540  213.9700  147.8350 C   0  0  0  0  0  2  0  0  0  0  0  0
  160.2690  212.6900  147.5430 C   0  0  1  0  0  3  0  0  0  0  0  0
  157.4340  213.4760  149.9800 C   0  0  0  0  0  0  0  0  0  0  0  0
  160.9090  214.4530  149.2890 C   0  0  0  0  0  2  0  0  0  0  0  0
  159.6020  210.1000  157.2230 C   0  0  0  0  0  1  0  0  0  0  0  0
  158.5830  210.9230  156.7140 O   0  0  0  0  0  0  0  0  0  0  0  0
  160.7940  208.8190  151.6510 O   0  0  0  0  0  0  0  0  0  0  0  0
  161.2420  207.5690  151.2200 C   0  0  0  0  0  0  0  0  0  0  0  0
  161.1090  206.5180  152.0100 C   0  0  0  0  0  2  0  0  0  0  0  0
  161.8530  207.4130  149.9420 N   0  0  0  0  0  1  0  0  0  0  0  0
  1 21  1  1  0  0  0
  1 11  1  0  0  0  0
  2 19  1  0  0  0  0
  2 33  1  1  0  0  0
  3 17  1  0  0  0  0
  3  8  1  1  0  0  0
  4 34  1  6  0  0  0
  4 13  1  0  0  0  0
  4  1  1  0  0  0  0
  6 16  1  1  0  0  0
  6  3  1  0  0  0  0
  7 15  1  0  0  0  0
  9 30  1  6  0  0  0
  9 22  1  0  0  0  0
  9  6  1  0  0  0  0
 11 15  1  6  0  0  0
 11  2  1  0  0  0  0
 13  7  1  0  0  0  0
 14 10  2  0  0  0  0
 14  5  1  0  0  0  0
 16 18  1  0  0  0  0
 17 12  1  6  0  0  0
 17 14  1  0  0  0  0
 18  1  1  0  0  0  0
 19  8  1  6  0  0  0
 19  5  1  0  0  0  0
 20 18  2  0  0  0  0
 22 12  1  0  0  0  0
 24 30  1  0  0  0  0
 24 23  1  0  0  0  0
 25 30  2  0  0  0  0
 26 24  1  0  0  0  0
 28 31  1  0  0  0  0
 29 27  1  6  0  0  0
 29 28  1  0  0  0  0
 29 26  1  0  0  0  0
 31 23  1  0  0  0  0
 33 32  1  0  0  0  0
 35 34  1  0  0  0  0
 35 36  2  0  0  0  0
 37 35  1  0  0  0  0
M  END
>  <MODEL>
5

>  <REMARK>
 VINA RESULT:      -2.5      1.795      2.555
  Name = 
  4 active torsions:
  status: ('A' for Active; 'I' for Inactive)
    1  A    between atoms: C_3  and  O_32
    2  A    between atoms: C_5  and  O_17
    3  A    between atoms: C_11  and  O_17
    4  A    between atoms: C_14  and  C_31
                            x       y       z     vdW  Elec       q    Type
                         _______ _______ _______ _____ _____    ______ ____

>  <TORSDO>
F 4

$$$$
