=
 OpenBabel11052423083D

 27 31  0  0  1  0  0  0  0  0999 V2000
  162.4350  208.4270  149.5990 N   0  0  2  0  0  0  0  0  0  0  0  0
  161.2870  209.8180  151.0270 C   0  0  0  0  0  0  0  0  0  0  0  0
  162.0210  207.6260  150.7990 C   0  0  1  0  0  3  0  0  0  0  0  0
  160.2960  209.6750  155.0800 C   0  0  0  0  0  3  0  0  0  0  0  0
  160.1540  208.4440  157.1500 O   0  0  0  0  0  1  0  0  0  0  0  0
  160.7780  210.9720  151.6320 C   0  0  0  0  0  3  0  0  0  0  0  0
  161.3570  207.4010  153.8190 C   0  0  0  0  0  3  0  0  0  0  0  0
  160.1880  204.3790  150.3560 O   0  0  0  0  0  1  0  0  0  0  0  0
  161.0170  207.3600  155.1740 C   0  0  0  0  0  3  0  0  0  0  0  0
  161.8220  205.1160  148.7790 C   0  0  0  0  0  2  0  0  0  0  0  0
  161.4900  208.6660  151.7290 C   0  0  0  0  0  0  0  0  0  0  0  0
  161.7660  209.6700  149.7000 N   0  0  0  0  0  0  0  0  0  0  0  0
  160.4890  208.4930  155.8040 C   0  0  0  0  0  0  0  0  0  0  0  0
  160.6310  209.7280  153.7250 C   0  0  0  0  0  0  0  0  0  0  0  0
  162.3410  207.8450  148.2460 C   0  0  0  0  0  2  0  0  0  0  0  0
  161.1670  208.5790  153.0880 C   0  0  0  0  0  0  0  0  0  0  0  0
  161.2770  205.2370  150.2030 C   0  0  1  0  0  3  0  0  0  0  0  0
  160.4410  210.9160  152.9950 C   0  0  0  0  0  3  0  0  0  0  0  0
  160.9630  205.8170  147.7160 C   0  0  0  0  0  2  0  0  0  0  0  0
  160.9530  207.3420  147.8660 C   0  0  0  0  0  2  0  0  0  0  0  0
  160.8530  206.6550  150.5710 C   0  0  0  0  0  2  0  0  0  0  0  0
  162.4790  212.9420  147.0850 C   0  0  0  0  0  3  0  0  0  0  0  0
  162.0100  210.7750  148.8080 C   0  0  0  0  0  0  0  0  0  0  0  0
  163.2710  211.3880  148.7630 C   0  0  0  0  0  3  0  0  0  0  0  0
  163.5050  212.4660  147.9040 C   0  0  0  0  0  3  0  0  0  0  0  0
  161.2180  212.3410  147.1240 C   0  0  0  0  0  3  0  0  0  0  0  0
  160.9850  211.2640  147.9830 C   0  0  0  0  0  3  0  0  0  0  0  0
  1 15  1  6  0  0  0
  1 12  1  0  0  0  0
  1  3  1  0  0  0  0
  2  6  2  0  0  0  0
  2 11  1  0  0  0  0
  3 21  1  6  0  0  0
  3 11  1  0  0  0  0
  4 13  2  0  0  0  0
  6 18  1  0  0  0  0
  7  9  2  0  0  0  0
  9 13  1  0  0  0  0
 10 17  1  0  0  0  0
 11 16  2  0  0  0  0
 12  2  1  0  0  0  0
 13  5  1  0  0  0  0
 14  4  1  0  0  0  0
 16 14  1  0  0  0  0
 16  7  1  0  0  0  0
 17  8  1  6  0  0  0
 17 21  1  0  0  0  0
 18 14  2  0  0  0  0
 19 20  1  0  0  0  0
 19 10  1  0  0  0  0
 20 15  1  0  0  0  0
 22 26  2  0  0  0  0
 22 25  1  0  0  0  0
 23 12  1  0  0  0  0
 24 23  1  0  0  0  0
 25 24  2  0  0  0  0
 26 27  1  0  0  0  0
 27 23  2  0  0  0  0
M  END
>  <MODEL>
1

>  <REMARK>
 VINA RESULT:      -6.8      0.000      0.000
  Name = 
  1 active torsions:
  status: ('A' for Active; 'I' for Inactive)
    1  A    between atoms: C_9  and  N_15
                            x       y       z     vdW  Elec       q    Type
                         _______ _______ _______ _____ _____    ______ ____

>  <TORSDO>
F 1

$$$$
=
 OpenBabel11052423083D

 27 31  0  0  1  0  0  0  0  0999 V2000
  160.7250  209.6520  151.2710 N   0  0  2  0  0  0  0  0  0  0  0  0
  161.7780  208.5310  149.5590 C   0  0  0  0  0  0  0  0  0  0  0  0
  160.6510  208.1800  151.5600 C   0  0  1  0  0  3  0  0  0  0  0  0
  161.7150  204.5960  148.1650 C   0  0  0  0  0  3  0  0  0  0  0  0
  161.0810  202.2880  148.4650 O   0  0  0  0  0  1  0  0  0  0  0  0
  162.3710  208.2490  148.3240 C   0  0  0  0  0  3  0  0  0  0  0  0
  160.5070  205.2290  150.6210 C   0  0  0  0  0  3  0  0  0  0  0  0
  161.7680  206.8590  154.8920 O   0  0  0  0  0  1  0  0  0  0  0  0
  160.4960  203.9130  150.1500 C   0  0  0  0  0  3  0  0  0  0  0  0
  160.7630  209.0140  154.6760 C   0  0  0  0  0  2  0  0  0  0  0  0
  161.1620  207.5640  150.3000 C   0  0  0  0  0  0  0  0  0  0  0  0
  161.6090  209.7980  150.1750 N   0  0  0  0  0  0  0  0  0  0  0  0
  161.0970  203.5970  148.9260 C   0  0  0  0  0  0  0  0  0  0  0  0
  161.7340  205.9150  148.6270 C   0  0  0  0  0  0  0  0  0  0  0  0
  161.0070  210.6110  152.3550 C   0  0  0  0  0  2  0  0  0  0  0  0
  161.1240  206.2340  149.8670 C   0  0  0  0  0  0  0  0  0  0  0  0
  160.9660  207.6320  154.0540 C   0  0  1  0  0  3  0  0  0  0  0  0
  162.3510  206.9230  147.8620 C   0  0  0  0  0  3  0  0  0  0  0  0
  161.9860  209.9380  154.5650 C   0  0  0  0  0  2  0  0  0  0  0  0
  162.2980  210.3430  153.1200 C   0  0  0  0  0  2  0  0  0  0  0  0
  161.5940  207.6790  152.6650 C   0  0  0  0  0  2  0  0  0  0  0  0
  162.2710  213.4910  148.1800 C   0  0  0  0  0  3  0  0  0  0  0  0
  161.8380  211.0520  149.5040 C   0  0  0  0  0  0  0  0  0  0  0  0
  160.9480  212.1240  149.6760 C   0  0  0  0  0  3  0  0  0  0  0  0
  161.1640  213.3380  149.0190 C   0  0  0  0  0  3  0  0  0  0  0  0
  163.1610  212.4290  147.9990 C   0  0  0  0  0  3  0  0  0  0  0  0
  162.9440  211.2160  148.6570 C   0  0  0  0  0  3  0  0  0  0  0  0
  1  3  1  0  0  0  0
  1 15  1  1  0  0  0
  2 12  1  0  0  0  0
  2 11  1  0  0  0  0
  3 21  1  1  0  0  0
  4 14  1  0  0  0  0
  4 13  2  0  0  0  0
  5 13  1  0  0  0  0
  6  2  2  0  0  0  0
  9  7  2  0  0  0  0
 11  3  1  0  0  0  0
 12  1  1  0  0  0  0
 13  9  1  0  0  0  0
 14 16  1  0  0  0  0
 15 20  1  0  0  0  0
 16 11  2  0  0  0  0
 16  7  1  0  0  0  0
 17 10  1  0  0  0  0
 17  8  1  1  0  0  0
 18  6  1  0  0  0  0
 18 14  2  0  0  0  0
 19 10  1  0  0  0  0
 20 19  1  0  0  0  0
 21 17  1  0  0  0  0
 22 25  1  0  0  0  0
 23 24  1  0  0  0  0
 23 12  1  0  0  0  0
 25 24  2  0  0  0  0
 26 22  2  0  0  0  0
 26 27  1  0  0  0  0
 27 23  2  0  0  0  0
M  END
>  <MODEL>
2

>  <REMARK>
 VINA RESULT:      -6.7      1.441      5.159
  Name = 
  1 active torsions:
  status: ('A' for Active; 'I' for Inactive)
    1  A    between atoms: C_9  and  N_15
                            x       y       z     vdW  Elec       q    Type
                         _______ _______ _______ _____ _____    ______ ____

>  <TORSDO>
F 1

$$$$
=
 OpenBabel11052423083D

 27 31  0  0  1  0  0  0  0  0999 V2000
  160.6780  207.0300  150.3000 N   0  0  2  0  0  0  0  0  0  0  0  0
  161.2080  206.5570  152.4890 C   0  0  0  0  0  0  0  0  0  0  0  0
  160.7870  208.3280  151.0450 C   0  0  1  0  0  3  0  0  0  0  0  0
  160.9440  208.6670  156.0820 C   0  0  0  0  0  3  0  0  0  0  0  0
  160.5750  210.7390  157.2610 O   0  0  0  0  0  1  0  0  0  0  0  0
  161.3990  205.8630  153.6880 C   0  0  0  0  0  3  0  0  0  0  0  0
  160.5320  210.0000  153.6440 C   0  0  0  0  0  3  0  0  0  0  0  0
  162.9670  211.0830  149.7220 O   0  0  0  0  0  1  0  0  0  0  0  0
  160.4520  210.7000  154.8510 C   0  0  0  0  0  3  0  0  0  0  0  0
  161.8200  209.5860  148.2580 C   0  0  0  0  0  2  0  0  0  0  0  0
  160.9130  207.8890  152.4670 C   0  0  0  0  0  0  0  0  0  0  0  0
  161.1650  206.0280  151.1730 N   0  0  0  0  0  0  0  0  0  0  0  0
  160.6570  210.0370  156.0660 C   0  0  0  0  0  0  0  0  0  0  0  0
  161.0290  207.9570  154.8810 C   0  0  0  0  0  0  0  0  0  0  0  0
  161.2290  206.9050  148.9370 C   0  0  0  0  0  2  0  0  0  0  0  0
  160.8200  208.6310  153.6500 C   0  0  0  0  0  0  0  0  0  0  0  0
  161.8990  210.1900  149.6610 C   0  0  1  0  0  3  0  0  0  0  0  0
  161.3150  206.5790  154.8930 C   0  0  0  0  0  3  0  0  0  0  0  0
  162.8890  208.5200  147.9720 C   0  0  0  0  0  2  0  0  0  0  0  0
  162.7080  207.2530  148.8150 C   0  0  0  0  0  2  0  0  0  0  0  0
  162.0560  209.1460  150.7620 C   0  0  0  0  0  2  0  0  0  0  0  0
  160.9440  201.8740  150.3060 C   0  0  0  0  0  3  0  0  0  0  0  0
  161.0970  204.6190  150.8780 C   0  0  0  0  0  0  0  0  0  0  0  0
  160.8310  204.1770  149.5730 C   0  0  0  0  0  3  0  0  0  0  0  0
  160.7560  202.8110  149.2880 C   0  0  0  0  0  3  0  0  0  0  0  0
  161.2060  202.3030  151.6100 C   0  0  0  0  0  3  0  0  0  0  0  0
  161.2810  203.6690  151.8940 C   0  0  0  0  0  3  0  0  0  0  0  0
  1 15  1  6  0  0  0
  1  3  1  0  0  0  0
  1 12  1  0  0  0  0
  2  6  1  0  0  0  0
  3 21  1  6  0  0  0
  3 11  1  0  0  0  0
  6 18  2  0  0  0  0
  7 16  2  0  0  0  0
  7  9  1  0  0  0  0
  9 13  2  0  0  0  0
 10 17  1  0  0  0  0
 11  2  2  0  0  0  0
 11 16  1  0  0  0  0
 12  2  1  0  0  0  0
 13  4  1  0  0  0  0
 13  5  1  0  0  0  0
 14 18  1  0  0  0  0
 14  4  2  0  0  0  0
 16 14  1  0  0  0  0
 17  8  1  6  0  0  0
 17 21  1  0  0  0  0
 19 10  1  0  0  0  0
 19 20  1  0  0  0  0
 20 15  1  0  0  0  0
 22 26  1  0  0  0  0
 23 12  1  0  0  0  0
 23 27  1  0  0  0  0
 24 23  2  0  0  0  0
 25 24  1  0  0  0  0
 25 22  2  0  0  0  0
 26 27  2  0  0  0  0
M  END
>  <MODEL>
3

>  <REMARK>
 VINA RESULT:      -6.1      2.279      5.387
  Name = 
  1 active torsions:
  status: ('A' for Active; 'I' for Inactive)
    1  A    between atoms: C_9  and  N_15
                            x       y       z     vdW  Elec       q    Type
                         _______ _______ _______ _____ _____    ______ ____

>  <TORSDO>
F 1

$$$$
=
 OpenBabel11052423083D

 27 31  0  0  1  0  0  0  0  0999 V2000
  160.3140  204.2520  150.4000 N   0  0  2  0  0  0  0  0  0  0  0  0
  161.4850  205.7730  149.1310 C   0  0  0  0  0  0  0  0  0  0  0  0
  160.4560  203.6930  149.0140 C   0  0  1  0  0  3  0  0  0  0  0  0
  161.9570  206.4130  145.0320 C   0  0  0  0  0  3  0  0  0  0  0  0
  161.6650  205.6650  142.7570 O   0  0  0  0  0  1  0  0  0  0  0  0
  162.0890  206.9600  148.7040 C   0  0  0  0  0  3  0  0  0  0  0  0
  160.7180  204.0640  145.9460 C   0  0  0  0  0  3  0  0  0  0  0  0
  161.8110  200.2280  148.5100 O   0  0  0  0  0  1  0  0  0  0  0  0
  160.8850  204.2840  144.5760 C   0  0  0  0  0  3  0  0  0  0  0  0
  160.5060  200.7920  150.4280 C   0  0  0  0  0  2  0  0  0  0  0  0
  161.0270  204.8400  148.2460 C   0  0  0  0  0  0  0  0  0  0  0  0
  161.1480  205.3940  150.4560 N   0  0  0  0  0  0  0  0  0  0  0  0
  161.5030  205.4540  144.1200 C   0  0  0  0  0  0  0  0  0  0  0  0
  161.7970  206.2040  146.4040 C   0  0  0  0  0  0  0  0  0  0  0  0
  160.4770  203.3770  151.5760 C   0  0  0  0  0  2  0  0  0  0  0  0
  161.1710  205.0180  146.8650 C   0  0  0  0  0  0  0  0  0  0  0  0
  160.8920  201.1580  148.9940 C   0  0  1  0  0  3  0  0  0  0  0  0
  162.2500  207.1680  147.3240 C   0  0  0  0  0  3  0  0  0  0  0  0
  161.5820  201.1270  151.4730 C   0  0  0  0  0  2  0  0  0  0  0  0
  161.8070  202.6340  151.6360 C   0  0  0  0  0  2  0  0  0  0  0  0
  161.4810  202.5580  148.8630 C   0  0  0  0  0  2  0  0  0  0  0  0
  161.2330  208.0440  153.7760 C   0  0  0  0  0  3  0  0  0  0  0  0
  161.1840  206.2940  151.5800 C   0  0  0  0  0  0  0  0  0  0  0  0
  161.5560  205.8320  152.8510 C   0  0  0  0  0  3  0  0  0  0  0  0
  161.5820  206.7030  153.9440 C   0  0  0  0  0  3  0  0  0  0  0  0
  160.8560  208.5150  152.5150 C   0  0  0  0  0  3  0  0  0  0  0  0
  160.8310  207.6440  151.4230 C   0  0  0  0  0  3  0  0  0  0  0  0
  1 12  1  0  0  0  0
  1 15  1  1  0  0  0
  2 12  1  0  0  0  0
  3 21  1  1  0  0  0
  3  1  1  0  0  0  0
  4 14  1  0  0  0  0
  5 13  1  0  0  0  0
  6  2  1  0  0  0  0
  7 16  1  0  0  0  0
  9  7  2  0  0  0  0
 10 19  1  0  0  0  0
 11  3  1  0  0  0  0
 11  2  2  0  0  0  0
 12 23  1  0  0  0  0
 13  9  1  0  0  0  0
 13  4  2  0  0  0  0
 14 16  2  0  0  0  0
 14 18  1  0  0  0  0
 15 20  1  0  0  0  0
 16 11  1  0  0  0  0
 17  8  1  1  0  0  0
 17 10  1  0  0  0  0
 18  6  2  0  0  0  0
 19 20  1  0  0  0  0
 21 17  1  0  0  0  0
 22 25  1  0  0  0  0
 23 24  1  0  0  0  0
 24 25  2  0  0  0  0
 26 22  2  0  0  0  0
 27 23  2  0  0  0  0
 27 26  1  0  0  0  0
M  END
>  <MODEL>
4

>  <REMARK>
 VINA RESULT:      -6.0      3.793      7.360
  Name = 
  1 active torsions:
  status: ('A' for Active; 'I' for Inactive)
    1  A    between atoms: C_9  and  N_15
                            x       y       z     vdW  Elec       q    Type
                         _______ _______ _______ _____ _____    ______ ____

>  <TORSDO>
F 1

$$$$
=
 OpenBabel11052423083D

 27 31  0  0  1  0  0  0  0  0999 V2000
  162.3000  208.9470  151.2490 N   0  0  2  0  0  0  0  0  0  0  0  0
  161.1870  206.9590  150.9330 C   0  0  0  0  0  0  0  0  0  0  0  0
  162.3310  208.6230  149.7840 C   0  0  1  0  0  3  0  0  0  0  0  0
  161.1060  204.1060  147.8850 C   0  0  0  0  0  3  0  0  0  0  0  0
  161.6710  203.4410  145.6360 O   0  0  0  0  0  1  0  0  0  0  0  0
  160.5680  205.7290  151.1830 C   0  0  0  0  0  3  0  0  0  0  0  0
  162.3680  206.5780  147.4530 C   0  0  0  0  0  3  0  0  0  0  0  0
  161.2210  211.1760  147.2650 O   0  0  0  0  0  1  0  0  0  0  0  0
  162.3310  205.6200  146.4360 C   0  0  0  0  0  3  0  0  0  0  0  0
  162.2900  211.8140  149.3020 C   0  0  0  0  0  2  0  0  0  0  0  0
  161.7830  207.2350  149.7360 C   0  0  0  0  0  0  0  0  0  0  0  0
  161.4050  208.0250  151.8420 N   0  0  0  0  0  0  0  0  0  0  0  0
  161.7030  204.3880  146.6510 C   0  0  0  0  0  0  0  0  0  0  0  0
  161.1350  205.0570  148.9080 C   0  0  0  0  0  0  0  0  0  0  0  0
  162.0630  210.3320  151.7000 C   0  0  0  0  0  2  0  0  0  0  0  0
  161.7730  206.3050  148.6900 C   0  0  0  0  0  0  0  0  0  0  0  0
  162.0350  210.6960  148.2900 C   0  0  1  0  0  3  0  0  0  0  0  0
  160.5390  204.7760  150.1520 C   0  0  0  0  0  3  0  0  0  0  0  0
  161.0950  212.1130  150.2220 C   0  0  0  0  0  2  0  0  0  0  0  0
  160.7750  210.9590  151.1780 C   0  0  0  0  0  2  0  0  0  0  0  0
  161.3890  209.4580  148.9040 C   0  0  0  0  0  2  0  0  0  0  0  0
  160.8000  207.7030  156.0360 C   0  0  0  0  0  3  0  0  0  0  0  0
  161.2060  207.9180  153.2650 C   0  0  0  0  0  0  0  0  0  0  0  0
  161.3700  206.6850  153.9160 C   0  0  0  0  0  3  0  0  0  0  0  0
  161.1690  206.5780  155.2950 C   0  0  0  0  0  3  0  0  0  0  0  0
  160.6300  208.9340  155.3980 C   0  0  0  0  0  3  0  0  0  0  0  0
  160.8310  209.0400  154.0190 C   0  0  0  0  0  3  0  0  0  0  0  0
  1 15  1  6  0  0  0
  1 12  1  0  0  0  0
  2  6  1  0  0  0  0
  2 12  1  0  0  0  0
  3 21  1  6  0  0  0
  3  1  1  0  0  0  0
  4 14  1  0  0  0  0
  5 13  1  0  0  0  0
  7 16  1  0  0  0  0
  9 13  1  0  0  0  0
  9  7  2  0  0  0  0
 10 19  1  0  0  0  0
 11  3  1  0  0  0  0
 11  2  2  0  0  0  0
 12 23  1  0  0  0  0
 13  4  2  0  0  0  0
 14 18  1  0  0  0  0
 16 14  2  0  0  0  0
 16 11  1  0  0  0  0
 17  8  1  6  0  0  0
 17 21  1  0  0  0  0
 17 10  1  0  0  0  0
 18  6  2  0  0  0  0
 19 20  1  0  0  0  0
 20 15  1  0  0  0  0
 23 24  2  0  0  0  0
 23 27  1  0  0  0  0
 24 25  1  0  0  0  0
 25 22  2  0  0  0  0
 26 22  1  0  0  0  0
 27 26  2  0  0  0  0
M  END
>  <MODEL>
5

>  <REMARK>
 VINA RESULT:      -6.0      2.557      6.892
  Name = 
  1 active torsions:
  status: ('A' for Active; 'I' for Inactive)
    1  A    between atoms: C_9  and  N_15
                            x       y       z     vdW  Elec       q    Type
                         _______ _______ _______ _____ _____    ______ ____

>  <TORSDO>
F 1

$$$$
=
 OpenBabel11052423083D

 27 31  0  0  1  0  0  0  0  0999 V2000
  160.4000  209.7130  152.7170 N   0  0  2  0  0  0  0  0  0  0  0  0
  161.3950  208.4560  151.0670 C   0  0  0  0  0  0  0  0  0  0  0  0
  160.4950  208.2960  153.2030 C   0  0  1  0  0  3  0  0  0  0  0  0
  161.5810  204.3730  150.2130 C   0  0  0  0  0  3  0  0  0  0  0  0
  161.2030  202.0850  150.8770 O   0  0  0  0  0  1  0  0  0  0  0  0
  161.8950  208.0540  149.8240 C   0  0  0  0  0  3  0  0  0  0  0  0
  160.5500  205.2410  152.6780 C   0  0  0  0  0  3  0  0  0  0  0  0
  162.0350  207.5490  156.5440 O   0  0  0  0  0  1  0  0  0  0  0  0
  160.6220  203.8750  152.3860 C   0  0  0  0  0  3  0  0  0  0  0  0
  160.8130  209.5620  156.1540 C   0  0  0  0  0  2  0  0  0  0  0  0
  160.9450  207.5540  151.9870 C   0  0  0  0  0  0  0  0  0  0  0  0
  161.1620  209.7780  151.5260 N   0  0  0  0  0  0  0  0  0  0  0  0
  161.1350  203.4420  151.1590 C   0  0  0  0  0  0  0  0  0  0  0  0
  161.5160  205.7400  150.4940 C   0  0  0  0  0  0  0  0  0  0  0  0
  160.6880  210.8350  153.6320 C   0  0  0  0  0  2  0  0  0  0  0  0
  160.9950  206.1780  151.7390 C   0  0  0  0  0  0  0  0  0  0  0  0
  161.0890  208.1280  155.7000 C   0  0  1  0  0  3  0  0  0  0  0  0
  161.9610  206.6790  149.5450 C   0  0  0  0  0  3  0  0  0  0  0  0
  161.9260  210.5600  155.7960 C   0  0  0  0  0  2  0  0  0  0  0  0
  162.0630  210.7840  154.2870 C   0  0  0  0  0  2  0  0  0  0  0  0
  161.5790  208.0330  154.2590 C   0  0  0  0  0  2  0  0  0  0  0  0
  161.2760  213.2000  149.0100 C   0  0  0  0  0  3  0  0  0  0  0  0
  161.2060  210.9410  150.6770 C   0  0  0  0  0  0  0  0  0  0  0  0
  160.4170  212.0640  150.9670 C   0  0  0  0  0  3  0  0  0  0  0  0
  160.4530  213.1890  150.1380 C   0  0  0  0  0  3  0  0  0  0  0  0
  162.0630  212.0850  148.7100 C   0  0  0  0  0  3  0  0  0  0  0  0
  162.0270  210.9610  149.5390 C   0  0  0  0  0  3  0  0  0  0  0  0
  1  3  1  0  0  0  0
  1 15  1  1  0  0  0
  2 12  1  0  0  0  0
  2 11  1  0  0  0  0
  3 21  1  1  0  0  0
  4 14  1  0  0  0  0
  4 13  2  0  0  0  0
  5 13  1  0  0  0  0
  6  2  2  0  0  0  0
  9  7  2  0  0  0  0
 11  3  1  0  0  0  0
 12  1  1  0  0  0  0
 13  9  1  0  0  0  0
 14 16  1  0  0  0  0
 15 20  1  0  0  0  0
 16 11  2  0  0  0  0
 16  7  1  0  0  0  0
 17 10  1  0  0  0  0
 17  8  1  1  0  0  0
 18  6  1  0  0  0  0
 18 14  2  0  0  0  0
 19 10  1  0  0  0  0
 20 19  1  0  0  0  0
 21 17  1  0  0  0  0
 22 25  1  0  0  0  0
 23 24  1  0  0  0  0
 23 12  1  0  0  0  0
 25 24  2  0  0  0  0
 26 22  2  0  0  0  0
 26 27  1  0  0  0  0
 27 23  2  0  0  0  0
M  END
>  <MODEL>
6

>  <REMARK>
 VINA RESULT:      -5.6      1.719      5.198
  Name = 
  1 active torsions:
  status: ('A' for Active; 'I' for Inactive)
    1  A    between atoms: C_9  and  N_15
                            x       y       z     vdW  Elec       q    Type
                         _______ _______ _______ _____ _____    ______ ____

>  <TORSDO>
F 1

$$$$
=
 OpenBabel11052423083D

 27 31  0  0  1  0  0  0  0  0999 V2000
  162.0280  206.3320  152.4140 N   0  0  2  0  0  0  0  0  0  0  0  0
  161.3440  206.8560  150.2810 C   0  0  0  0  0  0  0  0  0  0  0  0
  162.0560  207.8260  152.2690 C   0  0  1  0  0  3  0  0  0  0  0  0
  161.7200  210.2190  147.8350 C   0  0  0  0  0  3  0  0  0  0  0  0
  162.3040  212.5440  147.5610 O   0  0  0  0  0  1  0  0  0  0  0  0
  161.0110  206.7400  148.9270 C   0  0  0  0  0  3  0  0  0  0  0  0
  162.4110  210.3830  150.5520 C   0  0  0  0  0  3  0  0  0  0  0  0
  160.3140  209.9970  154.7880 O   0  0  0  0  0  1  0  0  0  0  0  0
  162.5280  211.5060  149.7270 C   0  0  0  0  0  3  0  0  0  0  0  0
  161.3210  207.9230  155.4100 C   0  0  0  0  0  2  0  0  0  0  0  0
  161.8110  208.0250  150.8090 C   0  0  0  0  0  0  0  0  0  0  0  0
  161.3760  205.8320  151.2610 N   0  0  0  0  0  0  0  0  0  0  0  0
  162.1840  211.4250  148.3730 C   0  0  0  0  0  0  0  0  0  0  0  0
  161.5980  209.0910  148.6490 C   0  0  0  0  0  0  0  0  0  0  0  0
  161.5260  205.7140  153.6570 C   0  0  0  0  0  2  0  0  0  0  0  0
  161.9470  209.1740  150.0220 C   0  0  0  0  0  0  0  0  0  0  0  0
  161.2580  209.0550  154.3830 C   0  0  1  0  0  3  0  0  0  0  0  0
  161.1340  207.8760  148.1100 C   0  0  0  0  0  3  0  0  0  0  0  0
  160.1360  206.9470  155.3410 C   0  0  0  0  0  2  0  0  0  0  0  0
  160.1120  206.1280  154.0470 C   0  0  0  0  0  2  0  0  0  0  0  0
  160.9180  208.5770  152.9750 C   0  0  0  0  0  2  0  0  0  0  0  0
  161.0530  201.6910  150.3660 C   0  0  0  0  0  3  0  0  0  0  0  0
  161.2740  204.4280  150.9560 C   0  0  0  0  0  0  0  0  0  0  0  0
  160.8920  204.0040  149.6740 C   0  0  0  0  0  3  0  0  0  0  0  0
  160.7840  202.6420  149.3800 C   0  0  0  0  0  3  0  0  0  0  0  0
  161.4300  202.1020  151.6470 C   0  0  0  0  0  3  0  0  0  0  0  0
  161.5380  203.4630  151.9410 C   0  0  0  0  0  3  0  0  0  0  0  0
  1 15  1  1  0  0  0
  2 11  1  0  0  0  0
  2 12  1  0  0  0  0
  3  1  1  0  0  0  0
  3 21  1  1  0  0  0
  4 13  2  0  0  0  0
  4 14  1  0  0  0  0
  5 13  1  0  0  0  0
  6  2  2  0  0  0  0
  9  7  2  0  0  0  0
 11  3  1  0  0  0  0
 12  1  1  0  0  0  0
 13  9  1  0  0  0  0
 14 16  1  0  0  0  0
 15 20  1  0  0  0  0
 16  7  1  0  0  0  0
 16 11  2  0  0  0  0
 17  8  1  1  0  0  0
 17 10  1  0  0  0  0
 18 14  2  0  0  0  0
 18  6  1  0  0  0  0
 19 10  1  0  0  0  0
 20 19  1  0  0  0  0
 21 17  1  0  0  0  0
 22 26  1  0  0  0  0
 23 12  1  0  0  0  0
 23 27  1  0  0  0  0
 24 23  2  0  0  0  0
 25 24  1  0  0  0  0
 25 22  2  0  0  0  0
 26 27  2  0  0  0  0
M  END
>  <MODEL>
7

>  <REMARK>
 VINA RESULT:      -5.6      2.536      6.879
  Name = 
  1 active torsions:
  status: ('A' for Active; 'I' for Inactive)
    1  A    between atoms: C_9  and  N_15
                            x       y       z     vdW  Elec       q    Type
                         _______ _______ _______ _____ _____    ______ ____

>  <TORSDO>
F 1

$$$$
=
 OpenBabel11052423083D

 27 31  0  0  1  0  0  0  0  0999 V2000
  162.3600  209.1770  149.8480 N   0  0  2  0  0  0  0  0  0  0  0  0
  161.0780  210.6770  151.0320 C   0  0  0  0  0  0  0  0  0  0  0  0
  161.9570  208.5290  151.1410 C   0  0  1  0  0  3  0  0  0  0  0  0
  159.9610  211.0470  155.0380 C   0  0  0  0  0  3  0  0  0  0  0  0
  159.8270  210.1160  157.2590 O   0  0  0  0  0  1  0  0  0  0  0  0
  160.4770  211.8690  151.4520 C   0  0  0  0  0  3  0  0  0  0  0  0
  161.2060  208.6920  154.1450 C   0  0  0  0  0  3  0  0  0  0  0  0
  160.3500  205.1370  151.1270 O   0  0  0  0  0  1  0  0  0  0  0  0
  160.8230  208.8220  155.4830 C   0  0  0  0  0  3  0  0  0  0  0  0
  161.9870  205.7500  149.5010 C   0  0  0  0  0  2  0  0  0  0  0  0
  161.3300  209.6530  151.8980 C   0  0  0  0  0  0  0  0  0  0  0  0
  161.6110  210.3740  149.7520 N   0  0  0  0  0  0  0  0  0  0  0  0
  160.2030  209.9950  155.9290 C   0  0  0  0  0  0  0  0  0  0  0  0
  160.3370  210.9280  153.6980 C   0  0  0  0  0  0  0  0  0  0  0  0
  162.3490  208.4040  148.5920 C   0  0  0  0  0  2  0  0  0  0  0  0
  160.9660  209.7390  153.2470 C   0  0  0  0  0  0  0  0  0  0  0  0
  161.3860  206.0350  150.8780 C   0  0  1  0  0  3  0  0  0  0  0  0
  160.0980  211.9850  152.7990 C   0  0  0  0  0  3  0  0  0  0  0  0
  161.1210  206.2320  148.3260 C   0  0  0  0  0  2  0  0  0  0  0  0
  161.0090  207.7590  148.2550 C   0  0  0  0  0  2  0  0  0  0  0  0
  160.8620  207.4590  151.0280 C   0  0  0  0  0  2  0  0  0  0  0  0
  162.2170  213.2510  146.6850 C   0  0  0  0  0  3  0  0  0  0  0  0
  161.8140  211.3550  148.7160 C   0  0  0  0  0  0  0  0  0  0  0  0
  160.8140  211.6000  147.7620 C   0  0  0  0  0  3  0  0  0  0  0  0
  161.0140  212.5440  146.7520 C   0  0  0  0  0  3  0  0  0  0  0  0
  163.2200  213.0120  147.6280 C   0  0  0  0  0  3  0  0  0  0  0  0
  163.0200  212.0680  148.6370 C   0  0  0  0  0  3  0  0  0  0  0  0
  1 15  1  6  0  0  0
  1  3  1  0  0  0  0
  2  6  2  0  0  0  0
  2 11  1  0  0  0  0
  3 21  1  6  0  0  0
  3 11  1  0  0  0  0
  4 13  2  0  0  0  0
  6 18  1  0  0  0  0
  7  9  2  0  0  0  0
  9 13  1  0  0  0  0
 10 17  1  0  0  0  0
 11 16  2  0  0  0  0
 12  1  1  0  0  0  0
 12  2  1  0  0  0  0
 13  5  1  0  0  0  0
 14  4  1  0  0  0  0
 16 14  1  0  0  0  0
 16  7  1  0  0  0  0
 17 21  1  0  0  0  0
 17  8  1  6  0  0  0
 18 14  2  0  0  0  0
 19 10  1  0  0  0  0
 20 19  1  0  0  0  0
 20 15  1  0  0  0  0
 22 25  2  0  0  0  0
 22 26  1  0  0  0  0
 23 12  1  0  0  0  0
 24 23  2  0  0  0  0
 25 24  1  0  0  0  0
 26 27  2  0  0  0  0
 27 23  1  0  0  0  0
M  END
>  <MODEL>
8

>  <REMARK>
 VINA RESULT:      -5.6      0.894      1.376
  Name = 
  1 active torsions:
  status: ('A' for Active; 'I' for Inactive)
    1  A    between atoms: C_9  and  N_15
                            x       y       z     vdW  Elec       q    Type
                         _______ _______ _______ _____ _____    ______ ____

>  <TORSDO>
F 1

$$$$
=
 OpenBabel11052423083D

 27 31  0  0  1  0  0  0  0  0999 V2000
  161.9740  204.0980  149.0810 N   0  0  2  0  0  0  0  0  0  0  0  0
  161.2390  206.2640  149.3340 C   0  0  0  0  0  0  0  0  0  0  0  0
  161.7900  204.3600  150.5480 C   0  0  1  0  0  3  0  0  0  0  0  0
  161.1490  208.9670  152.5150 C   0  0  0  0  0  3  0  0  0  0  0  0
  161.3970  209.4240  154.8700 O   0  0  0  0  0  1  0  0  0  0  0  0
  160.9360  207.6030  149.0660 C   0  0  0  0  0  3  0  0  0  0  0  0
  161.7890  206.2730  152.9880 C   0  0  0  0  0  3  0  0  0  0  0  0
  159.7370  202.0130  152.6380 O   0  0  0  0  0  1  0  0  0  0  0  0
  161.7500  207.1840  154.0470 C   0  0  0  0  0  3  0  0  0  0  0  0
  161.0250  201.2340  150.7840 C   0  0  0  0  0  2  0  0  0  0  0  0
  161.5300  205.8300  150.5960 C   0  0  0  0  0  0  0  0  0  0  0  0
  161.4100  205.2060  148.4050 N   0  0  0  0  0  0  0  0  0  0  0  0
  161.4320  208.5260  153.8130 C   0  0  0  0  0  0  0  0  0  0  0  0
  161.1830  208.0660  151.4480 C   0  0  0  0  0  0  0  0  0  0  0  0
  161.5570  202.8090  148.4970 C   0  0  0  0  0  2  0  0  0  0  0  0
  161.5060  206.7060  151.6870 C   0  0  0  0  0  0  0  0  0  0  0  0
  160.8090  202.3460  151.8120 C   0  0  1  0  0  3  0  0  0  0  0  0
  160.9020  208.5060  150.1410 C   0  0  0  0  0  3  0  0  0  0  0  0
  159.9920  201.2210  149.6470 C   0  0  0  0  0  2  0  0  0  0  0  0
  160.0950  202.4470  148.7340 C   0  0  0  0  0  2  0  0  0  0  0  0
  160.5510  203.7110  151.1820 C   0  0  0  0  0  2  0  0  0  0  0  0
  161.7010  205.7580  144.2020 C   0  0  0  0  0  3  0  0  0  0  0  0
  161.5110  205.3990  146.9810 C   0  0  0  0  0  0  0  0  0  0  0  0
  160.4000  205.8310  146.2410 C   0  0  0  0  0  3  0  0  0  0  0  0
  160.4950  206.0110  144.8580 C   0  0  0  0  0  3  0  0  0  0  0  0
  162.8130  205.3240  144.9290 C   0  0  0  0  0  3  0  0  0  0  0  0
  162.7170  205.1450  146.3110 C   0  0  0  0  0  3  0  0  0  0  0  0
  1 15  1  6  0  0  0
  1  3  1  0  0  0  0
  2 11  1  0  0  0  0
  3 11  1  0  0  0  0
  3 21  1  6  0  0  0
  4 13  2  0  0  0  0
  6  2  2  0  0  0  0
  6 18  1  0  0  0  0
  7  9  2  0  0  0  0
 10 17  1  0  0  0  0
 11 16  2  0  0  0  0
 12  1  1  0  0  0  0
 12  2  1  0  0  0  0
 13  9  1  0  0  0  0
 13  5  1  0  0  0  0
 14 16  1  0  0  0  0
 14  4  1  0  0  0  0
 15 20  1  0  0  0  0
 16  7  1  0  0  0  0
 17  8  1  6  0  0  0
 18 14  2  0  0  0  0
 19 10  1  0  0  0  0
 20 19  1  0  0  0  0
 21 17  1  0  0  0  0
 22 25  2  0  0  0  0
 22 26  1  0  0  0  0
 23 12  1  0  0  0  0
 24 23  2  0  0  0  0
 25 24  1  0  0  0  0
 26 27  2  0  0  0  0
 27 23  1  0  0  0  0
M  END
>  <MODEL>
9

>  <REMARK>
 VINA RESULT:      -5.5      2.782      4.609
  Name = 
  1 active torsions:
  status: ('A' for Active; 'I' for Inactive)
    1  A    between atoms: C_9  and  N_15
                            x       y       z     vdW  Elec       q    Type
                         _______ _______ _______ _____ _____    ______ ____

>  <TORSDO>
F 1

$$$$
