=
 OpenBabel11062407503D

 34 37  0  0  1  0  0  0  0  0999 V2000
  162.0450  211.0670  148.2850 C   0  0  2  0  0  3  0  0  0  0  0  0
  162.8130  212.6830  146.4760 C   0  0  0  0  0  0  0  0  0  0  0  0
  161.9510  211.8640  142.0830 C   0  0  0  0  0  2  0  0  0  0  0  0
  160.3340  212.3460  146.8740 C   0  0  1  0  0  3  0  0  0  0  0  0
  159.3090  210.8880  144.6960 C   0  0  0  0  0  1  0  0  0  0  0  0
  162.1060  211.6950  150.5830 O   0  0  0  0  0  0  0  0  0  0  0  0
  164.0080  212.5120  146.8410 O   0  0  0  0  0  0  0  0  0  0  0  0
  161.1110  214.1490  145.3180 C   0  0  0  0  0  2  0  0  0  0  0  0
  162.5620  213.1160  141.4740 C   0  0  0  0  0  2  0  0  0  0  0  0
  162.7240  214.2000  142.5230 C   0  0  0  0  0  2  0  0  0  0  0  0
  161.7430  211.7310  146.9380 C   0  0  2  0  0  3  0  0  0  0  0  0
  160.4350  211.8390  141.9180 C   0  0  0  0  0  2  0  0  0  0  0  0
  160.1640  212.0300  144.3820 N   0  0  0  0  0  0  0  0  0  0  0  0
  161.4260  209.8170  148.3360 O   0  0  0  0  0  1  0  0  0  0  0  0
  163.5490  214.4530  144.8530 C   0  0  0  0  0  2  0  0  0  0  0  0
  160.0890  213.3460  148.0190 C   0  0  2  0  0  3  0  0  0  0  0  0
  161.5960  211.8930  149.4500 C   0  0  0  0  0  0  0  0  0  0  0  0
  162.4900  213.7090  145.5240 N   0  0  0  0  0  0  0  0  0  0  0  0
  159.6690  212.5130  143.0690 C   0  0  1  0  0  3  0  0  0  0  0  0
  160.0950  213.0050  145.4960 C   0  0  1  0  0  3  0  0  0  0  0  0
  160.5280  212.8310  149.3130 N   0  0  0  0  0  2  0  0  0  0  0  0
  163.8350  213.8380  143.4950 C   0  0  0  0  0  2  0  0  0  0  0  0
  159.4490  214.0360  142.8980 C   0  0  0  0  0  3  0  0  0  0  0  0
  158.1510  214.4490  143.5680 C   0  0  0  0  0  1  0  0  0  0  0  0
  159.3600  214.4500  141.4370 C   0  0  0  0  0  1  0  0  0  0  0  0
  158.0720  214.0850  147.0180 O   0  0  0  0  0  0  0  0  0  0  0  0
  158.6550  213.7810  148.0930 C   0  0  0  0  0  0  0  0  0  0  0  0
  157.8750  214.1850  151.7840 C   0  0  0  0  0  0  0  0  0  0  0  0
  156.4920  213.9850  151.7930 C   0  0  0  0  0  3  0  0  0  0  0  0
  157.9140  213.8560  149.3750 C   0  0  0  0  0  0  0  0  0  0  0  0
  155.8180  213.7210  150.5980 C   0  0  0  0  0  3  0  0  0  0  0  0
  158.5820  214.1200  150.5810 C   0  0  0  0  0  3  0  0  0  0  0  0
  156.5260  213.6570  149.3950 C   0  0  0  0  0  3  0  0  0  0  0  0
  158.5640  214.4520  153.0000 N   0  0  0  0  0  1  0  0  0  0  0  0
  1 14  1  6  0  0  0
  1 17  1  0  0  0  0
  2  7  2  0  0  0  0
  2 11  1  0  0  0  0
  4 11  1  0  0  0  0
  4 16  1  0  0  0  0
  8 20  1  0  0  0  0
  8 18  1  0  0  0  0
  9  3  1  0  0  0  0
  9 10  1  0  0  0  0
 10 22  1  0  0  0  0
 11  1  1  0  0  0  0
 12  3  1  0  0  0  0
 12 19  1  0  0  0  0
 13  5  1  0  0  0  0
 13 20  1  0  0  0  0
 15 18  1  0  0  0  0
 16 27  1  0  0  0  0
 16 21  1  0  0  0  0
 17  6  2  0  0  0  0
 18  2  1  0  0  0  0
 19 13  1  0  0  0  0
 20  4  1  0  0  0  0
 21 17  1  0  0  0  0
 22 15  1  0  0  0  0
 23 19  1  0  0  0  0
 23 24  1  0  0  0  0
 25 23  1  0  0  0  0
 26 27  2  0  0  0  0
 27 30  1  0  0  0  0
 28 29  1  0  0  0  0
 28 34  1  0  0  0  0
 30 33  2  0  0  0  0
 30 32  1  0  0  0  0
 31 29  2  0  0  0  0
 32 28  2  0  0  0  0
 33 31  1  0  0  0  0
M  END
>  <MODEL>
1

>  <REMARK>
 VINA RESULT:       0.5      0.000      0.000
  Name = 
  3 active torsions:
  status: ('A' for Active; 'I' for Inactive)
    1  A    between atoms: C_12  and  C_28
    2  A    between atoms: C_13  and  C_29
    3  A    between atoms: C_21  and  C_28
                            x       y       z     vdW  Elec       q    Type
                         _______ _______ _______ _____ _____    ______ ____

>  <TORSDO>
F 3

$$$$
=
 OpenBabel11062407503D

 34 37  0  0  1  0  0  0  0  0999 V2000
  160.6300  208.9920  156.9270 C   0  0  2  0  0  3  0  0  0  0  0  0
  158.4300  209.9410  156.0700 C   0  0  0  0  0  0  0  0  0  0  0  0
  158.1160  214.2760  154.7220 C   0  0  0  0  0  2  0  0  0  0  0  0
  160.4010  209.7450  154.4910 C   0  0  1  0  0  3  0  0  0  0  0  0
  161.3550  212.3450  153.9900 C   0  0  0  0  0  1  0  0  0  0  0  0
  160.9110  206.6430  157.2180 O   0  0  0  0  0  0  0  0  0  0  0  0
  157.8910  209.6710  157.1790 O   0  0  0  0  0  0  0  0  0  0  0  0
  158.1500  210.3860  153.5990 C   0  0  0  0  0  2  0  0  0  0  0  0
  156.6600  214.2930  154.2830 C   0  0  0  0  0  2  0  0  0  0  0  0
  156.1530  212.8820  154.0460 C   0  0  0  0  0  2  0  0  0  0  0  0
  159.9300  209.9340  155.9430 C   0  0  2  0  0  3  0  0  0  0  0  0
  159.0630  214.4500  153.5390 C   0  0  0  0  0  2  0  0  0  0  0  0
  159.9130  212.1390  153.8800 N   0  0  0  0  0  0  0  0  0  0  0  0
  161.9070  209.4800  157.2090 O   0  0  0  0  0  1  0  0  0  0  0  0
  156.2060  210.6560  155.1490 C   0  0  0  0  0  2  0  0  0  0  0  0
  160.2480  208.2870  154.0210 C   0  0  2  0  0  3  0  0  0  0  0  0
  160.7350  207.5910  156.4100 C   0  0  0  0  0  0  0  0  0  0  0  0
  157.6230  210.3730  154.9630 N   0  0  0  0  0  0  0  0  0  0  0  0
  159.4740  213.1290  152.8670 C   0  0  1  0  0  3  0  0  0  0  0  0
  159.6530  210.7180  153.5500 C   0  0  1  0  0  3  0  0  0  0  0  0
  160.7390  207.3290  155.0050 N   0  0  0  0  0  2  0  0  0  0  0  0
  155.9980  212.1450  155.3660 C   0  0  0  0  0  2  0  0  0  0  0  0
  158.5140  212.6420  151.7520 C   0  0  0  0  0  3  0  0  0  0  0  0
  159.3100  212.2520  150.5200 C   0  0  0  0  0  1  0  0  0  0  0  0
  157.5200  213.7130  151.3330 C   0  0  0  0  0  1  0  0  0  0  0  0
  161.4140  209.0370  152.0980 O   0  0  0  0  0  0  0  0  0  0  0  0
  160.9040  208.0490  152.6920 C   0  0  0  0  0  0  0  0  0  0  0  0
  160.9060  205.2690  150.1110 C   0  0  0  0  0  0  0  0  0  0  0  0
  161.1020  204.1460  150.9200 C   0  0  0  0  0  3  0  0  0  0  0  0
  160.9740  206.7050  152.0720 C   0  0  0  0  0  0  0  0  0  0  0  0
  161.2340  204.2990  152.3030 C   0  0  0  0  0  3  0  0  0  0  0  0
  160.8420  206.5410  150.6840 C   0  0  0  0  0  3  0  0  0  0  0  0
  161.1710  205.5720  152.8760 C   0  0  0  0  0  3  0  0  0  0  0  0
  160.7700  205.1160  148.7030 N   0  0  0  0  0  1  0  0  0  0  0  0
  1 14  1  6  0  0  0
  2  7  2  0  0  0  0
  4 11  1  0  0  0  0
  8 18  1  0  0  0  0
  9  3  1  0  0  0  0
 10  9  1  0  0  0  0
 10 22  1  0  0  0  0
 11  2  1  0  0  0  0
 11  1  1  0  0  0  0
 12  3  1  0  0  0  0
 13  5  1  0  0  0  0
 15 22  1  0  0  0  0
 16  4  1  0  0  0  0
 16 21  1  0  0  0  0
 17  1  1  0  0  0  0
 17  6  2  0  0  0  0
 18 15  1  0  0  0  0
 18  2  1  0  0  0  0
 19 12  1  0  0  0  0
 19 13  1  0  0  0  0
 20  8  1  0  0  0  0
 20 13  1  0  0  0  0
 20  4  1  0  0  0  0
 21 17  1  0  0  0  0
 23 19  1  0  0  0  0
 24 23  1  0  0  0  0
 25 23  1  0  0  0  0
 26 27  2  0  0  0  0
 27 16  1  0  0  0  0
 28 32  2  0  0  0  0
 28 29  1  0  0  0  0
 29 31  2  0  0  0  0
 30 27  1  0  0  0  0
 30 33  2  0  0  0  0
 31 33  1  0  0  0  0
 32 30  1  0  0  0  0
 34 28  1  0  0  0  0
M  END
>  <MODEL>
2

>  <REMARK>
 VINA RESULT:       0.5      6.021     10.180
  Name = 
  3 active torsions:
  status: ('A' for Active; 'I' for Inactive)
    1  A    between atoms: C_12  and  C_28
    2  A    between atoms: C_13  and  C_29
    3  A    between atoms: C_21  and  C_28
                            x       y       z     vdW  Elec       q    Type
                         _______ _______ _______ _____ _____    ______ ____

>  <TORSDO>
F 3

$$$$
=
 OpenBabel11062407503D

 34 37  0  0  1  0  0  0  0  0999 V2000
  161.0150  208.6540  156.0710 C   0  0  2  0  0  3  0  0  0  0  0  0
  158.5860  209.3050  155.6820 C   0  0  0  0  0  0  0  0  0  0  0  0
  157.2040  213.6100  156.1960 C   0  0  0  0  0  2  0  0  0  0  0  0
  160.3810  210.2190  154.1460 C   0  0  1  0  0  3  0  0  0  0  0  0
  160.6930  212.9550  154.7280 C   0  0  0  0  0  1  0  0  0  0  0  0
  161.8260  206.5190  155.3900 O   0  0  0  0  0  0  0  0  0  0  0  0
  158.2340  208.5050  156.5920 O   0  0  0  0  0  0  0  0  0  0  0  0
  157.9660  210.5970  153.6010 C   0  0  0  0  0  2  0  0  0  0  0  0
  155.7420  213.4480  155.8100 C   0  0  0  0  0  2  0  0  0  0  0  0
  155.5310  212.1640  155.0290 C   0  0  0  0  0  2  0  0  0  0  0  0
  160.0300  209.7080  155.5540 C   0  0  2  0  0  3  0  0  0  0  0  0
  157.9650  214.4530  155.1770 C   0  0  0  0  0  2  0  0  0  0  0  0
  159.3270  212.4690  154.5530 N   0  0  0  0  0  0  0  0  0  0  0  0
  162.1770  209.2840  156.5170 O   0  0  0  0  0  1  0  0  0  0  0  0
  156.1780  209.7680  155.1410 C   0  0  0  0  0  2  0  0  0  0  0  0
  160.5000  209.0690  153.1300 C   0  0  2  0  0  3  0  0  0  0  0  0
  161.3680  207.6360  155.0320 C   0  0  0  0  0  0  0  0  0  0  0  0
  157.5960  209.9280  154.8480 N   0  0  0  0  0  0  0  0  0  0  0  0
  158.5820  213.6380  154.0270 C   0  0  1  0  0  3  0  0  0  0  0  0
  159.3480  211.2710  153.6810 C   0  0  1  0  0  3  0  0  0  0  0  0
  161.2860  207.9500  153.6410 N   0  0  0  0  0  2  0  0  0  0  0  0
  155.6760  210.9570  155.9400 C   0  0  0  0  0  2  0  0  0  0  0  0
  157.6420  213.4100  152.8180 C   0  0  0  0  0  3  0  0  0  0  0  0
  158.4360  213.4840  151.5260 C   0  0  0  0  0  1  0  0  0  0  0  0
  156.5380  214.4520  152.7340 C   0  0  0  0  0  1  0  0  0  0  0  0
  161.2870  210.7620  151.6690 O   0  0  0  0  0  0  0  0  0  0  0  0
  161.0540  209.5320  151.8130 C   0  0  0  0  0  0  0  0  0  0  0  0
  161.2190  206.3760  149.7130 C   0  0  0  0  0  0  0  0  0  0  0  0
  161.8880  206.8400  148.5780 C   0  0  0  0  0  3  0  0  0  0  0  0
  161.3360  208.5970  150.6990 C   0  0  0  0  0  0  0  0  0  0  0  0
  162.2820  208.1780  148.4990 C   0  0  0  0  0  3  0  0  0  0  0  0
  160.9450  207.2500  150.7680 C   0  0  0  0  0  3  0  0  0  0  0  0
  162.0070  209.0520  149.5540 C   0  0  0  0  0  3  0  0  0  0  0  0
  160.8180  205.0140  149.7970 N   0  0  0  0  0  1  0  0  0  0  0  0
  1 14  1  6  0  0  0
  2  7  2  0  0  0  0
  4 11  1  0  0  0  0
  8 20  1  0  0  0  0
  8 18  1  0  0  0  0
  9  3  1  0  0  0  0
 10  9  1  0  0  0  0
 10 22  1  0  0  0  0
 11  2  1  0  0  0  0
 11  1  1  0  0  0  0
 12  3  1  0  0  0  0
 13  5  1  0  0  0  0
 15 22  1  0  0  0  0
 16 21  1  0  0  0  0
 16  4  1  0  0  0  0
 17  6  2  0  0  0  0
 17  1  1  0  0  0  0
 18 15  1  0  0  0  0
 18  2  1  0  0  0  0
 19 13  1  0  0  0  0
 19 12  1  0  0  0  0
 20  4  1  0  0  0  0
 20 13  1  0  0  0  0
 21 17  1  0  0  0  0
 23 19  1  0  0  0  0
 24 23  1  0  0  0  0
 25 23  1  0  0  0  0
 26 27  2  0  0  0  0
 27 16  1  0  0  0  0
 28 34  1  0  0  0  0
 28 32  1  0  0  0  0
 29 28  2  0  0  0  0
 30 32  2  0  0  0  0
 30 27  1  0  0  0  0
 31 29  1  0  0  0  0
 31 33  2  0  0  0  0
 33 30  1  0  0  0  0
M  END
>  <MODEL>
3

>  <REMARK>
 VINA RESULT:       0.6      5.933     10.155
  Name = 
  3 active torsions:
  status: ('A' for Active; 'I' for Inactive)
    1  A    between atoms: C_12  and  C_28
    2  A    between atoms: C_13  and  C_29
    3  A    between atoms: C_21  and  C_28
                            x       y       z     vdW  Elec       q    Type
                         _______ _______ _______ _____ _____    ______ ____

>  <TORSDO>
F 3

$$$$
=
 OpenBabel11062407503D

 34 37  0  0  1  0  0  0  0  0999 V2000
  156.1450  212.3030  155.1810 C   0  0  2  0  0  3  0  0  0  0  0  0
  158.5110  212.0510  156.0850 C   0  0  0  0  0  0  0  0  0  0  0  0
  160.9370  208.2860  155.2800 C   0  0  0  0  0  2  0  0  0  0  0  0
  158.1410  212.1710  153.5820 C   0  0  1  0  0  3  0  0  0  0  0  0
  158.6080  209.6050  152.5250 C   0  0  0  0  0  1  0  0  0  0  0  0
  155.0460  214.4170  155.2250 O   0  0  0  0  0  0  0  0  0  0  0  0
  158.0670  212.1770  157.2590 O   0  0  0  0  0  0  0  0  0  0  0  0
  160.4700  212.2310  154.4990 C   0  0  0  0  0  2  0  0  0  0  0  0
  162.2320  208.6730  155.9770 C   0  0  0  0  0  2  0  0  0  0  0  0
  162.3060  210.1750  156.1780 C   0  0  0  0  0  2  0  0  0  0  0  0
  157.5630  211.7700  154.9500 C   0  0  2  0  0  3  0  0  0  0  0  0
  161.1200  208.1820  153.7690 C   0  0  0  0  0  2  0  0  0  0  0  0
  159.6070  210.1290  153.4510 N   0  0  0  0  0  0  0  0  0  0  0  0
  155.2310  211.5080  154.4890 O   0  0  0  0  0  1  0  0  0  0  0  0
  160.8640  212.0400  156.9610 C   0  0  0  0  0  2  0  0  0  0  0  0
  158.1120  213.6960  153.3700 C   0  0  2  0  0  3  0  0  0  0  0  0
  155.9880  213.7300  154.7540 C   0  0  0  0  0  0  0  0  0  0  0  0
  159.9270  212.0540  155.8450 N   0  0  0  0  0  0  0  0  0  0  0  0
  160.8800  209.5030  153.0170 C   0  0  1  0  0  3  0  0  0  0  0  0
  159.5710  211.6100  153.4140 C   0  0  1  0  0  3  0  0  0  0  0  0
  156.8320  214.2890  153.7460 N   0  0  0  0  0  2  0  0  0  0  0  0
  161.3170  210.6190  157.2430 C   0  0  0  0  0  2  0  0  0  0  0  0
  162.1260  210.4130  152.8910 C   0  0  0  0  0  3  0  0  0  0  0  0
  162.3000  210.8530  151.4490 C   0  0  0  0  0  1  0  0  0  0  0  0
  163.4060  209.7080  153.3100 C   0  0  0  0  0  1  0  0  0  0  0  0
  159.6660  214.3700  151.7110 O   0  0  0  0  0  0  0  0  0  0  0  0
  158.4660  214.0780  151.9610 C   0  0  0  0  0  0  0  0  0  0  0  0
  156.8860  214.0060  148.5130 C   0  0  0  0  0  0  0  0  0  0  0  0
  155.5380  214.1920  148.8270 C   0  0  0  0  0  3  0  0  0  0  0  0
  157.4600  214.1140  150.8740 C   0  0  0  0  0  0  0  0  0  0  0  0
  155.1470  214.3400  150.1610 C   0  0  0  0  0  3  0  0  0  0  0  0
  157.8420  213.9670  149.5310 C   0  0  0  0  0  3  0  0  0  0  0  0
  156.1040  214.3000  151.1780 C   0  0  0  0  0  3  0  0  0  0  0  0
  157.2870  213.8570  147.1560 N   0  0  0  0  0  1  0  0  0  0  0  0
  1 14  1  6  0  0  0
  2  7  2  0  0  0  0
  3  9  1  0  0  0  0
  4 11  1  0  0  0  0
  5 13  1  0  0  0  0
  8 18  1  0  0  0  0
  9 10  1  0  0  0  0
 10 22  1  0  0  0  0
 11  1  1  0  0  0  0
 11  2  1  0  0  0  0
 12  3  1  0  0  0  0
 15 22  1  0  0  0  0
 16  4  1  0  0  0  0
 16 21  1  0  0  0  0
 17  1  1  0  0  0  0
 17  6  2  0  0  0  0
 18  2  1  0  0  0  0
 18 15  1  0  0  0  0
 19 13  1  0  0  0  0
 19 12  1  0  0  0  0
 20 13  1  0  0  0  0
 20  4  1  0  0  0  0
 20  8  1  0  0  0  0
 21 17  1  0  0  0  0
 23 19  1  0  0  0  0
 23 25  1  0  0  0  0
 24 23  1  0  0  0  0
 26 27  2  0  0  0  0
 27 16  1  0  0  0  0
 28 29  2  0  0  0  0
 28 32  1  0  0  0  0
 29 31  1  0  0  0  0
 30 33  1  0  0  0  0
 30 27  1  0  0  0  0
 31 33  2  0  0  0  0
 32 30  2  0  0  0  0
 34 28  1  0  0  0  0
M  END
>  <MODEL>
4

>  <REMARK>
 VINA RESULT:       2.0      5.247      9.278
  Name = 
  3 active torsions:
  status: ('A' for Active; 'I' for Inactive)
    1  A    between atoms: C_12  and  C_28
    2  A    between atoms: C_13  and  C_29
    3  A    between atoms: C_21  and  C_28
                            x       y       z     vdW  Elec       q    Type
                         _______ _______ _______ _____ _____    ______ ____

>  <TORSDO>
F 3

$$$$
=
 OpenBabel11062407503D

 34 37  0  0  1  0  0  0  0  0999 V2000
  161.9440  210.4200  154.8060 C   0  0  2  0  0  3  0  0  0  0  0  0
  160.1140  211.3430  153.2980 C   0  0  0  0  0  0  0  0  0  0  0  0
  161.0900  214.2750  149.9570 C   0  0  0  0  0  2  0  0  0  0  0  0
  161.9050  209.8490  152.3110 C   0  0  1  0  0  3  0  0  0  0  0  0
  163.5860  211.4600  150.7290 C   0  0  0  0  0  1  0  0  0  0  0  0
  161.5130  208.5770  156.2540 O   0  0  0  0  0  0  0  0  0  0  0  0
  159.5400  211.8350  154.3080 O   0  0  0  0  0  0  0  0  0  0  0  0
  159.9340  210.5160  150.9180 C   0  0  0  0  0  2  0  0  0  0  0  0
  159.6980  214.4530  149.3700 C   0  0  0  0  0  2  0  0  0  0  0  0
  158.7870  213.3160  149.7940 C   0  0  0  0  0  2  0  0  0  0  0  0
  161.5400  210.8730  153.3990 C   0  0  2  0  0  3  0  0  0  0  0  0
  162.0230  213.5590  148.9860 C   0  0  0  0  0  2  0  0  0  0  0  0
  162.1470  211.6200  150.5370 N   0  0  0  0  0  0  0  0  0  0  0  0
  163.3130  210.6220  154.9840 O   0  0  0  0  0  1  0  0  0  0  0  0
  158.1910  212.0490  151.8460 C   0  0  0  0  0  2  0  0  0  0  0  0
  161.3130  208.4590  152.6060 C   0  0  2  0  0  3  0  0  0  0  0  0
  161.6140  208.9840  155.0680 C   0  0  0  0  0  0  0  0  0  0  0  0
  159.4530  211.3440  152.0220 N   0  0  0  0  0  0  0  0  0  0  0  0
  162.0050  212.0260  149.1180 C   0  0  1  0  0  3  0  0  0  0  0  0
  161.4660  210.3600  150.9200 C   0  0  1  0  0  3  0  0  0  0  0  0
  161.5130  208.0490  153.9920 N   0  0  0  0  0  2  0  0  0  0  0  0
  158.4430  213.4310  151.2700 C   0  0  0  0  0  2  0  0  0  0  0  0
  160.9240  211.3140  148.2690 C   0  0  0  0  0  3  0  0  0  0  0  0
  161.4070  209.9320  147.8690 C   0  0  0  0  0  1  0  0  0  0  0  0
  160.5970  212.0710  146.9900 C   0  0  0  0  0  1  0  0  0  0  0  0
  162.6890  207.7570  150.8070 O   0  0  0  0  0  0  0  0  0  0  0  0
  161.8420  207.4080  151.6730 C   0  0  0  0  0  0  0  0  0  0  0  0
  160.7750  203.9120  150.6590 C   0  0  0  0  0  0  0  0  0  0  0  0
  160.5800  203.3140  151.9060 C   0  0  0  0  0  3  0  0  0  0  0  0
  161.4090  205.9930  151.7450 C   0  0  0  0  0  0  0  0  0  0  0  0
  160.7980  204.0510  153.0740 C   0  0  0  0  0  3  0  0  0  0  0  0
  161.1870  205.2440  150.5790 C   0  0  0  0  0  3  0  0  0  0  0  0
  161.2110  205.3840  152.9930 C   0  0  0  0  0  3  0  0  0  0  0  0
  160.5520  203.1650  149.4690 N   0  0  0  0  0  1  0  0  0  0  0  0
  1 14  1  6  0  0  0
  1 17  1  0  0  0  0
  2 11  1  0  0  0  0
  2  7  2  0  0  0  0
  4 16  1  0  0  0  0
  4 11  1  0  0  0  0
  8 20  1  0  0  0  0
  8 18  1  0  0  0  0
  9 10  1  0  0  0  0
  9  3  1  0  0  0  0
 10 22  1  0  0  0  0
 11  1  1  0  0  0  0
 12 19  1  0  0  0  0
 12  3  1  0  0  0  0
 13  5  1  0  0  0  0
 13 20  1  0  0  0  0
 15 18  1  0  0  0  0
 16 21  1  0  0  0  0
 17  6  2  0  0  0  0
 18  2  1  0  0  0  0
 19 13  1  0  0  0  0
 20  4  1  0  0  0  0
 21 17  1  0  0  0  0
 22 15  1  0  0  0  0
 23 19  1  0  0  0  0
 24 23  1  0  0  0  0
 25 23  1  0  0  0  0
 26 27  2  0  0  0  0
 27 30  1  0  0  0  0
 27 16  1  0  0  0  0
 28 29  1  0  0  0  0
 29 31  2  0  0  0  0
 30 33  2  0  0  0  0
 32 28  2  0  0  0  0
 32 30  1  0  0  0  0
 33 31  1  0  0  0  0
 34 28  1  0  0  0  0
M  END
>  <MODEL>
5

>  <REMARK>
 VINA RESULT:       2.2      4.833      8.127
  Name = 
  3 active torsions:
  status: ('A' for Active; 'I' for Inactive)
    1  A    between atoms: C_12  and  C_28
    2  A    between atoms: C_13  and  C_29
    3  A    between atoms: C_21  and  C_28
                            x       y       z     vdW  Elec       q    Type
                         _______ _______ _______ _____ _____    ______ ____

>  <TORSDO>
F 3

$$$$
=
 OpenBabel11062407503D

 34 37  0  0  1  0  0  0  0  0999 V2000
  155.5850  212.6800  154.8830 C   0  0  2  0  0  3  0  0  0  0  0  0
  157.9570  213.1300  155.6870 C   0  0  0  0  0  0  0  0  0  0  0  0
  160.8440  209.7090  156.5000 C   0  0  0  0  0  2  0  0  0  0  0  0
  157.5920  212.0880  153.4080 C   0  0  1  0  0  3  0  0  0  0  0  0
  158.3880  209.3920  153.5640 C   0  0  0  0  0  1  0  0  0  0  0  0
  154.2270  214.4510  154.0480 O   0  0  0  0  0  0  0  0  0  0  0  0
  157.4920  213.7090  156.7070 O   0  0  0  0  0  0  0  0  0  0  0  0
  159.8890  212.8180  154.0900 C   0  0  0  0  0  2  0  0  0  0  0  0
  162.0750  210.5120  156.8920 C   0  0  0  0  0  2  0  0  0  0  0  0
  161.9580  211.9450  156.4080 C   0  0  0  0  0  2  0  0  0  0  0  0
  157.0600  212.2680  154.8400 C   0  0  2  0  0  3  0  0  0  0  0  0
  161.0500  208.9690  155.1810 C   0  0  0  0  0  2  0  0  0  0  0  0
  159.3060  210.3850  154.1160 N   0  0  0  0  0  0  0  0  0  0  0  0
  154.7840  211.5600  154.6570 O   0  0  0  0  0  1  0  0  0  0  0  0
  160.2860  213.7820  156.3620 C   0  0  0  0  0  2  0  0  0  0  0  0
  157.3730  213.3470  152.5490 C   0  0  2  0  0  3  0  0  0  0  0  0
  155.2520  213.7410  153.8810 C   0  0  0  0  0  0  0  0  0  0  0  0
  159.3630  213.1920  155.4020 N   0  0  0  0  0  0  0  0  0  0  0  0
  160.6510  209.7840  153.9390 C   0  0  1  0  0  3  0  0  0  0  0  0
  159.0830  211.6810  153.4330 C   0  0  1  0  0  3  0  0  0  0  0  0
  156.0260  213.8910  152.6900 N   0  0  0  0  0  2  0  0  0  0  0  0
  160.9120  212.6950  157.2170 C   0  0  0  0  0  2  0  0  0  0  0  0
  161.7730  210.6830  153.3640 C   0  0  0  0  0  3  0  0  0  0  0  0
  161.8190  210.5490  151.8530 C   0  0  0  0  0  1  0  0  0  0  0  0
  163.1470  210.3110  153.8970 C   0  0  0  0  0  1  0  0  0  0  0  0
  156.7980  212.5710  150.3840 O   0  0  0  0  0  0  0  0  0  0  0  0
  157.6860  213.1050  151.1010 C   0  0  0  0  0  0  0  0  0  0  0  0
  160.4910  213.5720  148.5890 C   0  0  0  0  0  0  0  0  0  0  0  0
  161.4640  214.1890  149.3800 C   0  0  0  0  0  3  0  0  0  0  0  0
  158.9870  213.4790  150.4980 C   0  0  0  0  0  0  0  0  0  0  0  0
  161.2030  214.4520  150.7270 C   0  0  0  0  0  3  0  0  0  0  0  0
  159.2590  213.2190  149.1460 C   0  0  0  0  0  3  0  0  0  0  0  0
  159.9710  214.0990  151.2830 C   0  0  0  0  0  3  0  0  0  0  0  0
  160.7540  213.3010  147.2180 N   0  0  0  0  0  1  0  0  0  0  0  0
  1 14  1  6  0  0  0
  2  7  2  0  0  0  0
  3  9  1  0  0  0  0
  4 20  1  0  0  0  0
  4 11  1  0  0  0  0
  5 13  1  0  0  0  0
  8 18  1  0  0  0  0
 10  9  1  0  0  0  0
 10 22  1  0  0  0  0
 11  1  1  0  0  0  0
 11  2  1  0  0  0  0
 12  3  1  0  0  0  0
 15 22  1  0  0  0  0
 16 21  1  0  0  0  0
 16  4  1  0  0  0  0
 17  6  2  0  0  0  0
 17  1  1  0  0  0  0
 18  2  1  0  0  0  0
 18 15  1  0  0  0  0
 19 13  1  0  0  0  0
 19 12  1  0  0  0  0
 20  8  1  0  0  0  0
 20 13  1  0  0  0  0
 21 17  1  0  0  0  0
 23 25  1  0  0  0  0
 23 19  1  0  0  0  0
 24 23  1  0  0  0  0
 26 27  2  0  0  0  0
 27 16  1  0  0  0  0
 28 32  2  0  0  0  0
 28 29  1  0  0  0  0
 29 31  2  0  0  0  0
 30 27  1  0  0  0  0
 30 33  2  0  0  0  0
 31 33  1  0  0  0  0
 32 30  1  0  0  0  0
 34 28  1  0  0  0  0
M  END
>  <MODEL>
6

>  <REMARK>
 VINA RESULT:       2.4      4.564      9.523
  Name = 
  3 active torsions:
  status: ('A' for Active; 'I' for Inactive)
    1  A    between atoms: C_12  and  C_28
    2  A    between atoms: C_13  and  C_29
    3  A    between atoms: C_21  and  C_28
                            x       y       z     vdW  Elec       q    Type
                         _______ _______ _______ _____ _____    ______ ____

>  <TORSDO>
F 3

$$$$
