=
 OpenBabel11052423103D

 27 31  0  0  0  0  0  0  0  0999 V2000
  161.9300  209.3380  151.6140 C   0  0  0  0  0  0  0  0  0  0  0  0
  161.6060  208.3450  149.6670 C   0  0  0  0  0  0  0  0  0  0  0  0
  161.7460  208.0130  151.8750 N   0  0  0  0  0  0  0  0  0  0  0  0
  160.9760  204.3610  148.6760 C   0  0  0  0  0  3  0  0  0  0  0  0
  160.6870  201.9600  149.2960 C   0  0  0  0  0  1  0  0  0  0  0  0
  161.4530  207.9700  148.3340 C   0  0  0  0  0  3  0  0  0  0  0  0
  161.2870  205.0630  151.3750 C   0  0  0  0  0  3  0  0  0  0  0  0
  161.6500  208.0650  155.4220 O   0  0  0  0  0  0  0  0  0  0  0  0
  161.0710  203.7300  151.0140 C   0  0  0  0  0  3  0  0  0  0  0  0
  160.0220  208.7980  153.9690 O   0  0  0  0  0  0  0  0  0  0  0  0
  161.5620  207.4160  150.6770 C   0  0  0  0  0  0  0  0  0  0  0  0
  161.8410  209.5870  150.2370 C   0  0  0  0  0  0  0  0  0  0  0  0
  160.9170  203.3800  149.6710 C   0  0  0  0  0  0  0  0  0  0  0  0
  161.1910  205.6980  149.0230 C   0  0  0  0  0  0  0  0  0  0  0  0
  162.0780  210.3920  152.6740 C   0  0  0  0  0  2  0  0  0  0  0  0
  161.3510  206.0560  150.3890 C   0  0  0  0  0  0  0  0  0  0  0  0
  161.1700  208.0650  154.2570 C   0  0  0  0  0  0  0  0  0  0  0  0
  161.2470  206.6530  148.0470 N   0  0  0  0  0  0  0  0  0  0  0  0
  159.9430  210.1640  154.3410 C   0  0  0  0  0  2  0  0  0  0  0  0
  160.4770  211.2280  152.9550 S   0  0  0  0  0  0  0  0  0  0  0  0
  161.8760  207.3320  153.1690 C   0  0  0  0  0  2  0  0  0  0  0  0
  162.2200  213.3400  148.1790 C   0  0  0  0  0  3  0  0  0  0  0  0
  161.9770  210.8850  149.5280 C   0  0  0  0  0  0  0  0  0  0  0  0
  161.0290  211.9020  149.7170 C   0  0  0  0  0  3  0  0  0  0  0  0
  161.1480  213.1240  149.0480 C   0  0  0  0  0  3  0  0  0  0  0  0
  163.1700  212.3360  147.9790 C   0  0  0  0  0  3  0  0  0  0  0  0
  163.0470  211.1160  148.6490 C   0  0  0  0  0  3  0  0  0  0  0  0
  1  3  1  0  0  0  0
  1 15  1  0  0  0  0
  2 12  1  0  0  0  0
  2 11  1  0  0  0  0
  3 21  1  0  0  0  0
  4 14  1  0  0  0  0
  4 13  2  0  0  0  0
  5 13  1  0  0  0  0
  6  2  2  0  0  0  0
  9  7  2  0  0  0  0
 10 17  1  0  0  0  0
 10 19  1  0  0  0  0
 11  3  1  0  0  0  0
 12  1  2  0  0  0  0
 13  9  1  0  0  0  0
 14 16  1  0  0  0  0
 15 20  1  0  0  0  0
 16 11  2  0  0  0  0
 16  7  1  0  0  0  0
 17  8  2  0  0  0  0
 18  6  1  0  0  0  0
 18 14  2  0  0  0  0
 20 19  1  0  0  0  0
 21 17  1  0  0  0  0
 22 25  1  0  0  0  0
 23 24  1  0  0  0  0
 23 12  1  0  0  0  0
 25 24  2  0  0  0  0
 26 22  2  0  0  0  0
 26 27  1  0  0  0  0
 27 23  2  0  0  0  0
M  END
>  <MODEL>
1

>  <REMARK>
 VINA RESULT:      -8.6      0.000      0.000
  Name = 
  1 active torsions:
  status: ('A' for Active; 'I' for Inactive)
    1  A    between atoms: C_9  and  C_15
                            x       y       z     vdW  Elec       q    Type
                         _______ _______ _______ _____ _____    ______ ____

>  <TORSDO>
F 1

$$$$
=
 OpenBabel11052423103D

 27 31  0  0  0  0  0  0  0  0999 V2000
  160.6860  204.8530  149.5730 C   0  0  0  0  0  0  0  0  0  0  0  0
  161.4210  206.9280  149.3940 C   0  0  0  0  0  0  0  0  0  0  0  0
  160.6940  205.3760  150.8320 N   0  0  0  0  0  0  0  0  0  0  0  0
  161.9730  209.9120  152.2300 C   0  0  0  0  0  3  0  0  0  0  0  0
  161.9060  210.7510  154.5800 C   0  0  0  0  0  1  0  0  0  0  0  0
  161.8810  208.1850  149.0080 C   0  0  0  0  0  3  0  0  0  0  0  0
  161.0360  207.4000  153.0570 C   0  0  0  0  0  3  0  0  0  0  0  0
  159.8820  202.4920  152.7330 O   0  0  0  0  0  0  0  0  0  0  0  0
  161.2330  208.4200  153.9920 C   0  0  0  0  0  3  0  0  0  0  0  0
  161.8790  202.9620  151.6900 O   0  0  0  0  0  0  0  0  0  0  0  0
  161.1330  206.6490  150.7070 C   0  0  0  0  0  0  0  0  0  0  0  0
  161.1440  205.7960  148.6430 C   0  0  0  0  0  0  0  0  0  0  0  0
  161.6990  209.6720  153.5800 C   0  0  0  0  0  0  0  0  0  0  0  0
  161.7800  208.9000  151.2850 C   0  0  0  0  0  0  0  0  0  0  0  0
  160.3540  203.4220  149.2600 C   0  0  0  0  0  2  0  0  0  0  0  0
  161.3040  207.6270  151.7010 C   0  0  0  0  0  0  0  0  0  0  0  0
  160.6430  203.3440  152.2020 C   0  0  0  0  0  0  0  0  0  0  0  0
  162.0510  209.1400  149.9670 N   0  0  0  0  0  0  0  0  0  0  0  0
  161.9660  201.8640  150.7980 C   0  0  0  0  0  2  0  0  0  0  0  0
  161.8900  202.4490  149.0680 S   0  0  0  0  0  0  0  0  0  0  0  0
  160.1840  204.7550  152.0600 C   0  0  0  0  0  2  0  0  0  0  0  0
  161.5670  205.3270  144.3920 C   0  0  0  0  0  3  0  0  0  0  0  0
  161.2950  205.6380  147.1740 C   0  0  0  0  0  0  0  0  0  0  0  0
  160.3020  206.1090  146.3020 C   0  0  0  0  0  3  0  0  0  0  0  0
  160.4360  205.9560  144.9180 C   0  0  0  0  0  3  0  0  0  0  0  0
  162.5620  204.8510  145.2490 C   0  0  0  0  0  3  0  0  0  0  0  0
  162.4240  205.0050  146.6320 C   0  0  0  0  0  3  0  0  0  0  0  0
  1  3  1  0  0  0  0
  2 11  1  0  0  0  0
  3 21  1  0  0  0  0
  4 13  2  0  0  0  0
  6  2  2  0  0  0  0
  6 18  1  0  0  0  0
  7  9  2  0  0  0  0
 10 17  1  0  0  0  0
 11  3  1  0  0  0  0
 11 16  2  0  0  0  0
 12  2  1  0  0  0  0
 12  1  2  0  0  0  0
 13  9  1  0  0  0  0
 13  5  1  0  0  0  0
 14 16  1  0  0  0  0
 14  4  1  0  0  0  0
 15  1  1  0  0  0  0
 16  7  1  0  0  0  0
 17  8  2  0  0  0  0
 18 14  2  0  0  0  0
 19 10  1  0  0  0  0
 20 15  1  0  0  0  0
 20 19  1  0  0  0  0
 21 17  1  0  0  0  0
 22 25  2  0  0  0  0
 22 26  1  0  0  0  0
 23 12  1  0  0  0  0
 24 23  2  0  0  0  0
 25 24  1  0  0  0  0
 26 27  2  0  0  0  0
 27 23  1  0  0  0  0
M  END
>  <MODEL>
2

>  <REMARK>
 VINA RESULT:      -7.3      3.356      6.175
  Name = 
  1 active torsions:
  status: ('A' for Active; 'I' for Inactive)
    1  A    between atoms: C_9  and  C_15
                            x       y       z     vdW  Elec       q    Type
                         _______ _______ _______ _____ _____    ______ ____

>  <TORSDO>
F 1

$$$$
=
 OpenBabel11052423103D

 27 31  0  0  0  0  0  0  0  0999 V2000
  161.5220  210.4110  151.1450 C   0  0  0  0  0  0  0  0  0  0  0  0
  161.6730  208.8190  149.6220 C   0  0  0  0  0  0  0  0  0  0  0  0
  161.3590  209.2250  151.7990 N   0  0  0  0  0  0  0  0  0  0  0  0
  161.4880  204.6810  149.9290 C   0  0  0  0  0  3  0  0  0  0  0  0
  161.2070  202.5850  151.2560 C   0  0  0  0  0  1  0  0  0  0  0  0
  161.8270  208.0240  148.4880 C   0  0  0  0  0  3  0  0  0  0  0  0
  161.1800  206.2360  152.2440 C   0  0  0  0  0  3  0  0  0  0  0  0
  160.5090  210.3900  155.0410 O   0  0  0  0  0  0  0  0  0  0  0  0
  161.1180  204.8420  152.3190 C   0  0  0  0  0  3  0  0  0  0  0  0
  159.1900  210.4180  153.1550 O   0  0  0  0  0  0  0  0  0  0  0  0
  161.4670  208.2600  150.8580 C   0  0  0  0  0  0  0  0  0  0  0  0
  161.7130  210.1960  149.7730 C   0  0  0  0  0  0  0  0  0  0  0  0
  161.2730  204.0670  151.1670 C   0  0  0  0  0  0  0  0  0  0  0  0
  161.5510  206.0740  149.8400 C   0  0  0  0  0  0  0  0  0  0  0  0
  161.3830  211.7570  151.7980 C   0  0  0  0  0  2  0  0  0  0  0  0
  161.3960  206.8640  151.0110 C   0  0  0  0  0  0  0  0  0  0  0  0
  160.2880  209.9610  153.8770 C   0  0  0  0  0  0  0  0  0  0  0  0
  161.7600  206.6690  148.6270 N   0  0  0  0  0  0  0  0  0  0  0  0
  158.9580  211.8110  153.0260 C   0  0  0  0  0  2  0  0  0  0  0  0
  159.7150  212.4360  151.4850 S   0  0  0  0  0  0  0  0  0  0  0  0
  161.2490  209.0120  153.2470 C   0  0  0  0  0  2  0  0  0  0  0  0
  162.3320  213.1370  146.7010 C   0  0  0  0  0  3  0  0  0  0  0  0
  161.9260  211.2080  148.7070 C   0  0  0  0  0  0  0  0  0  0  0  0
  163.1920  211.7800  148.5110 C   0  0  0  0  0  3  0  0  0  0  0  0
  163.3960  212.7380  147.5130 C   0  0  0  0  0  3  0  0  0  0  0  0
  161.0650  212.5780  146.8880 C   0  0  0  0  0  3  0  0  0  0  0  0
  160.8650  211.6210  147.8860 C   0  0  0  0  0  3  0  0  0  0  0  0
  1 15  1  0  0  0  0
  1  3  1  0  0  0  0
  2 12  1  0  0  0  0
  2 11  1  0  0  0  0
  3 21  1  0  0  0  0
  4 13  2  0  0  0  0
  6 18  1  0  0  0  0
  6  2  2  0  0  0  0
  7  9  2  0  0  0  0
 10 17  1  0  0  0  0
 11 16  2  0  0  0  0
 11  3  1  0  0  0  0
 12  1  2  0  0  0  0
 13  5  1  0  0  0  0
 13  9  1  0  0  0  0
 14  4  1  0  0  0  0
 14 16  1  0  0  0  0
 16  7  1  0  0  0  0
 17  8  2  0  0  0  0
 18 14  2  0  0  0  0
 19 10  1  0  0  0  0
 20 15  1  0  0  0  0
 20 19  1  0  0  0  0
 21 17  1  0  0  0  0
 22 26  2  0  0  0  0
 22 25  1  0  0  0  0
 23 12  1  0  0  0  0
 24 23  1  0  0  0  0
 25 24  2  0  0  0  0
 26 27  1  0  0  0  0
 27 23  2  0  0  0  0
M  END
>  <MODEL>
3

>  <REMARK>
 VINA RESULT:      -7.1      1.338      1.734
  Name = 
  1 active torsions:
  status: ('A' for Active; 'I' for Inactive)
    1  A    between atoms: C_9  and  C_15
                            x       y       z     vdW  Elec       q    Type
                         _______ _______ _______ _____ _____    ______ ____

>  <TORSDO>
F 1

$$$$
=
 OpenBabel11052423103D

 27 31  0  0  0  0  0  0  0  0999 V2000
  160.7940  207.6460  151.7790 C   0  0  0  0  0  0  0  0  0  0  0  0
  160.9410  205.5500  152.4610 C   0  0  0  0  0  0  0  0  0  0  0  0
  160.8840  206.8740  150.6590 N   0  0  0  0  0  0  0  0  0  0  0  0
  161.2020  201.9770  150.3600 C   0  0  0  0  0  3  0  0  0  0  0  0
  161.3290  200.6850  148.2280 C   0  0  0  0  0  1  0  0  0  0  0  0
  160.9980  204.3370  153.1450 C   0  0  0  0  0  3  0  0  0  0  0  0
  161.0820  204.3920  148.9360 C   0  0  0  0  0  3  0  0  0  0  0  0
  161.1600  209.3850  148.1670 O   0  0  0  0  0  0  0  0  0  0  0  0
  161.1730  203.1760  148.2530 C   0  0  0  0  0  3  0  0  0  0  0  0
  162.7670  208.7370  149.6830 O   0  0  0  0  0  0  0  0  0  0  0  0
  160.9610  205.5950  151.0890 C   0  0  0  0  0  0  0  0  0  0  0  0
  160.8340  206.8490  152.9320 C   0  0  0  0  0  0  0  0  0  0  0  0
  161.2320  201.9730  148.9610 C   0  0  0  0  0  0  0  0  0  0  0  0
  161.1110  203.1860  151.0550 C   0  0  0  0  0  0  0  0  0  0  0  0
  160.7830  209.1480  151.7660 C   0  0  0  0  0  2  0  0  0  0  0  0
  161.0490  204.4110  150.3360 C   0  0  0  0  0  0  0  0  0  0  0  0
  161.5810  208.5250  148.9870 C   0  0  0  0  0  0  0  0  0  0  0  0
  161.0840  203.1840  152.4210 N   0  0  0  0  0  0  0  0  0  0  0  0
  162.9730  209.9580  150.3740 C   0  0  0  0  0  2  0  0  0  0  0  0
  162.4580  209.7900  152.1190 S   0  0  0  0  0  0  0  0  0  0  0  0
  160.7650  207.3090  149.2620 C   0  0  0  0  0  2  0  0  0  0  0  0
  160.6230  208.1170  157.0330 C   0  0  0  0  0  3  0  0  0  0  0  0
  160.7660  207.2850  154.3500 C   0  0  0  0  0  0  0  0  0  0  0  0
  159.7940  206.7550  155.2120 C   0  0  0  0  0  3  0  0  0  0  0  0
  159.7220  207.1670  156.5460 C   0  0  0  0  0  3  0  0  0  0  0  0
  161.5940  208.6560  156.1850 C   0  0  0  0  0  3  0  0  0  0  0  0
  161.6630  208.2420  154.8520 C   0  0  0  0  0  3  0  0  0  0  0  0
  1 12  2  0  0  0  0
  2 12  1  0  0  0  0
  2  6  1  0  0  0  0
  3 11  1  0  0  0  0
  3  1  1  0  0  0  0
  4 14  1  0  0  0  0
  5 13  1  0  0  0  0
  7 16  1  0  0  0  0
  8 17  2  0  0  0  0
  9  7  2  0  0  0  0
  9 13  1  0  0  0  0
 10 19  1  0  0  0  0
 11  2  2  0  0  0  0
 12 23  1  0  0  0  0
 13  4  2  0  0  0  0
 14 18  1  0  0  0  0
 15  1  1  0  0  0  0
 15 20  1  0  0  0  0
 16 14  2  0  0  0  0
 16 11  1  0  0  0  0
 17 21  1  0  0  0  0
 17 10  1  0  0  0  0
 18  6  2  0  0  0  0
 19 20  1  0  0  0  0
 21  3  1  0  0  0  0
 23 27  2  0  0  0  0
 23 24  1  0  0  0  0
 24 25  2  0  0  0  0
 25 22  1  0  0  0  0
 26 22  2  0  0  0  0
 27 26  1  0  0  0  0
M  END
>  <MODEL>
4

>  <REMARK>
 VINA RESULT:      -7.1      2.436      5.249
  Name = 
  1 active torsions:
  status: ('A' for Active; 'I' for Inactive)
    1  A    between atoms: C_9  and  C_15
                            x       y       z     vdW  Elec       q    Type
                         _______ _______ _______ _____ _____    ______ ____

>  <TORSDO>
F 1

$$$$
=
 OpenBabel11052423103D

 27 31  0  0  0  0  0  0  0  0999 V2000
  161.2090  209.0880  153.3070 C   0  0  0  0  0  0  0  0  0  0  0  0
  160.9800  208.1780  151.3080 C   0  0  0  0  0  0  0  0  0  0  0  0
  161.2100  207.7370  153.4880 N   0  0  0  0  0  0  0  0  0  0  0  0
  160.8690  204.2120  150.0790 C   0  0  0  0  0  3  0  0  0  0  0  0
  160.9180  201.7620  150.5520 C   0  0  0  0  0  1  0  0  0  0  0  0
  160.8510  207.8660  149.9560 C   0  0  0  0  0  3  0  0  0  0  0  0
  161.1400  204.7870  152.8120 C   0  0  0  0  0  3  0  0  0  0  0  0
  161.1810  207.5630  157.0320 O   0  0  0  0  0  0  0  0  0  0  0  0
  161.0960  203.4610  152.3720 C   0  0  0  0  0  3  0  0  0  0  0  0
  159.4410  208.1550  155.6480 O   0  0  0  0  0  0  0  0  0  0  0  0
  161.0820  207.1920  152.2580 C   0  0  0  0  0  0  0  0  0  0  0  0
  161.0590  209.4040  151.9500 C   0  0  0  0  0  0  0  0  0  0  0  0
  160.9630  203.1740  151.0110 C   0  0  0  0  0  0  0  0  0  0  0  0
  160.9100  205.5420  150.5050 C   0  0  0  0  0  0  0  0  0  0  0  0
  161.2370  210.0870  154.4290 C   0  0  0  0  0  2  0  0  0  0  0  0
  161.0490  205.8360  151.8890 C   0  0  0  0  0  0  0  0  0  0  0  0
  160.6810  207.5680  155.8760 C   0  0  0  0  0  0  0  0  0  0  0  0
  160.8170  206.5530  149.5900 N   0  0  0  0  0  0  0  0  0  0  0  0
  159.1870  209.4720  156.1050 C   0  0  0  0  0  2  0  0  0  0  0  0
  159.5440  210.6800  154.7810 S   0  0  0  0  0  0  0  0  0  0  0  0
  161.4570  207.0030  154.7360 C   0  0  0  0  0  2  0  0  0  0  0  0
  160.8860  213.2920  150.1290 C   0  0  0  0  0  3  0  0  0  0  0  0
  161.0050  210.7480  151.3220 C   0  0  0  0  0  0  0  0  0  0  0  0
  160.1620  211.7430  151.8410 C   0  0  0  0  0  3  0  0  0  0  0  0
  160.1020  213.0090  151.2490 C   0  0  0  0  0  3  0  0  0  0  0  0
  161.7280  212.3110  149.6000 C   0  0  0  0  0  3  0  0  0  0  0  0
  161.7850  211.0470  150.1930 C   0  0  0  0  0  3  0  0  0  0  0  0
  1  3  1  0  0  0  0
  1 15  1  0  0  0  0
  2 12  1  0  0  0  0
  2 11  1  0  0  0  0
  3 21  1  0  0  0  0
  4 14  1  0  0  0  0
  4 13  2  0  0  0  0
  5 13  1  0  0  0  0
  6  2  2  0  0  0  0
  9  7  2  0  0  0  0
 10 17  1  0  0  0  0
 10 19  1  0  0  0  0
 11  3  1  0  0  0  0
 12  1  2  0  0  0  0
 13  9  1  0  0  0  0
 14 16  1  0  0  0  0
 15 20  1  0  0  0  0
 16 11  2  0  0  0  0
 16  7  1  0  0  0  0
 17  8  2  0  0  0  0
 18  6  1  0  0  0  0
 18 14  2  0  0  0  0
 20 19  1  0  0  0  0
 21 17  1  0  0  0  0
 22 25  1  0  0  0  0
 23 24  1  0  0  0  0
 23 12  1  0  0  0  0
 25 24  2  0  0  0  0
 26 22  2  0  0  0  0
 26 27  1  0  0  0  0
 27 23  2  0  0  0  0
M  END
>  <MODEL>
5

>  <REMARK>
 VINA RESULT:      -6.8      1.453      1.831
  Name = 
  1 active torsions:
  status: ('A' for Active; 'I' for Inactive)
    1  A    between atoms: C_9  and  C_15
                            x       y       z     vdW  Elec       q    Type
                         _______ _______ _______ _____ _____    ______ ____

>  <TORSDO>
F 1

$$$$
=
 OpenBabel11052423103D

 27 31  0  0  0  0  0  0  0  0999 V2000
  160.6850  212.8830  150.4670 C   0  0  0  0  0  0  0  0  0  0  0  0
  161.4700  210.9650  149.7000 C   0  0  0  0  0  0  0  0  0  0  0  0
  160.5450  211.9710  151.4710 N   0  0  0  0  0  0  0  0  0  0  0  0
  161.8540  207.2330  151.4810 C   0  0  0  0  0  3  0  0  0  0  0  0
  161.5660  205.6790  153.4140 C   0  0  0  0  0  1  0  0  0  0  0  0
  162.0340  209.9060  148.9930 C   0  0  0  0  0  3  0  0  0  0  0  0
  160.7200  209.3370  152.9520 C   0  0  0  0  0  3  0  0  0  0  0  0
  158.7140  213.8900  153.8280 O   0  0  0  0  0  0  0  0  0  0  0  0
  160.8570  208.0700  153.5270 C   0  0  0  0  0  3  0  0  0  0  0  0
  157.9400  212.9900  151.8560 O   0  0  0  0  0  0  0  0  0  0  0  0
  161.0400  210.8070  150.9940 C   0  0  0  0  0  0  0  0  0  0  0  0
  161.2570  212.2850  149.3350 C   0  0  0  0  0  0  0  0  0  0  0  0
  161.4230  207.0220  152.7950 C   0  0  0  0  0  0  0  0  0  0  0  0
  161.7220  208.4940  150.8950 C   0  0  0  0  0  0  0  0  0  0  0  0
  160.1760  214.2940  150.5350 C   0  0  0  0  0  2  0  0  0  0  0  0
  161.1490  209.5620  151.6380 C   0  0  0  0  0  0  0  0  0  0  0  0
  158.8710  213.0660  152.8880 C   0  0  0  0  0  0  0  0  0  0  0  0
  162.1430  208.6940  149.6100 N   0  0  0  0  0  0  0  0  0  0  0  0
  157.5380  214.1690  151.1780 C   0  0  0  0  0  2  0  0  0  0  0  0
  158.5620  214.4190  149.6860 S   0  0  0  0  0  0  0  0  0  0  0  0
  160.0970  212.2200  152.8460 C   0  0  0  0  0  2  0  0  0  0  0  0
  162.1930  214.0940  145.5500 C   0  0  0  0  0  3  0  0  0  0  0  0
  161.5790  212.9160  148.0290 C   0  0  0  0  0  0  0  0  0  0  0  0
  160.8660  212.5620  146.8720 C   0  0  0  0  0  3  0  0  0  0  0  0
  161.1700  213.1470  145.6400 C   0  0  0  0  0  3  0  0  0  0  0  0
  162.9120  214.4530  146.6930 C   0  0  0  0  0  3  0  0  0  0  0  0
  162.6070  213.8660  147.9230 C   0  0  0  0  0  3  0  0  0  0  0  0
  1 15  1  0  0  0  0
  1  3  1  0  0  0  0
  2 11  1  0  0  0  0
  3 21  1  0  0  0  0
  4 13  2  0  0  0  0
  6 18  1  0  0  0  0
  6  2  2  0  0  0  0
  7  9  2  0  0  0  0
 10 17  1  0  0  0  0
 11  3  1  0  0  0  0
 11 16  2  0  0  0  0
 12  2  1  0  0  0  0
 12  1  2  0  0  0  0
 13  5  1  0  0  0  0
 13  9  1  0  0  0  0
 14  4  1  0  0  0  0
 14 16  1  0  0  0  0
 16  7  1  0  0  0  0
 17  8  2  0  0  0  0
 18 14  2  0  0  0  0
 19 10  1  0  0  0  0
 20 15  1  0  0  0  0
 20 19  1  0  0  0  0
 21 17  1  0  0  0  0
 22 25  2  0  0  0  0
 22 26  1  0  0  0  0
 23 12  1  0  0  0  0
 24 23  2  0  0  0  0
 25 24  1  0  0  0  0
 26 27  2  0  0  0  0
 27 23  1  0  0  0  0
M  END
>  <MODEL>
6

>  <REMARK>
 VINA RESULT:      -6.3      2.893      4.192
  Name = 
  1 active torsions:
  status: ('A' for Active; 'I' for Inactive)
    1  A    between atoms: C_9  and  C_15
                            x       y       z     vdW  Elec       q    Type
                         _______ _______ _______ _____ _____    ______ ____

>  <TORSDO>
F 1

$$$$
=
 OpenBabel11052423103D

 27 31  0  0  0  0  0  0  0  0999 V2000
  160.4750  209.2590  152.5570 C   0  0  0  0  0  0  0  0  0  0  0  0
  161.4400  209.1400  150.5740 C   0  0  0  0  0  0  0  0  0  0  0  0
  160.5650  210.5350  152.0870 N   0  0  0  0  0  0  0  0  0  0  0  0
  162.3800  212.0700  147.7850 C   0  0  0  0  0  3  0  0  0  0  0  0
  162.4500  214.4500  147.0350 C   0  0  0  0  0  1  0  0  0  0  0  0
  162.0340  208.7900  149.3630 C   0  0  0  0  0  3  0  0  0  0  0  0
  161.1750  212.8250  150.2040 C   0  0  0  0  0  3  0  0  0  0  0  0
  159.4610  212.3460  154.9320 O   0  0  0  0  0  0  0  0  0  0  0  0
  161.5050  213.7920  149.2500 C   0  0  0  0  0  3  0  0  0  0  0  0
  161.4800  211.2780  154.6520 O   0  0  0  0  0  0  0  0  0  0  0  0
  161.1440  210.4480  150.8690 C   0  0  0  0  0  0  0  0  0  0  0  0
  161.0220  208.3540  151.6360 C   0  0  0  0  0  0  0  0  0  0  0  0
  162.1040  213.4170  148.0440 C   0  0  0  0  0  0  0  0  0  0  0  0
  162.0560  211.0940  148.7300 C   0  0  0  0  0  0  0  0  0  0  0  0
  159.9750  208.9000  153.9280 C   0  0  0  0  0  2  0  0  0  0  0  0
  161.4450  211.4730  149.9560 C   0  0  0  0  0  0  0  0  0  0  0  0
  160.3050  211.8310  154.1520 C   0  0  0  0  0  0  0  0  0  0  0  0
  162.3300  209.7800  148.4720 N   0  0  0  0  0  0  0  0  0  0  0  0
  161.4250  210.3440  155.7170 C   0  0  0  0  0  2  0  0  0  0  0  0
  161.3860  208.6400  155.0610 S   0  0  0  0  0  0  0  0  0  0  0  0
  160.0090  211.7510  152.6940 C   0  0  0  0  0  2  0  0  0  0  0  0
  161.3130  204.0800  151.9710 C   0  0  0  0  0  3  0  0  0  0  0  0
  161.1280  206.8770  151.7540 C   0  0  0  0  0  0  0  0  0  0  0  0
  160.9800  206.0610  150.6220 C   0  0  0  0  0  3  0  0  0  0  0  0
  161.0720  204.6700  150.7280 C   0  0  0  0  0  3  0  0  0  0  0  0
  161.4600  204.8800  153.1060 C   0  0  0  0  0  3  0  0  0  0  0  0
  161.3660  206.2700  152.9970 C   0  0  0  0  0  3  0  0  0  0  0  0
  1 15  1  0  0  0  0
  2 11  1  0  0  0  0
  2 12  1  0  0  0  0
  3  1  1  0  0  0  0
  3 21  1  0  0  0  0
  4 13  2  0  0  0  0
  4 14  1  0  0  0  0
  5 13  1  0  0  0  0
  6  2  2  0  0  0  0
  9  7  2  0  0  0  0
 10 19  1  0  0  0  0
 11  3  1  0  0  0  0
 12 23  1  0  0  0  0
 12  1  2  0  0  0  0
 13  9  1  0  0  0  0
 14 16  1  0  0  0  0
 15 20  1  0  0  0  0
 16  7  1  0  0  0  0
 16 11  2  0  0  0  0
 17 10  1  0  0  0  0
 17  8  2  0  0  0  0
 18 14  2  0  0  0  0
 18  6  1  0  0  0  0
 20 19  1  0  0  0  0
 21 17  1  0  0  0  0
 22 26  1  0  0  0  0
 23 27  1  0  0  0  0
 24 25  1  0  0  0  0
 24 23  2  0  0  0  0
 25 22  2  0  0  0  0
 27 26  2  0  0  0  0
M  END
>  <MODEL>
7

>  <REMARK>
 VINA RESULT:      -5.8      1.831      6.243
  Name = 
  1 active torsions:
  status: ('A' for Active; 'I' for Inactive)
    1  A    between atoms: C_9  and  C_15
                            x       y       z     vdW  Elec       q    Type
                         _______ _______ _______ _____ _____    ______ ____

>  <TORSDO>
F 1

$$$$
