=
 OpenBabel11052422113D

 25 28  0  0  1  0  0  0  0  0999 V2000
  161.3670  208.2020  153.0630 C   0  0  0  0  0  0  0  0  0  0  0  0
  161.4230  207.4180  151.9520 N   0  0  0  0  0  0  0  0  0  0  0  0
  161.0370  205.4420  153.2190 C   0  0  0  0  0  3  0  0  0  0  0  0
  161.6380  207.6830  150.6550 C   0  0  0  0  0  0  0  0  0  0  0  0
  159.1910  211.2760  153.7520 N   0  0  0  0  0  2  0  0  0  0  0  0
  162.0240  207.6630  147.9170 C   0  0  0  0  0  3  0  0  0  0  0  0
  160.9470  206.2150  154.3400 N   0  0  0  0  0  0  0  0  0  0  0  0
  161.6090  206.4970  149.9670 C   0  0  0  0  0  0  0  0  0  0  0  0
  161.8000  206.4460  148.5890 C   0  0  0  0  0  3  0  0  0  0  0  0
  160.8860  208.4520  155.5030 C   0  0  2  0  0  3  0  0  0  0  0  0
  160.2950  207.6900  156.6780 C   0  0  0  0  0  1  0  0  0  0  0  0
  159.1740  212.1400  152.6100 C   0  0  0  0  0  0  0  0  0  0  0  0
  161.6190  209.9840  153.0270 S   0  0  0  0  0  0  0  0  0  0  0  0
  162.0520  208.8830  148.6280 C   0  0  0  0  0  3  0  0  0  0  0  0
  161.2750  206.0750  152.0030 C   0  0  0  0  0  0  0  0  0  0  0  0
  161.3820  205.4580  150.7990 N   0  0  0  0  0  0  0  0  0  0  0  0
  159.9990  209.5620  155.1470 N   0  0  0  0  0  0  0  0  0  0  0  0
  161.8570  208.9060  150.0210 C   0  0  0  0  0  3  0  0  0  0  0  0
  160.1800  210.2900  154.0840 C   0  0  0  0  0  0  0  0  0  0  0  0
  161.0980  207.5760  154.2930 C   0  0  0  0  0  0  0  0  0  0  0  0
  160.0890  212.1040  151.7450 O   0  0  0  0  0  0  0  0  0  0  0  0
  158.0650  213.1220  152.4570 C   0  0  0  0  0  2  0  0  0  0  0  0
  157.5850  213.5700  153.7940 C   0  0  0  0  0  0  0  0  0  0  0  0
  158.2660  214.3880  154.4660 O   0  0  0  0  0  0  0  0  0  0  0  0
  156.3390  213.1020  154.2970 N   0  0  0  0  0  1  0  0  0  0  0  0
  1 20  2  0  0  0  0
  2 15  1  0  0  0  0
  2  1  1  0  0  0  0
  3  7  2  0  0  0  0
  4  2  1  0  0  0  0
  5 19  1  0  0  0  0
  6  9  2  0  0  0  0
  6 14  1  0  0  0  0
  8  4  2  0  0  0  0
  8 16  1  0  0  0  0
  9  8  1  0  0  0  0
 10 11  1  1  0  0  0
 12  5  1  0  0  0  0
 13  1  1  0  0  0  0
 13 19  1  0  0  0  0
 14 18  2  0  0  0  0
 15  3  1  0  0  0  0
 16 15  2  0  0  0  0
 17 10  1  0  0  0  0
 18  4  1  0  0  0  0
 19 17  2  0  0  0  0
 20  7  1  0  0  0  0
 20 10  1  0  0  0  0
 21 12  2  0  0  0  0
 22 12  1  0  0  0  0
 22 23  1  0  0  0  0
 23 25  1  0  0  0  0
 23 24  2  0  0  0  0
M  END
>  <MODEL>
1

>  <REMARK>
 VINA RESULT:      -6.9      0.000      0.000
  Name = 
  2 active torsions:
  status: ('A' for Active; 'I' for Inactive)
    1  A    between atoms: C_2  and  C_21
    2  A    between atoms: C_15  and  C_21
                            x       y       z     vdW  Elec       q    Type
                         _______ _______ _______ _____ _____    ______ ____

>  <TORSDO>
F 2

$$$$
=
 OpenBabel11052422113D

 25 28  0  0  1  0  0  0  0  0999 V2000
  161.6580  208.4520  152.1050 C   0  0  0  0  0  0  0  0  0  0  0  0
  161.0580  208.9000  153.2420 N   0  0  0  0  0  0  0  0  0  0  0  0
  160.6590  211.0450  152.2920 C   0  0  0  0  0  3  0  0  0  0  0  0
  160.8180  208.3340  154.4330 C   0  0  0  0  0  0  0  0  0  0  0  0
  160.8680  205.3450  150.0120 N   0  0  0  0  0  2  0  0  0  0  0  0
  160.0910  207.6760  157.0190 C   0  0  0  0  0  3  0  0  0  0  0  0
  161.2300  210.6040  151.1330 N   0  0  0  0  0  0  0  0  0  0  0  0
  160.1960  209.2620  155.2290 C   0  0  0  0  0  0  0  0  0  0  0  0
  159.8150  208.9690  156.5360 C   0  0  0  0  0  3  0  0  0  0  0  0
  162.2500  208.7960  149.7010 C   0  0  2  0  0  3  0  0  0  0  0  0
  161.9740  209.7310  148.5350 C   0  0  0  0  0  1  0  0  0  0  0  0
  160.6520  204.2140  150.8640 C   0  0  0  0  0  0  0  0  0  0  0  0
  162.3620  206.8030  151.9440 S   0  0  0  0  0  0  0  0  0  0  0  0
  160.7310  206.7210  156.1980 C   0  0  0  0  0  3  0  0  0  0  0  0
  160.5740  210.1570  153.3600 C   0  0  0  0  0  0  0  0  0  0  0  0
  160.0290  210.4310  154.5730 N   0  0  0  0  0  0  0  0  0  0  0  0
  161.6420  207.4910  149.4330 N   0  0  0  0  0  0  0  0  0  0  0  0
  161.1050  207.0450  154.8810 C   0  0  0  0  0  3  0  0  0  0  0  0
  161.5910  206.5440  150.3260 C   0  0  0  0  0  0  0  0  0  0  0  0
  161.7230  209.3320  151.0100 C   0  0  0  0  0  0  0  0  0  0  0  0
  161.1100  204.1750  152.0360 O   0  0  0  0  0  0  0  0  0  0  0  0
  159.8910  203.0450  150.3400 C   0  0  0  0  0  2  0  0  0  0  0  0
  160.7950  202.1430  149.5730 C   0  0  0  0  0  0  0  0  0  0  0  0
  161.2450  201.0980  150.1100 O   0  0  0  0  0  0  0  0  0  0  0  0
  161.1200  202.4430  148.2210 N   0  0  0  0  0  1  0  0  0  0  0  0
  1  2  1  0  0  0  0
  2 15  1  0  0  0  0
  2  4  1  0  0  0  0
  3 15  1  0  0  0  0
  4 18  2  0  0  0  0
  4  8  1  0  0  0  0
  5 19  1  0  0  0  0
  5 12  1  0  0  0  0
  7  3  2  0  0  0  0
  8  9  2  0  0  0  0
  9  6  1  0  0  0  0
 10 11  1  6  0  0  0
 10 20  1  0  0  0  0
 12 21  2  0  0  0  0
 13  1  1  0  0  0  0
 14  6  2  0  0  0  0
 15 16  2  0  0  0  0
 16  8  1  0  0  0  0
 17 10  1  0  0  0  0
 17 19  2  0  0  0  0
 18 14  1  0  0  0  0
 19 13  1  0  0  0  0
 20  7  1  0  0  0  0
 20  1  2  0  0  0  0
 22 12  1  0  0  0  0
 23 24  2  0  0  0  0
 23 22  1  0  0  0  0
 25 23  1  0  0  0  0
M  END
>  <MODEL>
2

>  <REMARK>
 VINA RESULT:      -6.8      3.417      7.657
  Name = 
  2 active torsions:
  status: ('A' for Active; 'I' for Inactive)
    1  A    between atoms: C_2  and  C_21
    2  A    between atoms: C_15  and  C_21
                            x       y       z     vdW  Elec       q    Type
                         _______ _______ _______ _____ _____    ______ ____

>  <TORSDO>
F 2

$$$$
=
 OpenBabel11052422113D

 25 28  0  0  1  0  0  0  0  0999 V2000
  161.4610  207.7720  152.7410 C   0  0  0  0  0  0  0  0  0  0  0  0
  161.4040  206.9800  151.6350 N   0  0  0  0  0  0  0  0  0  0  0  0
  160.9710  205.0380  152.9390 C   0  0  0  0  0  3  0  0  0  0  0  0
  161.5590  207.2250  150.3260 C   0  0  0  0  0  0  0  0  0  0  0  0
  159.5240  210.9780  153.5270 N   0  0  0  0  0  2  0  0  0  0  0  0
  161.7850  207.1660  147.5700 C   0  0  0  0  0  3  0  0  0  0  0  0
  160.9930  205.8210  154.0570 N   0  0  0  0  0  0  0  0  0  0  0  0
  161.4180  206.0400  149.6510 C   0  0  0  0  0  0  0  0  0  0  0  0
  161.5240  205.9690  148.2640 C   0  0  0  0  0  3  0  0  0  0  0  0
  161.1390  208.0630  155.2020 C   0  0  2  0  0  3  0  0  0  0  0  0
  160.5710  207.3450  156.4150 C   0  0  0  0  0  1  0  0  0  0  0  0
  159.4940  211.8360  152.3800 C   0  0  0  0  0  0  0  0  0  0  0  0
  161.8210  209.5340  152.6750 S   0  0  0  0  0  0  0  0  0  0  0  0
  161.9290  208.3860  148.2680 C   0  0  0  0  0  3  0  0  0  0  0  0
  161.1760  205.6490  151.7060 C   0  0  0  0  0  0  0  0  0  0  0  0
  161.1750  205.0200  150.5030 N   0  0  0  0  0  0  0  0  0  0  0  0
  160.3030  209.2250  154.8880 N   0  0  0  0  0  0  0  0  0  0  0  0
  161.8170  208.4280  149.6690 C   0  0  0  0  0  3  0  0  0  0  0  0
  160.4670  209.9350  153.8100 C   0  0  0  0  0  0  0  0  0  0  0  0
  161.2260  207.1690  153.9890 C   0  0  0  0  0  0  0  0  0  0  0  0
  160.3530  211.7390  151.4650 O   0  0  0  0  0  0  0  0  0  0  0  0
  158.4410  212.8840  152.2830 C   0  0  0  0  0  2  0  0  0  0  0  0
  158.3630  213.4110  150.8920 C   0  0  0  0  0  0  0  0  0  0  0  0
  157.5030  212.9580  150.0940 O   0  0  0  0  0  0  0  0  0  0  0  0
  159.2390  214.4530  150.4760 N   0  0  0  0  0  1  0  0  0  0  0  0
  1 20  2  0  0  0  0
  2 15  1  0  0  0  0
  2  1  1  0  0  0  0
  3  7  2  0  0  0  0
  4  2  1  0  0  0  0
  5 19  1  0  0  0  0
  6  9  2  0  0  0  0
  6 14  1  0  0  0  0
  8  4  2  0  0  0  0
  8 16  1  0  0  0  0
  9  8  1  0  0  0  0
 10 11  1  1  0  0  0
 12  5  1  0  0  0  0
 13  1  1  0  0  0  0
 13 19  1  0  0  0  0
 14 18  2  0  0  0  0
 15  3  1  0  0  0  0
 16 15  2  0  0  0  0
 17 10  1  0  0  0  0
 18  4  1  0  0  0  0
 19 17  2  0  0  0  0
 20  7  1  0  0  0  0
 20 10  1  0  0  0  0
 21 12  2  0  0  0  0
 22 12  1  0  0  0  0
 23 22  1  0  0  0  0
 24 23  2  0  0  0  0
 25 23  1  0  0  0  0
M  END
>  <MODEL>
3

>  <REMARK>
 VINA RESULT:      -6.8      1.354      1.579
  Name = 
  2 active torsions:
  status: ('A' for Active; 'I' for Inactive)
    1  A    between atoms: C_2  and  C_21
    2  A    between atoms: C_15  and  C_21
                            x       y       z     vdW  Elec       q    Type
                         _______ _______ _______ _____ _____    ______ ____

>  <TORSDO>
F 2

$$$$
=
 OpenBabel11052422113D

 25 28  0  0  1  0  0  0  0  0999 V2000
  161.2560  208.6520  153.6800 C   0  0  0  0  0  0  0  0  0  0  0  0
  161.4230  208.2300  152.3970 N   0  0  0  0  0  0  0  0  0  0  0  0
  161.1800  205.9480  153.0210 C   0  0  0  0  0  3  0  0  0  0  0  0
  161.6570  208.8760  151.2450 C   0  0  0  0  0  0  0  0  0  0  0  0
  158.7810  211.2110  155.0870 N   0  0  0  0  0  2  0  0  0  0  0  0
  162.1370  209.6800  148.6430 C   0  0  0  0  0  3  0  0  0  0  0  0
  160.9790  206.3530  154.3090 N   0  0  0  0  0  0  0  0  0  0  0  0
  161.7630  207.9420  150.2470 C   0  0  0  0  0  0  0  0  0  0  0  0
  162.0040  208.3070  148.9250 C   0  0  0  0  0  3  0  0  0  0  0  0
  160.6700  208.1450  156.0570 C   0  0  2  0  0  3  0  0  0  0  0  0
  160.1130  207.0310  156.9270 C   0  0  0  0  0  1  0  0  0  0  0  0
  158.7230  212.3650  154.2400 C   0  0  0  0  0  0  0  0  0  0  0  0
  161.3420  210.3820  154.1700 S   0  0  0  0  0  0  0  0  0  0  0  0
  162.0270  210.6410  149.6730 C   0  0  0  0  0  3  0  0  0  0  0  0
  161.3990  206.9230  152.0530 C   0  0  0  0  0  0  0  0  0  0  0  0
  161.6040  206.6910  150.7320 N   0  0  0  0  0  0  0  0  0  0  0  0
  159.6960  209.2370  155.9800 N   0  0  0  0  0  0  0  0  0  0  0  0
  161.7820  210.2430  151.0000 C   0  0  0  0  0  3  0  0  0  0  0  0
  159.8450  210.2540  155.1810 C   0  0  0  0  0  0  0  0  0  0  0  0
  161.0040  207.6770  154.6620 C   0  0  0  0  0  0  0  0  0  0  0  0
  159.6660  212.6540  153.4570 O   0  0  0  0  0  0  0  0  0  0  0  0
  157.5320  213.2580  154.3080 C   0  0  0  0  0  2  0  0  0  0  0  0
  156.4490  212.6140  155.1020 C   0  0  0  0  0  0  0  0  0  0  0  0
  155.7400  211.7120  154.5860 O   0  0  0  0  0  0  0  0  0  0  0  0
  156.2390  212.9940  156.4580 N   0  0  0  0  0  1  0  0  0  0  0  0
  1 13  1  0  0  0  0
  1 20  2  0  0  0  0
  2  1  1  0  0  0  0
  3  7  2  0  0  0  0
  4  2  1  0  0  0  0
  5 19  1  0  0  0  0
  6  9  2  0  0  0  0
  6 14  1  0  0  0  0
  7 20  1  0  0  0  0
  8 16  1  0  0  0  0
  8  4  2  0  0  0  0
  9  8  1  0  0  0  0
 10 11  1  1  0  0  0
 12 22  1  0  0  0  0
 12  5  1  0  0  0  0
 13 19  1  0  0  0  0
 14 18  2  0  0  0  0
 15  2  1  0  0  0  0
 15  3  1  0  0  0  0
 16 15  2  0  0  0  0
 17 10  1  0  0  0  0
 18  4  1  0  0  0  0
 19 17  2  0  0  0  0
 20 10  1  0  0  0  0
 21 12  2  0  0  0  0
 22 23  1  0  0  0  0
 23 25  1  0  0  0  0
 24 23  2  0  0  0  0
M  END
>  <MODEL>
4

>  <REMARK>
 VINA RESULT:      -6.8      1.394      1.578
  Name = 
  2 active torsions:
  status: ('A' for Active; 'I' for Inactive)
    1  A    between atoms: C_2  and  C_21
    2  A    between atoms: C_15  and  C_21
                            x       y       z     vdW  Elec       q    Type
                         _______ _______ _______ _____ _____    ______ ____

>  <TORSDO>
F 2

$$$$
=
 OpenBabel11052422113D

 25 28  0  0  1  0  0  0  0  0999 V2000
  161.6130  209.7890  151.4600 C   0  0  0  0  0  0  0  0  0  0  0  0
  160.9100  209.8120  152.6250 N   0  0  0  0  0  0  0  0  0  0  0  0
  160.1910  212.0480  152.2520 C   0  0  0  0  0  3  0  0  0  0  0  0
  160.7280  208.9100  153.6010 C   0  0  0  0  0  0  0  0  0  0  0  0
  161.4240  207.2960  148.5620 N   0  0  0  0  0  2  0  0  0  0  0  0
  160.0340  207.4640  155.8540 C   0  0  0  0  0  3  0  0  0  0  0  0
  160.8660  212.0350  151.0650 N   0  0  0  0  0  0  0  0  0  0  0  0
  159.9330  209.4780  154.5640 C   0  0  0  0  0  0  0  0  0  0  0  0
  159.5630  208.7830  155.7120 C   0  0  0  0  0  3  0  0  0  0  0  0
  162.2210  210.8660  149.2880 C   0  0  2  0  0  3  0  0  0  0  0  0
  161.8310  212.0330  148.3950 C   0  0  0  0  0  1  0  0  0  0  0  0
  161.3700  205.9540  149.0620 C   0  0  0  0  0  0  0  0  0  0  0  0
  162.5880  208.3750  150.9220 S   0  0  0  0  0  0  0  0  0  0  0  0
  160.8510  206.8800  154.8610 C   0  0  0  0  0  3  0  0  0  0  0  0
  160.2190  210.8990  153.0350 C   0  0  0  0  0  0  0  0  0  0  0  0
  159.5960  210.7430  154.2310 N   0  0  0  0  0  0  0  0  0  0  0  0
  161.8480  209.6090  148.6360 N   0  0  0  0  0  0  0  0  0  0  0  0
  161.2100  207.6060  153.7100 C   0  0  0  0  0  3  0  0  0  0  0  0
  161.9260  208.4570  149.2380 C   0  0  0  0  0  0  0  0  0  0  0  0
  161.5680  210.9360  150.6470 C   0  0  0  0  0  0  0  0  0  0  0  0
  161.7890  205.6650  150.2140 O   0  0  0  0  0  0  0  0  0  0  0  0
  160.8330  204.8740  148.1890 C   0  0  0  0  0  2  0  0  0  0  0  0
  161.5230  204.8860  146.8690 C   0  0  0  0  0  0  0  0  0  0  0  0
  162.6840  204.4140  146.7610 O   0  0  0  0  0  0  0  0  0  0  0  0
  160.8560  205.3990  145.7220 N   0  0  0  0  0  1  0  0  0  0  0  0
  1  2  1  0  0  0  0
  2 15  1  0  0  0  0
  2  4  1  0  0  0  0
  3 15  1  0  0  0  0
  4 18  2  0  0  0  0
  4  8  1  0  0  0  0
  5 12  1  0  0  0  0
  5 19  1  0  0  0  0
  7  3  2  0  0  0  0
  8  9  2  0  0  0  0
  9  6  1  0  0  0  0
 10 11  1  6  0  0  0
 10 20  1  0  0  0  0
 12 21  2  0  0  0  0
 13  1  1  0  0  0  0
 14  6  2  0  0  0  0
 15 16  2  0  0  0  0
 16  8  1  0  0  0  0
 17 19  2  0  0  0  0
 17 10  1  0  0  0  0
 18 14  1  0  0  0  0
 19 13  1  0  0  0  0
 20  7  1  0  0  0  0
 20  1  2  0  0  0  0
 22 12  1  0  0  0  0
 23 22  1  0  0  0  0
 24 23  2  0  0  0  0
 25 23  1  0  0  0  0
M  END
>  <MODEL>
5

>  <REMARK>
 VINA RESULT:      -6.6      3.190      7.378
  Name = 
  2 active torsions:
  status: ('A' for Active; 'I' for Inactive)
    1  A    between atoms: C_2  and  C_21
    2  A    between atoms: C_15  and  C_21
                            x       y       z     vdW  Elec       q    Type
                         _______ _______ _______ _____ _____    ______ ____

>  <TORSDO>
F 2

$$$$
=
 OpenBabel11052422113D

 25 28  0  0  1  0  0  0  0  0999 V2000
  161.9790  205.8910  150.6080 C   0  0  0  0  0  0  0  0  0  0  0  0
  161.5840  205.0080  149.6500 N   0  0  0  0  0  0  0  0  0  0  0  0
  160.4560  203.6480  151.2420 C   0  0  0  0  0  3  0  0  0  0  0  0
  161.7890  204.9430  148.3260 C   0  0  0  0  0  0  0  0  0  0  0  0
  161.4830  209.6840  150.7580 N   0  0  0  0  0  2  0  0  0  0  0  0
  161.8990  204.3270  145.6320 C   0  0  0  0  0  3  0  0  0  0  0  0
  160.8150  204.5380  152.2120 N   0  0  0  0  0  0  0  0  0  0  0  0
  161.1740  203.8110  147.8550 C   0  0  0  0  0  0  0  0  0  0  0  0
  161.2070  203.4680  146.5060 C   0  0  0  0  0  3  0  0  0  0  0  0
  161.8630  206.7040  152.9680 C   0  0  2  0  0  3  0  0  0  0  0  0
  161.0900  206.4870  154.2600 C   0  0  0  0  0  1  0  0  0  0  0  0
  161.7640  210.2730  149.4820 C   0  0  0  0  0  0  0  0  0  0  0  0
  163.0020  207.3310  150.2620 S   0  0  0  0  0  0  0  0  0  0  0  0
  162.5320  205.4930  146.1200 C   0  0  0  0  0  3  0  0  0  0  0  0
  160.8530  203.9070  149.9340 C   0  0  0  0  0  0  0  0  0  0  0  0
  160.5710  203.1320  148.8550 N   0  0  0  0  0  0  0  0  0  0  0  0
  161.5440  208.0270  152.4280 N   0  0  0  0  0  0  0  0  0  0  0  0
  162.4820  205.8160  147.4880 C   0  0  0  0  0  3  0  0  0  0  0  0
  161.9460  208.4190  151.2530 C   0  0  0  0  0  0  0  0  0  0  0  0
  161.5580  205.6540  151.9290 C   0  0  0  0  0  0  0  0  0  0  0  0
  162.4900  209.6910  148.6340 O   0  0  0  0  0  0  0  0  0  0  0  0
  161.2070  211.6170  149.1640 C   0  0  0  0  0  2  0  0  0  0  0  0
  161.8010  212.1370  147.9010 C   0  0  0  0  0  0  0  0  0  0  0  0
  161.1090  212.1850  146.8520 O   0  0  0  0  0  0  0  0  0  0  0  0
  163.1430  212.6120  147.8890 N   0  0  0  0  0  1  0  0  0  0  0  0
  1 20  2  0  0  0  0
  2 15  1  0  0  0  0
  2  1  1  0  0  0  0
  3  7  2  0  0  0  0
  4  2  1  0  0  0  0
  5 19  1  0  0  0  0
  6 14  2  0  0  0  0
  6  9  1  0  0  0  0
  8  4  1  0  0  0  0
  8 16  1  0  0  0  0
  9  8  2  0  0  0  0
 10 11  1  1  0  0  0
 12  5  1  0  0  0  0
 13  1  1  0  0  0  0
 13 19  1  0  0  0  0
 14 18  1  0  0  0  0
 15  3  1  0  0  0  0
 16 15  2  0  0  0  0
 17 10  1  0  0  0  0
 18  4  2  0  0  0  0
 19 17  2  0  0  0  0
 20  7  1  0  0  0  0
 20 10  1  0  0  0  0
 21 12  2  0  0  0  0
 22 12  1  0  0  0  0
 23 22  1  0  0  0  0
 24 23  2  0  0  0  0
 25 23  1  0  0  0  0
M  END
>  <MODEL>
6

>  <REMARK>
 VINA RESULT:      -6.4      3.587      4.521
  Name = 
  2 active torsions:
  status: ('A' for Active; 'I' for Inactive)
    1  A    between atoms: C_2  and  C_21
    2  A    between atoms: C_15  and  C_21
                            x       y       z     vdW  Elec       q    Type
                         _______ _______ _______ _____ _____    ______ ____

>  <TORSDO>
F 2

$$$$
=
 OpenBabel11052422113D

 25 28  0  0  1  0  0  0  0  0999 V2000
  161.6320  209.4700  151.5730 C   0  0  0  0  0  0  0  0  0  0  0  0
  160.9340  209.5670  152.7370 N   0  0  0  0  0  0  0  0  0  0  0  0
  160.2690  211.7990  152.2560 C   0  0  0  0  0  3  0  0  0  0  0  0
  160.7340  208.7190  153.7570 C   0  0  0  0  0  0  0  0  0  0  0  0
  161.3690  206.8410  148.8030 N   0  0  0  0  0  2  0  0  0  0  0  0
  160.0150  207.4040  156.0820 C   0  0  0  0  0  3  0  0  0  0  0  0
  160.9370  211.7110  151.0700 N   0  0  0  0  0  0  0  0  0  0  0  0
  159.9580  209.3540  154.6930 C   0  0  0  0  0  0  0  0  0  0  0  0
  159.5750  208.7250  155.8760 C   0  0  0  0  0  3  0  0  0  0  0  0
  162.2560  210.4220  149.3480 C   0  0  2  0  0  3  0  0  0  0  0  0
  161.8910  211.5530  148.4000 C   0  0  0  0  0  1  0  0  0  0  0  0
  161.2850  205.5280  149.3690 C   0  0  0  0  0  0  0  0  0  0  0  0
  162.5690  208.0060  151.1030 S   0  0  0  0  0  0  0  0  0  0  0  0
  160.8140  206.7520  155.1160 C   0  0  0  0  0  3  0  0  0  0  0  0
  160.2710  210.6890  153.0960 C   0  0  0  0  0  0  0  0  0  0  0  0
  159.6500  210.6090  154.3000 N   0  0  0  0  0  0  0  0  0  0  0  0
  161.8490  209.1440  148.7600 N   0  0  0  0  0  0  0  0  0  0  0  0
  161.1850  207.4110  153.9300 C   0  0  0  0  0  3  0  0  0  0  0  0
  161.9020  208.0220  149.4190 C   0  0  0  0  0  0  0  0  0  0  0  0
  161.6110  210.5750  150.7040 C   0  0  0  0  0  0  0  0  0  0  0  0
  161.7010  205.2850  150.5320 O   0  0  0  0  0  0  0  0  0  0  0  0
  160.7180  204.4190  148.5520 C   0  0  0  0  0  2  0  0  0  0  0  0
  160.7870  203.1350  149.3050 C   0  0  0  0  0  0  0  0  0  0  0  0
  160.3950  203.0840  150.5000 O   0  0  0  0  0  0  0  0  0  0  0  0
  161.2640  201.9580  148.6630 N   0  0  0  0  0  1  0  0  0  0  0  0
  1  2  1  0  0  0  0
  2 15  1  0  0  0  0
  2  4  1  0  0  0  0
  3 15  1  0  0  0  0
  4 18  2  0  0  0  0
  4  8  1  0  0  0  0
  5 12  1  0  0  0  0
  5 19  1  0  0  0  0
  7  3  2  0  0  0  0
  8  9  2  0  0  0  0
  9  6  1  0  0  0  0
 10 11  1  6  0  0  0
 10 20  1  0  0  0  0
 12 21  2  0  0  0  0
 13  1  1  0  0  0  0
 14  6  2  0  0  0  0
 15 16  2  0  0  0  0
 16  8  1  0  0  0  0
 17 10  1  0  0  0  0
 17 19  2  0  0  0  0
 18 14  1  0  0  0  0
 19 13  1  0  0  0  0
 20  7  1  0  0  0  0
 20  1  2  0  0  0  0
 22 23  1  0  0  0  0
 22 12  1  0  0  0  0
 23 24  2  0  0  0  0
 25 23  1  0  0  0  0
M  END
>  <MODEL>
7

>  <REMARK>
 VINA RESULT:      -6.4      3.224      7.377
  Name = 
  2 active torsions:
  status: ('A' for Active; 'I' for Inactive)
    1  A    between atoms: C_2  and  C_21
    2  A    between atoms: C_15  and  C_21
                            x       y       z     vdW  Elec       q    Type
                         _______ _______ _______ _____ _____    ______ ____

>  <TORSDO>
F 2

$$$$
=
 OpenBabel11052422113D

 25 28  0  0  1  0  0  0  0  0999 V2000
  161.6020  208.3510  152.3210 C   0  0  0  0  0  0  0  0  0  0  0  0
  161.3990  207.2870  151.4980 N   0  0  0  0  0  0  0  0  0  0  0  0
  160.6650  205.9190  153.2990 C   0  0  0  0  0  3  0  0  0  0  0  0
  161.5760  207.1020  150.1810 C   0  0  0  0  0  0  0  0  0  0  0  0
  160.2360  211.9170  152.0530 N   0  0  0  0  0  2  0  0  0  0  0  0
  161.7520  206.1910  147.5760 C   0  0  0  0  0  3  0  0  0  0  0  0
  160.8330  206.9840  154.1370 N   0  0  0  0  0  0  0  0  0  0  0  0
  161.2300  205.8100  149.8810 C   0  0  0  0  0  0  0  0  0  0  0  0
  161.3050  205.3140  148.5820 C   0  0  0  0  0  3  0  0  0  0  0  0
  161.3650  209.4100  154.5730 C   0  0  2  0  0  3  0  0  0  0  0  0
  160.7010  209.1880  155.9220 C   0  0  0  0  0  1  0  0  0  0  0  0
  160.3350  212.3880  150.7030 C   0  0  0  0  0  0  0  0  0  0  0  0
  162.2500  209.9310  151.7510 S   0  0  0  0  0  0  0  0  0  0  0  0
  162.1070  207.5230  147.8870 C   0  0  0  0  0  3  0  0  0  0  0  0
  160.9540  206.0930  151.9490 C   0  0  0  0  0  0  0  0  0  0  0  0
  160.8320  205.1440  150.9870 N   0  0  0  0  0  0  0  0  0  0  0  0
  160.7300  210.5460  153.8990 N   0  0  0  0  0  0  0  0  0  0  0  0
  162.0220  207.9970  149.2080 C   0  0  0  0  0  3  0  0  0  0  0  0
  160.9960  210.8660  152.6660 C   0  0  0  0  0  0  0  0  0  0  0  0
  161.2860  208.1940  153.6820 C   0  0  0  0  0  0  0  0  0  0  0  0
  161.1540  211.8840  149.8890 O   0  0  0  0  0  0  0  0  0  0  0  0
  159.4700  213.5170  150.2620 C   0  0  0  0  0  2  0  0  0  0  0  0
  159.6280  213.7470  148.7980 C   0  0  0  0  0  0  0  0  0  0  0  0
  160.5780  214.4530  148.3710 O   0  0  0  0  0  0  0  0  0  0  0  0
  158.7260  213.1390  147.8810 N   0  0  0  0  0  1  0  0  0  0  0  0
  1 20  2  0  0  0  0
  2 15  1  0  0  0  0
  2  1  1  0  0  0  0
  3  7  2  0  0  0  0
  4  2  1  0  0  0  0
  5 19  1  0  0  0  0
  6 14  2  0  0  0  0
  6  9  1  0  0  0  0
  8  4  1  0  0  0  0
  8 16  1  0  0  0  0
  9  8  2  0  0  0  0
 10 11  1  1  0  0  0
 12  5  1  0  0  0  0
 13  1  1  0  0  0  0
 13 19  1  0  0  0  0
 14 18  1  0  0  0  0
 15  3  1  0  0  0  0
 16 15  2  0  0  0  0
 17 10  1  0  0  0  0
 18  4  2  0  0  0  0
 19 17  2  0  0  0  0
 20  7  1  0  0  0  0
 20 10  1  0  0  0  0
 21 12  2  0  0  0  0
 22 12  1  0  0  0  0
 23 22  1  0  0  0  0
 24 23  2  0  0  0  0
 25 23  1  0  0  0  0
M  END
>  <MODEL>
8

>  <REMARK>
 VINA RESULT:      -6.3      2.113      2.568
  Name = 
  2 active torsions:
  status: ('A' for Active; 'I' for Inactive)
    1  A    between atoms: C_2  and  C_21
    2  A    between atoms: C_15  and  C_21
                            x       y       z     vdW  Elec       q    Type
                         _______ _______ _______ _____ _____    ______ ____

>  <TORSDO>
F 2

$$$$
=
 OpenBabel11052422113D

 25 28  0  0  1  0  0  0  0  0999 V2000
  161.2920  211.0350  151.1490 C   0  0  0  0  0  0  0  0  0  0  0  0
  160.4170  211.4370  152.1100 N   0  0  0  0  0  0  0  0  0  0  0  0
  159.8570  213.4080  150.9030 C   0  0  0  0  0  3  0  0  0  0  0  0
  160.0490  210.9120  153.2890 C   0  0  0  0  0  0  0  0  0  0  0  0
  161.4550  207.7100  149.2570 N   0  0  0  0  0  2  0  0  0  0  0  0
  158.9550  210.2970  155.7530 C   0  0  0  0  0  3  0  0  0  0  0  0
  160.7070  213.0070  149.9130 N   0  0  0  0  0  0  0  0  0  0  0  0
  159.1380  211.7600  153.8670 C   0  0  0  0  0  0  0  0  0  0  0  0
  158.5660  211.4840  155.1060 C   0  0  0  0  0  3  0  0  0  0  0  0
  162.2740  211.3290  148.8690 C   0  0  2  0  0  3  0  0  0  0  0  0
  162.0760  212.1220  147.5880 C   0  0  0  0  0  1  0  0  0  0  0  0
  161.2690  206.6140  150.1610 C   0  0  0  0  0  0  0  0  0  0  0  0
  162.2800  209.5350  151.2770 S   0  0  0  0  0  0  0  0  0  0  0  0
  159.8930  209.4250  155.1560 C   0  0  0  0  0  3  0  0  0  0  0  0
  159.7160  212.5880  152.0190 C   0  0  0  0  0  0  0  0  0  0  0  0
  158.9080  212.8350  153.0820 N   0  0  0  0  0  0  0  0  0  0  0  0
  161.9560  209.9200  148.6220 N   0  0  0  0  0  0  0  0  0  0  0  0
  160.4550  209.7280  153.9020 C   0  0  0  0  0  3  0  0  0  0  0  0
  161.8920  209.0390  149.5780 C   0  0  0  0  0  0  0  0  0  0  0  0
  161.4210  211.8410  150.0040 C   0  0  0  0  0  0  0  0  0  0  0  0
  161.4920  206.7340  151.3940 O   0  0  0  0  0  0  0  0  0  0  0  0
  160.8310  205.2960  149.6240 C   0  0  0  0  0  2  0  0  0  0  0  0
  161.2400  204.2010  150.5470 C   0  0  0  0  0  0  0  0  0  0  0  0
  162.0720  204.4280  151.4640 O   0  0  0  0  0  0  0  0  0  0  0  0
  160.6640  202.9060  150.4150 N   0  0  0  0  0  1  0  0  0  0  0  0
  1 13  1  0  0  0  0
  1  2  1  0  0  0  0
  2  4  1  0  0  0  0
  3 15  1  0  0  0  0
  4  8  2  0  0  0  0
  4 18  1  0  0  0  0
  5 19  1  0  0  0  0
  5 12  1  0  0  0  0
  7 20  1  0  0  0  0
  7  3  2  0  0  0  0
  8  9  1  0  0  0  0
  9  6  2  0  0  0  0
 10 11  1  6  0  0  0
 10 20  1  0  0  0  0
 12 21  2  0  0  0  0
 14  6  1  0  0  0  0
 15  2  1  0  0  0  0
 15 16  2  0  0  0  0
 16  8  1  0  0  0  0
 17 10  1  0  0  0  0
 17 19  2  0  0  0  0
 18 14  2  0  0  0  0
 19 13  1  0  0  0  0
 20  1  2  0  0  0  0
 22 12  1  0  0  0  0
 22 23  1  0  0  0  0
 23 24  2  0  0  0  0
 25 23  1  0  0  0  0
M  END
>  <MODEL>
9

>  <REMARK>
 VINA RESULT:      -5.6      3.017      7.473
  Name = 
  2 active torsions:
  status: ('A' for Active; 'I' for Inactive)
    1  A    between atoms: C_2  and  C_21
    2  A    between atoms: C_15  and  C_21
                            x       y       z     vdW  Elec       q    Type
                         _______ _______ _______ _____ _____    ______ ____

>  <TORSDO>
F 2

$$$$
