=
 OpenBabel11062408383D

 55 61  0  0  1  0  0  0  0  0999 V2000
  161.9090  210.6640  150.8300 C   0  0  1  0  0  3  0  0  0  0  0  0
  159.9510  207.0110  153.0980 C   0  0  0  0  0  2  0  0  0  0  0  0
  159.1120  209.2170  155.9240 C   0  0  0  0  0  1  0  0  0  0  0  0
  160.7310  211.9140  156.2890 C   0  0  0  0  0  3  0  0  0  0  0  0
  160.6100  212.9140  157.2590 C   0  0  0  0  0  3  0  0  0  0  0  0
  159.9320  213.4550  154.5910 C   0  0  0  0  0  0  0  0  0  0  0  0
  159.8110  214.4520  155.5670 C   0  0  0  0  0  3  0  0  0  0  0  0
  160.7850  209.7270  154.3640 C   0  0  0  0  0  2  0  0  0  0  0  0
  160.1450  214.1810  156.8970 C   0  0  0  0  0  3  0  0  0  0  0  0
  161.0150  211.1440  148.5510 N   0  0  0  0  0  2  0  0  0  0  0  0
  160.3850  212.1630  154.9440 C   0  0  0  0  0  0  0  0  0  0  0  0
  161.7610  208.4310  149.6020 C   0  0  0  0  0  0  0  0  0  0  0  0
  160.5350  210.4730  151.4920 C   0  0  0  0  0  2  0  0  0  0  0  0
  162.5940  209.3390  150.4800 C   0  0  0  0  0  2  0  0  0  0  0  0
  159.7420  212.7680  152.2660 C   0  0  0  0  0  0  0  0  0  0  0  0
  160.9650  207.6800  152.4140 O   0  0  0  0  0  0  0  0  0  0  0  0
  159.6020  213.7390  153.2610 C   0  0  0  0  0  3  0  0  0  0  0  0
  159.9030  207.5480  154.5270 C   0  0  0  0  0  2  0  0  0  0  0  0
  159.5510  208.9690  154.5640 N   0  0  0  0  0  0  0  0  0  0  0  0
  161.7910  210.1900  147.7710 C   0  0  0  0  0  2  0  0  0  0  0  0
  161.8760  211.6260  149.6300 C   0  0  0  0  0  2  0  0  0  0  0  0
  160.4890  211.1560  153.9600 C   0  0  0  0  0  0  0  0  0  0  0  0
  160.2480  211.4840  152.5870 C   0  0  0  0  0  0  0  0  0  0  0  0
  161.5100  206.7770  151.4920 C   0  0  1  0  0  3  0  0  0  0  0  0
  161.2970  207.2740  150.0820 C   0  0  0  0  0  3  0  0  0  0  0  0
  161.4130  208.7670  148.1720 C   0  0  0  0  0  2  0  0  0  0  0  0
  157.9920  212.6820  150.4860 C   0  0  0  0  0  3  0  0  0  0  0  0
  158.3360  213.7120  148.3120 C   0  0  0  0  0  0  0  0  0  0  0  0
  160.0700  213.8350  150.0200 C   0  0  0  0  0  3  0  0  0  0  0  0
  159.6130  214.1300  148.7230 C   0  0  0  0  0  3  0  0  0  0  0  0
  157.5410  212.9680  149.1920 C   0  0  0  0  0  3  0  0  0  0  0  0
  159.2710  213.0940  150.8950 C   0  0  0  0  0  0  0  0  0  0  0  0
  157.8690  213.9680  146.9360 C   0  0  0  0  0  0  0  0  0  0  0  0
  158.8110  214.3710  145.9860 O   0  0  0  0  0  0  0  0  0  0  0  0
  156.7700  213.5070  146.5280 O   0  0  0  0  0  1  0  0  0  0  0  0
  162.9900  206.5250  151.7910 C   0  0  0  0  0  2  0  0  0  0  0  0
  163.1990  205.0390  152.0750 C   0  0  0  0  0  2  0  0  0  0  0  0
  161.8480  204.3320  152.0500 C   0  0  0  0  0  2  0  0  0  0  0  0
  160.0760  204.6260  150.4530 O   0  0  0  0  0  1  0  0  0  0  0  0
  161.3660  204.1030  150.6040 C   0  0  2  0  0  3  0  0  0  0  0  0
  161.4320  202.6080  150.2360 C   0  0  1  0  0  3  0  0  0  0  0  0
  160.7930  201.7110  151.3250 C   0  0  0  0  0  1  0  0  0  0  0  0
  159.6070  201.7230  148.8680 O   0  0  0  0  0  1  0  0  0  0  0  0
  161.7210  201.0440  148.1770 C   0  0  0  0  0  2  0  0  0  0  0  0
  160.9450  202.1700  148.8120 C   0  0  2  0  0  0  0  0  0  0  0  0
  160.8930  202.5230  146.1480 C   0  0  1  0  0  3  0  0  0  0  0  0
  161.2080  203.0520  147.5590 C   0  0  2  0  0  0  0  0  0  0  0  0
  162.0230  201.8870  146.9500 C   0  0  1  0  0  3  0  0  0  0  0  0
  159.6930  201.6950  146.1140 N   0  0  0  0  0  2  0  0  0  0  0  0
  159.7850  200.8220  144.9520 C   0  0  0  0  0  1  0  0  0  0  0  0
  162.1350  204.3040  147.6820 C   0  0  0  0  0  2  0  0  0  0  0  0
  161.8820  205.4970  146.7050 C   0  0  1  0  0  3  0  0  0  0  0  0
  162.7370  205.3440  145.0870 S   0  0  0  0  0  1  0  0  0  0  0  0
  160.4960  205.8330  146.5460 O   0  0  0  0  0  0  0  0  0  0  0  0
  160.2600  206.1140  145.1900 C   0  0  0  0  0  1  0  0  0  0  0  0
  1 21  1  6  0  0  0
  1 13  1  0  0  0  0
  2 18  1  0  0  0  0
  4  5  1  0  0  0  0
  6 11  1  0  0  0  0
  6  7  2  0  0  0  0
  7  9  1  0  0  0  0
  8 19  1  0  0  0  0
  9  5  2  0  0  0  0
 10 21  1  0  0  0  0
 11  4  2  0  0  0  0
 12 25  2  0  0  0  0
 12 14  1  0  0  0  0
 13 23  1  0  0  0  0
 14  1  1  0  0  0  0
 15 23  1  0  0  0  0
 15 17  2  0  0  0  0
 16  2  1  0  0  0  0
 17  6  1  0  0  0  0
 18 19  1  0  0  0  0
 19  3  1  0  0  0  0
 20 26  1  0  0  0  0
 20 10  1  0  0  0  0
 22  8  1  0  0  0  0
 22 11  1  0  0  0  0
 23 22  2  0  0  0  0
 24 36  1  1  0  0  0
 24 16  1  0  0  0  0
 25 24  1  0  0  0  0
 26 12  1  0  0  0  0
 27 32  1  0  0  0  0
 28 30  2  0  0  0  0
 28 31  1  0  0  0  0
 29 32  2  0  0  0  0
 30 29  1  0  0  0  0
 31 27  2  0  0  0  0
 32 15  1  0  0  0  0
 33 28  1  0  0  0  0
 34 33  2  0  0  0  0
 35 33  1  0  0  0  0
 36 37  1  0  0  0  0
 38 37  1  0  0  0  0
 40 39  1  1  0  0  0
 40 38  1  0  0  0  0
 41 40  1  0  0  0  0
 41 42  1  1  0  0  0
 44 45  1  0  0  0  0
 45 43  1  1  0  0  0
 45 41  1  0  0  0  0
 46 49  1  1  0  0  0
 46 48  1  0  0  0  0
 46 47  1  0  0  0  0
 47 51  1  1  0  0  0
 47 45  1  0  0  0  0
 48 47  1  0  0  0  0
 48 44  1  1  0  0  0
 50 49  1  0  0  0  0
 52 53  1  6  0  0  0
 52 51  1  0  0  0  0
 54 52  1  0  0  0  0
 55 54  1  0  0  0  0
M  END
>  <MODEL>
1

>  <REMARK>
 VINA RESULT:      -0.8      0.000      0.000
  Name = 
  12 active torsions:
  status: ('A' for Active; 'I' for Inactive)
    1  A    between atoms: C_1  and  O_30
    2  A    between atoms: C_1  and  C_53
    3  A    between atoms: C_6  and  C_14
    4  A    between atoms: C_6  and  C_20
    5  A    between atoms: C_8  and  C_22
    6  A    between atoms: C_8  and  C_43
    7  A    between atoms: C_10  and  C_32
    8  A    between atoms: N_11  and  C_29
    9  A    between atoms: C_20  and  C_22
   10  A    between atoms: C_33  and  C_52
   11  A    between atoms: C_38  and  C_53
   12  A    between atoms: C_43  and  C_51
                            x       y       z     vdW  Elec       q    Type
                         _______ _______ _______ _____ _____    ______ ____

>  <TORSDO>
F 12

$$$$
=
 OpenBabel11062408383D

 55 61  0  0  1  0  0  0  0  0999 V2000
  159.0480  210.5880  151.6920 C   0  0  1  0  0  3  0  0  0  0  0  0
  163.0800  212.0010  149.6770 C   0  0  0  0  0  2  0  0  0  0  0  0
  161.1610  213.9010  147.1740 C   0  0  0  0  0  1  0  0  0  0  0  0
  158.1460  213.1010  146.6300 C   0  0  0  0  0  3  0  0  0  0  0  0
  157.2110  213.6540  145.7510 C   0  0  0  0  0  3  0  0  0  0  0  0
  156.8490  213.8980  148.5220 C   0  0  0  0  0  0  0  0  0  0  0  0
  155.9170  214.4520  147.6360 C   0  0  0  0  0  3  0  0  0  0  0  0
  160.2450  212.1280  148.4030 C   0  0  0  0  0  2  0  0  0  0  0  0
  156.1000  214.3340  146.2550 C   0  0  0  0  0  3  0  0  0  0  0  0
  158.8000  211.1000  154.1210 N   0  0  0  0  0  2  0  0  0  0  0  0
  157.9880  213.2220  148.0270 C   0  0  0  0  0  0  0  0  0  0  0  0
  161.2430  209.9360  152.8190 C   0  0  0  0  0  0  0  0  0  0  0  0
  159.5770  211.9760  151.3010 C   0  0  0  0  0  2  0  0  0  0  0  0
  160.1580  209.5430  151.8400 C   0  0  0  0  0  2  0  0  0  0  0  0
  157.5560  213.4460  150.8040 C   0  0  0  0  0  0  0  0  0  0  0  0
  162.1760  211.0660  150.1820 O   0  0  0  0  0  0  0  0  0  0  0  0
  156.6530  214.0160  149.9030 C   0  0  0  0  0  3  0  0  0  0  0  0
  162.5760  212.4630  148.3110 C   0  0  0  0  0  2  0  0  0  0  0  0
  161.2880  213.1530  148.4100 N   0  0  0  0  0  0  0  0  0  0  0  0
  159.5270  209.9740  154.6900 C   0  0  0  0  0  2  0  0  0  0  0  0
  158.1200  210.6160  152.9200 C   0  0  0  0  0  2  0  0  0  0  0  0
  158.9340  212.6790  148.9230 C   0  0  0  0  0  0  0  0  0  0  0  0
  158.6740  212.7150  150.3310 C   0  0  0  0  0  0  0  0  0  0  0  0
  162.9120  210.1440  150.9370 C   0  0  1  0  0  3  0  0  0  0  0  0
  162.4800  210.1880  152.3840 C   0  0  0  0  0  3  0  0  0  0  0  0
  161.0010  210.0630  154.3030 C   0  0  0  0  0  2  0  0  0  0  0  0
  156.0880  213.4930  152.8240 C   0  0  0  0  0  3  0  0  0  0  0  0
  156.9430  214.1490  155.0040 C   0  0  0  0  0  0  0  0  0  0  0  0
  158.4180  214.1060  153.0650 C   0  0  0  0  0  3  0  0  0  0  0  0
  158.2110  214.3490  154.4350 C   0  0  0  0  0  3  0  0  0  0  0  0
  155.8800  213.7430  154.1870 C   0  0  0  0  0  3  0  0  0  0  0  0
  157.3550  213.7000  152.2550 C   0  0  0  0  0  0  0  0  0  0  0  0
  156.7010  214.4530  156.4270 C   0  0  0  0  0  0  0  0  0  0  0  0
  155.3930  214.3480  156.9090 O   0  0  0  0  0  0  0  0  0  0  0  0
  157.6440  214.4520  157.2610 O   0  0  0  0  0  1  0  0  0  0  0  0
  162.7870  208.7380  150.3460 C   0  0  0  0  0  2  0  0  0  0  0  0
  161.8260  208.7760  149.1590 C   0  0  0  0  0  2  0  0  0  0  0  0
  162.0780  207.5590  148.2760 C   0  0  0  0  0  2  0  0  0  0  0  0
  159.8570  207.0290  149.0290 O   0  0  0  0  0  1  0  0  0  0  0  0
  161.0360  206.4530  148.5410 C   0  0  2  0  0  3  0  0  0  0  0  0
  161.6010  205.3880  149.5000 C   0  0  1  0  0  3  0  0  0  0  0  0
  161.7410  205.9210  150.9470 C   0  0  0  0  0  1  0  0  0  0  0  0
  159.6420  204.0290  150.0460 O   0  0  0  0  0  1  0  0  0  0  0  0
  161.6660  202.9150  150.3070 C   0  0  0  0  0  2  0  0  0  0  0  0
  160.9430  203.9660  149.5030 C   0  0  2  0  0  0  0  0  0  0  0  0
  160.5200  201.5830  148.3330 C   0  0  1  0  0  3  0  0  0  0  0  0
  161.0030  203.0430  148.2530 C   0  0  2  0  0  0  0  0  0  0  0  0
  161.7700  201.9990  149.1000 C   0  0  1  0  0  3  0  0  0  0  0  0
  159.3560  201.4240  149.1980 N   0  0  0  0  0  2  0  0  0  0  0  0
  159.7250  200.5210  150.2800 C   0  0  0  0  0  1  0  0  0  0  0  0
  161.8920  203.4540  147.0360 C   0  0  0  0  0  2  0  0  0  0  0  0
  161.2930  203.2820  145.6040 C   0  0  1  0  0  3  0  0  0  0  0  0
  160.4760  201.6620  145.3140 S   0  0  0  0  0  1  0  0  0  0  0  0
  160.4680  204.3780  145.1840 O   0  0  0  0  0  0  0  0  0  0  0  0
  161.1050  205.0300  144.1150 C   0  0  0  0  0  1  0  0  0  0  0  0
  1 13  1  1  0  0  0
  1 14  1  0  0  0  0
  1 21  1  0  0  0  0
  2 16  1  0  0  0  0
  3 19  1  0  0  0  0
  4 11  1  0  0  0  0
  5  9  1  0  0  0  0
  5  4  2  0  0  0  0
  6 17  1  0  0  0  0
  7  6  1  0  0  0  0
  8 19  1  0  0  0  0
  8 22  1  0  0  0  0
  9  7  2  0  0  0  0
 10 20  1  0  0  0  0
 11  6  2  0  0  0  0
 11 22  1  0  0  0  0
 12 26  1  0  0  0  0
 14 12  1  0  0  0  0
 15 32  1  0  0  0  0
 16 24  1  0  0  0  0
 17 15  2  0  0  0  0
 18 19  1  0  0  0  0
 18  2  1  0  0  0  0
 21 10  1  0  0  0  0
 22 23  2  0  0  0  0
 23 15  1  0  0  0  0
 23 13  1  0  0  0  0
 24 36  1  6  0  0  0
 24 25  1  0  0  0  0
 25 12  2  0  0  0  0
 26 20  1  0  0  0  0
 27 31  1  0  0  0  0
 28 33  1  0  0  0  0
 29 30  2  0  0  0  0
 30 28  1  0  0  0  0
 31 28  2  0  0  0  0
 32 27  2  0  0  0  0
 32 29  1  0  0  0  0
 33 34  2  0  0  0  0
 33 35  1  0  0  0  0
 37 36  1  0  0  0  0
 38 40  1  0  0  0  0
 38 37  1  0  0  0  0
 40 39  1  1  0  0  0
 40 41  1  0  0  0  0
 41 45  1  0  0  0  0
 41 42  1  1  0  0  0
 45 43  1  1  0  0  0
 45 44  1  0  0  0  0
 46 48  1  0  0  0  0
 46 49  1  1  0  0  0
 47 51  1  6  0  0  0
 47 46  1  0  0  0  0
 47 48  1  0  0  0  0
 47 45  1  0  0  0  0
 48 44  1  1  0  0  0
 49 50  1  0  0  0  0
 52 53  1  1  0  0  0
 52 51  1  0  0  0  0
 54 52  1  0  0  0  0
 55 54  1  0  0  0  0
M  END
>  <MODEL>
2

>  <REMARK>
 VINA RESULT:      -0.0      2.598      5.805
  Name = 
  12 active torsions:
  status: ('A' for Active; 'I' for Inactive)
    1  A    between atoms: C_1  and  O_30
    2  A    between atoms: C_1  and  C_53
    3  A    between atoms: C_6  and  C_14
    4  A    between atoms: C_6  and  C_20
    5  A    between atoms: C_8  and  C_22
    6  A    between atoms: C_8  and  C_43
    7  A    between atoms: C_10  and  C_32
    8  A    between atoms: N_11  and  C_29
    9  A    between atoms: C_20  and  C_22
   10  A    between atoms: C_33  and  C_52
   11  A    between atoms: C_38  and  C_53
   12  A    between atoms: C_43  and  C_51
                            x       y       z     vdW  Elec       q    Type
                         _______ _______ _______ _____ _____    ______ ____

>  <TORSDO>
F 12

$$$$
=
 OpenBabel11062408383D

 55 61  0  0  1  0  0  0  0  0999 V2000
  159.3340  210.6080  151.5330 C   0  0  1  0  0  3  0  0  0  0  0  0
  163.0150  212.0450  148.9440 C   0  0  0  0  0  2  0  0  0  0  0  0
  160.7360  213.9330  146.7550 C   0  0  0  0  0  1  0  0  0  0  0  0
  157.6790  213.1150  146.6620 C   0  0  0  0  0  3  0  0  0  0  0  0
  156.6200  213.6630  145.9310 C   0  0  0  0  0  3  0  0  0  0  0  0
  156.6720  213.9050  148.7260 C   0  0  0  0  0  0  0  0  0  0  0  0
  155.6150  214.4530  147.9880 C   0  0  0  0  0  3  0  0  0  0  0  0
  160.0220  212.1550  148.1040 C   0  0  0  0  0  2  0  0  0  0  0  0
  155.5920  214.3360  146.5950 C   0  0  0  0  0  3  0  0  0  0  0  0
  159.4460  211.1180  153.9720 N   0  0  0  0  0  2  0  0  0  0  0  0
  157.7280  213.2350  148.0680 C   0  0  0  0  0  0  0  0  0  0  0  0
  161.6760  209.9690  152.3220 C   0  0  0  0  0  0  0  0  0  0  0  0
  159.7920  211.9990  151.0690 C   0  0  0  0  0  2  0  0  0  0  0  0
  160.4610  209.5700  151.5140 C   0  0  0  0  0  2  0  0  0  0  0  0
  157.7110  213.4570  150.8780 C   0  0  0  0  0  0  0  0  0  0  0  0
  162.2020  211.1050  149.5770 O   0  0  0  0  0  0  0  0  0  0  0  0
  156.6810  214.0210  150.1210 C   0  0  0  0  0  3  0  0  0  0  0  0
  162.3120  212.5040  147.6680 C   0  0  0  0  0  2  0  0  0  0  0  0
  161.0490  213.1860  147.9570 N   0  0  0  0  0  0  0  0  0  0  0  0
  160.2560  209.9970  154.4270 C   0  0  0  0  0  2  0  0  0  0  0  0
  158.5990  210.6300  152.8850 C   0  0  0  0  0  2  0  0  0  0  0  0
  158.8000  212.6980  148.8130 C   0  0  0  0  0  0  0  0  0  0  0  0
  158.7510  212.7330  150.2440 C   0  0  0  0  0  0  0  0  0  0  0  0
  163.0470  210.1870  150.2140 C   0  0  1  0  0  3  0  0  0  0  0  0
  162.8340  210.2280  151.7080 C   0  0  0  0  0  3  0  0  0  0  0  0
  161.6550  210.0950  153.8260 C   0  0  0  0  0  2  0  0  0  0  0  0
  156.5890  213.4050  153.1090 C   0  0  0  0  0  3  0  0  0  0  0  0
  157.7240  214.1540  155.1230 C   0  0  0  0  0  0  0  0  0  0  0  0
  158.8670  214.2120  152.9720 C   0  0  0  0  0  3  0  0  0  0  0  0
  158.8640  214.4520  154.3580 C   0  0  0  0  0  3  0  0  0  0  0  0
  156.5820  213.6520  154.4870 C   0  0  0  0  0  3  0  0  0  0  0  0
  157.7250  213.7100  152.3430 C   0  0  0  0  0  0  0  0  0  0  0  0
  157.6900  214.4530  156.5680 C   0  0  0  0  0  0  0  0  0  0  0  0
  156.4610  214.3690  157.2270 O   0  0  0  0  0  0  0  0  0  0  0  0
  158.7410  214.4280  157.2610 O   0  0  0  0  0  1  0  0  0  0  0  0
  162.8440  208.7800  149.6460 C   0  0  0  0  0  2  0  0  0  0  0  0
  161.6830  208.8020  148.6530 C   0  0  0  0  0  2  0  0  0  0  0  0
  161.1660  207.3800  148.4610 C   0  0  0  0  0  2  0  0  0  0  0  0
  159.9820  206.4660  146.5800 O   0  0  0  0  0  1  0  0  0  0  0  0
  161.2300  206.9600  146.9790 C   0  0  2  0  0  3  0  0  0  0  0  0
  162.3580  205.9360  146.7490 C   0  0  1  0  0  3  0  0  0  0  0  0
  163.4430  206.0060  147.8520 C   0  0  0  0  0  1  0  0  0  0  0  0
  162.9110  203.8460  145.6040 O   0  0  0  0  0  1  0  0  0  0  0  0
  160.6280  204.2430  145.7960 C   0  0  0  0  0  2  0  0  0  0  0  0
  161.9640  204.4470  146.4630 C   0  0  2  0  0  0  0  0  0  0  0  0
  160.9720  202.0900  147.2910 C   0  0  1  0  0  3  0  0  0  0  0  0
  161.5340  203.4870  147.6090 C   0  0  2  0  0  0  0  0  0  0  0  0
  160.1610  203.3250  146.9130 C   0  0  1  0  0  3  0  0  0  0  0  0
  161.6230  201.4710  146.1410 N   0  0  0  0  0  2  0  0  0  0  0  0
  160.7060  200.4830  145.5870 C   0  0  0  0  0  1  0  0  0  0  0  0
  161.3060  204.0600  149.0440 C   0  0  0  0  0  2  0  0  0  0  0  0
  160.4940  203.1890  150.0560 C   0  0  1  0  0  3  0  0  0  0  0  0
  160.9130  201.4010  150.0220 S   0  0  0  0  0  1  0  0  0  0  0  0
  160.4860  203.7100  151.3930 O   0  0  0  0  0  0  0  0  0  0  0  0
  161.1400  204.9530  151.3890 C   0  0  0  0  0  1  0  0  0  0  0  0
  1 13  1  1  0  0  0
  1 21  1  0  0  0  0
  2 16  1  0  0  0  0
  3 19  1  0  0  0  0
  4 11  1  0  0  0  0
  5  9  1  0  0  0  0
  5  4  2  0  0  0  0
  6 17  1  0  0  0  0
  7  6  1  0  0  0  0
  8 22  1  0  0  0  0
  9  7  2  0  0  0  0
 10 20  1  0  0  0  0
 11  6  2  0  0  0  0
 11 22  1  0  0  0  0
 12 26  1  0  0  0  0
 14  1  1  0  0  0  0
 14 12  1  0  0  0  0
 15 32  1  0  0  0  0
 16 24  1  0  0  0  0
 17 15  2  0  0  0  0
 18 19  1  0  0  0  0
 18  2  1  0  0  0  0
 19  8  1  0  0  0  0
 21 10  1  0  0  0  0
 22 23  2  0  0  0  0
 23 15  1  0  0  0  0
 23 13  1  0  0  0  0
 24 36  1  6  0  0  0
 24 25  1  0  0  0  0
 25 12  2  0  0  0  0
 26 20  1  0  0  0  0
 27 31  1  0  0  0  0
 28 33  1  0  0  0  0
 29 30  2  0  0  0  0
 30 28  1  0  0  0  0
 31 28  2  0  0  0  0
 32 29  1  0  0  0  0
 32 27  2  0  0  0  0
 33 34  2  0  0  0  0
 33 35  1  0  0  0  0
 37 36  1  0  0  0  0
 38 37  1  0  0  0  0
 40 39  1  1  0  0  0
 40 38  1  0  0  0  0
 41 40  1  0  0  0  0
 41 42  1  1  0  0  0
 44 45  1  0  0  0  0
 45 43  1  6  0  0  0
 45 41  1  0  0  0  0
 45 47  1  0  0  0  0
 46 49  1  6  0  0  0
 46 47  1  0  0  0  0
 47 51  1  1  0  0  0
 48 44  1  6  0  0  0
 48 46  1  0  0  0  0
 48 47  1  0  0  0  0
 50 49  1  0  0  0  0
 51 52  1  0  0  0  0
 52 53  1  1  0  0  0
 52 54  1  0  0  0  0
 55 54  1  0  0  0  0
M  END
>  <MODEL>
3

>  <REMARK>
 VINA RESULT:       1.1      2.589      6.054
  Name = 
  12 active torsions:
  status: ('A' for Active; 'I' for Inactive)
    1  A    between atoms: C_1  and  O_30
    2  A    between atoms: C_1  and  C_53
    3  A    between atoms: C_6  and  C_14
    4  A    between atoms: C_6  and  C_20
    5  A    between atoms: C_8  and  C_22
    6  A    between atoms: C_8  and  C_43
    7  A    between atoms: C_10  and  C_32
    8  A    between atoms: N_11  and  C_29
    9  A    between atoms: C_20  and  C_22
   10  A    between atoms: C_33  and  C_52
   11  A    between atoms: C_38  and  C_53
   12  A    between atoms: C_43  and  C_51
                            x       y       z     vdW  Elec       q    Type
                         _______ _______ _______ _____ _____    ______ ____

>  <TORSDO>
F 12

$$$$
