=
 OpenBabel11052422473D

 28 30  0  0  1  0  0  0  0  0999 V2000
  161.9410  209.1270  148.8530 C   0  0  0  0  0  3  0  0  0  0  0  0
  161.6870  208.8870  151.6690 C   0  0  2  0  0  3  0  0  0  0  0  0
  162.2050  210.2740  149.7790 C   0  0  0  0  0  2  0  0  0  0  0  0
  162.6780  209.7980  151.0800 N   0  0  0  0  0  2  0  0  0  0  0  0
  161.5500  207.9280  149.3060 C   0  0  0  0  0  0  0  0  0  0  0  0
  161.4600  207.6500  150.7890 C   0  0  1  0  0  3  0  0  0  0  0  0
  160.2570  209.8010  153.3530 O   0  0  0  0  0  1  0  0  0  0  0  0
  160.3720  209.5930  151.9790 C   0  0  0  0  0  2  0  0  0  0  0  0
  161.2460  206.8780  148.4230 O   0  0  0  0  0  0  0  0  0  0  0  0
  161.5000  206.8580  147.0150 C   0  0  2  0  0  3  0  0  0  0  0  0
  161.7190  205.0150  145.4720 C   0  0  1  0  0  3  0  0  0  0  0  0
  160.2990  206.7990  146.2800 O   0  0  0  0  0  0  0  0  0  0  0  0
  163.3760  205.3890  147.1320 O   0  0  0  0  0  0  0  0  0  0  0  0
  162.3120  205.6960  146.6180 C   0  0  0  0  0  0  0  0  0  0  0  0
  161.2580  203.6250  145.8670 C   0  0  0  0  0  1  0  0  0  0  0  0
  160.5130  205.9020  145.2020 C   0  0  0  0  0  2  0  0  0  0  0  0
  162.4570  206.5650  151.1760 C   0  0  0  0  0  2  0  0  0  0  0  0
  161.8190  205.4230  151.9740 C   0  0  2  0  0  3  0  0  0  0  0  0
  161.1680  204.3220  149.8930 C   0  0  0  0  0  3  0  0  0  0  0  0
  161.4670  202.8130  151.8620 C   0  0  2  0  0  3  0  0  0  0  0  0
  160.3920  201.9450  149.7790 C   0  0  2  0  0  3  0  0  0  0  0  0
  161.5100  204.1730  151.1870 C   0  0  0  0  0  0  0  0  0  0  0  0
  161.4130  201.6510  150.8700 C   0  0  0  0  0  2  0  0  0  0  0  0
  160.3790  202.7380  152.7110 F   0  0  0  0  0  0  0  0  0  0  0  0
  160.2890  200.8460  148.9280 O   0  0  0  0  0  1  0  0  0  0  0  0
  160.8600  203.1590  148.9880 C   0  0  0  0  0  2  0  0  0  0  0  0
  161.3970  206.4560  154.2640 C   0  0  0  0  0  1  0  0  0  0  0  0
  160.7800  205.8430  153.0190 C   0  0  0  0  0  2  0  0  0  0  0  0
  1  5  2  0  0  0  0
  1  3  1  0  0  0  0
  2  8  1  6  0  0  0
  3  4  1  0  0  0  0
  4  2  1  0  0  0  0
  5  6  1  0  0  0  0
  6 17  1  1  0  0  0
  6  2  1  0  0  0  0
  8  7  1  0  0  0  0
  9  5  1  0  0  0  0
 10  9  1  1  0  0  0
 11 15  1  1  0  0  0
 11 14  1  0  0  0  0
 12 10  1  0  0  0  0
 14 10  1  0  0  0  0
 14 13  2  0  0  0  0
 16 11  1  0  0  0  0
 16 12  1  0  0  0  0
 18 17  1  6  0  0  0
 18 28  1  0  0  0  0
 19 22  2  0  0  0  0
 20 24  1  1  0  0  0
 21 25  1  6  0  0  0
 21 23  1  0  0  0  0
 22 20  1  0  0  0  0
 22 18  1  0  0  0  0
 23 20  1  0  0  0  0
 26 21  1  0  0  0  0
 26 19  1  0  0  0  0
 28 27  1  0  0  0  0
M  END
>  <MODEL>
1

>  <REMARK>
 VINA RESULT:      -8.0      0.000      0.000
  Name = 
  7 active torsions:
  status: ('A' for Active; 'I' for Inactive)
    1  A    between atoms: O_2  and  C_3
    2  A    between atoms: O_2  and  C_26
    3  A    between atoms: C_10  and  C_13
    4  A    between atoms: C_10  and  C_17
    5  A    between atoms: C_10  and  C_25
    6  A    between atoms: CA_16  and  C_20
    7  A    between atoms: C_17  and  C_27
                            x       y       z     vdW  Elec       q    Type
                         _______ _______ _______ _____ _____    ______ ____

>  <TORSDO>
F 7

$$$$
=
 OpenBabel11052422473D

 28 30  0  0  1  0  0  0  0  0999 V2000
  161.2140  202.8690  147.6870 C   0  0  0  0  0  3  0  0  0  0  0  0
  160.4740  203.1050  150.4160 C   0  0  2  0  0  3  0  0  0  0  0  0
  160.4250  201.8120  148.3940 C   0  0  0  0  0  2  0  0  0  0  0  0
  159.6110  202.3930  149.4630 N   0  0  0  0  0  2  0  0  0  0  0  0
  161.6310  203.9780  148.3140 C   0  0  0  0  0  0  0  0  0  0  0  0
  161.2300  204.2600  149.7430 C   0  0  1  0  0  3  0  0  0  0  0  0
  162.2010  202.8810  152.0530 O   0  0  0  0  0  1  0  0  0  0  0  0
  161.4320  202.1640  151.1380 C   0  0  0  0  0  2  0  0  0  0  0  0
  162.4240  204.9330  147.6560 O   0  0  0  0  0  0  0  0  0  0  0  0
  162.0890  205.6210  146.4460 C   0  0  2  0  0  3  0  0  0  0  0  0
  160.9250  204.8700  144.4680 C   0  0  1  0  0  3  0  0  0  0  0  0
  160.7900  206.1630  146.5080 O   0  0  0  0  0  0  0  0  0  0  0  0
  163.0840  204.0220  144.9810 O   0  0  0  0  0  0  0  0  0  0  0  0
  162.1330  204.7280  145.2760 C   0  0  0  0  0  0  0  0  0  0  0  0
  160.1230  203.5830  144.4930 C   0  0  0  0  0  1  0  0  0  0  0  0
  160.1880  205.9530  145.2410 C   0  0  0  0  0  2  0  0  0  0  0  0
  160.3820  205.5230  149.8060 C   0  0  0  0  0  2  0  0  0  0  0  0
  161.1820  206.7620  150.2210 C   0  0  2  0  0  3  0  0  0  0  0  0
  160.7960  208.4670  151.9270 C   0  0  0  0  0  3  0  0  0  0  0  0
  161.3040  206.1770  152.7880 C   0  0  2  0  0  3  0  0  0  0  0  0
  161.3110  208.1260  154.3530 C   0  0  2  0  0  3  0  0  0  0  0  0
  161.0460  207.1700  151.6670 C   0  0  0  0  0  0  0  0  0  0  0  0
  160.8550  206.6870  154.1580 C   0  0  0  0  0  2  0  0  0  0  0  0
  162.6490  205.8590  152.8400 F   0  0  0  0  0  0  0  0  0  0  0  0
  160.9700  208.5550  155.6350 O   0  0  0  0  0  1  0  0  0  0  0  0
  160.6120  209.0030  153.3220 C   0  0  0  0  0  2  0  0  0  0  0  0
  162.6290  208.2280  148.7210 C   0  0  0  0  0  1  0  0  0  0  0  0
  161.2230  207.8990  149.1940 C   0  0  0  0  0  2  0  0  0  0  0  0
  1  5  2  0  0  0  0
  1  3  1  0  0  0  0
  2  8  1  6  0  0  0
  3  4  1  0  0  0  0
  4  2  1  0  0  0  0
  5  6  1  0  0  0  0
  6 17  1  6  0  0  0
  6  2  1  0  0  0  0
  8  7  1  0  0  0  0
  9  5  1  0  0  0  0
 10 12  1  0  0  0  0
 10  9  1  1  0  0  0
 11 15  1  1  0  0  0
 11 16  1  0  0  0  0
 11 14  1  0  0  0  0
 13 14  2  0  0  0  0
 14 10  1  0  0  0  0
 16 12  1  0  0  0  0
 17 18  1  0  0  0  0
 18 28  1  6  0  0  0
 18 22  1  0  0  0  0
 19 26  1  0  0  0  0
 20 24  1  1  0  0  0
 20 23  1  0  0  0  0
 21 25  1  1  0  0  0
 22 19  2  0  0  0  0
 22 20  1  0  0  0  0
 23 21  1  0  0  0  0
 26 21  1  0  0  0  0
 27 28  1  0  0  0  0
M  END
>  <MODEL>
2

>  <REMARK>
 VINA RESULT:      -7.9      2.244      5.220
  Name = 
  7 active torsions:
  status: ('A' for Active; 'I' for Inactive)
    1  A    between atoms: O_2  and  C_3
    2  A    between atoms: O_2  and  C_26
    3  A    between atoms: C_10  and  C_13
    4  A    between atoms: C_10  and  C_17
    5  A    between atoms: C_10  and  C_25
    6  A    between atoms: CA_16  and  C_20
    7  A    between atoms: C_17  and  C_27
                            x       y       z     vdW  Elec       q    Type
                         _______ _______ _______ _____ _____    ______ ____

>  <TORSDO>
F 7

$$$$
=
 OpenBabel11052422473D

 28 30  0  0  1  0  0  0  0  0999 V2000
  161.2670  202.9290  147.5370 C   0  0  0  0  0  3  0  0  0  0  0  0
  160.5110  202.8330  150.2700 C   0  0  2  0  0  3  0  0  0  0  0  0
  160.4950  201.7830  148.1110 C   0  0  0  0  0  2  0  0  0  0  0  0
  159.6660  202.2210  149.2360 N   0  0  0  0  0  2  0  0  0  0  0  0
  161.6610  203.9640  148.2910 C   0  0  0  0  0  0  0  0  0  0  0  0
  161.2480  204.0710  149.7410 C   0  0  1  0  0  3  0  0  0  0  0  0
  162.0070  202.3440  152.0700 O   0  0  0  0  0  1  0  0  0  0  0  0
  161.4830  201.8310  150.8840 C   0  0  0  0  0  2  0  0  0  0  0  0
  162.4380  205.0040  147.7540 O   0  0  0  0  0  0  0  0  0  0  0  0
  162.1300  205.7740  146.5880 C   0  0  2  0  0  3  0  0  0  0  0  0
  161.0400  205.1560  144.5240 C   0  0  1  0  0  3  0  0  0  0  0  0
  160.8210  206.2920  146.6480 O   0  0  0  0  0  0  0  0  0  0  0  0
  163.1950  204.3020  145.0420 O   0  0  0  0  0  0  0  0  0  0  0  0
  162.2240  204.9720  145.3570 C   0  0  0  0  0  0  0  0  0  0  0  0
  160.2580  203.8590  144.4280 C   0  0  0  0  0  1  0  0  0  0  0  0
  160.2620  206.1680  145.3500 C   0  0  0  0  0  2  0  0  0  0  0  0
  160.3770  205.3030  149.9450 C   0  0  0  0  0  2  0  0  0  0  0  0
  160.8780  206.2110  151.0740 C   0  0  2  0  0  3  0  0  0  0  0  0
  161.6060  207.8630  149.4280 C   0  0  0  0  0  3  0  0  0  0  0  0
  161.0740  208.7650  151.6960 C   0  0  2  0  0  3  0  0  0  0  0  0
  162.2400  210.2100  150.0230 C   0  0  2  0  0  3  0  0  0  0  0  0
  161.1650  207.6390  150.6790 C   0  0  0  0  0  0  0  0  0  0  0  0
  161.1270  210.1540  151.0610 C   0  0  0  0  0  2  0  0  0  0  0  0
  162.0930  208.6490  152.6240 F   0  0  0  0  0  0  0  0  0  0  0  0
  162.3350  211.5030  149.5090 O   0  0  0  0  0  1  0  0  0  0  0  0
  161.9060  209.2400  148.8980 C   0  0  0  0  0  2  0  0  0  0  0  0
  161.3400  205.5290  153.4840 C   0  0  0  0  0  1  0  0  0  0  0  0
  161.8600  205.5670  152.0570 C   0  0  0  0  0  2  0  0  0  0  0  0
  1  3  1  0  0  0  0
  1  5  2  0  0  0  0
  2  8  1  6  0  0  0
  3  4  1  0  0  0  0
  4  2  1  0  0  0  0
  5  6  1  0  0  0  0
  6 17  1  6  0  0  0
  6  2  1  0  0  0  0
  8  7  1  0  0  0  0
  9  5  1  0  0  0  0
 10 12  1  0  0  0  0
 10  9  1  1  0  0  0
 11 15  1  1  0  0  0
 11 16  1  0  0  0  0
 11 14  1  0  0  0  0
 13 14  2  0  0  0  0
 14 10  1  0  0  0  0
 16 12  1  0  0  0  0
 18 17  1  6  0  0  0
 18 28  1  0  0  0  0
 19 22  2  0  0  0  0
 20 24  1  1  0  0  0
 21 25  1  6  0  0  0
 21 23  1  0  0  0  0
 22 18  1  0  0  0  0
 22 20  1  0  0  0  0
 23 20  1  0  0  0  0
 26 19  1  0  0  0  0
 26 21  1  0  0  0  0
 28 27  1  0  0  0  0
M  END
>  <MODEL>
3

>  <REMARK>
 VINA RESULT:      -7.6      2.481      5.394
  Name = 
  7 active torsions:
  status: ('A' for Active; 'I' for Inactive)
    1  A    between atoms: O_2  and  C_3
    2  A    between atoms: O_2  and  C_26
    3  A    between atoms: C_10  and  C_13
    4  A    between atoms: C_10  and  C_17
    5  A    between atoms: C_10  and  C_25
    6  A    between atoms: CA_16  and  C_20
    7  A    between atoms: C_17  and  C_27
                            x       y       z     vdW  Elec       q    Type
                         _______ _______ _______ _____ _____    ______ ____

>  <TORSDO>
F 7

$$$$
=
 OpenBabel11052422473D

 28 30  0  0  1  0  0  0  0  0999 V2000
  161.1750  203.9220  148.2830 C   0  0  0  0  0  3  0  0  0  0  0  0
  160.9600  204.3970  151.0720 C   0  0  2  0  0  3  0  0  0  0  0  0
  160.4510  202.9840  149.1980 C   0  0  0  0  0  2  0  0  0  0  0  0
  159.8900  203.7020  150.3440 N   0  0  0  0  0  2  0  0  0  0  0  0
  161.7800  205.0280  148.7370 C   0  0  0  0  0  0  0  0  0  0  0  0
  161.6650  205.4350  150.1880 C   0  0  1  0  0  3  0  0  0  0  0  0
  161.2890  202.3250  152.2190 O   0  0  0  0  0  1  0  0  0  0  0  0
  161.9610  203.4250  151.6870 C   0  0  0  0  0  2  0  0  0  0  0  0
  162.5080  205.8660  147.8770 O   0  0  0  0  0  0  0  0  0  0  0  0
  162.1320  206.2490  146.5500 C   0  0  2  0  0  3  0  0  0  0  0  0
  161.2840  204.9430  144.7050 C   0  0  1  0  0  3  0  0  0  0  0  0
  160.7510  206.5130  146.4660 O   0  0  0  0  0  0  0  0  0  0  0  0
  163.5250  204.6620  145.4400 O   0  0  0  0  0  0  0  0  0  0  0  0
  162.4350  205.1970  145.5660 C   0  0  0  0  0  0  0  0  0  0  0  0
  160.7520  203.5410  144.9380 C   0  0  0  0  0  1  0  0  0  0  0  0
  160.2940  205.9660  145.2390 C   0  0  0  0  0  2  0  0  0  0  0  0
  160.9380  206.7690  150.2980 C   0  0  0  0  0  2  0  0  0  0  0  0
  161.7470  207.8320  151.0500 C   0  0  2  0  0  3  0  0  0  0  0  0
  161.2070  206.9780  153.2740 C   0  0  0  0  0  3  0  0  0  0  0  0
  160.9840  209.4500  152.9850 C   0  0  2  0  0  3  0  0  0  0  0  0
  160.0690  208.3480  155.0330 C   0  0  2  0  0  3  0  0  0  0  0  0
  161.3420  208.0610  152.4860 C   0  0  0  0  0  0  0  0  0  0  0  0
  160.8710  209.5300  154.5080 C   0  0  0  0  0  2  0  0  0  0  0  0
  159.7940  209.8670  152.4180 F   0  0  0  0  0  0  0  0  0  0  0  0
  159.9000  208.4730  156.4120 O   0  0  0  0  0  1  0  0  0  0  0  0
  160.8340  207.0660  154.7300 C   0  0  0  0  0  2  0  0  0  0  0  0
  161.7510  208.9690  148.7700 C   0  0  0  0  0  1  0  0  0  0  0  0
  162.1170  209.0790  150.2400 C   0  0  0  0  0  2  0  0  0  0  0  0
  1  5  2  0  0  0  0
  1  3  1  0  0  0  0
  2  8  1  6  0  0  0
  3  4  1  0  0  0  0
  4  2  1  0  0  0  0
  5  6  1  0  0  0  0
  6 17  1  6  0  0  0
  6  2  1  0  0  0  0
  8  7  1  0  0  0  0
  9  5  1  0  0  0  0
 10  9  1  1  0  0  0
 11 15  1  1  0  0  0
 11 16  1  0  0  0  0
 11 14  1  0  0  0  0
 12 10  1  0  0  0  0
 13 14  2  0  0  0  0
 14 10  1  0  0  0  0
 16 12  1  0  0  0  0
 17 18  1  0  0  0  0
 18 28  1  6  0  0  0
 18 22  1  0  0  0  0
 19 26  1  0  0  0  0
 20 24  1  6  0  0  0
 20 23  1  0  0  0  0
 21 25  1  1  0  0  0
 22 20  1  0  0  0  0
 22 19  2  0  0  0  0
 23 21  1  0  0  0  0
 26 21  1  0  0  0  0
 27 28  1  0  0  0  0
M  END
>  <MODEL>
4

>  <REMARK>
 VINA RESULT:      -7.4      2.369      5.279
  Name = 
  7 active torsions:
  status: ('A' for Active; 'I' for Inactive)
    1  A    between atoms: O_2  and  C_3
    2  A    between atoms: O_2  and  C_26
    3  A    between atoms: C_10  and  C_13
    4  A    between atoms: C_10  and  C_17
    5  A    between atoms: C_10  and  C_25
    6  A    between atoms: CA_16  and  C_20
    7  A    between atoms: C_17  and  C_27
                            x       y       z     vdW  Elec       q    Type
                         _______ _______ _______ _____ _____    ______ ____

>  <TORSDO>
F 7

$$$$
=
 OpenBabel11052422473D

 28 30  0  0  1  0  0  0  0  0999 V2000
  161.1380  207.5690  153.7040 C   0  0  0  0  0  3  0  0  0  0  0  0
  161.6120  205.4530  151.8740 C   0  0  2  0  0  3  0  0  0  0  0  0
  161.5820  206.2110  154.1520 C   0  0  0  0  0  2  0  0  0  0  0  0
  162.3860  205.5570  153.1180 N   0  0  0  0  0  2  0  0  0  0  0  0
  160.9200  207.8510  152.4130 C   0  0  0  0  0  0  0  0  0  0  0  0
  161.2180  206.8350  151.3340 C   0  0  1  0  0  3  0  0  0  0  0  0
  160.7950  203.2270  152.1810 O   0  0  0  0  0  1  0  0  0  0  0  0
  160.3910  204.5530  152.0310 C   0  0  0  0  0  2  0  0  0  0  0  0
  160.4440  209.1110  152.0110 O   0  0  0  0  0  0  0  0  0  0  0  0
  160.7860  210.3700  152.5990 C   0  0  2  0  0  3  0  0  0  0  0  0
  160.0030  211.4410  154.6160 C   0  0  1  0  0  3  0  0  0  0  0  0
  161.8080  210.2270  153.5580 O   0  0  0  0  0  0  0  0  0  0  0  0
  158.5450  211.1730  152.7600 O   0  0  0  0  0  0  0  0  0  0  0  0
  159.6360  210.9910  153.2770 C   0  0  0  0  0  0  0  0  0  0  0  0
  159.2470  210.6450  155.6630 C   0  0  0  0  0  1  0  0  0  0  0  0
  161.4770  211.0690  154.6510 C   0  0  0  0  0  2  0  0  0  0  0  0
  162.3210  207.3530  150.4210 C   0  0  0  0  0  2  0  0  0  0  0  0
  161.8440  207.5980  148.9850 C   0  0  2  0  0  3  0  0  0  0  0  0
  162.1270  206.5840  146.7800 C   0  0  0  0  0  3  0  0  0  0  0  0
  161.4380  205.0220  148.6040 C   0  0  2  0  0  3  0  0  0  0  0  0
  161.3550  204.2700  146.2220 C   0  0  2  0  0  3  0  0  0  0  0  0
  161.8500  206.3880  148.0830 C   0  0  0  0  0  0  0  0  0  0  0  0
  161.7670  203.8850  147.6360 C   0  0  0  0  0  2  0  0  0  0  0  0
  160.0830  205.0070  148.8790 F   0  0  0  0  0  0  0  0  0  0  0  0
  161.5810  203.1970  145.3600 O   0  0  0  0  0  1  0  0  0  0  0  0
  162.1910  205.4630  145.7780 C   0  0  0  0  0  2  0  0  0  0  0  0
  161.9590  210.1340  149.2020 C   0  0  0  0  0  1  0  0  0  0  0  0
  162.2940  208.9190  148.3530 C   0  0  0  0  0  2  0  0  0  0  0  0
  1  3  1  0  0  0  0
  2  8  1  1  0  0  0
  2  4  1  0  0  0  0
  4  3  1  0  0  0  0
  5  1  2  0  0  0  0
  6 17  1  1  0  0  0
  6  2  1  0  0  0  0
  6  5  1  0  0  0  0
  8  7  1  0  0  0  0
  9  5  1  0  0  0  0
 10  9  1  1  0  0  0
 10 14  1  0  0  0  0
 10 12  1  0  0  0  0
 11 16  1  0  0  0  0
 11 15  1  1  0  0  0
 12 16  1  0  0  0  0
 13 14  2  0  0  0  0
 14 11  1  0  0  0  0
 18 28  1  6  0  0  0
 18 17  1  0  0  0  0
 19 22  2  0  0  0  0
 20 24  1  6  0  0  0
 21 25  1  6  0  0  0
 21 23  1  0  0  0  0
 22 20  1  0  0  0  0
 22 18  1  0  0  0  0
 23 20  1  0  0  0  0
 26 21  1  0  0  0  0
 26 19  1  0  0  0  0
 28 27  1  0  0  0  0
M  END
>  <MODEL>
5

>  <REMARK>
 VINA RESULT:      -6.7      2.341      6.254
  Name = 
  7 active torsions:
  status: ('A' for Active; 'I' for Inactive)
    1  A    between atoms: O_2  and  C_3
    2  A    between atoms: O_2  and  C_26
    3  A    between atoms: C_10  and  C_13
    4  A    between atoms: C_10  and  C_17
    5  A    between atoms: C_10  and  C_25
    6  A    between atoms: CA_16  and  C_20
    7  A    between atoms: C_17  and  C_27
                            x       y       z     vdW  Elec       q    Type
                         _______ _______ _______ _____ _____    ______ ____

>  <TORSDO>
F 7

$$$$
=
 OpenBabel11052422473D

 28 30  0  0  1  0  0  0  0  0999 V2000
  160.7660  211.4440  154.6990 C   0  0  0  0  0  3  0  0  0  0  0  0
  161.0640  208.6320  154.9220 C   0  0  2  0  0  3  0  0  0  0  0  0
  161.1730  210.7850  155.9800 C   0  0  0  0  0  2  0  0  0  0  0  0
  161.8990  209.5410  155.7190 N   0  0  0  0  0  2  0  0  0  0  0  0
  160.5000  210.7380  153.5930 C   0  0  0  0  0  0  0  0  0  0  0  0
  160.7040  209.2410  153.5600 C   0  0  1  0  0  3  0  0  0  0  0  0
  160.0820  207.0240  156.3930 O   0  0  0  0  0  1  0  0  0  0  0  0
  159.8150  208.1900  155.6770 C   0  0  0  0  0  2  0  0  0  0  0  0
  160.0590  211.3650  152.4150 O   0  0  0  0  0  0  0  0  0  0  0  0
  159.5990  212.7140  152.2970 C   0  0  2  0  0  3  0  0  0  0  0  0
  158.2500  213.7860  150.6060 C   0  0  1  0  0  3  0  0  0  0  0  0
  158.3080  212.8640  152.8420 O   0  0  0  0  0  0  0  0  0  0  0  0
  160.4560  213.0670  150.0990 O   0  0  0  0  0  0  0  0  0  0  0  0
  159.5330  213.1530  150.8930 C   0  0  0  0  0  0  0  0  0  0  0  0
  157.4650  212.9530  149.6100 C   0  0  0  0  0  1  0  0  0  0  0  0
  157.5840  213.7190  151.9720 C   0  0  0  0  0  2  0  0  0  0  0  0
  161.7840  208.8850  152.5470 C   0  0  0  0  0  2  0  0  0  0  0  0
  161.2180  208.3010  151.2470 C   0  0  2  0  0  3  0  0  0  0  0  0
  160.8410  206.2420  149.9880 C   0  0  0  0  0  3  0  0  0  0  0  0
  161.5580  205.9370  152.3620 C   0  0  2  0  0  3  0  0  0  0  0  0
  160.7100  203.9820  151.0550 C   0  0  2  0  0  3  0  0  0  0  0  0
  161.2320  206.7950  151.1510 C   0  0  0  0  0  0  0  0  0  0  0  0
  161.7910  204.4670  152.0110 C   0  0  0  0  0  2  0  0  0  0  0  0
  160.5410  206.0260  153.2950 F   0  0  0  0  0  0  0  0  0  0  0  0
  160.8820  202.6210  150.8060 O   0  0  0  0  0  1  0  0  0  0  0  0
  160.8310  204.7560  149.7490 C   0  0  0  0  0  2  0  0  0  0  0  0
  162.3310  210.3550  150.2310 C   0  0  0  0  0  1  0  0  0  0  0  0
  161.5700  209.0670  149.9680 C   0  0  0  0  0  2  0  0  0  0  0  0
  1  3  1  0  0  0  0
  2  8  1  1  0  0  0
  2  4  1  0  0  0  0
  4  3  1  0  0  0  0
  5  1  2  0  0  0  0
  6 17  1  6  0  0  0
  6  5  1  0  0  0  0
  6  2  1  0  0  0  0
  8  7  1  0  0  0  0
  9  5  1  0  0  0  0
 10  9  1  6  0  0  0
 10 12  1  0  0  0  0
 11 15  1  6  0  0  0
 11 14  1  0  0  0  0
 11 16  1  0  0  0  0
 13 14  2  0  0  0  0
 14 10  1  0  0  0  0
 16 12  1  0  0  0  0
 18 28  1  6  0  0  0
 18 17  1  0  0  0  0
 19 22  2  0  0  0  0
 20 24  1  1  0  0  0
 21 25  1  6  0  0  0
 21 23  1  0  0  0  0
 22 18  1  0  0  0  0
 22 20  1  0  0  0  0
 23 20  1  0  0  0  0
 26 19  1  0  0  0  0
 26 21  1  0  0  0  0
 28 27  1  0  0  0  0
M  END
>  <MODEL>
6

>  <REMARK>
 VINA RESULT:      -6.7      3.003      5.986
  Name = 
  7 active torsions:
  status: ('A' for Active; 'I' for Inactive)
    1  A    between atoms: O_2  and  C_3
    2  A    between atoms: O_2  and  C_26
    3  A    between atoms: C_10  and  C_13
    4  A    between atoms: C_10  and  C_17
    5  A    between atoms: C_10  and  C_25
    6  A    between atoms: CA_16  and  C_20
    7  A    between atoms: C_17  and  C_27
                            x       y       z     vdW  Elec       q    Type
                         _______ _______ _______ _____ _____    ______ ____

>  <TORSDO>
F 7

$$$$
=
 OpenBabel11052422473D

 28 30  0  0  1  0  0  0  0  0999 V2000
  159.6350  212.4140  154.7080 C   0  0  0  0  0  3  0  0  0  0  0  0
  159.3720  212.0840  151.9020 C   0  0  2  0  0  3  0  0  0  0  0  0
  158.5980  213.1440  153.9130 C   0  0  0  0  0  2  0  0  0  0  0  0
  158.1970  212.3670  152.7380 N   0  0  0  0  0  2  0  0  0  0  0  0
  160.5100  211.5790  154.1320 C   0  0  0  0  0  0  0  0  0  0  0  0
  160.4190  211.2540  152.6580 C   0  0  1  0  0  3  0  0  0  0  0  0
  160.0070  213.2820  149.9330 O   0  0  0  0  0  1  0  0  0  0  0  0
  159.9860  213.3550  151.3250 C   0  0  0  0  0  2  0  0  0  0  0  0
  161.5170  210.9480  154.8800 O   0  0  0  0  0  0  0  0  0  0  0  0
  161.3800  210.4110  156.1990 C   0  0  2  0  0  3  0  0  0  0  0  0
  160.5890  208.2600  156.9590 C   0  0  1  0  0  3  0  0  0  0  0  0
  162.5170  209.6680  156.5710 O   0  0  0  0  0  0  0  0  0  0  0  0
  159.0820  209.8080  155.9710 O   0  0  0  0  0  0  0  0  0  0  0  0
  160.2180  209.5130  156.3100 C   0  0  0  0  0  0  0  0  0  0  0  0
  160.4560  207.1040  155.9850 C   0  0  0  0  0  1  0  0  0  0  0  0
  162.0580  208.5160  157.2590 C   0  0  0  0  0  2  0  0  0  0  0  0
  160.1220  209.7730  152.4690 C   0  0  0  0  0  2  0  0  0  0  0  0
  160.9670  209.1280  151.3660 C   0  0  2  0  0  3  0  0  0  0  0  0
  161.2810  207.0570  152.6230 C   0  0  0  0  0  3  0  0  0  0  0  0
  161.0540  206.7910  150.1490 C   0  0  2  0  0  3  0  0  0  0  0  0
  161.8100  204.8610  151.5450 C   0  0  2  0  0  3  0  0  0  0  0  0
  161.0690  207.6230  151.4200 C   0  0  0  0  0  0  0  0  0  0  0  0
  160.8900  205.2940  150.4120 C   0  0  0  0  0  2  0  0  0  0  0  0
  162.2160  207.0020  149.4300 F   0  0  0  0  0  0  0  0  0  0  0  0
  161.7150  203.4810  151.7220 O   0  0  0  0  0  1  0  0  0  0  0  0
  161.3780  205.5680  152.8230 C   0  0  0  0  0  2  0  0  0  0  0  0
  162.2190  210.4210  149.5620 C   0  0  0  0  0  1  0  0  0  0  0  0
  162.2450  209.8820  150.9820 C   0  0  0  0  0  2  0  0  0  0  0  0
  2  8  1  1  0  0  0
  2  6  1  0  0  0  0
  2  4  1  0  0  0  0
  3  1  1  0  0  0  0
  4  3  1  0  0  0  0
  5  1  2  0  0  0  0
  5  9  1  0  0  0  0
  6 17  1  1  0  0  0
  6  5  1  0  0  0  0
  7  8  1  0  0  0  0
 10  9  1  6  0  0  0
 10 14  1  0  0  0  0
 10 12  1  0  0  0  0
 11 15  1  6  0  0  0
 11 16  1  0  0  0  0
 12 16  1  0  0  0  0
 13 14  2  0  0  0  0
 14 11  1  0  0  0  0
 18 28  1  1  0  0  0
 18 22  1  0  0  0  0
 18 17  1  0  0  0  0
 19 26  1  0  0  0  0
 20 24  1  1  0  0  0
 20 23  1  0  0  0  0
 20 22  1  0  0  0  0
 21 25  1  1  0  0  0
 21 26  1  0  0  0  0
 22 19  2  0  0  0  0
 23 21  1  0  0  0  0
 27 28  1  0  0  0  0
M  END
>  <MODEL>
7

>  <REMARK>
 VINA RESULT:      -6.5      3.406      7.023
  Name = 
  7 active torsions:
  status: ('A' for Active; 'I' for Inactive)
    1  A    between atoms: O_2  and  C_3
    2  A    between atoms: O_2  and  C_26
    3  A    between atoms: C_10  and  C_13
    4  A    between atoms: C_10  and  C_17
    5  A    between atoms: C_10  and  C_25
    6  A    between atoms: CA_16  and  C_20
    7  A    between atoms: C_17  and  C_27
                            x       y       z     vdW  Elec       q    Type
                         _______ _______ _______ _____ _____    ______ ____

>  <TORSDO>
F 7

$$$$
=
 OpenBabel11052422473D

 28 30  0  0  1  0  0  0  0  0999 V2000
  161.0400  204.6550  152.7630 C   0  0  0  0  0  3  0  0  0  0  0  0
  161.2200  203.7760  150.0710 C   0  0  2  0  0  3  0  0  0  0  0  0
  161.2230  203.2130  152.4050 C   0  0  0  0  0  2  0  0  0  0  0  0
  161.9460  203.0760  151.1400 N   0  0  0  0  0  2  0  0  0  0  0  0
  160.9310  205.6070  151.8270 C   0  0  0  0  0  0  0  0  0  0  0  0
  161.0950  205.2780  150.3610 C   0  0  1  0  0  3  0  0  0  0  0  0
  160.0050  202.0150  149.0040 O   0  0  0  0  0  1  0  0  0  0  0  0
  159.8560  203.1510  149.7990 C   0  0  0  0  0  2  0  0  0  0  0  0
  160.6980  206.9490  152.1740 O   0  0  0  0  0  0  0  0  0  0  0  0
  161.2530  207.6390  153.2980 C   0  0  2  0  0  3  0  0  0  0  0  0
  160.8820  209.8780  154.1210 C   0  0  1  0  0  3  0  0  0  0  0  0
  160.4240  207.5240  154.4300 O   0  0  0  0  0  0  0  0  0  0  0  0
  162.0120  209.5330  152.0610 O   0  0  0  0  0  0  0  0  0  0  0  0
  161.4260  209.0770  153.0300 C   0  0  0  0  0  0  0  0  0  0  0  0
  159.6920  210.6860  153.6380 C   0  0  0  0  0  1  0  0  0  0  0  0
  160.4150  208.7880  155.0730 C   0  0  0  0  0  2  0  0  0  0  0  0
  162.3100  206.0030  149.7970 C   0  0  0  0  0  2  0  0  0  0  0  0
  161.9540  206.9830  148.6730 C   0  0  2  0  0  3  0  0  0  0  0  0
  160.4820  206.6130  146.7600 C   0  0  0  0  0  3  0  0  0  0  0  0
  162.6530  205.3780  146.7030 C   0  0  2  0  0  3  0  0  0  0  0  0
  160.8480  204.8000  145.0730 C   0  0  2  0  0  3  0  0  0  0  0  0
  161.6740  206.3570  147.3290 C   0  0  0  0  0  0  0  0  0  0  0  0
  162.3370  205.0650  145.2400 C   0  0  0  0  0  2  0  0  0  0  0  0
  162.6730  204.1990  147.4250 F   0  0  0  0  0  0  0  0  0  0  0  0
  160.5820  204.4350  143.7540 O   0  0  0  0  0  1  0  0  0  0  0  0
  160.0840  206.0730  145.4120 C   0  0  0  0  0  2  0  0  0  0  0  0
  161.8640  209.5290  148.6690 C   0  0  0  0  0  1  0  0  0  0  0  0
  162.7480  208.2940  148.6600 C   0  0  0  0  0  2  0  0  0  0  0  0
  2  8  1  1  0  0  0
  2  6  1  0  0  0  0
  2  4  1  0  0  0  0
  3  1  1  0  0  0  0
  4  3  1  0  0  0  0
  5  9  1  0  0  0  0
  5  1  2  0  0  0  0
  6 17  1  1  0  0  0
  6  5  1  0  0  0  0
  7  8  1  0  0  0  0
 10  9  1  6  0  0  0
 10 12  1  0  0  0  0
 11 15  1  6  0  0  0
 11 16  1  0  0  0  0
 12 16  1  0  0  0  0
 13 14  2  0  0  0  0
 14 10  1  0  0  0  0
 14 11  1  0  0  0  0
 18 28  1  6  0  0  0
 18 17  1  0  0  0  0
 19 22  2  0  0  0  0
 20 22  1  0  0  0  0
 20 24  1  1  0  0  0
 21 25  1  6  0  0  0
 21 23  1  0  0  0  0
 21 26  1  0  0  0  0
 22 18  1  0  0  0  0
 23 20  1  0  0  0  0
 26 19  1  0  0  0  0
 28 27  1  0  0  0  0
M  END
>  <MODEL>
8

>  <REMARK>
 VINA RESULT:      -6.1      2.444      6.479
  Name = 
  7 active torsions:
  status: ('A' for Active; 'I' for Inactive)
    1  A    between atoms: O_2  and  C_3
    2  A    between atoms: O_2  and  C_26
    3  A    between atoms: C_10  and  C_13
    4  A    between atoms: C_10  and  C_17
    5  A    between atoms: C_10  and  C_25
    6  A    between atoms: CA_16  and  C_20
    7  A    between atoms: C_17  and  C_27
                            x       y       z     vdW  Elec       q    Type
                         _______ _______ _______ _____ _____    ______ ____

>  <TORSDO>
F 7

$$$$
=
 OpenBabel11052422473D

 28 30  0  0  1  0  0  0  0  0999 V2000
  161.3490  203.4010  147.4510 C   0  0  0  0  0  3  0  0  0  0  0  0
  162.3130  205.8490  146.3880 C   0  0  2  0  0  3  0  0  0  0  0  0
  162.0230  203.4810  146.1170 C   0  0  0  0  0  2  0  0  0  0  0  0
  162.9890  204.5800  146.0840 N   0  0  0  0  0  2  0  0  0  0  0  0
  161.1460  204.4880  148.2070 C   0  0  0  0  0  0  0  0  0  0  0  0
  161.6880  205.8360  147.7900 C   0  0  1  0  0  3  0  0  0  0  0  0
  160.0810  206.5790  145.9380 O   0  0  0  0  0  1  0  0  0  0  0  0
  161.2820  206.2180  145.3280 C   0  0  0  0  0  2  0  0  0  0  0  0
  160.4570  204.4090  149.4290 O   0  0  0  0  0  0  0  0  0  0  0  0
  160.4560  203.2950  150.3280 C   0  0  2  0  0  3  0  0  0  0  0  0
  160.9040  200.9540  149.9480 C   0  0  1  0  0  3  0  0  0  0  0  0
  161.7460  203.0420  150.8310 O   0  0  0  0  0  0  0  0  0  0  0  0
  158.9500  201.9590  149.0470 O   0  0  0  0  0  0  0  0  0  0  0  0
  159.9940  202.0600  149.6730 C   0  0  0  0  0  0  0  0  0  0  0  0
  161.5820  200.5000  148.6690 C   0  0  0  0  0  1  0  0  0  0  0  0
  161.9170  201.6340  150.8560 C   0  0  0  0  0  2  0  0  0  0  0  0
  162.7150  206.3210  148.8050 C   0  0  0  0  0  2  0  0  0  0  0  0
  162.2970  207.6160  149.5090 C   0  0  2  0  0  3  0  0  0  0  0  0
  161.1510  208.5070  151.4740 C   0  0  0  0  0  3  0  0  0  0  0  0
  162.0370  206.1820  151.7060 C   0  0  2  0  0  3  0  0  0  0  0  0
  161.2300  207.4150  153.7250 C   0  0  2  0  0  3  0  0  0  0  0  0
  161.7700  207.4510  150.9140 C   0  0  0  0  0  0  0  0  0  0  0  0
  161.2040  206.0850  152.9840 C   0  0  0  0  0  2  0  0  0  0  0  0
  163.3790  206.0980  152.0300 F   0  0  0  0  0  0  0  0  0  0  0  0
  160.5380  207.2930  154.9290 O   0  0  0  0  0  1  0  0  0  0  0  0
  160.5570  208.4700  152.8570 C   0  0  0  0  0  2  0  0  0  0  0  0
  162.2550  210.0090  148.6360 C   0  0  0  0  0  1  0  0  0  0  0  0
  161.5810  208.6470  148.6310 C   0  0  0  0  0  2  0  0  0  0  0  0
  1  5  2  0  0  0  0
  2  8  1  6  0  0  0
  2  6  1  0  0  0  0
  3  1  1  0  0  0  0
  4  3  1  0  0  0  0
  4  2  1  0  0  0  0
  5  9  1  0  0  0  0
  6  5  1  0  0  0  0
  6 17  1  1  0  0  0
  8  7  1  0  0  0  0
 10  9  1  6  0  0  0
 10 12  1  0  0  0  0
 11 15  1  6  0  0  0
 11 16  1  0  0  0  0
 12 16  1  0  0  0  0
 13 14  2  0  0  0  0
 14 11  1  0  0  0  0
 14 10  1  0  0  0  0
 17 18  1  0  0  0  0
 18 28  1  6  0  0  0
 18 22  1  0  0  0  0
 19 26  1  0  0  0  0
 20 24  1  1  0  0  0
 20 23  1  0  0  0  0
 21 25  1  1  0  0  0
 22 19  2  0  0  0  0
 22 20  1  0  0  0  0
 23 21  1  0  0  0  0
 26 21  1  0  0  0  0
 28 27  1  0  0  0  0
M  END
>  <MODEL>
9

>  <REMARK>
 VINA RESULT:      -6.0      2.161      5.718
  Name = 
  7 active torsions:
  status: ('A' for Active; 'I' for Inactive)
    1  A    between atoms: O_2  and  C_3
    2  A    between atoms: O_2  and  C_26
    3  A    between atoms: C_10  and  C_13
    4  A    between atoms: C_10  and  C_17
    5  A    between atoms: C_10  and  C_25
    6  A    between atoms: CA_16  and  C_20
    7  A    between atoms: C_17  and  C_27
                            x       y       z     vdW  Elec       q    Type
                         _______ _______ _______ _____ _____    ______ ____

>  <TORSDO>
F 7

$$$$
