=
 OpenBabel11062409503D

 34 38  0  0  1  0  0  0  0  0999 V2000
  160.2200  210.0540  155.3200 C   0  0  1  0  0  3  0  0  0  0  0  0
  161.5020  207.0400  153.4900 C   0  0  0  0  0  3  0  0  0  0  0  0
  162.3080  207.7830  155.6320 C   0  0  0  0  0  2  0  0  0  0  0  0
  159.0060  208.2620  155.7830 O   0  0  0  0  0  0  0  0  0  0  0  0
  159.3370  207.9870  157.1180 C   0  0  0  0  0  2  0  0  0  0  0  0
  161.6850  208.2920  156.7820 O   0  0  0  0  0  0  0  0  0  0  0  0
  158.9330  209.5830  155.6750 O   0  0  0  0  0  0  0  0  0  0  0  0
  160.7220  207.3540  157.1720 C   0  0  0  0  0  2  0  0  0  0  0  0
  160.7480  207.0740  152.2050 C   0  0  0  0  0  2  0  0  0  0  0  0
  161.2980  208.1240  151.2960 C   0  0  0  0  0  0  0  0  0  0  0  0
  161.2260  209.4180  151.6250 C   0  0  0  0  0  3  0  0  0  0  0  0
  161.5320  208.0500  154.3640 C   0  0  0  0  0  0  0  0  0  0  0  0
  160.7350  209.9390  152.9160 C   0  0  0  0  0  3  0  0  0  0  0  0
  160.8340  209.3560  154.1240 C   0  0  0  0  0  0  0  0  0  0  0  0
  159.1790  212.2400  154.4830 C   0  0  1  0  0  3  0  0  0  0  0  0
  158.5630  213.8660  156.9760 C   0  0  0  0  0  2  0  0  0  0  0  0
  155.4350  212.2350  154.2720 C   0  0  0  0  0  2  0  0  0  0  0  0
  160.4960  212.1120  156.7570 C   0  0  1  0  0  3  0  0  0  0  0  0
  160.3040  211.5870  155.3190 C   0  0  1  0  0  3  0  0  0  0  0  0
  155.4680  213.7270  156.3610 C   0  0  2  0  0  3  0  0  0  0  0  0
  156.7560  212.9880  154.2060 C   0  0  2  0  0  3  0  0  0  0  0  0
  154.1460  213.7460  156.8090 O   0  0  0  0  0  1  0  0  0  0  0  0
  157.7680  212.2710  155.1210 C   0  0  2  0  0  3  0  0  0  0  0  0
  161.9280  211.8930  157.2220 C   0  0  0  0  0  1  0  0  0  0  0  0
  160.8390  214.4450  157.0930 O   0  0  0  0  0  0  0  0  0  0  0  0
  155.5160  213.6430  154.8250 C   0  0  1  0  0  3  0  0  0  0  0  0
  156.3110  212.7310  157.1620 C   0  0  2  0  0  3  0  0  0  0  0  0
  157.7240  212.6420  156.6170 C   0  0  2  0  0  3  0  0  0  0  0  0
  155.6740  211.3500  157.2510 C   0  0  0  0  0  1  0  0  0  0  0  0
  160.0300  213.5370  156.9710 C   0  0  0  0  0  0  0  0  0  0  0  0
  159.6300  213.5840  153.9220 C   0  0  0  0  0  1  0  0  0  0  0  0
  161.8410  207.7260  149.9870 C   0  0  0  0  0  0  0  0  0  0  0  0
  162.2840  208.6950  149.0930 O   0  0  0  0  0  0  0  0  0  0  0  0
  161.9080  206.5110  149.6610 O   0  0  0  0  0  1  0  0  0  0  0  0
  1 14  1  6  0  0  0
  1  7  1  0  0  0  0
  2 12  2  0  0  0  0
  3  6  1  0  0  0  0
  4  5  1  0  0  0  0
  5  8  1  0  0  0  0
  6  8  1  0  0  0  0
  7  4  1  0  0  0  0
  9  2  1  0  0  0  0
 10 11  2  0  0  0  0
 10  9  1  0  0  0  0
 11 13  1  0  0  0  0
 12  3  1  0  0  0  0
 13 14  2  0  0  0  0
 14 12  1  0  0  0  0
 15 31  1  1  0  0  0
 15 23  1  0  0  0  0
 15 19  1  0  0  0  0
 17 26  1  0  0  0  0
 18 30  1  0  0  0  0
 18 24  1  6  0  0  0
 19  1  1  1  0  0  0
 19 18  1  0  0  0  0
 20 22  1  1  0  0  0
 20 27  1  0  0  0  0
 21 17  1  6  0  0  0
 21 26  1  0  0  0  0
 21 23  1  0  0  0  0
 23 28  1  0  0  0  0
 26 20  1  0  0  0  0
 27 29  1  0  0  0  0
 28 16  1  0  0  0  0
 28 27  1  0  0  0  0
 30 16  1  0  0  0  0
 30 25  2  0  0  0  0
 32 10  1  0  0  0  0
 33 32  2  0  0  0  0
 34 32  1  0  0  0  0
M  END
>  <MODEL>
1

>  <REMARK>
 VINA RESULT:      -3.2      0.000      0.000
  Name = 
  2 active torsions:
  status: ('A' for Active; 'I' for Inactive)
    1  A    between atoms: C_1  and  C_9
    2  A    between atoms: C_3  and  C_25
                            x       y       z     vdW  Elec       q    Type
                         _______ _______ _______ _____ _____    ______ ____

>  <TORSDO>
F 2

$$$$
=
 OpenBabel11062409503D

 34 38  0  0  1  0  0  0  0  0999 V2000
  158.5230  211.4650  156.1950 C   0  0  1  0  0  3  0  0  0  0  0  0
  156.7470  212.6110  153.0950 C   0  0  0  0  0  3  0  0  0  0  0  0
  156.3510  210.5100  154.1980 C   0  0  0  0  0  2  0  0  0  0  0  0
  156.7490  212.6900  156.6970 O   0  0  0  0  0  0  0  0  0  0  0  0
  155.8580  211.7550  157.2450 C   0  0  0  0  0  2  0  0  0  0  0  0
  156.2520  210.1210  155.5430 O   0  0  0  0  0  0  0  0  0  0  0  0
  157.9580  212.3620  157.1330 O   0  0  0  0  0  0  0  0  0  0  0  0
  155.2570  210.9170  156.1230 C   0  0  0  0  0  2  0  0  0  0  0  0
  157.4090  213.9090  152.7820 C   0  0  0  0  0  2  0  0  0  0  0  0
  158.7590  213.6850  152.1830 C   0  0  0  0  0  0  0  0  0  0  0  0
  159.7340  213.1090  152.8930 C   0  0  0  0  0  3  0  0  0  0  0  0
  157.2090  211.7360  153.9910 C   0  0  0  0  0  0  0  0  0  0  0  0
  159.5750  212.5370  154.2450 C   0  0  0  0  0  3  0  0  0  0  0  0
  158.4800  211.9500  154.7610 C   0  0  0  0  0  0  0  0  0  0  0  0
  160.0440  209.4050  156.2640 C   0  0  1  0  0  3  0  0  0  0  0  0
  162.6790  210.2840  155.0280 C   0  0  0  0  0  2  0  0  0  0  0  0
  159.9780  207.2790  153.1770 C   0  0  0  0  0  2  0  0  0  0  0  0
  161.0160  211.8490  156.3120 C   0  0  1  0  0  3  0  0  0  0  0  0
  159.8640  210.8870  156.6680 C   0  0  1  0  0  3  0  0  0  0  0  0
  162.2930  208.2520  152.6420 C   0  0  2  0  0  3  0  0  0  0  0  0
  160.5910  207.6190  154.5270 C   0  0  2  0  0  3  0  0  0  0  0  0
  162.5400  207.8830  151.3180 O   0  0  0  0  0  1  0  0  0  0  0  0
  160.3950  209.1270  154.7810 C   0  0  2  0  0  3  0  0  0  0  0  0
  161.0330  213.0390  157.2610 C   0  0  0  0  0  1  0  0  0  0  0  0
  163.2180  211.3340  157.0620 O   0  0  0  0  0  0  0  0  0  0  0  0
  161.4770  207.1630  153.3620 C   0  0  1  0  0  3  0  0  0  0  0  0
  161.7990  209.6980  152.7320 C   0  0  2  0  0  3  0  0  0  0  0  0
  161.4420  210.0710  154.1590 C   0  0  2  0  0  3  0  0  0  0  0  0
  160.6390  209.9890  151.7880 C   0  0  0  0  0  1  0  0  0  0  0  0
  162.3720  211.1850  156.1930 C   0  0  0  0  0  0  0  0  0  0  0  0
  160.9450  208.6780  157.2570 C   0  0  0  0  0  1  0  0  0  0  0  0
  159.0340  214.1880  150.8270 C   0  0  0  0  0  0  0  0  0  0  0  0
  160.3440  214.4260  150.4250 O   0  0  0  0  0  1  0  0  0  0  0  0
  158.0920  214.4110  150.0200 O   0  0  0  0  0  0  0  0  0  0  0  0
  1 14  1  6  0  0  0
  1  7  1  0  0  0  0
  2 12  2  0  0  0  0
  3  6  1  0  0  0  0
  4  7  1  0  0  0  0
  4  5  1  0  0  0  0
  6  8  1  0  0  0  0
  8  5  1  0  0  0  0
  9  2  1  0  0  0  0
 10  9  1  0  0  0  0
 10 11  2  0  0  0  0
 11 13  1  0  0  0  0
 12  3  1  0  0  0  0
 12 14  1  0  0  0  0
 13 14  2  0  0  0  0
 15 19  1  0  0  0  0
 15 31  1  1  0  0  0
 16 30  1  0  0  0  0
 17 26  1  0  0  0  0
 18 19  1  0  0  0  0
 18 24  1  1  0  0  0
 19  1  1  6  0  0  0
 20 22  1  6  0  0  0
 20 27  1  0  0  0  0
 20 26  1  0  0  0  0
 21 17  1  6  0  0  0
 21 23  1  0  0  0  0
 23 15  1  0  0  0  0
 26 21  1  0  0  0  0
 27 28  1  0  0  0  0
 28 23  1  0  0  0  0
 28 16  1  0  0  0  0
 29 27  1  0  0  0  0
 30 18  1  0  0  0  0
 30 25  2  0  0  0  0
 32 10  1  0  0  0  0
 33 32  1  0  0  0  0
 34 32  2  0  0  0  0
M  END
>  <MODEL>
2

>  <REMARK>
 VINA RESULT:      -1.3      2.338      6.059
  Name = 
  2 active torsions:
  status: ('A' for Active; 'I' for Inactive)
    1  A    between atoms: C_1  and  C_9
    2  A    between atoms: C_3  and  C_25
                            x       y       z     vdW  Elec       q    Type
                         _______ _______ _______ _____ _____    ______ ____

>  <TORSDO>
F 2

$$$$
