=
 OpenBabel11052422463D

 31 32  0  0  1  0  0  0  0  0999 V2000
  161.4960  205.4280  144.8390 C   0  0  0  0  0  0  0  0  0  0  0  0
  160.1450  207.0080  148.0170 C   0  0  0  0  0  2  0  0  0  0  0  0
  160.9370  206.1320  147.0860 C   0  0  0  0  0  0  0  0  0  0  0  0
  162.3950  204.4890  145.3540 C   0  0  0  0  0  3  0  0  0  0  0  0
  161.1410  205.7310  149.9100 C   0  0  1  0  0  0  0  0  0  0  0  0
  161.3180  205.5570  143.3680 C   0  0  0  0  0  1  0  0  0  0  0  0
  162.0060  205.0600  148.9910 O   0  0  0  0  0  0  0  0  0  0  0  0
  160.8560  207.1700  149.3830 C   0  0  1  0  0  3  0  0  0  0  0  0
  159.9370  205.0210  149.9730 O   0  0  0  0  0  1  0  0  0  0  0  0
  160.7670  206.2490  145.7030 C   0  0  0  0  0  3  0  0  0  0  0  0
  161.8320  205.1770  147.6060 C   0  0  0  0  0  0  0  0  0  0  0  0
  162.5640  204.3650  146.7370 C   0  0  0  0  0  3  0  0  0  0  0  0
  162.0960  207.9720  149.2390 N   0  0  0  0  0  0  0  0  0  0  0  0
  162.5390  208.4650  150.5360 C   0  0  0  0  0  1  0  0  0  0  0  0
  161.9300  209.1410  148.3560 C   0  0  0  0  0  2  0  0  0  0  0  0
  162.0040  210.4900  149.0850 C   0  0  0  0  0  2  0  0  0  0  0  0
  163.3400  212.2820  148.2930 O   0  0  0  0  0  1  0  0  0  0  0  0
  162.1050  211.6570  148.1100 C   0  0  2  0  0  3  0  0  0  0  0  0
  160.9740  212.6640  148.3320 C   0  0  1  0  0  3  0  0  0  0  0  0
  161.5050  214.0850  148.2560 C   0  0  0  0  0  1  0  0  0  0  0  0
  159.9830  212.5040  147.3620 O   0  0  0  0  0  1  0  0  0  0  0  0
  161.7830  205.7080  151.3010 C   0  0  0  0  0  2  0  0  0  0  0  0
  161.0900  204.7860  152.2020 N   0  0  0  0  0  0  0  0  0  0  0  0
  161.1680  205.2840  153.5810 C   0  0  0  0  0  2  0  0  0  0  0  0
  161.1080  206.8090  153.6860 C   0  0  0  0  0  1  0  0  0  0  0  0
  161.7490  203.4840  152.1320 C   0  0  0  0  0  2  0  0  0  0  0  0
  160.7480  202.4040  151.7580 C   0  0  0  0  0  2  0  0  0  0  0  0
  161.1810  201.6920  150.4880 C   0  0  0  0  0  2  0  0  0  0  0  0
  160.0480  201.6840  149.4770 C   0  0  0  0  0  2  0  0  0  0  0  0
  161.5080  200.4840  147.8790 C   0  0  0  0  0  1  0  0  0  0  0  0
  160.6050  201.6870  148.0660 C   0  0  0  0  0  2  0  0  0  0  0  0
  1  4  2  0  0  0  0
  1 10  1  0  0  0  0
  2  8  1  0  0  0  0
  3 11  1  0  0  0  0
  3  2  1  0  0  0  0
  4 12  1  0  0  0  0
  5  9  1  1  0  0  0
  5 22  1  0  0  0  0
  6  1  1  0  0  0  0
  7  5  1  0  0  0  0
  8 13  1  6  0  0  0
  8  5  1  0  0  0  0
 10  3  2  0  0  0  0
 11  7  1  0  0  0  0
 12 11  2  0  0  0  0
 13 14  1  0  0  0  0
 15 16  1  0  0  0  0
 15 13  1  0  0  0  0
 18 17  1  1  0  0  0
 18 19  1  0  0  0  0
 18 16  1  0  0  0  0
 19 20  1  6  0  0  0
 21 19  1  0  0  0  0
 22 23  1  0  0  0  0
 23 24  1  0  0  0  0
 24 25  1  0  0  0  0
 26 23  1  0  0  0  0
 27 26  1  0  0  0  0
 28 27  1  0  0  0  0
 29 28  1  0  0  0  0
 30 31  1  0  0  0  0
 31 29  1  0  0  0  0
M  END
>  <MODEL>
1

>  <REMARK>
 VINA RESULT:      -6.1      0.000      0.000
  Name = 
  13 active torsions:
  status: ('A' for Active; 'I' for Inactive)
    1  A    between atoms: C_1  and  C_11
    2  A    between atoms: C_1  and  C_24
    3  A    between atoms: C_3  and  N_9
    4  A    between atoms: N_5  and  C_10
    5  A    between atoms: N_5  and  C_21
    6  A    between atoms: C_6  and  N_9
    7  A    between atoms: C_6  and  C_19
    8  A    between atoms: C_7  and  N_9
    9  A    between atoms: C_7  and  C_15
   10  A    between atoms: C_10  and  C_18
   11  A    between atoms: C_17  and  C_31
   12  A    between atoms: C_18  and  C_31
   13  A    between atoms: C_19  and  C_24
                            x       y       z     vdW  Elec       q    Type
                         _______ _______ _______ _____ _____    ______ ____

>  <TORSDO>
F 13

$$$$
=
 OpenBabel11052422463D

 31 32  0  0  1  0  0  0  0  0999 V2000
  160.7310  202.4560  150.4450 C   0  0  0  0  0  0  0  0  0  0  0  0
  160.0440  206.0780  149.5330 C   0  0  0  0  0  2  0  0  0  0  0  0
  160.6450  204.8610  150.1790 C   0  0  0  0  0  0  0  0  0  0  0  0
  161.7470  202.5960  151.3960 C   0  0  0  0  0  3  0  0  0  0  0  0
  161.4580  207.4610  151.0480 C   0  0  1  0  0  0  0  0  0  0  0  0
  160.2400  201.1030  150.0750 C   0  0  0  0  0  1  0  0  0  0  0  0
  162.1270  206.2770  151.4890 O   0  0  0  0  0  0  0  0  0  0  0  0
  161.0250  207.2760  149.5620 C   0  0  1  0  0  3  0  0  0  0  0  0
  160.3170  207.6380  151.8370 O   0  0  0  0  0  1  0  0  0  0  0  0
  160.1800  203.5870  149.8370 C   0  0  0  0  0  3  0  0  0  0  0  0
  161.6580  205.0030  151.1470 C   0  0  0  0  0  0  0  0  0  0  0  0
  162.2110  203.8680  151.7460 C   0  0  0  0  0  3  0  0  0  0  0  0
  162.1820  207.0310  148.6650 N   0  0  0  0  0  0  0  0  0  0  0  0
  162.8170  208.2890  148.2960 C   0  0  0  0  0  1  0  0  0  0  0  0
  161.8100  206.3410  147.4160 C   0  0  0  0  0  2  0  0  0  0  0  0
  162.5690  205.0270  147.1780 C   0  0  0  0  0  2  0  0  0  0  0  0
  162.4050  205.8510  144.9610 O   0  0  0  0  0  1  0  0  0  0  0  0
  162.6710  204.6930  145.6950 C   0  0  2  0  0  3  0  0  0  0  0  0
  161.6820  203.5910  145.3050 C   0  0  1  0  0  3  0  0  0  0  0  0
  161.2220  202.8320  146.5360 C   0  0  0  0  0  1  0  0  0  0  0  0
  160.5660  204.1420  144.6740 O   0  0  0  0  0  1  0  0  0  0  0  0
  162.3820  208.6630  151.2670 C   0  0  0  0  0  2  0  0  0  0  0  0
  161.6420  209.9250  151.2540 N   0  0  0  0  0  0  0  0  0  0  0  0
  162.3270  210.8960  150.3910 C   0  0  0  0  0  2  0  0  0  0  0  0
  161.3840  211.6630  149.4630 C   0  0  0  0  0  1  0  0  0  0  0  0
  161.5970  210.4530  152.6150 C   0  0  0  0  0  2  0  0  0  0  0  0
  160.1680  210.7930  153.0040 C   0  0  0  0  0  2  0  0  0  0  0  0
  160.0160  210.8130  154.5150 C   0  0  0  0  0  2  0  0  0  0  0  0
  160.8700  209.7270  155.1440 C   0  0  0  0  0  2  0  0  0  0  0  0
  160.6270  207.2660  155.2450 C   0  0  0  0  0  1  0  0  0  0  0  0
  159.9940  208.5870  155.6300 C   0  0  0  0  0  2  0  0  0  0  0  0
  1  4  1  0  0  0  0
  2  8  1  0  0  0  0
  2  3  1  0  0  0  0
  3 11  2  0  0  0  0
  4 12  2  0  0  0  0
  5 22  1  0  0  0  0
  5  7  1  0  0  0  0
  5  9  1  1  0  0  0
  6  1  1  0  0  0  0
  8 13  1  6  0  0  0
  8  5  1  0  0  0  0
 10  3  1  0  0  0  0
 10  1  2  0  0  0  0
 11  7  1  0  0  0  0
 11 12  1  0  0  0  0
 14 13  1  0  0  0  0
 15 13  1  0  0  0  0
 16 15  1  0  0  0  0
 18 17  1  6  0  0  0
 18 16  1  0  0  0  0
 19 18  1  0  0  0  0
 19 20  1  1  0  0  0
 21 19  1  0  0  0  0
 23 22  1  0  0  0  0
 23 26  1  0  0  0  0
 24 23  1  0  0  0  0
 25 24  1  0  0  0  0
 26 27  1  0  0  0  0
 27 28  1  0  0  0  0
 28 29  1  0  0  0  0
 29 31  1  0  0  0  0
 30 31  1  0  0  0  0
M  END
>  <MODEL>
2

>  <REMARK>
 VINA RESULT:      -5.9      2.440      6.599
  Name = 
  13 active torsions:
  status: ('A' for Active; 'I' for Inactive)
    1  A    between atoms: C_1  and  C_11
    2  A    between atoms: C_1  and  C_24
    3  A    between atoms: C_3  and  N_9
    4  A    between atoms: N_5  and  C_10
    5  A    between atoms: N_5  and  C_21
    6  A    between atoms: C_6  and  N_9
    7  A    between atoms: C_6  and  C_19
    8  A    between atoms: C_7  and  N_9
    9  A    between atoms: C_7  and  C_15
   10  A    between atoms: C_10  and  C_18
   11  A    between atoms: C_17  and  C_31
   12  A    between atoms: C_18  and  C_31
   13  A    between atoms: C_19  and  C_24
                            x       y       z     vdW  Elec       q    Type
                         _______ _______ _______ _____ _____    ______ ____

>  <TORSDO>
F 13

$$$$
=
 OpenBabel11052422463D

 31 32  0  0  1  0  0  0  0  0999 V2000
  162.1790  205.6480  146.9860 C   0  0  0  0  0  0  0  0  0  0  0  0
  163.1560  206.7590  150.4840 C   0  0  0  0  0  2  0  0  0  0  0  0
  162.3950  206.6140  149.1950 C   0  0  0  0  0  0  0  0  0  0  0  0
  160.9910  206.3590  146.7890 C   0  0  0  0  0  3  0  0  0  0  0  0
  161.4990  208.4940  151.1540 C   0  0  1  0  0  0  0  0  0  0  0  0
  162.6940  204.7520  145.9180 C   0  0  0  0  0  1  0  0  0  0  0  0
  160.7160  208.1790  150.0010 O   0  0  0  0  0  0  0  0  0  0  0  0
  162.2290  207.2060  151.6410 C   0  0  1  0  0  3  0  0  0  0  0  0
  162.4540  209.4480  150.7860 O   0  0  0  0  0  1  0  0  0  0  0  0
  162.8810  205.7750  148.1870 C   0  0  0  0  0  3  0  0  0  0  0  0
  161.2060  207.3410  148.9920 C   0  0  0  0  0  0  0  0  0  0  0  0
  160.5040  207.2040  147.7920 C   0  0  0  0  0  3  0  0  0  0  0  0
  161.2790  206.1240  152.0020 N   0  0  0  0  0  0  0  0  0  0  0  0
  161.1790  205.9950  153.4490 C   0  0  0  0  0  1  0  0  0  0  0  0
  161.6720  204.8070  151.4670 C   0  0  0  0  0  2  0  0  0  0  0  0
  160.5340  204.0540  150.7640 C   0  0  0  0  0  2  0  0  0  0  0  0
  161.8680  202.2650  151.5670 O   0  0  0  0  0  1  0  0  0  0  0  0
  160.6340  202.5480  150.9780 C   0  0  2  0  0  3  0  0  0  0  0  0
  160.5030  201.7900  149.6550 C   0  0  1  0  0  3  0  0  0  0  0  0
  160.9400  202.6660  148.4950 C   0  0  0  0  0  1  0  0  0  0  0  0
  161.2960  200.6410  149.6730 O   0  0  0  0  0  1  0  0  0  0  0  0
  160.5880  209.1150  152.2170 C   0  0  0  0  0  2  0  0  0  0  0  0
  161.2850  210.1380  152.9990 N   0  0  0  0  0  0  0  0  0  0  0  0
  161.3010  209.7570  154.4160 C   0  0  0  0  0  2  0  0  0  0  0  0
  162.1040  210.7150  155.2980 C   0  0  0  0  0  1  0  0  0  0  0  0
  160.5670  211.4020  152.8570 C   0  0  0  0  0  2  0  0  0  0  0  0
  159.0680  211.1580  152.8100 C   0  0  0  0  0  2  0  0  0  0  0  0
  158.3260  212.2490  153.5610 C   0  0  0  0  0  2  0  0  0  0  0  0
  158.3880  211.9950  155.0560 C   0  0  0  0  0  2  0  0  0  0  0  0
  155.9890  211.4040  154.9050 C   0  0  0  0  0  1  0  0  0  0  0  0
  157.3340  210.9800  155.4600 C   0  0  0  0  0  2  0  0  0  0  0  0
  1 10  1  0  0  0  0
  2  8  1  0  0  0  0
  3  2  1  0  0  0  0
  4  1  2  0  0  0  0
  4 12  1  0  0  0  0
  5  9  1  6  0  0  0
  5  8  1  0  0  0  0
  5 22  1  0  0  0  0
  6  1  1  0  0  0  0
  7  5  1  0  0  0  0
  8 13  1  6  0  0  0
 10  3  2  0  0  0  0
 11  3  1  0  0  0  0
 11  7  1  0  0  0  0
 12 11  2  0  0  0  0
 13 14  1  0  0  0  0
 15 13  1  0  0  0  0
 16 18  1  0  0  0  0
 16 15  1  0  0  0  0
 18 17  1  6  0  0  0
 19 20  1  6  0  0  0
 19 21  1  0  0  0  0
 19 18  1  0  0  0  0
 22 23  1  0  0  0  0
 23 24  1  0  0  0  0
 24 25  1  0  0  0  0
 26 23  1  0  0  0  0
 27 26  1  0  0  0  0
 27 28  1  0  0  0  0
 28 29  1  0  0  0  0
 29 31  1  0  0  0  0
 30 31  1  0  0  0  0
M  END
>  <MODEL>
3

>  <REMARK>
 VINA RESULT:      -5.3      3.271      7.376
  Name = 
  13 active torsions:
  status: ('A' for Active; 'I' for Inactive)
    1  A    between atoms: C_1  and  C_11
    2  A    between atoms: C_1  and  C_24
    3  A    between atoms: C_3  and  N_9
    4  A    between atoms: N_5  and  C_10
    5  A    between atoms: N_5  and  C_21
    6  A    between atoms: C_6  and  N_9
    7  A    between atoms: C_6  and  C_19
    8  A    between atoms: C_7  and  N_9
    9  A    between atoms: C_7  and  C_15
   10  A    between atoms: C_10  and  C_18
   11  A    between atoms: C_17  and  C_31
   12  A    between atoms: C_18  and  C_31
   13  A    between atoms: C_19  and  C_24
                            x       y       z     vdW  Elec       q    Type
                         _______ _______ _______ _____ _____    ______ ____

>  <TORSDO>
F 13

$$$$
=
 OpenBabel11052422463D

 31 32  0  0  1  0  0  0  0  0999 V2000
  155.8740  212.9810  156.0550 C   0  0  0  0  0  0  0  0  0  0  0  0
  159.5300  213.1180  155.0370 C   0  0  0  0  0  2  0  0  0  0  0  0
  158.1730  212.5870  155.4090 C   0  0  0  0  0  0  0  0  0  0  0  0
  155.6540  211.6010  156.1210 C   0  0  0  0  0  3  0  0  0  0  0  0
  160.3420  210.7630  155.0290 C   0  0  1  0  0  0  0  0  0  0  0  0
  154.7660  213.9250  156.3570 C   0  0  0  0  0  1  0  0  0  0  0  0
  158.9970  210.3080  155.1970 O   0  0  0  0  0  0  0  0  0  0  0  0
  160.3330  212.0870  154.2070 C   0  0  1  0  0  3  0  0  0  0  0  0
  160.8780  211.0170  156.2960 O   0  0  0  0  0  1  0  0  0  0  0  0
  157.1310  213.4740  155.6990 C   0  0  0  0  0  3  0  0  0  0  0  0
  157.9560  211.1980  155.4900 C   0  0  0  0  0  0  0  0  0  0  0  0
  156.6950  210.7110  155.8380 C   0  0  0  0  0  3  0  0  0  0  0  0
  159.7280  211.9090  152.8630 N   0  0  0  0  0  0  0  0  0  0  0  0
  160.7050  211.3570  151.9330 C   0  0  0  0  0  1  0  0  0  0  0  0
  159.2290  213.1690  152.2820 C   0  0  0  0  0  2  0  0  0  0  0  0
  159.8780  213.5380  150.9400 C   0  0  0  0  0  2  0  0  0  0  0  0
  157.6950  213.2050  150.0750 O   0  0  0  0  0  1  0  0  0  0  0  0
  158.8430  213.9840  149.9140 C   0  0  2  0  0  3  0  0  0  0  0  0
  159.3770  213.8340  148.4870 C   0  0  1  0  0  3  0  0  0  0  0  0
  160.7790  213.2520  148.5030 C   0  0  0  0  0  1  0  0  0  0  0  0
  158.5490  212.9890  147.7450 O   0  0  0  0  0  1  0  0  0  0  0  0
  161.1650  209.6470  154.3770 C   0  0  0  0  0  2  0  0  0  0  0  0
  160.5260  208.3400  154.5370 N   0  0  0  0  0  0  0  0  0  0  0  0
  161.0630  207.6640  155.7250 C   0  0  0  0  0  2  0  0  0  0  0  0
  160.0000  207.3320  156.7730 C   0  0  0  0  0  1  0  0  0  0  0  0
  160.8230  207.5300  153.3580 C   0  0  0  0  0  2  0  0  0  0  0  0
  161.2390  206.1280  153.7690 C   0  0  0  0  0  2  0  0  0  0  0  0
  161.3100  205.2150  152.5570 C   0  0  0  0  0  2  0  0  0  0  0  0
  161.4090  206.0370  151.2840 C   0  0  0  0  0  2  0  0  0  0  0  0
  160.8540  203.8370  150.2950 C   0  0  0  0  0  1  0  0  0  0  0  0
  160.6840  205.3350  150.1500 C   0  0  0  0  0  2  0  0  0  0  0  0
  1  4  1  0  0  0  0
  1  6  1  0  0  0  0
  2  3  1  0  0  0  0
  3 11  2  0  0  0  0
  3 10  1  0  0  0  0
  5  7  1  0  0  0  0
  5  9  1  1  0  0  0
  7 11  1  0  0  0  0
  8 13  1  6  0  0  0
  8  5  1  0  0  0  0
  8  2  1  0  0  0  0
 10  1  2  0  0  0  0
 11 12  1  0  0  0  0
 12  4  2  0  0  0  0
 14 13  1  0  0  0  0
 15 13  1  0  0  0  0
 16 15  1  0  0  0  0
 18 17  1  6  0  0  0
 18 16  1  0  0  0  0
 19 20  1  1  0  0  0
 19 18  1  0  0  0  0
 21 19  1  0  0  0  0
 22 23  1  0  0  0  0
 22  5  1  0  0  0  0
 23 24  1  0  0  0  0
 24 25  1  0  0  0  0
 26 27  1  0  0  0  0
 26 23  1  0  0  0  0
 28 27  1  0  0  0  0
 29 28  1  0  0  0  0
 31 30  1  0  0  0  0
 31 29  1  0  0  0  0
M  END
>  <MODEL>
4

>  <REMARK>
 VINA RESULT:      -5.0      5.010      7.924
  Name = 
  13 active torsions:
  status: ('A' for Active; 'I' for Inactive)
    1  A    between atoms: C_1  and  C_11
    2  A    between atoms: C_1  and  C_24
    3  A    between atoms: C_3  and  N_9
    4  A    between atoms: N_5  and  C_10
    5  A    between atoms: N_5  and  C_21
    6  A    between atoms: C_6  and  N_9
    7  A    between atoms: C_6  and  C_19
    8  A    between atoms: C_7  and  N_9
    9  A    between atoms: C_7  and  C_15
   10  A    between atoms: C_10  and  C_18
   11  A    between atoms: C_17  and  C_31
   12  A    between atoms: C_18  and  C_31
   13  A    between atoms: C_19  and  C_24
                            x       y       z     vdW  Elec       q    Type
                         _______ _______ _______ _____ _____    ______ ____

>  <TORSDO>
F 13

$$$$
=
 OpenBabel11052422463D

 31 32  0  0  1  0  0  0  0  0999 V2000
  162.2140  205.7510  147.0800 C   0  0  0  0  0  0  0  0  0  0  0  0
  163.1710  206.8110  150.5990 C   0  0  0  0  0  2  0  0  0  0  0  0
  162.4170  206.6850  149.3040 C   0  0  0  0  0  0  0  0  0  0  0  0
  161.0260  206.4640  146.8860 C   0  0  0  0  0  3  0  0  0  0  0  0
  161.5090  208.5360  151.2850 C   0  0  1  0  0  0  0  0  0  0  0  0
  162.7350  204.8700  146.0020 C   0  0  0  0  0  1  0  0  0  0  0  0
  160.7330  208.2370  150.1230 O   0  0  0  0  0  0  0  0  0  0  0  0
  162.2370  207.2410  151.7570 C   0  0  1  0  0  3  0  0  0  0  0  0
  162.4660  209.4950  150.9360 O   0  0  0  0  0  1  0  0  0  0  0  0
  162.9090  205.8610  148.2860 C   0  0  0  0  0  3  0  0  0  0  0  0
  161.2290  207.4140  149.1040 C   0  0  0  0  0  0  0  0  0  0  0  0
  160.5340  207.2940  147.8990 C   0  0  0  0  0  3  0  0  0  0  0  0
  161.2860  206.1530  152.0970 N   0  0  0  0  0  0  0  0  0  0  0  0
  161.1890  205.9930  153.5420 C   0  0  0  0  0  1  0  0  0  0  0  0
  161.6750  204.8470  151.5330 C   0  0  0  0  0  2  0  0  0  0  0  0
  160.5380  204.1210  150.8000 C   0  0  0  0  0  2  0  0  0  0  0  0
  161.7980  202.3020  151.6530 O   0  0  0  0  0  1  0  0  0  0  0  0
  160.5910  202.6140  151.0250 C   0  0  2  0  0  3  0  0  0  0  0  0
  160.4800  201.8510  149.7030 C   0  0  1  0  0  3  0  0  0  0  0  0
  160.9790  202.7080  148.5520 C   0  0  0  0  0  1  0  0  0  0  0  0
  161.2390  200.6810  149.7520 O   0  0  0  0  0  1  0  0  0  0  0  0
  160.5920  209.1410  152.3520 C   0  0  0  0  0  2  0  0  0  0  0  0
  161.1640  210.3570  152.9330 N   0  0  0  0  0  0  0  0  0  0  0  0
  161.6420  210.0820  154.2930 C   0  0  0  0  0  2  0  0  0  0  0  0
  160.7340  209.1380  155.0830 C   0  0  0  0  0  1  0  0  0  0  0  0
  160.1210  211.3780  152.9960 C   0  0  0  0  0  2  0  0  0  0  0  0
  159.7710  211.8630  151.6000 C   0  0  0  0  0  2  0  0  0  0  0  0
  159.8460  213.3790  151.5270 C   0  0  0  0  0  2  0  0  0  0  0  0
  159.5480  213.8530  150.1160 C   0  0  0  0  0  2  0  0  0  0  0  0
  161.5190  214.4530  148.7440 C   0  0  0  0  0  1  0  0  0  0  0  0
  160.5950  213.3240  149.1530 C   0  0  0  0  0  2  0  0  0  0  0  0
  1 10  1  0  0  0  0
  2  8  1  0  0  0  0
  3  2  1  0  0  0  0
  4  1  2  0  0  0  0
  4 12  1  0  0  0  0
  5  9  1  6  0  0  0
  5  8  1  0  0  0  0
  5 22  1  0  0  0  0
  6  1  1  0  0  0  0
  7  5  1  0  0  0  0
  8 13  1  6  0  0  0
 10  3  2  0  0  0  0
 11  3  1  0  0  0  0
 11  7  1  0  0  0  0
 12 11  2  0  0  0  0
 13 14  1  0  0  0  0
 15 13  1  0  0  0  0
 16 18  1  0  0  0  0
 16 15  1  0  0  0  0
 18 17  1  6  0  0  0
 19 20  1  6  0  0  0
 19 21  1  0  0  0  0
 19 18  1  0  0  0  0
 22 23  1  0  0  0  0
 23 26  1  0  0  0  0
 23 24  1  0  0  0  0
 24 25  1  0  0  0  0
 27 26  1  0  0  0  0
 28 27  1  0  0  0  0
 29 28  1  0  0  0  0
 30 31  1  0  0  0  0
 31 29  1  0  0  0  0
M  END
>  <MODEL>
5

>  <REMARK>
 VINA RESULT:      -4.9      2.432      7.397
  Name = 
  13 active torsions:
  status: ('A' for Active; 'I' for Inactive)
    1  A    between atoms: C_1  and  C_11
    2  A    between atoms: C_1  and  C_24
    3  A    between atoms: C_3  and  N_9
    4  A    between atoms: N_5  and  C_10
    5  A    between atoms: N_5  and  C_21
    6  A    between atoms: C_6  and  N_9
    7  A    between atoms: C_6  and  C_19
    8  A    between atoms: C_7  and  N_9
    9  A    between atoms: C_7  and  C_15
   10  A    between atoms: C_10  and  C_18
   11  A    between atoms: C_17  and  C_31
   12  A    between atoms: C_18  and  C_31
   13  A    between atoms: C_19  and  C_24
                            x       y       z     vdW  Elec       q    Type
                         _______ _______ _______ _____ _____    ______ ____

>  <TORSDO>
F 13

$$$$
=
 OpenBabel11052422463D

 31 32  0  0  1  0  0  0  0  0999 V2000
  161.2320  210.1190  155.4520 C   0  0  0  0  0  0  0  0  0  0  0  0
  162.9070  210.2910  152.0480 C   0  0  0  0  0  2  0  0  0  0  0  0
  161.9650  209.9050  153.1550 C   0  0  0  0  0  0  0  0  0  0  0  0
  160.2270  209.1740  155.2210 C   0  0  0  0  0  3  0  0  0  0  0  0
  161.8070  208.5560  150.6390 C   0  0  1  0  0  0  0  0  0  0  0  0
  161.3740  210.7400  156.7950 C   0  0  0  0  0  1  0  0  0  0  0  0
  160.8230  208.3650  151.6580 O   0  0  0  0  0  0  0  0  0  0  0  0
  162.2760  210.0420  150.6560 C   0  0  1  0  0  3  0  0  0  0  0  0
  162.8990  207.7300  150.9270 O   0  0  0  0  0  1  0  0  0  0  0  0
  162.1010  210.4850  154.4210 C   0  0  0  0  0  3  0  0  0  0  0  0
  160.9630  208.9440  152.9260 C   0  0  0  0  0  0  0  0  0  0  0  0
  160.0920  208.5880  153.9580 C   0  0  0  0  0  3  0  0  0  0  0  0
  161.1580  210.9860  150.4080 N   0  0  0  0  0  0  0  0  0  0  0  0
  161.4840  211.8860  149.3100 C   0  0  0  0  0  1  0  0  0  0  0  0
  160.8350  211.8200  151.5810 C   0  0  0  0  0  2  0  0  0  0  0  0
  159.8840  212.9860  151.2750 C   0  0  0  0  0  2  0  0  0  0  0  0
  157.5740  213.4260  150.9680 O   0  0  0  0  0  1  0  0  0  0  0  0
  158.4680  212.7050  151.7620 C   0  0  2  0  0  3  0  0  0  0  0  0
  158.2970  213.1030  153.2310 C   0  0  1  0  0  3  0  0  0  0  0  0
  157.0500  212.4620  153.8140 C   0  0  0  0  0  1  0  0  0  0  0  0
  159.4030  212.6930  153.9760 O   0  0  0  0  0  1  0  0  0  0  0  0
  161.2190  208.1180  149.2940 C   0  0  0  0  0  2  0  0  0  0  0  0
  161.7270  206.8090  148.8800 N   0  0  0  0  0  0  0  0  0  0  0  0
  162.1410  206.8570  147.4730 C   0  0  0  0  0  2  0  0  0  0  0  0
  161.1390  206.2070  146.5170 C   0  0  0  0  0  1  0  0  0  0  0  0
  160.6550  205.8270  149.0250 C   0  0  0  0  0  2  0  0  0  0  0  0
  161.1440  204.6200  149.8070 C   0  0  0  0  0  2  0  0  0  0  0  0
  161.0460  203.3610  148.9630 C   0  0  0  0  0  2  0  0  0  0  0  0
  160.2420  202.3000  149.6920 C   0  0  0  0  0  2  0  0  0  0  0  0
  161.2560  200.5310  148.2890 C   0  0  0  0  0  1  0  0  0  0  0  0
  161.0030  200.9870  149.7110 C   0  0  0  0  0  2  0  0  0  0  0  0
  1  6  1  0  0  0  0
  2  3  1  0  0  0  0
  3 10  1  0  0  0  0
  4  1  1  0  0  0  0
  5  8  1  0  0  0  0
  5  9  1  1  0  0  0
  5  7  1  0  0  0  0
  7 11  1  0  0  0  0
  8 13  1  1  0  0  0
  8  2  1  0  0  0  0
 10  1  2  0  0  0  0
 11  3  2  0  0  0  0
 11 12  1  0  0  0  0
 12  4  2  0  0  0  0
 13 15  1  0  0  0  0
 14 13  1  0  0  0  0
 16 15  1  0  0  0  0
 16 18  1  0  0  0  0
 18 17  1  6  0  0  0
 18 19  1  0  0  0  0
 19 20  1  1  0  0  0
 19 21  1  0  0  0  0
 22  5  1  0  0  0  0
 23 26  1  0  0  0  0
 23 22  1  0  0  0  0
 24 23  1  0  0  0  0
 25 24  1  0  0  0  0
 26 27  1  0  0  0  0
 28 29  1  0  0  0  0
 28 27  1  0  0  0  0
 29 31  1  0  0  0  0
 30 31  1  0  0  0  0
M  END
>  <MODEL>
6

>  <REMARK>
 VINA RESULT:      -4.4      3.219      6.314
  Name = 
  13 active torsions:
  status: ('A' for Active; 'I' for Inactive)
    1  A    between atoms: C_1  and  C_11
    2  A    between atoms: C_1  and  C_24
    3  A    between atoms: C_3  and  N_9
    4  A    between atoms: N_5  and  C_10
    5  A    between atoms: N_5  and  C_21
    6  A    between atoms: C_6  and  N_9
    7  A    between atoms: C_6  and  C_19
    8  A    between atoms: C_7  and  N_9
    9  A    between atoms: C_7  and  C_15
   10  A    between atoms: C_10  and  C_18
   11  A    between atoms: C_17  and  C_31
   12  A    between atoms: C_18  and  C_31
   13  A    between atoms: C_19  and  C_24
                            x       y       z     vdW  Elec       q    Type
                         _______ _______ _______ _____ _____    ______ ____

>  <TORSDO>
F 13

$$$$
=
 OpenBabel11052422463D

 31 32  0  0  1  0  0  0  0  0999 V2000
  161.4120  205.4910  144.8430 C   0  0  0  0  0  0  0  0  0  0  0  0
  160.1520  206.7510  148.1970 C   0  0  0  0  0  2  0  0  0  0  0  0
  160.8850  205.9430  147.1620 C   0  0  0  0  0  0  0  0  0  0  0  0
  162.2330  204.4290  145.2340 C   0  0  0  0  0  3  0  0  0  0  0  0
  161.0300  205.1710  149.9110 C   0  0  1  0  0  0  0  0  0  0  0  0
  161.2590  205.8200  143.4010 C   0  0  0  0  0  1  0  0  0  0  0  0
  161.8520  204.5600  148.9140 O   0  0  0  0  0  0  0  0  0  0  0  0
  160.8590  206.6830  149.5730 C   0  0  1  0  0  3  0  0  0  0  0  0
  159.7760  204.5520  149.8830 O   0  0  0  0  0  1  0  0  0  0  0  0
  160.7380  206.2480  145.8050 C   0  0  0  0  0  3  0  0  0  0  0  0
  161.7010  204.8650  147.5550 C   0  0  0  0  0  0  0  0  0  0  0  0
  162.3780  204.1170  146.5900 C   0  0  0  0  0  3  0  0  0  0  0  0
  162.1580  207.4010  149.5320 N   0  0  0  0  0  0  0  0  0  0  0  0
  163.0810  206.8400  150.5090 C   0  0  0  0  0  1  0  0  0  0  0  0
  162.0320  208.8410  149.8210 C   0  0  0  0  0  2  0  0  0  0  0  0
  161.9680  209.1750  151.3180 C   0  0  0  0  0  2  0  0  0  0  0  0
  161.2030  211.3220  150.6630 O   0  0  0  0  0  1  0  0  0  0  0  0
  160.9930  210.3110  151.6040 C   0  0  2  0  0  3  0  0  0  0  0  0
  161.1890  210.8670  153.0170 C   0  0  1  0  0  3  0  0  0  0  0  0
  159.8470  211.1680  153.6600 C   0  0  0  0  0  1  0  0  0  0  0  0
  161.8710  209.9440  153.8120 O   0  0  0  0  0  1  0  0  0  0  0  0
  161.6550  204.9230  151.2880 C   0  0  0  0  0  2  0  0  0  0  0  0
  160.6820  204.3730  152.2330 N   0  0  0  0  0  0  0  0  0  0  0  0
  160.8310  205.0270  153.5390 C   0  0  0  0  0  2  0  0  0  0  0  0
  160.8780  206.5530  153.4580 C   0  0  0  0  0  1  0  0  0  0  0  0
  160.9410  202.9430  152.3880 C   0  0  0  0  0  2  0  0  0  0  0  0
  161.6430  202.3960  151.1570 C   0  0  0  0  0  2  0  0  0  0  0  0
  160.8250  201.2830  150.5260 C   0  0  0  0  0  2  0  0  0  0  0  0
  160.6790  201.5180  149.0330 C   0  0  0  0  0  2  0  0  0  0  0  0
  161.1970  200.5890  146.7990 C   0  0  0  0  0  1  0  0  0  0  0  0
  161.5860  200.5770  148.2630 C   0  0  0  0  0  2  0  0  0  0  0  0
  1  4  2  0  0  0  0
  1 10  1  0  0  0  0
  2  8  1  0  0  0  0
  3 11  1  0  0  0  0
  3  2  1  0  0  0  0
  4 12  1  0  0  0  0
  5  9  1  6  0  0  0
  5 22  1  0  0  0  0
  6  1  1  0  0  0  0
  7  5  1  0  0  0  0
  8 13  1  6  0  0  0
  8  5  1  0  0  0  0
 10  3  2  0  0  0  0
 11  7  1  0  0  0  0
 12 11  2  0  0  0  0
 13 15  1  0  0  0  0
 13 14  1  0  0  0  0
 15 16  1  0  0  0  0
 16 18  1  0  0  0  0
 18 17  1  6  0  0  0
 18 19  1  0  0  0  0
 19 20  1  1  0  0  0
 19 21  1  0  0  0  0
 22 23  1  0  0  0  0
 23 26  1  0  0  0  0
 23 24  1  0  0  0  0
 25 24  1  0  0  0  0
 27 26  1  0  0  0  0
 28 27  1  0  0  0  0
 29 28  1  0  0  0  0
 30 31  1  0  0  0  0
 31 29  1  0  0  0  0
M  END
>  <MODEL>
7

>  <REMARK>
 VINA RESULT:      -4.4      1.826      2.312
  Name = 
  13 active torsions:
  status: ('A' for Active; 'I' for Inactive)
    1  A    between atoms: C_1  and  C_11
    2  A    between atoms: C_1  and  C_24
    3  A    between atoms: C_3  and  N_9
    4  A    between atoms: N_5  and  C_10
    5  A    between atoms: N_5  and  C_21
    6  A    between atoms: C_6  and  N_9
    7  A    between atoms: C_6  and  C_19
    8  A    between atoms: C_7  and  N_9
    9  A    between atoms: C_7  and  C_15
   10  A    between atoms: C_10  and  C_18
   11  A    between atoms: C_17  and  C_31
   12  A    between atoms: C_18  and  C_31
   13  A    between atoms: C_19  and  C_24
                            x       y       z     vdW  Elec       q    Type
                         _______ _______ _______ _____ _____    ______ ____

>  <TORSDO>
F 13

$$$$
=
 OpenBabel11052422463D

 31 32  0  0  1  0  0  0  0  0999 V2000
  159.9920  211.4710  154.6440 C   0  0  0  0  0  0  0  0  0  0  0  0
  162.6870  209.9470  152.4450 C   0  0  0  0  0  2  0  0  0  0  0  0
  161.3940  210.1400  153.1870 C   0  0  0  0  0  0  0  0  0  0  0  0
  158.9970  210.4900  154.5870 C   0  0  0  0  0  3  0  0  0  0  0  0
  161.8780  207.6760  151.8190 C   0  0  1  0  0  0  0  0  0  0  0  0
  159.7740  212.7040  155.4450 C   0  0  0  0  0  1  0  0  0  0  0  0
  160.6000  207.9870  152.3800 O   0  0  0  0  0  0  0  0  0  0  0  0
  162.5140  208.9790  151.2490 C   0  0  1  0  0  3  0  0  0  0  0  0
  162.6940  207.1800  152.8420 O   0  0  0  0  0  1  0  0  0  0  0  0
  161.1900  211.2970  153.9460 C   0  0  0  0  0  3  0  0  0  0  0  0
  160.3990  209.1450  153.1410 C   0  0  0  0  0  0  0  0  0  0  0  0
  159.2000  209.3280  153.8350 C   0  0  0  0  0  3  0  0  0  0  0  0
  161.6760  209.5960  150.1890 N   0  0  0  0  0  0  0  0  0  0  0  0
  161.8880  208.9230  148.9150 C   0  0  0  0  0  1  0  0  0  0  0  0
  161.9620  211.0280  149.9860 C   0  0  0  0  0  2  0  0  0  0  0  0
  162.3500  211.3890  148.5450 C   0  0  0  0  0  2  0  0  0  0  0  0
  161.0150  213.2450  149.1730 O   0  0  0  0  0  1  0  0  0  0  0  0
  161.8310  212.7650  148.1460 C   0  0  2  0  0  3  0  0  0  0  0  0
  161.0390  212.7020  146.8380 C   0  0  1  0  0  3  0  0  0  0  0  0
  159.7690  213.5280  146.9460 C   0  0  0  0  0  1  0  0  0  0  0  0
  161.8060  213.1950  145.7820 O   0  0  0  0  0  1  0  0  0  0  0  0
  161.7030  206.5730  150.7700 C   0  0  0  0  0  2  0  0  0  0  0  0
  160.8260  205.5040  151.2490 N   0  0  0  0  0  0  0  0  0  0  0  0
  161.5910  204.5660  152.0800 C   0  0  0  0  0  2  0  0  0  0  0  0
  161.2410  203.0990  151.8280 C   0  0  0  0  0  1  0  0  0  0  0  0
  160.2940  204.7860  150.0930 C   0  0  0  0  0  2  0  0  0  0  0  0
  160.9090  205.3190  148.8100 C   0  0  0  0  0  2  0  0  0  0  0  0
  161.3170  204.1740  147.8990 C   0  0  0  0  0  2  0  0  0  0  0  0
  160.9670  202.8420  148.5370 C   0  0  0  0  0  2  0  0  0  0  0  0
  160.8840  202.3520  146.1130 C   0  0  0  0  0  1  0  0  0  0  0  0
  160.9880  201.7400  147.4950 C   0  0  0  0  0  2  0  0  0  0  0  0
  1  6  1  0  0  0  0
  2  3  1  0  0  0  0
  3 10  1  0  0  0  0
  4  1  1  0  0  0  0
  5  7  1  0  0  0  0
  5  9  1  1  0  0  0
  7 11  1  0  0  0  0
  8 13  1  6  0  0  0
  8  5  1  0  0  0  0
  8  2  1  0  0  0  0
 10  1  2  0  0  0  0
 11  3  2  0  0  0  0
 11 12  1  0  0  0  0
 12  4  2  0  0  0  0
 14 13  1  0  0  0  0
 15 13  1  0  0  0  0
 16 15  1  0  0  0  0
 18 16  1  0  0  0  0
 18 17  1  1  0  0  0
 19 20  1  1  0  0  0
 19 18  1  0  0  0  0
 21 19  1  0  0  0  0
 22 23  1  0  0  0  0
 22  5  1  0  0  0  0
 23 24  1  0  0  0  0
 25 24  1  0  0  0  0
 26 23  1  0  0  0  0
 27 26  1  0  0  0  0
 28 29  1  0  0  0  0
 28 27  1  0  0  0  0
 30 31  1  0  0  0  0
 31 29  1  0  0  0  0
M  END
>  <MODEL>
8

>  <REMARK>
 VINA RESULT:      -4.3      2.622      5.540
  Name = 
  13 active torsions:
  status: ('A' for Active; 'I' for Inactive)
    1  A    between atoms: C_1  and  C_11
    2  A    between atoms: C_1  and  C_24
    3  A    between atoms: C_3  and  N_9
    4  A    between atoms: N_5  and  C_10
    5  A    between atoms: N_5  and  C_21
    6  A    between atoms: C_6  and  N_9
    7  A    between atoms: C_6  and  C_19
    8  A    between atoms: C_7  and  N_9
    9  A    between atoms: C_7  and  C_15
   10  A    between atoms: C_10  and  C_18
   11  A    between atoms: C_17  and  C_31
   12  A    between atoms: C_18  and  C_31
   13  A    between atoms: C_19  and  C_24
                            x       y       z     vdW  Elec       q    Type
                         _______ _______ _______ _____ _____    ______ ____

>  <TORSDO>
F 13

$$$$
=
 OpenBabel11052422463D

 31 32  0  0  1  0  0  0  0  0999 V2000
  160.8190  202.5260  150.3450 C   0  0  0  0  0  0  0  0  0  0  0  0
  159.9030  206.1880  149.9260 C   0  0  0  0  0  2  0  0  0  0  0  0
  160.6170  204.9380  150.3620 C   0  0  0  0  0  0  0  0  0  0  0  0
  161.9310  202.6110  151.1900 C   0  0  0  0  0  3  0  0  0  0  0  0
  161.4300  207.4660  151.4230 C   0  0  1  0  0  0  0  0  0  0  0  0
  160.3380  201.1980  149.8820 C   0  0  0  0  0  1  0  0  0  0  0  0
  162.1870  206.2750  151.6540 O   0  0  0  0  0  0  0  0  0  0  0  0
  160.8380  207.4210  149.9820 C   0  0  1  0  0  3  0  0  0  0  0  0
  160.3800  207.5020  152.3470 O   0  0  0  0  0  1  0  0  0  0  0  0
  160.1620  203.6870  149.9320 C   0  0  0  0  0  3  0  0  0  0  0  0
  161.7270  205.0230  151.2240 C   0  0  0  0  0  0  0  0  0  0  0  0
  162.3850  203.8590  151.6280 C   0  0  0  0  0  3  0  0  0  0  0  0
  161.8940  207.3290  148.9430 N   0  0  0  0  0  0  0  0  0  0  0  0
  162.4940  208.6360  148.7080 C   0  0  0  0  0  1  0  0  0  0  0  0
  161.3900  206.8350  147.6480 C   0  0  0  0  0  2  0  0  0  0  0  0
  162.2590  205.7380  147.0180 C   0  0  0  0  0  2  0  0  0  0  0  0
  160.6930  206.1620  145.2890 O   0  0  0  0  0  1  0  0  0  0  0  0
  161.8810  205.4810  145.5640 C   0  0  2  0  0  3  0  0  0  0  0  0
  161.6970  203.9850  145.2950 C   0  0  1  0  0  3  0  0  0  0  0  0
  161.5500  203.2250  146.6000 C   0  0  0  0  0  1  0  0  0  0  0  0
  160.5580  203.7680  144.5180 O   0  0  0  0  0  1  0  0  0  0  0  0
  162.3300  208.6800  151.6750 C   0  0  0  0  0  2  0  0  0  0  0  0
  161.6990  209.6440  152.5770 N   0  0  0  0  0  0  0  0  0  0  0  0
  161.0500  208.9380  153.6880 C   0  0  0  0  0  2  0  0  0  0  0  0
  161.5890  209.3330  155.0630 C   0  0  0  0  0  1  0  0  0  0  0  0
  160.6850  210.3850  151.8300 C   0  0  0  0  0  2  0  0  0  0  0  0
  159.5700  210.8370  152.7580 C   0  0  0  0  0  2  0  0  0  0  0  0
  159.8370  212.2420  153.2680 C   0  0  0  0  0  2  0  0  0  0  0  0
  159.4440  212.3550  154.7310 C   0  0  0  0  0  2  0  0  0  0  0  0
  157.0970  211.6480  155.0730 C   0  0  0  0  0  1  0  0  0  0  0  0
  158.0110  212.8360  154.8530 C   0  0  0  0  0  2  0  0  0  0  0  0
  1  4  1  0  0  0  0
  2  8  1  0  0  0  0
  2  3  1  0  0  0  0
  3 11  2  0  0  0  0
  4 12  2  0  0  0  0
  5  7  1  0  0  0  0
  5 22  1  0  0  0  0
  5  9  1  1  0  0  0
  6  1  1  0  0  0  0
  8 13  1  6  0  0  0
  8  5  1  0  0  0  0
 10  1  2  0  0  0  0
 10  3  1  0  0  0  0
 11 12  1  0  0  0  0
 11  7  1  0  0  0  0
 14 13  1  0  0  0  0
 15 13  1  0  0  0  0
 16 15  1  0  0  0  0
 18 17  1  1  0  0  0
 18 16  1  0  0  0  0
 19 18  1  0  0  0  0
 19 20  1  1  0  0  0
 21 19  1  0  0  0  0
 22 23  1  0  0  0  0
 23 24  1  0  0  0  0
 24 25  1  0  0  0  0
 26 23  1  0  0  0  0
 26 27  1  0  0  0  0
 27 28  1  0  0  0  0
 28 29  1  0  0  0  0
 29 31  1  0  0  0  0
 31 30  1  0  0  0  0
M  END
>  <MODEL>
9

>  <REMARK>
 VINA RESULT:      -4.2      3.048      6.917
  Name = 
  13 active torsions:
  status: ('A' for Active; 'I' for Inactive)
    1  A    between atoms: C_1  and  C_11
    2  A    between atoms: C_1  and  C_24
    3  A    between atoms: C_3  and  N_9
    4  A    between atoms: N_5  and  C_10
    5  A    between atoms: N_5  and  C_21
    6  A    between atoms: C_6  and  N_9
    7  A    between atoms: C_6  and  C_19
    8  A    between atoms: C_7  and  N_9
    9  A    between atoms: C_7  and  C_15
   10  A    between atoms: C_10  and  C_18
   11  A    between atoms: C_17  and  C_31
   12  A    between atoms: C_18  and  C_31
   13  A    between atoms: C_19  and  C_24
                            x       y       z     vdW  Elec       q    Type
                         _______ _______ _______ _____ _____    ______ ____

>  <TORSDO>
F 13

$$$$
