=
 OpenBabel11062408583D

 55 58  0  0  1  0  0  0  0  0999 V2000
  159.9800  206.3110  153.5350 C   0  0  0  0  0  2  0  0  0  0  0  0
  162.3740  204.4860  151.6290 C   0  0  0  0  0  1  0  0  0  0  0  0
  160.5210  210.2440  155.1600 C   0  0  2  0  0  3  0  0  0  0  0  0
  163.7370  211.0670  152.7570 O   0  0  0  0  0  1  0  0  0  0  0  0
  162.8630  210.1990  155.6250 O   0  0  0  0  0  1  0  0  0  0  0  0
  162.6620  210.2400  152.4160 C   0  0  2  0  0  0  0  0  0  0  0  0
  162.1830  209.5320  153.5440 O   0  0  0  0  0  0  0  0  0  0  0  0
  162.8450  206.9070  151.5050 C   0  0  0  0  0  2  0  0  0  0  0  0
  159.7630  208.5330  156.6420 F   0  0  0  0  0  0  0  0  0  0  0  0
  161.9340  210.4210  154.6080 C   0  0  1  0  0  3  0  0  0  0  0  0
  163.1650  209.2370  151.3830 C   0  0  0  0  0  2  0  0  0  0  0  0
  159.7570  207.8040  153.3480 C   0  0  0  0  0  2  0  0  0  0  0  0
  161.5570  211.0820  151.7870 C   0  0  0  0  0  1  0  0  0  0  0  0
  161.4540  205.9840  153.3590 C   0  0  0  0  0  2  0  0  0  0  0  0
  161.8050  205.8610  151.8850 C   0  0  2  0  0  3  0  0  0  0  0  0
  160.1460  208.7640  155.3350 C   0  0  1  0  0  3  0  0  0  0  0  0
  162.1960  208.1630  151.1460 N   0  0  0  0  0  0  0  0  0  0  0  0
  159.1210  208.3490  154.4690 O   0  0  0  0  0  0  0  0  0  0  0  0
  159.5170  211.0560  154.3420 C   0  0  0  0  0  2  0  0  0  0  0  0
  158.3620  212.7290  156.8470 C   0  0  1  0  0  3  0  0  0  0  0  0
  159.4630  212.5390  154.7460 C   0  0  2  0  0  0  0  0  0  0  0  0
  160.4650  212.7850  155.7120 O   0  0  0  0  0  0  0  0  0  0  0  0
  158.1760  211.4050  157.2460 O   0  0  0  0  0  1  0  0  0  0  0  0
  159.8270  213.0610  156.9390 C   0  0  0  0  0  2  0  0  0  0  0  0
  158.1100  212.8840  155.3740 C   0  0  1  0  0  3  0  0  0  0  0  0
  156.1400  212.9860  153.8230 C   0  0  0  0  0  1  0  0  0  0  0  0
  156.8810  212.1260  154.8360 C   0  0  2  0  0  3  0  0  0  0  0  0
  155.9800  211.7840  155.9300 N   0  0  0  0  0  2  0  0  0  0  0  0
  155.2240  209.6230  154.8180 C   0  0  0  0  0  1  0  0  0  0  0  0
  155.1850  210.5950  155.9480 C   0  0  0  0  0  0  0  0  0  0  0  0
  154.4530  210.3540  156.9420 O   0  0  0  0  0  0  0  0  0  0  0  0
  159.7110  213.4070  153.5040 C   0  0  0  0  0  2  0  0  0  0  0  0
  158.9280  212.9430  152.2830 C   0  0  0  0  0  2  0  0  0  0  0  0
  159.4170  213.6530  151.0340 C   0  0  0  0  0  2  0  0  0  0  0  0
  158.2900  213.7320  150.0280 C   0  0  0  0  0  1  0  0  0  0  0  0
  161.7980  208.0680  149.7300 C   0  0  1  0  0  3  0  0  0  0  0  0
  162.0440  210.1550  148.4840 C   0  0  0  0  0  3  0  0  0  0  0  0
  161.2700  209.3710  149.2270 C   0  0  0  0  0  3  0  0  0  0  0  0
  162.1470  212.6140  148.5550 C   0  0  0  0  0  3  0  0  0  0  0  0
  160.2400  212.8460  146.5260 C   0  0  0  0  0  0  0  0  0  0  0  0
  160.6490  211.5830  146.9630 C   0  0  0  0  0  3  0  0  0  0  0  0
  161.7390  213.8770  148.1160 C   0  0  0  0  0  3  0  0  0  0  0  0
  161.6090  211.4630  147.9800 C   0  0  0  0  0  0  0  0  0  0  0  0
  159.3190  212.9580  145.5370 F   0  0  0  0  0  0  0  0  0  0  0  0
  160.7860  213.9930  147.1010 C   0  0  0  0  0  3  0  0  0  0  0  0
  162.8630  207.4870  148.7980 C   0  0  0  0  0  2  0  0  0  0  0  0
  161.2720  206.9310  146.9470 C   0  0  0  0  0  3  0  0  0  0  0  0
  161.0830  204.6600  146.0890 C   0  0  0  0  0  0  0  0  0  0  0  0
  162.6520  205.1700  147.8750 C   0  0  0  0  0  3  0  0  0  0  0  0
  162.0700  204.2470  146.9980 C   0  0  0  0  0  3  0  0  0  0  0  0
  160.6890  206.0070  146.0710 C   0  0  0  0  0  3  0  0  0  0  0  0
  162.2570  206.5140  147.8470 C   0  0  0  0  0  0  0  0  0  0  0  0
  160.4590  203.6890  145.1730 C   0  0  0  0  0  0  0  0  0  0  0  0
  159.8000  204.0820  144.1760 O   0  0  0  0  0  0  0  0  0  0  0  0
  160.5990  202.3230  145.4010 O   0  0  0  0  0  1  0  0  0  0  0  0
  3 19  1  6  0  0  0
  3 16  1  0  0  0  0
  6 13  1  6  0  0  0
  6  4  1  0  0  0  0
  6  7  1  0  0  0  0
  7 10  1  0  0  0  0
  8 15  1  0  0  0  0
 10  3  1  0  0  0  0
 10  5  1  1  0  0  0
 11  6  1  0  0  0  0
 12  1  1  0  0  0  0
 12 18  1  0  0  0  0
 14  1  1  0  0  0  0
 15  2  1  1  0  0  0
 15 14  1  0  0  0  0
 16  9  1  1  0  0  0
 17 11  1  0  0  0  0
 17  8  1  0  0  0  0
 18 16  1  0  0  0  0
 19 21  1  0  0  0  0
 20 24  1  0  0  0  0
 20 23  1  6  0  0  0
 21 32  1  6  0  0  0
 21 25  1  0  0  0  0
 21 22  1  0  0  0  0
 22 24  1  0  0  0  0
 25 27  1  6  0  0  0
 25 20  1  0  0  0  0
 27 26  1  6  0  0  0
 27 28  1  0  0  0  0
 28 30  1  0  0  0  0
 29 30  1  0  0  0  0
 30 31  2  0  0  0  0
 33 32  1  0  0  0  0
 34 33  1  0  0  0  0
 35 34  1  0  0  0  0
 36 46  1  6  0  0  0
 36 17  1  0  0  0  0
 37 38  2  0  0  0  0
 38 36  1  0  0  0  0
 40 41  2  0  0  0  0
 40 45  1  0  0  0  0
 41 43  1  0  0  0  0
 42 39  1  0  0  0  0
 43 37  1  0  0  0  0
 43 39  2  0  0  0  0
 44 40  1  0  0  0  0
 45 42  2  0  0  0  0
 47 52  1  0  0  0  0
 48 50  2  0  0  0  0
 50 49  1  0  0  0  0
 51 48  1  0  0  0  0
 51 47  2  0  0  0  0
 52 49  2  0  0  0  0
 52 46  1  0  0  0  0
 53 55  1  0  0  0  0
 53 48  1  0  0  0  0
 54 53  2  0  0  0  0
M  END
>  <MODEL>
1

>  <REMARK>
 VINA RESULT:      -0.2      0.000      0.000
  Name = 
  13 active torsions:
  status: ('A' for Active; 'I' for Inactive)
    1  A    between atoms: C_2  and  C_44
    2  A    between atoms: C_6  and  C_8
    3  A    between atoms: C_6  and  C_46
    4  A    between atoms: C_7  and  C_8
    5  A    between atoms: C_10  and  C_32
    6  A    between atoms: N_11  and  C_38
    7  A    between atoms: C_12  and  C_14
    8  A    between atoms: C_14  and  C_46
    9  A    between atoms: C_28  and  C_49
   10  A    between atoms: C_33  and  C_49
   11  A    between atoms: C_33  and  C_52
   12  A    between atoms: C_38  and  C_53
   13  A    between atoms: N_45  and  C_49
                            x       y       z     vdW  Elec       q    Type
                         _______ _______ _______ _____ _____    ______ ____

>  <TORSDO>
F 13

$$$$
=
 OpenBabel11062408583D

 55 58  0  0  1  0  0  0  0  0999 V2000
  159.9250  206.9930  155.4320 C   0  0  0  0  0  2  0  0  0  0  0  0
  161.5960  204.1990  153.9840 C   0  0  0  0  0  1  0  0  0  0  0  0
  160.8640  211.1230  154.7500 C   0  0  2  0  0  3  0  0  0  0  0  0
  163.0670  210.3260  151.3870 O   0  0  0  0  0  1  0  0  0  0  0  0
  163.2260  210.9800  154.4350 O   0  0  0  0  0  1  0  0  0  0  0  0
  161.9640  209.5870  151.8270 C   0  0  2  0  0  0  0  0  0  0  0  0
  161.9100  209.5390  153.2400 O   0  0  0  0  0  0  0  0  0  0  0  0
  161.9280  206.2130  152.5930 C   0  0  0  0  0  2  0  0  0  0  0  0
  160.6950  210.3900  157.0160 F   0  0  0  0  0  0  0  0  0  0  0  0
  162.0050  210.8380  153.7760 C   0  0  1  0  0  3  0  0  0  0  0  0
  162.1210  208.1660  151.2930 C   0  0  0  0  0  2  0  0  0  0  0  0
  159.6090  208.2530  154.6410 C   0  0  0  0  0  2  0  0  0  0  0  0
  160.6880  210.1900  151.2500 C   0  0  0  0  0  1  0  0  0  0  0  0
  161.2640  206.4270  154.9880 C   0  0  0  0  0  2  0  0  0  0  0  0
  161.1060  205.6030  153.7210 C   0  0  2  0  0  3  0  0  0  0  0  0
  160.6120  209.9480  155.7090 C   0  0  1  0  0  3  0  0  0  0  0  0
  161.1600  207.2430  151.9030 N   0  0  0  0  0  0  0  0  0  0  0  0
  159.3690  209.3270  155.5060 O   0  0  0  0  0  0  0  0  0  0  0  0
  159.6200  211.6000  154.0000 C   0  0  0  0  0  2  0  0  0  0  0  0
  158.0440  212.9630  156.4630 C   0  0  1  0  0  3  0  0  0  0  0  0
  159.1940  213.0290  154.3810 C   0  0  2  0  0  0  0  0  0  0  0  0
  160.0860  213.5260  155.3570 O   0  0  0  0  0  0  0  0  0  0  0  0
  158.1840  211.6390  156.8790 O   0  0  0  0  0  1  0  0  0  0  0  0
  159.3780  213.6480  156.5710 C   0  0  0  0  0  2  0  0  0  0  0  0
  157.7870  213.0340  154.9840 C   0  0  1  0  0  3  0  0  0  0  0  0
  155.7210  212.6730  153.6060 C   0  0  0  0  0  1  0  0  0  0  0  0
  156.7940  211.9900  154.4400 C   0  0  2  0  0  3  0  0  0  0  0  0
  156.1630  211.2710  155.5410 N   0  0  0  0  0  2  0  0  0  0  0  0
  154.6180  213.2140  156.1080 C   0  0  0  0  0  1  0  0  0  0  0  0
  155.1200  211.8300  156.3450 C   0  0  0  0  0  0  0  0  0  0  0  0
  154.6040  211.1360  157.2580 O   0  0  0  0  0  0  0  0  0  0  0  0
  159.2410  213.9170  153.1290 C   0  0  0  0  0  2  0  0  0  0  0  0
  159.6730  213.1660  151.8770 C   0  0  0  0  0  2  0  0  0  0  0  0
  160.0620  214.1370  150.7790 C   0  0  0  0  0  2  0  0  0  0  0  0
  158.8490  214.4530  149.9340 C   0  0  0  0  0  1  0  0  0  0  0  0
  160.3150  206.5700  150.9000 C   0  0  1  0  0  3  0  0  0  0  0  0
  160.3430  206.0660  148.5100 C   0  0  0  0  0  3  0  0  0  0  0  0
  161.0170  206.4580  149.5870 C   0  0  0  0  0  3  0  0  0  0  0  0
  160.2300  206.2340  146.0560 C   0  0  0  0  0  3  0  0  0  0  0  0
  162.8210  205.2250  145.7740 C   0  0  0  0  0  0  0  0  0  0  0  0
  162.2690  205.3920  147.0470 C   0  0  0  0  0  3  0  0  0  0  0  0
  160.7840  206.0690  144.7840 C   0  0  0  0  0  3  0  0  0  0  0  0
  160.9690  205.9010  147.1920 C   0  0  0  0  0  0  0  0  0  0  0  0
  164.0800  204.7420  145.6370 F   0  0  0  0  0  0  0  0  0  0  0  0
  162.0800  205.5650  144.6430 C   0  0  0  0  0  3  0  0  0  0  0  0
  159.7240  205.2320  151.3470 C   0  0  0  0  0  2  0  0  0  0  0  0
  159.1520  203.3480  149.8010 C   0  0  0  0  0  3  0  0  0  0  0  0
  160.8920  202.0520  148.6970 C   0  0  0  0  0  0  0  0  0  0  0  0
  161.4820  203.8870  150.1790 C   0  0  0  0  0  3  0  0  0  0  0  0
  161.8650  202.8490  149.3200 C   0  0  0  0  0  3  0  0  0  0  0  0
  159.5350  202.3080  148.9440 C   0  0  0  0  0  3  0  0  0  0  0  0
  160.1250  204.1410  150.4160 C   0  0  0  0  0  0  0  0  0  0  0  0
  161.2920  200.9500  147.8040 C   0  0  0  0  0  0  0  0  0  0  0  0
  161.0030  200.9820  146.5790 O   0  0  0  0  0  0  0  0  0  0  0  0
  162.0010  199.8630  148.3070 O   0  0  0  0  0  1  0  0  0  0  0  0
  3 19  1  6  0  0  0
  3 16  1  0  0  0  0
  4  6  1  0  0  0  0
  6 13  1  6  0  0  0
  6  7  1  0  0  0  0
  7 10  1  0  0  0  0
  8 15  1  0  0  0  0
 10  5  1  1  0  0  0
 10  3  1  0  0  0  0
 11  6  1  0  0  0  0
 11 17  1  0  0  0  0
 12  1  1  0  0  0  0
 12 18  1  0  0  0  0
 14  1  1  0  0  0  0
 15  2  1  1  0  0  0
 15 14  1  0  0  0  0
 16  9  1  1  0  0  0
 17  8  1  0  0  0  0
 18 16  1  0  0  0  0
 19 21  1  0  0  0  0
 20 24  1  0  0  0  0
 20 23  1  6  0  0  0
 21 32  1  6  0  0  0
 21 25  1  0  0  0  0
 21 22  1  0  0  0  0
 22 24  1  0  0  0  0
 25 27  1  6  0  0  0
 25 20  1  0  0  0  0
 27 26  1  1  0  0  0
 27 28  1  0  0  0  0
 28 30  1  0  0  0  0
 29 30  1  0  0  0  0
 30 31  2  0  0  0  0
 33 32  1  0  0  0  0
 34 33  1  0  0  0  0
 35 34  1  0  0  0  0
 36 38  1  6  0  0  0
 36 46  1  0  0  0  0
 36 17  1  0  0  0  0
 37 38  2  0  0  0  0
 39 43  1  0  0  0  0
 40 41  1  0  0  0  0
 41 43  2  0  0  0  0
 42 39  2  0  0  0  0
 43 37  1  0  0  0  0
 44 40  1  0  0  0  0
 45 42  1  0  0  0  0
 45 40  2  0  0  0  0
 47 52  1  0  0  0  0
 48 51  1  0  0  0  0
 48 50  2  0  0  0  0
 49 52  2  0  0  0  0
 50 49  1  0  0  0  0
 51 47  2  0  0  0  0
 52 46  1  0  0  0  0
 53 55  1  0  0  0  0
 53 48  1  0  0  0  0
 54 53  2  0  0  0  0
M  END
>  <MODEL>
2

>  <REMARK>
 VINA RESULT:       2.7      2.249      3.564
  Name = 
  13 active torsions:
  status: ('A' for Active; 'I' for Inactive)
    1  A    between atoms: C_2  and  C_44
    2  A    between atoms: C_6  and  C_8
    3  A    between atoms: C_6  and  C_46
    4  A    between atoms: C_7  and  C_8
    5  A    between atoms: C_10  and  C_32
    6  A    between atoms: N_11  and  C_38
    7  A    between atoms: C_12  and  C_14
    8  A    between atoms: C_14  and  C_46
    9  A    between atoms: C_28  and  C_49
   10  A    between atoms: C_33  and  C_49
   11  A    between atoms: C_33  and  C_52
   12  A    between atoms: C_38  and  C_53
   13  A    between atoms: N_45  and  C_49
                            x       y       z     vdW  Elec       q    Type
                         _______ _______ _______ _____ _____    ______ ____

>  <TORSDO>
F 13

$$$$
