=
 OpenBabel11052422563D

 28 32  0  0  1  0  0  0  0  0999 V2000
  161.3240  204.9270  148.6990 N   0  0  0  0  0  0  0  0  0  0  0  0
  161.0460  206.4760  153.6060 C   0  0  0  0  0  3  0  0  0  0  0  0
  162.3020  209.5880  148.6150 O   0  0  0  0  0  0  0  0  0  0  0  0
  161.1610  208.9620  153.3930 C   0  0  0  0  0  0  0  0  0  0  0  0
  161.2050  207.5260  151.3180 C   0  0  0  0  0  0  0  0  0  0  0  0
  161.0710  207.9310  155.5860 C   0  0  0  0  0  0  0  0  0  0  0  0
  160.7310  207.6670  152.7390 C   0  0  1  0  0  3  0  0  0  0  0  0
  161.7020  209.9040  151.2750 O   0  0  0  0  0  0  0  0  0  0  0  0
  161.1140  209.0520  154.8590 C   0  0  0  0  0  3  0  0  0  0  0  0
  161.8460  207.3190  148.6180 C   0  0  0  0  0  0  0  0  0  0  0  0
  161.1060  206.3320  150.6720 N   0  0  0  0  0  2  0  0  0  0  0  0
  161.5490  210.0100  152.6640 C   0  0  0  0  0  3  0  0  0  0  0  0
  162.0730  205.9730  146.5900 C   0  0  0  0  0  3  0  0  0  0  0  0
  161.9340  208.5670  149.2560 C   0  0  0  0  0  0  0  0  0  0  0  0
  162.1760  207.1610  147.1880 C   0  0  0  0  0  3  0  0  0  0  0  0
  161.0480  208.0100  156.9390 F   0  0  0  0  0  0  0  0  0  0  0  0
  161.1530  206.6040  154.9350 C   0  0  0  0  0  3  0  0  0  0  0  0
  161.6110  208.6720  150.6130 C   0  0  0  0  0  0  0  0  0  0  0  0
  161.6390  204.8260  147.3320 N   0  0  0  0  0  2  0  0  0  0  0  0
  161.4260  206.2000  149.3550 C   0  0  0  0  0  0  0  0  0  0  0  0
  160.8370  203.7500  149.4040 C   0  0  0  0  0  2  0  0  0  0  0  0
  160.9540  202.5440  148.5370 C   0  0  0  0  0  0  0  0  0  0  0  0
  161.2260  200.2960  146.8930 C   0  0  0  0  0  0  0  0  0  0  0  0
  161.4190  201.3370  149.0710 C   0  0  0  0  0  3  0  0  0  0  0  0
  160.6340  202.6270  147.1760 C   0  0  0  0  0  3  0  0  0  0  0  0
  160.7690  201.5030  146.3560 C   0  0  0  0  0  3  0  0  0  0  0  0
  161.3940  198.8900  145.8650 Cl  0  0  0  0  0  0  0  0  0  0  0  0
  161.5530  200.2140  148.2500 C   0  0  0  0  0  3  0  0  0  0  0  0
  1 20  1  0  0  0  0
  1 21  1  0  0  0  0
  2 17  2  0  0  0  0
  3 14  2  0  0  0  0
  4  9  1  0  0  0  0
  5  7  1  0  0  0  0
  6 16  1  0  0  0  0
  7  4  1  0  0  0  0
  7  2  1  1  0  0  0
  8 12  1  0  0  0  0
  9  6  2  0  0  0  0
 10 14  1  0  0  0  0
 10 20  2  0  0  0  0
 11  5  1  0  0  0  0
 12  4  2  0  0  0  0
 13 15  2  0  0  0  0
 13 19  1  0  0  0  0
 14 18  1  0  0  0  0
 15 10  1  0  0  0  0
 17  6  1  0  0  0  0
 18  8  1  0  0  0  0
 18  5  2  0  0  0  0
 19  1  1  0  0  0  0
 20 11  1  0  0  0  0
 22 24  1  0  0  0  0
 22 21  1  0  0  0  0
 23 28  1  0  0  0  0
 25 22  2  0  0  0  0
 26 23  2  0  0  0  0
 26 25  1  0  0  0  0
 27 23  1  0  0  0  0
 28 24  2  0  0  0  0
M  END
>  <MODEL>
1

>  <REMARK>
 VINA RESULT:     -10.2      0.000      0.000
  Name = 
  2 active torsions:
  status: ('A' for Active; 'I' for Inactive)
    1  A    between atoms: N_1  and  C_2
    2  A    between atoms: C_2  and  C_3
                            x       y       z     vdW  Elec       q    Type
                         _______ _______ _______ _____ _____    ______ ____

>  <TORSDO>
F 2

$$$$
=
 OpenBabel11052422563D

 28 32  0  0  0  0  0  0  0  0999 V2000
  161.1040  207.8490  152.5050 N   0  0  0  0  0  0  0  0  0  0  0  0
  161.6990  206.4750  147.5740 C   0  0  0  0  0  3  0  0  0  0  0  0
  161.0120  203.0870  152.4950 O   0  0  0  0  0  0  0  0  0  0  0  0
  161.2240  204.0240  147.6370 C   0  0  0  0  0  0  0  0  0  0  0  0
  161.0710  205.3830  149.7590 C   0  0  0  0  0  0  0  0  0  0  0  0
  161.8910  205.0820  145.5590 C   0  0  0  0  0  0  0  0  0  0  0  0
  160.9350  205.3730  148.2600 C   0  0  0  0  0  0  0  0  0  0  0  0
  161.0220  202.9530  149.7540 O   0  0  0  0  0  0  0  0  0  0  0  0
  161.5160  203.9690  146.1980 C   0  0  0  0  0  2  0  0  0  0  0  0
  161.0670  205.4000  152.5410 C   0  0  0  0  0  0  0  0  0  0  0  0
  161.0760  206.5580  150.4440 N   0  0  0  0  0  2  0  0  0  0  0  0
  161.1900  202.9050  148.3630 C   0  0  0  0  0  3  0  0  0  0  0  0
  161.0790  206.6310  154.6530 C   0  0  0  0  0  3  0  0  0  0  0  0
  161.0380  204.1740  151.8580 C   0  0  0  0  0  0  0  0  0  0  0  0
  161.0660  205.4590  154.0170 C   0  0  0  0  0  3  0  0  0  0  0  0
  162.1800  205.0300  144.2360 F   0  0  0  0  0  0  0  0  0  0  0  0
  162.0950  206.3470  146.3010 C   0  0  0  0  0  3  0  0  0  0  0  0
  161.0380  204.1640  150.4590 C   0  0  0  0  0  0  0  0  0  0  0  0
  161.0920  207.8570  153.9120 N   0  0  0  0  0  2  0  0  0  0  0  0
  161.0870  206.5960  151.8050 C   0  0  0  0  0  0  0  0  0  0  0  0
  161.0660  209.1160  151.7880 C   0  0  0  0  0  2  0  0  0  0  0  0
  160.6140  210.2090  152.6950 C   0  0  0  0  0  0  0  0  0  0  0  0
  159.7360  212.2220  154.4290 C   0  0  0  0  0  0  0  0  0  0  0  0
  161.4050  210.5880  153.7850 C   0  0  0  0  0  3  0  0  0  0  0  0
  159.3790  210.8310  152.4790 C   0  0  0  0  0  3  0  0  0  0  0  0
  158.9420  211.8380  153.3440 C   0  0  0  0  0  3  0  0  0  0  0  0
  159.1880  213.4820  155.5120 Cl  0  0  0  0  0  0  0  0  0  0  0  0
  160.9660  211.5960  154.6510 C   0  0  0  0  0  3  0  0  0  0  0  0
  1 19  1  0  0  0  0
  2  7  2  0  0  0  0
  4  7  1  0  0  0  0
  4 12  2  0  0  0  0
  5 11  1  0  0  0  0
  5 18  2  0  0  0  0
  6  9  1  0  0  0  0
  6 17  2  0  0  0  0
  7  5  1  0  0  0  0
  8 18  1  0  0  0  0
  9  4  1  0  0  0  0
 10 15  1  0  0  0  0
 11 20  1  0  0  0  0
 12  8  1  0  0  0  0
 14  3  2  0  0  0  0
 14 10  1  0  0  0  0
 15 13  2  0  0  0  0
 16  6  1  0  0  0  0
 17  2  1  0  0  0  0
 18 14  1  0  0  0  0
 19 13  1  0  0  0  0
 20  1  1  0  0  0  0
 20 10  2  0  0  0  0
 21  1  1  0  0  0  0
 21 22  1  0  0  0  0
 22 24  1  0  0  0  0
 23 28  1  0  0  0  0
 23 27  1  0  0  0  0
 24 28  2  0  0  0  0
 25 22  2  0  0  0  0
 25 26  1  0  0  0  0
 26 23  2  0  0  0  0
M  END
>  <MODEL>
2

>  <REMARK>
 VINA RESULT:     -10.1      4.852      8.839
  Name = 
  2 active torsions:
  status: ('A' for Active; 'I' for Inactive)
    1  A    between atoms: N_1  and  C_2
    2  A    between atoms: C_2  and  C_3
                            x       y       z     vdW  Elec       q    Type
                         _______ _______ _______ _____ _____    ______ ____

>  <TORSDO>
F 2

$$$$
=
 OpenBabel11052422563D

 28 32  0  0  1  0  0  0  0  0999 V2000
  161.0730  203.8790  149.4470 N   0  0  0  0  0  0  0  0  0  0  0  0
  161.7170  208.9290  148.6490 C   0  0  0  0  0  3  0  0  0  0  0  0
  161.0870  205.8560  153.7810 O   0  0  0  0  0  0  0  0  0  0  0  0
  162.1210  209.7920  150.9580 C   0  0  0  0  0  0  0  0  0  0  0  0
  161.7570  207.3210  150.5920 C   0  0  0  0  0  0  0  0  0  0  0  0
  162.0160  211.3290  149.0850 C   0  0  0  0  0  0  0  0  0  0  0  0
  162.2650  208.6160  150.0170 C   0  0  1  0  0  3  0  0  0  0  0  0
  161.7660  208.3300  152.8030 O   0  0  0  0  0  0  0  0  0  0  0  0
  162.2000  211.1480  150.3970 C   0  0  0  0  0  3  0  0  0  0  0  0
  161.0600  204.8620  151.6910 C   0  0  0  0  0  0  0  0  0  0  0  0
  161.5980  206.2280  149.7980 N   0  0  0  0  0  2  0  0  0  0  0  0
  161.9520  209.6120  152.2690 C   0  0  0  0  0  3  0  0  0  0  0  0
  160.5370  202.4900  151.4180 C   0  0  0  0  0  3  0  0  0  0  0  0
  161.2410  205.9700  152.5340 C   0  0  0  0  0  0  0  0  0  0  0  0
  160.6900  203.5380  152.2290 C   0  0  0  0  0  3  0  0  0  0  0  0
  162.0690  212.5800  148.5670 F   0  0  0  0  0  0  0  0  0  0  0  0
  161.6520  210.1920  148.2080 C   0  0  0  0  0  3  0  0  0  0  0  0
  161.5920  207.2070  151.9830 C   0  0  0  0  0  0  0  0  0  0  0  0
  160.7300  202.6340  150.0050 N   0  0  0  0  0  2  0  0  0  0  0  0
  161.2450  205.0160  150.3080 C   0  0  0  0  0  0  0  0  0  0  0  0
  161.3110  203.9730  148.0140 C   0  0  0  0  0  2  0  0  0  0  0  0
  161.2740  202.6180  147.3950 C   0  0  0  0  0  0  0  0  0  0  0  0
  161.1530  200.0660  146.2550 C   0  0  0  0  0  0  0  0  0  0  0  0
  160.8270  202.4590  146.0780 C   0  0  0  0  0  3  0  0  0  0  0  0
  161.6510  201.4970  148.1430 C   0  0  0  0  0  3  0  0  0  0  0  0
  161.5920  200.2220  147.5720 C   0  0  0  0  0  3  0  0  0  0  0  0
  161.0790  198.4690  145.5410 Cl  0  0  0  0  0  0  0  0  0  0  0  0
  160.7680  201.1840  145.5080 C   0  0  0  0  0  3  0  0  0  0  0  0
  1 19  1  0  0  0  0
  1 20  1  0  0  0  0
  4 12  2  0  0  0  0
  5 18  2  0  0  0  0
  6  9  2  0  0  0  0
  7  2  1  6  0  0  0
  7  5  1  0  0  0  0
  7  4  1  0  0  0  0
  9  4  1  0  0  0  0
 10 15  1  0  0  0  0
 10 14  1  0  0  0  0
 11 20  1  0  0  0  0
 11  5  1  0  0  0  0
 12  8  1  0  0  0  0
 13 15  2  0  0  0  0
 14  3  2  0  0  0  0
 16  6  1  0  0  0  0
 17  2  2  0  0  0  0
 17  6  1  0  0  0  0
 18 14  1  0  0  0  0
 18  8  1  0  0  0  0
 19 13  1  0  0  0  0
 20 10  2  0  0  0  0
 21  1  1  0  0  0  0
 22 21  1  0  0  0  0
 22 25  1  0  0  0  0
 23 26  1  0  0  0  0
 24 22  2  0  0  0  0
 26 25  2  0  0  0  0
 27 23  1  0  0  0  0
 28 24  1  0  0  0  0
 28 23  2  0  0  0  0
M  END
>  <MODEL>
3

>  <REMARK>
 VINA RESULT:      -8.9      2.561      4.199
  Name = 
  2 active torsions:
  status: ('A' for Active; 'I' for Inactive)
    1  A    between atoms: N_1  and  C_2
    2  A    between atoms: C_2  and  C_3
                            x       y       z     vdW  Elec       q    Type
                         _______ _______ _______ _____ _____    ______ ____

>  <TORSDO>
F 2

$$$$
=
 OpenBabel11052422563D

 28 32  0  0  1  0  0  0  0  0999 V2000
  161.2450  206.9440  151.3080 N   0  0  0  0  0  0  0  0  0  0  0  0
  159.0090  211.4410  152.4660 C   0  0  0  0  0  3  0  0  0  0  0  0
  160.7200  206.9180  156.0420 O   0  0  0  0  0  0  0  0  0  0  0  0
  159.1630  211.4920  154.9590 C   0  0  0  0  0  0  0  0  0  0  0  0
  160.1260  209.5370  153.6860 C   0  0  0  0  0  0  0  0  0  0  0  0
  158.0370  213.2820  153.7710 C   0  0  0  0  0  0  0  0  0  0  0  0
  159.7970  211.0050  153.6740 C   0  0  1  0  0  3  0  0  0  0  0  0
  159.8600  209.5240  156.1020 O   0  0  0  0  0  0  0  0  0  0  0  0
  158.4430  212.7730  154.9390 C   0  0  0  0  0  3  0  0  0  0  0  0
  160.9780  206.8890  153.7430 C   0  0  0  0  0  0  0  0  0  0  0  0
  160.4800  208.8990  152.5380 N   0  0  0  0  0  2  0  0  0  0  0  0
  159.2720  210.7960  156.0920 C   0  0  0  0  0  3  0  0  0  0  0  0
  161.7660  204.8900  152.5760 C   0  0  0  0  0  3  0  0  0  0  0  0
  160.6410  207.5320  154.9440 C   0  0  0  0  0  0  0  0  0  0  0  0
  161.4340  205.4850  153.7230 C   0  0  0  0  0  3  0  0  0  0  0  0
  157.3550  214.4530  153.7520 F   0  0  0  0  0  0  0  0  0  0  0  0
  158.2320  212.5300  152.5100 C   0  0  0  0  0  3  0  0  0  0  0  0
  160.2140  208.8640  154.9170 C   0  0  0  0  0  0  0  0  0  0  0  0
  161.6840  205.6090  151.3390 N   0  0  0  0  0  2  0  0  0  0  0  0
  160.8870  207.5990  152.5350 C   0  0  0  0  0  0  0  0  0  0  0  0
  161.2250  207.6560  150.0380 C   0  0  0  0  0  2  0  0  0  0  0  0
  161.3980  206.7000  148.9080 C   0  0  0  0  0  0  0  0  0  0  0  0
  161.6730  204.9220  146.7650 C   0  0  0  0  0  0  0  0  0  0  0  0
  162.1320  207.0740  147.7780 C   0  0  0  0  0  3  0  0  0  0  0  0
  160.7930  205.4380  148.9610 C   0  0  0  0  0  3  0  0  0  0  0  0
  160.9330  204.5500  147.8910 C   0  0  0  0  0  3  0  0  0  0  0  0
  161.8460  203.8090  145.4250 Cl  0  0  0  0  0  0  0  0  0  0  0  0
  162.2710  206.1850  146.7070 C   0  0  0  0  0  3  0  0  0  0  0  0
  1 19  1  0  0  0  0
  1 20  1  0  0  0  0
  2 17  2  0  0  0  0
  4 12  2  0  0  0  0
  5 18  2  0  0  0  0
  6  9  2  0  0  0  0
  7  2  1  6  0  0  0
  7  5  1  0  0  0  0
  7  4  1  0  0  0  0
  9  4  1  0  0  0  0
 10 14  1  0  0  0  0
 11  5  1  0  0  0  0
 12  8  1  0  0  0  0
 13 15  2  0  0  0  0
 14  3  2  0  0  0  0
 15 10  1  0  0  0  0
 16  6  1  0  0  0  0
 17  6  1  0  0  0  0
 18 14  1  0  0  0  0
 18  8  1  0  0  0  0
 19 13  1  0  0  0  0
 20 11  1  0  0  0  0
 20 10  2  0  0  0  0
 21  1  1  0  0  0  0
 22 25  1  0  0  0  0
 22 21  1  0  0  0  0
 23 26  1  0  0  0  0
 24 22  2  0  0  0  0
 26 25  2  0  0  0  0
 27 23  1  0  0  0  0
 28 23  2  0  0  0  0
 28 24  1  0  0  0  0
M  END
>  <MODEL>
4

>  <REMARK>
 VINA RESULT:      -8.8      3.229      5.159
  Name = 
  2 active torsions:
  status: ('A' for Active; 'I' for Inactive)
    1  A    between atoms: N_1  and  C_2
    2  A    between atoms: C_2  and  C_3
                            x       y       z     vdW  Elec       q    Type
                         _______ _______ _______ _____ _____    ______ ____

>  <TORSDO>
F 2

$$$$
=
 OpenBabel11052422563D

 28 32  0  0  0  0  0  0  0  0999 V2000
  161.6700  207.2080  152.7290 N   0  0  0  0  0  0  0  0  0  0  0  0
  161.7020  210.7600  148.9950 C   0  0  0  0  0  3  0  0  0  0  0  0
  159.3650  210.9660  154.5320 O   0  0  0  0  0  0  0  0  0  0  0  0
  160.8540  212.7910  150.1750 C   0  0  0  0  0  0  0  0  0  0  0  0
  161.1390  210.6300  151.4500 C   0  0  0  0  0  0  0  0  0  0  0  0
  161.3410  212.8770  147.8010 C   0  0  0  0  0  0  0  0  0  0  0  0
  161.6150  211.4890  150.3100 C   0  0  0  0  0  0  0  0  0  0  0  0
  159.9650  212.5480  152.3710 O   0  0  0  0  0  0  0  0  0  0  0  0
  160.9380  213.5200  148.9020 C   0  0  0  0  0  2  0  0  0  0  0  0
  160.4670  209.1160  153.6850 C   0  0  0  0  0  0  0  0  0  0  0  0
  161.5550  209.3400  151.5620 N   0  0  0  0  0  2  0  0  0  0  0  0
  160.1430  213.2840  151.1910 C   0  0  0  0  0  3  0  0  0  0  0  0
  160.5530  207.0100  154.9230 C   0  0  0  0  0  3  0  0  0  0  0  0
  160.0460  210.4530  153.6030 C   0  0  0  0  0  0  0  0  0  0  0  0
  160.1330  208.2740  154.8510 C   0  0  0  0  0  3  0  0  0  0  0  0
  161.4010  213.5420  146.6220 F   0  0  0  0  0  0  0  0  0  0  0  0
  161.6230  211.4240  147.8340 C   0  0  0  0  0  3  0  0  0  0  0  0
  160.3840  211.2160  152.4810 C   0  0  0  0  0  0  0  0  0  0  0  0
  161.3380  206.4470  153.8640 N   0  0  0  0  0  2  0  0  0  0  0  0
  161.2290  208.5720  152.6390 C   0  0  0  0  0  0  0  0  0  0  0  0
  162.5130  206.6170  151.6990 C   0  0  0  0  0  2  0  0  0  0  0  0
  161.8470  205.4180  151.1140 C   0  0  0  0  0  0  0  0  0  0  0  0
  160.6480  203.1530  149.9940 C   0  0  0  0  0  0  0  0  0  0  0  0
  161.7490  204.2370  151.8580 C   0  0  0  0  0  3  0  0  0  0  0  0
  161.3530  205.4610  149.8060 C   0  0  0  0  0  3  0  0  0  0  0  0
  160.7520  204.3290  149.2470 C   0  0  0  0  0  3  0  0  0  0  0  0
  159.8960  201.7360  149.2930 Cl  0  0  0  0  0  0  0  0  0  0  0  0
  161.1480  203.1060  151.2980 C   0  0  0  0  0  3  0  0  0  0  0  0
  1 19  1  0  0  0  0
  2  7  2  0  0  0  0
  4  7  1  0  0  0  0
  4 12  2  0  0  0  0
  5 11  1  0  0  0  0
  5 18  2  0  0  0  0
  6 17  2  0  0  0  0
  6  9  1  0  0  0  0
  7  5  1  0  0  0  0
  8 18  1  0  0  0  0
  9  4  1  0  0  0  0
 10 15  1  0  0  0  0
 11 20  1  0  0  0  0
 12  8  1  0  0  0  0
 14 10  1  0  0  0  0
 14  3  2  0  0  0  0
 15 13  2  0  0  0  0
 16  6  1  0  0  0  0
 17  2  1  0  0  0  0
 18 14  1  0  0  0  0
 19 13  1  0  0  0  0
 20  1  1  0  0  0  0
 20 10  2  0  0  0  0
 21  1  1  0  0  0  0
 22 21  1  0  0  0  0
 22 24  1  0  0  0  0
 23 28  1  0  0  0  0
 25 22  2  0  0  0  0
 26 25  1  0  0  0  0
 26 23  2  0  0  0  0
 27 23  1  0  0  0  0
 28 24  2  0  0  0  0
M  END
>  <MODEL>
5

>  <REMARK>
 VINA RESULT:      -8.8      3.639      5.844
  Name = 
  2 active torsions:
  status: ('A' for Active; 'I' for Inactive)
    1  A    between atoms: N_1  and  C_2
    2  A    between atoms: C_2  and  C_3
                            x       y       z     vdW  Elec       q    Type
                         _______ _______ _______ _____ _____    ______ ____

>  <TORSDO>
F 2

$$$$
=
 OpenBabel11052422563D

 28 32  0  0  0  0  0  0  0  0999 V2000
  160.1320  210.6860  153.9580 N   0  0  0  0  0  0  0  0  0  0  0  0
  161.5660  211.9900  149.1830 C   0  0  0  0  0  3  0  0  0  0  0  0
  156.7980  213.7190  152.4170 O   0  0  0  0  0  0  0  0  0  0  0  0
  160.0050  213.8650  148.6460 C   0  0  0  0  0  0  0  0  0  0  0  0
  159.8870  212.7480  150.9060 C   0  0  0  0  0  0  0  0  0  0  0  0
  161.5840  213.0790  146.9810 C   0  0  0  0  0  0  0  0  0  0  0  0
  160.7530  213.1310  149.7380 C   0  0  0  0  0  0  0  0  0  0  0  0
  158.1870  214.2970  150.1210 O   0  0  0  0  0  0  0  0  0  0  0  0
  160.6160  213.9400  147.3110 C   0  0  0  0  0  2  0  0  0  0  0  0
  158.3910  212.2310  153.1940 C   0  0  0  0  0  0  0  0  0  0  0  0
  160.3470  211.8880  151.8540 N   0  0  0  0  0  2  0  0  0  0  0  0
  158.8320  214.4530  148.8860 C   0  0  0  0  0  3  0  0  0  0  0  0
  158.1120  211.0700  155.3280 C   0  0  0  0  0  3  0  0  0  0  0  0
  157.9050  213.1400  152.2420 C   0  0  0  0  0  0  0  0  0  0  0  0
  157.6320  211.9240  154.4240 C   0  0  0  0  0  3  0  0  0  0  0  0
  162.1350  213.1340  145.7440 F   0  0  0  0  0  0  0  0  0  0  0  0
  161.9880  212.0010  147.9130 C   0  0  0  0  0  3  0  0  0  0  0  0
  158.6560  213.4020  151.0920 C   0  0  0  0  0  0  0  0  0  0  0  0
  159.3790  210.4330  155.1190 N   0  0  0  0  0  2  0  0  0  0  0  0
  159.6290  211.6060  152.9770 C   0  0  0  0  0  0  0  0  0  0  0  0
  161.4370  210.0590  153.8080 C   0  0  0  0  0  2  0  0  0  0  0  0
  161.2920  208.7070  153.1960 C   0  0  0  0  0  0  0  0  0  0  0  0
  161.0770  206.1660  152.0450 C   0  0  0  0  0  0  0  0  0  0  0  0
  161.1620  207.5780  154.0110 C   0  0  0  0  0  3  0  0  0  0  0  0
  161.3240  208.5630  151.8040 C   0  0  0  0  0  3  0  0  0  0  0  0
  161.2140  207.2930  151.2290 C   0  0  0  0  0  3  0  0  0  0  0  0
  160.9410  204.5770  151.3250 Cl  0  0  0  0  0  0  0  0  0  0  0  0
  161.0530  206.3080  153.4360 C   0  0  0  0  0  3  0  0  0  0  0  0
  1 19  1  0  0  0  0
  2  7  2  0  0  0  0
  4 12  2  0  0  0  0
  4  7  1  0  0  0  0
  5 18  2  0  0  0  0
  5 11  1  0  0  0  0
  6  9  1  0  0  0  0
  6 17  2  0  0  0  0
  7  5  1  0  0  0  0
  8 18  1  0  0  0  0
  9  4  1  0  0  0  0
 10 15  1  0  0  0  0
 11 20  1  0  0  0  0
 12  8  1  0  0  0  0
 14  3  2  0  0  0  0
 14 10  1  0  0  0  0
 15 13  2  0  0  0  0
 16  6  1  0  0  0  0
 17  2  1  0  0  0  0
 18 14  1  0  0  0  0
 19 13  1  0  0  0  0
 20 10  2  0  0  0  0
 20  1  1  0  0  0  0
 21  1  1  0  0  0  0
 22 21  1  0  0  0  0
 22 24  1  0  0  0  0
 23 28  1  0  0  0  0
 25 22  2  0  0  0  0
 26 25  1  0  0  0  0
 26 23  2  0  0  0  0
 27 23  1  0  0  0  0
 28 24  2  0  0  0  0
M  END
>  <MODEL>
6

>  <REMARK>
 VINA RESULT:      -8.7      5.327      7.989
  Name = 
  2 active torsions:
  status: ('A' for Active; 'I' for Inactive)
    1  A    between atoms: N_1  and  C_2
    2  A    between atoms: C_2  and  C_3
                            x       y       z     vdW  Elec       q    Type
                         _______ _______ _______ _____ _____    ______ ____

>  <TORSDO>
F 2

$$$$
=
 OpenBabel11052422563D

 28 32  0  0  0  0  0  0  0  0999 V2000
  161.9640  207.5090  152.2760 N   0  0  0  0  0  0  0  0  0  0  0  0
  161.7650  211.2890  148.7780 C   0  0  0  0  0  3  0  0  0  0  0  0
  159.2160  210.8850  154.2110 O   0  0  0  0  0  0  0  0  0  0  0  0
  160.6670  213.1390  150.0470 C   0  0  0  0  0  0  0  0  0  0  0  0
  161.1280  210.9380  151.1940 C   0  0  0  0  0  0  0  0  0  0  0  0
  161.2300  213.4340  147.7070 C   0  0  0  0  0  0  0  0  0  0  0  0
  161.5540  211.9150  150.1320 C   0  0  0  0  0  0  0  0  0  0  0  0
  159.7280  212.6610  152.1820 O   0  0  0  0  0  0  0  0  0  0  0  0
  160.7220  213.9570  148.8270 C   0  0  0  0  0  2  0  0  0  0  0  0
  160.5350  209.2170  153.2970 C   0  0  0  0  0  0  0  0  0  0  0  0
  161.6710  209.6920  151.2420 N   0  0  0  0  0  2  0  0  0  0  0  0
  159.8720  213.4880  151.0600 C   0  0  0  0  0  3  0  0  0  0  0  0
  160.7930  207.0510  154.4020 C   0  0  0  0  0  3  0  0  0  0  0  0
  159.9800  210.5060  153.2820 C   0  0  0  0  0  0  0  0  0  0  0  0
  160.2480  208.2680  154.3920 C   0  0  0  0  0  3  0  0  0  0  0  0
  161.2640  214.1790  146.5750 F   0  0  0  0  0  0  0  0  0  0  0  0
  161.6590  212.0180  147.6600 C   0  0  0  0  0  3  0  0  0  0  0  0
  160.2790  211.3730  152.2260 C   0  0  0  0  0  0  0  0  0  0  0  0
  161.6710  206.6430  153.3450 N   0  0  0  0  0  2  0  0  0  0  0  0
  161.3870  208.8240  152.2530 C   0  0  0  0  0  0  0  0  0  0  0  0
  162.9010  207.0770  151.2480 C   0  0  0  0  0  2  0  0  0  0  0  0
  162.1870  206.8620  149.9580 C   0  0  0  0  0  0  0  0  0  0  0  0
  160.8850  206.4200  147.5210 C   0  0  0  0  0  0  0  0  0  0  0  0
  161.1250  205.9530  149.8850 C   0  0  0  0  0  3  0  0  0  0  0  0
  162.6020  207.5430  148.8070 C   0  0  0  0  0  3  0  0  0  0  0  0
  161.9500  207.3230  147.5900 C   0  0  0  0  0  3  0  0  0  0  0  0
  160.0700  206.1460  145.9970 Cl  0  0  0  0  0  0  0  0  0  0  0  0
  160.4740  205.7340  148.6670 C   0  0  0  0  0  3  0  0  0  0  0  0
  1 19  1  0  0  0  0
  2  7  2  0  0  0  0
  4  7  1  0  0  0  0
  4 12  2  0  0  0  0
  5 11  1  0  0  0  0
  5 18  2  0  0  0  0
  6  9  1  0  0  0  0
  7  5  1  0  0  0  0
  8 18  1  0  0  0  0
  9  4  1  0  0  0  0
 10 15  1  0  0  0  0
 11 20  1  0  0  0  0
 12  8  1  0  0  0  0
 14 10  1  0  0  0  0
 14  3  2  0  0  0  0
 15 13  2  0  0  0  0
 16  6  1  0  0  0  0
 17  6  2  0  0  0  0
 17  2  1  0  0  0  0
 18 14  1  0  0  0  0
 19 13  1  0  0  0  0
 20  1  1  0  0  0  0
 20 10  2  0  0  0  0
 21  1  1  0  0  0  0
 22 21  1  0  0  0  0
 23 26  2  0  0  0  0
 23 28  1  0  0  0  0
 24 22  1  0  0  0  0
 25 22  2  0  0  0  0
 26 25  1  0  0  0  0
 27 23  1  0  0  0  0
 28 24  2  0  0  0  0
M  END
>  <MODEL>
7

>  <REMARK>
 VINA RESULT:      -8.0      4.024      6.242
  Name = 
  2 active torsions:
  status: ('A' for Active; 'I' for Inactive)
    1  A    between atoms: N_1  and  C_2
    2  A    between atoms: C_2  and  C_3
                            x       y       z     vdW  Elec       q    Type
                         _______ _______ _______ _____ _____    ______ ____

>  <TORSDO>
F 2

$$$$
=
 OpenBabel11052422563D

 28 32  0  0  0  0  0  0  0  0999 V2000
  161.7510  208.9460  151.3410 N   0  0  0  0  0  0  0  0  0  0  0  0
  160.6780  203.9060  151.3060 C   0  0  0  0  0  3  0  0  0  0  0  0
  161.9420  207.6400  146.7640 O   0  0  0  0  0  0  0  0  0  0  0  0
  161.2090  203.2590  148.9530 C   0  0  0  0  0  0  0  0  0  0  0  0
  161.5520  205.6450  149.7010 C   0  0  0  0  0  0  0  0  0  0  0  0
  160.3080  201.6160  150.4930 C   0  0  0  0  0  0  0  0  0  0  0  0
  161.5320  204.1930  150.0980 C   0  0  0  0  0  0  0  0  0  0  0  0
  161.6520  204.9780  147.3670 O   0  0  0  0  0  0  0  0  0  0  0  0
  160.7710  201.8920  149.2690 C   0  0  0  0  0  2  0  0  0  0  0  0
  161.8440  208.3150  148.9760 C   0  0  0  0  0  0  0  0  0  0  0  0
  161.5930  206.6190  150.6500 N   0  0  0  0  0  2  0  0  0  0  0  0
  161.3410  203.6490  147.6830 C   0  0  0  0  0  3  0  0  0  0  0  0
  162.0250  210.6730  149.5960 C   0  0  0  0  0  3  0  0  0  0  0  0
  161.8280  207.3260  147.9800 C   0  0  0  0  0  0  0  0  0  0  0  0
  161.9960  209.7440  148.6390 C   0  0  0  0  0  3  0  0  0  0  0  0
  159.8850  200.3620  150.7820 F   0  0  0  0  0  0  0  0  0  0  0  0
  160.1550  202.6890  151.5030 C   0  0  0  0  0  3  0  0  0  0  0  0
  161.6830  205.9830  148.3430 C   0  0  0  0  0  0  0  0  0  0  0  0
  161.9080  210.2950  150.9730 N   0  0  0  0  0  2  0  0  0  0  0  0
  161.7220  207.9350  150.3220 C   0  0  0  0  0  0  0  0  0  0  0  0
  161.6880  208.5980  152.7530 C   0  0  0  0  0  2  0  0  0  0  0  0
  161.0350  209.6930  153.5260 C   0  0  0  0  0  0  0  0  0  0  0  0
  159.8370  211.7860  154.9440 C   0  0  0  0  0  0  0  0  0  0  0  0
  159.7910  210.1900  153.1230 C   0  0  0  0  0  3  0  0  0  0  0  0
  161.6830  210.2500  154.6340 C   0  0  0  0  0  3  0  0  0  0  0  0
  161.0840  211.2950  155.3430 C   0  0  0  0  0  3  0  0  0  0  0  0
  159.0880  213.0940  155.8330 Cl  0  0  0  0  0  0  0  0  0  0  0  0
  159.1920  211.2350  153.8330 C   0  0  0  0  0  3  0  0  0  0  0  0
  1 21  1  0  0  0  0
  2 17  1  0  0  0  0
  3 14  2  0  0  0  0
  4  9  1  0  0  0  0
  4  7  1  0  0  0  0
  5  7  1  0  0  0  0
  5 11  1  0  0  0  0
  6 16  1  0  0  0  0
  6 17  2  0  0  0  0
  7  2  2  0  0  0  0
  8 12  1  0  0  0  0
  8 18  1  0  0  0  0
  9  6  1  0  0  0  0
 10 20  2  0  0  0  0
 12  4  2  0  0  0  0
 13 19  1  0  0  0  0
 14 18  1  0  0  0  0
 14 10  1  0  0  0  0
 15 10  1  0  0  0  0
 15 13  2  0  0  0  0
 18  5  2  0  0  0  0
 19  1  1  0  0  0  0
 20 11  1  0  0  0  0
 20  1  1  0  0  0  0
 21 22  1  0  0  0  0
 22 25  1  0  0  0  0
 23 26  1  0  0  0  0
 23 27  1  0  0  0  0
 24 22  2  0  0  0  0
 24 28  1  0  0  0  0
 25 26  2  0  0  0  0
 28 23  2  0  0  0  0
M  END
>  <MODEL>
8

>  <REMARK>
 VINA RESULT:      -8.0      4.291      7.948
  Name = 
  2 active torsions:
  status: ('A' for Active; 'I' for Inactive)
    1  A    between atoms: N_1  and  C_2
    2  A    between atoms: C_2  and  C_3
                            x       y       z     vdW  Elec       q    Type
                         _______ _______ _______ _____ _____    ______ ____

>  <TORSDO>
F 2

$$$$
