=
 OpenBabel11052422013D

 30 33  0  0  1  0  0  0  0  0999 V2000
  157.6940  214.0480  153.0330 C   0  0  0  0  0  0  0  0  0  0  0  0
  156.8200  213.9330  150.7860 C   0  0  0  0  0  3  0  0  0  0  0  0
  161.1190  212.8870  149.6300 C   0  0  0  0  0  2  0  0  0  0  0  0
  158.8610  211.2660  152.9180 C   0  0  0  0  0  2  0  0  0  0  0  0
  158.7690  213.9040  153.9130 O   0  0  0  0  0  0  0  0  0  0  0  0
  158.5590  211.9140  155.3480 C   0  0  2  0  0  3  0  0  0  0  0  0
  159.7580  213.9630  156.0920 C   0  0  0  0  0  1  0  0  0  0  0  0
  161.4310  210.1000  152.2540 C   0  0  2  0  0  3  0  0  0  0  0  0
  161.4260  211.5630  150.2340 C   0  0  0  0  0  0  0  0  0  0  0  0
  158.6020  213.4530  155.2550 C   0  0  1  0  0  3  0  0  0  0  0  0
  159.3260  211.2290  154.2990 N   0  0  0  0  0  0  0  0  0  0  0  0
  156.8100  213.5930  149.3380 C   0  0  0  0  0  2  0  0  0  0  0  0
  161.7260  210.4800  153.7160 C   0  0  0  0  0  2  0  0  0  0  0  0
  156.5770  214.4370  153.4720 O   0  0  0  0  0  0  0  0  0  0  0  0
  159.7180  213.3300  149.9320 C   0  0  0  0  0  0  0  0  0  0  0  0
  157.8570  214.3840  148.6400 C   0  0  0  0  0  3  0  0  0  0  0  0
  157.8610  213.7010  151.5960 C   0  0  0  0  0  0  0  0  0  0  0  0
  159.8380  212.0920  152.0960 C   0  0  1  0  0  3  0  0  0  0  0  0
  162.2440  210.7940  149.6610 O   0  0  0  0  0  0  0  0  0  0  0  0
  160.8410  211.2070  151.4880 N   0  0  0  0  0  0  0  0  0  0  0  0
  160.6590  210.0330  155.7920 O   0  0  0  0  0  0  0  0  0  0  0  0
  159.1520  214.2420  148.9140 C   0  0  0  0  0  3  0  0  0  0  0  0
  159.1180  213.0170  151.1170 C   0  0  0  0  0  0  0  0  0  0  0  0
  160.5370  210.5340  154.6430 C   0  0  0  0  0  0  0  0  0  0  0  0
  157.1490  211.3510  155.5170 C   0  0  0  0  0  2  0  0  0  0  0  0
  155.6780  211.7840  157.1020 C   0  0  0  0  0  1  0  0  0  0  0  0
  156.2600  212.3310  155.9600 O   0  0  0  0  0  0  0  0  0  0  0  0
  160.6190  208.8150  152.1000 C   0  0  0  0  0  2  0  0  0  0  0  0
  161.2080  206.7690  153.3980 C   0  0  0  0  0  1  0  0  0  0  0  0
  161.5140  207.5870  152.1580 C   0  0  0  0  0  2  0  0  0  0  0  0
  1 14  2  0  0  0  0
  1  5  1  0  0  0  0
  2 17  2  0  0  0  0
  3 15  1  0  0  0  0
  3  9  1  0  0  0  0
  4 11  1  0  0  0  0
  5 10  1  0  0  0  0
  6 25  1  6  0  0  0
  8 28  1  1  0  0  0
  8 13  1  0  0  0  0
  9 20  1  0  0  0  0
 10  6  1  0  0  0  0
 10  7  1  1  0  0  0
 11 24  1  0  0  0  0
 11  6  1  0  0  0  0
 12  2  1  0  0  0  0
 13 24  1  0  0  0  0
 15 23  2  0  0  0  0
 16 22  2  0  0  0  0
 16 12  1  0  0  0  0
 17  1  1  0  0  0  0
 18  4  1  6  0  0  0
 19  9  2  0  0  0  0
 20 18  1  0  0  0  0
 20  8  1  0  0  0  0
 22 15  1  0  0  0  0
 23 17  1  0  0  0  0
 23 18  1  0  0  0  0
 24 21  2  0  0  0  0
 25 27  1  0  0  0  0
 27 26  1  0  0  0  0
 28 30  1  0  0  0  0
 30 29  1  0  0  0  0
M  END
>  <MODEL>
1

>  <REMARK>
 VINA RESULT:      -5.3      0.000      0.000
  Name = 
  4 active torsions:
  status: ('A' for Active; 'I' for Inactive)
    1  A    between atoms: C_6  and  C_8
    2  A    between atoms: C_6  and  O_21
    3  A    between atoms: C_7  and  C_10
    4  A    between atoms: C_7  and  C_26
                            x       y       z     vdW  Elec       q    Type
                         _______ _______ _______ _____ _____    ______ ____

>  <TORSDO>
F 4

$$$$
=
 OpenBabel11052422013D

 30 33  0  0  1  0  0  0  0  0999 V2000
  160.3490  211.8230  153.9400 C   0  0  0  0  0  0  0  0  0  0  0  0
  159.0120  212.8840  152.2340 C   0  0  0  0  0  3  0  0  0  0  0  0
  162.1050  211.1550  149.3430 C   0  0  0  0  0  2  0  0  0  0  0  0
  160.2080  209.1100  152.6230 C   0  0  0  0  0  2  0  0  0  0  0  0
  161.4420  211.0250  154.2880 O   0  0  0  0  0  0  0  0  0  0  0  0
  160.7700  208.7900  155.0730 C   0  0  2  0  0  3  0  0  0  0  0  0
  162.8420  209.9090  155.8760 C   0  0  0  0  0  1  0  0  0  0  0  0
  161.8400  207.5980  150.7660 C   0  0  2  0  0  3  0  0  0  0  0  0
  161.9710  209.6750  149.3910 C   0  0  0  0  0  0  0  0  0  0  0  0
  161.4200  210.1470  155.4110 C   0  0  1  0  0  3  0  0  0  0  0  0
  160.9220  208.3870  153.6680 N   0  0  0  0  0  0  0  0  0  0  0  0
  158.5280  213.1720  150.8570 C   0  0  0  0  0  2  0  0  0  0  0  0
  162.5960  207.2530  152.0630 C   0  0  0  0  0  2  0  0  0  0  0  0
  159.6260  212.3190  154.8470 O   0  0  0  0  0  0  0  0  0  0  0  0
  161.1210  211.8370  150.2480 C   0  0  0  0  0  0  0  0  0  0  0  0
  159.6150  213.8240  150.0810 C   0  0  0  0  0  3  0  0  0  0  0  0
  160.0210  212.0480  152.5070 C   0  0  0  0  0  0  0  0  0  0  0  0
  161.2180  209.8630  151.7720 C   0  0  1  0  0  3  0  0  0  0  0  0
  162.2430  208.9930  148.3670 O   0  0  0  0  0  0  0  0  0  0  0  0
  161.5990  209.0390  150.6160 N   0  0  0  0  0  0  0  0  0  0  0  0
  161.9510  206.3550  154.1660 O   0  0  0  0  0  0  0  0  0  0  0  0
  160.7610  213.2040  149.8100 C   0  0  0  0  0  3  0  0  0  0  0  0
  160.7380  211.2710  151.4290 C   0  0  0  0  0  0  0  0  0  0  0  0
  161.7830  207.2850  153.3340 C   0  0  0  0  0  0  0  0  0  0  0  0
  159.3350  208.6560  155.5770 C   0  0  0  0  0  2  0  0  0  0  0  0
  160.0510  207.0950  156.9610 C   0  0  0  0  0  1  0  0  0  0  0  0
  159.0660  207.3580  156.0110 O   0  0  0  0  0  0  0  0  0  0  0  0
  160.5610  206.7890  150.5610 C   0  0  0  0  0  2  0  0  0  0  0  0
  160.7590  204.3050  150.6610 C   0  0  0  0  0  1  0  0  0  0  0  0
  160.8290  205.5240  149.7610 C   0  0  0  0  0  2  0  0  0  0  0  0
  1  5  1  0  0  0  0
  1 14  2  0  0  0  0
  2 17  2  0  0  0  0
  3  9  1  0  0  0  0
  3 15  1  0  0  0  0
  4 11  1  0  0  0  0
  5 10  1  0  0  0  0
  6 10  1  0  0  0  0
  6 25  1  6  0  0  0
  8 28  1  1  0  0  0
  8 13  1  0  0  0  0
  9 20  1  0  0  0  0
 10  7  1  6  0  0  0
 11  6  1  0  0  0  0
 12  2  1  0  0  0  0
 13 24  1  0  0  0  0
 15 23  2  0  0  0  0
 16 12  1  0  0  0  0
 17  1  1  0  0  0  0
 18  4  1  6  0  0  0
 19  9  2  0  0  0  0
 20  8  1  0  0  0  0
 20 18  1  0  0  0  0
 22 16  2  0  0  0  0
 22 15  1  0  0  0  0
 23 18  1  0  0  0  0
 23 17  1  0  0  0  0
 24 11  1  0  0  0  0
 24 21  2  0  0  0  0
 25 27  1  0  0  0  0
 27 26  1  0  0  0  0
 30 28  1  0  0  0  0
 30 29  1  0  0  0  0
M  END
>  <MODEL>
2

>  <REMARK>
 VINA RESULT:      -4.9      2.235      3.465
  Name = 
  4 active torsions:
  status: ('A' for Active; 'I' for Inactive)
    1  A    between atoms: C_6  and  C_8
    2  A    between atoms: C_6  and  O_21
    3  A    between atoms: C_7  and  C_10
    4  A    between atoms: C_7  and  C_26
                            x       y       z     vdW  Elec       q    Type
                         _______ _______ _______ _____ _____    ______ ____

>  <TORSDO>
F 4

$$$$
=
 OpenBabel11052422013D

 30 33  0  0  1  0  0  0  0  0999 V2000
  161.1970  202.8670  147.1330 C   0  0  0  0  0  0  0  0  0  0  0  0
  159.4640  201.6600  148.3010 C   0  0  0  0  0  3  0  0  0  0  0  0
  161.6900  202.9740  152.0730 C   0  0  0  0  0  2  0  0  0  0  0  0
  160.7090  205.4200  148.6680 C   0  0  0  0  0  2  0  0  0  0  0  0
  162.3400  203.6680  147.1740 O   0  0  0  0  0  0  0  0  0  0  0  0
  161.8910  205.9940  146.5020 C   0  0  2  0  0  3  0  0  0  0  0  0
  164.1030  204.9150  146.1420 C   0  0  0  0  0  1  0  0  0  0  0  0
  161.7960  206.6730  151.0460 C   0  0  2  0  0  3  0  0  0  0  0  0
  161.5690  204.4540  152.1610 C   0  0  0  0  0  0  0  0  0  0  0  0
  162.6100  204.6650  146.1920 C   0  0  1  0  0  3  0  0  0  0  0  0
  161.6700  206.2350  147.9340 N   0  0  0  0  0  0  0  0  0  0  0  0
  158.6380  201.2350  149.4640 C   0  0  0  0  0  2  0  0  0  0  0  0
  162.8630  207.1380  150.0370 C   0  0  0  0  0  2  0  0  0  0  0  0
  160.7370  202.4940  146.0190 O   0  0  0  0  0  0  0  0  0  0  0  0
  160.9790  202.4230  150.8730 C   0  0  0  0  0  0  0  0  0  0  0  0
  159.4870  200.4720  150.4160 C   0  0  0  0  0  3  0  0  0  0  0  0
  160.5070  202.4930  148.3970 C   0  0  0  0  0  0  0  0  0  0  0  0
  161.4640  204.5510  149.6610 C   0  0  1  0  0  3  0  0  0  0  0  0
  161.5630  205.0100  153.2910 O   0  0  0  0  0  0  0  0  0  0  0  0
  161.5280  205.2310  150.9620 N   0  0  0  0  0  0  0  0  0  0  0  0
  162.7870  208.2810  147.9550 O   0  0  0  0  0  0  0  0  0  0  0  0
  160.5210  201.0270  151.0430 C   0  0  0  0  0  3  0  0  0  0  0  0
  160.9160  203.1270  149.7050 C   0  0  0  0  0  0  0  0  0  0  0  0
  162.4110  207.2690  148.6030 C   0  0  0  0  0  0  0  0  0  0  0  0
  160.6360  206.2210  145.6610 C   0  0  0  0  0  2  0  0  0  0  0  0
  161.2770  205.7140  143.6120 C   0  0  0  0  0  1  0  0  0  0  0  0
  160.5030  205.2460  144.6720 O   0  0  0  0  0  0  0  0  0  0  0  0
  160.5050  207.4890  151.0020 C   0  0  0  0  0  2  0  0  0  0  0  0
  160.9460  208.3760  153.2900 C   0  0  0  0  0  1  0  0  0  0  0  0
  160.6150  208.7420  151.8560 C   0  0  0  0  0  2  0  0  0  0  0  0
  1  5  1  0  0  0  0
  1 17  1  0  0  0  0
  2 17  2  0  0  0  0
  2 12  1  0  0  0  0
  3  9  1  0  0  0  0
  6 25  1  6  0  0  0
  6 11  1  0  0  0  0
  8 28  1  6  0  0  0
  9 19  2  0  0  0  0
 10  7  1  1  0  0  0
 10  6  1  0  0  0  0
 10  5  1  0  0  0  0
 11 24  1  0  0  0  0
 11  4  1  0  0  0  0
 12 16  1  0  0  0  0
 13  8  1  0  0  0  0
 14  1  2  0  0  0  0
 15 22  1  0  0  0  0
 15  3  1  0  0  0  0
 16 22  2  0  0  0  0
 17 23  1  0  0  0  0
 18  4  1  6  0  0  0
 18 23  1  0  0  0  0
 18 20  1  0  0  0  0
 20  8  1  0  0  0  0
 20  9  1  0  0  0  0
 21 24  2  0  0  0  0
 23 15  2  0  0  0  0
 24 13  1  0  0  0  0
 26 27  1  0  0  0  0
 27 25  1  0  0  0  0
 28 30  1  0  0  0  0
 30 29  1  0  0  0  0
M  END
>  <MODEL>
3

>  <REMARK>
 VINA RESULT:      -4.7      5.740     10.489
  Name = 
  4 active torsions:
  status: ('A' for Active; 'I' for Inactive)
    1  A    between atoms: C_6  and  C_8
    2  A    between atoms: C_6  and  O_21
    3  A    between atoms: C_7  and  C_10
    4  A    between atoms: C_7  and  C_26
                            x       y       z     vdW  Elec       q    Type
                         _______ _______ _______ _____ _____    ______ ____

>  <TORSDO>
F 4

$$$$
=
 OpenBabel11052422013D

 30 33  0  0  1  0  0  0  0  0999 V2000
  157.9750  210.1490  137.3200 C   0  0  0  0  0  0  0  0  0  0  0  0
  159.6080  208.4040  137.6620 C   0  0  0  0  0  3  0  0  0  0  0  0
  162.5170  211.8610  138.3690 C   0  0  0  0  0  2  0  0  0  0  0  0
  158.5450  211.4570  139.9810 C   0  0  0  0  0  2  0  0  0  0  0  0
  157.6550  211.5080  137.3040 O   0  0  0  0  0  0  0  0  0  0  0  0
  156.2400  212.1710  139.2080 C   0  0  2  0  0  3  0  0  0  0  0  0
  156.1330  213.3320  137.0110 C   0  0  0  0  0  1  0  0  0  0  0  0
  160.2510  213.5960  140.9380 C   0  0  2  0  0  3  0  0  0  0  0  0
  162.0870  212.5480  139.6160 C   0  0  0  0  0  0  0  0  0  0  0  0
  156.3680  211.9940  137.6810 C   0  0  1  0  0  3  0  0  0  0  0  0
  157.5080  212.4770  139.8830 N   0  0  0  0  0  0  0  0  0  0  0  0
  160.8990  207.8040  138.0950 C   0  0  0  0  0  2  0  0  0  0  0  0
  159.0740  214.4530  140.4380 C   0  0  0  0  0  2  0  0  0  0  0  0
  157.0970  209.2980  137.0110 O   0  0  0  0  0  0  0  0  0  0  0  0
  161.6380  210.6900  138.0420 C   0  0  0  0  0  0  0  0  0  0  0  0
  161.9980  208.3470  137.2540 C   0  0  0  0  0  3  0  0  0  0  0  0
  159.3340  209.7120  137.7410 C   0  0  0  0  0  0  0  0  0  0  0  0
  159.7260  211.8780  139.1210 C   0  0  1  0  0  3  0  0  0  0  0  0
  162.9480  213.1170  140.3400 O   0  0  0  0  0  0  0  0  0  0  0  0
  160.6980  212.6110  139.9440 N   0  0  0  0  0  0  0  0  0  0  0  0
  156.7330  214.4530  140.8490 O   0  0  0  0  0  0  0  0  0  0  0  0
  162.3190  209.6380  137.2550 C   0  0  0  0  0  3  0  0  0  0  0  0
  160.3050  210.7050  138.3330 C   0  0  0  0  0  0  0  0  0  0  0  0
  157.7190  213.7870  140.4370 C   0  0  0  0  0  0  0  0  0  0  0  0
  155.4600  211.0480  139.8900 C   0  0  0  0  0  2  0  0  0  0  0  0
  154.6520  209.0180  139.5900 C   0  0  0  0  0  1  0  0  0  0  0  0
  154.7970  210.2500  138.9570 O   0  0  0  0  0  0  0  0  0  0  0  0
  160.0120  212.9500  142.3020 C   0  0  0  0  0  2  0  0  0  0  0  0
  160.4450  213.4440  144.7070 C   0  0  0  0  0  1  0  0  0  0  0  0
  161.0500  213.4020  143.3170 C   0  0  0  0  0  2  0  0  0  0  0  0
  1 17  1  0  0  0  0
  2 17  2  0  0  0  0
  2 12  1  0  0  0  0
  3  9  1  0  0  0  0
  5  1  1  0  0  0  0
  5 10  1  0  0  0  0
  6 11  1  0  0  0  0
  6 25  1  1  0  0  0
  8 28  1  1  0  0  0
  9 20  1  0  0  0  0
  9 19  2  0  0  0  0
 10  7  1  6  0  0  0
 10  6  1  0  0  0  0
 11  4  1  0  0  0  0
 11 24  1  0  0  0  0
 13  8  1  0  0  0  0
 14  1  2  0  0  0  0
 15 23  2  0  0  0  0
 15  3  1  0  0  0  0
 16 22  2  0  0  0  0
 16 12  1  0  0  0  0
 17 23  1  0  0  0  0
 18 20  1  0  0  0  0
 18  4  1  1  0  0  0
 20  8  1  0  0  0  0
 22 15  1  0  0  0  0
 23 18  1  0  0  0  0
 24 13  1  0  0  0  0
 24 21  2  0  0  0  0
 27 26  1  0  0  0  0
 27 25  1  0  0  0  0
 28 30  1  0  0  0  0
 30 29  1  0  0  0  0
M  END
>  <MODEL>
4

>  <REMARK>
 VINA RESULT:      -3.2     10.850     14.279
  Name = 
  4 active torsions:
  status: ('A' for Active; 'I' for Inactive)
    1  A    between atoms: C_6  and  C_8
    2  A    between atoms: C_6  and  O_21
    3  A    between atoms: C_7  and  C_10
    4  A    between atoms: C_7  and  C_26
                            x       y       z     vdW  Elec       q    Type
                         _______ _______ _______ _____ _____    ______ ____

>  <TORSDO>
F 4

$$$$
