=
 OpenBabel11062410523D

 32 37  0  0  1  0  0  0  0  0999 V2000
  162.3120  208.3660  150.5950 C   0  0  2  0  0  3  0  0  0  0  0  0
  161.8620  205.8230  153.4440 C   0  0  0  0  0  3  0  0  0  0  0  0
  161.0330  206.6000  154.2760 C   0  0  0  0  0  3  0  0  0  0  0  0
  161.6310  210.7850  150.0220 N   0  0  0  0  0  0  0  0  0  0  0  0
  160.9230  211.8680  150.4430 C   0  0  0  0  0  0  0  0  0  0  0  0
  159.6520  213.1330  151.7180 C   0  0  0  0  0  0  0  0  0  0  0  0
  162.3240  206.3340  152.2210 C   0  0  0  0  0  3  0  0  0  0  0  0
  161.9400  207.6250  151.8500 C   0  0  0  0  0  0  0  0  0  0  0  0
  160.9120  209.6670  152.0540 C   0  0  0  0  0  0  0  0  0  0  0  0
  160.0210  213.8180  150.6050 N   0  0  0  0  0  0  0  0  0  0  0  0
  160.7930  213.0560  149.8290 N   0  0  0  0  0  0  0  0  0  0  0  0
  160.6570  207.8970  153.8960 C   0  0  0  0  0  3  0  0  0  0  0  0
  161.1270  208.3820  152.6750 C   0  0  0  0  0  0  0  0  0  0  0  0
  160.1770  210.7670  152.5240 C   0  0  0  0  0  3  0  0  0  0  0  0
  162.3790  210.8090  148.7740 C   0  0  0  0  0  1  0  0  0  0  0  0
  158.7940  213.6920  152.7970 C   0  0  0  0  0  1  0  0  0  0  0  0
  161.6100  209.6790  150.8350 C   0  0  0  0  0  0  0  0  0  0  0  0
  160.1960  211.8740  151.6790 C   0  0  0  0  0  0  0  0  0  0  0  0
  162.9330  204.9710  146.9650 O   0  0  0  0  0  0  0  0  0  0  0  0
  160.5600  206.1150  148.1840 C   0  0  1  0  0  3  0  0  0  0  0  0
  162.3250  207.7100  148.2470 N   0  0  0  0  0  0  0  0  0  0  0  0
  162.3910  206.1150  146.3490 C   0  0  0  0  0  2  0  0  0  0  0  0
  161.7460  207.6680  149.3960 C   0  0  0  0  0  0  0  0  0  0  0  0
  161.8800  204.0950  147.3130 C   0  0  1  0  0  3  0  0  0  0  0  0
  161.5310  206.9340  147.3110 C   0  0  1  0  0  3  0  0  0  0  0  0
  161.0240  204.6740  148.4350 C   0  0  0  0  0  2  0  0  0  0  0  0
  160.6130  206.8130  149.4550 N   0  0  0  0  0  2  0  0  0  0  0  0
  161.0460  203.6170  146.1230 C   0  0  0  0  0  2  0  0  0  0  0  0
  161.2070  202.1840  145.9510 N   0  0  0  0  0  2  0  0  0  0  0  0
  160.4200  201.5480  146.9930 C   0  0  0  0  0  2  0  0  0  0  0  0
  161.3140  200.6840  147.8650 C   0  0  0  0  0  2  0  0  0  0  0  0
  161.1080  201.0230  149.3280 C   0  0  0  0  0  1  0  0  0  0  0  0
  1 23  1  6  0  0  0
  1 17  1  0  0  0  0
  1  8  1  0  0  0  0
  2  3  1  0  0  0  0
  4  5  1  0  0  0  0
  4 17  1  0  0  0  0
  5 18  1  0  0  0  0
  6 16  1  0  0  0  0
  7  2  2  0  0  0  0
  8  7  1  0  0  0  0
  8 13  2  0  0  0  0
  9 14  1  0  0  0  0
  9 13  1  0  0  0  0
 10  6  2  0  0  0  0
 11  5  2  0  0  0  0
 11 10  1  0  0  0  0
 12  3  2  0  0  0  0
 13 12  1  0  0  0  0
 15  4  1  0  0  0  0
 17  9  2  0  0  0  0
 18  6  1  0  0  0  0
 18 14  2  0  0  0  0
 19 24  1  0  0  0  0
 20 26  1  1  0  0  0
 20 27  1  0  0  0  0
 21 23  2  0  0  0  0
 22 19  1  0  0  0  0
 23 27  1  0  0  0  0
 24 28  1  6  0  0  0
 24 26  1  0  0  0  0
 25 22  1  1  0  0  0
 25 20  1  0  0  0  0
 25 21  1  0  0  0  0
 29 28  1  0  0  0  0
 29 30  1  0  0  0  0
 30 31  1  0  0  0  0
 31 32  1  0  0  0  0
M  END
>  <MODEL>
1

>  <REMARK>
 VINA RESULT:      -8.8      0.000      0.000
  Name = 
  5 active torsions:
  status: ('A' for Active; 'I' for Inactive)
    1  A    between atoms: C_1  and  C_20
    2  A    between atoms: C_3  and  C_14
    3  A    between atoms: N_10  and  C_20
    4  A    between atoms: N_10  and  C_24
    5  A    between atoms: C_19  and  C_24
                            x       y       z     vdW  Elec       q    Type
                         _______ _______ _______ _____ _____    ______ ____

>  <TORSDO>
F 5

$$$$
=
 OpenBabel11062410523D

 32 37  0  0  1  0  0  0  0  0999 V2000
  161.9670  208.7420  152.3150 C   0  0  2  0  0  3  0  0  0  0  0  0
  162.3040  211.2120  149.3880 C   0  0  0  0  0  3  0  0  0  0  0  0
  162.0290  210.3160  148.3370 C   0  0  0  0  0  3  0  0  0  0  0  0
  161.5230  206.2320  152.7000 N   0  0  0  0  0  0  0  0  0  0  0  0
  161.2400  205.0490  152.0900 C   0  0  0  0  0  0  0  0  0  0  0  0
  160.8300  203.6020  150.4840 C   0  0  0  0  0  0  0  0  0  0  0  0
  162.3040  210.7700  150.7200 C   0  0  0  0  0  3  0  0  0  0  0  0
  162.0220  209.4260  150.9770 C   0  0  0  0  0  0  0  0  0  0  0  0
  161.5220  207.2390  150.4910 C   0  0  0  0  0  0  0  0  0  0  0  0
  160.8200  202.9740  151.6880 N   0  0  0  0  0  0  0  0  0  0  0  0
  161.0690  203.8460  152.6660 N   0  0  0  0  0  0  0  0  0  0  0  0
  161.7510  208.9670  148.6060 C   0  0  0  0  0  3  0  0  0  0  0  0
  161.7550  208.5520  149.9380 C   0  0  0  0  0  0  0  0  0  0  0  0
  161.2370  206.0350  149.8260 C   0  0  0  0  0  3  0  0  0  0  0  0
  161.6880  206.3180  154.1430 C   0  0  0  0  0  1  0  0  0  0  0  0
  160.5930  202.9190  149.1840 C   0  0  0  0  0  1  0  0  0  0  0  0
  161.6530  207.3290  151.8860 C   0  0  0  0  0  0  0  0  0  0  0  0
  161.0930  204.9360  150.6680 C   0  0  0  0  0  0  0  0  0  0  0  0
  160.5050  212.0480  155.7820 O   0  0  0  0  0  0  0  0  0  0  0  0
  159.0610  210.6410  153.6940 C   0  0  1  0  0  3  0  0  0  0  0  0
  160.8870  209.3020  154.4270 N   0  0  0  0  0  0  0  0  0  0  0  0
  159.9160  210.8170  156.1340 C   0  0  0  0  0  2  0  0  0  0  0  0
  160.8530  209.3100  153.1400 C   0  0  0  0  0  0  0  0  0  0  0  0
  159.5900  212.7860  154.9970 C   0  0  1  0  0  3  0  0  0  0  0  0
  159.6710  209.9270  154.9160 C   0  0  1  0  0  3  0  0  0  0  0  0
  159.3840  212.1400  153.6310 C   0  0  0  0  0  2  0  0  0  0  0  0
  159.7470  210.0050  152.5830 N   0  0  0  0  0  2  0  0  0  0  0  0
  158.2720  213.1010  155.7060 C   0  0  0  0  0  2  0  0  0  0  0  0
  157.2860  213.5510  154.7390 N   0  0  0  0  0  2  0  0  0  0  0  0
  156.0100  212.9960  155.1540 C   0  0  0  0  0  2  0  0  0  0  0  0
  156.2300  211.7100  155.9310 C   0  0  0  0  0  2  0  0  0  0  0  0
  155.5790  210.5450  155.2130 C   0  0  0  0  0  1  0  0  0  0  0  0
  1 23  1  1  0  0  0
  2  7  1  0  0  0  0
  3 12  1  0  0  0  0
  3  2  2  0  0  0  0
  4 15  1  0  0  0  0
  5 11  2  0  0  0  0
  5  4  1  0  0  0  0
  6 18  1  0  0  0  0
  6 10  2  0  0  0  0
  7  8  2  0  0  0  0
  8  1  1  0  0  0  0
  9 17  2  0  0  0  0
 10 11  1  0  0  0  0
 12 13  2  0  0  0  0
 13  9  1  0  0  0  0
 13  8  1  0  0  0  0
 14  9  1  0  0  0  0
 14 18  2  0  0  0  0
 16  6  1  0  0  0  0
 17  1  1  0  0  0  0
 17  4  1  0  0  0  0
 18  5  1  0  0  0  0
 19 22  1  0  0  0  0
 20 26  1  1  0  0  0
 20 25  1  0  0  0  0
 21 25  1  0  0  0  0
 23 21  2  0  0  0  0
 24 28  1  1  0  0  0
 24 19  1  0  0  0  0
 25 22  1  1  0  0  0
 26 24  1  0  0  0  0
 27 23  1  0  0  0  0
 27 20  1  0  0  0  0
 29 30  1  0  0  0  0
 29 28  1  0  0  0  0
 30 31  1  0  0  0  0
 32 31  1  0  0  0  0
M  END
>  <MODEL>
2

>  <REMARK>
 VINA RESULT:      -7.5      3.416      8.854
  Name = 
  5 active torsions:
  status: ('A' for Active; 'I' for Inactive)
    1  A    between atoms: C_1  and  C_20
    2  A    between atoms: C_3  and  C_14
    3  A    between atoms: N_10  and  C_20
    4  A    between atoms: N_10  and  C_24
    5  A    between atoms: C_19  and  C_24
                            x       y       z     vdW  Elec       q    Type
                         _______ _______ _______ _____ _____    ______ ____

>  <TORSDO>
F 5

$$$$
=
 OpenBabel11062410523D

 32 37  0  0  1  0  0  0  0  0999 V2000
  162.3250  208.2750  150.5790 C   0  0  2  0  0  3  0  0  0  0  0  0
  161.8680  205.7830  153.4720 C   0  0  0  0  0  3  0  0  0  0  0  0
  161.0460  206.5790  154.2930 C   0  0  0  0  0  3  0  0  0  0  0  0
  161.6560  210.6880  149.9680 N   0  0  0  0  0  0  0  0  0  0  0  0
  160.9560  211.7830  150.3740 C   0  0  0  0  0  0  0  0  0  0  0  0
  159.6960  213.0760  151.6310 C   0  0  0  0  0  0  0  0  0  0  0  0
  162.3290  206.2710  152.2390 C   0  0  0  0  0  3  0  0  0  0  0  0
  161.9520  207.5570  151.8480 C   0  0  0  0  0  0  0  0  0  0  0  0
  160.9370  209.6090  152.0200 C   0  0  0  0  0  0  0  0  0  0  0  0
  160.0660  213.7400  150.5050 N   0  0  0  0  0  0  0  0  0  0  0  0
  160.8310  212.9610  149.7400 N   0  0  0  0  0  0  0  0  0  0  0  0
  160.6760  207.8710  153.8920 C   0  0  0  0  0  3  0  0  0  0  0  0
  161.1460  208.3330  152.6620 C   0  0  0  0  0  0  0  0  0  0  0  0
  160.2090  210.7210  152.4750 C   0  0  0  0  0  3  0  0  0  0  0  0
  162.4010  210.6870  148.7180 C   0  0  0  0  0  1  0  0  0  0  0  0
  158.8450  213.6580  152.7030 C   0  0  0  0  0  1  0  0  0  0  0  0
  161.6310  209.5970  150.8000 C   0  0  0  0  0  0  0  0  0  0  0  0
  160.2330  211.8130  151.6110 C   0  0  0  0  0  0  0  0  0  0  0  0
  163.0150  205.0260  146.8300 O   0  0  0  0  0  0  0  0  0  0  0  0
  160.6290  205.9440  148.2040 C   0  0  1  0  0  3  0  0  0  0  0  0
  162.2600  207.6770  148.2170 N   0  0  0  0  0  0  0  0  0  0  0  0
  162.3490  206.1370  146.2750 C   0  0  0  0  0  2  0  0  0  0  0  0
  161.7510  207.5610  149.3940 C   0  0  0  0  0  0  0  0  0  0  0  0
  162.0560  204.0590  147.2100 C   0  0  1  0  0  3  0  0  0  0  0  0
  161.4810  206.8600  147.3040 C   0  0  1  0  0  3  0  0  0  0  0  0
  161.2210  204.5410  148.3910 C   0  0  0  0  0  2  0  0  0  0  0  0
  160.6960  206.6160  149.4900 N   0  0  0  0  0  2  0  0  0  0  0  0
  161.2000  203.5420  146.0530 C   0  0  0  0  0  2  0  0  0  0  0  0
  160.5620  202.2940  146.4300 N   0  0  0  0  0  2  0  0  0  0  0  0
  160.0810  201.6830  145.2030 C   0  0  0  0  0  2  0  0  0  0  0  0
  159.7130  202.7580  144.1970 C   0  0  0  0  0  2  0  0  0  0  0  0
  158.3430  203.3260  144.5110 C   0  0  0  0  0  1  0  0  0  0  0  0
  1 23  1  6  0  0  0
  1 17  1  0  0  0  0
  1  8  1  0  0  0  0
  2  3  1  0  0  0  0
  4  5  1  0  0  0  0
  4 17  1  0  0  0  0
  5 18  1  0  0  0  0
  6 16  1  0  0  0  0
  7  2  2  0  0  0  0
  8  7  1  0  0  0  0
  8 13  2  0  0  0  0
  9 14  1  0  0  0  0
  9 13  1  0  0  0  0
 10  6  2  0  0  0  0
 11  5  2  0  0  0  0
 11 10  1  0  0  0  0
 12  3  2  0  0  0  0
 13 12  1  0  0  0  0
 15  4  1  0  0  0  0
 17  9  2  0  0  0  0
 18  6  1  0  0  0  0
 18 14  2  0  0  0  0
 19 24  1  0  0  0  0
 20 26  1  1  0  0  0
 20 27  1  0  0  0  0
 21 23  2  0  0  0  0
 22 19  1  0  0  0  0
 23 27  1  0  0  0  0
 24 28  1  6  0  0  0
 24 26  1  0  0  0  0
 25 22  1  6  0  0  0
 25 20  1  0  0  0  0
 25 21  1  0  0  0  0
 28 29  1  0  0  0  0
 30 29  1  0  0  0  0
 31 32  1  0  0  0  0
 31 30  1  0  0  0  0
M  END
>  <MODEL>
3

>  <REMARK>
 VINA RESULT:      -6.6      0.924      1.380
  Name = 
  5 active torsions:
  status: ('A' for Active; 'I' for Inactive)
    1  A    between atoms: C_1  and  C_20
    2  A    between atoms: C_3  and  C_14
    3  A    between atoms: N_10  and  C_20
    4  A    between atoms: N_10  and  C_24
    5  A    between atoms: C_19  and  C_24
                            x       y       z     vdW  Elec       q    Type
                         _______ _______ _______ _____ _____    ______ ____

>  <TORSDO>
F 5

$$$$
=
 OpenBabel11062410523D

 32 37  0  0  1  0  0  0  0  0999 V2000
  161.8680  208.9390  151.3900 C   0  0  2  0  0  3  0  0  0  0  0  0
  161.3980  206.6040  154.4090 C   0  0  0  0  0  3  0  0  0  0  0  0
  160.5240  207.4180  155.1560 C   0  0  0  0  0  3  0  0  0  0  0  0
  161.1430  211.2890  150.6170 N   0  0  0  0  0  0  0  0  0  0  0  0
  160.3950  212.3800  150.9360 C   0  0  0  0  0  0  0  0  0  0  0  0
  159.0530  213.7000  152.0750 C   0  0  0  0  0  0  0  0  0  0  0  0
  161.8830  207.0350  153.1640 C   0  0  0  0  0  3  0  0  0  0  0  0
  161.4770  208.2840  152.6860 C   0  0  0  0  0  0  0  0  0  0  0  0
  160.3910  210.3060  152.7060 C   0  0  0  0  0  0  0  0  0  0  0  0
  159.4380  214.3100  150.9240 N   0  0  0  0  0  0  0  0  0  0  0  0
  160.2520  213.5140  150.2300 N   0  0  0  0  0  0  0  0  0  0  0  0
  160.1260  208.6720  154.6690 C   0  0  0  0  0  3  0  0  0  0  0  0
  160.6200  209.0770  153.4280 C   0  0  0  0  0  0  0  0  0  0  0  0
  159.6140  211.4170  153.0720 C   0  0  0  0  0  3  0  0  0  0  0  0
  161.9270  211.2410  149.3930 C   0  0  0  0  0  1  0  0  0  0  0  0
  158.1490  214.3140  153.0840 C   0  0  0  0  0  1  0  0  0  0  0  0
  161.1260  210.2470  151.5110 C   0  0  0  0  0  0  0  0  0  0  0  0
  159.6300  212.4580  152.1460 C   0  0  0  0  0  0  0  0  0  0  0  0
  162.8570  205.7270  147.6760 O   0  0  0  0  0  0  0  0  0  0  0  0
  160.4110  206.3750  149.0980 C   0  0  1  0  0  3  0  0  0  0  0  0
  161.8200  208.2930  149.0400 N   0  0  0  0  0  0  0  0  0  0  0  0
  162.0480  206.7380  147.1220 C   0  0  0  0  0  2  0  0  0  0  0  0
  161.3570  208.1390  150.2320 C   0  0  0  0  0  0  0  0  0  0  0  0
  162.0330  204.6590  148.0960 C   0  0  1  0  0  3  0  0  0  0  0  0
  161.1240  207.3710  148.1610 C   0  0  1  0  0  3  0  0  0  0  0  0
  161.1740  205.0570  149.2920 C   0  0  0  0  0  2  0  0  0  0  0  0
  160.4270  207.0740  150.3710 N   0  0  0  0  0  2  0  0  0  0  0  0
  161.2170  204.0190  146.9710 C   0  0  0  0  0  2  0  0  0  0  0  0
  161.3550  202.5750  147.0200 N   0  0  0  0  0  2  0  0  0  0  0  0
  160.2530  202.0780  147.8240 C   0  0  0  0  0  2  0  0  0  0  0  0
  160.7770  201.1610  148.9150 C   0  0  0  0  0  2  0  0  0  0  0  0
  160.8460  201.9020  150.2360 C   0  0  0  0  0  1  0  0  0  0  0  0
  1 23  1  6  0  0  0
  1 17  1  0  0  0  0
  1  8  1  0  0  0  0
  2  3  1  0  0  0  0
  4  5  1  0  0  0  0
  4 17  1  0  0  0  0
  5 18  1  0  0  0  0
  6 18  1  0  0  0  0
  6 16  1  0  0  0  0
  7  2  2  0  0  0  0
  8  7  1  0  0  0  0
  8 13  2  0  0  0  0
  9 14  1  0  0  0  0
  9 13  1  0  0  0  0
 10  6  2  0  0  0  0
 11 10  1  0  0  0  0
 11  5  2  0  0  0  0
 12  3  2  0  0  0  0
 13 12  1  0  0  0  0
 15  4  1  0  0  0  0
 17  9  2  0  0  0  0
 18 14  2  0  0  0  0
 19 24  1  0  0  0  0
 20 26  1  1  0  0  0
 20 27  1  0  0  0  0
 21 23  2  0  0  0  0
 22 19  1  0  0  0  0
 23 27  1  0  0  0  0
 24 28  1  6  0  0  0
 24 26  1  0  0  0  0
 25 22  1  6  0  0  0
 25 21  1  0  0  0  0
 25 20  1  0  0  0  0
 28 29  1  0  0  0  0
 29 30  1  0  0  0  0
 30 31  1  0  0  0  0
 31 32  1  0  0  0  0
M  END
>  <MODEL>
4

>  <REMARK>
 VINA RESULT:      -6.4      0.937      1.055
  Name = 
  5 active torsions:
  status: ('A' for Active; 'I' for Inactive)
    1  A    between atoms: C_1  and  C_20
    2  A    between atoms: C_3  and  C_14
    3  A    between atoms: N_10  and  C_20
    4  A    between atoms: N_10  and  C_24
    5  A    between atoms: C_19  and  C_24
                            x       y       z     vdW  Elec       q    Type
                         _______ _______ _______ _____ _____    ______ ____

>  <TORSDO>
F 5

$$$$
=
 OpenBabel11062410523D

 32 37  0  0  1  0  0  0  0  0999 V2000
  161.2180  210.7620  153.3030 C   0  0  2  0  0  3  0  0  0  0  0  0
  161.6060  208.8990  156.6440 C   0  0  0  0  0  3  0  0  0  0  0  0
  160.4200  209.3430  157.2600 C   0  0  0  0  0  3  0  0  0  0  0  0
  159.6010  212.4260  152.1820 N   0  0  0  0  0  0  0  0  0  0  0  0
  158.4360  213.1140  152.3310 C   0  0  0  0  0  0  0  0  0  0  0  0
  156.5850  213.8590  153.2580 C   0  0  0  0  0  0  0  0  0  0  0  0
  161.9370  209.3210  155.3480 C   0  0  0  0  0  3  0  0  0  0  0  0
  161.0650  210.1880  154.6850 C   0  0  0  0  0  0  0  0  0  0  0  0
  159.2130  211.5140  154.3980 C   0  0  0  0  0  0  0  0  0  0  0  0
  156.7420  214.4110  152.0260 N   0  0  0  0  0  0  0  0  0  0  0  0
  157.8640  213.9630  151.4600 N   0  0  0  0  0  0  0  0  0  0  0  0
  159.5530  210.2170  156.5870 C   0  0  0  0  0  3  0  0  0  0  0  0
  159.9030  210.6210  155.2990 C   0  0  0  0  0  0  0  0  0  0  0  0
  158.0100  212.2130  154.5900 C   0  0  0  0  0  3  0  0  0  0  0  0
  160.4070  212.5570  150.9780 C   0  0  0  0  0  1  0  0  0  0  0  0
  155.4400  214.1490  154.1630 C   0  0  0  0  0  1  0  0  0  0  0  0
  159.9770  211.6170  153.2240 C   0  0  0  0  0  0  0  0  0  0  0  0
  157.6360  213.0170  153.5170 C   0  0  0  0  0  0  0  0  0  0  0  0
  163.1280  206.4470  151.6220 O   0  0  0  0  0  0  0  0  0  0  0  0
  160.5360  207.7050  151.2690 C   0  0  1  0  0  3  0  0  0  0  0  0
  162.1960  209.3880  151.5440 N   0  0  0  0  0  0  0  0  0  0  0  0
  162.9730  207.2780  150.4960 C   0  0  0  0  0  2  0  0  0  0  0  0
  161.1790  209.6670  152.2820 C   0  0  0  0  0  0  0  0  0  0  0  0
  161.9760  205.6400  151.7590 C   0  0  1  0  0  3  0  0  0  0  0  0
  161.8350  208.2830  150.6740 C   0  0  1  0  0  3  0  0  0  0  0  0
  160.7590  206.4700  152.1520 C   0  0  0  0  0  2  0  0  0  0  0  0
  160.0810  208.7780  152.1340 N   0  0  0  0  0  2  0  0  0  0  0  0
  161.7070  204.7300  150.5590 C   0  0  0  0  0  2  0  0  0  0  0  0
  161.2800  203.4200  151.0180 N   0  0  0  0  0  2  0  0  0  0  0  0
  160.1540  203.0330  150.1860 C   0  0  0  0  0  2  0  0  0  0  0  0
  160.2950  201.5810  149.7640 C   0  0  0  0  0  2  0  0  0  0  0  0
  161.2240  201.4680  148.5710 C   0  0  0  0  0  1  0  0  0  0  0  0
  1 23  1  6  0  0  0
  1  8  1  0  0  0  0
  2  3  1  0  0  0  0
  4  5  1  0  0  0  0
  4 17  1  0  0  0  0
  5 18  1  0  0  0  0
  6 18  1  0  0  0  0
  6 16  1  0  0  0  0
  7  2  2  0  0  0  0
  8 13  2  0  0  0  0
  8  7  1  0  0  0  0
  9 14  1  0  0  0  0
  9 13  1  0  0  0  0
 10  6  2  0  0  0  0
 11 10  1  0  0  0  0
 11  5  2  0  0  0  0
 12  3  2  0  0  0  0
 13 12  1  0  0  0  0
 15  4  1  0  0  0  0
 17  1  1  0  0  0  0
 17  9  2  0  0  0  0
 18 14  2  0  0  0  0
 19 24  1  0  0  0  0
 20 27  1  0  0  0  0
 20 26  1  1  0  0  0
 21 23  2  0  0  0  0
 22 19  1  0  0  0  0
 24 28  1  6  0  0  0
 24 26  1  0  0  0  0
 25 22  1  1  0  0  0
 25 20  1  0  0  0  0
 25 21  1  0  0  0  0
 27 23  1  0  0  0  0
 28 29  1  0  0  0  0
 30 29  1  0  0  0  0
 31 30  1  0  0  0  0
 32 31  1  0  0  0  0
M  END
>  <MODEL>
5

>  <REMARK>
 VINA RESULT:      -5.9      2.497      3.776
  Name = 
  5 active torsions:
  status: ('A' for Active; 'I' for Inactive)
    1  A    between atoms: C_1  and  C_20
    2  A    between atoms: C_3  and  C_14
    3  A    between atoms: N_10  and  C_20
    4  A    between atoms: N_10  and  C_24
    5  A    between atoms: C_19  and  C_24
                            x       y       z     vdW  Elec       q    Type
                         _______ _______ _______ _____ _____    ______ ____

>  <TORSDO>
F 5

$$$$
=
 OpenBabel11062410523D

 32 37  0  0  1  0  0  0  0  0999 V2000
  161.9680  207.9020  151.4370 C   0  0  2  0  0  3  0  0  0  0  0  0
  160.9100  207.0030  155.0230 C   0  0  0  0  0  3  0  0  0  0  0  0
  160.3230  208.2340  155.3730 C   0  0  0  0  0  3  0  0  0  0  0  0
  161.9330  209.9340  149.8510 N   0  0  0  0  0  0  0  0  0  0  0  0
  161.5390  211.2290  149.7150 C   0  0  0  0  0  0  0  0  0  0  0  0
  160.6590  213.1810  150.2210 C   0  0  0  0  0  0  0  0  0  0  0  0
  161.4720  206.8170  153.7500 C   0  0  0  0  0  3  0  0  0  0  0  0
  161.4330  207.8790  152.8430 C   0  0  0  0  0  0  0  0  0  0  0  0
  160.9760  209.9950  152.0810 C   0  0  0  0  0  0  0  0  0  0  0  0
  161.1780  213.2170  148.9660 N   0  0  0  0  0  0  0  0  0  0  0  0
  161.7140  212.0360  148.6550 N   0  0  0  0  0  0  0  0  0  0  0  0
  160.2930  209.2950  154.4550 C   0  0  0  0  0  3  0  0  0  0  0  0
  160.8570  209.0860  153.1960 C   0  0  0  0  0  0  0  0  0  0  0  0
  160.5590  211.3330  151.9800 C   0  0  0  0  0  3  0  0  0  0  0  0
  162.6440  209.2440  148.7850 C   0  0  0  0  0  1  0  0  0  0  0  0
  159.9910  214.3340  150.8820 C   0  0  0  0  0  1  0  0  0  0  0  0
  161.6370  209.3200  151.0420 C   0  0  0  0  0  0  0  0  0  0  0  0
  160.8550  211.9350  150.7590 C   0  0  0  0  0  0  0  0  0  0  0  0
  162.1370  204.3330  147.9260 O   0  0  0  0  0  0  0  0  0  0  0  0
  160.1880  204.9570  149.9850 C   0  0  1  0  0  3  0  0  0  0  0  0
  161.2750  206.9590  149.2980 N   0  0  0  0  0  0  0  0  0  0  0  0
  161.0840  205.1960  147.5650 C   0  0  0  0  0  2  0  0  0  0  0  0
  161.2230  206.9210  150.5840 C   0  0  0  0  0  0  0  0  0  0  0  0
  161.6130  203.2640  148.6880 C   0  0  1  0  0  3  0  0  0  0  0  0
  160.4560  205.8790  148.7800 C   0  0  1  0  0  3  0  0  0  0  0  0
  161.1220  203.7410  150.0510 C   0  0  0  0  0  2  0  0  0  0  0  0
  160.5130  205.8110  151.1140 N   0  0  0  0  0  2  0  0  0  0  0  0
  160.5720  202.4220  147.9470 C   0  0  0  0  0  2  0  0  0  0  0  0
  161.2060  201.2550  147.3620 N   0  0  0  0  0  2  0  0  0  0  0  0
  160.6770  201.1220  146.0160 C   0  0  0  0  0  2  0  0  0  0  0  0
  160.7750  202.4490  145.2860 C   0  0  0  0  0  2  0  0  0  0  0  0
  159.5010  202.7180  144.5090 C   0  0  0  0  0  1  0  0  0  0  0  0
  1 23  1  6  0  0  0
  1  8  1  0  0  0  0
  2  3  1  0  0  0  0
  4 17  1  0  0  0  0
  5  4  1  0  0  0  0
  5 18  1  0  0  0  0
  6 18  1  0  0  0  0
  6 16  1  0  0  0  0
  7  2  2  0  0  0  0
  8 13  2  0  0  0  0
  8  7  1  0  0  0  0
  9 13  1  0  0  0  0
 10  6  2  0  0  0  0
 11 10  1  0  0  0  0
 11  5  2  0  0  0  0
 12  3  2  0  0  0  0
 13 12  1  0  0  0  0
 14  9  1  0  0  0  0
 15  4  1  0  0  0  0
 17  1  1  0  0  0  0
 17  9  2  0  0  0  0
 18 14  2  0  0  0  0
 19 24  1  0  0  0  0
 20 26  1  6  0  0  0
 20 27  1  0  0  0  0
 21 23  2  0  0  0  0
 22 19  1  0  0  0  0
 23 27  1  0  0  0  0
 24 28  1  6  0  0  0
 24 26  1  0  0  0  0
 25 22  1  6  0  0  0
 25 21  1  0  0  0  0
 25 20  1  0  0  0  0
 29 28  1  0  0  0  0
 30 29  1  0  0  0  0
 31 30  1  0  0  0  0
 32 31  1  0  0  0  0
M  END
>  <MODEL>
6

>  <REMARK>
 VINA RESULT:      -5.8      1.343      1.931
  Name = 
  5 active torsions:
  status: ('A' for Active; 'I' for Inactive)
    1  A    between atoms: C_1  and  C_20
    2  A    between atoms: C_3  and  C_14
    3  A    between atoms: N_10  and  C_20
    4  A    between atoms: N_10  and  C_24
    5  A    between atoms: C_19  and  C_24
                            x       y       z     vdW  Elec       q    Type
                         _______ _______ _______ _____ _____    ______ ____

>  <TORSDO>
F 5

$$$$
