=
 OpenBabel11062410433D

 32 36  0  0  1  0  0  0  0  0999 V2000
  161.2070  209.8110  152.8040 C   0  0  2  0  0  3  0  0  0  0  0  0
  157.2870  211.7120  154.2220 C   0  0  0  0  0  2  0  0  0  0  0  0
  157.8620  212.6650  155.2820 C   0  0  0  0  0  2  0  0  0  0  0  0
  157.9670  211.8930  152.8650 C   0  0  0  0  0  2  0  0  0  0  0  0
  159.7020  210.0800  152.7550 C   0  0  0  0  0  2  0  0  0  0  0  0
  159.4620  211.5660  152.9460 C   0  0  2  0  0  3  0  0  0  0  0  0
  161.1300  211.4590  154.7310 N   0  0  0  0  0  0  0  0  0  0  0  0
  159.3390  213.0390  155.0740 C   0  0  0  0  0  2  0  0  0  0  0  0
  160.0610  212.0070  154.2600 C   0  0  0  0  0  0  0  0  0  0  0  0
  161.8650  210.3810  154.0800 C   0  0  1  0  0  3  0  0  0  0  0  0
  162.2950  209.3180  155.1140 C   0  0  1  0  0  3  0  0  0  0  0  0
  162.4890  209.8230  156.5560 C   0  0  2  0  0  3  0  0  0  0  0  0
  160.0790  208.2970  155.8350 C   0  0  2  0  0  3  0  0  0  0  0  0
  160.3250  208.7860  157.2610 C   0  0  0  0  0  2  0  0  0  0  0  0
  161.1580  210.0650  157.2610 C   0  0  0  0  0  2  0  0  0  0  0  0
  161.1900  207.6290  153.7940 O   0  0  0  0  0  1  0  0  0  0  0  0
  163.2800  210.9710  156.5970 O   0  0  0  0  0  1  0  0  0  0  0  0
  159.2680  207.0160  155.8910 C   0  0  0  0  0  1  0  0  0  0  0  0
  161.4100  208.0600  155.1060 C   0  0  1  0  0  3  0  0  0  0  0  0
  161.8370  210.3550  151.6770 O   0  0  0  0  0  0  0  0  0  0  0  0
  161.5060  207.3640  148.5860 C   0  0  0  0  0  2  0  0  0  0  0  0
  162.1120  209.2570  150.8530 C   0  0  2  0  0  3  0  0  0  0  0  0
  162.2440  210.8530  149.0690 O   0  0  0  0  0  0  0  0  0  0  0  0
  162.0710  208.6630  148.4010 O   0  0  0  0  0  0  0  0  0  0  0  0
  162.1030  209.6460  149.4010 C   0  0  0  0  0  0  0  0  0  0  0  0
  160.9170  207.9270  151.1770 S   0  0  0  0  0  0  0  0  0  0  0  0
  161.7580  206.8400  149.9900 C   0  0  1  0  0  3  0  0  0  0  0  0
  160.8020  204.3600  150.2550 C   0  0  0  0  0  0  0  0  0  0  0  0
  161.2500  205.4740  150.1200 C   0  0  0  0  0  0  0  0  0  0  0  0
  160.2470  203.0170  150.4340 C   0  0  0  0  0  3  0  0  0  0  0  0
  161.3750  202.0610  150.7750 C   0  0  0  0  0  2  0  0  0  0  0  0
  160.8100  202.0990  149.3710 C   0  0  0  0  0  2  0  0  0  0  0  0
  1 20  1  6  0  0  0
  1 10  1  0  0  0  0
  2  3  1  0  0  0  0
  4  6  1  0  0  0  0
  4  2  1  0  0  0  0
  5  1  1  0  0  0  0
  6  5  1  1  0  0  0
  6  9  1  0  0  0  0
  8  3  1  0  0  0  0
  9  7  2  0  0  0  0
  9  8  1  0  0  0  0
 10  7  1  1  0  0  0
 11 10  1  6  0  0  0
 11 12  1  0  0  0  0
 12 17  1  6  0  0  0
 12 15  1  0  0  0  0
 13 18  1  1  0  0  0
 13 14  1  0  0  0  0
 15 14  1  0  0  0  0
 19 16  1  6  0  0  0
 19 11  1  0  0  0  0
 19 13  1  0  0  0  0
 21 27  1  0  0  0  0
 22 26  1  0  0  0  0
 22 20  1  1  0  0  0
 23 25  2  0  0  0  0
 24 21  1  0  0  0  0
 24 25  1  0  0  0  0
 25 22  1  0  0  0  0
 27 29  1  6  0  0  0
 27 26  1  0  0  0  0
 28 30  1  0  0  0  0
 29 28  3  0  0  0  0
 30 31  1  0  0  0  0
 32 30  1  0  0  0  0
 32 31  1  0  0  0  0
M  END
>  <MODEL>
1

>  <REMARK>
 VINA RESULT:      -7.3      0.000      0.000
  Name = 
  5 active torsions:
  status: ('A' for Active; 'I' for Inactive)
    1  A    between atoms: C_1  and  C_10
    2  A    between atoms: C_3  and  O_28
    3  A    between atoms: C_6  and  C_31
    4  A    between atoms: C_8  and  O_28
    5  A    between atoms: C_19  and  C_24
                            x       y       z     vdW  Elec       q    Type
                         _______ _______ _______ _____ _____    ______ ____

>  <TORSDO>
F 5

$$$$
=
 OpenBabel11062410433D

 32 36  0  0  1  0  0  0  0  0999 V2000
  160.6170  210.5320  152.2850 C   0  0  2  0  0  3  0  0  0  0  0  0
  157.4370  213.4740  150.7920 C   0  0  0  0  0  2  0  0  0  0  0  0
  157.4540  214.4530  151.9770 C   0  0  0  0  0  2  0  0  0  0  0  0
  158.8360  213.2510  150.2180 C   0  0  0  0  0  2  0  0  0  0  0  0
  159.6400  211.1120  151.2610 C   0  0  0  0  0  2  0  0  0  0  0  0
  159.7690  212.6230  151.2580 C   0  0  2  0  0  3  0  0  0  0  0  0
  159.8130  212.4780  153.6990 N   0  0  0  0  0  0  0  0  0  0  0  0
  158.7560  214.4490  152.7940 C   0  0  0  0  0  2  0  0  0  0  0  0
  159.4970  213.1530  152.6460 C   0  0  0  0  0  0  0  0  0  0  0  0
  160.4480  211.1650  153.6830 C   0  0  1  0  0  3  0  0  0  0  0  0
  159.8010  210.2390  154.7360 C   0  0  1  0  0  3  0  0  0  0  0  0
  160.5830  210.0700  156.0530 C   0  0  2  0  0  3  0  0  0  0  0  0
  158.2010  211.7960  155.9570 C   0  0  2  0  0  3  0  0  0  0  0  0
  158.9840  211.5750  157.2500 C   0  0  0  0  0  2  0  0  0  0  0  0
  160.4550  211.2950  156.9540 C   0  0  0  0  0  2  0  0  0  0  0  0
  157.6300  210.7810  153.8380 O   0  0  0  0  0  1  0  0  0  0  0  0
  161.9250  209.7740  155.8200 O   0  0  0  0  0  1  0  0  0  0  0  0
  156.7460  212.0490  156.3040 C   0  0  0  0  0  1  0  0  0  0  0  0
  158.3300  210.5770  155.0310 C   0  0  1  0  0  3  0  0  0  0  0  0
  161.9380  210.7100  151.8540 O   0  0  0  0  0  0  0  0  0  0  0  0
  161.6860  207.4840  149.0010 C   0  0  0  0  0  2  0  0  0  0  0  0
  162.2370  209.5550  151.1210 C   0  0  2  0  0  3  0  0  0  0  0  0
  162.3760  211.0090  149.2200 O   0  0  0  0  0  0  0  0  0  0  0  0
  162.2380  208.7720  148.7220 O   0  0  0  0  0  0  0  0  0  0  0  0
  162.2440  209.8300  149.6430 C   0  0  0  0  0  0  0  0  0  0  0  0
  161.0530  208.2390  151.5310 S   0  0  0  0  0  0  0  0  0  0  0  0
  161.9230  207.0740  150.4440 C   0  0  1  0  0  3  0  0  0  0  0  0
  160.9960  204.5990  150.8300 C   0  0  0  0  0  0  0  0  0  0  0  0
  161.4300  205.7160  150.6730 C   0  0  0  0  0  0  0  0  0  0  0  0
  160.4560  203.2500  151.0050 C   0  0  0  0  0  3  0  0  0  0  0  0
  161.6070  202.2620  151.0520 C   0  0  0  0  0  2  0  0  0  0  0  0
  160.7900  202.4160  149.7870 C   0  0  0  0  0  2  0  0  0  0  0  0
  1 20  1  6  0  0  0
  1 10  1  0  0  0  0
  2  3  1  0  0  0  0
  3  8  1  0  0  0  0
  4  2  1  0  0  0  0
  5  1  1  0  0  0  0
  6  4  1  6  0  0  0
  6  5  1  0  0  0  0
  6  9  1  0  0  0  0
  9  8  1  0  0  0  0
  9  7  2  0  0  0  0
 10  7  1  6  0  0  0
 11 10  1  6  0  0  0
 11 19  1  0  0  0  0
 11 12  1  0  0  0  0
 12 17  1  6  0  0  0
 12 15  1  0  0  0  0
 13 18  1  1  0  0  0
 13 14  1  0  0  0  0
 15 14  1  0  0  0  0
 19 16  1  6  0  0  0
 19 13  1  0  0  0  0
 21 27  1  0  0  0  0
 22 26  1  0  0  0  0
 22 20  1  1  0  0  0
 23 25  2  0  0  0  0
 24 21  1  0  0  0  0
 24 25  1  0  0  0  0
 25 22  1  0  0  0  0
 27 29  1  6  0  0  0
 27 26  1  0  0  0  0
 28 30  1  0  0  0  0
 29 28  3  0  0  0  0
 30 31  1  0  0  0  0
 32 30  1  0  0  0  0
 32 31  1  0  0  0  0
M  END
>  <MODEL>
2

>  <REMARK>
 VINA RESULT:      -6.6      1.746      2.382
  Name = 
  5 active torsions:
  status: ('A' for Active; 'I' for Inactive)
    1  A    between atoms: C_1  and  C_10
    2  A    between atoms: C_3  and  O_28
    3  A    between atoms: C_6  and  C_31
    4  A    between atoms: C_8  and  O_28
    5  A    between atoms: C_19  and  C_24
                            x       y       z     vdW  Elec       q    Type
                         _______ _______ _______ _____ _____    ______ ____

>  <TORSDO>
F 5

$$$$
=
 OpenBabel11062410433D

 32 36  0  0  1  0  0  0  0  0999 V2000
  161.1350  209.2800  152.1190 C   0  0  2  0  0  3  0  0  0  0  0  0
  161.6160  206.4420  155.6850 C   0  0  0  0  0  2  0  0  0  0  0  0
  160.4500  206.9530  156.5460 C   0  0  0  0  0  2  0  0  0  0  0  0
  161.1650  206.0840  154.2690 C   0  0  0  0  0  2  0  0  0  0  0  0
  161.7360  208.0910  152.8710 C   0  0  0  0  0  2  0  0  0  0  0  0
  160.6170  207.3110  153.5340 C   0  0  2  0  0  3  0  0  0  0  0  0
  159.7000  209.4770  154.2010 N   0  0  0  0  0  0  0  0  0  0  0  0
  159.3400  207.6720  155.7610 C   0  0  0  0  0  2  0  0  0  0  0  0
  159.8510  208.2240  154.4630 C   0  0  0  0  0  0  0  0  0  0  0  0
  160.2320  210.1490  153.0210 C   0  0  1  0  0  3  0  0  0  0  0  0
  160.8310  211.5200  153.4030 C   0  0  1  0  0  3  0  0  0  0  0  0
  160.0150  212.7530  152.9710 C   0  0  2  0  0  3  0  0  0  0  0  0
  159.9860  211.8680  155.7780 C   0  0  2  0  0  3  0  0  0  0  0  0
  159.2180  213.1050  155.3160 C   0  0  0  0  0  2  0  0  0  0  0  0
  158.7900  212.9670  153.8570 C   0  0  0  0  0  2  0  0  0  0  0  0
  161.9120  210.4890  155.2950 O   0  0  0  0  0  1  0  0  0  0  0  0
  159.6400  212.6790  151.6300 O   0  0  0  0  0  1  0  0  0  0  0  0
  160.4050  212.0650  157.2230 C   0  0  0  0  0  1  0  0  0  0  0  0
  161.2160  211.6300  154.8880 C   0  0  1  0  0  3  0  0  0  0  0  0
  160.3960  208.8360  151.0160 O   0  0  0  0  0  0  0  0  0  0  0  0
  162.2850  206.5230  147.9020 C   0  0  0  0  0  2  0  0  0  0  0  0
  161.2440  207.9420  150.3490 C   0  0  2  0  0  3  0  0  0  0  0  0
  162.0890  209.8720  149.2050 O   0  0  0  0  0  0  0  0  0  0  0  0
  162.6510  207.8580  148.2570 O   0  0  0  0  0  0  0  0  0  0  0  0
  161.9760  208.6170  149.2230 C   0  0  0  0  0  0  0  0  0  0  0  0
  160.2900  206.5200  149.7440 S   0  0  0  0  0  0  0  0  0  0  0  0
  161.8000  205.7370  149.1080 C   0  0  1  0  0  3  0  0  0  0  0  0
  161.2600  203.2060  148.4490 C   0  0  0  0  0  0  0  0  0  0  0  0
  161.5220  204.3510  148.7320 C   0  0  0  0  0  0  0  0  0  0  0  0
  160.9300  201.8170  148.1230 C   0  0  0  0  0  3  0  0  0  0  0  0
  159.7870  201.3620  149.0100 C   0  0  0  0  0  2  0  0  0  0  0  0
  161.2060  200.9420  149.3260 C   0  0  0  0  0  2  0  0  0  0  0  0
  1 20  1  6  0  0  0
  1  5  1  0  0  0  0
  1 10  1  0  0  0  0
  2  3  1  0  0  0  0
  4  2  1  0  0  0  0
  6  5  1  1  0  0  0
  6  4  1  0  0  0  0
  6  9  1  0  0  0  0
  7  9  2  0  0  0  0
  8  3  1  0  0  0  0
  9  8  1  0  0  0  0
 10  7  1  1  0  0  0
 11 10  1  1  0  0  0
 11 19  1  0  0  0  0
 12 17  1  6  0  0  0
 12 11  1  0  0  0  0
 12 15  1  0  0  0  0
 13 18  1  1  0  0  0
 14 13  1  0  0  0  0
 15 14  1  0  0  0  0
 19 16  1  1  0  0  0
 19 13  1  0  0  0  0
 21 24  1  0  0  0  0
 21 27  1  0  0  0  0
 22 20  1  6  0  0  0
 23 25  2  0  0  0  0
 24 25  1  0  0  0  0
 25 22  1  0  0  0  0
 26 22  1  0  0  0  0
 27 29  1  6  0  0  0
 27 26  1  0  0  0  0
 28 29  3  0  0  0  0
 30 28  1  0  0  0  0
 30 31  1  0  0  0  0
 30 32  1  0  0  0  0
 31 32  1  0  0  0  0
M  END
>  <MODEL>
3

>  <REMARK>
 VINA RESULT:      -6.3      1.724      3.760
  Name = 
  5 active torsions:
  status: ('A' for Active; 'I' for Inactive)
    1  A    between atoms: C_1  and  C_10
    2  A    between atoms: C_3  and  O_28
    3  A    between atoms: C_6  and  C_31
    4  A    between atoms: C_8  and  O_28
    5  A    between atoms: C_19  and  C_24
                            x       y       z     vdW  Elec       q    Type
                         _______ _______ _______ _____ _____    ______ ____

>  <TORSDO>
F 5

$$$$
=
 OpenBabel11062410433D

 32 36  0  0  1  0  0  0  0  0999 V2000
  161.9170  209.4160  149.3370 C   0  0  2  0  0  3  0  0  0  0  0  0
  162.5100  205.3460  147.3180 C   0  0  0  0  0  2  0  0  0  0  0  0
  161.5580  204.5140  148.1910 C   0  0  0  0  0  2  0  0  0  0  0  0
  161.8170  206.5780  146.7350 C   0  0  0  0  0  2  0  0  0  0  0  0
  162.4520  208.4700  148.2610 C   0  0  0  0  0  2  0  0  0  0  0  0
  161.3420  207.5240  147.8430 C   0  0  2  0  0  3  0  0  0  0  0  0
  160.8320  207.3020  150.2240 N   0  0  0  0  0  0  0  0  0  0  0  0
  160.4560  205.3260  148.8920 C   0  0  0  0  0  2  0  0  0  0  0  0
  160.8470  206.7650  149.0520 C   0  0  0  0  0  0  0  0  0  0  0  0
  161.2780  208.6580  150.5210 C   0  0  1  0  0  3  0  0  0  0  0  0
  162.1050  208.6830  151.8250 C   0  0  1  0  0  3  0  0  0  0  0  0
  161.6240  209.6660  152.9080 C   0  0  2  0  0  3  0  0  0  0  0  0
  161.0860  206.7860  153.1810 C   0  0  2  0  0  3  0  0  0  0  0  0
  160.6560  207.7900  154.2480 C   0  0  0  0  0  2  0  0  0  0  0  0
  160.3790  209.1570  153.6300 C   0  0  0  0  0  2  0  0  0  0  0  0
  162.7190  206.3820  151.4440 O   0  0  0  0  0  1  0  0  0  0  0  0
  161.3990  210.9390  152.3840 O   0  0  0  0  0  1  0  0  0  0  0  0
  161.3680  205.4530  153.8490 C   0  0  0  0  0  1  0  0  0  0  0  0
  162.3310  207.2890  152.4350 C   0  0  1  0  0  3  0  0  0  0  0  0
  160.9750  210.2960  148.7890 O   0  0  0  0  0  0  0  0  0  0  0  0
  162.0750  214.1720  147.2470 C   0  0  0  0  0  2  0  0  0  0  0  0
  161.7290  211.3630  148.2850 C   0  0  2  0  0  3  0  0  0  0  0  0
  161.1150  212.5170  150.2950 O   0  0  0  0  0  0  0  0  0  0  0  0
  161.9760  213.8490  148.6360 O   0  0  0  0  0  0  0  0  0  0  0  0
  161.5470  212.6030  149.1140 C   0  0  0  0  0  0  0  0  0  0  0  0
  161.2830  211.6700  146.5510 S   0  0  0  0  0  0  0  0  0  0  0  0
  162.5350  212.9790  146.4270 C   0  0  1  0  0  3  0  0  0  0  0  0
  162.8760  213.6430  143.8630 C   0  0  0  0  0  0  0  0  0  0  0  0
  162.7150  213.3640  145.0270 C   0  0  0  0  0  0  0  0  0  0  0  0
  163.0800  213.9620  142.4490 C   0  0  0  0  0  3  0  0  0  0  0  0
  161.7380  214.2830  141.8190 C   0  0  0  0  0  2  0  0  0  0  0  0
  162.3760  212.9290  141.5970 C   0  0  0  0  0  2  0  0  0  0  0  0
  1 20  1  6  0  0  0
  1 10  1  0  0  0  0
  2  3  1  0  0  0  0
  3  8  1  0  0  0  0
  4  2  1  0  0  0  0
  5  1  1  0  0  0  0
  6  4  1  6  0  0  0
  6  5  1  0  0  0  0
  6  9  1  0  0  0  0
  8  9  1  0  0  0  0
  9  7  2  0  0  0  0
 10  7  1  6  0  0  0
 11 10  1  6  0  0  0
 11 19  1  0  0  0  0
 11 12  1  0  0  0  0
 12 17  1  6  0  0  0
 12 15  1  0  0  0  0
 13 18  1  1  0  0  0
 13 14  1  0  0  0  0
 15 14  1  0  0  0  0
 19 16  1  6  0  0  0
 19 13  1  0  0  0  0
 21 24  1  0  0  0  0
 22 20  1  1  0  0  0
 22 25  1  0  0  0  0
 24 25  1  0  0  0  0
 25 23  2  0  0  0  0
 26 22  1  0  0  0  0
 27 29  1  6  0  0  0
 27 26  1  0  0  0  0
 27 21  1  0  0  0  0
 28 29  3  0  0  0  0
 30 28  1  0  0  0  0
 31 30  1  0  0  0  0
 32 31  1  0  0  0  0
 32 30  1  0  0  0  0
M  END
>  <MODEL>
4

>  <REMARK>
 VINA RESULT:      -6.2      3.977      7.404
  Name = 
  5 active torsions:
  status: ('A' for Active; 'I' for Inactive)
    1  A    between atoms: C_1  and  C_10
    2  A    between atoms: C_3  and  O_28
    3  A    between atoms: C_6  and  C_31
    4  A    between atoms: C_8  and  O_28
    5  A    between atoms: C_19  and  C_24
                            x       y       z     vdW  Elec       q    Type
                         _______ _______ _______ _____ _____    ______ ____

>  <TORSDO>
F 5

$$$$
=
 OpenBabel11062410433D

 32 36  0  0  1  0  0  0  0  0999 V2000
  160.9060  207.0310  151.6620 C   0  0  2  0  0  3  0  0  0  0  0  0
  161.3120  210.4490  148.6370 C   0  0  0  0  0  2  0  0  0  0  0  0
  162.1270  211.4250  149.4990 C   0  0  0  0  0  2  0  0  0  0  0  0
  161.9640  209.0680  148.5680 C   0  0  0  0  0  2  0  0  0  0  0  0
  160.7600  207.6880  150.2880 C   0  0  0  0  0  2  0  0  0  0  0  0
  162.0460  208.4230  149.9560 C   0  0  2  0  0  3  0  0  0  0  0  0
  162.0050  209.2370  152.2620 N   0  0  0  0  0  0  0  0  0  0  0  0
  162.9240  210.7650  150.6360 C   0  0  0  0  0  2  0  0  0  0  0  0
  162.3320  209.4440  151.0310 C   0  0  0  0  0  0  0  0  0  0  0  0
  161.3380  208.0360  152.7520 C   0  0  1  0  0  3  0  0  0  0  0  0
  160.2300  208.4070  153.7620 C   0  0  1  0  0  3  0  0  0  0  0  0
  160.4550  207.9300  155.2100 C   0  0  2  0  0  3  0  0  0  0  0  0
  160.8910  210.7510  154.4960 C   0  0  2  0  0  3  0  0  0  0  0  0
  161.0700  210.2460  155.9260 C   0  0  0  0  0  2  0  0  0  0  0  0
  161.4940  208.7800  155.9360 C   0  0  0  0  0  2  0  0  0  0  0  0
  159.7030  210.3460  152.4300 O   0  0  0  0  0  1  0  0  0  0  0  0
  160.8060  206.5820  155.2590 O   0  0  0  0  0  1  0  0  0  0  0  0
  160.4510  212.2030  154.5420 C   0  0  0  0  0  1  0  0  0  0  0  0
  159.8570  209.8990  153.7450 C   0  0  1  0  0  3  0  0  0  0  0  0
  161.8340  205.9840  151.6050 O   0  0  0  0  0  0  0  0  0  0  0  0
  160.8320  202.0420  150.1660 C   0  0  0  0  0  2  0  0  0  0  0  0
  161.1370  204.9150  151.0290 C   0  0  2  0  0  3  0  0  0  0  0  0
  161.2060  203.9240  153.2110 O   0  0  0  0  0  0  0  0  0  0  0  0
  160.6420  202.4880  151.5110 O   0  0  0  0  0  0  0  0  0  0  0  0
  161.0420  203.7490  151.9740 C   0  0  0  0  0  0  0  0  0  0  0  0
  161.9350  204.4250  149.4720 S   0  0  0  0  0  0  0  0  0  0  0  0
  160.6510  203.1760  149.1710 C   0  0  1  0  0  3  0  0  0  0  0  0
  160.8280  202.2880  146.6580 C   0  0  0  0  0  0  0  0  0  0  0  0
  160.7600  202.6710  147.8020 C   0  0  0  0  0  0  0  0  0  0  0  0
  160.8970  201.8390  145.2660 C   0  0  0  0  0  3  0  0  0  0  0  0
  159.7060  202.3970  144.5100 C   0  0  0  0  0  2  0  0  0  0  0  0
  159.7070  200.9540  144.9680 C   0  0  0  0  0  2  0  0  0  0  0  0
  1 20  1  6  0  0  0
  1 10  1  0  0  0  0
  2  3  1  0  0  0  0
  3  8  1  0  0  0  0
  4  2  1  0  0  0  0
  5  1  1  0  0  0  0
  6  4  1  6  0  0  0
  6  5  1  0  0  0  0
  6  9  1  0  0  0  0
  8  9  1  0  0  0  0
  9  7  2  0  0  0  0
 10  7  1  6  0  0  0
 11 10  1  6  0  0  0
 11 12  1  0  0  0  0
 12 17  1  6  0  0  0
 12 15  1  0  0  0  0
 13 18  1  1  0  0  0
 13 14  1  0  0  0  0
 14 15  1  0  0  0  0
 19 16  1  6  0  0  0
 19 11  1  0  0  0  0
 19 13  1  0  0  0  0
 21 24  1  0  0  0  0
 22 20  1  1  0  0  0
 22 25  1  0  0  0  0
 24 25  1  0  0  0  0
 25 23  2  0  0  0  0
 26 22  1  0  0  0  0
 27 29  1  6  0  0  0
 27 26  1  0  0  0  0
 27 21  1  0  0  0  0
 28 29  3  0  0  0  0
 30 28  1  0  0  0  0
 31 32  1  0  0  0  0
 31 30  1  0  0  0  0
 32 30  1  0  0  0  0
M  END
>  <MODEL>
5

>  <REMARK>
 VINA RESULT:      -6.0      2.497      4.887
  Name = 
  5 active torsions:
  status: ('A' for Active; 'I' for Inactive)
    1  A    between atoms: C_1  and  C_10
    2  A    between atoms: C_3  and  O_28
    3  A    between atoms: C_6  and  C_31
    4  A    between atoms: C_8  and  O_28
    5  A    between atoms: C_19  and  C_24
                            x       y       z     vdW  Elec       q    Type
                         _______ _______ _______ _____ _____    ______ ____

>  <TORSDO>
F 5

$$$$
=
 OpenBabel11062410433D

 32 36  0  0  1  0  0  0  0  0999 V2000
  160.1410  211.0670  153.4680 C   0  0  2  0  0  3  0  0  0  0  0  0
  155.9280  212.6820  154.2660 C   0  0  0  0  0  2  0  0  0  0  0  0
  156.3050  213.8870  155.1420 C   0  0  0  0  0  2  0  0  0  0  0  0
  156.6860  212.6850  152.9380 C   0  0  0  0  0  2  0  0  0  0  0  0
  158.6230  211.1240  153.2860 C   0  0  0  0  0  2  0  0  0  0  0  0
  158.1970  212.5750  153.1610 C   0  0  2  0  0  3  0  0  0  0  0  0
  159.7230  213.0300  155.0180 N   0  0  0  0  0  0  0  0  0  0  0  0
  157.7390  214.4020  154.9420 C   0  0  0  0  0  2  0  0  0  0  0  0
  158.6370  213.3350  154.3910 C   0  0  0  0  0  0  0  0  0  0  0  0
  160.6270  211.9520  154.6360 C   0  0  1  0  0  3  0  0  0  0  0  0
  161.0970  211.1720  155.8840 C   0  0  1  0  0  3  0  0  0  0  0  0
  160.0150  210.8830  156.9420 C   0  0  2  0  0  3  0  0  0  0  0  0
  160.9260  208.7470  155.1350 C   0  0  2  0  0  3  0  0  0  0  0  0
  159.8800  208.4930  156.2190 C   0  0  0  0  0  2  0  0  0  0  0  0
  159.0790  209.7590  156.5090 C   0  0  0  0  0  2  0  0  0  0  0  0
  162.8170  210.1340  154.5520 O   0  0  0  0  0  1  0  0  0  0  0  0
  159.2870  212.0290  157.2600 O   0  0  0  0  0  1  0  0  0  0  0  0
  161.7070  207.4670  154.9000 C   0  0  0  0  0  1  0  0  0  0  0  0
  161.8700  209.8850  155.5480 C   0  0  1  0  0  3  0  0  0  0  0  0
  160.7880  211.4610  152.2890 O   0  0  0  0  0  0  0  0  0  0  0  0
  161.9470  207.9970  149.9940 C   0  0  0  0  0  2  0  0  0  0  0  0
  161.4750  210.3200  151.8570 C   0  0  2  0  0  3  0  0  0  0  0  0
  161.9980  211.5930  149.8940 O   0  0  0  0  0  0  0  0  0  0  0  0
  162.3610  209.3340  149.7100 O   0  0  0  0  0  0  0  0  0  0  0  0
  161.9140  210.4540  150.4250 C   0  0  0  0  0  0  0  0  0  0  0  0
  160.4320  208.8490  152.0810 S   0  0  0  0  0  0  0  0  0  0  0  0
  161.7680  207.7720  151.4860 C   0  0  1  0  0  3  0  0  0  0  0  0
  161.1260  205.2300  151.9950 C   0  0  0  0  0  0  0  0  0  0  0  0
  161.4350  206.3730  151.7530 C   0  0  0  0  0  0  0  0  0  0  0  0
  160.7380  203.8520  152.3020 C   0  0  0  0  0  3  0  0  0  0  0  0
  161.7110  202.9050  151.6250 C   0  0  0  0  0  2  0  0  0  0  0  0
  160.3440  203.1480  151.0220 C   0  0  0  0  0  2  0  0  0  0  0  0
  1 20  1  6  0  0  0
  1 10  1  0  0  0  0
  2  3  1  0  0  0  0
  4  2  1  0  0  0  0
  5  1  1  0  0  0  0
  6  4  1  1  0  0  0
  6  5  1  0  0  0  0
  6  9  1  0  0  0  0
  8  3  1  0  0  0  0
  9  8  1  0  0  0  0
  9  7  2  0  0  0  0
 10  7  1  1  0  0  0
 11 10  1  6  0  0  0
 11 12  1  0  0  0  0
 12 17  1  6  0  0  0
 13 18  1  1  0  0  0
 13 19  1  0  0  0  0
 13 14  1  0  0  0  0
 14 15  1  0  0  0  0
 15 12  1  0  0  0  0
 19 16  1  6  0  0  0
 19 11  1  0  0  0  0
 21 27  1  0  0  0  0
 22 26  1  0  0  0  0
 22 20  1  6  0  0  0
 23 25  2  0  0  0  0
 24 21  1  0  0  0  0
 24 25  1  0  0  0  0
 25 22  1  0  0  0  0
 27 29  1  6  0  0  0
 27 26  1  0  0  0  0
 28 30  1  0  0  0  0
 29 28  3  0  0  0  0
 31 30  1  0  0  0  0
 32 31  1  0  0  0  0
 32 30  1  0  0  0  0
M  END
>  <MODEL>
6

>  <REMARK>
 VINA RESULT:      -5.7      1.603      2.004
  Name = 
  5 active torsions:
  status: ('A' for Active; 'I' for Inactive)
    1  A    between atoms: C_1  and  C_10
    2  A    between atoms: C_3  and  O_28
    3  A    between atoms: C_6  and  C_31
    4  A    between atoms: C_8  and  O_28
    5  A    between atoms: C_19  and  C_24
                            x       y       z     vdW  Elec       q    Type
                         _______ _______ _______ _____ _____    ______ ____

>  <TORSDO>
F 5

$$$$
=
 OpenBabel11062410433D

 32 36  0  0  1  0  0  0  0  0999 V2000
  160.2980  210.1370  154.1830 C   0  0  2  0  0  3  0  0  0  0  0  0
  162.7520  206.7590  152.2970 C   0  0  0  0  0  2  0  0  0  0  0  0
  162.1090  205.5700  153.0290 C   0  0  0  0  0  2  0  0  0  0  0  0
  161.7060  207.6390  151.6120 C   0  0  0  0  0  2  0  0  0  0  0  0
  161.3090  209.5430  153.2020 C   0  0  0  0  0  2  0  0  0  0  0  0
  160.7440  208.2550  152.6330 C   0  0  2  0  0  3  0  0  0  0  0  0
  160.0510  207.7220  154.9170 N   0  0  0  0  0  0  0  0  0  0  0  0
  160.6900  205.8340  153.5580 C   0  0  0  0  0  2  0  0  0  0  0  0
  160.4400  207.2990  153.7630 C   0  0  0  0  0  0  0  0  0  0  0  0
  159.8650  209.1250  155.2670 C   0  0  1  0  0  3  0  0  0  0  0  0
  160.4280  209.4110  156.6770 C   0  0  1  0  0  3  0  0  0  0  0  0
  161.9430  209.1960  156.8520 C   0  0  2  0  0  3  0  0  0  0  0  0
  160.8520  211.9190  156.6220 C   0  0  2  0  0  3  0  0  0  0  0  0
  162.3440  211.6640  156.8300 C   0  0  0  0  0  2  0  0  0  0  0  0
  162.7560  210.3250  156.2260 C   0  0  0  0  0  2  0  0  0  0  0  0
  158.6520  211.0030  157.0310 O   0  0  0  0  0  1  0  0  0  0  0  0
  162.3500  207.9620  156.3440 O   0  0  0  0  0  1  0  0  0  0  0  0
  160.4900  213.2480  157.2580 C   0  0  0  0  0  1  0  0  0  0  0  0
  160.0180  210.7840  157.2350 C   0  0  1  0  0  3  0  0  0  0  0  0
  159.1640  210.5930  153.4990 O   0  0  0  0  0  0  0  0  0  0  0  0
  158.9740  214.4490  151.5730 C   0  0  0  0  0  2  0  0  0  0  0  0
  159.5210  211.8570  153.0110 C   0  0  2  0  0  3  0  0  0  0  0  0
  157.8700  212.7120  154.5250 O   0  0  0  0  0  0  0  0  0  0  0  0
  158.5790  214.1950  152.9220 O   0  0  0  0  0  0  0  0  0  0  0  0
  158.5800  212.9200  153.5050 C   0  0  0  0  0  0  0  0  0  0  0  0
  159.5710  211.8270  151.1960 S   0  0  0  0  0  0  0  0  0  0  0  0
  160.1280  213.5550  151.1520 C   0  0  1  0  0  3  0  0  0  0  0  0
  160.9660  214.1560  148.6880 C   0  0  0  0  0  0  0  0  0  0  0  0
  160.5710  213.9000  149.8000 C   0  0  0  0  0  0  0  0  0  0  0  0
  161.4610  214.4530  147.3420 C   0  0  0  0  0  3  0  0  0  0  0  0
  160.9250  213.4090  146.3800 C   0  0  0  0  0  2  0  0  0  0  0  0
  162.3520  213.3210  146.8770 C   0  0  0  0  0  2  0  0  0  0  0  0
  1 20  1  6  0  0  0
  1 10  1  0  0  0  0
  2  3  1  0  0  0  0
  3  8  1  0  0  0  0
  4  2  1  0  0  0  0
  5  1  1  0  0  0  0
  6  4  1  6  0  0  0
  6  5  1  0  0  0  0
  6  9  1  0  0  0  0
  8  9  1  0  0  0  0
  9  7  2  0  0  0  0
 10  7  1  6  0  0  0
 11 10  1  6  0  0  0
 11 12  1  0  0  0  0
 11 19  1  0  0  0  0
 12 17  1  6  0  0  0
 13 14  1  0  0  0  0
 13 19  1  0  0  0  0
 13 18  1  1  0  0  0
 15 14  1  0  0  0  0
 15 12  1  0  0  0  0
 19 16  1  6  0  0  0
 21 24  1  0  0  0  0
 22 20  1  6  0  0  0
 22 25  1  0  0  0  0
 24 25  1  0  0  0  0
 25 23  2  0  0  0  0
 26 22  1  0  0  0  0
 27 29  1  6  0  0  0
 27 26  1  0  0  0  0
 27 21  1  0  0  0  0
 28 29  3  0  0  0  0
 30 28  1  0  0  0  0
 31 32  1  0  0  0  0
 31 30  1  0  0  0  0
 32 30  1  0  0  0  0
M  END
>  <MODEL>
7

>  <REMARK>
 VINA RESULT:      -5.6      3.123      6.439
  Name = 
  5 active torsions:
  status: ('A' for Active; 'I' for Inactive)
    1  A    between atoms: C_1  and  C_10
    2  A    between atoms: C_3  and  O_28
    3  A    between atoms: C_6  and  C_31
    4  A    between atoms: C_8  and  O_28
    5  A    between atoms: C_19  and  C_24
                            x       y       z     vdW  Elec       q    Type
                         _______ _______ _______ _____ _____    ______ ____

>  <TORSDO>
F 5

$$$$
=
 OpenBabel11062410433D

 32 36  0  0  1  0  0  0  0  0999 V2000
  161.1820  208.2450  152.2100 C   0  0  2  0  0  3  0  0  0  0  0  0
  160.1650  203.8750  153.1380 C   0  0  0  0  0  2  0  0  0  0  0  0
  161.1250  203.1990  152.1470 C   0  0  0  0  0  2  0  0  0  0  0  0
  160.8890  204.8710  154.0440 C   0  0  0  0  0  2  0  0  0  0  0  0
  160.5030  207.1180  152.9890 C   0  0  0  0  0  2  0  0  0  0  0  0
  161.5120  206.0100  153.2300 C   0  0  2  0  0  3  0  0  0  0  0  0
  162.1910  206.3210  150.9020 N   0  0  0  0  0  0  0  0  0  0  0  0
  162.3290  204.0600  151.7320 C   0  0  0  0  0  2  0  0  0  0  0  0
  162.0480  205.5230  151.9050 C   0  0  0  0  0  0  0  0  0  0  0  0
  161.8610  207.7410  150.9180 C   0  0  1  0  0  3  0  0  0  0  0  0
  161.1420  208.1440  149.6120 C   0  0  1  0  0  3  0  0  0  0  0  0
  161.9570  209.0150  148.6370 C   0  0  2  0  0  3  0  0  0  0  0  0
  161.5660  206.1500  148.0900 C   0  0  2  0  0  3  0  0  0  0  0  0
  162.3390  207.0540  147.1320 C   0  0  0  0  0  2  0  0  0  0  0  0
  163.0070  208.2010  147.8850 C   0  0  0  0  0  2  0  0  0  0  0  0
  159.8150  206.1360  149.7560 O   0  0  0  0  0  1  0  0  0  0  0  0
  162.5500  210.0970  149.2860 O   0  0  0  0  0  1  0  0  0  0  0  0
  160.9060  205.0420  147.2910 C   0  0  0  0  0  1  0  0  0  0  0  0
  160.5130  206.9550  148.8650 C   0  0  1  0  0  3  0  0  0  0  0  0
  162.1340  208.8880  153.0120 O   0  0  0  0  0  0  0  0  0  0  0  0
  159.6260  212.1760  154.2370 C   0  0  0  0  0  2  0  0  0  0  0  0
  161.6340  210.1820  153.1990 C   0  0  2  0  0  3  0  0  0  0  0  0
  161.9830  209.7880  155.5380 O   0  0  0  0  0  0  0  0  0  0  0  0
  160.6480  211.5890  155.0460 O   0  0  0  0  0  0  0  0  0  0  0  0
  161.4020  210.4740  154.6550 C   0  0  0  0  0  0  0  0  0  0  0  0
  160.1050  210.3980  152.2420 S   0  0  0  0  0  0  0  0  0  0  0  0
  159.9870  212.1330  152.7630 C   0  0  1  0  0  3  0  0  0  0  0  0
  158.1460  213.3780  151.2810 C   0  0  0  0  0  0  0  0  0  0  0  0
  158.9680  212.8220  151.9700 C   0  0  0  0  0  0  0  0  0  0  0  0
  157.1600  214.0470  150.4290 C   0  0  0  0  0  3  0  0  0  0  0  0
  156.8650  213.1620  149.2320 C   0  0  0  0  0  2  0  0  0  0  0  0
  157.7880  214.3530  149.0860 C   0  0  0  0  0  2  0  0  0  0  0  0
  1  5  1  0  0  0  0
  1 20  1  1  0  0  0
  2  4  1  0  0  0  0
  3  2  1  0  0  0  0
  6  5  1  6  0  0  0
  6  4  1  0  0  0  0
  7  9  2  0  0  0  0
  8  9  1  0  0  0  0
  8  3  1  0  0  0  0
  9  6  1  0  0  0  0
 10  7  1  1  0  0  0
 10  1  1  0  0  0  0
 11 10  1  1  0  0  0
 12 17  1  1  0  0  0
 12 11  1  0  0  0  0
 13 18  1  6  0  0  0
 13 19  1  0  0  0  0
 14 15  1  0  0  0  0
 14 13  1  0  0  0  0
 15 12  1  0  0  0  0
 19 11  1  0  0  0  0
 19 16  1  1  0  0  0
 21 24  1  0  0  0  0
 22 20  1  1  0  0  0
 22 25  1  0  0  0  0
 25 24  1  0  0  0  0
 25 23  2  0  0  0  0
 26 27  1  0  0  0  0
 26 22  1  0  0  0  0
 27 29  1  6  0  0  0
 27 21  1  0  0  0  0
 28 29  3  0  0  0  0
 30 28  1  0  0  0  0
 31 30  1  0  0  0  0
 32 31  1  0  0  0  0
 32 30  1  0  0  0  0
M  END
>  <MODEL>
8

>  <REMARK>
 VINA RESULT:      -5.1      2.539      7.695
  Name = 
  5 active torsions:
  status: ('A' for Active; 'I' for Inactive)
    1  A    between atoms: C_1  and  C_10
    2  A    between atoms: C_3  and  O_28
    3  A    between atoms: C_6  and  C_31
    4  A    between atoms: C_8  and  O_28
    5  A    between atoms: C_19  and  C_24
                            x       y       z     vdW  Elec       q    Type
                         _______ _______ _______ _____ _____    ______ ____

>  <TORSDO>
F 5

$$$$
=
 OpenBabel11062410433D

 32 36  0  0  1  0  0  0  0  0999 V2000
  158.6490  211.4350  137.8720 C   0  0  2  0  0  3  0  0  0  0  0  0
  154.8610  209.0040  137.0140 C   0  0  0  0  0  2  0  0  0  0  0  0
  154.6140  208.4540  138.4280 C   0  0  0  0  0  2  0  0  0  0  0  0
  155.0060  210.5260  137.0120 C   0  0  0  0  0  2  0  0  0  0  0  0
  157.4830  210.9480  137.0110 C   0  0  0  0  0  2  0  0  0  0  0  0
  156.2140  210.9690  137.8430 C   0  0  2  0  0  3  0  0  0  0  0  0
  157.5500  209.9850  139.6400 N   0  0  0  0  0  0  0  0  0  0  0  0
  155.2430  209.2860  139.5580 C   0  0  0  0  0  2  0  0  0  0  0  0
  156.4010  210.1010  139.0650 C   0  0  0  0  0  0  0  0  0  0  0  0
  158.7700  210.6500  139.1960 C   0  0  1  0  0  3  0  0  0  0  0  0
  159.9700  209.6790  139.2630 C   0  0  1  0  0  3  0  0  0  0  0  0
  160.3690  209.0130  137.9330 C   0  0  2  0  0  3  0  0  0  0  0  0
  161.9710  211.2320  139.0150 C   0  0  2  0  0  3  0  0  0  0  0  0
  162.3520  210.5220  137.7180 C   0  0  0  0  0  2  0  0  0  0  0  0
  161.1140  209.9760  137.0120 C   0  0  0  0  0  2  0  0  0  0  0  0
  160.8410  210.9300  141.1310 O   0  0  0  0  0  1  0  0  0  0  0  0
  159.2650  208.4670  137.2790 O   0  0  0  0  0  1  0  0  0  0  0  0
  163.2350  211.7360  139.6860 C   0  0  0  0  0  1  0  0  0  0  0  0
  161.2080  210.2800  139.9500 C   0  0  1  0  0  3  0  0  0  0  0  0
  158.5090  212.8000  138.1560 O   0  0  0  0  0  0  0  0  0  0  0  0
  158.1990  214.3440  142.1720 C   0  0  0  0  0  2  0  0  0  0  0  0
  158.4780  212.8760  139.5540 C   0  0  2  0  0  3  0  0  0  0  0  0
  156.1930  213.5530  139.2910 O   0  0  0  0  0  0  0  0  0  0  0  0
  157.0870  213.9410  141.3690 O   0  0  0  0  0  0  0  0  0  0  0  0
  157.2050  213.5110  140.0400 C   0  0  0  0  0  0  0  0  0  0  0  0
  159.9300  213.7890  140.1550 S   0  0  0  0  0  0  0  0  0  0  0  0
  159.4320  213.5070  141.8780 C   0  0  1  0  0  3  0  0  0  0  0  0
  161.4250  214.1470  143.5370 C   0  0  0  0  0  0  0  0  0  0  0  0
  160.5240  213.8790  142.7790 C   0  0  0  0  0  0  0  0  0  0  0  0
  162.5160  214.4530  144.4650 C   0  0  0  0  0  3  0  0  0  0  0  0
  163.5840  213.3830  144.3380 C   0  0  0  0  0  2  0  0  0  0  0  0
  162.6140  213.3530  145.5000 C   0  0  0  0  0  2  0  0  0  0  0  0
  1 20  1  1  0  0  0
  1 10  1  0  0  0  0
  2  3  1  0  0  0  0
  3  8  1  0  0  0  0
  4  2  1  0  0  0  0
  4  6  1  0  0  0  0
  5  1  1  0  0  0  0
  6  5  1  6  0  0  0
  6  9  1  0  0  0  0
  9  8  1  0  0  0  0
  9  7  2  0  0  0  0
 10  7  1  6  0  0  0
 11 10  1  6  0  0  0
 11 19  1  0  0  0  0
 12 17  1  6  0  0  0
 12 11  1  0  0  0  0
 13 18  1  1  0  0  0
 13 19  1  0  0  0  0
 14 13  1  0  0  0  0
 15 14  1  0  0  0  0
 15 12  1  0  0  0  0
 19 16  1  1  0  0  0
 22 20  1  6  0  0  0
 22 25  1  0  0  0  0
 22 26  1  0  0  0  0
 23 25  2  0  0  0  0
 24 21  1  0  0  0  0
 25 24  1  0  0  0  0
 26 27  1  0  0  0  0
 27 21  1  0  0  0  0
 27 29  1  1  0  0  0
 28 30  1  0  0  0  0
 29 28  3  0  0  0  0
 30 32  1  0  0  0  0
 31 30  1  0  0  0  0
 31 32  1  0  0  0  0
M  END
>  <MODEL>
9

>  <REMARK>
 VINA RESULT:      -5.1     10.780     15.062
  Name = 
  5 active torsions:
  status: ('A' for Active; 'I' for Inactive)
    1  A    between atoms: C_1  and  C_10
    2  A    between atoms: C_3  and  O_28
    3  A    between atoms: C_6  and  C_31
    4  A    between atoms: C_8  and  O_28
    5  A    between atoms: C_19  and  C_24
                            x       y       z     vdW  Elec       q    Type
                         _______ _______ _______ _____ _____    ______ ____

>  <TORSDO>
F 5

$$$$
