=
 OpenBabel11052421433D

 30 34  0  0  1  0  0  0  0  0999 V2000
  161.4040  207.8410  150.7450 C   0  0  0  0  0  0  0  0  0  0  0  0
  160.9390  208.6650  151.8040 C   0  0  0  0  0  0  0  0  0  0  0  0
  161.8990  208.4150  149.5620 C   0  0  0  0  0  3  0  0  0  0  0  0
  161.5910  212.2150  149.9690 S   0  0  0  0  0  0  0  0  0  0  0  0
  159.0870  210.5280  153.3870 C   0  0  1  0  0  3  0  0  0  0  0  0
  161.4630  210.6080  150.4630 C   0  0  0  0  0  0  0  0  0  0  0  0
  162.3730  210.4470  148.3320 N   0  0  0  0  0  0  0  0  0  0  0  0
  159.3700  209.5530  154.5220 C   0  0  2  0  0  3  0  0  0  0  0  0
  161.9290  209.7980  149.4390 C   0  0  0  0  0  0  0  0  0  0  0  0
  160.9410  210.0800  151.6540 C   0  0  0  0  0  0  0  0  0  0  0  0
  159.5500  210.4190  155.7490 C   0  0  0  0  0  2  0  0  0  0  0  0
  158.3750  211.7050  154.0400 C   0  0  0  0  0  2  0  0  0  0  0  0
  162.6550  212.7590  147.4260 C   0  0  0  0  0  1  0  0  0  0  0  0
  162.2540  211.7870  148.4770 C   0  0  0  0  0  0  0  0  0  0  0  0
  160.4900  208.0380  152.9780 O   0  0  0  0  0  0  0  0  0  0  0  0
  160.5680  208.6250  154.2740 C   0  0  2  0  0  3  0  0  0  0  0  0
  158.6290  211.6040  155.5370 C   0  0  0  0  0  2  0  0  0  0  0  0
  160.8960  212.0620  152.9590 O   0  0  0  0  0  0  0  0  0  0  0  0
  160.3420  210.9650  152.6720 C   0  0  0  0  0  0  0  0  0  0  0  0
  160.7590  205.5570  149.9180 C   0  0  0  0  0  0  0  0  0  0  0  0
  160.7730  204.1650  150.0540 C   0  0  0  0  0  3  0  0  0  0  0  0
  160.0580  206.1360  148.8200 N   0  0  0  0  0  1  0  0  0  0  0  0
  162.0790  205.7540  151.9500 C   0  0  0  0  0  0  0  0  0  0  0  0
  161.4360  203.5690  151.1290 C   0  0  0  0  0  3  0  0  0  0  0  0
  161.4100  206.3670  150.8730 C   0  0  0  0  0  0  0  0  0  0  0  0
  162.0870  204.3630  152.0740 C   0  0  0  0  0  3  0  0  0  0  0  0
  162.7420  206.5000  152.8690 F   0  0  0  0  0  0  0  0  0  0  0  0
  159.2430  207.1760  156.0540 O   0  0  0  0  0  0  0  0  0  0  0  0
  160.6560  207.2910  155.4970 S   0  0  2  0  0  0  0  0  0  0  0  0
  161.6080  207.9650  156.8690 C   0  0  0  0  0  1  0  0  0  0  0  0
  1 25  1  0  0  0  0
  1  2  1  0  0  0  0
  2 15  1  0  0  0  0
  3  1  2  0  0  0  0
  4  6  1  0  0  0  0
  5 12  1  1  0  0  0
  5  8  1  0  0  0  0
  6 10  1  0  0  0  0
  7 14  2  0  0  0  0
  7  9  1  0  0  0  0
  8 11  1  1  0  0  0
  9  3  1  0  0  0  0
  9  6  2  0  0  0  0
 10  2  2  0  0  0  0
 10 19  1  0  0  0  0
 12 17  1  0  0  0  0
 13 14  1  0  0  0  0
 14  4  1  0  0  0  0
 15 16  1  0  0  0  0
 16  8  1  0  0  0  0
 16 29  1  1  0  0  0
 17 11  1  0  0  0  0
 19 18  2  0  0  0  0
 19  5  1  0  0  0  0
 20 21  2  0  0  0  0
 20 25  1  0  0  0  0
 21 24  1  0  0  0  0
 22 20  1  0  0  0  0
 23 26  1  0  0  0  0
 23 27  1  0  0  0  0
 24 26  2  0  0  0  0
 25 23  2  0  0  0  0
 29 28  2  0  0  0  0
 29 30  1  1  0  0  0
M  END
>  <MODEL>
1

>  <REMARK>
 VINA RESULT:      -6.6      0.000      0.000
  Name = 
  2 active torsions:
  status: ('A' for Active; 'I' for Inactive)
    1  A    between atoms: C_1  and  C_22
    2  A    between atoms: S_11  and  C_25
                            x       y       z     vdW  Elec       q    Type
                         _______ _______ _______ _____ _____    ______ ____

>  <TORSDO>
F 2

$$$$
=
 OpenBabel11052421433D

 30 34  0  0  1  0  0  0  0  0999 V2000
  161.1420  209.8450  151.6200 C   0  0  0  0  0  0  0  0  0  0  0  0
  160.2750  210.8900  152.0360 C   0  0  0  0  0  0  0  0  0  0  0  0
  161.9560  210.0040  150.4860 C   0  0  0  0  0  3  0  0  0  0  0  0
  161.1930  213.4810  149.0630 S   0  0  0  0  0  0  0  0  0  0  0  0
  157.8390  212.7540  152.0670 C   0  0  1  0  0  3  0  0  0  0  0  0
  161.0480  212.2140  150.1650 C   0  0  0  0  0  0  0  0  0  0  0  0
  162.6360  211.4400  148.6580 N   0  0  0  0  0  0  0  0  0  0  0  0
  157.8060  212.3940  153.5470 C   0  0  2  0  0  3  0  0  0  0  0  0
  161.9030  211.1950  149.7740 C   0  0  0  0  0  0  0  0  0  0  0  0
  160.2020  212.0930  151.2790 C   0  0  0  0  0  0  0  0  0  0  0  0
  157.4830  213.6890  154.2580 C   0  0  0  0  0  2  0  0  0  0  0  0
  156.8470  213.8980  151.9120 C   0  0  0  0  0  2  0  0  0  0  0  0
  163.0020  213.2080  146.9310 C   0  0  0  0  0  1  0  0  0  0  0  0
  162.3560  212.6640  148.1540 C   0  0  0  0  0  0  0  0  0  0  0  0
  159.5130  210.6910  153.1980 O   0  0  0  0  0  0  0  0  0  0  0  0
  159.0950  211.7410  154.0670 C   0  0  2  0  0  3  0  0  0  0  0  0
  156.5870  214.4530  153.3050 C   0  0  0  0  0  2  0  0  0  0  0  0
  159.5430  214.3620  151.5020 O   0  0  0  0  0  0  0  0  0  0  0  0
  159.2180  213.1460  151.5960 C   0  0  0  0  0  0  0  0  0  0  0  0
  161.0860  207.3350  151.7430 C   0  0  0  0  0  0  0  0  0  0  0  0
  161.1750  206.1520  152.4830 C   0  0  0  0  0  3  0  0  0  0  0  0
  160.8170  207.2570  150.3460 N   0  0  0  0  0  1  0  0  0  0  0  0
  161.4850  208.6140  153.7720 C   0  0  0  0  0  0  0  0  0  0  0  0
  161.4190  206.1950  153.8560 C   0  0  0  0  0  3  0  0  0  0  0  0
  161.2350  208.5830  152.3860 C   0  0  0  0  0  0  0  0  0  0  0  0
  161.5740  207.4240  154.4990 C   0  0  0  0  0  3  0  0  0  0  0  0
  161.6660  209.7930  154.4180 F   0  0  0  0  0  0  0  0  0  0  0  0
  157.3770  211.0720  155.9710 O   0  0  0  0  0  0  0  0  0  0  0  0
  158.8810  211.0510  155.7290 S   0  0  2  0  0  0  0  0  0  0  0  0
  159.5170  212.3080  156.8500 C   0  0  0  0  0  1  0  0  0  0  0  0
  1  2  1  0  0  0  0
  1 25  1  0  0  0  0
  2 15  1  0  0  0  0
  3  1  2  0  0  0  0
  4  6  1  0  0  0  0
  5 12  1  1  0  0  0
  5  8  1  0  0  0  0
  6 10  1  0  0  0  0
  7  9  1  0  0  0  0
  8 16  1  0  0  0  0
  8 11  1  1  0  0  0
  9  6  2  0  0  0  0
  9  3  1  0  0  0  0
 10 19  1  0  0  0  0
 10  2  2  0  0  0  0
 12 17  1  0  0  0  0
 13 14  1  0  0  0  0
 14  7  2  0  0  0  0
 14  4  1  0  0  0  0
 15 16  1  0  0  0  0
 16 29  1  1  0  0  0
 17 11  1  0  0  0  0
 18 19  2  0  0  0  0
 19  5  1  0  0  0  0
 20 25  2  0  0  0  0
 20 21  1  0  0  0  0
 21 24  2  0  0  0  0
 22 20  1  0  0  0  0
 23 27  1  0  0  0  0
 23 26  2  0  0  0  0
 24 26  1  0  0  0  0
 25 23  1  0  0  0  0
 29 28  2  0  0  0  0
 29 30  1  1  0  0  0
M  END
>  <MODEL>
2

>  <REMARK>
 VINA RESULT:      -5.3      2.133      3.023
  Name = 
  2 active torsions:
  status: ('A' for Active; 'I' for Inactive)
    1  A    between atoms: C_1  and  C_22
    2  A    between atoms: S_11  and  C_25
                            x       y       z     vdW  Elec       q    Type
                         _______ _______ _______ _____ _____    ______ ____

>  <TORSDO>
F 2

$$$$
=
 OpenBabel11052421433D

 30 34  0  0  1  0  0  0  0  0999 V2000
  161.0500  209.9550  151.8360 C   0  0  0  0  0  0  0  0  0  0  0  0
  160.1370  210.9810  152.1970 C   0  0  0  0  0  0  0  0  0  0  0  0
  161.8860  210.1080  150.7180 C   0  0  0  0  0  3  0  0  0  0  0  0
  161.0440  213.5120  149.1700 S   0  0  0  0  0  0  0  0  0  0  0  0
  157.6390  212.7590  152.1080 C   0  0  1  0  0  3  0  0  0  0  0  0
  160.9130  212.2740  150.3070 C   0  0  0  0  0  0  0  0  0  0  0  0
  162.5660  211.5110  148.8640 N   0  0  0  0  0  0  0  0  0  0  0  0
  157.5790  212.4430  153.5970 C   0  0  2  0  0  3  0  0  0  0  0  0
  161.8120  211.2750  149.9690 C   0  0  0  0  0  0  0  0  0  0  0  0
  160.0430  212.1580  151.4020 C   0  0  0  0  0  0  0  0  0  0  0  0
  157.1930  213.7460  154.2610 C   0  0  0  0  0  2  0  0  0  0  0  0
  156.6130  213.8640  151.8940 C   0  0  0  0  0  2  0  0  0  0  0  0
  162.9170  213.2390  147.0940 C   0  0  0  0  0  1  0  0  0  0  0  0
  162.2590  212.7090  148.3160 C   0  0  0  0  0  0  0  0  0  0  0  0
  159.3510  210.7910  153.3450 O   0  0  0  0  0  0  0  0  0  0  0  0
  158.8750  211.8500  154.1700 C   0  0  2  0  0  3  0  0  0  0  0  0
  156.2980  214.4510  153.2610 C   0  0  0  0  0  2  0  0  0  0  0  0
  159.3020  214.4080  151.5380 O   0  0  0  0  0  0  0  0  0  0  0  0
  159.0160  213.1850  151.6610 C   0  0  0  0  0  0  0  0  0  0  0  0
  161.5470  208.7770  153.9990 C   0  0  0  0  0  0  0  0  0  0  0  0
  161.6510  207.6000  154.7470 C   0  0  0  0  0  3  0  0  0  0  0  0
  161.8590  210.0200  154.6230 N   0  0  0  0  0  1  0  0  0  0  0  0
  160.8790  207.4680  152.0620 C   0  0  0  0  0  0  0  0  0  0  0  0
  161.3710  206.3650  154.1610 C   0  0  0  0  0  3  0  0  0  0  0  0
  161.1640  208.7200  152.6420 C   0  0  0  0  0  0  0  0  0  0  0  0
  160.9850  206.3000  152.8210 C   0  0  0  0  0  3  0  0  0  0  0  0
  160.4770  207.3780  150.7700 F   0  0  0  0  0  0  0  0  0  0  0  0
  157.1330  211.0490  156.0000 O   0  0  0  0  0  0  0  0  0  0  0  0
  158.6410  211.2040  155.8460 S   0  0  2  0  0  0  0  0  0  0  0  0
  159.0500  212.5710  156.9440 C   0  0  0  0  0  1  0  0  0  0  0  0
  1  2  1  0  0  0  0
  1 25  1  0  0  0  0
  2 15  1  0  0  0  0
  3  1  2  0  0  0  0
  4  6  1  0  0  0  0
  5 12  1  1  0  0  0
  5  8  1  0  0  0  0
  6 10  1  0  0  0  0
  7  9  1  0  0  0  0
  8 16  1  0  0  0  0
  8 11  1  1  0  0  0
  9  6  2  0  0  0  0
  9  3  1  0  0  0  0
 10 19  1  0  0  0  0
 10  2  2  0  0  0  0
 12 17  1  0  0  0  0
 13 14  1  0  0  0  0
 14  7  2  0  0  0  0
 14  4  1  0  0  0  0
 15 16  1  0  0  0  0
 16 29  1  1  0  0  0
 17 11  1  0  0  0  0
 18 19  2  0  0  0  0
 19  5  1  0  0  0  0
 20 22  1  0  0  0  0
 20 21  1  0  0  0  0
 23 25  1  0  0  0  0
 23 26  2  0  0  0  0
 24 21  2  0  0  0  0
 25 20  2  0  0  0  0
 26 24  1  0  0  0  0
 27 23  1  0  0  0  0
 29 28  2  0  0  0  0
 29 30  1  1  0  0  0
M  END
>  <MODEL>
3

>  <REMARK>
 VINA RESULT:      -5.1      2.441      3.513
  Name = 
  2 active torsions:
  status: ('A' for Active; 'I' for Inactive)
    1  A    between atoms: C_1  and  C_22
    2  A    between atoms: S_11  and  C_25
                            x       y       z     vdW  Elec       q    Type
                         _______ _______ _______ _____ _____    ______ ____

>  <TORSDO>
F 2

$$$$
=
 OpenBabel11052421433D

 30 34  0  0  1  0  0  0  0  0999 V2000
  159.4640  213.1190  151.3490 C   0  0  0  0  0  0  0  0  0  0  0  0
  160.1040  211.8910  151.6620 C   0  0  0  0  0  0  0  0  0  0  0  0
  159.0230  213.9730  152.3740 C   0  0  0  0  0  3  0  0  0  0  0  0
  159.8630  212.2400  155.6890 S   0  0  0  0  0  0  0  0  0  0  0  0
  160.4360  208.9760  152.5570 C   0  0  1  0  0  3  0  0  0  0  0  0
  159.8320  212.3990  154.0110 C   0  0  0  0  0  0  0  0  0  0  0  0
  158.8180  214.3510  154.7570 N   0  0  0  0  0  0  0  0  0  0  0  0
  161.2660  208.8660  151.2840 C   0  0  2  0  0  3  0  0  0  0  0  0
  159.2210  213.6030  153.6980 C   0  0  0  0  0  0  0  0  0  0  0  0
  160.2700  211.5050  153.0220 C   0  0  0  0  0  0  0  0  0  0  0  0
  162.4560  208.0120  151.6640 C   0  0  0  0  0  2  0  0  0  0  0  0
  160.6860  207.6760  153.3090 C   0  0  0  0  0  2  0  0  0  0  0  0
  158.7820  214.3070  157.2550 C   0  0  0  0  0  1  0  0  0  0  0  0
  159.1080  213.7310  155.9240 C   0  0  0  0  0  0  0  0  0  0  0  0
  160.5570  211.0940  150.5990 O   0  0  0  0  0  0  0  0  0  0  0  0
  161.6780  210.2170  150.6810 C   0  0  2  0  0  3  0  0  0  0  0  0
  161.9350  207.0470  152.7080 C   0  0  0  0  0  2  0  0  0  0  0  0
  161.5890  210.0650  154.3720 O   0  0  0  0  0  0  0  0  0  0  0  0
  160.8050  210.1790  153.3890 C   0  0  0  0  0  0  0  0  0  0  0  0
  158.0080  213.4540  149.3280 C   0  0  0  0  0  0  0  0  0  0  0  0
  157.8470  213.8580  147.9980 C   0  0  0  0  0  3  0  0  0  0  0  0
  156.8840  212.9320  150.0310 N   0  0  0  0  0  1  0  0  0  0  0  0
  160.3620  214.0510  149.2080 C   0  0  0  0  0  0  0  0  0  0  0  0
  158.9330  214.3560  147.2770 C   0  0  0  0  0  3  0  0  0  0  0  0
  159.2750  213.5420  149.9440 C   0  0  0  0  0  0  0  0  0  0  0  0
  160.1870  214.4530  147.8810 C   0  0  0  0  0  3  0  0  0  0  0  0
  161.5860  214.1800  149.7780 F   0  0  0  0  0  0  0  0  0  0  0  0
  161.6790  211.0940  148.1800 O   0  0  0  0  0  0  0  0  0  0  0  0
  162.3770  210.0310  149.0190 S   0  0  2  0  0  0  0  0  0  0  0  0
  161.7110  208.4800  148.3940 C   0  0  0  0  0  1  0  0  0  0  0  0
  1  2  2  0  0  0  0
  1  3  1  0  0  0  0
  2 10  1  0  0  0  0
  3  9  2  0  0  0  0
  4 14  1  0  0  0  0
  5 12  1  1  0  0  0
  5 19  1  0  0  0  0
  6  4  1  0  0  0  0
  7 14  2  0  0  0  0
  8 11  1  1  0  0  0
  8  5  1  0  0  0  0
  9  6  1  0  0  0  0
  9  7  1  0  0  0  0
 10 19  1  0  0  0  0
 10  6  2  0  0  0  0
 11 17  1  0  0  0  0
 14 13  1  0  0  0  0
 15 16  1  0  0  0  0
 15  2  1  0  0  0  0
 16 29  1  6  0  0  0
 16  8  1  0  0  0  0
 17 12  1  0  0  0  0
 19 18  2  0  0  0  0
 20 25  1  0  0  0  0
 20 22  1  0  0  0  0
 21 20  2  0  0  0  0
 23 27  1  0  0  0  0
 23 25  2  0  0  0  0
 24 26  2  0  0  0  0
 24 21  1  0  0  0  0
 25  1  1  0  0  0  0
 26 23  1  0  0  0  0
 28 29  2  0  0  0  0
 29 30  1  6  0  0  0
M  END
>  <MODEL>
4

>  <REMARK>
 VINA RESULT:      -4.9      3.612      7.075
  Name = 
  2 active torsions:
  status: ('A' for Active; 'I' for Inactive)
    1  A    between atoms: C_1  and  C_22
    2  A    between atoms: S_11  and  C_25
                            x       y       z     vdW  Elec       q    Type
                         _______ _______ _______ _____ _____    ______ ____

>  <TORSDO>
F 2

$$$$
=
 OpenBabel11052421433D

 30 34  0  0  1  0  0  0  0  0999 V2000
  161.7360  210.6330  148.8450 C   0  0  0  0  0  0  0  0  0  0  0  0
  161.3710  210.5380  150.2140 C   0  0  0  0  0  0  0  0  0  0  0  0
  161.9370  209.4720  148.0800 C   0  0  0  0  0  3  0  0  0  0  0  0
  161.3740  206.4940  150.4280 S   0  0  0  0  0  0  0  0  0  0  0  0
  161.6570  210.0780  153.2330 C   0  0  1  0  0  3  0  0  0  0  0  0
  161.4340  208.1280  150.0170 C   0  0  0  0  0  0  0  0  0  0  0  0
  161.9620  207.0510  148.0280 N   0  0  0  0  0  0  0  0  0  0  0  0
  160.9210  211.4090  153.3250 C   0  0  2  0  0  3  0  0  0  0  0  0
  161.7750  208.2280  148.6770 C   0  0  0  0  0  0  0  0  0  0  0  0
  161.2420  209.2590  150.8260 C   0  0  0  0  0  0  0  0  0  0  0  0
  159.9360  211.2350  154.4600 C   0  0  0  0  0  2  0  0  0  0  0  0
  161.6710  209.5310  154.6540 C   0  0  0  0  0  2  0  0  0  0  0  0
  161.9110  204.5860  148.4370 C   0  0  0  0  0  1  0  0  0  0  0  0
  161.7710  206.0030  148.8630 C   0  0  0  0  0  0  0  0  0  0  0  0
  161.1460  211.7300  150.9210 O   0  0  0  0  0  0  0  0  0  0  0  0
  160.2450  211.8480  152.0190 C   0  0  2  0  0  3  0  0  0  0  0  0
  160.6170  210.2990  155.4380 C   0  0  0  0  0  2  0  0  0  0  0  0
  160.2230  208.2160  152.6990 O   0  0  0  0  0  0  0  0  0  0  0  0
  160.9990  209.1170  152.2750 C   0  0  0  0  0  0  0  0  0  0  0  0
  160.7890  212.5460  147.5180 C   0  0  0  0  0  0  0  0  0  0  0  0
  160.9430  213.7910  146.8990 C   0  0  0  0  0  3  0  0  0  0  0  0
  159.5280  211.8860  147.4370 N   0  0  0  0  0  1  0  0  0  0  0  0
  163.1120  212.6300  148.2290 C   0  0  0  0  0  0  0  0  0  0  0  0
  162.1710  214.4530  146.9440 C   0  0  0  0  0  3  0  0  0  0  0  0
  161.8800  211.9490  148.1860 C   0  0  0  0  0  0  0  0  0  0  0  0
  163.2520  213.8740  147.6090 C   0  0  0  0  0  3  0  0  0  0  0  0
  164.1730  212.1020  148.8900 F   0  0  0  0  0  0  0  0  0  0  0  0
  158.1500  213.4710  152.0150 O   0  0  0  0  0  0  0  0  0  0  0  0
  159.6680  213.5640  152.0980 S   0  0  2  0  0  0  0  0  0  0  0  0
  160.1430  214.2980  150.5240 C   0  0  0  0  0  1  0  0  0  0  0  0
  1  2  1  0  0  0  0
  2 10  2  0  0  0  0
  2 15  1  0  0  0  0
  3  9  1  0  0  0  0
  3  1  2  0  0  0  0
  5  8  1  0  0  0  0
  5 12  1  1  0  0  0
  6  4  1  0  0  0  0
  6 10  1  0  0  0  0
  7  9  1  0  0  0  0
  7 14  2  0  0  0  0
  8 11  1  1  0  0  0
  9  6  2  0  0  0  0
 10 19  1  0  0  0  0
 11 17  1  0  0  0  0
 12 17  1  0  0  0  0
 13 14  1  0  0  0  0
 14  4  1  0  0  0  0
 15 16  1  0  0  0  0
 16 29  1  1  0  0  0
 16  8  1  0  0  0  0
 19 18  2  0  0  0  0
 19  5  1  0  0  0  0
 20 25  1  0  0  0  0
 21 24  1  0  0  0  0
 21 20  2  0  0  0  0
 22 20  1  0  0  0  0
 23 27  1  0  0  0  0
 24 26  2  0  0  0  0
 25 23  2  0  0  0  0
 25  1  1  0  0  0  0
 26 23  1  0  0  0  0
 28 29  2  0  0  0  0
 29 30  1  6  0  0  0
M  END
>  <MODEL>
5

>  <REMARK>
 VINA RESULT:      -4.7      2.514      5.923
  Name = 
  2 active torsions:
  status: ('A' for Active; 'I' for Inactive)
    1  A    between atoms: C_1  and  C_22
    2  A    between atoms: S_11  and  C_25
                            x       y       z     vdW  Elec       q    Type
                         _______ _______ _______ _____ _____    ______ ____

>  <TORSDO>
F 2

$$$$
=
 OpenBabel11052421433D

 30 34  0  0  1  0  0  0  0  0999 V2000
  161.6420  210.6270  148.8520 C   0  0  0  0  0  0  0  0  0  0  0  0
  161.3170  210.5210  150.2300 C   0  0  0  0  0  0  0  0  0  0  0  0
  161.8510  209.4720  148.0800 C   0  0  0  0  0  3  0  0  0  0  0  0
  161.4240  206.4780  150.4360 S   0  0  0  0  0  0  0  0  0  0  0  0
  161.6950  210.0640  153.2400 C   0  0  1  0  0  3  0  0  0  0  0  0
  161.4330  208.1140  150.0260 C   0  0  0  0  0  0  0  0  0  0  0  0
  161.9330  207.0520  148.0220 N   0  0  0  0  0  0  0  0  0  0  0  0
  160.9290  211.3760  153.3540 C   0  0  2  0  0  3  0  0  0  0  0  0
  161.7350  208.2240  148.6780 C   0  0  0  0  0  0  0  0  0  0  0  0
  161.2360  209.2380  150.8420 C   0  0  0  0  0  0  0  0  0  0  0  0
  159.9800  211.1770  154.5140 C   0  0  0  0  0  2  0  0  0  0  0  0
  161.7610  209.5160  154.6590 C   0  0  0  0  0  2  0  0  0  0  0  0
  161.9530  204.5870  148.4270 C   0  0  0  0  0  1  0  0  0  0  0  0
  161.7900  205.9990  148.8600 C   0  0  0  0  0  0  0  0  0  0  0  0
  161.0820  211.7060  150.9450 O   0  0  0  0  0  0  0  0  0  0  0  0
  160.2080  211.8010  152.0670 C   0  0  2  0  0  3  0  0  0  0  0  0
  160.7100  210.2570  155.4720 C   0  0  0  0  0  2  0  0  0  0  0  0
  160.2930  208.1690  152.7400 O   0  0  0  0  0  0  0  0  0  0  0  0
  161.0350  209.0880  152.2970 C   0  0  0  0  0  0  0  0  0  0  0  0
  162.9820  212.5940  148.0470 C   0  0  0  0  0  0  0  0  0  0  0  0
  163.0540  213.8430  147.4210 C   0  0  0  0  0  3  0  0  0  0  0  0
  164.1780  212.0080  148.5550 N   0  0  0  0  0  1  0  0  0  0  0  0
  160.5780  212.5700  147.6880 C   0  0  0  0  0  0  0  0  0  0  0  0
  161.8980  214.4530  146.9300 C   0  0  0  0  0  3  0  0  0  0  0  0
  161.7360  211.9470  148.1920 C   0  0  0  0  0  0  0  0  0  0  0  0
  160.6630  213.8160  147.0630 C   0  0  0  0  0  3  0  0  0  0  0  0
  159.3680  211.9620  147.7800 F   0  0  0  0  0  0  0  0  0  0  0  0
  158.0820  213.3830  151.9990 O   0  0  0  0  0  0  0  0  0  0  0  0
  159.5920  213.5020  152.1650 S   0  0  2  0  0  0  0  0  0  0  0  0
  160.1340  214.2920  150.6410 C   0  0  0  0  0  1  0  0  0  0  0  0
  1  2  1  0  0  0  0
  2 10  2  0  0  0  0
  2 15  1  0  0  0  0
  3  9  1  0  0  0  0
  3  1  2  0  0  0  0
  5  8  1  0  0  0  0
  5 12  1  1  0  0  0
  6  4  1  0  0  0  0
  6 10  1  0  0  0  0
  7  9  1  0  0  0  0
  7 14  2  0  0  0  0
  8 11  1  1  0  0  0
  9  6  2  0  0  0  0
 10 19  1  0  0  0  0
 11 17  1  0  0  0  0
 12 17  1  0  0  0  0
 13 14  1  0  0  0  0
 14  4  1  0  0  0  0
 15 16  1  0  0  0  0
 16 29  1  1  0  0  0
 16  8  1  0  0  0  0
 19 18  2  0  0  0  0
 19  5  1  0  0  0  0
 20 25  1  0  0  0  0
 20 22  1  0  0  0  0
 21 20  2  0  0  0  0
 23 27  1  0  0  0  0
 23 25  2  0  0  0  0
 24 26  2  0  0  0  0
 24 21  1  0  0  0  0
 25  1  1  0  0  0  0
 26 23  1  0  0  0  0
 28 29  2  0  0  0  0
 29 30  1  6  0  0  0
M  END
>  <MODEL>
6

>  <REMARK>
 VINA RESULT:      -4.6      2.602      6.054
  Name = 
  2 active torsions:
  status: ('A' for Active; 'I' for Inactive)
    1  A    between atoms: C_1  and  C_22
    2  A    between atoms: S_11  and  C_25
                            x       y       z     vdW  Elec       q    Type
                         _______ _______ _______ _____ _____    ______ ____

>  <TORSDO>
F 2

$$$$
=
 OpenBabel11052421433D

 30 34  0  0  1  0  0  0  0  0999 V2000
  161.3540  209.7170  151.3460 C   0  0  0  0  0  0  0  0  0  0  0  0
  161.3050  208.3330  151.0340 C   0  0  0  0  0  0  0  0  0  0  0  0
  161.4450  210.1430  152.6820 C   0  0  0  0  0  3  0  0  0  0  0  0
  161.4430  206.9800  154.8480 S   0  0  0  0  0  0  0  0  0  0  0  0
  160.1680  205.5010  150.7280 C   0  0  1  0  0  3  0  0  0  0  0  0
  161.4250  207.8420  153.3990 C   0  0  0  0  0  0  0  0  0  0  0  0
  161.5590  209.5050  155.0150 N   0  0  0  0  0  0  0  0  0  0  0  0
  160.7770  205.5990  149.3350 C   0  0  2  0  0  3  0  0  0  0  0  0
  161.4870  209.1950  153.6960 C   0  0  0  0  0  0  0  0  0  0  0  0
  161.3120  207.3700  152.0830 C   0  0  0  0  0  0  0  0  0  0  0  0
  161.3920  204.2420  149.0780 C   0  0  0  0  0  2  0  0  0  0  0  0
  159.7650  204.0410  150.8840 C   0  0  0  0  0  2  0  0  0  0  0  0
  161.6120  208.4100  157.2610 C   0  0  0  0  0  1  0  0  0  0  0  0
  161.5490  208.3860  155.7760 C   0  0  0  0  0  0  0  0  0  0  0  0
  161.2520  207.9630  149.6810 O   0  0  0  0  0  0  0  0  0  0  0  0
  161.7830  206.7460  149.1650 C   0  0  2  0  0  3  0  0  0  0  0  0
  160.5020  203.2570  149.8080 C   0  0  0  0  0  2  0  0  0  0  0  0
  161.7880  205.0750  152.4610 O   0  0  0  0  0  0  0  0  0  0  0  0
  161.1260  205.9310  151.8110 C   0  0  0  0  0  0  0  0  0  0  0  0
  160.5470  211.8990  150.3930 C   0  0  0  0  0  0  0  0  0  0  0  0
  160.5480  212.8540  149.3720 C   0  0  0  0  0  3  0  0  0  0  0  0
  159.7130  212.1050  151.5310 N   0  0  0  0  0  1  0  0  0  0  0  0
  162.1410  210.5690  149.1290 C   0  0  0  0  0  0  0  0  0  0  0  0
  161.3400  212.6720  148.2370 C   0  0  0  0  0  3  0  0  0  0  0  0
  161.3430  210.7390  150.2760 C   0  0  0  0  0  0  0  0  0  0  0  0
  162.1350  211.5320  148.1170 C   0  0  0  0  0  3  0  0  0  0  0  0
  162.9440  209.4830  148.9970 F   0  0  0  0  0  0  0  0  0  0  0  0
  160.8920  207.0730  146.6910 O   0  0  0  0  0  0  0  0  0  0  0  0
  162.2240  207.0090  147.4270 S   0  0  2  0  0  0  0  0  0  0  0  0
  162.9470  205.4540  146.8790 C   0  0  0  0  0  1  0  0  0  0  0  0
  1  3  1  0  0  0  0
  2  1  2  0  0  0  0
  2 10  1  0  0  0  0
  3  9  2  0  0  0  0
  4 14  1  0  0  0  0
  5 12  1  1  0  0  0
  5 19  1  0  0  0  0
  6  9  1  0  0  0  0
  6  4  1  0  0  0  0
  7 14  2  0  0  0  0
  8 11  1  1  0  0  0
  8  5  1  0  0  0  0
  9  7  1  0  0  0  0
 10  6  2  0  0  0  0
 11 17  1  0  0  0  0
 14 13  1  0  0  0  0
 15  2  1  0  0  0  0
 16 29  1  6  0  0  0
 16  8  1  0  0  0  0
 16 15  1  0  0  0  0
 17 12  1  0  0  0  0
 19 10  1  0  0  0  0
 19 18  2  0  0  0  0
 20 22  1  0  0  0  0
 21 20  2  0  0  0  0
 23 25  2  0  0  0  0
 24 21  1  0  0  0  0
 25 20  1  0  0  0  0
 25  1  1  0  0  0  0
 26 24  2  0  0  0  0
 26 23  1  0  0  0  0
 27 23  1  0  0  0  0
 28 29  2  0  0  0  0
 29 30  1  6  0  0  0
M  END
>  <MODEL>
7

>  <REMARK>
 VINA RESULT:      -3.8      2.920      6.971
  Name = 
  2 active torsions:
  status: ('A' for Active; 'I' for Inactive)
    1  A    between atoms: C_1  and  C_22
    2  A    between atoms: S_11  and  C_25
                            x       y       z     vdW  Elec       q    Type
                         _______ _______ _______ _____ _____    ______ ____

>  <TORSDO>
F 2

$$$$
=
 OpenBabel11052421433D

 30 34  0  0  1  0  0  0  0  0999 V2000
  161.2070  209.1680  151.2780 C   0  0  0  0  0  0  0  0  0  0  0  0
  160.4870  210.1670  151.9850 C   0  0  0  0  0  0  0  0  0  0  0  0
  161.8780  209.4840  150.0850 C   0  0  0  0  0  3  0  0  0  0  0  0
  161.2180  213.1980  149.4010 S   0  0  0  0  0  0  0  0  0  0  0  0
  158.2320  212.1280  152.6770 C   0  0  1  0  0  3  0  0  0  0  0  0
  161.1150  211.7620  150.2790 C   0  0  0  0  0  0  0  0  0  0  0  0
  162.4290  211.1860  148.4520 N   0  0  0  0  0  0  0  0  0  0  0  0
  158.3610  211.5090  154.0630 C   0  0  2  0  0  3  0  0  0  0  0  0
  161.8290  210.7850  149.6020 C   0  0  0  0  0  0  0  0  0  0  0  0
  160.4130  211.4900  151.4630 C   0  0  0  0  0  0  0  0  0  0  0  0
  158.2360  212.6690  155.0250 C   0  0  0  0  0  2  0  0  0  0  0  0
  157.3230  213.3350  152.8630 C   0  0  0  0  0  2  0  0  0  0  0  0
  162.7100  213.2150  147.0210 C   0  0  0  0  0  1  0  0  0  0  0  0
  162.1860  212.4950  148.2110 C   0  0  0  0  0  0  0  0  0  0  0  0
  159.8670  209.8040  153.1910 O   0  0  0  0  0  0  0  0  0  0  0  0
  159.6490  210.7010  154.2770 C   0  0  2  0  0  3  0  0  0  0  0  0
  157.2890  213.6430  154.3530 C   0  0  0  0  0  2  0  0  0  0  0  0
  159.9710  213.7140  152.1630 O   0  0  0  0  0  0  0  0  0  0  0  0
  159.5650  212.5210  152.0920 C   0  0  0  0  0  0  0  0  0  0  0  0
  161.8350  207.5260  153.0740 C   0  0  0  0  0  0  0  0  0  0  0  0
  161.9130  206.2120  153.5480 C   0  0  0  0  0  3  0  0  0  0  0  0
  162.3310  208.5840  153.8900 N   0  0  0  0  0  1  0  0  0  0  0  0
  160.8310  206.7080  151.0170 C   0  0  0  0  0  0  0  0  0  0  0  0
  161.4520  205.1520  152.7650 C   0  0  0  0  0  3  0  0  0  0  0  0
  161.2960  207.7850  151.7960 C   0  0  0  0  0  0  0  0  0  0  0  0
  160.9120  205.4000  151.5030 C   0  0  0  0  0  3  0  0  0  0  0  0
  160.2770  206.9220  149.7970 F   0  0  0  0  0  0  0  0  0  0  0  0
  161.0280  209.7570  156.3340 O   0  0  0  0  0  0  0  0  0  0  0  0
  159.5980  209.7360  155.8090 S   0  0  2  0  0  0  0  0  0  0  0  0
  159.3530  208.0300  155.2890 C   0  0  0  0  0  1  0  0  0  0  0  0
  1 25  1  0  0  0  0
  1  2  1  0  0  0  0
  2 15  1  0  0  0  0
  3  1  2  0  0  0  0
  4  6  1  0  0  0  0
  5 12  1  1  0  0  0
  5  8  1  0  0  0  0
  6 10  1  0  0  0  0
  7  9  1  0  0  0  0
  8 16  1  0  0  0  0
  8 11  1  1  0  0  0
  9  3  1  0  0  0  0
  9  6  2  0  0  0  0
 10  2  2  0  0  0  0
 10 19  1  0  0  0  0
 12 17  1  0  0  0  0
 13 14  1  0  0  0  0
 14  7  2  0  0  0  0
 14  4  1  0  0  0  0
 15 16  1  0  0  0  0
 16 29  1  1  0  0  0
 17 11  1  0  0  0  0
 19 18  2  0  0  0  0
 19  5  1  0  0  0  0
 20 21  1  0  0  0  0
 20 22  1  0  0  0  0
 23 26  2  0  0  0  0
 23 25  1  0  0  0  0
 24 21  2  0  0  0  0
 25 20  2  0  0  0  0
 26 24  1  0  0  0  0
 27 23  1  0  0  0  0
 29 30  1  6  0  0  0
 29 28  2  0  0  0  0
M  END
>  <MODEL>
8

>  <REMARK>
 VINA RESULT:      -3.7      1.962      2.469
  Name = 
  2 active torsions:
  status: ('A' for Active; 'I' for Inactive)
    1  A    between atoms: C_1  and  C_22
    2  A    between atoms: S_11  and  C_25
                            x       y       z     vdW  Elec       q    Type
                         _______ _______ _______ _____ _____    ______ ____

>  <TORSDO>
F 2

$$$$
