=
 OpenBabel11062409463D

 34 38  0  0  1  0  0  0  0  0999 V2000
  161.2770  205.1770  148.8390 C   0  0  0  0  0  0  0  0  0  0  0  0
  161.2750  203.4730  145.5670 C   0  0  0  0  0  2  0  0  0  0  0  0
  162.0520  205.5520  146.2010 C   0  0  0  0  0  3  0  0  0  0  0  0
  161.6070  205.9730  151.2010 C   0  0  1  0  0  3  0  0  0  0  0  0
  160.8000  205.0590  150.2700 C   0  0  0  0  0  2  0  0  0  0  0  0
  161.8710  207.5600  149.3250 C   0  0  0  0  0  0  0  0  0  0  0  0
  161.7680  207.3610  150.6400 C   0  0  0  0  0  3  0  0  0  0  0  0
  162.1580  206.5640  147.0970 N   0  0  0  0  0  0  0  0  0  0  0  0
  161.7590  206.4210  148.3850 C   0  0  0  0  0  0  0  0  0  0  0  0
  160.4460  202.2380  145.6550 C   0  0  0  0  0  2  0  0  0  0  0  0
  161.0080  201.2280  146.5930 C   0  0  0  0  0  0  0  0  0  0  0  0
  161.1760  201.5220  147.8800 C   0  0  0  0  0  3  0  0  0  0  0  0
  161.5420  204.3080  146.5760 C   0  0  0  0  0  0  0  0  0  0  0  0
  161.0560  202.8560  148.4980 C   0  0  0  0  0  2  0  0  0  0  0  0
  161.2290  204.0770  147.9480 C   0  0  0  0  0  0  0  0  0  0  0  0
  161.2140  199.8830  146.1400 N   0  0  0  0  0  0  0  0  0  0  0  0
  161.9550  199.1080  146.7800 O   0  0  0  0  0  0  0  0  0  0  0  0
  160.5810  199.4210  145.0080 O   0  0  0  0  0  0  0  0  0  0  0  0
  162.1140  208.9430  148.8220 C   0  0  0  0  0  2  0  0  0  0  0  0
  162.1290  209.8380  149.8930 O   0  0  0  0  0  1  0  0  0  0  0  0
  161.0590  205.9990  152.5190 O   0  0  0  0  0  0  0  0  0  0  0  0
  160.6270  208.1880  155.4210 O   0  0  0  0  0  0  0  0  0  0  0  0
  160.6950  208.4930  152.6470 C   0  0  0  0  0  3  0  0  0  0  0  0
  160.1120  211.8780  155.0440 C   0  0  0  0  0  0  0  0  0  0  0  0
  160.2830  210.5250  155.6220 C   0  0  0  0  0  3  0  0  0  0  0  0
  160.4690  209.4550  154.8520 C   0  0  0  0  0  0  0  0  0  0  0  0
  160.3430  210.9250  152.7240 C   0  0  0  0  0  2  0  0  0  0  0  0
  160.5080  209.5880  153.3850 C   0  0  0  0  0  0  0  0  0  0  0  0
  160.1410  212.0480  153.7110 C   0  0  0  0  0  3  0  0  0  0  0  0
  160.8610  207.1600  153.2800 C   0  0  0  0  0  0  0  0  0  0  0  0
  160.8220  207.0570  154.6140 C   0  0  0  0  0  3  0  0  0  0  0  0
  159.9140  213.0090  155.9150 N   0  0  0  0  0  0  0  0  0  0  0  0
  160.5700  213.0980  157.2110 C   0  0  0  0  0  1  0  0  0  0  0  0
  159.0440  214.1090  155.5260 C   0  0  0  0  0  1  0  0  0  0  0  0
  1  5  1  0  0  0  0
  2 10  1  0  0  0  0
  2 13  1  0  0  0  0
  3 13  2  0  0  0  0
  3  8  1  0  0  0  0
  4 21  1  1  0  0  0
  5  4  1  0  0  0  0
  6  7  2  0  0  0  0
  7  4  1  0  0  0  0
  8  9  2  0  0  0  0
  9  1  1  0  0  0  0
  9  6  1  0  0  0  0
 10 11  1  0  0  0  0
 11 12  2  0  0  0  0
 12 14  1  0  0  0  0
 13 15  1  0  0  0  0
 15 14  1  0  0  0  0
 15  1  2  0  0  0  0
 16 11  1  0  0  0  0
 16 17  2  0  0  0  0
 18 16  2  0  0  0  0
 19  6  1  0  0  0  0
 19 20  1  0  0  0  0
 21 30  1  0  0  0  0
 23 30  1  0  0  0  0
 23 28  2  0  0  0  0
 24 25  1  0  0  0  0
 24 32  1  0  0  0  0
 26 22  1  0  0  0  0
 26 25  2  0  0  0  0
 27 28  1  0  0  0  0
 27 29  1  0  0  0  0
 28 26  1  0  0  0  0
 29 24  2  0  0  0  0
 30 31  2  0  0  0  0
 31 22  1  0  0  0  0
 32 33  1  0  0  0  0
 34 32  1  0  0  0  0
M  END
>  <MODEL>
1

>  <REMARK>
 VINA RESULT:     -10.3      0.000      0.000
  Name = 
  5 active torsions:
  status: ('A' for Active; 'I' for Inactive)
    1  A    between atoms: N_3  and  C_25
    2  A    between atoms: C_7  and  N_11
    3  A    between atoms: C_8  and  O_18
    4  A    between atoms: C_10  and  C_12
    5  A    between atoms: O_18  and  C_30
                            x       y       z     vdW  Elec       q    Type
                         _______ _______ _______ _____ _____    ______ ____

>  <TORSDO>
F 5

$$$$
=
 OpenBabel11062409463D

 34 38  0  0  1  0  0  0  0  0999 V2000
  161.6280  207.6240  149.7710 C   0  0  0  0  0  0  0  0  0  0  0  0
  161.3140  204.0660  148.8470 C   0  0  0  0  0  2  0  0  0  0  0  0
  160.8910  205.1680  150.8310 C   0  0  0  0  0  3  0  0  0  0  0  0
  161.4620  210.1150  150.0710 C   0  0  1  0  0  3  0  0  0  0  0  0
  162.0980  208.9720  149.2710 C   0  0  0  0  0  2  0  0  0  0  0  0
  161.4320  208.6370  152.0530 C   0  0  0  0  0  0  0  0  0  0  0  0
  161.5190  209.8730  151.5560 C   0  0  0  0  0  3  0  0  0  0  0  0
  160.9610  206.2630  151.6250 N   0  0  0  0  0  0  0  0  0  0  0  0
  161.3480  207.4710  151.1440 C   0  0  0  0  0  0  0  0  0  0  0  0
  161.9340  203.8490  147.5100 C   0  0  0  0  0  2  0  0  0  0  0  0
  161.2290  204.5740  146.4180 C   0  0  0  0  0  0  0  0  0  0  0  0
  161.1270  205.9000  146.4450 C   0  0  0  0  0  3  0  0  0  0  0  0
  161.1980  205.2430  149.4710 C   0  0  0  0  0  0  0  0  0  0  0  0
  161.4680  206.7830  147.5760 C   0  0  0  0  0  2  0  0  0  0  0  0
  161.4870  206.5170  148.8990 C   0  0  0  0  0  0  0  0  0  0  0  0
  160.8020  203.8530  145.2530 N   0  0  0  0  0  0  0  0  0  0  0  0
  160.4670  204.4670  144.2190 O   0  0  0  0  0  0  0  0  0  0  0  0
  160.7800  202.4760  145.2510 O   0  0  0  0  0  0  0  0  0  0  0  0
  161.4100  208.4550  153.5330 C   0  0  0  0  0  2  0  0  0  0  0  0
  160.4170  209.2610  154.0920 O   0  0  0  0  0  1  0  0  0  0  0  0
  162.0230  211.3800  149.7230 O   0  0  0  0  0  0  0  0  0  0  0  0
  163.1780  213.1010  146.7050 O   0  0  0  0  0  0  0  0  0  0  0  0
  160.8300  211.8450  147.5470 C   0  0  0  0  0  3  0  0  0  0  0  0
  160.9670  213.5220  143.7120 C   0  0  0  0  0  0  0  0  0  0  0  0
  162.1240  213.5750  144.6340 C   0  0  0  0  0  3  0  0  0  0  0  0
  162.0720  213.0380  145.8520 C   0  0  0  0  0  0  0  0  0  0  0  0
  159.6310  212.2760  145.4450 C   0  0  0  0  0  2  0  0  0  0  0  0
  160.8450  212.3700  146.3210 C   0  0  0  0  0  0  0  0  0  0  0  0
  159.8270  212.9230  144.0960 C   0  0  0  0  0  3  0  0  0  0  0  0
  162.0210  211.9280  148.4310 C   0  0  0  0  0  0  0  0  0  0  0  0
  163.1270  212.5380  147.9890 C   0  0  0  0  0  3  0  0  0  0  0  0
  161.0670  214.1160  142.4020 N   0  0  0  0  0  0  0  0  0  0  0  0
  162.3570  214.4020  141.7910 C   0  0  0  0  0  1  0  0  0  0  0  0
  159.8740  214.4530  141.6400 C   0  0  0  0  0  1  0  0  0  0  0  0
  1  9  1  0  0  0  0
  2 13  1  0  0  0  0
  3  8  1  0  0  0  0
  4 21  1  1  0  0  0
  4  7  1  0  0  0  0
  5  1  1  0  0  0  0
  5  4  1  0  0  0  0
  6 19  1  0  0  0  0
  7  6  2  0  0  0  0
  9  8  2  0  0  0  0
  9  6  1  0  0  0  0
 10  2  1  0  0  0  0
 11 12  2  0  0  0  0
 11 10  1  0  0  0  0
 12 14  1  0  0  0  0
 13  3  2  0  0  0  0
 14 15  1  0  0  0  0
 15 13  1  0  0  0  0
 15  1  2  0  0  0  0
 16 11  1  0  0  0  0
 17 16  2  0  0  0  0
 18 16  2  0  0  0  0
 19 20  1  0  0  0  0
 22 31  1  0  0  0  0
 23 30  1  0  0  0  0
 24 29  2  0  0  0  0
 24 25  1  0  0  0  0
 25 26  2  0  0  0  0
 26 28  1  0  0  0  0
 26 22  1  0  0  0  0
 27 28  1  0  0  0  0
 28 23  2  0  0  0  0
 29 27  1  0  0  0  0
 30 21  1  0  0  0  0
 31 30  2  0  0  0  0
 32 24  1  0  0  0  0
 33 32  1  0  0  0  0
 34 32  1  0  0  0  0
M  END
>  <MODEL>
2

>  <REMARK>
 VINA RESULT:      -9.8      4.198      7.283
  Name = 
  5 active torsions:
  status: ('A' for Active; 'I' for Inactive)
    1  A    between atoms: N_3  and  C_25
    2  A    between atoms: C_7  and  N_11
    3  A    between atoms: C_8  and  O_18
    4  A    between atoms: C_10  and  C_12
    5  A    between atoms: O_18  and  C_30
                            x       y       z     vdW  Elec       q    Type
                         _______ _______ _______ _____ _____    ______ ____

>  <TORSDO>
F 5

$$$$
=
 OpenBabel11062409463D

 34 38  0  0  1  0  0  0  0  0999 V2000
  160.8370  208.9670  152.7580 C   0  0  0  0  0  0  0  0  0  0  0  0
  160.5120  212.3980  151.4430 C   0  0  0  0  0  2  0  0  0  0  0  0
  160.4580  211.5820  153.6020 C   0  0  0  0  0  3  0  0  0  0  0  0
  161.5360  206.6630  153.4840 C   0  0  1  0  0  3  0  0  0  0  0  0
  160.9570  207.5150  152.3480 C   0  0  0  0  0  2  0  0  0  0  0  0
  160.4480  208.1810  155.1030 C   0  0  0  0  0  0  0  0  0  0  0  0
  160.8790  206.9530  154.8070 C   0  0  0  0  0  3  0  0  0  0  0  0
  160.3960  210.5600  154.4900 N   0  0  0  0  0  0  0  0  0  0  0  0
  160.5460  209.2680  154.1030 C   0  0  0  0  0  0  0  0  0  0  0  0
  160.3880  212.3470  149.9590 C   0  0  0  0  0  2  0  0  0  0  0  0
  161.6080  211.8150  149.2930 C   0  0  0  0  0  0  0  0  0  0  0  0
  162.0400  210.5850  149.5610 C   0  0  0  0  0  3  0  0  0  0  0  0
  160.6990  211.3470  152.2470 C   0  0  0  0  0  0  0  0  0  0  0  0
  161.5570  209.7000  150.6380 C   0  0  0  0  0  2  0  0  0  0  0  0
  160.9870  210.0170  151.8200 C   0  0  0  0  0  0  0  0  0  0  0  0
  162.2220  212.5690  148.2390 N   0  0  0  0  0  0  0  0  0  0  0  0
  163.4160  212.3690  147.9330 O   0  0  0  0  0  0  0  0  0  0  0  0
  161.4980  213.5050  147.5350 O   0  0  0  0  0  0  0  0  0  0  0  0
  159.8810  208.4380  156.4580 C   0  0  0  0  0  2  0  0  0  0  0  0
  159.9890  207.2880  157.2410 O   0  0  0  0  0  1  0  0  0  0  0  0
  161.4970  205.2700  153.1720 O   0  0  0  0  0  0  0  0  0  0  0  0
  161.4550  205.0970  149.5150 O   0  0  0  0  0  0  0  0  0  0  0  0
  161.1630  203.2990  151.6310 C   0  0  0  0  0  3  0  0  0  0  0  0
  160.9090  201.8650  147.7040 C   0  0  0  0  0  0  0  0  0  0  0  0
  161.1490  203.2950  148.0050 C   0  0  0  0  0  3  0  0  0  0  0  0
  161.2290  203.7420  149.2570 C   0  0  2  0  0  3  0  0  0  0  0  0
  160.8330  201.3510  150.1690 C   0  0  0  0  0  3  0  0  0  0  0  0
  161.0770  202.8140  150.3920 C   0  0  0  0  0  0  0  0  0  0  0  0
  160.7660  200.9820  148.7070 C   0  0  0  0  0  3  0  0  0  0  0  0
  161.4040  204.7440  151.8750 C   0  0  0  0  0  0  0  0  0  0  0  0
  161.5390  205.5730  150.8330 C   0  0  0  0  0  3  0  0  0  0  0  0
  160.8300  201.4250  146.3340 N   0  0  0  0  0  0  0  0  0  0  0  0
  160.4560  202.3340  145.2610 C   0  0  0  0  0  1  0  0  0  0  0  0
  161.1230  200.0460  145.9730 C   0  0  0  0  0  1  0  0  0  0  0  0
  1  9  1  0  0  0  0
  2 13  1  0  0  0  0
  3  8  1  0  0  0  0
  4 21  1  6  0  0  0
  4  7  1  0  0  0  0
  5  1  1  0  0  0  0
  5  4  1  0  0  0  0
  6 19  1  0  0  0  0
  7  6  2  0  0  0  0
  9  8  2  0  0  0  0
  9  6  1  0  0  0  0
 10  2  1  0  0  0  0
 11 12  2  0  0  0  0
 11 10  1  0  0  0  0
 12 14  1  0  0  0  0
 13  3  2  0  0  0  0
 14 15  1  0  0  0  0
 15 13  1  0  0  0  0
 15  1  2  0  0  0  0
 16 11  1  0  0  0  0
 17 16  2  0  0  0  0
 18 16  2  0  0  0  0
 19 20  1  0  0  0  0
 22 31  1  0  0  0  0
 23 30  1  0  0  0  0
 24 25  2  0  0  0  0
 24 29  1  0  0  0  0
 26 25  1  1  0  0  0
 26 22  1  0  0  0  0
 26 28  1  0  0  0  0
 27 28  1  0  0  0  0
 28 23  2  0  0  0  0
 29 27  2  0  0  0  0
 30 21  1  0  0  0  0
 31 30  2  0  0  0  0
 32 24  1  0  0  0  0
 33 32  1  0  0  0  0
 34 32  1  0  0  0  0
M  END
>  <MODEL>
3

>  <REMARK>
 VINA RESULT:      -9.2      2.610      9.587
  Name = 
  5 active torsions:
  status: ('A' for Active; 'I' for Inactive)
    1  A    between atoms: N_3  and  C_25
    2  A    between atoms: C_7  and  N_11
    3  A    between atoms: C_8  and  O_18
    4  A    between atoms: C_10  and  C_12
    5  A    between atoms: O_18  and  C_30
                            x       y       z     vdW  Elec       q    Type
                         _______ _______ _______ _____ _____    ______ ____

>  <TORSDO>
F 5

$$$$
=
 OpenBabel11062409463D

 34 38  0  0  1  0  0  0  0  0999 V2000
  160.5980  208.6450  153.2720 C   0  0  0  0  0  0  0  0  0  0  0  0
  159.0360  210.2150  156.2220 C   0  0  0  0  0  2  0  0  0  0  0  0
  160.1180  208.1920  155.9670 C   0  0  0  0  0  3  0  0  0  0  0  0
  161.9960  207.9560  151.2990 C   0  0  1  0  0  3  0  0  0  0  0  0
  160.8120  208.8020  151.7820 C   0  0  0  0  0  2  0  0  0  0  0  0
  161.4660  206.3050  153.0600 C   0  0  0  0  0  0  0  0  0  0  0  0
  161.9560  206.5530  151.8440 C   0  0  0  0  0  3  0  0  0  0  0  0
  160.6670  207.2210  155.1960 N   0  0  0  0  0  0  0  0  0  0  0  0
  160.8850  207.4010  153.8690 C   0  0  0  0  0  0  0  0  0  0  0  0
  158.2760  211.4220  155.7920 C   0  0  0  0  0  2  0  0  0  0  0  0
  159.1480  212.4880  155.2300 C   0  0  0  0  0  0  0  0  0  0  0  0
  159.8930  212.2520  154.1520 C   0  0  0  0  0  3  0  0  0  0  0  0
  159.7700  209.4310  155.4260 C   0  0  0  0  0  0  0  0  0  0  0  0
  160.1310  210.9400  153.5210 C   0  0  0  0  0  2  0  0  0  0  0  0
  160.0990  209.7060  154.0650 C   0  0  0  0  0  0  0  0  0  0  0  0
  159.0610  213.8210  155.7530 N   0  0  0  0  0  0  0  0  0  0  0  0
  157.9860  214.4530  155.6950 O   0  0  0  0  0  0  0  0  0  0  0  0
  160.1530  214.4120  156.3480 O   0  0  0  0  0  0  0  0  0  0  0  0
  161.5240  204.9130  153.5910 C   0  0  0  0  0  2  0  0  0  0  0  0
  160.8200  204.0560  152.7450 O   0  0  0  0  0  1  0  0  0  0  0  0
  162.1040  207.9630  149.8750 O   0  0  0  0  0  0  0  0  0  0  0  0
  162.0440  205.8500  146.8870 O   0  0  0  0  0  0  0  0  0  0  0  0
  161.4000  205.5560  149.5880 C   0  0  0  0  0  3  0  0  0  0  0  0
  160.8910  202.2890  147.0170 C   0  0  0  0  0  0  0  0  0  0  0  0
  161.4010  203.5940  146.5380 C   0  0  0  0  0  3  0  0  0  0  0  0
  161.5600  204.6270  147.3630 C   0  0  2  0  0  3  0  0  0  0  0  0
  160.7060  203.2100  149.3540 C   0  0  0  0  0  3  0  0  0  0  0  0
  161.2280  204.4990  148.7930 C   0  0  0  0  0  0  0  0  0  0  0  0
  160.5740  202.1260  148.3130 C   0  0  0  0  0  3  0  0  0  0  0  0
  161.9160  206.8420  149.0530 C   0  0  0  0  0  0  0  0  0  0  0  0
  162.2130  206.9410  147.7520 C   0  0  0  0  0  3  0  0  0  0  0  0
  160.7340  201.1970  146.0890 N   0  0  0  0  0  0  0  0  0  0  0  0
  161.2950  199.8810  146.3580 C   0  0  0  0  0  1  0  0  0  0  0  0
  160.0030  201.3730  144.8430 C   0  0  0  0  0  1  0  0  0  0  0  0
  1  9  2  0  0  0  0
  1 15  1  0  0  0  0
  4 21  1  6  0  0  0
  4  5  1  0  0  0  0
  4  7  1  0  0  0  0
  5  1  1  0  0  0  0
  6 19  1  0  0  0  0
  6  9  1  0  0  0  0
  7  6  2  0  0  0  0
  8  3  2  0  0  0  0
  9  8  1  0  0  0  0
 10  2  1  0  0  0  0
 11 16  1  0  0  0  0
 11 10  1  0  0  0  0
 12 11  2  0  0  0  0
 13  3  1  0  0  0  0
 13  2  1  0  0  0  0
 14 15  1  0  0  0  0
 14 12  1  0  0  0  0
 15 13  2  0  0  0  0
 16 18  2  0  0  0  0
 17 16  2  0  0  0  0
 20 19  1  0  0  0  0
 22 26  1  0  0  0  0
 22 31  1  0  0  0  0
 24 29  1  0  0  0  0
 25 24  2  0  0  0  0
 26 25  1  6  0  0  0
 26 28  1  0  0  0  0
 28 27  1  0  0  0  0
 28 23  2  0  0  0  0
 29 27  2  0  0  0  0
 30 23  1  0  0  0  0
 30 21  1  0  0  0  0
 31 30  2  0  0  0  0
 32 33  1  0  0  0  0
 32 24  1  0  0  0  0
 34 32  1  0  0  0  0
M  END
>  <MODEL>
4

>  <REMARK>
 VINA RESULT:      -9.2      2.384     10.741
  Name = 
  5 active torsions:
  status: ('A' for Active; 'I' for Inactive)
    1  A    between atoms: N_3  and  C_25
    2  A    between atoms: C_7  and  N_11
    3  A    between atoms: C_8  and  O_18
    4  A    between atoms: C_10  and  C_12
    5  A    between atoms: O_18  and  C_30
                            x       y       z     vdW  Elec       q    Type
                         _______ _______ _______ _____ _____    ______ ____

>  <TORSDO>
F 5

$$$$
=
 OpenBabel11062409463D

 34 38  0  0  1  0  0  0  0  0999 V2000
  160.7680  209.2260  152.8830 C   0  0  0  0  0  0  0  0  0  0  0  0
  160.3150  212.7050  151.7430 C   0  0  0  0  0  2  0  0  0  0  0  0
  160.2630  211.7760  153.8550 C   0  0  0  0  0  3  0  0  0  0  0  0
  161.5550  206.9190  153.5020 C   0  0  1  0  0  3  0  0  0  0  0  0
  160.9570  207.8040  152.4010 C   0  0  0  0  0  2  0  0  0  0  0  0
  160.3780  208.3030  155.1780 C   0  0  0  0  0  0  0  0  0  0  0  0
  160.8660  207.1120  154.8260 C   0  0  0  0  0  3  0  0  0  0  0  0
  160.2330  210.7070  154.6880 N   0  0  0  0  0  0  0  0  0  0  0  0
  160.4440  209.4450  154.2370 C   0  0  0  0  0  0  0  0  0  0  0  0
  160.2160  212.7260  150.2560 C   0  0  0  0  0  2  0  0  0  0  0  0
  161.4670  212.2820  149.5850 C   0  0  0  0  0  0  0  0  0  0  0  0
  161.9480  211.0590  149.7960 C   0  0  0  0  0  3  0  0  0  0  0  0
  160.5350  211.6210  152.4940 C   0  0  0  0  0  0  0  0  0  0  0  0
  161.4880  210.1000  150.8170 C   0  0  0  0  0  2  0  0  0  0  0  0
  160.8870  210.3290  152.0040 C   0  0  0  0  0  0  0  0  0  0  0  0
  162.0640  213.1150  148.5810 N   0  0  0  0  0  0  0  0  0  0  0  0
  161.7450  214.3190  148.4890 O   0  0  0  0  0  0  0  0  0  0  0  0
  163.0140  212.6060  147.7240 O   0  0  0  0  0  0  0  0  0  0  0  0
  159.7800  208.4650  156.5340 C   0  0  0  0  0  2  0  0  0  0  0  0
  159.9230  207.2800  157.2580 O   0  0  0  0  0  1  0  0  0  0  0  0
  161.5810  205.5450  153.1180 O   0  0  0  0  0  0  0  0  0  0  0  0
  161.1820  203.2550  150.2890 O   0  0  0  0  0  0  0  0  0  0  0  0
  161.5480  206.0020  150.6350 C   0  0  0  0  0  3  0  0  0  0  0  0
  161.2080  204.4770  146.7490 C   0  0  0  0  0  0  0  0  0  0  0  0
  161.1400  203.6050  147.9450 C   0  0  0  0  0  3  0  0  0  0  0  0
  161.2490  204.0990  149.1760 C   0  0  0  0  0  0  0  0  0  0  0  0
  161.5210  206.4920  148.2270 C   0  0  0  0  0  2  0  0  0  0  0  0
  161.4430  205.5450  149.3870 C   0  0  0  0  0  0  0  0  0  0  0  0
  161.3840  205.8010  146.8930 C   0  0  0  0  0  3  0  0  0  0  0  0
  161.4730  205.0810  151.7980 C   0  0  0  0  0  0  0  0  0  0  0  0
  161.2970  203.7700  151.5890 C   0  0  0  0  0  3  0  0  0  0  0  0
  161.0850  203.9000  145.4340 N   0  0  0  0  0  0  0  0  0  0  0  0
  161.2080  204.7110  144.2310 C   0  0  0  0  0  1  0  0  0  0  0  0
  160.8320  202.4780  145.2620 C   0  0  0  0  0  1  0  0  0  0  0  0
  1  9  1  0  0  0  0
  2 13  1  0  0  0  0
  3  8  1  0  0  0  0
  4 21  1  6  0  0  0
  4  7  1  0  0  0  0
  5  1  1  0  0  0  0
  5  4  1  0  0  0  0
  6 19  1  0  0  0  0
  7  6  2  0  0  0  0
  9  8  2  0  0  0  0
  9  6  1  0  0  0  0
 10  2  1  0  0  0  0
 11 12  2  0  0  0  0
 11 10  1  0  0  0  0
 12 14  1  0  0  0  0
 13  3  2  0  0  0  0
 14 15  1  0  0  0  0
 15 13  1  0  0  0  0
 15  1  2  0  0  0  0
 16 11  1  0  0  0  0
 17 16  2  0  0  0  0
 18 16  2  0  0  0  0
 19 20  1  0  0  0  0
 22 31  1  0  0  0  0
 23 30  1  0  0  0  0
 24 29  2  0  0  0  0
 24 25  1  0  0  0  0
 25 26  2  0  0  0  0
 26 28  1  0  0  0  0
 26 22  1  0  0  0  0
 27 28  1  0  0  0  0
 28 23  2  0  0  0  0
 29 27  1  0  0  0  0
 30 21  1  0  0  0  0
 31 30  2  0  0  0  0
 32 24  1  0  0  0  0
 33 32  1  0  0  0  0
 34 32  1  0  0  0  0
M  END
>  <MODEL>
5

>  <REMARK>
 VINA RESULT:      -9.1      2.302      9.351
  Name = 
  5 active torsions:
  status: ('A' for Active; 'I' for Inactive)
    1  A    between atoms: N_3  and  C_25
    2  A    between atoms: C_7  and  N_11
    3  A    between atoms: C_8  and  O_18
    4  A    between atoms: C_10  and  C_12
    5  A    between atoms: O_18  and  C_30
                            x       y       z     vdW  Elec       q    Type
                         _______ _______ _______ _____ _____    ______ ____

>  <TORSDO>
F 5

$$$$
=
 OpenBabel11062409463D

 34 38  0  0  1  0  0  0  0  0999 V2000
  160.7370  209.4230  153.0960 C   0  0  0  0  0  0  0  0  0  0  0  0
  161.4370  205.8040  153.2590 C   0  0  0  0  0  2  0  0  0  0  0  0
  160.6830  207.2840  154.8630 C   0  0  0  0  0  3  0  0  0  0  0  0
  159.8830  211.7500  152.6740 C   0  0  1  0  0  3  0  0  0  0  0  0
  160.8270  210.6390  152.2000 C   0  0  0  0  0  2  0  0  0  0  0  0
  160.2180  210.9700  154.9950 C   0  0  0  0  0  0  0  0  0  0  0  0
  159.9720  211.9800  154.1590 C   0  0  0  0  0  3  0  0  0  0  0  0
  160.4300  208.5400  155.3010 N   0  0  0  0  0  0  0  0  0  0  0  0
  160.4790  209.6110  154.4690 C   0  0  0  0  0  0  0  0  0  0  0  0
  162.1230  205.3790  152.0060 C   0  0  0  0  0  2  0  0  0  0  0  0
  161.2690  205.5320  150.7970 C   0  0  0  0  0  0  0  0  0  0  0  0
  160.8050  206.7290  150.4460 C   0  0  0  0  0  3  0  0  0  0  0  0
  160.9880  207.0350  153.5230 C   0  0  0  0  0  0  0  0  0  0  0  0
  160.8640  207.9630  151.2510 C   0  0  0  0  0  2  0  0  0  0  0  0
  160.9260  208.1140  152.5910 C   0  0  0  0  0  0  0  0  0  0  0  0
  161.0840  204.4140  149.9170 N   0  0  0  0  0  0  0  0  0  0  0  0
  161.1610  204.5640  148.6800 O   0  0  0  0  0  0  0  0  0  0  0  0
  160.8440  203.1570  150.4250 O   0  0  0  0  0  0  0  0  0  0  0  0
  160.2140  211.2320  156.4630 C   0  0  0  0  0  2  0  0  0  0  0  0
  161.5250  211.3600  156.9230 O   0  0  0  0  0  1  0  0  0  0  0  0
  160.0800  212.9590  151.9410 O   0  0  0  0  0  0  0  0  0  0  0  0
  158.6980  213.4510  148.5880 O   0  0  0  0  0  0  0  0  0  0  0  0
  161.2070  212.9040  149.6840 C   0  0  0  0  0  3  0  0  0  0  0  0
  160.8460  213.2610  145.5260 C   0  0  0  0  0  0  0  0  0  0  0  0
  159.6840  213.4150  146.4320 C   0  0  0  0  0  3  0  0  0  0  0  0
  159.8090  213.3010  147.7530 C   0  0  0  0  0  0  0  0  0  0  0  0
  162.3460  212.8420  147.5060 C   0  0  0  0  0  2  0  0  0  0  0  0
  161.1220  213.0120  148.3570 C   0  0  0  0  0  0  0  0  0  0  0  0
  162.0620  212.9970  146.0320 C   0  0  0  0  0  3  0  0  0  0  0  0
  160.0090  213.0690  150.5450 C   0  0  0  0  0  0  0  0  0  0  0  0
  158.8240  213.3300  149.9800 C   0  0  0  0  0  3  0  0  0  0  0  0
  160.6660  213.3930  144.1020 N   0  0  0  0  0  0  0  0  0  0  0  0
  159.6890  214.3130  143.5390 C   0  0  0  0  0  1  0  0  0  0  0  0
  161.4590  212.6040  143.1720 C   0  0  0  0  0  1  0  0  0  0  0  0
  1  9  1  0  0  0  0
  2 13  1  0  0  0  0
  3  8  1  0  0  0  0
  4 21  1  6  0  0  0
  4  7  1  0  0  0  0
  5  4  1  0  0  0  0
  5  1  1  0  0  0  0
  6 19  1  0  0  0  0
  7  6  2  0  0  0  0
  9  6  1  0  0  0  0
  9  8  2  0  0  0  0
 10  2  1  0  0  0  0
 11 10  1  0  0  0  0
 12 11  2  0  0  0  0
 12 14  1  0  0  0  0
 13  3  2  0  0  0  0
 14 15  1  0  0  0  0
 15  1  2  0  0  0  0
 15 13  1  0  0  0  0
 16 18  2  0  0  0  0
 16 11  1  0  0  0  0
 17 16  2  0  0  0  0
 19 20  1  0  0  0  0
 22 31  1  0  0  0  0
 23 30  1  0  0  0  0
 24 29  2  0  0  0  0
 24 25  1  0  0  0  0
 25 26  2  0  0  0  0
 26 28  1  0  0  0  0
 26 22  1  0  0  0  0
 27 28  1  0  0  0  0
 28 23  2  0  0  0  0
 29 27  1  0  0  0  0
 30 21  1  0  0  0  0
 31 30  2  0  0  0  0
 32 24  1  0  0  0  0
 33 32  1  0  0  0  0
 34 32  1  0  0  0  0
M  END
>  <MODEL>
6

>  <REMARK>
 VINA RESULT:      -9.1      3.777      7.831
  Name = 
  5 active torsions:
  status: ('A' for Active; 'I' for Inactive)
    1  A    between atoms: N_3  and  C_25
    2  A    between atoms: C_7  and  N_11
    3  A    between atoms: C_8  and  O_18
    4  A    between atoms: C_10  and  C_12
    5  A    between atoms: O_18  and  C_30
                            x       y       z     vdW  Elec       q    Type
                         _______ _______ _______ _____ _____    ______ ____

>  <TORSDO>
F 5

$$$$
=
 OpenBabel11062409463D

 34 38  0  0  1  0  0  0  0  0999 V2000
  160.2170  210.5780  153.0310 C   0  0  0  0  0  0  0  0  0  0  0  0
  158.6720  213.6530  154.3610 C   0  0  0  0  0  2  0  0  0  0  0  0
  159.6860  213.2110  152.3350 C   0  0  0  0  0  3  0  0  0  0  0  0
  160.7960  208.3020  152.1340 C   0  0  1  0  0  3  0  0  0  0  0  0
  160.6070  209.1600  153.3900 C   0  0  0  0  0  2  0  0  0  0  0  0
  161.5610  210.3220  150.9340 C   0  0  0  0  0  0  0  0  0  0  0  0
  161.6210  208.9980  151.0860 C   0  0  0  0  0  3  0  0  0  0  0  0
  160.4260  212.4230  151.5190 N   0  0  0  0  0  0  0  0  0  0  0  0
  160.7290  211.1410  151.8450 C   0  0  0  0  0  0  0  0  0  0  0  0
  158.3700  213.4650  155.8080 C   0  0  0  0  0  2  0  0  0  0  0  0
  157.3530  212.4080  156.0570 C   0  0  0  0  0  0  0  0  0  0  0  0
  157.5760  211.1530  155.6730 C   0  0  0  0  0  3  0  0  0  0  0  0
  159.1860  212.7270  153.5450 C   0  0  0  0  0  0  0  0  0  0  0  0
  158.6760  210.6830  154.8100 C   0  0  0  0  0  2  0  0  0  0  0  0
  159.3740  211.3500  153.8670 C   0  0  0  0  0  0  0  0  0  0  0  0
  156.2020  212.7100  156.8590 N   0  0  0  0  0  0  0  0  0  0  0  0
  155.9580  213.8880  157.1930 O   0  0  0  0  0  0  0  0  0  0  0  0
  155.3400  211.7100  157.2490 O   0  0  0  0  0  0  0  0  0  0  0  0
  162.3320  210.9570  149.8270 C   0  0  0  0  0  2  0  0  0  0  0  0
  161.9730  210.3790  148.6090 O   0  0  0  0  0  1  0  0  0  0  0  0
  161.3250  207.0140  152.4500 O   0  0  0  0  0  0  0  0  0  0  0  0
  161.0400  203.5260  151.3760 O   0  0  0  0  0  0  0  0  0  0  0  0
  161.3150  206.0120  150.1340 C   0  0  0  0  0  3  0  0  0  0  0  0
  161.0800  202.5730  147.7540 C   0  0  0  0  0  0  0  0  0  0  0  0
  161.0220  202.5110  149.2330 C   0  0  0  0  0  3  0  0  0  0  0  0
  161.0970  203.6100  149.9810 C   0  0  0  0  0  0  0  0  0  0  0  0
  161.3080  205.0790  147.8590 C   0  0  0  0  0  2  0  0  0  0  0  0
  161.2420  204.9350  149.3510 C   0  0  0  0  0  0  0  0  0  0  0  0
  161.2120  203.7590  147.1360 C   0  0  0  0  0  3  0  0  0  0  0  0
  161.2510  205.8910  151.6120 C   0  0  0  0  0  0  0  0  0  0  0  0
  161.1200  204.6810  152.1690 C   0  0  0  0  0  3  0  0  0  0  0  0
  160.9960  201.3580  146.9820 N   0  0  0  0  0  0  0  0  0  0  0  0
  160.3900  201.3360  145.6590 C   0  0  0  0  0  1  0  0  0  0  0  0
  161.5160  200.1040  147.5030 C   0  0  0  0  0  1  0  0  0  0  0  0
  1  5  1  0  0  0  0
  1 15  1  0  0  0  0
  2 10  1  0  0  0  0
  3 13  1  0  0  0  0
  4 21  1  1  0  0  0
  4  5  1  0  0  0  0
  6  7  2  0  0  0  0
  6  9  1  0  0  0  0
  7  4  1  0  0  0  0
  8  9  1  0  0  0  0
  8  3  2  0  0  0  0
  9  1  2  0  0  0  0
 10 11  1  0  0  0  0
 11 16  1  0  0  0  0
 12 11  2  0  0  0  0
 13 15  2  0  0  0  0
 13  2  1  0  0  0  0
 14 12  1  0  0  0  0
 15 14  1  0  0  0  0
 16 17  2  0  0  0  0
 16 18  2  0  0  0  0
 19  6  1  0  0  0  0
 20 19  1  0  0  0  0
 22 31  1  0  0  0  0
 23 30  1  0  0  0  0
 24 25  1  0  0  0  0
 25 26  2  0  0  0  0
 26 22  1  0  0  0  0
 27 28  1  0  0  0  0
 28 26  1  0  0  0  0
 28 23  2  0  0  0  0
 29 24  2  0  0  0  0
 29 27  1  0  0  0  0
 30 31  2  0  0  0  0
 30 21  1  0  0  0  0
 32 34  1  0  0  0  0
 32 24  1  0  0  0  0
 33 32  1  0  0  0  0
M  END
>  <MODEL>
7

>  <REMARK>
 VINA RESULT:      -8.9      2.492     10.528
  Name = 
  5 active torsions:
  status: ('A' for Active; 'I' for Inactive)
    1  A    between atoms: N_3  and  C_25
    2  A    between atoms: C_7  and  N_11
    3  A    between atoms: C_8  and  O_18
    4  A    between atoms: C_10  and  C_12
    5  A    between atoms: O_18  and  C_30
                            x       y       z     vdW  Elec       q    Type
                         _______ _______ _______ _____ _____    ______ ____

>  <TORSDO>
F 5

$$$$
=
 OpenBabel11062409463D

 34 38  0  0  1  0  0  0  0  0999 V2000
  160.2090  210.9260  152.6080 C   0  0  0  0  0  0  0  0  0  0  0  0
  159.7860  213.7440  150.2650 C   0  0  0  0  0  2  0  0  0  0  0  0
  159.3130  213.5510  152.5170 C   0  0  0  0  0  3  0  0  0  0  0  0
  160.9940  209.0840  154.1280 C   0  0  1  0  0  3  0  0  0  0  0  0
  160.6050  209.4680  152.6960 C   0  0  0  0  0  2  0  0  0  0  0  0
  159.3660  210.7480  154.9590 C   0  0  0  0  0  0  0  0  0  0  0  0
  160.0060  209.5910  155.1440 C   0  0  0  0  0  3  0  0  0  0  0  0
  159.1670  212.8160  153.6460 N   0  0  0  0  0  0  0  0  0  0  0  0
  159.5660  211.5210  153.7120 C   0  0  0  0  0  0  0  0  0  0  0  0
  160.0320  213.2690  148.8750 C   0  0  0  0  0  2  0  0  0  0  0  0
  161.4330  212.8190  148.6550 C   0  0  0  0  0  0  0  0  0  0  0  0
  161.9380  211.8140  149.3660 C   0  0  0  0  0  3  0  0  0  0  0  0
  159.9030  213.0060  151.3740 C   0  0  0  0  0  0  0  0  0  0  0  0
  161.3230  211.1800  150.5470 C   0  0  0  0  0  2  0  0  0  0  0  0
  160.4500  211.6900  151.4400 C   0  0  0  0  0  0  0  0  0  0  0  0
  162.1850  213.3610  147.5600 N   0  0  0  0  0  0  0  0  0  0  0  0
  163.0920  214.1940  147.7680 O   0  0  0  0  0  0  0  0  0  0  0  0
  161.9350  212.9530  146.2690 O   0  0  0  0  0  0  0  0  0  0  0  0
  158.4600  211.2500  156.0310 C   0  0  0  0  0  2  0  0  0  0  0  0
  157.1310  211.0210  155.6720 O   0  0  0  0  0  1  0  0  0  0  0  0
  161.2060  207.6780  154.2580 O   0  0  0  0  0  0  0  0  0  0  0  0
  161.2060  204.5040  152.4340 O   0  0  0  0  0  0  0  0  0  0  0  0
  161.2070  207.2180  151.7770 C   0  0  0  0  0  3  0  0  0  0  0  0
  161.2060  204.3860  148.6910 C   0  0  0  0  0  0  0  0  0  0  0  0
  161.2060  203.9930  150.1190 C   0  0  0  0  0  3  0  0  0  0  0  0
  161.2060  204.9000  151.0930 C   0  0  0  0  0  0  0  0  0  0  0  0
  161.2070  206.8170  149.3510 C   0  0  0  0  0  2  0  0  0  0  0  0
  161.2070  206.3390  150.7730 C   0  0  0  0  0  0  0  0  0  0  0  0
  161.2070  205.6860  148.3520 C   0  0  0  0  0  3  0  0  0  0  0  0
  161.2070  206.7670  153.1910 C   0  0  0  0  0  0  0  0  0  0  0  0
  161.2060  205.4560  153.4640 C   0  0  0  0  0  3  0  0  0  0  0  0
  161.2070  203.3700  147.6680 N   0  0  0  0  0  0  0  0  0  0  0  0
  161.5800  203.6720  146.2940 C   0  0  0  0  0  1  0  0  0  0  0  0
  160.8300  201.9990  147.9750 C   0  0  0  0  0  1  0  0  0  0  0  0
  1  5  1  0  0  0  0
  1  9  1  0  0  0  0
  2 13  1  0  0  0  0
  3  8  1  0  0  0  0
  4 21  1  6  0  0  0
  4  7  1  0  0  0  0
  5  4  1  0  0  0  0
  6  7  2  0  0  0  0
  6 19  1  0  0  0  0
  8  9  2  0  0  0  0
  9  6  1  0  0  0  0
 10  2  1  0  0  0  0
 11 10  1  0  0  0  0
 11 12  2  0  0  0  0
 12 14  1  0  0  0  0
 13 15  1  0  0  0  0
 13  3  2  0  0  0  0
 14 15  1  0  0  0  0
 15  1  2  0  0  0  0
 16 17  2  0  0  0  0
 16 11  1  0  0  0  0
 18 16  2  0  0  0  0
 20 19  1  0  0  0  0
 22 31  1  0  0  0  0
 23 30  1  0  0  0  0
 24 25  1  0  0  0  0
 25 26  2  0  0  0  0
 26 22  1  0  0  0  0
 27 28  1  0  0  0  0
 28 26  1  0  0  0  0
 28 23  2  0  0  0  0
 29 24  2  0  0  0  0
 29 27  1  0  0  0  0
 30 31  2  0  0  0  0
 30 21  1  0  0  0  0
 32 34  1  0  0  0  0
 32 24  1  0  0  0  0
 33 32  1  0  0  0  0
M  END
>  <MODEL>
8

>  <REMARK>
 VINA RESULT:      -8.8      2.721      9.164
  Name = 
  5 active torsions:
  status: ('A' for Active; 'I' for Inactive)
    1  A    between atoms: N_3  and  C_25
    2  A    between atoms: C_7  and  N_11
    3  A    between atoms: C_8  and  O_18
    4  A    between atoms: C_10  and  C_12
    5  A    between atoms: O_18  and  C_30
                            x       y       z     vdW  Elec       q    Type
                         _______ _______ _______ _____ _____    ______ ____

>  <TORSDO>
F 5

$$$$
=
 OpenBabel11062409463D

 34 38  0  0  1  0  0  0  0  0999 V2000
  160.3890  211.9510  151.4700 C   0  0  0  0  0  0  0  0  0  0  0  0
  158.2000  214.2850  153.3070 C   0  0  0  0  0  2  0  0  0  0  0  0
  159.1250  214.4060  151.1950 C   0  0  0  0  0  3  0  0  0  0  0  0
  161.4720  210.0570  150.2210 C   0  0  1  0  0  3  0  0  0  0  0  0
  161.1670  210.6600  151.5980 C   0  0  0  0  0  2  0  0  0  0  0  0
  161.5740  212.3480  149.3000 C   0  0  0  0  0  0  0  0  0  0  0  0
  161.9950  211.0830  149.2520 C   0  0  0  0  0  3  0  0  0  0  0  0
  159.9770  213.9640  150.2390 N   0  0  0  0  0  0  0  0  0  0  0  0
  160.6340  212.7830  150.3590 C   0  0  0  0  0  0  0  0  0  0  0  0
  158.0790  213.8350  154.7220 C   0  0  0  0  0  2  0  0  0  0  0  0
  157.4020  212.5170  154.8560 C   0  0  0  0  0  0  0  0  0  0  0  0
  157.9170  211.4330  154.2820 C   0  0  0  0  0  3  0  0  0  0  0  0
  158.8720  213.6500  152.3410 C   0  0  0  0  0  0  0  0  0  0  0  0
  159.0260  211.3980  153.3110 C   0  0  0  0  0  2  0  0  0  0  0  0
  159.4430  212.3470  152.4470 C   0  0  0  0  0  0  0  0  0  0  0  0
  156.2820  212.3860  155.7440 N   0  0  0  0  0  0  0  0  0  0  0  0
  155.9030  213.3580  156.4290 O   0  0  0  0  0  0  0  0  0  0  0  0
  155.5970  211.1950  155.8340 O   0  0  0  0  0  0  0  0  0  0  0  0
  162.0560  213.3090  148.2670 C   0  0  0  0  0  2  0  0  0  0  0  0
  162.6370  212.6100  147.2080 O   0  0  0  0  0  1  0  0  0  0  0  0
  162.3470  208.9330  150.3200 O   0  0  0  0  0  0  0  0  0  0  0  0
  162.3660  206.4540  147.6260 O   0  0  0  0  0  0  0  0  0  0  0  0
  161.6020  206.5210  150.3110 C   0  0  0  0  0  3  0  0  0  0  0  0
  161.1290  202.9600  148.1590 C   0  0  0  0  0  0  0  0  0  0  0  0
  161.6880  204.1840  147.5400 C   0  0  0  0  0  3  0  0  0  0  0  0
  161.8360  205.3110  148.2330 C   0  0  2  0  0  3  0  0  0  0  0  0
  160.8660  204.1760  150.3490 C   0  0  0  0  0  3  0  0  0  0  0  0
  161.4400  205.3740  149.6510 C   0  0  0  0  0  0  0  0  0  0  0  0
  160.7550  202.9700  149.4490 C   0  0  0  0  0  3  0  0  0  0  0  0
  162.1690  207.7180  149.6400 C   0  0  0  0  0  0  0  0  0  0  0  0
  162.5230  207.6450  148.3510 C   0  0  0  0  0  3  0  0  0  0  0  0
  160.9860  201.7600  147.3720 N   0  0  0  0  0  0  0  0  0  0  0  0
  161.2640  200.4450  147.9300 C   0  0  0  0  0  1  0  0  0  0  0  0
  160.5580  201.8230  145.9830 C   0  0  0  0  0  1  0  0  0  0  0  0
  1  5  1  0  0  0  0
  1 15  1  0  0  0  0
  2 10  1  0  0  0  0
  3 13  1  0  0  0  0
  4 21  1  1  0  0  0
  4  5  1  0  0  0  0
  6  9  1  0  0  0  0
  7  6  2  0  0  0  0
  7  4  1  0  0  0  0
  8  9  1  0  0  0  0
  8  3  2  0  0  0  0
  9  1  2  0  0  0  0
 10 11  1  0  0  0  0
 11 16  1  0  0  0  0
 12 11  2  0  0  0  0
 13 15  2  0  0  0  0
 13  2  1  0  0  0  0
 14 12  1  0  0  0  0
 15 14  1  0  0  0  0
 16 18  2  0  0  0  0
 16 17  2  0  0  0  0
 19  6  1  0  0  0  0
 20 19  1  0  0  0  0
 22 26  1  0  0  0  0
 22 31  1  0  0  0  0
 24 29  1  0  0  0  0
 25 24  2  0  0  0  0
 26 25  1  6  0  0  0
 26 28  1  0  0  0  0
 28 23  2  0  0  0  0
 28 27  1  0  0  0  0
 29 27  2  0  0  0  0
 30 23  1  0  0  0  0
 30 21  1  0  0  0  0
 31 30  2  0  0  0  0
 32 33  1  0  0  0  0
 32 24  1  0  0  0  0
 34 32  1  0  0  0  0
M  END
>  <MODEL>
9

>  <REMARK>
 VINA RESULT:      -8.8      2.971     10.436
  Name = 
  5 active torsions:
  status: ('A' for Active; 'I' for Inactive)
    1  A    between atoms: N_3  and  C_25
    2  A    between atoms: C_7  and  N_11
    3  A    between atoms: C_8  and  O_18
    4  A    between atoms: C_10  and  C_12
    5  A    between atoms: O_18  and  C_30
                            x       y       z     vdW  Elec       q    Type
                         _______ _______ _______ _____ _____    ______ ____

>  <TORSDO>
F 5

$$$$
