=
 OpenBabel11062409003D

 55 58  0  0  1  0  0  0  0  0999 V2000
  161.8260  203.6940  146.2170 C   0  0  0  0  0  2  0  0  0  0  0  0
  161.3650  206.0170  144.4520 C   0  0  2  0  0  3  0  0  0  0  0  0
  162.2670  206.1360  145.6860 C   0  0  2  0  0  3  0  0  0  0  0  0
  161.0430  203.5470  144.9210 C   0  0  0  0  0  2  0  0  0  0  0  0
  162.8870  204.7790  146.0580 C   0  0  0  0  0  2  0  0  0  0  0  0
  160.3500  204.8670  144.5880 C   0  0  0  0  0  2  0  0  0  0  0  0
  162.1990  205.9140  143.1730 C   0  0  0  0  0  2  0  0  0  0  0  0
  161.3910  206.0630  142.0390 O   0  0  0  0  0  0  0  0  0  0  0  0
  162.1710  206.7500  141.1050 C   0  0  0  0  0  2  0  0  0  0  0  0
  161.3610  207.8410  140.4730 C   0  0  2  0  0  3  0  0  0  0  0  0
  161.3090  207.9570  138.8660 S   0  0  0  0  0  0  0  0  0  0  0  0
  160.6100  208.8130  141.3310 C   0  0  0  0  0  1  0  0  0  0  0  0
  163.3410  210.0250  139.3660 O   0  0  0  0  0  0  0  0  0  0  0  0
  162.2090  209.7870  138.4090 S   0  0  0  0  0  0  0  0  0  0  0  0
  162.7630  209.6890  137.0120 O   0  0  0  0  0  0  0  0  0  0  0  0
  159.0880  213.5300  139.7110 C   0  0  0  0  0  2  0  0  0  0  0  0
  160.9780  211.1020  138.5300 C   0  0  2  0  0  3  0  0  0  0  0  0
  161.3730  214.3460  138.8990 C   0  0  0  0  0  2  0  0  0  0  0  0
  161.8210  211.5950  140.7170 O   0  0  0  0  0  0  0  0  0  0  0  0
  161.1720  211.9730  139.7520 C   0  0  0  0  0  0  0  0  0  0  0  0
  158.5340  211.2650  139.1430 O   0  0  0  0  0  0  0  0  0  0  0  0
  161.3990  214.4490  140.4210 C   0  0  0  0  0  2  0  0  0  0  0  0
  158.5180  212.5880  138.6570 C   0  0  1  0  0  3  0  0  0  0  0  0
  160.5960  213.3600  139.7470 C   0  0  0  0  0  0  0  0  0  0  0  0
  159.0950  210.0290  137.1090 C   0  0  0  0  0  1  0  0  0  0  0  0
  159.5430  210.5210  138.4830 C   0  0  1  0  0  3  0  0  0  0  0  0
  157.1480  213.0030  138.2300 C   0  0  0  0  0  0  0  0  0  0  0  0
  156.9450  214.2860  137.6440 N   0  0  0  0  0  1  0  0  0  0  0  0
  156.1860  212.1870  138.2670 O   0  0  0  0  0  0  0  0  0  0  0  0
  161.4740  206.7390  146.8420 C   0  0  0  0  0  2  0  0  0  0  0  0
  162.3650  207.2620  147.8750 N   0  0  0  0  0  2  0  0  0  0  0  0
  161.5990  207.7840  149.0130 C   0  0  1  0  0  3  0  0  0  0  0  0
  161.7070  206.9290  150.3050 C   0  0  1  0  0  3  0  0  0  0  0  0
  162.0650  209.2350  151.3160 C   0  0  0  0  0  2  0  0  0  0  0  0
  161.1130  209.6890  153.5880 C   0  0  0  0  0  2  0  0  0  0  0  0
  161.4500  207.3160  152.8100 N   0  0  0  0  0  0  0  0  0  0  0  0
  160.8780  208.1920  153.8450 C   0  0  0  0  0  2  0  0  0  0  0  0
  162.3000  209.9140  152.6670 C   0  0  0  0  0  2  0  0  0  0  0  0
  161.3140  207.9010  151.4570 C   0  0  2  0  0  3  0  0  0  0  0  0
  160.7380  206.1580  152.8630 O   0  0  0  0  0  1  0  0  0  0  0  0
  159.7930  205.8140  149.2790 C   0  0  0  0  0  1  0  0  0  0  0  0
  160.8790  205.6860  150.2460 N   0  0  0  0  0  0  0  0  0  0  0  0
  161.6280  204.4440  149.9340 C   0  0  0  0  0  2  0  0  0  0  0  0
  161.0430  203.1360  150.4450 C   0  0  0  0  0  0  0  0  0  0  0  0
  160.3300  202.2620  149.4650 C   0  0  0  0  0  1  0  0  0  0  0  0
  161.2300  202.6840  151.6820 C   0  0  0  0  0  2  0  0  0  0  0  0
  161.9000  209.2610  149.2770 C   0  0  0  0  0  2  0  0  0  0  0  0
  162.4130  209.9670  148.0300 C   0  0  0  0  0  2  0  0  0  0  0  0
  162.4640  211.4520  148.3040 C   0  0  0  0  0  2  0  0  0  0  0  0
  161.0720  212.0770  148.2200 C   0  0  0  0  0  2  0  0  0  0  0  0
  160.2800  214.3220  147.9800 O   0  0  0  0  0  1  0  0  0  0  0  0
  161.0780  213.3430  147.3670 C   0  0  1  0  0  0  0  0  0  0  0  0
  162.5040  213.8490  147.3140 C   0  0  0  0  0  1  0  0  0  0  0  0
  160.5930  213.0340  146.0120 N   0  0  0  0  0  2  0  0  0  0  0  0
  161.6450  213.2510  145.0270 C   0  0  0  0  0  1  0  0  0  0  0  0
  2  7  1  6  0  0  0
  2  6  1  0  0  0  0
  2  3  1  0  0  0  0
  3  5  1  0  0  0  0
  3 30  1  1  0  0  0
  4  1  1  0  0  0  0
  5  1  1  0  0  0  0
  6  4  1  0  0  0  0
  8  7  1  0  0  0  0
  9  8  1  0  0  0  0
 10  9  1  0  0  0  0
 10 12  1  1  0  0  0
 11 10  1  0  0  0  0
 14 11  1  0  0  0  0
 14 13  2  0  0  0  0
 15 14  2  0  0  0  0
 16 24  1  0  0  0  0
 17 14  1  1  0  0  0
 17 20  1  0  0  0  0
 18 24  1  0  0  0  0
 18 22  1  0  0  0  0
 20 19  2  0  0  0  0
 23 27  1  1  0  0  0
 23 21  1  0  0  0  0
 23 16  1  0  0  0  0
 24 20  1  0  0  0  0
 24 22  1  0  0  0  0
 26 25  1  6  0  0  0
 26 17  1  0  0  0  0
 26 21  1  0  0  0  0
 27 29  2  0  0  0  0
 28 27  1  0  0  0  0
 30 31  1  0  0  0  0
 31 32  1  0  0  0  0
 32 47  1  1  0  0  0
 32 33  1  0  0  0  0
 33 42  1  6  0  0  0
 34 39  1  0  0  0  0
 34 38  1  0  0  0  0
 35 37  1  0  0  0  0
 36 40  1  0  0  0  0
 36 37  1  0  0  0  0
 38 35  1  0  0  0  0
 39 33  1  6  0  0  0
 39 36  1  0  0  0  0
 41 42  1  0  0  0  0
 43 42  1  0  0  0  0
 43 44  1  0  0  0  0
 44 46  2  0  0  0  0
 45 44  1  0  0  0  0
 48 49  1  0  0  0  0
 48 47  1  0  0  0  0
 50 49  1  0  0  0  0
 52 53  1  6  0  0  0
 52 51  1  0  0  0  0
 52 50  1  0  0  0  0
 54 52  1  0  0  0  0
 55 54  1  0  0  0  0
M  END
>  <MODEL>
1

>  <REMARK>
 VINA RESULT:      -3.0      0.000      0.000
  Name = 
  21 active torsions:
  status: ('A' for Active; 'I' for Inactive)
    1  A    between atoms: C_1  and  C_29
    2  A    between atoms: C_2  and  N_28
    3  A    between atoms: C_2  and  C_31
    4  A    between atoms: C_4  and  C_40
    5  A    between atoms: C_6  and  S_20
    6  A    between atoms: C_8  and  C_35
    7  A    between atoms: N_10  and  C_39
    8  A    between atoms: C_13  and  C_48
    9  A    between atoms: C_13  and  C_52
   10  A    between atoms: S_20  and  S_22
   11  A    between atoms: C_26  and  C_49
   12  A    between atoms: C_27  and  C_54
   13  A    between atoms: N_28  and  C_33
   14  A    between atoms: C_33  and  C_34
   15  A    between atoms: C_33  and  C_49
   16  A    between atoms: C_34  and  C_52
   17  A    between atoms: C_35  and  O_51
   18  A    between atoms: C_39  and  C_48
   19  A    between atoms: C_40  and  N_45
   20  A    between atoms: N_45  and  C_49
   21  A    between atoms: O_51  and  C_54
                            x       y       z     vdW  Elec       q    Type
                         _______ _______ _______ _____ _____    ______ ____

>  <TORSDO>
F 21

$$$$
=
 OpenBabel11062409003D

 55 58  0  0  1  0  0  0  0  0999 V2000
  160.9930  207.7290  157.2360 C   0  0  0  0  0  2  0  0  0  0  0  0
  160.6440  207.5260  154.3110 C   0  0  2  0  0  3  0  0  0  0  0  0
  160.9020  208.8820  154.9770 C   0  0  2  0  0  3  0  0  0  0  0  0
  160.8700  206.3740  156.5570 C   0  0  0  0  0  2  0  0  0  0  0  0
  161.6760  208.7180  156.2960 C   0  0  0  0  0  2  0  0  0  0  0  0
  160.0280  206.5100  155.2890 C   0  0  0  0  0  2  0  0  0  0  0  0
  161.9130  206.9980  153.6370 C   0  0  0  0  0  2  0  0  0  0  0  0
  161.6940  206.7720  152.2720 O   0  0  0  0  0  0  0  0  0  0  0  0
  162.4720  205.6600  151.9420 C   0  0  0  0  0  2  0  0  0  0  0  0
  161.7060  204.4030  152.2250 C   0  0  2  0  0  3  0  0  0  0  0  0
  162.0380  203.0690  151.3840 S   0  0  0  0  0  0  0  0  0  0  0  0
  160.6420  204.3930  153.2810 C   0  0  0  0  0  1  0  0  0  0  0  0
  159.9850  201.1840  150.4430 O   0  0  0  0  0  0  0  0  0  0  0  0
  160.3010  202.6440  150.3020 S   0  0  0  0  0  0  0  0  0  0  0  0
  159.1780  203.4470  150.9050 O   0  0  0  0  0  0  0  0  0  0  0  0
  161.6330  203.0590  145.4550 C   0  0  0  0  0  2  0  0  0  0  0  0
  160.5570  203.0830  148.5700 C   0  0  2  0  0  3  0  0  0  0  0  0
  159.6210  201.5240  145.8300 C   0  0  0  0  0  2  0  0  0  0  0  0
  161.7880  201.0450  148.3090 O   0  0  0  0  0  0  0  0  0  0  0  0
  161.1840  201.9610  147.7700 C   0  0  0  0  0  0  0  0  0  0  0  0
  162.1650  204.5340  147.2720 O   0  0  0  0  0  0  0  0  0  0  0  0
  160.8210  200.6080  145.6100 C   0  0  0  0  0  2  0  0  0  0  0  0
  161.3460  204.3930  146.1330 C   0  0  1  0  0  3  0  0  0  0  0  0
  161.0020  201.9510  146.2800 C   0  0  0  0  0  0  0  0  0  0  0  0
  160.6350  205.6620  148.8090 C   0  0  0  0  0  1  0  0  0  0  0  0
  161.3870  204.3840  148.4460 C   0  0  1  0  0  3  0  0  0  0  0  0
  161.5110  205.5380  145.1880 C   0  0  0  0  0  0  0  0  0  0  0  0
  160.3890  206.3490  144.8530 N   0  0  0  0  0  1  0  0  0  0  0  0
  162.6550  205.8740  144.7760 O   0  0  0  0  0  0  0  0  0  0  0  0
  159.5770  209.6130  155.1780 C   0  0  0  0  0  2  0  0  0  0  0  0
  159.7790  211.0580  155.2430 N   0  0  0  0  0  2  0  0  0  0  0  0
  158.8130  211.7610  154.3890 C   0  0  1  0  0  3  0  0  0  0  0  0
  158.6330  213.2660  154.7300 C   0  0  1  0  0  3  0  0  0  0  0  0
  156.1350  212.8570  154.4870 C   0  0  0  0  0  2  0  0  0  0  0  0
  154.9420  213.9400  152.5690 C   0  0  0  0  0  2  0  0  0  0  0  0
  157.4470  213.6770  152.5130 N   0  0  0  0  0  0  0  0  0  0  0  0
  156.2670  214.2720  151.8650 C   0  0  0  0  0  2  0  0  0  0  0  0
  155.0610  212.6800  153.4110 C   0  0  0  0  0  2  0  0  0  0  0  0
  157.3290  213.6860  153.9880 C   0  0  2  0  0  3  0  0  0  0  0  0
  158.5050  214.4520  152.1500 O   0  0  0  0  0  1  0  0  0  0  0  0
  159.8440  214.1650  156.6500 C   0  0  0  0  0  1  0  0  0  0  0  0
  158.6090  213.5260  156.2000 N   0  0  0  0  0  0  0  0  0  0  0  0
  157.4680  214.3460  156.6770 C   0  0  0  0  0  2  0  0  0  0  0  0
  156.2150  213.6000  157.1130 C   0  0  0  0  0  0  0  0  0  0  0  0
  154.9530  214.3870  157.2610 C   0  0  0  0  0  1  0  0  0  0  0  0
  156.1620  212.2790  157.2570 C   0  0  0  0  0  2  0  0  0  0  0  0
  159.0980  211.5410  152.9010 C   0  0  0  0  0  2  0  0  0  0  0  0
  160.5890  211.5510  152.6010 C   0  0  0  0  0  2  0  0  0  0  0  0
  160.7850  211.9120  151.1460 C   0  0  0  0  0  2  0  0  0  0  0  0
  161.9560  211.1420  150.5400 C   0  0  0  0  0  2  0  0  0  0  0  0
  163.0780  211.4520  148.4480 O   0  0  0  0  0  1  0  0  0  0  0  0
  161.8510  211.0720  149.0180 C   0  0  1  0  0  0  0  0  0  0  0  0
  161.5750  209.6310  148.6460 C   0  0  0  0  0  1  0  0  0  0  0  0
  160.7580  211.9410  148.5530 N   0  0  0  0  0  2  0  0  0  0  0  0
  161.1120  212.5830  147.2930 C   0  0  0  0  0  1  0  0  0  0  0  0
  2  7  1  1  0  0  0
  2  3  1  0  0  0  0
  2  6  1  0  0  0  0
  3 30  1  1  0  0  0
  3  5  1  0  0  0  0
  4  1  1  0  0  0  0
  5  1  1  0  0  0  0
  6  4  1  0  0  0  0
  8  7  1  0  0  0  0
  9 10  1  0  0  0  0
  9  8  1  0  0  0  0
 10 12  1  6  0  0  0
 11 10  1  0  0  0  0
 14 13  2  0  0  0  0
 14 15  2  0  0  0  0
 14 11  1  0  0  0  0
 16 23  1  0  0  0  0
 16 24  1  0  0  0  0
 17 14  1  1  0  0  0
 18 24  1  0  0  0  0
 20 19  2  0  0  0  0
 20 17  1  0  0  0  0
 21 26  1  0  0  0  0
 22 18  1  0  0  0  0
 22 24  1  0  0  0  0
 23 27  1  6  0  0  0
 23 21  1  0  0  0  0
 24 20  1  0  0  0  0
 26 17  1  0  0  0  0
 26 25  1  6  0  0  0
 28 27  1  0  0  0  0
 29 27  2  0  0  0  0
 30 31  1  0  0  0  0
 32 47  1  6  0  0  0
 32 33  1  0  0  0  0
 32 31  1  0  0  0  0
 33 42  1  1  0  0  0
 35 38  1  0  0  0  0
 36 39  1  0  0  0  0
 37 36  1  0  0  0  0
 37 35  1  0  0  0  0
 38 34  1  0  0  0  0
 39 34  1  0  0  0  0
 39 33  1  1  0  0  0
 40 36  1  0  0  0  0
 42 41  1  0  0  0  0
 42 43  1  0  0  0  0
 43 44  1  0  0  0  0
 44 46  2  0  0  0  0
 44 45  1  0  0  0  0
 48 47  1  0  0  0  0
 49 48  1  0  0  0  0
 50 49  1  0  0  0  0
 51 52  1  0  0  0  0
 52 53  1  6  0  0  0
 52 50  1  0  0  0  0
 54 52  1  0  0  0  0
 55 54  1  0  0  0  0
M  END
>  <MODEL>
2

>  <REMARK>
 VINA RESULT:      -2.9      5.757     10.587
  Name = 
  21 active torsions:
  status: ('A' for Active; 'I' for Inactive)
    1  A    between atoms: C_1  and  C_29
    2  A    between atoms: C_2  and  N_28
    3  A    between atoms: C_2  and  C_31
    4  A    between atoms: C_4  and  C_40
    5  A    between atoms: C_6  and  S_20
    6  A    between atoms: C_8  and  C_35
    7  A    between atoms: N_10  and  C_39
    8  A    between atoms: C_13  and  C_48
    9  A    between atoms: C_13  and  C_52
   10  A    between atoms: S_20  and  S_22
   11  A    between atoms: C_26  and  C_49
   12  A    between atoms: C_27  and  C_54
   13  A    between atoms: N_28  and  C_33
   14  A    between atoms: C_33  and  C_34
   15  A    between atoms: C_33  and  C_49
   16  A    between atoms: C_34  and  C_52
   17  A    between atoms: C_35  and  O_51
   18  A    between atoms: C_39  and  C_48
   19  A    between atoms: C_40  and  N_45
   20  A    between atoms: N_45  and  C_49
   21  A    between atoms: O_51  and  C_54
                            x       y       z     vdW  Elec       q    Type
                         _______ _______ _______ _____ _____    ______ ____

>  <TORSDO>
F 21

$$$$
=
 OpenBabel11062409003D

 55 58  0  0  1  0  0  0  0  0999 V2000
  161.9100  203.6890  146.3810 C   0  0  0  0  0  2  0  0  0  0  0  0
  161.2660  205.8620  144.4880 C   0  0  2  0  0  3  0  0  0  0  0  0
  162.0910  206.1400  145.7490 C   0  0  2  0  0  3  0  0  0  0  0  0
  161.2080  203.3940  145.0640 C   0  0  0  0  0  2  0  0  0  0  0  0
  162.8460  204.8820  146.2120 C   0  0  0  0  0  2  0  0  0  0  0  0
  160.3840  204.6090  144.6400 C   0  0  0  0  0  2  0  0  0  0  0  0
  162.1630  205.8010  143.2500 C   0  0  0  0  0  2  0  0  0  0  0  0
  161.4080  205.9570  142.0800 O   0  0  0  0  0  0  0  0  0  0  0  0
  162.2100  206.6960  141.2070 C   0  0  0  0  0  2  0  0  0  0  0  0
  161.4110  207.8150  140.6100 C   0  0  2  0  0  3  0  0  0  0  0  0
  161.2260  207.8880  139.0110 S   0  0  0  0  0  0  0  0  0  0  0  0
  160.7950  208.8550  141.4960 C   0  0  0  0  0  1  0  0  0  0  0  0
  163.3530  209.8940  139.3240 O   0  0  0  0  0  0  0  0  0  0  0  0
  162.1850  209.6460  138.4150 S   0  0  0  0  0  0  0  0  0  0  0  0
  162.6930  209.4390  137.0120 O   0  0  0  0  0  0  0  0  0  0  0  0
  159.2560  213.5880  139.5660 C   0  0  0  0  0  2  0  0  0  0  0  0
  161.0130  211.0160  138.4870 C   0  0  2  0  0  3  0  0  0  0  0  0
  161.5490  214.2570  138.6500 C   0  0  0  0  0  2  0  0  0  0  0  0
  161.9340  211.6020  140.6190 O   0  0  0  0  0  0  0  0  0  0  0  0
  161.2750  211.9500  139.6500 C   0  0  0  0  0  0  0  0  0  0  0  0
  158.5940  211.3190  139.1500 O   0  0  0  0  0  0  0  0  0  0  0  0
  161.6210  214.4490  140.1620 C   0  0  0  0  0  2  0  0  0  0  0  0
  158.6190  212.6110  138.5860 C   0  0  1  0  0  3  0  0  0  0  0  0
  160.7560  213.3570  139.5750 C   0  0  0  0  0  0  0  0  0  0  0  0
  159.0490  209.9420  137.1810 C   0  0  0  0  0  1  0  0  0  0  0  0
  159.5540  210.4960  138.5110 C   0  0  1  0  0  3  0  0  0  0  0  0
  157.2570  213.0570  138.1680 C   0  0  0  0  0  0  0  0  0  0  0  0
  156.2060  212.1050  138.0360 N   0  0  0  0  0  1  0  0  0  0  0  0
  156.9900  214.2850  138.0470 O   0  0  0  0  0  0  0  0  0  0  0  0
  161.1830  206.6970  146.8420 C   0  0  0  0  0  2  0  0  0  0  0  0
  161.8210  206.6080  148.1530 N   0  0  0  0  0  2  0  0  0  0  0  0
  161.2200  207.5600  149.0950 C   0  0  1  0  0  3  0  0  0  0  0  0
  160.8560  206.9510  150.4770 C   0  0  1  0  0  3  0  0  0  0  0  0
  160.2910  204.7190  149.3970 C   0  0  0  0  0  2  0  0  0  0  0  0
  161.4440  202.6670  150.2540 C   0  0  0  0  0  2  0  0  0  0  0  0
  161.3660  204.7540  151.6620 N   0  0  0  0  0  0  0  0  0  0  0  0
  161.9270  203.4020  151.5140 C   0  0  0  0  0  2  0  0  0  0  0  0
  160.1290  203.2380  149.7480 C   0  0  0  0  0  2  0  0  0  0  0  0
  161.2430  205.4460  150.3600 C   0  0  2  0  0  3  0  0  0  0  0  0
  162.2420  205.4400  152.4450 O   0  0  0  0  0  1  0  0  0  0  0  0
  162.5990  208.5250  151.1460 C   0  0  0  0  0  1  0  0  0  0  0  0
  161.5150  207.6630  151.6130 N   0  0  0  0  0  0  0  0  0  0  0  0
  160.6080  208.4820  152.4540 C   0  0  0  0  0  2  0  0  0  0  0  0
  160.8690  208.4850  153.9530 C   0  0  0  0  0  0  0  0  0  0  0  0
  161.3200  209.7650  154.5780 C   0  0  0  0  0  1  0  0  0  0  0  0
  160.6100  207.4470  154.7440 C   0  0  0  0  0  2  0  0  0  0  0  0
  162.0560  208.8350  149.2320 C   0  0  0  0  0  2  0  0  0  0  0  0
  161.5160  209.9630  148.3660 C   0  0  0  0  0  2  0  0  0  0  0  0
  162.4590  211.1400  148.4660 C   0  0  0  0  0  2  0  0  0  0  0  0
  162.1080  212.2170  147.4420 C   0  0  0  0  0  2  0  0  0  0  0  0
  160.6880  212.8840  149.2490 O   0  0  0  0  0  1  0  0  0  0  0  0
  161.3020  213.3490  148.0750 C   0  0  1  0  0  0  0  0  0  0  0  0
  162.2750  214.4480  148.4460 C   0  0  0  0  0  1  0  0  0  0  0  0
  160.3040  213.8490  147.1160 N   0  0  0  0  0  2  0  0  0  0  0  0
  159.5840  212.7420  146.4990 C   0  0  0  0  0  1  0  0  0  0  0  0
  2  7  1  6  0  0  0
  2  6  1  0  0  0  0
  2  3  1  0  0  0  0
  3  5  1  0  0  0  0
  3 30  1  1  0  0  0
  4  1  1  0  0  0  0
  5  1  1  0  0  0  0
  6  4  1  0  0  0  0
  8  7  1  0  0  0  0
  9  8  1  0  0  0  0
 10  9  1  0  0  0  0
 10 12  1  6  0  0  0
 11 10  1  0  0  0  0
 14 11  1  0  0  0  0
 14 13  2  0  0  0  0
 15 14  2  0  0  0  0
 16 24  1  0  0  0  0
 17 14  1  1  0  0  0
 17 26  1  0  0  0  0
 17 20  1  0  0  0  0
 18 24  1  0  0  0  0
 18 22  1  0  0  0  0
 20 19  2  0  0  0  0
 23 27  1  1  0  0  0
 23 21  1  0  0  0  0
 23 16  1  0  0  0  0
 24 20  1  0  0  0  0
 24 22  1  0  0  0  0
 26 25  1  6  0  0  0
 26 21  1  0  0  0  0
 28 27  1  0  0  0  0
 29 27  2  0  0  0  0
 30 31  1  0  0  0  0
 31 32  1  0  0  0  0
 32 47  1  1  0  0  0
 32 33  1  0  0  0  0
 33 42  1  1  0  0  0
 34 38  1  0  0  0  0
 34 39  1  0  0  0  0
 35 37  1  0  0  0  0
 36 40  1  0  0  0  0
 37 36  1  0  0  0  0
 38 35  1  0  0  0  0
 39 33  1  1  0  0  0
 39 36  1  0  0  0  0
 41 42  1  0  0  0  0
 42 43  1  0  0  0  0
 43 44  1  0  0  0  0
 44 45  1  0  0  0  0
 44 46  2  0  0  0  0
 48 49  1  0  0  0  0
 48 47  1  0  0  0  0
 50 52  1  0  0  0  0
 50 49  1  0  0  0  0
 52 53  1  1  0  0  0
 52 51  1  0  0  0  0
 54 52  1  0  0  0  0
 55 54  1  0  0  0  0
M  END
>  <MODEL>
3

>  <REMARK>
 VINA RESULT:      -2.7      0.973      2.795
  Name = 
  21 active torsions:
  status: ('A' for Active; 'I' for Inactive)
    1  A    between atoms: C_1  and  C_29
    2  A    between atoms: C_2  and  N_28
    3  A    between atoms: C_2  and  C_31
    4  A    between atoms: C_4  and  C_40
    5  A    between atoms: C_6  and  S_20
    6  A    between atoms: C_8  and  C_35
    7  A    between atoms: N_10  and  C_39
    8  A    between atoms: C_13  and  C_48
    9  A    between atoms: C_13  and  C_52
   10  A    between atoms: S_20  and  S_22
   11  A    between atoms: C_26  and  C_49
   12  A    between atoms: C_27  and  C_54
   13  A    between atoms: N_28  and  C_33
   14  A    between atoms: C_33  and  C_34
   15  A    between atoms: C_33  and  C_49
   16  A    between atoms: C_34  and  C_52
   17  A    between atoms: C_35  and  O_51
   18  A    between atoms: C_39  and  C_48
   19  A    between atoms: C_40  and  N_45
   20  A    between atoms: N_45  and  C_49
   21  A    between atoms: O_51  and  C_54
                            x       y       z     vdW  Elec       q    Type
                         _______ _______ _______ _____ _____    ______ ____

>  <TORSDO>
F 21

$$$$
=
 OpenBabel11062409003D

 55 58  0  0  1  0  0  0  0  0999 V2000
  161.6800  208.5940  150.3600 C   0  0  0  0  0  2  0  0  0  0  0  0
  161.2690  208.4110  153.2780 C   0  0  2  0  0  3  0  0  0  0  0  0
  160.1310  208.8540  152.3520 C   0  0  2  0  0  3  0  0  0  0  0  0
  162.7620  208.0280  151.2660 C   0  0  0  0  0  2  0  0  0  0  0  0
  160.3040  208.2770  150.9380 C   0  0  0  0  0  2  0  0  0  0  0  0
  162.6530  208.6620  152.6520 C   0  0  0  0  0  2  0  0  0  0  0  0
  161.0800  206.9580  153.7200 C   0  0  0  0  0  2  0  0  0  0  0  0
  161.7060  206.0810  152.8260 O   0  0  0  0  0  0  0  0  0  0  0  0
  160.6750  205.4610  152.1160 C   0  0  0  0  0  2  0  0  0  0  0  0
  160.8380  203.9730  152.1790 C   0  0  2  0  0  3  0  0  0  0  0  0
  161.8970  203.2520  151.2010 S   0  0  0  0  0  0  0  0  0  0  0  0
  160.0200  203.1670  153.1430 C   0  0  0  0  0  1  0  0  0  0  0  0
  161.3340  200.6420  149.9650 O   0  0  0  0  0  0  0  0  0  0  0  0
  160.7570  202.0280  149.9480 S   0  0  0  0  0  0  0  0  0  0  0  0
  159.3570  201.9810  150.5030 O   0  0  0  0  0  0  0  0  0  0  0  0
  161.2750  203.0660  145.0390 C   0  0  0  0  0  2  0  0  0  0  0  0
  160.7720  202.7090  148.2770 C   0  0  2  0  0  3  0  0  0  0  0  0
  159.1510  201.7470  145.5820 C   0  0  0  0  0  2  0  0  0  0  0  0
  161.6190  200.6080  147.5020 O   0  0  0  0  0  0  0  0  0  0  0  0
  161.0750  201.6660  147.2220 C   0  0  0  0  0  0  0  0  0  0  0  0
  162.3300  204.1480  146.9050 O   0  0  0  0  0  0  0  0  0  0  0  0
  160.1440  200.7400  145.0080 C   0  0  0  0  0  2  0  0  0  0  0  0
  161.3140  204.2960  145.9380 C   0  0  1  0  0  3  0  0  0  0  0  0
  160.6390  201.9230  145.8090 C   0  0  0  0  0  0  0  0  0  0  0  0
  161.2760  205.1860  148.8510 C   0  0  0  0  0  1  0  0  0  0  0  0
  161.7540  203.9030  148.1750 C   0  0  1  0  0  3  0  0  0  0  0  0
  161.4820  205.5520  145.1480 C   0  0  0  0  0  0  0  0  0  0  0  0
  160.3360  206.2720  144.7060 N   0  0  0  0  0  1  0  0  0  0  0  0
  162.6270  206.0520  144.9680 O   0  0  0  0  0  0  0  0  0  0  0  0
  160.0450  210.3780  152.3420 C   0  0  0  0  0  2  0  0  0  0  0  0
  158.6630  210.8270  152.4920 N   0  0  0  0  0  2  0  0  0  0  0  0
  158.6110  212.2330  152.9110 C   0  0  1  0  0  3  0  0  0  0  0  0
  158.1150  212.4500  154.3670 C   0  0  1  0  0  3  0  0  0  0  0  0
  158.9920  210.6260  155.9060 C   0  0  0  0  0  2  0  0  0  0  0  0
  161.0740  211.0900  157.2210 C   0  0  0  0  0  2  0  0  0  0  0  0
  159.7390  212.9950  156.2530 N   0  0  0  0  0  0  0  0  0  0  0  0
  160.9830  212.5960  156.9300 C   0  0  0  0  0  2  0  0  0  0  0  0
  159.6970  210.4470  157.2530 C   0  0  0  0  0  2  0  0  0  0  0  0
  159.3030  211.9860  155.2620 C   0  0  2  0  0  3  0  0  0  0  0  0
  160.0200  214.1580  155.6050 O   0  0  0  0  0  1  0  0  0  0  0  0
  156.8160  214.3480  153.5460 C   0  0  0  0  0  1  0  0  0  0  0  0
  157.6710  213.8530  154.6220 N   0  0  0  0  0  0  0  0  0  0  0  0
  156.9600  214.0650  155.9070 C   0  0  0  0  0  2  0  0  0  0  0  0
  155.5990  213.4030  156.0630 C   0  0  0  0  0  0  0  0  0  0  0  0
  155.5650  211.9770  156.5050 C   0  0  0  0  0  1  0  0  0  0  0  0
  154.4470  214.0570  155.9350 C   0  0  0  0  0  2  0  0  0  0  0  0
  159.9300  212.9610  152.6400 C   0  0  0  0  0  2  0  0  0  0  0  0
  159.7660  214.0670  151.6090 C   0  0  0  0  0  2  0  0  0  0  0  0
  159.8070  213.4490  150.2290 C   0  0  0  0  0  2  0  0  0  0  0  0
  160.9990  213.9680  149.4270 C   0  0  0  0  0  2  0  0  0  0  0  0
  162.1350  213.7530  147.3320 O   0  0  0  0  0  1  0  0  0  0  0  0
  161.3020  213.0680  148.2320 C   0  0  1  0  0  0  0  0  0  0  0  0
  162.0490  211.8580  148.7510 C   0  0  0  0  0  1  0  0  0  0  0  0
  160.0450  212.6570  147.5850 N   0  0  0  0  0  2  0  0  0  0  0  0
  160.2670  212.3550  146.1760 C   0  0  0  0  0  1  0  0  0  0  0  0
  1  5  1  0  0  0  0
  1  4  1  0  0  0  0
  2  7  1  6  0  0  0
  3 30  1  6  0  0  0
  3  2  1  0  0  0  0
  4  6  1  0  0  0  0
  5  3  1  0  0  0  0
  6  2  1  0  0  0  0
  8  7  1  0  0  0  0
  9 10  1  0  0  0  0
  9  8  1  0  0  0  0
 10 12  1  6  0  0  0
 11 10  1  0  0  0  0
 14 13  2  0  0  0  0
 14 15  2  0  0  0  0
 14 11  1  0  0  0  0
 16 24  1  0  0  0  0
 16 23  1  0  0  0  0
 17 14  1  1  0  0  0
 18 24  1  0  0  0  0
 20 19  2  0  0  0  0
 20 17  1  0  0  0  0
 21 26  1  0  0  0  0
 22 18  1  0  0  0  0
 22 24  1  0  0  0  0
 23 27  1  6  0  0  0
 23 21  1  0  0  0  0
 24 20  1  0  0  0  0
 26 17  1  0  0  0  0
 26 25  1  6  0  0  0
 28 27  1  0  0  0  0
 29 27  2  0  0  0  0
 30 31  1  0  0  0  0
 31 32  1  0  0  0  0
 32 47  1  1  0  0  0
 32 33  1  0  0  0  0
 33 42  1  6  0  0  0
 34 38  1  0  0  0  0
 35 38  1  0  0  0  0
 36 37  1  0  0  0  0
 37 35  1  0  0  0  0
 39 33  1  1  0  0  0
 39 34  1  0  0  0  0
 39 36  1  0  0  0  0
 40 36  1  0  0  0  0
 41 42  1  0  0  0  0
 42 43  1  0  0  0  0
 43 44  1  0  0  0  0
 44 45  1  0  0  0  0
 46 44  2  0  0  0  0
 48 47  1  0  0  0  0
 49 48  1  0  0  0  0
 50 49  1  0  0  0  0
 51 52  1  0  0  0  0
 52 53  1  1  0  0  0
 52 50  1  0  0  0  0
 54 52  1  0  0  0  0
 55 54  1  0  0  0  0
M  END
>  <MODEL>
4

>  <REMARK>
 VINA RESULT:      -2.4      5.426      9.972
  Name = 
  21 active torsions:
  status: ('A' for Active; 'I' for Inactive)
    1  A    between atoms: C_1  and  C_29
    2  A    between atoms: C_2  and  N_28
    3  A    between atoms: C_2  and  C_31
    4  A    between atoms: C_4  and  C_40
    5  A    between atoms: C_6  and  S_20
    6  A    between atoms: C_8  and  C_35
    7  A    between atoms: N_10  and  C_39
    8  A    between atoms: C_13  and  C_48
    9  A    between atoms: C_13  and  C_52
   10  A    between atoms: S_20  and  S_22
   11  A    between atoms: C_26  and  C_49
   12  A    between atoms: C_27  and  C_54
   13  A    between atoms: N_28  and  C_33
   14  A    between atoms: C_33  and  C_34
   15  A    between atoms: C_33  and  C_49
   16  A    between atoms: C_34  and  C_52
   17  A    between atoms: C_35  and  O_51
   18  A    between atoms: C_39  and  C_48
   19  A    between atoms: C_40  and  N_45
   20  A    between atoms: N_45  and  C_49
   21  A    between atoms: O_51  and  C_54
                            x       y       z     vdW  Elec       q    Type
                         _______ _______ _______ _____ _____    ______ ____

>  <TORSDO>
F 21

$$$$
=
 OpenBabel11062409003D

 55 58  0  0  1  0  0  0  0  0999 V2000
  162.2030  208.2690  153.6480 C   0  0  0  0  0  2  0  0  0  0  0  0
  160.7520  209.1430  151.2290 C   0  0  2  0  0  3  0  0  0  0  0  0
  161.7560  210.0720  151.9200 C   0  0  2  0  0  3  0  0  0  0  0  0
  161.3080  207.3050  152.8840 C   0  0  0  0  0  2  0  0  0  0  0  0
  162.8260  209.2720  152.6820 C   0  0  0  0  0  2  0  0  0  0  0  0
  160.1890  208.0830  152.1930 C   0  0  0  0  0  2  0  0  0  0  0  0
  161.3580  208.5250  149.9670 C   0  0  0  0  0  2  0  0  0  0  0  0
  162.0680  209.4860  149.2350 O   0  0  0  0  0  0  0  0  0  0  0  0
  163.0750  208.7860  148.5660 C   0  0  0  0  0  2  0  0  0  0  0  0
  162.8040  207.3140  148.6390 C   0  0  2  0  0  3  0  0  0  0  0  0
  162.5400  206.4910  147.2790 S   0  0  0  0  0  0  0  0  0  0  0  0
  162.7790  206.6190  149.9670 C   0  0  0  0  0  1  0  0  0  0  0  0
  159.9940  206.2380  148.7320 O   0  0  0  0  0  0  0  0  0  0  0  0
  160.5710  205.8020  147.4170 S   0  0  0  0  0  0  0  0  0  0  0  0
  159.7840  206.4380  146.3020 O   0  0  0  0  0  0  0  0  0  0  0  0
  161.2550  200.8150  147.7480 C   0  0  0  0  0  2  0  0  0  0  0  0
  160.5610  204.0020  147.2760 C   0  0  2  0  0  3  0  0  0  0  0  0
  159.5260  201.7170  149.4040 C   0  0  0  0  0  2  0  0  0  0  0  0
  162.0150  203.9140  149.1770 O   0  0  0  0  0  0  0  0  0  0  0  0
  161.2330  203.3200  148.4480 C   0  0  0  0  0  0  0  0  0  0  0  0
  161.7940  202.2690  145.9160 O   0  0  0  0  0  0  0  0  0  0  0  0
  160.8040  201.4880  150.2050 C   0  0  0  0  0  2  0  0  0  0  0  0
  160.8740  201.2950  146.3530 C   0  0  1  0  0  3  0  0  0  0  0  0
  160.8810  201.8920  148.7500 C   0  0  0  0  0  0  0  0  0  0  0  0
  160.3180  203.7950  144.7040 C   0  0  0  0  0  1  0  0  0  0  0  0
  161.1880  203.5480  145.9350 C   0  0  1  0  0  3  0  0  0  0  0  0
  160.7700  200.1590  145.3880 C   0  0  0  0  0  0  0  0  0  0  0  0
  161.2240  198.8630  145.7650 N   0  0  0  0  0  1  0  0  0  0  0  0
  160.1740  200.3030  144.2850 O   0  0  0  0  0  0  0  0  0  0  0  0
  161.0100  211.0430  152.8310 C   0  0  0  0  0  2  0  0  0  0  0  0
  159.6960  210.5190  153.1950 N   0  0  0  0  0  2  0  0  0  0  0  0
  158.9190  211.5200  153.9360 C   0  0  1  0  0  3  0  0  0  0  0  0
  159.5360  211.9280  155.3020 C   0  0  1  0  0  3  0  0  0  0  0  0
  157.0280  211.7680  155.6930 C   0  0  0  0  0  2  0  0  0  0  0  0
  155.9560  213.4690  157.1880 C   0  0  0  0  0  2  0  0  0  0  0  0
  158.2150  213.9260  156.1700 N   0  0  0  0  0  0  0  0  0  0  0  0
  157.1960  214.3750  157.1310 C   0  0  0  0  0  2  0  0  0  0  0  0
  155.8030  212.6590  155.9110 C   0  0  0  0  0  2  0  0  0  0  0  0
  158.3310  212.4510  156.1400 C   0  0  2  0  0  3  0  0  0  0  0  0
  159.3940  214.4520  156.6000 O   0  0  0  0  0  1  0  0  0  0  0  0
  160.9590  211.2590  157.1700 C   0  0  0  0  0  1  0  0  0  0  0  0
  160.2910  210.8140  155.9490 N   0  0  0  0  0  0  0  0  0  0  0  0
  159.4840  209.6130  156.2790 C   0  0  0  0  0  2  0  0  0  0  0  0
  160.2360  208.3030  156.4660 C   0  0  0  0  0  0  0  0  0  0  0  0
  159.5250  207.0370  156.1190 C   0  0  0  0  0  1  0  0  0  0  0  0
  161.5190  208.2390  156.8120 C   0  0  0  0  0  2  0  0  0  0  0  0
  158.5830  212.7390  153.0720 C   0  0  0  0  0  2  0  0  0  0  0  0
  158.4650  212.3750  151.6000 C   0  0  0  0  0  2  0  0  0  0  0  0
  158.9570  213.5420  150.7750 C   0  0  0  0  0  2  0  0  0  0  0  0
  158.5130  213.4150  149.3190 C   0  0  0  0  0  2  0  0  0  0  0  0
  159.2370  214.3800  147.2520 O   0  0  0  0  0  1  0  0  0  0  0  0
  159.6780  213.6350  148.3580 C   0  0  1  0  0  0  0  0  0  0  0  0
  160.7280  214.4420  149.0920 C   0  0  0  0  0  1  0  0  0  0  0  0
  160.2300  212.3370  147.9370 N   0  0  0  0  0  2  0  0  0  0  0  0
  161.5710  212.1490  148.4780 C   0  0  0  0  0  1  0  0  0  0  0  0
  2  7  1  6  0  0  0
  2  3  1  0  0  0  0
  2  6  1  0  0  0  0
  3  5  1  0  0  0  0
  3 30  1  1  0  0  0
  4  1  1  0  0  0  0
  5  1  1  0  0  0  0
  6  4  1  0  0  0  0
  8  7  1  0  0  0  0
  9 10  1  0  0  0  0
  9  8  1  0  0  0  0
 10 12  1  1  0  0  0
 11 14  1  0  0  0  0
 11 10  1  0  0  0  0
 14 13  2  0  0  0  0
 15 14  2  0  0  0  0
 16 24  1  0  0  0  0
 17 14  1  1  0  0  0
 17 20  1  0  0  0  0
 18 22  1  0  0  0  0
 20 24  1  0  0  0  0
 20 19  2  0  0  0  0
 21 26  1  0  0  0  0
 21 23  1  0  0  0  0
 23 27  1  6  0  0  0
 23 16  1  0  0  0  0
 24 18  1  0  0  0  0
 24 22  1  0  0  0  0
 26 25  1  6  0  0  0
 26 17  1  0  0  0  0
 27 28  1  0  0  0  0
 29 27  2  0  0  0  0
 30 31  1  0  0  0  0
 31 32  1  0  0  0  0
 32 47  1  6  0  0  0
 32 33  1  0  0  0  0
 33 42  1  1  0  0  0
 34 38  1  0  0  0  0
 34 39  1  0  0  0  0
 36 40  1  0  0  0  0
 36 37  1  0  0  0  0
 37 35  1  0  0  0  0
 38 35  1  0  0  0  0
 39 33  1  6  0  0  0
 39 36  1  0  0  0  0
 42 43  1  0  0  0  0
 42 41  1  0  0  0  0
 43 44  1  0  0  0  0
 44 46  2  0  0  0  0
 45 44  1  0  0  0  0
 48 47  1  0  0  0  0
 49 48  1  0  0  0  0
 50 49  1  0  0  0  0
 51 52  1  0  0  0  0
 52 53  1  1  0  0  0
 52 50  1  0  0  0  0
 54 52  1  0  0  0  0
 54 55  1  0  0  0  0
M  END
>  <MODEL>
5

>  <REMARK>
 VINA RESULT:      -2.0      5.831      9.501
  Name = 
  21 active torsions:
  status: ('A' for Active; 'I' for Inactive)
    1  A    between atoms: C_1  and  C_29
    2  A    between atoms: C_2  and  N_28
    3  A    between atoms: C_2  and  C_31
    4  A    between atoms: C_4  and  C_40
    5  A    between atoms: C_6  and  S_20
    6  A    between atoms: C_8  and  C_35
    7  A    between atoms: N_10  and  C_39
    8  A    between atoms: C_13  and  C_48
    9  A    between atoms: C_13  and  C_52
   10  A    between atoms: S_20  and  S_22
   11  A    between atoms: C_26  and  C_49
   12  A    between atoms: C_27  and  C_54
   13  A    between atoms: N_28  and  C_33
   14  A    between atoms: C_33  and  C_34
   15  A    between atoms: C_33  and  C_49
   16  A    between atoms: C_34  and  C_52
   17  A    between atoms: C_35  and  O_51
   18  A    between atoms: C_39  and  C_48
   19  A    between atoms: C_40  and  N_45
   20  A    between atoms: N_45  and  C_49
   21  A    between atoms: O_51  and  C_54
                            x       y       z     vdW  Elec       q    Type
                         _______ _______ _______ _____ _____    ______ ____

>  <TORSDO>
F 21

$$$$
=
 OpenBabel11062409003D

 55 58  0  0  1  0  0  0  0  0999 V2000
  162.3530  207.8860  150.6490 C   0  0  0  0  0  2  0  0  0  0  0  0
  161.1280  207.1240  153.2250 C   0  0  2  0  0  3  0  0  0  0  0  0
  160.4850  208.1950  152.3380 C   0  0  2  0  0  3  0  0  0  0  0  0
  162.9120  206.7330  151.4680 C   0  0  0  0  0  2  0  0  0  0  0  0
  160.8440  207.9840  150.8580 C   0  0  0  0  0  2  0  0  0  0  0  0
  162.6360  206.9760  152.9510 C   0  0  0  0  0  2  0  0  0  0  0  0
  160.3780  205.7950  153.1100 C   0  0  0  0  0  2  0  0  0  0  0  0
  161.1820  204.7310  153.5380 O   0  0  0  0  0  0  0  0  0  0  0  0
  160.5960  203.5770  153.0130 C   0  0  0  0  0  2  0  0  0  0  0  0
  161.5140  202.9540  152.0050 C   0  0  2  0  0  3  0  0  0  0  0  0
  161.5720  203.5560  150.5120 S   0  0  0  0  0  0  0  0  0  0  0  0
  162.3660  201.7830  152.3880 C   0  0  0  0  0  1  0  0  0  0  0  0
  161.8490  200.8960  149.2870 O   0  0  0  0  0  0  0  0  0  0  0  0
  160.8690  202.0310  149.2670 S   0  0  0  0  0  0  0  0  0  0  0  0
  159.5550  201.5530  149.8270 O   0  0  0  0  0  0  0  0  0  0  0  0
  160.7640  202.9700  144.3120 C   0  0  0  0  0  2  0  0  0  0  0  0
  160.6670  202.6760  147.5940 C   0  0  2  0  0  3  0  0  0  0  0  0
  158.7480  201.6280  145.1370 C   0  0  0  0  0  2  0  0  0  0  0  0
  161.4520  200.5720  146.7620 O   0  0  0  0  0  0  0  0  0  0  0  0
  160.8580  201.6150  146.5310 C   0  0  0  0  0  0  0  0  0  0  0  0
  162.0170  204.1090  146.0120 O   0  0  0  0  0  0  0  0  0  0  0  0
  159.6820  200.6250  144.4660 C   0  0  0  0  0  2  0  0  0  0  0  0
  160.8890  204.2190  145.1750 C   0  0  1  0  0  3  0  0  0  0  0  0
  160.2480  201.8340  145.1770 C   0  0  0  0  0  0  0  0  0  0  0  0
  161.1900  205.1730  148.0520 C   0  0  0  0  0  1  0  0  0  0  0  0
  161.6060  203.8840  147.3490 C   0  0  1  0  0  3  0  0  0  0  0  0
  160.9360  205.4600  144.3450 C   0  0  0  0  0  0  0  0  0  0  0  0
  160.4050  206.6780  144.8580 N   0  0  0  0  0  1  0  0  0  0  0  0
  161.5480  205.4750  143.2420 O   0  0  0  0  0  0  0  0  0  0  0  0
  160.8890  209.5800  152.8340 C   0  0  0  0  0  2  0  0  0  0  0  0
  159.9310  210.5950  152.4010 N   0  0  0  0  0  2  0  0  0  0  0  0
  160.4900  211.9430  152.5530 C   0  0  1  0  0  3  0  0  0  0  0  0
  159.9260  212.9880  151.5510 C   0  0  1  0  0  3  0  0  0  0  0  0
  161.4240  211.3650  150.2910 C   0  0  0  0  0  2  0  0  0  0  0  0
  161.6150  211.6200  147.8050 C   0  0  0  0  0  2  0  0  0  0  0  0
  160.7760  213.5350  149.2120 N   0  0  0  0  0  0  0  0  0  0  0  0
  160.9800  213.0190  147.8490 C   0  0  0  0  0  2  0  0  0  0  0  0
  162.3700  211.3130  149.0880 C   0  0  0  0  0  2  0  0  0  0  0  0
  160.3610  212.4660  150.1490 C   0  0  2  0  0  3  0  0  0  0  0  0
  159.7750  214.4530  149.1200 O   0  0  0  0  0  1  0  0  0  0  0  0
  158.1500  214.4320  152.4010 C   0  0  0  0  0  1  0  0  0  0  0  0
  158.4530  213.1890  151.6960 N   0  0  0  0  0  0  0  0  0  0  0  0
  157.6880  213.1860  150.4250 C   0  0  0  0  0  2  0  0  0  0  0  0
  156.2700  213.7370  150.4680 C   0  0  0  0  0  0  0  0  0  0  0  0
  155.6590  213.9830  151.8090 C   0  0  0  0  0  1  0  0  0  0  0  0
  155.5980  214.1140  149.3840 C   0  0  0  0  0  2  0  0  0  0  0  0
  160.4110  212.4360  154.0000 C   0  0  0  0  0  2  0  0  0  0  0  0
  159.7590  211.4090  154.9140 C   0  0  0  0  0  2  0  0  0  0  0  0
  158.4540  211.9770  155.4220 C   0  0  0  0  0  2  0  0  0  0  0  0
  157.3080  210.9860  155.2270 C   0  0  0  0  0  2  0  0  0  0  0  0
  155.1980  211.3260  154.1500 O   0  0  0  0  0  1  0  0  0  0  0  0
  155.9510  211.6830  155.2800 C   0  0  1  0  0  0  0  0  0  0  0  0
  155.2310  211.1820  156.5150 C   0  0  0  0  0  1  0  0  0  0  0  0
  156.1410  213.1410  155.3530 N   0  0  0  0  0  2  0  0  0  0  0  0
  154.8560  213.8290  155.3180 C   0  0  0  0  0  1  0  0  0  0  0  0
  1  5  1  0  0  0  0
  1  4  1  0  0  0  0
  2  7  1  6  0  0  0
  3 30  1  1  0  0  0
  3  2  1  0  0  0  0
  4  6  1  0  0  0  0
  5  3  1  0  0  0  0
  6  2  1  0  0  0  0
  7  8  1  0  0  0  0
  9  8  1  0  0  0  0
 10 12  1  6  0  0  0
 10  9  1  0  0  0  0
 11 10  1  0  0  0  0
 14 13  2  0  0  0  0
 14 15  2  0  0  0  0
 14 11  1  0  0  0  0
 16 23  1  0  0  0  0
 16 24  1  0  0  0  0
 17 14  1  1  0  0  0
 18 24  1  0  0  0  0
 20 19  2  0  0  0  0
 20 17  1  0  0  0  0
 21 26  1  0  0  0  0
 22 18  1  0  0  0  0
 22 24  1  0  0  0  0
 23 27  1  6  0  0  0
 23 21  1  0  0  0  0
 24 20  1  0  0  0  0
 26 17  1  0  0  0  0
 26 25  1  6  0  0  0
 27 28  1  0  0  0  0
 29 27  2  0  0  0  0
 31 32  1  0  0  0  0
 31 30  1  0  0  0  0
 32 47  1  1  0  0  0
 33 42  1  6  0  0  0
 33 32  1  0  0  0  0
 35 37  1  0  0  0  0
 35 38  1  0  0  0  0
 36 39  1  0  0  0  0
 37 36  1  0  0  0  0
 38 34  1  0  0  0  0
 39 34  1  0  0  0  0
 39 33  1  1  0  0  0
 40 36  1  0  0  0  0
 42 41  1  0  0  0  0
 43 44  1  0  0  0  0
 43 42  1  0  0  0  0
 44 45  1  0  0  0  0
 46 44  2  0  0  0  0
 47 48  1  0  0  0  0
 48 49  1  0  0  0  0
 50 52  1  0  0  0  0
 50 49  1  0  0  0  0
 51 52  1  0  0  0  0
 52 54  1  0  0  0  0
 52 53  1  1  0  0  0
 55 54  1  0  0  0  0
M  END
>  <MODEL>
6

>  <REMARK>
 VINA RESULT:      -1.8      5.522     10.241
  Name = 
  21 active torsions:
  status: ('A' for Active; 'I' for Inactive)
    1  A    between atoms: C_1  and  C_29
    2  A    between atoms: C_2  and  N_28
    3  A    between atoms: C_2  and  C_31
    4  A    between atoms: C_4  and  C_40
    5  A    between atoms: C_6  and  S_20
    6  A    between atoms: C_8  and  C_35
    7  A    between atoms: N_10  and  C_39
    8  A    between atoms: C_13  and  C_48
    9  A    between atoms: C_13  and  C_52
   10  A    between atoms: S_20  and  S_22
   11  A    between atoms: C_26  and  C_49
   12  A    between atoms: C_27  and  C_54
   13  A    between atoms: N_28  and  C_33
   14  A    between atoms: C_33  and  C_34
   15  A    between atoms: C_33  and  C_49
   16  A    between atoms: C_34  and  C_52
   17  A    between atoms: C_35  and  O_51
   18  A    between atoms: C_39  and  C_48
   19  A    between atoms: C_40  and  N_45
   20  A    between atoms: N_45  and  C_49
   21  A    between atoms: O_51  and  C_54
                            x       y       z     vdW  Elec       q    Type
                         _______ _______ _______ _____ _____    ______ ____

>  <TORSDO>
F 21

$$$$
=
 OpenBabel11062409003D

 55 58  0  0  1  0  0  0  0  0999 V2000
  160.9640  206.7490  153.1420 C   0  0  0  0  0  2  0  0  0  0  0  0
  161.4220  208.2940  150.6680 C   0  0  2  0  0  3  0  0  0  0  0  0
  161.7360  208.9000  152.0410 C   0  0  2  0  0  3  0  0  0  0  0  0
  160.7820  206.1060  151.7760 C   0  0  0  0  0  2  0  0  0  0  0  0
  162.0610  207.8080  153.0730 C   0  0  0  0  0  2  0  0  0  0  0  0
  160.3730  207.1710  150.7590 C   0  0  0  0  0  2  0  0  0  0  0  0
  162.7040  207.8430  149.9640 C   0  0  0  0  0  2  0  0  0  0  0  0
  162.4930  207.7110  148.5850 O   0  0  0  0  0  0  0  0  0  0  0  0
  162.2350  206.3550  148.3690 C   0  0  0  0  0  2  0  0  0  0  0  0
  162.4580  206.0190  146.9260 C   0  0  2  0  0  3  0  0  0  0  0  0
  161.2170  206.0760  145.9000 S   0  0  0  0  0  0  0  0  0  0  0  0
  163.8250  205.6330  146.4470 C   0  0  0  0  0  1  0  0  0  0  0  0
  159.5890  203.9890  144.6160 O   0  0  0  0  0  0  0  0  0  0  0  0
  160.9500  204.1120  145.2370 S   0  0  0  0  0  0  0  0  0  0  0  0
  161.9930  203.8380  144.1860 O   0  0  0  0  0  0  0  0  0  0  0  0
  160.8070  200.3620  148.6080 C   0  0  0  0  0  2  0  0  0  0  0  0
  161.1220  202.9840  146.6350 C   0  0  2  0  0  3  0  0  0  0  0  0
  162.6190  200.0610  146.8270 C   0  0  0  0  0  2  0  0  0  0  0  0
  159.9150  201.3450  145.3730 O   0  0  0  0  0  0  0  0  0  0  0  0
  160.6610  201.5780  146.3130 C   0  0  0  0  0  0  0  0  0  0  0  0
  159.9170  202.5810  148.8180 O   0  0  0  0  0  0  0  0  0  0  0  0
  161.4720  199.1380  146.4280 C   0  0  0  0  0  2  0  0  0  0  0  0
  160.9740  201.7440  149.2280 C   0  0  1  0  0  3  0  0  0  0  0  0
  161.1860  200.4410  147.1400 C   0  0  0  0  0  0  0  0  0  0  0  0
  161.0830  204.7150  148.5640 C   0  0  0  0  0  1  0  0  0  0  0  0
  160.3920  203.5350  147.8850 C   0  0  1  0  0  3  0  0  0  0  0  0
  161.0770  201.6720  150.7160 C   0  0  0  0  0  0  0  0  0  0  0  0
  161.0350  202.8670  151.4900 N   0  0  0  0  0  1  0  0  0  0  0  0
  161.0780  200.5580  151.3090 O   0  0  0  0  0  0  0  0  0  0  0  0
  160.5740  209.7830  152.4870 C   0  0  0  0  0  2  0  0  0  0  0  0
  161.0090  210.7650  153.4770 N   0  0  0  0  0  2  0  0  0  0  0  0
  159.8860  211.6030  153.9140 C   0  0  1  0  0  3  0  0  0  0  0  0
  159.8850  211.9350  155.4310 C   0  0  1  0  0  3  0  0  0  0  0  0
  157.6170  210.8670  155.0040 C   0  0  0  0  0  2  0  0  0  0  0  0
  155.6040  211.9020  156.0800 C   0  0  0  0  0  2  0  0  0  0  0  0
  157.7300  213.2320  155.8340 N   0  0  0  0  0  0  0  0  0  0  0  0
  156.3820  213.1830  156.4210 C   0  0  0  0  0  2  0  0  0  0  0  0
  156.1450  211.2440  154.8210 C   0  0  0  0  0  2  0  0  0  0  0  0
  158.3830  211.9040  155.8420 C   0  0  2  0  0  3  0  0  0  0  0  0
  158.4490  214.0810  156.6170 O   0  0  0  0  0  1  0  0  0  0  0  0
  161.5170  211.7370  157.2370 C   0  0  0  0  0  1  0  0  0  0  0  0
  160.7540  211.0130  156.2230 N   0  0  0  0  0  0  0  0  0  0  0  0
  160.0420  209.8980  156.8950 C   0  0  0  0  0  2  0  0  0  0  0  0
  160.6780  208.5180  156.8080 C   0  0  0  0  0  0  0  0  0  0  0  0
  159.7710  207.3410  156.6570 C   0  0  0  0  0  1  0  0  0  0  0  0
  161.9930  208.3210  156.7480 C   0  0  0  0  0  2  0  0  0  0  0  0
  159.7410  212.8600  153.0520 C   0  0  0  0  0  2  0  0  0  0  0  0
  158.8170  212.6310  151.8650 C   0  0  0  0  0  2  0  0  0  0  0  0
  159.1710  213.6250  150.7820 C   0  0  0  0  0  2  0  0  0  0  0  0
  160.3170  213.1100  149.9130 C   0  0  0  0  0  2  0  0  0  0  0  0
  159.0790  214.4530  148.3680 O   0  0  0  0  0  1  0  0  0  0  0  0
  160.2070  213.6240  148.4800 C   0  0  1  0  0  0  0  0  0  0  0  0
  161.4420  214.4530  148.1980 C   0  0  0  0  0  1  0  0  0  0  0  0
  160.1270  212.4890  147.5470 N   0  0  0  0  0  2  0  0  0  0  0  0
  160.7900  212.8090  146.2890 C   0  0  0  0  0  1  0  0  0  0  0  0
  2  7  1  1  0  0  0
  2  6  1  0  0  0  0
  2  3  1  0  0  0  0
  3 30  1  1  0  0  0
  3  5  1  0  0  0  0
  4  1  1  0  0  0  0
  5  1  1  0  0  0  0
  6  4  1  0  0  0  0
  8  7  1  0  0  0  0
  9  8  1  0  0  0  0
 10 12  1  1  0  0  0
 10  9  1  0  0  0  0
 11 10  1  0  0  0  0
 13 14  2  0  0  0  0
 14 11  1  0  0  0  0
 15 14  2  0  0  0  0
 16 23  1  0  0  0  0
 17 14  1  6  0  0  0
 17 26  1  0  0  0  0
 18 24  1  0  0  0  0
 19 20  2  0  0  0  0
 20 17  1  0  0  0  0
 20 24  1  0  0  0  0
 21 23  1  0  0  0  0
 22 18  1  0  0  0  0
 22 24  1  0  0  0  0
 23 27  1  1  0  0  0
 24 16  1  0  0  0  0
 26 25  1  1  0  0  0
 26 21  1  0  0  0  0
 27 29  2  0  0  0  0
 27 28  1  0  0  0  0
 30 31  1  0  0  0  0
 31 32  1  0  0  0  0
 32 47  1  6  0  0  0
 32 33  1  0  0  0  0
 33 42  1  1  0  0  0
 34 39  1  0  0  0  0
 35 37  1  0  0  0  0
 36 39  1  0  0  0  0
 36 37  1  0  0  0  0
 36 40  1  0  0  0  0
 38 34  1  0  0  0  0
 38 35  1  0  0  0  0
 39 33  1  6  0  0  0
 42 43  1  0  0  0  0
 42 41  1  0  0  0  0
 44 43  1  0  0  0  0
 45 44  1  0  0  0  0
 46 44  2  0  0  0  0
 48 47  1  0  0  0  0
 49 48  1  0  0  0  0
 50 49  1  0  0  0  0
 51 52  1  0  0  0  0
 52 53  1  6  0  0  0
 52 50  1  0  0  0  0
 54 52  1  0  0  0  0
 55 54  1  0  0  0  0
M  END
>  <MODEL>
7

>  <REMARK>
 VINA RESULT:      -1.3      5.315      9.581
  Name = 
  21 active torsions:
  status: ('A' for Active; 'I' for Inactive)
    1  A    between atoms: C_1  and  C_29
    2  A    between atoms: C_2  and  N_28
    3  A    between atoms: C_2  and  C_31
    4  A    between atoms: C_4  and  C_40
    5  A    between atoms: C_6  and  S_20
    6  A    between atoms: C_8  and  C_35
    7  A    between atoms: N_10  and  C_39
    8  A    between atoms: C_13  and  C_48
    9  A    between atoms: C_13  and  C_52
   10  A    between atoms: S_20  and  S_22
   11  A    between atoms: C_26  and  C_49
   12  A    between atoms: C_27  and  C_54
   13  A    between atoms: N_28  and  C_33
   14  A    between atoms: C_33  and  C_34
   15  A    between atoms: C_33  and  C_49
   16  A    between atoms: C_34  and  C_52
   17  A    between atoms: C_35  and  O_51
   18  A    between atoms: C_39  and  C_48
   19  A    between atoms: C_40  and  N_45
   20  A    between atoms: N_45  and  C_49
   21  A    between atoms: O_51  and  C_54
                            x       y       z     vdW  Elec       q    Type
                         _______ _______ _______ _____ _____    ______ ____

>  <TORSDO>
F 21

$$$$
=
 OpenBabel11062409003D

 55 58  0  0  1  0  0  0  0  0999 V2000
  162.5060  204.6230  152.7760 C   0  0  0  0  0  2  0  0  0  0  0  0
  160.8750  207.0340  152.2850 C   0  0  2  0  0  3  0  0  0  0  0  0
  160.2640  205.6340  152.1550 C   0  0  2  0  0  3  0  0  0  0  0  0
  163.0700  206.0110  153.0330 C   0  0  0  0  0  2  0  0  0  0  0  0
  161.0030  204.6180  153.0400 C   0  0  0  0  0  2  0  0  0  0  0  0
  162.4030  207.0170  152.0960 C   0  0  0  0  0  2  0  0  0  0  0  0
  160.4540  207.6950  153.5990 C   0  0  0  0  0  2  0  0  0  0  0  0
  161.0910  207.0850  154.6880 O   0  0  0  0  0  0  0  0  0  0  0  0
  160.2580  207.3070  155.7880 C   0  0  0  0  0  2  0  0  0  0  0  0
  160.7520  208.4880  156.5680 C   0  0  2  0  0  3  0  0  0  0  0  0
  159.7360  209.6910  156.9090 S   0  0  0  0  0  0  0  0  0  0  0  0
  162.1790  208.5450  157.0220 C   0  0  0  0  0  1  0  0  0  0  0  0
  161.1940  212.2460  156.8870 O   0  0  0  0  0  0  0  0  0  0  0  0
  160.4880  211.3610  155.9020 S   0  0  0  0  0  0  0  0  0  0  0  0
  161.4830  210.8710  154.8830 O   0  0  0  0  0  0  0  0  0  0  0  0
  156.0930  213.2130  154.2570 C   0  0  0  0  0  2  0  0  0  0  0  0
  159.1250  212.2400  155.1090 C   0  0  2  0  0  3  0  0  0  0  0  0
  156.9550  214.3630  156.3730 C   0  0  0  0  0  2  0  0  0  0  0  0
  157.6240  211.1110  156.5950 O   0  0  0  0  0  0  0  0  0  0  0  0
  157.8070  212.0450  155.8280 C   0  0  0  0  0  0  0  0  0  0  0  0
  157.7200  211.9410  153.0320 O   0  0  0  0  0  0  0  0  0  0  0  0
  155.8600  213.4020  156.8260 C   0  0  0  0  0  2  0  0  0  0  0  0
  157.2040  213.2410  153.2140 C   0  0  1  0  0  3  0  0  0  0  0  0
  156.7220  213.0640  155.6300 C   0  0  0  0  0  0  0  0  0  0  0  0
  160.0960  212.4230  152.7130 C   0  0  0  0  0  1  0  0  0  0  0  0
  159.0070  211.8470  153.6160 C   0  0  1  0  0  3  0  0  0  0  0  0
  156.7380  213.8360  151.9270 C   0  0  0  0  0  0  0  0  0  0  0  0
  157.4660  213.5930  150.7270 N   0  0  0  0  0  1  0  0  0  0  0  0
  155.6380  214.4520  151.8630 O   0  0  0  0  0  0  0  0  0  0  0  0
  160.2540  205.2150  150.6870 C   0  0  0  0  0  2  0  0  0  0  0  0
  160.8280  206.2570  149.8390 N   0  0  0  0  0  2  0  0  0  0  0  0
  161.1420  205.7320  148.5040 C   0  0  1  0  0  3  0  0  0  0  0  0
  162.1500  206.5960  147.6980 C   0  0  1  0  0  3  0  0  0  0  0  0
  160.4760  206.2560  145.8140 C   0  0  0  0  0  2  0  0  0  0  0  0
  161.2430  205.0530  143.7550 C   0  0  0  0  0  2  0  0  0  0  0  0
  162.5340  204.8250  145.9070 N   0  0  0  0  0  0  0  0  0  0  0  0
  162.5070  204.5400  144.4630 C   0  0  0  0  0  2  0  0  0  0  0  0
  160.0960  205.2400  144.7340 C   0  0  0  0  0  2  0  0  0  0  0  0
  161.9550  206.1510  146.2170 C   0  0  2  0  0  3  0  0  0  0  0  0
  163.8470  204.8220  146.2650 O   0  0  0  0  0  1  0  0  0  0  0  0
  160.5600  208.3960  148.1390 C   0  0  0  0  0  1  0  0  0  0  0  0
  161.9660  208.0610  147.9240 N   0  0  0  0  0  0  0  0  0  0  0  0
  162.7500  208.6280  149.0490 C   0  0  0  0  0  2  0  0  0  0  0  0
  162.3700  210.0230  149.5240 C   0  0  0  0  0  0  0  0  0  0  0  0
  162.3260  211.1170  148.5070 C   0  0  0  0  0  1  0  0  0  0  0  0
  161.9690  210.2900  150.7640 C   0  0  0  0  0  2  0  0  0  0  0  0
  161.5580  204.2600  148.5520 C   0  0  0  0  0  2  0  0  0  0  0  0
  160.7790  203.4840  149.6030 C   0  0  0  0  0  2  0  0  0  0  0  0
  161.1310  202.0190  149.4790 C   0  0  0  0  0  2  0  0  0  0  0  0
  160.1540  201.2940  148.5550 C   0  0  0  0  0  2  0  0  0  0  0  0
  161.5800  202.1880  146.8540 O   0  0  0  0  0  1  0  0  0  0  0  0
  160.7420  201.1030  147.1590 C   0  0  1  0  0  0  0  0  0  0  0  0
  161.5810  199.8430  147.1870 C   0  0  0  0  0  1  0  0  0  0  0  0
  159.6570  200.9750  146.1730 N   0  0  0  0  0  2  0  0  0  0  0  0
  160.0630  201.5270  144.8870 C   0  0  0  0  0  1  0  0  0  0  0  0
  1  4  1  0  0  0  0
  1  5  1  0  0  0  0
  2  7  1  1  0  0  0
  3 30  1  6  0  0  0
  3  2  1  0  0  0  0
  3  5  1  0  0  0  0
  6  2  1  0  0  0  0
  6  4  1  0  0  0  0
  7  8  1  0  0  0  0
  8  9  1  0  0  0  0
  9 10  1  0  0  0  0
 10 11  1  0  0  0  0
 10 12  1  6  0  0  0
 14 13  2  0  0  0  0
 14 11  1  0  0  0  0
 15 14  2  0  0  0  0
 16 24  1  0  0  0  0
 17 20  1  0  0  0  0
 17 14  1  1  0  0  0
 18 22  1  0  0  0  0
 20 19  2  0  0  0  0
 21 23  1  0  0  0  0
 21 26  1  0  0  0  0
 23 27  1  6  0  0  0
 23 16  1  0  0  0  0
 24 20  1  0  0  0  0
 24 18  1  0  0  0  0
 24 22  1  0  0  0  0
 26 25  1  6  0  0  0
 26 17  1  0  0  0  0
 28 27  1  0  0  0  0
 29 27  2  0  0  0  0
 31 30  1  0  0  0  0
 32 47  1  1  0  0  0
 32 31  1  0  0  0  0
 33 42  1  6  0  0  0
 33 32  1  0  0  0  0
 34 39  1  0  0  0  0
 35 37  1  0  0  0  0
 35 38  1  0  0  0  0
 36 39  1  0  0  0  0
 36 40  1  0  0  0  0
 37 36  1  0  0  0  0
 38 34  1  0  0  0  0
 39 33  1  1  0  0  0
 42 41  1  0  0  0  0
 42 43  1  0  0  0  0
 43 44  1  0  0  0  0
 44 46  2  0  0  0  0
 45 44  1  0  0  0  0
 47 48  1  0  0  0  0
 49 48  1  0  0  0  0
 50 49  1  0  0  0  0
 51 52  1  0  0  0  0
 52 53  1  6  0  0  0
 52 50  1  0  0  0  0
 54 52  1  0  0  0  0
 55 54  1  0  0  0  0
M  END
>  <MODEL>
8

>  <REMARK>
 VINA RESULT:      -0.9      6.618     11.936
  Name = 
  21 active torsions:
  status: ('A' for Active; 'I' for Inactive)
    1  A    between atoms: C_1  and  C_29
    2  A    between atoms: C_2  and  N_28
    3  A    between atoms: C_2  and  C_31
    4  A    between atoms: C_4  and  C_40
    5  A    between atoms: C_6  and  S_20
    6  A    between atoms: C_8  and  C_35
    7  A    between atoms: N_10  and  C_39
    8  A    between atoms: C_13  and  C_48
    9  A    between atoms: C_13  and  C_52
   10  A    between atoms: S_20  and  S_22
   11  A    between atoms: C_26  and  C_49
   12  A    between atoms: C_27  and  C_54
   13  A    between atoms: N_28  and  C_33
   14  A    between atoms: C_33  and  C_34
   15  A    between atoms: C_33  and  C_49
   16  A    between atoms: C_34  and  C_52
   17  A    between atoms: C_35  and  O_51
   18  A    between atoms: C_39  and  C_48
   19  A    between atoms: C_40  and  N_45
   20  A    between atoms: N_45  and  C_49
   21  A    between atoms: O_51  and  C_54
                            x       y       z     vdW  Elec       q    Type
                         _______ _______ _______ _____ _____    ______ ____

>  <TORSDO>
F 21

$$$$
=
 OpenBabel11062409003D

 55 58  0  0  1  0  0  0  0  0999 V2000
  158.7910  212.3380  143.3120 C   0  0  0  0  0  2  0  0  0  0  0  0
  161.5780  212.9820  144.0420 C   0  0  2  0  0  3  0  0  0  0  0  0
  160.9270  213.6090  142.8040 C   0  0  2  0  0  3  0  0  0  0  0  0
  159.3960  211.8250  144.6090 C   0  0  0  0  0  2  0  0  0  0  0  0
  159.3990  213.6910  142.9580 C   0  0  0  0  0  2  0  0  0  0  0  0
  160.9050  211.6560  144.4390 C   0  0  0  0  0  2  0  0  0  0  0  0
  161.6300  213.9830  145.1980 C   0  0  0  0  0  2  0  0  0  0  0  0
  160.7170  213.6320  146.2010 O   0  0  0  0  0  0  0  0  0  0  0  0
  161.3830  213.8410  147.4110 C   0  0  0  0  0  2  0  0  0  0  0  0
  162.3650  212.7340  147.6470 C   0  0  2  0  0  3  0  0  0  0  0  0
  161.8450  211.2100  147.6780 S   0  0  0  0  0  0  0  0  0  0  0  0
  163.8160  213.0480  147.8550 C   0  0  0  0  0  1  0  0  0  0  0  0
  163.5610  211.0030  150.0580 O   0  0  0  0  0  0  0  0  0  0  0  0
  162.2030  210.5360  149.6240 S   0  0  0  0  0  0  0  0  0  0  0  0
  161.1630  211.1550  150.5210 O   0  0  0  0  0  0  0  0  0  0  0  0
  161.3090  205.6230  148.9110 C   0  0  0  0  0  2  0  0  0  0  0  0
  162.1010  208.7340  149.6570 C   0  0  2  0  0  3  0  0  0  0  0  0
  163.2850  206.5070  147.5470 C   0  0  0  0  0  2  0  0  0  0  0  0
  160.9060  208.8330  147.5840 O   0  0  0  0  0  0  0  0  0  0  0  0
  161.5530  208.1560  148.3700 C   0  0  0  0  0  0  0  0  0  0  0  0
  160.6110  207.0080  150.7430 O   0  0  0  0  0  0  0  0  0  0  0  0
  162.1130  206.3960  146.5770 C   0  0  0  0  0  2  0  0  0  0  0  0
  161.5290  206.0050  150.3690 C   0  0  1  0  0  3  0  0  0  0  0  0
  161.8670  206.7270  148.0310 C   0  0  0  0  0  0  0  0  0  0  0  0
  161.9930  208.3790  152.2220 C   0  0  0  0  0  1  0  0  0  0  0  0
  161.2810  208.2490  150.8780 C   0  0  1  0  0  3  0  0  0  0  0  0
  161.4460  204.8170  151.2700 C   0  0  0  0  0  0  0  0  0  0  0  0
  161.5490  204.9850  152.6800 N   0  0  0  0  0  1  0  0  0  0  0  0
  161.1630  203.6770  150.8080 O   0  0  0  0  0  0  0  0  0  0  0  0
  161.3350  212.8260  141.5590 C   0  0  0  0  0  2  0  0  0  0  0  0
  160.1790  212.5410  140.7140 N   0  0  0  0  0  2  0  0  0  0  0  0
  160.6000  212.1610  139.3600 C   0  0  1  0  0  3  0  0  0  0  0  0
  159.7050  211.0820  138.6900 C   0  0  1  0  0  3  0  0  0  0  0  0
  161.3640  209.9340  140.2390 C   0  0  0  0  0  2  0  0  0  0  0  0
  161.9290  207.5340  139.7940 C   0  0  0  0  0  2  0  0  0  0  0  0
  160.9030  208.9480  137.9790 N   0  0  0  0  0  0  0  0  0  0  0  0
  161.3070  207.5950  138.3900 C   0  0  0  0  0  2  0  0  0  0  0  0
  162.4790  208.8860  140.2160 C   0  0  0  0  0  2  0  0  0  0  0  0
  160.3430  209.7240  139.1080 C   0  0  2  0  0  3  0  0  0  0  0  0
  159.9360  208.7820  137.0360 O   0  0  0  0  0  1  0  0  0  0  0  0
  157.4830  211.7810  137.9580 C   0  0  0  0  0  1  0  0  0  0  0  0
  158.2640  211.2180  139.0570 N   0  0  0  0  0  0  0  0  0  0  0  0
  157.6030  209.9630  139.4930 C   0  0  0  0  0  2  0  0  0  0  0  0
  156.1360  209.7890  139.1260 C   0  0  0  0  0  0  0  0  0  0  0  0
  155.8170  209.2080  137.7880 C   0  0  0  0  0  1  0  0  0  0  0  0
  155.1380  210.0210  139.9740 C   0  0  0  0  0  2  0  0  0  0  0  0
  160.7980  213.3820  138.4580 C   0  0  0  0  0  2  0  0  0  0  0  0
  161.9100  213.1620  137.4430 C   0  0  0  0  0  2  0  0  0  0  0  0
  162.8660  214.3310  137.5170 C   0  0  0  0  0  2  0  0  0  0  0  0
  163.7570  214.2370  138.7540 C   0  0  0  0  0  2  0  0  0  0  0  0
  164.3280  211.9880  139.3400 O   0  0  0  0  0  1  0  0  0  0  0  0
  164.7780  213.1100  138.6240 C   0  0  1  0  0  0  0  0  0  0  0  0
  164.8640  212.7410  137.1580 C   0  0  0  0  0  1  0  0  0  0  0  0
  166.0890  213.5640  139.1160 N   0  0  0  0  0  2  0  0  0  0  0  0
  166.9350  213.9880  138.0080 C   0  0  0  0  0  1  0  0  0  0  0  0
  1  4  1  0  0  0  0
  2  6  1  0  0  0  0
  2  7  1  1  0  0  0
  3 30  1  6  0  0  0
  3  5  1  0  0  0  0
  3  2  1  0  0  0  0
  5  1  1  0  0  0  0
  6  4  1  0  0  0  0
  7  8  1  0  0  0  0
  8  9  1  0  0  0  0
  9 10  1  0  0  0  0
 10 11  1  0  0  0  0
 10 12  1  1  0  0  0
 11 14  1  0  0  0  0
 14 13  2  0  0  0  0
 14 15  2  0  0  0  0
 16 23  1  0  0  0  0
 17 14  1  6  0  0  0
 17 26  1  0  0  0  0
 18 24  1  0  0  0  0
 19 20  2  0  0  0  0
 20 17  1  0  0  0  0
 21 26  1  0  0  0  0
 22 18  1  0  0  0  0
 22 24  1  0  0  0  0
 23 21  1  0  0  0  0
 23 27  1  1  0  0  0
 24 20  1  0  0  0  0
 24 16  1  0  0  0  0
 26 25  1  1  0  0  0
 27 28  1  0  0  0  0
 29 27  2  0  0  0  0
 31 30  1  0  0  0  0
 32 47  1  6  0  0  0
 32 31  1  0  0  0  0
 33 42  1  1  0  0  0
 33 32  1  0  0  0  0
 35 38  1  0  0  0  0
 36 37  1  0  0  0  0
 36 39  1  0  0  0  0
 37 35  1  0  0  0  0
 38 34  1  0  0  0  0
 39 33  1  6  0  0  0
 39 34  1  0  0  0  0
 40 36  1  0  0  0  0
 41 42  1  0  0  0  0
 42 43  1  0  0  0  0
 44 43  1  0  0  0  0
 44 46  2  0  0  0  0
 45 44  1  0  0  0  0
 48 49  1  0  0  0  0
 48 47  1  0  0  0  0
 49 50  1  0  0  0  0
 52 53  1  6  0  0  0
 52 50  1  0  0  0  0
 52 54  1  0  0  0  0
 52 51  1  0  0  0  0
 55 54  1  0  0  0  0
M  END
>  <MODEL>
9

>  <REMARK>
 VINA RESULT:      -0.5      3.522     11.698
  Name = 
  21 active torsions:
  status: ('A' for Active; 'I' for Inactive)
    1  A    between atoms: C_1  and  C_29
    2  A    between atoms: C_2  and  N_28
    3  A    between atoms: C_2  and  C_31
    4  A    between atoms: C_4  and  C_40
    5  A    between atoms: C_6  and  S_20
    6  A    between atoms: C_8  and  C_35
    7  A    between atoms: N_10  and  C_39
    8  A    between atoms: C_13  and  C_48
    9  A    between atoms: C_13  and  C_52
   10  A    between atoms: S_20  and  S_22
   11  A    between atoms: C_26  and  C_49
   12  A    between atoms: C_27  and  C_54
   13  A    between atoms: N_28  and  C_33
   14  A    between atoms: C_33  and  C_34
   15  A    between atoms: C_33  and  C_49
   16  A    between atoms: C_34  and  C_52
   17  A    between atoms: C_35  and  O_51
   18  A    between atoms: C_39  and  C_48
   19  A    between atoms: C_40  and  N_45
   20  A    between atoms: N_45  and  C_49
   21  A    between atoms: O_51  and  C_54
                            x       y       z     vdW  Elec       q    Type
                         _______ _______ _______ _____ _____    ______ ____

>  <TORSDO>
F 21

$$$$
