=
 OpenBabel11052422423D

 31 34  0  0  1  0  0  0  0  0999 V2000
  160.5810  210.1690  155.8720 O   0  0  0  0  0  0  0  0  0  0  0  0
  161.9650  209.9960  152.7400 C   0  0  1  0  0  3  0  0  0  0  0  0
  160.8960  211.0320  152.4410 C   0  0  0  0  0  0  0  0  0  0  0  0
  159.0530  212.4880  153.0640 C   0  0  0  0  0  3  0  0  0  0  0  0
  161.8300  209.1810  154.0320 C   0  0  1  0  0  3  0  0  0  0  0  0
  159.7030  207.9680  156.1890 C   0  0  0  0  0  2  0  0  0  0  0  0
  159.9710  211.4850  153.3900 C   0  0  0  0  0  3  0  0  0  0  0  0
  161.6090  207.6650  151.6810 C   0  0  0  0  0  0  0  0  0  0  0  0
  160.4470  209.1410  156.8090 C   0  0  0  0  0  2  0  0  0  0  0  0
  161.8840  211.0670  150.1770 C   0  0  0  0  0  2  0  0  0  0  0  0
  159.0600  213.0520  151.7850 C   0  0  0  0  0  3  0  0  0  0  0  0
  160.9750  207.2940  152.7470 N   0  0  0  0  0  0  0  0  0  0  0  0
  162.2160  209.0500  151.5240 C   0  0  1  0  0  3  0  0  0  0  0  0
  161.8610  210.0070  155.3280 C   0  0  0  0  0  2  0  0  0  0  0  0
  159.9580  213.3430  149.2320 Cl  0  0  0  0  0  0  0  0  0  0  0  0
  160.7050  208.1510  153.8830 C   0  0  1  0  0  3  0  0  0  0  0  0
  160.5530  207.2810  155.1270 C   0  0  0  0  0  2  0  0  0  0  0  0
  161.8260  209.6060  150.2110 N   0  0  0  0  0  2  0  0  0  0  0  0
  160.9000  211.6050  151.1630 C   0  0  0  0  0  0  0  0  0  0  0  0
  159.9830  212.6150  150.8300 C   0  0  0  0  0  0  0  0  0  0  0  0
  161.8340  206.6590  150.5950 C   0  0  0  0  0  2  0  0  0  0  0  0
  161.9810  204.4030  151.6910 C   0  0  0  0  0  1  0  0  0  0  0  0
  161.1010  205.3540  150.8970 C   0  0  2  0  0  3  0  0  0  0  0  0
  160.5320  203.1570  149.7930 C   0  0  0  0  0  1  0  0  0  0  0  0
  160.5540  204.6790  149.6280 C   0  0  2  0  0  3  0  0  0  0  0  0
  161.6380  203.9000  147.6240 C   0  0  0  0  0  1  0  0  0  0  0  0
  161.3200  205.0750  148.4320 N   0  0  0  0  0  0  0  0  0  0  0  0
  160.5740  206.0270  147.5910 C   0  0  0  0  0  2  0  0  0  0  0  0
  161.0540  206.0880  146.1680 C   0  0  0  0  0  0  0  0  0  0  0  0
  160.2240  206.0650  145.2220 O   0  0  0  0  0  0  0  0  0  0  0  0
  162.4120  206.1780  145.8930 O   0  0  0  0  0  1  0  0  0  0  0  0
  1  9  1  0  0  0  0
  2  3  1  6  0  0  0
  2  5  1  0  0  0  0
  3  7  1  0  0  0  0
  4  7  2  0  0  0  0
  5 14  1  1  0  0  0
  6  9  1  0  0  0  0
  8 12  2  0  0  0  0
 10 18  1  0  0  0  0
 10 19  1  0  0  0  0
 11  4  1  0  0  0  0
 12 16  1  0  0  0  0
 13 18  1  6  0  0  0
 13  8  1  0  0  0  0
 13  2  1  0  0  0  0
 14  1  1  0  0  0  0
 15 20  1  0  0  0  0
 16  5  1  0  0  0  0
 16 17  1  1  0  0  0
 17  6  1  0  0  0  0
 19  3  2  0  0  0  0
 20 19  1  0  0  0  0
 20 11  2  0  0  0  0
 21 23  1  0  0  0  0
 21  8  1  0  0  0  0
 23 22  1  6  0  0  0
 25 24  1  1  0  0  0
 25 23  1  0  0  0  0
 26 27  1  0  0  0  0
 27 25  1  0  0  0  0
 28 27  1  0  0  0  0
 29 28  1  0  0  0  0
 30 29  2  0  0  0  0
 31 29  1  0  0  0  0
M  END
>  <MODEL>
1

>  <REMARK>
 VINA RESULT:      -7.4      0.000      0.000
  Name = 
  6 active torsions:
  status: ('A' for Active; 'I' for Inactive)
    1  A    between atoms: C_1  and  C_24
    2  A    between atoms: C_9  and  C_22
    3  A    between atoms: C_9  and  C_23
    4  A    between atoms: C_15  and  C_23
    5  A    between atoms: N_19  and  C_22
    6  A    between atoms: N_19  and  C_24
                            x       y       z     vdW  Elec       q    Type
                         _______ _______ _______ _____ _____    ______ ____

>  <TORSDO>
F 6

$$$$
=
 OpenBabel11052422423D

 31 34  0  0  1  0  0  0  0  0999 V2000
  160.0590  209.6020  156.7040 O   0  0  0  0  0  0  0  0  0  0  0  0
  161.0360  210.9380  153.7010 C   0  0  1  0  0  3  0  0  0  0  0  0
  159.6260  211.5030  153.7350 C   0  0  0  0  0  0  0  0  0  0  0  0
  157.4540  211.8490  154.7650 C   0  0  0  0  0  3  0  0  0  0  0  0
  161.3700  209.7900  154.6620 C   0  0  1  0  0  3  0  0  0  0  0  0
  160.1250  207.2490  156.2870 C   0  0  0  0  0  2  0  0  0  0  0  0
  158.7140  211.2460  154.7660 C   0  0  0  0  0  3  0  0  0  0  0  0
  161.4720  209.0910  151.9460 C   0  0  0  0  0  0  0  0  0  0  0  0
  160.4340  208.3760  157.2610 C   0  0  0  0  0  2  0  0  0  0  0  0
  160.2600  212.6030  151.6150 C   0  0  0  0  0  2  0  0  0  0  0  0
  157.0990  212.7240  153.7350 C   0  0  0  0  0  3  0  0  0  0  0  0
  161.1540  208.1980  152.8280 N   0  0  0  0  0  0  0  0  0  0  0  0
  161.4850  210.5810  152.2490 C   0  0  1  0  0  3  0  0  0  0  0  0
  161.2330  210.1310  156.1550 C   0  0  0  0  0  2  0  0  0  0  0  0
  157.5190  214.0970  151.4220 Cl  0  0  0  0  0  0  0  0  0  0  0  0
  160.7110  208.4950  154.1750 C   0  0  1  0  0  3  0  0  0  0  0  0
  161.0450  207.3070  155.0720 C   0  0  0  0  0  2  0  0  0  0  0  0
  160.7650  211.3020  151.1790 N   0  0  0  0  0  2  0  0  0  0  0  0
  159.2660  212.3850  152.7080 C   0  0  0  0  0  0  0  0  0  0  0  0
  158.0020  212.9970  152.7030 C   0  0  0  0  0  0  0  0  0  0  0  0
  161.9370  208.6330  150.5980 C   0  0  0  0  0  2  0  0  0  0  0  0
  162.5850  206.3550  151.4380 C   0  0  0  0  0  1  0  0  0  0  0  0
  161.7420  207.1270  150.4360 C   0  0  2  0  0  3  0  0  0  0  0  0
  162.1780  207.8440  148.0550 C   0  0  0  0  0  1  0  0  0  0  0  0
  162.0100  206.6500  148.9990 C   0  0  2  0  0  3  0  0  0  0  0  0
  160.4160  206.2090  147.2490 C   0  0  0  0  0  1  0  0  0  0  0  0
  160.9500  205.7400  148.5250 N   0  0  0  0  0  0  0  0  0  0  0  0
  161.4470  204.3650  148.3420 C   0  0  0  0  0  2  0  0  0  0  0  0
  160.7880  203.3560  149.2400 C   0  0  0  0  0  0  0  0  0  0  0  0
  160.4190  203.6880  150.3960 O   0  0  0  0  0  1  0  0  0  0  0  0
  160.5770  202.0580  148.7940 O   0  0  0  0  0  0  0  0  0  0  0  0
  1  9  1  0  0  0  0
  2  3  1  6  0  0  0
  2  5  1  0  0  0  0
  3  7  1  0  0  0  0
  4  7  2  0  0  0  0
  5 14  1  1  0  0  0
  6  9  1  0  0  0  0
  8 13  1  0  0  0  0
  8 12  2  0  0  0  0
 10 19  1  0  0  0  0
 11  4  1  0  0  0  0
 12 16  1  0  0  0  0
 13 18  1  6  0  0  0
 13  2  1  0  0  0  0
 14  1  1  0  0  0  0
 15 20  1  0  0  0  0
 16  5  1  0  0  0  0
 16 17  1  1  0  0  0
 17  6  1  0  0  0  0
 18 10  1  0  0  0  0
 19  3  2  0  0  0  0
 20 19  1  0  0  0  0
 20 11  2  0  0  0  0
 21  8  1  0  0  0  0
 23 21  1  0  0  0  0
 23 22  1  1  0  0  0
 25 24  1  6  0  0  0
 25 23  1  0  0  0  0
 26 27  1  0  0  0  0
 27 25  1  0  0  0  0
 28 27  1  0  0  0  0
 28 29  1  0  0  0  0
 29 30  1  0  0  0  0
 31 29  2  0  0  0  0
M  END
>  <MODEL>
2

>  <REMARK>
 VINA RESULT:      -7.1      1.917      2.587
  Name = 
  6 active torsions:
  status: ('A' for Active; 'I' for Inactive)
    1  A    between atoms: C_1  and  C_24
    2  A    between atoms: C_9  and  C_22
    3  A    between atoms: C_9  and  C_23
    4  A    between atoms: C_15  and  C_23
    5  A    between atoms: N_19  and  C_22
    6  A    between atoms: N_19  and  C_24
                            x       y       z     vdW  Elec       q    Type
                         _______ _______ _______ _____ _____    ______ ____

>  <TORSDO>
F 6

$$$$
=
 OpenBabel11052422423D

 31 34  0  0  1  0  0  0  0  0999 V2000
  161.4510  206.0700  153.3330 O   0  0  0  0  0  0  0  0  0  0  0  0
  162.4910  207.6570  150.4780 C   0  0  1  0  0  3  0  0  0  0  0  0
  161.6340  208.7770  151.0420 C   0  0  0  0  0  0  0  0  0  0  0  0
  160.1880  209.7620  152.7280 C   0  0  0  0  0  3  0  0  0  0  0  0
  162.3060  206.2510  151.0620 C   0  0  1  0  0  3  0  0  0  0  0  0
  160.1730  204.2340  152.4860 C   0  0  0  0  0  2  0  0  0  0  0  0
  160.9070  208.6690  152.2350 C   0  0  0  0  0  3  0  0  0  0  0  0
  161.5760  206.4870  148.3630 C   0  0  0  0  0  0  0  0  0  0  0  0
  161.1920  204.7080  153.5130 C   0  0  0  0  0  2  0  0  0  0  0  0
  162.4060  210.0530  149.0730 C   0  0  0  0  0  2  0  0  0  0  0  0
  160.1980  210.9750  152.0350 C   0  0  0  0  0  3  0  0  0  0  0  0
  160.9760  205.6240  149.1180 N   0  0  0  0  0  0  0  0  0  0  0  0
  162.4360  207.6100  148.9190 C   0  0  1  0  0  3  0  0  0  0  0  0
  162.6180  206.1240  152.5620 C   0  0  0  0  0  2  0  0  0  0  0  0
  160.9100  212.6380  150.0010 Cl  0  0  0  0  0  0  0  0  0  0  0  0
  160.9860  205.6510  150.5670 C   0  0  1  0  0  3  0  0  0  0  0  0
  160.7690  204.2320  151.0840 C   0  0  0  0  0  2  0  0  0  0  0  0
  162.0550  208.8830  148.2700 N   0  0  0  0  0  2  0  0  0  0  0  0
  161.6430  209.9980  150.3550 C   0  0  0  0  0  0  0  0  0  0  0  0
  160.9260  211.1000  150.8470 C   0  0  0  0  0  0  0  0  0  0  0  0
  161.4960  206.3170  146.8770 C   0  0  0  0  0  2  0  0  0  0  0  0
  163.4750  205.2110  145.7940 C   0  0  0  0  0  1  0  0  0  0  0  0
  162.1190  204.9920  146.4450 C   0  0  2  0  0  3  0  0  0  0  0  0
  160.1040  205.0680  144.9260 C   0  0  0  0  0  1  0  0  0  0  0  0
  161.1900  204.1750  145.5310 C   0  0  2  0  0  3  0  0  0  0  0  0
  160.4690  201.8850  145.3500 C   0  0  0  0  0  1  0  0  0  0  0  0
  160.6000  203.0290  146.2490 N   0  0  0  0  0  0  0  0  0  0  0  0
  161.4200  202.6200  147.4030 C   0  0  0  0  0  2  0  0  0  0  0  0
  160.8190  201.5050  148.2120 C   0  0  0  0  0  0  0  0  0  0  0  0
  159.7600  201.6990  148.8620 O   0  0  0  0  0  1  0  0  0  0  0  0
  161.4260  200.2560  148.2360 O   0  0  0  0  0  0  0  0  0  0  0  0
  1  9  1  0  0  0  0
  2  3  1  1  0  0  0
  2  5  1  0  0  0  0
  3  7  1  0  0  0  0
  5 14  1  1  0  0  0
  6  9  1  0  0  0  0
  7  4  2  0  0  0  0
  8 13  1  0  0  0  0
  8 12  2  0  0  0  0
 10 19  1  0  0  0  0
 11  4  1  0  0  0  0
 12 16  1  0  0  0  0
 13 18  1  1  0  0  0
 13  2  1  0  0  0  0
 14  1  1  0  0  0  0
 15 20  1  0  0  0  0
 16  5  1  0  0  0  0
 16 17  1  1  0  0  0
 17  6  1  0  0  0  0
 18 10  1  0  0  0  0
 19 20  1  0  0  0  0
 19  3  2  0  0  0  0
 20 11  2  0  0  0  0
 21  8  1  0  0  0  0
 23 22  1  6  0  0  0
 23 21  1  0  0  0  0
 25 24  1  1  0  0  0
 25 27  1  0  0  0  0
 25 23  1  0  0  0  0
 26 27  1  0  0  0  0
 27 28  1  0  0  0  0
 28 29  1  0  0  0  0
 29 31  2  0  0  0  0
 29 30  1  0  0  0  0
M  END
>  <MODEL>
3

>  <REMARK>
 VINA RESULT:      -7.0      2.600      4.066
  Name = 
  6 active torsions:
  status: ('A' for Active; 'I' for Inactive)
    1  A    between atoms: C_1  and  C_24
    2  A    between atoms: C_9  and  C_22
    3  A    between atoms: C_9  and  C_23
    4  A    between atoms: C_15  and  C_23
    5  A    between atoms: N_19  and  C_22
    6  A    between atoms: N_19  and  C_24
                            x       y       z     vdW  Elec       q    Type
                         _______ _______ _______ _____ _____    ______ ____

>  <TORSDO>
F 6

$$$$
=
 OpenBabel11052422423D

 31 34  0  0  1  0  0  0  0  0999 V2000
  162.0280  210.6630  149.5990 O   0  0  0  0  0  0  0  0  0  0  0  0
  161.8800  208.9510  152.5650 C   0  0  1  0  0  3  0  0  0  0  0  0
  161.4400  207.8230  151.6480 C   0  0  0  0  0  0  0  0  0  0  0  0
  160.9360  206.8710  149.4710 C   0  0  0  0  0  3  0  0  0  0  0  0
  161.8460  210.3800  152.0090 C   0  0  1  0  0  3  0  0  0  0  0  0
  160.3660  212.3590  149.8790 C   0  0  0  0  0  2  0  0  0  0  0  0
  161.2840  207.9680  150.2640 C   0  0  0  0  0  3  0  0  0  0  0  0
  160.0580  209.9200  154.1210 C   0  0  0  0  0  0  0  0  0  0  0  0
  161.7590  212.0170  149.3740 C   0  0  0  0  0  2  0  0  0  0  0  0
  161.4010  206.4650  153.7120 C   0  0  0  0  0  2  0  0  0  0  0  0
  160.7500  205.6160  150.0570 C   0  0  0  0  0  3  0  0  0  0  0  0
  159.7680  210.7950  153.2130 N   0  0  0  0  0  0  0  0  0  0  0  0
  161.1620  208.8900  153.9500 C   0  0  1  0  0  3  0  0  0  0  0  0
  162.7560  210.6260  150.7940 C   0  0  0  0  0  2  0  0  0  0  0  0
  160.6610  203.8650  152.1390 Cl  0  0  0  0  0  0  0  0  0  0  0  0
  160.3960  210.8660  151.9100 C   0  0  1  0  0  3  0  0  0  0  0  0
  160.3050  212.3020  151.4010 C   0  0  0  0  0  2  0  0  0  0  0  0
  160.6470  207.5560  154.3260 N   0  0  0  0  0  2  0  0  0  0  0  0
  161.2560  206.5620  152.2290 C   0  0  0  0  0  0  0  0  0  0  0  0
  160.9090  205.4550  151.4370 C   0  0  0  0  0  0  0  0  0  0  0  0
  159.3390  209.9840  155.4340 C   0  0  0  0  0  2  0  0  0  0  0  0
  159.9850  211.5850  157.2600 C   0  0  0  0  0  1  0  0  0  0  0  0
  159.2510  211.4230  155.9390 C   0  0  2  0  0  3  0  0  0  0  0  0
  156.8200  210.8330  155.6000 C   0  0  0  0  0  1  0  0  0  0  0  0
  157.8000  211.9230  156.0430 C   0  0  2  0  0  3  0  0  0  0  0  0
  158.8900  213.7460  154.9110 C   0  0  0  0  0  1  0  0  0  0  0  0
  157.6000  213.1650  155.2740 N   0  0  0  0  0  0  0  0  0  0  0  0
  156.8340  212.9300  154.0380 C   0  0  0  0  0  2  0  0  0  0  0  0
  155.5690  213.7360  153.9430 C   0  0  0  0  0  0  0  0  0  0  0  0
  155.0170  213.9140  152.8260 O   0  0  0  0  0  0  0  0  0  0  0  0
  155.0020  214.2790  155.0890 O   0  0  0  0  0  1  0  0  0  0  0  0
  1 14  1  0  0  0  0
  2  3  1  6  0  0  0
  2 13  1  0  0  0  0
  3 19  1  0  0  0  0
  4 11  2  0  0  0  0
  4  7  1  0  0  0  0
  5 14  1  6  0  0  0
  5  2  1  0  0  0  0
  6 17  1  0  0  0  0
  7  3  2  0  0  0  0
  8 21  1  0  0  0  0
  9  1  1  0  0  0  0
  9  6  1  0  0  0  0
 10 18  1  0  0  0  0
 11 20  1  0  0  0  0
 12  8  2  0  0  0  0
 13  8  1  6  0  0  0
 13 18  1  0  0  0  0
 16 17  1  1  0  0  0
 16  5  1  0  0  0  0
 16 12  1  0  0  0  0
 19 10  1  0  0  0  0
 20 15  1  0  0  0  0
 20 19  2  0  0  0  0
 21 23  1  0  0  0  0
 23 25  1  0  0  0  0
 23 22  1  1  0  0  0
 25 24  1  6  0  0  0
 26 27  1  0  0  0  0
 27 25  1  0  0  0  0
 28 27  1  0  0  0  0
 29 28  1  0  0  0  0
 29 31  1  0  0  0  0
 30 29  2  0  0  0  0
M  END
>  <MODEL>
4

>  <REMARK>
 VINA RESULT:      -6.0      3.562      7.924
  Name = 
  6 active torsions:
  status: ('A' for Active; 'I' for Inactive)
    1  A    between atoms: C_1  and  C_24
    2  A    between atoms: C_9  and  C_22
    3  A    between atoms: C_9  and  C_23
    4  A    between atoms: C_15  and  C_23
    5  A    between atoms: N_19  and  C_22
    6  A    between atoms: N_19  and  C_24
                            x       y       z     vdW  Elec       q    Type
                         _______ _______ _______ _____ _____    ______ ____

>  <TORSDO>
F 6

$$$$
=
 OpenBabel11052422423D

 31 34  0  0  1  0  0  0  0  0999 V2000
  161.4600  203.8090  152.7450 O   0  0  0  0  0  0  0  0  0  0  0  0
  162.3070  206.6450  151.0150 C   0  0  1  0  0  3  0  0  0  0  0  0
  161.5940  207.3120  152.1780 C   0  0  0  0  0  0  0  0  0  0  0  0
  160.4040  207.2840  154.2960 C   0  0  0  0  0  3  0  0  0  0  0  0
  162.0860  205.1420  150.8070 C   0  0  1  0  0  3  0  0  0  0  0  0
  159.9760  202.6910  151.2410 C   0  0  0  0  0  2  0  0  0  0  0  0
  160.9900  206.6040  153.2240 C   0  0  0  0  0  3  0  0  0  0  0  0
  161.0970  206.7530  148.7340 C   0  0  0  0  0  0  0  0  0  0  0  0
  161.1260  202.5550  152.2270 C   0  0  0  0  0  2  0  0  0  0  0  0
  162.2450  209.4230  151.0710 C   0  0  0  0  0  2  0  0  0  0  0  0
  160.4270  208.6800  154.3340 C   0  0  0  0  0  3  0  0  0  0  0  0
  160.5200  205.6260  149.0030 N   0  0  0  0  0  0  0  0  0  0  0  0
  162.0880  207.4170  149.6760 C   0  0  1  0  0  3  0  0  0  0  0  0
  162.5420  204.2500  151.9740 C   0  0  0  0  0  2  0  0  0  0  0  0
  161.0390  211.1550  153.3790 Cl  0  0  0  0  0  0  0  0  0  0  0  0
  160.6820  204.8950  150.2430 C   0  0  1  0  0  3  0  0  0  0  0  0
  160.4220  203.4160  149.9760 C   0  0  0  0  0  2  0  0  0  0  0  0
  161.7310  208.8430  149.8310 N   0  0  0  0  0  2  0  0  0  0  0  0
  161.6180  208.7120  152.2250 C   0  0  0  0  0  0  0  0  0  0  0  0
  161.0340  209.4010  153.3000 C   0  0  0  0  0  0  0  0  0  0  0  0
  160.8520  207.3820  147.3970 C   0  0  0  0  0  2  0  0  0  0  0  0
  160.1320  206.2480  145.2730 C   0  0  0  0  0  1  0  0  0  0  0  0
  161.2660  206.4430  146.2670 C   0  0  2  0  0  3  0  0  0  0  0  0
  163.3200  205.0960  146.8490 C   0  0  0  0  0  1  0  0  0  0  0  0
  161.7900  205.0930  146.7850 C   0  0  2  0  0  3  0  0  0  0  0  0
  162.2060  203.7110  144.8580 C   0  0  0  0  0  1  0  0  0  0  0  0
  161.2920  203.9710  145.9670 N   0  0  0  0  0  0  0  0  0  0  0  0
  161.1570  202.7330  146.7560 C   0  0  0  0  0  2  0  0  0  0  0  0
  160.6720  201.5540  145.9600 C   0  0  0  0  0  0  0  0  0  0  0  0
  159.8340  201.7200  145.0360 O   0  0  0  0  0  0  0  0  0  0  0  0
  161.1550  200.2820  146.2350 O   0  0  0  0  0  1  0  0  0  0  0  0
  2  3  1  1  0  0  0
  3 19  2  0  0  0  0
  3  7  1  0  0  0  0
  4 11  1  0  0  0  0
  5  2  1  0  0  0  0
  5 14  1  1  0  0  0
  6  9  1  0  0  0  0
  7  4  2  0  0  0  0
  8 12  2  0  0  0  0
  9  1  1  0  0  0  0
 10 19  1  0  0  0  0
 12 16  1  0  0  0  0
 13  8  1  1  0  0  0
 13 18  1  0  0  0  0
 13  2  1  0  0  0  0
 14  1  1  0  0  0  0
 16 17  1  6  0  0  0
 16  5  1  0  0  0  0
 17  6  1  0  0  0  0
 18 10  1  0  0  0  0
 19 20  1  0  0  0  0
 20 15  1  0  0  0  0
 20 11  2  0  0  0  0
 21  8  1  0  0  0  0
 23 22  1  6  0  0  0
 23 25  1  0  0  0  0
 23 21  1  0  0  0  0
 25 24  1  6  0  0  0
 26 27  1  0  0  0  0
 27 28  1  0  0  0  0
 27 25  1  0  0  0  0
 29 31  1  0  0  0  0
 29 28  1  0  0  0  0
 30 29  2  0  0  0  0
M  END
>  <MODEL>
5

>  <REMARK>
 VINA RESULT:      -5.8      2.714      4.821
  Name = 
  6 active torsions:
  status: ('A' for Active; 'I' for Inactive)
    1  A    between atoms: C_1  and  C_24
    2  A    between atoms: C_9  and  C_22
    3  A    between atoms: C_9  and  C_23
    4  A    between atoms: C_15  and  C_23
    5  A    between atoms: N_19  and  C_22
    6  A    between atoms: N_19  and  C_24
                            x       y       z     vdW  Elec       q    Type
                         _______ _______ _______ _____ _____    ______ ____

>  <TORSDO>
F 6

$$$$
=
 OpenBabel11052422423D

 31 34  0  0  1  0  0  0  0  0999 V2000
  162.1220  210.1690  149.3220 O   0  0  0  0  0  0  0  0  0  0  0  0
  162.2700  207.6490  151.6430 C   0  0  1  0  0  3  0  0  0  0  0  0
  161.6430  206.8560  150.5090 C   0  0  0  0  0  0  0  0  0  0  0  0
  160.7940  206.6090  148.2470 C   0  0  0  0  0  3  0  0  0  0  0  0
  162.2490  209.1790  151.5420 C   0  0  1  0  0  3  0  0  0  0  0  0
  160.6180  211.7320  150.3290 C   0  0  0  0  0  2  0  0  0  0  0  0
  161.3120  207.4120  149.2670 C   0  0  0  0  0  3  0  0  0  0  0  0
  160.7360  208.1390  153.6640 C   0  0  0  0  0  0  0  0  0  0  0  0
  161.9080  211.5320  149.5470 C   0  0  0  0  0  2  0  0  0  0  0  0
  161.8000  204.9420  152.0640 C   0  0  0  0  0  2  0  0  0  0  0  0
  160.6120  205.2400  148.4590 C   0  0  0  0  0  3  0  0  0  0  0  0
  160.3800  209.2520  153.1060 N   0  0  0  0  0  0  0  0  0  0  0  0
  161.7430  207.1880  153.0380 C   0  0  1  0  0  3  0  0  0  0  0  0
  163.0000  209.7620  150.3340 C   0  0  0  0  0  2  0  0  0  0  0  0
  160.6980  202.9470  149.9230 Cl  0  0  0  0  0  0  0  0  0  0  0  0
  160.8310  209.6990  151.8040 C   0  0  1  0  0  3  0  0  0  0  0  0
  160.7600  211.2220  151.7590 C   0  0  0  0  0  2  0  0  0  0  0  0
  161.2030  205.8130  153.0760 N   0  0  0  0  0  2  0  0  0  0  0  0
  161.4620  205.4820  150.7140 C   0  0  0  0  0  0  0  0  0  0  0  0
  160.9460  204.6700  149.6910 C   0  0  0  0  0  0  0  0  0  0  0  0
  160.2050  207.8200  155.0280 C   0  0  0  0  0  2  0  0  0  0  0  0
  161.3540  207.6340  157.2550 C   0  0  0  0  0  1  0  0  0  0  0  0
  160.9910  208.5620  156.1070 C   0  0  2  0  0  3  0  0  0  0  0  0
  158.8510  209.8970  156.0140 C   0  0  0  0  0  1  0  0  0  0  0  0
  160.2560  209.8130  156.6160 C   0  0  2  0  0  3  0  0  0  0  0  0
  162.3240  210.7030  155.7610 C   0  0  0  0  0  1  0  0  0  0  0  0
  161.0270  211.0410  156.3420 N   0  0  0  0  0  0  0  0  0  0  0  0
  160.3210  211.9380  155.4100 C   0  0  0  0  0  2  0  0  0  0  0  0
  159.7100  213.1420  156.0700 C   0  0  0  0  0  0  0  0  0  0  0  0
  158.5240  213.4700  155.8080 O   0  0  0  0  0  0  0  0  0  0  0  0
  160.4500  213.8900  156.9760 O   0  0  0  0  0  1  0  0  0  0  0  0
  1  9  1  0  0  0  0
  1 14  1  0  0  0  0
  2  3  1  6  0  0  0
  2 13  1  0  0  0  0
  3 19  1  0  0  0  0
  4 11  2  0  0  0  0
  4  7  1  0  0  0  0
  5 14  1  6  0  0  0
  5  2  1  0  0  0  0
  5 16  1  0  0  0  0
  6 17  1  0  0  0  0
  7  3  2  0  0  0  0
  8 21  1  0  0  0  0
  9  6  1  0  0  0  0
 10 18  1  0  0  0  0
 11 20  1  0  0  0  0
 12  8  2  0  0  0  0
 13 18  1  6  0  0  0
 13  8  1  0  0  0  0
 16 17  1  1  0  0  0
 16 12  1  0  0  0  0
 19 10  1  0  0  0  0
 20 15  1  0  0  0  0
 20 19  2  0  0  0  0
 21 23  1  0  0  0  0
 23 25  1  0  0  0  0
 23 22  1  1  0  0  0
 25 24  1  6  0  0  0
 26 27  1  0  0  0  0
 27 25  1  0  0  0  0
 28 29  1  0  0  0  0
 28 27  1  0  0  0  0
 29 31  1  0  0  0  0
 30 29  2  0  0  0  0
M  END
>  <MODEL>
6

>  <REMARK>
 VINA RESULT:      -5.6      2.919      7.600
  Name = 
  6 active torsions:
  status: ('A' for Active; 'I' for Inactive)
    1  A    between atoms: C_1  and  C_24
    2  A    between atoms: C_9  and  C_22
    3  A    between atoms: C_9  and  C_23
    4  A    between atoms: C_15  and  C_23
    5  A    between atoms: N_19  and  C_22
    6  A    between atoms: N_19  and  C_24
                            x       y       z     vdW  Elec       q    Type
                         _______ _______ _______ _____ _____    ______ ____

>  <TORSDO>
F 6

$$$$
=
 OpenBabel11052422423D

 31 34  0  0  1  0  0  0  0  0999 V2000
  160.6410  202.2450  150.1540 O   0  0  0  0  0  0  0  0  0  0  0  0
  160.3900  205.4670  149.0100 C   0  0  1  0  0  3  0  0  0  0  0  0
  161.0430  204.8570  147.7820 C   0  0  0  0  0  0  0  0  0  0  0  0
  161.9610  203.0020  146.5100 C   0  0  0  0  0  3  0  0  0  0  0  0
  160.4310  204.6640  150.3160 C   0  0  1  0  0  3  0  0  0  0  0  0
  162.1290  202.4550  152.0140 C   0  0  0  0  0  2  0  0  0  0  0  0
  161.4200  203.5110  147.6940 C   0  0  0  0  0  3  0  0  0  0  0  0
  161.8630  207.0760  150.3950 C   0  0  0  0  0  0  0  0  0  0  0  0
  160.8630  201.8140  151.4650 C   0  0  0  0  0  2  0  0  0  0  0  0
  160.8140  207.1200  146.8160 C   0  0  0  0  0  2  0  0  0  0  0  0
  162.1200  203.8350  145.4000 C   0  0  0  0  0  3  0  0  0  0  0  0
  162.2490  206.0750  151.1200 N   0  0  0  0  0  0  0  0  0  0  0  0
  160.8660  206.9330  149.2570 C   0  0  1  0  0  3  0  0  0  0  0  0
  159.7260  203.2990  150.2630 C   0  0  0  0  0  2  0  0  0  0  0  0
  161.9610  206.1970  144.0560 Cl  0  0  0  0  0  0  0  0  0  0  0  0
  161.8460  204.7010  150.9040 C   0  0  1  0  0  3  0  0  0  0  0  0
  161.9370  203.9510  152.2300 C   0  0  0  0  0  2  0  0  0  0  0  0
  161.3890  207.6270  148.0610 N   0  0  0  0  0  2  0  0  0  0  0  0
  161.2010  205.6860  146.6640 C   0  0  0  0  0  0  0  0  0  0  0  0
  161.7410  205.1790  145.4700 C   0  0  0  0  0  0  0  0  0  0  0  0
  162.3460  208.4480  150.7530 C   0  0  0  0  0  2  0  0  0  0  0  0
  161.2320  210.6510  151.2220 C   0  0  0  0  0  1  0  0  0  0  0  0
  161.3170  209.1830  151.6090 C   0  0  2  0  0  3  0  0  0  0  0  0
  160.8310  207.8020  153.6650 C   0  0  0  0  0  1  0  0  0  0  0  0
  161.5790  209.0200  153.1150 C   0  0  2  0  0  3  0  0  0  0  0  0
  159.9940  210.0380  154.6140 C   0  0  0  0  0  1  0  0  0  0  0  0
  161.2280  210.2440  153.8600 N   0  0  0  0  0  0  0  0  0  0  0  0
  162.2890  210.6350  154.8060 C   0  0  0  0  0  2  0  0  0  0  0  0
  162.0160  210.2300  156.2270 C   0  0  0  0  0  0  0  0  0  0  0  0
  162.3220  209.0750  156.6230 O   0  0  0  0  0  0  0  0  0  0  0  0
  161.4350  211.1310  157.1100 O   0  0  0  0  0  1  0  0  0  0  0  0
  1 14  1  0  0  0  0
  1  9  1  0  0  0  0
  2  3  1  6  0  0  0
  2 13  1  0  0  0  0
  2  5  1  0  0  0  0
  4  7  2  0  0  0  0
  5 14  1  6  0  0  0
  5 16  1  0  0  0  0
  6 17  1  0  0  0  0
  7  3  1  0  0  0  0
  8 21  1  0  0  0  0
  8 12  2  0  0  0  0
  9  6  1  0  0  0  0
 10 18  1  0  0  0  0
 11 20  2  0  0  0  0
 11  4  1  0  0  0  0
 13 18  1  6  0  0  0
 13  8  1  0  0  0  0
 15 20  1  0  0  0  0
 16 12  1  0  0  0  0
 16 17  1  1  0  0  0
 19 10  1  0  0  0  0
 19  3  2  0  0  0  0
 20 19  1  0  0  0  0
 21 23  1  0  0  0  0
 23 22  1  6  0  0  0
 23 25  1  0  0  0  0
 25 24  1  1  0  0  0
 25 27  1  0  0  0  0
 27 26  1  0  0  0  0
 27 28  1  0  0  0  0
 28 29  1  0  0  0  0
 29 30  2  0  0  0  0
 29 31  1  0  0  0  0
M  END
>  <MODEL>
7

>  <REMARK>
 VINA RESULT:      -5.3      2.784      7.831
  Name = 
  6 active torsions:
  status: ('A' for Active; 'I' for Inactive)
    1  A    between atoms: C_1  and  C_24
    2  A    between atoms: C_9  and  C_22
    3  A    between atoms: C_9  and  C_23
    4  A    between atoms: C_15  and  C_23
    5  A    between atoms: N_19  and  C_22
    6  A    between atoms: N_19  and  C_24
                            x       y       z     vdW  Elec       q    Type
                         _______ _______ _______ _____ _____    ______ ____

>  <TORSDO>
F 6

$$$$
=
 OpenBabel11052422423D

 31 34  0  0  1  0  0  0  0  0999 V2000
  162.7010  207.8270  148.4760 O   0  0  0  0  0  0  0  0  0  0  0  0
  162.3380  205.9050  151.2920 C   0  0  1  0  0  3  0  0  0  0  0  0
  161.6370  204.9790  150.3130 C   0  0  0  0  0  0  0  0  0  0  0  0
  160.8530  204.3570  148.0990 C   0  0  0  0  0  3  0  0  0  0  0  0
  162.5720  207.3580  150.8610 C   0  0  1  0  0  3  0  0  0  0  0  0
  161.4330  209.7860  149.0010 C   0  0  0  0  0  2  0  0  0  0  0  0
  161.4530  205.2830  148.9580 C   0  0  0  0  0  3  0  0  0  0  0  0
  160.8230  207.0650  153.0350 C   0  0  0  0  0  0  0  0  0  0  0  0
  162.7040  209.2220  148.3830 C   0  0  0  0  0  2  0  0  0  0  0  0
  161.4140  203.4660  152.2530 C   0  0  0  0  0  2  0  0  0  0  0  0
  160.4410  203.1150  148.5880 C   0  0  0  0  0  3  0  0  0  0  0  0
  160.6780  208.0630  152.2230 N   0  0  0  0  0  0  0  0  0  0  0  0
  161.6850  205.8560  152.7090 C   0  0  1  0  0  3  0  0  0  0  0  0
  163.4580  207.5320  149.6160 C   0  0  0  0  0  2  0  0  0  0  0  0
  160.0900  201.2270  150.5170 Cl  0  0  0  0  0  0  0  0  0  0  0  0
  161.2490  208.1300  150.8940 C   0  0  1  0  0  3  0  0  0  0  0  0
  161.4300  209.5970  150.5140 C   0  0  0  0  0  2  0  0  0  0  0  0
  160.9260  204.6230  153.0030 N   0  0  0  0  0  2  0  0  0  0  0  0
  161.2250  203.7310  150.7960 C   0  0  0  0  0  0  0  0  0  0  0  0
  160.6260  202.7950  149.9370 C   0  0  0  0  0  0  0  0  0  0  0  0
  160.1910  207.1460  154.3910 C   0  0  0  0  0  2  0  0  0  0  0  0
  160.7880  206.9610  156.8250 C   0  0  0  0  0  1  0  0  0  0  0  0
  161.2340  207.4630  155.4610 C   0  0  2  0  0  3  0  0  0  0  0  0
  162.1590  209.3330  156.8810 C   0  0  0  0  0  1  0  0  0  0  0  0
  161.5940  208.9570  155.5090 C   0  0  2  0  0  3  0  0  0  0  0  0
  159.9400  210.4940  156.3460 C   0  0  0  0  0  1  0  0  0  0  0  0
  160.4370  209.8030  155.1590 N   0  0  0  0  0  0  0  0  0  0  0  0
  160.7820  210.8150  154.1440 C   0  0  0  0  0  2  0  0  0  0  0  0
  159.6010  211.5890  153.6310 C   0  0  0  0  0  0  0  0  0  0  0  0
  158.8630  211.0950  152.7390 O   0  0  0  0  0  0  0  0  0  0  0  0
  159.3150  212.8470  154.1450 O   0  0  0  0  0  1  0  0  0  0  0  0
  1 14  1  0  0  0  0
  2  3  1  6  0  0  0
  2 13  1  0  0  0  0
  3 19  1  0  0  0  0
  4 11  2  0  0  0  0
  4  7  1  0  0  0  0
  5 14  1  6  0  0  0
  5 16  1  0  0  0  0
  5  2  1  0  0  0  0
  6 17  1  0  0  0  0
  7  3  2  0  0  0  0
  8 21  1  0  0  0  0
  9  1  1  0  0  0  0
  9  6  1  0  0  0  0
 10 18  1  0  0  0  0
 11 20  1  0  0  0  0
 12  8  2  0  0  0  0
 13 18  1  6  0  0  0
 13  8  1  0  0  0  0
 16 17  1  1  0  0  0
 16 12  1  0  0  0  0
 19 10  1  0  0  0  0
 20 15  1  0  0  0  0
 20 19  2  0  0  0  0
 21 23  1  0  0  0  0
 23 25  1  0  0  0  0
 23 22  1  1  0  0  0
 25 24  1  1  0  0  0
 27 25  1  0  0  0  0
 27 26  1  0  0  0  0
 28 27  1  0  0  0  0
 29 28  1  0  0  0  0
 29 31  1  0  0  0  0
 30 29  2  0  0  0  0
M  END
>  <MODEL>
8

>  <REMARK>
 VINA RESULT:      -5.3      3.004      7.639
  Name = 
  6 active torsions:
  status: ('A' for Active; 'I' for Inactive)
    1  A    between atoms: C_1  and  C_24
    2  A    between atoms: C_9  and  C_22
    3  A    between atoms: C_9  and  C_23
    4  A    between atoms: C_15  and  C_23
    5  A    between atoms: N_19  and  C_22
    6  A    between atoms: N_19  and  C_24
                            x       y       z     vdW  Elec       q    Type
                         _______ _______ _______ _____ _____    ______ ____

>  <TORSDO>
F 6

$$$$
=
 OpenBabel11052422423D

 31 34  0  0  1  0  0  0  0  0999 V2000
  161.5340  204.2040  146.6410 O   0  0  0  0  0  0  0  0  0  0  0  0
  162.6780  206.3170  149.0870 C   0  0  1  0  0  3  0  0  0  0  0  0
  161.8300  205.4150  149.9670 C   0  0  0  0  0  0  0  0  0  0  0  0
  160.3630  203.5160  150.3490 C   0  0  0  0  0  3  0  0  0  0  0  0
  162.4500  206.2580  147.5710 C   0  0  1  0  0  3  0  0  0  0  0  0
  160.2400  205.6540  145.2470 C   0  0  0  0  0  2  0  0  0  0  0  0
  161.0720  204.3450  149.4740 C   0  0  0  0  0  3  0  0  0  0  0  0
  161.7920  208.7200  148.7450 C   0  0  0  0  0  0  0  0  0  0  0  0
  161.2420  204.5110  145.3090 C   0  0  0  0  0  2  0  0  0  0  0  0
  162.6780  206.8090  151.8220 C   0  0  0  0  0  2  0  0  0  0  0  0
  160.4160  203.7470  151.7260 C   0  0  0  0  0  3  0  0  0  0  0  0
  161.1550  208.3200  147.6910 N   0  0  0  0  0  0  0  0  0  0  0  0
  162.6610  207.7970  149.5830 C   0  0  1  0  0  3  0  0  0  0  0  0
  162.7210  204.8900  146.9250 C   0  0  0  0  0  2  0  0  0  0  0  0
  161.2120  205.0690  153.9690 Cl  0  0  0  0  0  0  0  0  0  0  0  0
  161.1300  206.9520  147.2170 C   0  0  1  0  0  3  0  0  0  0  0  0
  160.8710  206.9610  145.7130 C   0  0  0  0  0  2  0  0  0  0  0  0
  162.3230  207.9720  151.0110 N   0  0  0  0  0  2  0  0  0  0  0  0
  161.8820  205.6370  151.3490 C   0  0  0  0  0  0  0  0  0  0  0  0
  161.1750  204.8060  152.2330 C   0  0  0  0  0  0  0  0  0  0  0  0
  161.7460  210.1750  149.1010 C   0  0  0  0  0  2  0  0  0  0  0  0
  163.2790  211.7580  147.8930 C   0  0  0  0  0  1  0  0  0  0  0  0
  161.9350  211.0470  147.8620 C   0  0  2  0  0  3  0  0  0  0  0  0
  160.7620  212.5660  146.2220 C   0  0  0  0  0  1  0  0  0  0  0  0
  160.7820  212.0450  147.6620 C   0  0  2  0  0  3  0  0  0  0  0  0
  161.2030  214.3980  147.9480 C   0  0  0  0  0  1  0  0  0  0  0  0
  160.8550  213.1550  148.6310 N   0  0  0  0  0  0  0  0  0  0  0  0
  159.5750  213.3550  149.3350 C   0  0  0  0  0  2  0  0  0  0  0  0
  159.7000  213.3610  150.8320 C   0  0  0  0  0  0  0  0  0  0  0  0
  159.4310  214.4050  151.4820 O   0  0  0  0  0  0  0  0  0  0  0  0
  160.1030  212.2140  151.5030 O   0  0  0  0  0  1  0  0  0  0  0  0
  1 14  1  0  0  0  0
  2 13  1  0  0  0  0
  2  3  1  1  0  0  0
  3 19  1  0  0  0  0
  4 11  2  0  0  0  0
  5 14  1  1  0  0  0
  5  2  1  0  0  0  0
  6  9  1  0  0  0  0
  6 17  1  0  0  0  0
  7  3  2  0  0  0  0
  7  4  1  0  0  0  0
  8 21  1  0  0  0  0
  9  1  1  0  0  0  0
 11 20  1  0  0  0  0
 12  8  2  0  0  0  0
 13  8  1  6  0  0  0
 13 18  1  0  0  0  0
 16 17  1  6  0  0  0
 16  5  1  0  0  0  0
 16 12  1  0  0  0  0
 18 10  1  0  0  0  0
 19 10  1  0  0  0  0
 19 20  2  0  0  0  0
 20 15  1  0  0  0  0
 23 22  1  1  0  0  0
 23 21  1  0  0  0  0
 25 24  1  6  0  0  0
 25 23  1  0  0  0  0
 25 27  1  0  0  0  0
 26 27  1  0  0  0  0
 27 28  1  0  0  0  0
 28 29  1  0  0  0  0
 29 30  2  0  0  0  0
 29 31  1  0  0  0  0
M  END
>  <MODEL>
9

>  <REMARK>
 VINA RESULT:      -5.1      3.279      8.104
  Name = 
  6 active torsions:
  status: ('A' for Active; 'I' for Inactive)
    1  A    between atoms: C_1  and  C_24
    2  A    between atoms: C_9  and  C_22
    3  A    between atoms: C_9  and  C_23
    4  A    between atoms: C_15  and  C_23
    5  A    between atoms: N_19  and  C_22
    6  A    between atoms: N_19  and  C_24
                            x       y       z     vdW  Elec       q    Type
                         _______ _______ _______ _____ _____    ______ ____

>  <TORSDO>
F 6

$$$$
