=
 OpenBabel11052422433D

 31 34  0  0  1  0  0  0  0  0999 V2000
  161.6920  202.1240  151.8170 C   0  0  1  0  0  3  0  0  0  0  0  0
  161.0070  205.8300  151.0770 C   0  0  0  0  0  0  0  0  0  0  0  0
  161.0520  206.6790  152.2090 C   0  0  0  0  0  0  0  0  0  0  0  0
  160.8610  207.0130  154.6110 C   0  0  0  0  0  3  0  0  0  0  0  0
  160.7320  204.3500  151.2510 C   0  0  2  0  0  3  0  0  0  0  0  0
  161.4220  201.6640  150.5160 O   0  0  0  0  0  0  0  0  0  0  0  0
  160.8130  206.1740  153.4970 C   0  0  0  0  0  3  0  0  0  0  0  0
  161.0970  205.5430  148.5330 C   0  0  1  0  0  3  0  0  0  0  0  0
  162.8050  201.4560  152.3240 O   0  0  0  0  0  1  0  0  0  0  0  0
  161.5630  208.5720  150.7700 C   0  0  0  0  0  3  0  0  0  0  0  0
  161.1470  208.3690  154.4530 C   0  0  0  0  0  3  0  0  0  0  0  0
  161.1320  204.0400  148.7990 C   0  0  0  0  0  2  0  0  0  0  0  0
  161.2550  206.3700  149.7910 C   0  0  0  0  0  0  0  0  0  0  0  0
  161.9700  203.6250  151.7880 C   0  0  0  0  0  2  0  0  0  0  0  0
  161.6850  210.3570  153.0700 C   0  0  0  0  0  1  0  0  0  0  0  0
  160.2170  203.6890  149.9630 C   0  0  1  0  0  3  0  0  0  0  0  0
  160.1580  202.1700  150.1570 C   0  0  0  0  0  2  0  0  0  0  0  0
  161.5100  207.7390  149.6560 C   0  0  0  0  0  3  0  0  0  0  0  0
  161.3390  208.0580  152.0510 C   0  0  0  0  0  0  0  0  0  0  0  0
  161.3860  208.8990  153.1830 C   0  0  0  0  0  0  0  0  0  0  0  0
  162.9600  205.8760  145.3930 O   0  0  0  0  0  0  0  0  0  0  0  0
  161.9770  205.6700  146.1550 C   0  0  0  0  0  0  0  0  0  0  0  0
  162.1300  205.8790  147.5600 N   0  0  0  0  0  2  0  0  0  0  0  0
  159.8780  206.3130  144.9230 C   0  0  0  0  0  1  0  0  0  0  0  0
  160.6740  205.1830  145.5850 C   0  0  1  0  0  3  0  0  0  0  0  0
  159.5920  203.5010  144.2280 C   0  0  0  0  0  1  0  0  0  0  0  0
  160.8690  204.0020  144.7260 N   0  0  0  0  0  0  0  0  0  0  0  0
  161.4800  202.9310  145.5060 C   0  0  0  0  0  2  0  0  0  0  0  0
  160.4280  201.9300  145.9530 C   0  0  2  0  0  3  0  0  0  0  0  0
  160.9070  201.2190  147.0520 O   0  0  0  0  0  1  0  0  0  0  0  0
  160.1220  200.9600  144.8290 C   0  0  0  0  0  1  0  0  0  0  0  0
  1  9  1  6  0  0  0
  2  5  1  0  0  0  0
  2  3  1  0  0  0  0
  3  7  1  0  0  0  0
  5 14  1  6  0  0  0
  6  1  1  0  0  0  0
  7  4  2  0  0  0  0
  8 23  1  6  0  0  0
  8 12  1  0  0  0  0
  8 13  1  0  0  0  0
 10 19  1  0  0  0  0
 11  4  1  0  0  0  0
 13  2  2  0  0  0  0
 14  1  1  0  0  0  0
 15 20  1  0  0  0  0
 16 12  1  6  0  0  0
 16 17  1  0  0  0  0
 16  5  1  0  0  0  0
 17  6  1  0  0  0  0
 18 13  1  0  0  0  0
 18 10  2  0  0  0  0
 19  3  2  0  0  0  0
 19 20  1  0  0  0  0
 20 11  2  0  0  0  0
 21 22  2  0  0  0  0
 22 23  1  0  0  0  0
 25 24  1  6  0  0  0
 25 22  1  0  0  0  0
 26 27  1  0  0  0  0
 27 28  1  0  0  0  0
 27 25  1  0  0  0  0
 28 29  1  0  0  0  0
 29 31  1  6  0  0  0
 29 30  1  0  0  0  0
M  END
>  <MODEL>
1

>  <REMARK>
 VINA RESULT:      -8.1      0.000      0.000
  Name = 
  5 active torsions:
  status: ('A' for Active; 'I' for Inactive)
    1  A    between atoms: C_1  and  C_24
    2  A    between atoms: C_9  and  C_22
    3  A    between atoms: C_15  and  N_23
    4  A    between atoms: N_19  and  C_22
    5  A    between atoms: N_19  and  C_24
                            x       y       z     vdW  Elec       q    Type
                         _______ _______ _______ _____ _____    ______ ____

>  <TORSDO>
F 5

$$$$
=
 OpenBabel11052422433D

 31 34  0  0  1  0  0  0  0  0999 V2000
  162.2140  204.7480  146.7140 C   0  0  1  0  0  3  0  0  0  0  0  0
  161.2330  206.8160  149.7980 C   0  0  0  0  0  0  0  0  0  0  0  0
  161.1310  206.0760  151.0000 C   0  0  0  0  0  0  0  0  0  0  0  0
  160.7650  203.9700  152.1630 C   0  0  0  0  0  3  0  0  0  0  0  0
  161.0870  206.1160  148.4630 C   0  0  2  0  0  3  0  0  0  0  0  0
  162.0670  205.7940  145.7850 O   0  0  0  0  0  0  0  0  0  0  0  0
  160.8620  204.6980  150.9770 C   0  0  0  0  0  3  0  0  0  0  0  0
  161.5030  209.0730  148.6160 C   0  0  1  0  0  3  0  0  0  0  0  0
  163.3520  204.0060  146.4010 O   0  0  0  0  0  1  0  0  0  0  0  0
  161.5500  208.1000  152.2830 C   0  0  0  0  0  3  0  0  0  0  0  0
  160.9330  204.6100  153.3910 C   0  0  0  0  0  3  0  0  0  0  0  0
  161.6620  208.2710  147.3260 C   0  0  0  0  0  2  0  0  0  0  0  0
  161.5080  208.2050  149.8560 C   0  0  0  0  0  0  0  0  0  0  0  0
  162.3530  205.3220  148.1220 C   0  0  0  0  0  2  0  0  0  0  0  0
  161.3670  206.6160  154.7850 C   0  0  0  0  0  1  0  0  0  0  0  0
  160.7140  207.0810  147.3270 C   0  0  1  0  0  3  0  0  0  0  0  0
  160.7850  206.3420  145.9860 C   0  0  0  0  0  2  0  0  0  0  0  0
  161.6420  208.8290  151.1020 C   0  0  0  0  0  3  0  0  0  0  0  0
  161.2980  206.7240  152.2500 C   0  0  0  0  0  0  0  0  0  0  0  0
  161.1980  205.9810  153.4450 C   0  0  0  0  0  0  0  0  0  0  0  0
  163.3560  212.2170  148.2750 O   0  0  0  0  0  0  0  0  0  0  0  0
  162.3650  211.4400  148.2980 C   0  0  0  0  0  0  0  0  0  0  0  0
  162.5580  210.0780  148.6850 N   0  0  0  0  0  2  0  0  0  0  0  0
  160.3750  212.8260  148.9720 C   0  0  0  0  0  1  0  0  0  0  0  0
  161.0070  211.9420  147.8910 C   0  0  1  0  0  3  0  0  0  0  0  0
  161.0330  214.0120  146.6450 C   0  0  0  0  0  1  0  0  0  0  0  0
  161.0370  212.5560  146.5520 N   0  0  0  0  0  0  0  0  0  0  0  0
  159.8420  212.1650  145.8130 C   0  0  0  0  0  2  0  0  0  0  0  0
  159.7910  212.8720  144.4690 C   0  0  2  0  0  3  0  0  0  0  0  0
  158.5020  213.3590  144.2550 O   0  0  0  0  0  1  0  0  0  0  0  0
  160.1480  211.9060  143.3580 C   0  0  0  0  0  1  0  0  0  0  0  0
  1  9  1  6  0  0  0
  1 14  1  0  0  0  0
  2 13  2  0  0  0  0
  2  3  1  0  0  0  0
  3 19  1  0  0  0  0
  4 11  2  0  0  0  0
  5 14  1  6  0  0  0
  5  2  1  0  0  0  0
  6 17  1  0  0  0  0
  6  1  1  0  0  0  0
  7  3  2  0  0  0  0
  7  4  1  0  0  0  0
  8 23  1  1  0  0  0
  8 13  1  0  0  0  0
 11 20  1  0  0  0  0
 12 16  1  0  0  0  0
 12  8  1  0  0  0  0
 13 18  1  0  0  0  0
 16 17  1  6  0  0  0
 16  5  1  0  0  0  0
 18 10  2  0  0  0  0
 19 10  1  0  0  0  0
 19 20  2  0  0  0  0
 20 15  1  0  0  0  0
 21 22  2  0  0  0  0
 22 23  1  0  0  0  0
 25 22  1  0  0  0  0
 25 24  1  1  0  0  0
 27 26  1  0  0  0  0
 27 25  1  0  0  0  0
 28 27  1  0  0  0  0
 29 31  1  6  0  0  0
 29 28  1  0  0  0  0
 30 29  1  0  0  0  0
M  END
>  <MODEL>
2

>  <REMARK>
 VINA RESULT:      -7.4      3.753      6.258
  Name = 
  5 active torsions:
  status: ('A' for Active; 'I' for Inactive)
    1  A    between atoms: C_1  and  C_24
    2  A    between atoms: C_9  and  C_22
    3  A    between atoms: C_15  and  N_23
    4  A    between atoms: N_19  and  C_22
    5  A    between atoms: N_19  and  C_24
                            x       y       z     vdW  Elec       q    Type
                         _______ _______ _______ _____ _____    ______ ____

>  <TORSDO>
F 5

$$$$
=
 OpenBabel11052422433D

 31 34  0  0  1  0  0  0  0  0999 V2000
  160.8090  209.3620  153.6460 C   0  0  1  0  0  3  0  0  0  0  0  0
  161.6690  207.2370  150.5650 C   0  0  0  0  0  0  0  0  0  0  0  0
  161.4240  205.8510  150.7130 C   0  0  0  0  0  0  0  0  0  0  0  0
  161.1650  203.8880  152.1270 C   0  0  0  0  0  3  0  0  0  0  0  0
  161.8870  208.1030  151.7890 C   0  0  2  0  0  3  0  0  0  0  0  0
  161.3120  210.5710  153.1330 O   0  0  0  0  0  0  0  0  0  0  0  0
  161.4100  205.2540  151.9840 C   0  0  0  0  0  3  0  0  0  0  0  0
  162.0550  209.2550  149.0350 C   0  0  1  0  0  3  0  0  0  0  0  0
  159.6110  209.6050  154.3170 O   0  0  0  0  0  1  0  0  0  0  0  0
  161.2170  205.6280  148.3000 C   0  0  0  0  0  3  0  0  0  0  0  0
  160.9320  203.0980  151.0010 C   0  0  0  0  0  3  0  0  0  0  0  0
  161.9500  210.1110  150.2950 C   0  0  0  0  0  2  0  0  0  0  0  0
  161.6740  207.8090  149.2680 C   0  0  0  0  0  0  0  0  0  0  0  0
  160.5610  208.3790  152.5040 C   0  0  0  0  0  2  0  0  0  0  0  0
  160.6890  202.7730  148.5540 C   0  0  0  0  0  1  0  0  0  0  0  0
  162.6260  209.4100  151.4640 C   0  0  1  0  0  3  0  0  0  0  0  0
  162.6270  210.3160  152.7000 C   0  0  0  0  0  2  0  0  0  0  0  0
  161.4670  206.9890  148.1530 C   0  0  0  0  0  3  0  0  0  0  0  0
  161.1890  205.0440  149.5700 C   0  0  0  0  0  0  0  0  0  0  0  0
  160.9420  203.6640  149.7250 C   0  0  0  0  0  0  0  0  0  0  0  0
  160.3930  211.6890  146.8540 O   0  0  0  0  0  0  0  0  0  0  0  0
  161.2230  211.2420  147.6900 C   0  0  0  0  0  0  0  0  0  0  0  0
  161.2270  209.8450  147.9890 N   0  0  0  0  0  2  0  0  0  0  0  0
  163.6230  211.9570  147.9430 C   0  0  0  0  0  1  0  0  0  0  0  0
  162.1720  212.1810  148.3820 C   0  0  1  0  0  3  0  0  0  0  0  0
  162.8140  214.4530  147.8650 C   0  0  0  0  0  1  0  0  0  0  0  0
  161.7200  213.5790  148.2770 N   0  0  0  0  0  0  0  0  0  0  0  0
  161.2660  214.0410  149.5840 C   0  0  0  0  0  2  0  0  0  0  0  0
  159.8810  213.4950  149.8900 C   0  0  2  0  0  3  0  0  0  0  0  0
  158.9250  214.4530  149.5560 O   0  0  0  0  0  1  0  0  0  0  0  0
  159.7640  213.1700  151.3660 C   0  0  0  0  0  1  0  0  0  0  0  0
  1  9  1  6  0  0  0
  2  3  1  0  0  0  0
  2  5  1  0  0  0  0
  3  7  1  0  0  0  0
  5 14  1  6  0  0  0
  6  1  1  0  0  0  0
  7  4  2  0  0  0  0
  8 23  1  6  0  0  0
  8 13  1  0  0  0  0
  8 12  1  0  0  0  0
 10 19  1  0  0  0  0
 11  4  1  0  0  0  0
 13  2  2  0  0  0  0
 14  1  1  0  0  0  0
 15 20  1  0  0  0  0
 16 12  1  6  0  0  0
 16  5  1  0  0  0  0
 16 17  1  0  0  0  0
 17  6  1  0  0  0  0
 18 10  2  0  0  0  0
 18 13  1  0  0  0  0
 19 20  1  0  0  0  0
 19  3  2  0  0  0  0
 20 11  2  0  0  0  0
 21 22  2  0  0  0  0
 22 23  1  0  0  0  0
 22 25  1  0  0  0  0
 25 24  1  6  0  0  0
 26 27  1  0  0  0  0
 27 25  1  0  0  0  0
 27 28  1  0  0  0  0
 28 29  1  0  0  0  0
 29 31  1  1  0  0  0
 30 29  1  0  0  0  0
M  END
>  <MODEL>
3

>  <REMARK>
 VINA RESULT:      -7.4      4.332      7.578
  Name = 
  5 active torsions:
  status: ('A' for Active; 'I' for Inactive)
    1  A    between atoms: C_1  and  C_24
    2  A    between atoms: C_9  and  C_22
    3  A    between atoms: C_15  and  N_23
    4  A    between atoms: N_19  and  C_22
    5  A    between atoms: N_19  and  C_24
                            x       y       z     vdW  Elec       q    Type
                         _______ _______ _______ _____ _____    ______ ____

>  <TORSDO>
F 5

$$$$
=
 OpenBabel11052422433D

 31 34  0  0  1  0  0  0  0  0999 V2000
  162.1460  210.9690  148.9840 C   0  0  1  0  0  3  0  0  0  0  0  0
  161.1110  208.0870  151.3030 C   0  0  0  0  0  0  0  0  0  0  0  0
  161.0730  206.8140  150.6860 C   0  0  0  0  0  0  0  0  0  0  0  0
  160.8460  205.4340  148.6950 C   0  0  0  0  0  3  0  0  0  0  0  0
  160.9790  209.3410  150.4620 C   0  0  2  0  0  3  0  0  0  0  0  0
  161.9240  211.9950  149.9200 O   0  0  0  0  0  0  0  0  0  0  0  0
  160.8800  206.6910  149.3000 C   0  0  0  0  0  3  0  0  0  0  0  0
  161.2320  209.4990  153.4380 C   0  0  1  0  0  3  0  0  0  0  0  0
  163.3170  211.2320  148.2760 O   0  0  0  0  0  1  0  0  0  0  0  0
  161.4030  205.7540  152.8500 C   0  0  0  0  0  3  0  0  0  0  0  0
  161.0010  204.2830  149.4660 C   0  0  0  0  0  3  0  0  0  0  0  0
  161.4110  210.7040  152.5170 C   0  0  0  0  0  2  0  0  0  0  0  0
  161.3090  208.1770  152.7030 C   0  0  0  0  0  0  0  0  0  0  0  0
  162.2790  209.6300  149.7060 C   0  0  0  0  0  2  0  0  0  0  0  0
  161.3500  203.1110  151.6240 C   0  0  0  0  0  1  0  0  0  0  0  0
  160.5310  210.5600  151.2840 C   0  0  1  0  0  3  0  0  0  0  0  0
  160.6180  211.8190  150.4160 C   0  0  0  0  0  2  0  0  0  0  0  0
  161.4320  207.0050  153.4580 C   0  0  0  0  0  3  0  0  0  0  0  0
  161.2270  205.6410  151.4670 C   0  0  0  0  0  0  0  0  0  0  0  0
  161.1910  204.3750  150.8460 C   0  0  0  0  0  0  0  0  0  0  0  0
  162.8300  209.9510  156.7060 O   0  0  0  0  0  0  0  0  0  0  0  0
  161.9010  209.7960  155.8690 C   0  0  0  0  0  0  0  0  0  0  0  0
  162.2310  209.5580  154.4990 N   0  0  0  0  0  2  0  0  0  0  0  0
  160.0810  208.7530  157.2610 C   0  0  0  0  0  1  0  0  0  0  0  0
  160.4670  209.8920  156.3120 C   0  0  1  0  0  3  0  0  0  0  0  0
  158.7600  211.3160  157.2600 C   0  0  0  0  0  1  0  0  0  0  0  0
  160.1500  211.2370  156.8250 N   0  0  0  0  0  0  0  0  0  0  0  0
  160.3270  212.2160  155.7580 C   0  0  0  0  0  2  0  0  0  0  0  0
  158.9790  212.7160  155.2650 C   0  0  2  0  0  3  0  0  0  0  0  0
  158.7640  212.2550  153.9670 O   0  0  0  0  0  1  0  0  0  0  0  0
  158.9540  214.2310  155.2640 C   0  0  0  0  0  1  0  0  0  0  0  0
  1  9  1  1  0  0  0
  1 14  1  0  0  0  0
  1  6  1  0  0  0  0
  2 13  1  0  0  0  0
  3  2  2  0  0  0  0
  3 19  1  0  0  0  0
  4  7  2  0  0  0  0
  4 11  1  0  0  0  0
  5 14  1  1  0  0  0
  5 16  1  0  0  0  0
  5  2  1  0  0  0  0
  6 17  1  0  0  0  0
  7  3  1  0  0  0  0
  8 23  1  1  0  0  0
 10 18  1  0  0  0  0
 11 20  2  0  0  0  0
 12  8  1  0  0  0  0
 13  8  1  0  0  0  0
 13 18  2  0  0  0  0
 16 17  1  6  0  0  0
 16 12  1  0  0  0  0
 19 10  2  0  0  0  0
 20 19  1  0  0  0  0
 20 15  1  0  0  0  0
 22 25  1  0  0  0  0
 22 21  2  0  0  0  0
 23 22  1  0  0  0  0
 25 27  1  0  0  0  0
 25 24  1  1  0  0  0
 27 26  1  0  0  0  0
 28 27  1  0  0  0  0
 29 31  1  6  0  0  0
 29 28  1  0  0  0  0
 30 29  1  0  0  0  0
M  END
>  <MODEL>
4

>  <REMARK>
 VINA RESULT:      -6.4      4.658      9.411
  Name = 
  5 active torsions:
  status: ('A' for Active; 'I' for Inactive)
    1  A    between atoms: C_1  and  C_24
    2  A    between atoms: C_9  and  C_22
    3  A    between atoms: C_15  and  N_23
    4  A    between atoms: N_19  and  C_22
    5  A    between atoms: N_19  and  C_24
                            x       y       z     vdW  Elec       q    Type
                         _______ _______ _______ _____ _____    ______ ____

>  <TORSDO>
F 5

$$$$
=
 OpenBabel11052422433D

 31 34  0  0  1  0  0  0  0  0999 V2000
  161.6370  204.6410  151.1190 C   0  0  1  0  0  3  0  0  0  0  0  0
  160.9790  208.2050  152.3900 C   0  0  0  0  0  0  0  0  0  0  0  0
  160.8370  208.3180  153.7940 C   0  0  0  0  0  0  0  0  0  0  0  0
  160.2880  207.3330  155.9500 C   0  0  0  0  0  3  0  0  0  0  0  0
  160.7170  206.8790  151.7060 C   0  0  2  0  0  3  0  0  0  0  0  0
  161.5720  204.9610  149.7510 O   0  0  0  0  0  0  0  0  0  0  0  0
  160.4240  207.2200  154.5660 C   0  0  0  0  0  3  0  0  0  0  0  0
  161.4470  209.3110  150.1270 C   0  0  1  0  0  3  0  0  0  0  0  0
  162.6800  203.7420  151.3370 O   0  0  0  0  0  1  0  0  0  0  0  0
  161.5080  210.6530  153.6750 C   0  0  0  0  0  3  0  0  0  0  0  0
  160.5610  208.5460  156.5820 C   0  0  0  0  0  3  0  0  0  0  0  0
  161.4800  207.8980  149.5500 C   0  0  0  0  0  2  0  0  0  0  0  0
  161.4000  209.3310  151.6400 C   0  0  0  0  0  0  0  0  0  0  0  0
  161.8800  205.9090  151.9360 C   0  0  0  0  0  2  0  0  0  0  0  0
  161.2490  210.9300  156.5650 C   0  0  0  0  0  1  0  0  0  0  0  0
  160.4120  207.0360  150.2080 C   0  0  1  0  0  3  0  0  0  0  0  0
  160.3620  205.6530  149.5500 C   0  0  0  0  0  2  0  0  0  0  0  0
  161.6390  210.5450  152.2940 C   0  0  0  0  0  3  0  0  0  0  0  0
  161.1110  209.5500  154.4390 C   0  0  0  0  0  0  0  0  0  0  0  0
  160.9710  209.6560  155.8390 C   0  0  0  0  0  0  0  0  0  0  0  0
  163.5370  211.7570  148.3680 O   0  0  0  0  0  0  0  0  0  0  0  0
  162.4930  211.2430  148.8530 C   0  0  0  0  0  0  0  0  0  0  0  0
  162.6040  210.0520  149.6360 N   0  0  0  0  0  2  0  0  0  0  0  0
  160.7560  212.8760  149.6600 C   0  0  0  0  0  1  0  0  0  0  0  0
  161.1520  211.8640  148.5790 C   0  0  1  0  0  3  0  0  0  0  0  0
  160.9210  213.8410  147.2070 C   0  0  0  0  0  1  0  0  0  0  0  0
  161.0720  212.3890  147.2050 N   0  0  0  0  0  0  0  0  0  0  0  0
  159.8970  211.8330  146.5420 C   0  0  0  0  0  2  0  0  0  0  0  0
  159.4630  212.7240  145.3900 C   0  0  2  0  0  3  0  0  0  0  0  0
  158.0730  212.8380  145.3960 O   0  0  0  0  0  1  0  0  0  0  0  0
  159.9060  212.1240  144.0710 C   0  0  0  0  0  1  0  0  0  0  0  0
  1  9  1  6  0  0  0
  1 14  1  0  0  0  0
  2  3  1  0  0  0  0
  3 19  2  0  0  0  0
  3  7  1  0  0  0  0
  4 11  1  0  0  0  0
  5 14  1  6  0  0  0
  5  2  1  0  0  0  0
  6  1  1  0  0  0  0
  7  4  2  0  0  0  0
  8 23  1  1  0  0  0
  8 13  1  0  0  0  0
 10 19  1  0  0  0  0
 12  8  1  0  0  0  0
 13 18  1  0  0  0  0
 13  2  2  0  0  0  0
 16 12  1  6  0  0  0
 16  5  1  0  0  0  0
 17  6  1  0  0  0  0
 17 16  1  0  0  0  0
 18 10  2  0  0  0  0
 19 20  1  0  0  0  0
 20 15  1  0  0  0  0
 20 11  2  0  0  0  0
 21 22  2  0  0  0  0
 22 23  1  0  0  0  0
 25 22  1  0  0  0  0
 25 24  1  1  0  0  0
 27 26  1  0  0  0  0
 27 25  1  0  0  0  0
 28 27  1  0  0  0  0
 29 31  1  6  0  0  0
 29 30  1  0  0  0  0
 29 28  1  0  0  0  0
M  END
>  <MODEL>
5

>  <REMARK>
 VINA RESULT:      -6.2      3.701      5.884
  Name = 
  5 active torsions:
  status: ('A' for Active; 'I' for Inactive)
    1  A    between atoms: C_1  and  C_24
    2  A    between atoms: C_9  and  C_22
    3  A    between atoms: C_15  and  N_23
    4  A    between atoms: N_19  and  C_22
    5  A    between atoms: N_19  and  C_24
                            x       y       z     vdW  Elec       q    Type
                         _______ _______ _______ _____ _____    ______ ____

>  <TORSDO>
F 5

$$$$
=
 OpenBabel11052422433D

 31 34  0  0  1  0  0  0  0  0999 V2000
  162.0690  211.2280  148.7200 C   0  0  1  0  0  3  0  0  0  0  0  0
  161.1910  208.4360  151.2070 C   0  0  0  0  0  0  0  0  0  0  0  0
  161.1130  207.1410  150.6410 C   0  0  0  0  0  0  0  0  0  0  0  0
  160.7550  205.6890  148.7220 C   0  0  0  0  0  3  0  0  0  0  0  0
  161.0030  209.6580  150.3320 C   0  0  2  0  0  3  0  0  0  0  0  0
  161.9090  212.2880  149.6300 O   0  0  0  0  0  0  0  0  0  0  0  0
  160.8290  206.9670  149.2770 C   0  0  0  0  0  3  0  0  0  0  0  0
  161.4540  209.9250  153.2760 C   0  0  1  0  0  3  0  0  0  0  0  0
  163.1910  211.4630  147.9260 O   0  0  0  0  0  1  0  0  0  0  0  0
  161.5870  206.1610  152.8170 C   0  0  0  0  0  3  0  0  0  0  0  0
  160.9620  204.5660  149.5230 C   0  0  0  0  0  3  0  0  0  0  0  0
  161.5700  211.0950  152.3020 C   0  0  0  0  0  2  0  0  0  0  0  0
  161.4820  208.5770  152.5870 C   0  0  0  0  0  0  0  0  0  0  0  0
  162.2510  209.9160  149.4810 C   0  0  0  0  0  2  0  0  0  0  0  0
  161.4530  203.4740  151.6950 C   0  0  0  0  0  1  0  0  0  0  0  0
  160.6110  210.9070  151.1360 C   0  0  1  0  0  3  0  0  0  0  0  0
  160.6390  212.1340  150.2180 C   0  0  0  0  0  2  0  0  0  0  0  0
  161.6550  207.4330  153.3750 C   0  0  0  0  0  3  0  0  0  0  0  0
  161.3190  205.9970  151.4540 C   0  0  0  0  0  0  0  0  0  0  0  0
  161.2430  204.7090  150.8830 C   0  0  0  0  0  0  0  0  0  0  0  0
  163.3150  210.7000  156.3370 O   0  0  0  0  0  0  0  0  0  0  0  0
  162.3190  210.5400  155.5820 C   0  0  0  0  0  0  0  0  0  0  0  0
  162.5200  210.0210  154.2660 N   0  0  0  0  0  2  0  0  0  0  0  0
  160.4440  212.2090  155.3970 C   0  0  0  0  0  1  0  0  0  0  0  0
  160.9450  210.9210  156.0590 C   0  0  1  0  0  3  0  0  0  0  0  0
  158.6690  210.2490  155.6030 C   0  0  0  0  0  1  0  0  0  0  0  0
  160.0070  209.7890  155.9620 N   0  0  0  0  0  0  0  0  0  0  0  0
  159.9050  209.1320  157.2600 C   0  0  0  0  0  2  0  0  0  0  0  0
  160.3890  207.6940  157.1690 C   0  0  2  0  0  3  0  0  0  0  0  0
  161.7400  207.6850  156.8230 O   0  0  0  0  0  1  0  0  0  0  0  0
  159.6010  206.9450  156.1140 C   0  0  0  0  0  1  0  0  0  0  0  0
  1  9  1  1  0  0  0
  1 14  1  0  0  0  0
  1  6  1  0  0  0  0
  2 13  1  0  0  0  0
  3  2  2  0  0  0  0
  3 19  1  0  0  0  0
  4  7  2  0  0  0  0
  4 11  1  0  0  0  0
  5 14  1  1  0  0  0
  5 16  1  0  0  0  0
  5  2  1  0  0  0  0
  6 17  1  0  0  0  0
  7  3  1  0  0  0  0
  8 23  1  1  0  0  0
 10 18  1  0  0  0  0
 11 20  2  0  0  0  0
 12  8  1  0  0  0  0
 13  8  1  0  0  0  0
 13 18  2  0  0  0  0
 16 17  1  6  0  0  0
 16 12  1  0  0  0  0
 19 10  2  0  0  0  0
 20 19  1  0  0  0  0
 20 15  1  0  0  0  0
 22 25  1  0  0  0  0
 22 21  2  0  0  0  0
 23 22  1  0  0  0  0
 25 24  1  6  0  0  0
 26 27  1  0  0  0  0
 27 25  1  0  0  0  0
 27 28  1  0  0  0  0
 29 31  1  6  0  0  0
 29 28  1  0  0  0  0
 30 29  1  0  0  0  0
M  END
>  <MODEL>
6

>  <REMARK>
 VINA RESULT:      -5.9      4.519      8.900
  Name = 
  5 active torsions:
  status: ('A' for Active; 'I' for Inactive)
    1  A    between atoms: C_1  and  C_24
    2  A    between atoms: C_9  and  C_22
    3  A    between atoms: C_15  and  N_23
    4  A    between atoms: N_19  and  C_22
    5  A    between atoms: N_19  and  C_24
                            x       y       z     vdW  Elec       q    Type
                         _______ _______ _______ _____ _____    ______ ____

>  <TORSDO>
F 5

$$$$
=
 OpenBabel11052422433D

 31 34  0  0  1  0  0  0  0  0999 V2000
  161.4650  206.4620  145.3450 C   0  0  1  0  0  3  0  0  0  0  0  0
  161.7250  206.4610  149.1760 C   0  0  0  0  0  0  0  0  0  0  0  0
  161.6680  207.7420  149.7750 C   0  0  0  0  0  0  0  0  0  0  0  0
  161.9780  210.1520  149.6490 C   0  0  0  0  0  3  0  0  0  0  0  0
  162.1580  206.3190  147.7320 C   0  0  2  0  0  3  0  0  0  0  0  0
  161.6950  205.0850  145.1830 O   0  0  0  0  0  0  0  0  0  0  0  0
  162.0390  208.8900  149.0560 C   0  0  0  0  0  3  0  0  0  0  0  0
  161.5010  203.9170  149.3880 C   0  0  1  0  0  3  0  0  0  0  0  0
  160.4590  206.8700  144.4700 O   0  0  0  0  0  1  0  0  0  0  0  0
  160.8780  206.7400  151.8460 C   0  0  0  0  0  3  0  0  0  0  0  0
  161.5480  210.2850  150.9690 C   0  0  0  0  0  3  0  0  0  0  0  0
  161.6340  203.8740  147.8680 C   0  0  0  0  0  2  0  0  0  0  0  0
  161.3410  205.3230  149.9280 C   0  0  0  0  0  0  0  0  0  0  0  0
  161.0360  206.7500  146.7820 C   0  0  0  0  0  2  0  0  0  0  0  0
  160.7250  209.3580  153.1180 C   0  0  0  0  0  1  0  0  0  0  0  0
  162.6530  204.9030  147.3990 C   0  0  1  0  0  3  0  0  0  0  0  0
  162.8760  204.7820  145.8880 C   0  0  0  0  0  2  0  0  0  0  0  0
  160.9420  205.4800  151.2610 C   0  0  0  0  0  3  0  0  0  0  0  0
  161.2340  207.8800  151.1180 C   0  0  0  0  0  0  0  0  0  0  0  0
  161.1750  209.1600  151.7090 C   0  0  0  0  0  0  0  0  0  0  0  0
  159.1260  201.1340  149.6100 O   0  0  0  0  0  0  0  0  0  0  0  0
  160.1830  201.7490  149.3050 C   0  0  0  0  0  0  0  0  0  0  0  0
  160.3790  203.0780  149.7920 N   0  0  0  0  0  2  0  0  0  0  0  0
  161.9950  200.0090  149.1500 C   0  0  0  0  0  1  0  0  0  0  0  0
  161.2030  201.0960  148.4150 C   0  0  1  0  0  3  0  0  0  0  0  0
  161.3080  199.4850  146.6150 C   0  0  0  0  0  1  0  0  0  0  0  0
  160.6030  200.6480  147.1460 N   0  0  0  0  0  0  0  0  0  0  0  0
  160.7160  201.7120  146.1540 C   0  0  0  0  0  2  0  0  0  0  0  0
  159.5890  201.6180  145.1400 C   0  0  2  0  0  3  0  0  0  0  0  0
  159.8690  200.5960  144.2340 O   0  0  0  0  0  1  0  0  0  0  0  0
  159.4550  202.9270  144.3870 C   0  0  0  0  0  1  0  0  0  0  0  0
  1  9  1  6  0  0  0
  1 14  1  0  0  0  0
  2  3  2  0  0  0  0
  2 13  1  0  0  0  0
  3 19  1  0  0  0  0
  4 11  1  0  0  0  0
  5 14  1  6  0  0  0
  5  2  1  0  0  0  0
  6  1  1  0  0  0  0
  6 17  1  0  0  0  0
  7  4  2  0  0  0  0
  7  3  1  0  0  0  0
  8 23  1  6  0  0  0
  8 13  1  0  0  0  0
 11 20  2  0  0  0  0
 12  8  1  0  0  0  0
 13 18  2  0  0  0  0
 16 17  1  6  0  0  0
 16  5  1  0  0  0  0
 16 12  1  0  0  0  0
 18 10  1  0  0  0  0
 19 20  1  0  0  0  0
 19 10  2  0  0  0  0
 20 15  1  0  0  0  0
 22 21  2  0  0  0  0
 22 23  1  0  0  0  0
 25 24  1  1  0  0  0
 25 22  1  0  0  0  0
 26 27  1  0  0  0  0
 27 25  1  0  0  0  0
 28 27  1  0  0  0  0
 29 31  1  6  0  0  0
 29 28  1  0  0  0  0
 30 29  1  0  0  0  0
M  END
>  <MODEL>
7

>  <REMARK>
 VINA RESULT:      -5.5      1.978      4.615
  Name = 
  5 active torsions:
  status: ('A' for Active; 'I' for Inactive)
    1  A    between atoms: C_1  and  C_24
    2  A    between atoms: C_9  and  C_22
    3  A    between atoms: C_15  and  N_23
    4  A    between atoms: N_19  and  C_22
    5  A    between atoms: N_19  and  C_24
                            x       y       z     vdW  Elec       q    Type
                         _______ _______ _______ _____ _____    ______ ____

>  <TORSDO>
F 5

$$$$
=
 OpenBabel11052422433D

 31 34  0  0  1  0  0  0  0  0999 V2000
  162.5440  208.6400  148.6160 C   0  0  1  0  0  3  0  0  0  0  0  0
  161.0410  205.7310  150.6230 C   0  0  0  0  0  0  0  0  0  0  0  0
  160.9900  204.4980  149.9310 C   0  0  0  0  0  0  0  0  0  0  0  0
  160.9110  203.2420  147.8480 C   0  0  0  0  0  3  0  0  0  0  0  0
  161.0980  207.0320  149.8490 C   0  0  2  0  0  3  0  0  0  0  0  0
  162.2820  209.6310  149.5790 O   0  0  0  0  0  0  0  0  0  0  0  0
  160.9580  204.4600  148.5280 C   0  0  0  0  0  3  0  0  0  0  0  0
  161.0010  207.0190  152.8380 C   0  0  1  0  0  3  0  0  0  0  0  0
  163.8080  208.8500  148.0670 O   0  0  0  0  0  1  0  0  0  0  0  0
  160.9830  203.3070  152.0520 C   0  0  0  0  0  3  0  0  0  0  0  0
  160.8920  202.0440  148.5620 C   0  0  0  0  0  3  0  0  0  0  0  0
  161.3720  208.2530  152.0180 C   0  0  0  0  0  2  0  0  0  0  0  0
  161.0750  205.7350  152.0400 C   0  0  0  0  0  0  0  0  0  0  0  0
  162.4970  207.2600  149.2680 C   0  0  0  0  0  2  0  0  0  0  0  0
  160.8960  200.7410  150.6730 C   0  0  0  0  0  1  0  0  0  0  0  0
  160.6390  208.2380  150.6840 C   0  0  1  0  0  3  0  0  0  0  0  0
  160.9170  209.5300  149.9090 C   0  0  0  0  0  2  0  0  0  0  0  0
  161.0240  204.5200  152.7330 C   0  0  0  0  0  3  0  0  0  0  0  0
  160.9680  203.2780  150.6540 C   0  0  0  0  0  0  0  0  0  0  0  0
  160.9200  202.0510  149.9590 C   0  0  0  0  0  0  0  0  0  0  0  0
  162.3630  207.5120  156.2050 O   0  0  0  0  0  0  0  0  0  0  0  0
  161.5120  207.5110  155.2750 C   0  0  0  0  0  0  0  0  0  0  0  0
  161.8660  206.9490  154.0100 N   0  0  0  0  0  2  0  0  0  0  0  0
  159.3120  207.3080  156.4810 C   0  0  0  0  0  1  0  0  0  0  0  0
  160.1570  208.1230  155.4960 C   0  0  1  0  0  3  0  0  0  0  0  0
  159.9680  209.7830  157.2440 C   0  0  0  0  0  1  0  0  0  0  0  0
  160.2600  209.5540  155.8320 N   0  0  0  0  0  0  0  0  0  0  0  0
  159.2760  210.3050  155.0600 C   0  0  0  0  0  2  0  0  0  0  0  0
  159.9660  211.2140  154.0570 C   0  0  2  0  0  3  0  0  0  0  0  0
  161.3440  211.1630  154.2620 O   0  0  0  0  0  1  0  0  0  0  0  0
  159.4900  212.6420  154.2360 C   0  0  0  0  0  1  0  0  0  0  0  0
  1  9  1  1  0  0  0
  1 14  1  0  0  0  0
  1  6  1  0  0  0  0
  2 13  1  0  0  0  0
  3  2  2  0  0  0  0
  3 19  1  0  0  0  0
  4  7  2  0  0  0  0
  4 11  1  0  0  0  0
  5 14  1  1  0  0  0
  5  2  1  0  0  0  0
  5 16  1  0  0  0  0
  6 17  1  0  0  0  0
  7  3  1  0  0  0  0
  8 23  1  1  0  0  0
 10 18  1  0  0  0  0
 11 20  2  0  0  0  0
 12  8  1  0  0  0  0
 13 18  2  0  0  0  0
 13  8  1  0  0  0  0
 16 17  1  6  0  0  0
 16 12  1  0  0  0  0
 19 10  2  0  0  0  0
 20 19  1  0  0  0  0
 20 15  1  0  0  0  0
 22 25  1  0  0  0  0
 22 21  2  0  0  0  0
 23 22  1  0  0  0  0
 25 27  1  0  0  0  0
 25 24  1  1  0  0  0
 27 26  1  0  0  0  0
 28 27  1  0  0  0  0
 29 31  1  1  0  0  0
 29 30  1  0  0  0  0
 29 28  1  0  0  0  0
M  END
>  <MODEL>
8

>  <REMARK>
 VINA RESULT:      -5.2      3.748      8.595
  Name = 
  5 active torsions:
  status: ('A' for Active; 'I' for Inactive)
    1  A    between atoms: C_1  and  C_24
    2  A    between atoms: C_9  and  C_22
    3  A    between atoms: C_15  and  N_23
    4  A    between atoms: N_19  and  C_22
    5  A    between atoms: N_19  and  C_24
                            x       y       z     vdW  Elec       q    Type
                         _______ _______ _______ _____ _____    ______ ____

>  <TORSDO>
F 5

$$$$
