=
 OpenBabel11062409153D

 37 40  0  0  1  0  0  0  0  0999 V2000
  162.2730  209.2200  154.7240 C   0  0  0  0  0  2  0  0  0  0  0  0
  160.7230  208.7480  151.8420 C   0  0  0  0  0  0  0  0  0  0  0  0
  160.4250  212.0930  156.1860 C   0  0  0  0  0  2  0  0  0  0  0  0
  161.0650  208.4620  154.1470 C   0  0  2  0  0  3  0  0  0  0  0  0
  160.6550  210.8440  155.7860 C   0  0  1  0  0  3  0  0  0  0  0  0
  161.3890  207.9640  152.8230 N   0  0  0  0  0  0  0  0  0  0  0  0
  163.1270  211.0730  156.0720 C   0  0  0  0  0  1  0  0  0  0  0  0
  159.4740  210.2710  155.0790 C   0  0  2  0  0  0  0  0  0  0  0  0
  158.6090  211.4820  154.7640 C   0  0  0  0  0  2  0  0  0  0  0  0
  161.9700  210.0910  155.9600 C   0  0  2  0  0  0  0  0  0  0  0  0
  158.6860  209.3780  156.0240 C   0  0  0  0  0  1  0  0  0  0  0  0
  160.7200  208.4560  150.6160 O   0  0  0  0  0  0  0  0  0  0  0  0
  159.9120  209.4350  153.8720 C   0  0  1  0  0  3  0  0  0  0  0  0
  159.0740  212.5590  155.7480 C   0  0  1  0  0  3  0  0  0  0  0  0
  160.0450  209.9440  152.4160 C   0  0  1  0  0  3  0  0  0  0  0  0
  158.2150  212.5890  156.8460 O   0  0  0  0  0  0  0  0  0  0  0  0
  157.0070  212.5360  156.3250 O   0  0  0  0  0  1  0  0  0  0  0  0
  161.6390  207.9780  157.2610 C   0  0  0  0  0  2  0  0  0  0  0  0
  161.9710  209.2690  157.2210 C   0  0  0  0  0  3  0  0  0  0  0  0
  161.0020  211.1470  152.2360 C   0  0  2  0  0  3  0  0  0  0  0  0
  160.3140  212.3610  152.1580 O   0  0  0  0  0  0  0  0  0  0  0  0
  158.2270  213.2490  151.4390 C   0  0  0  0  0  1  0  0  0  0  0  0
  158.9910  212.0150  151.8670 C   0  0  0  0  0  2  0  0  0  0  0  0
  161.9020  210.9780  151.0000 C   0  0  0  0  0  2  0  0  0  0  0  0
  161.3340  211.6630  149.7620 C   0  0  1  0  0  3  0  0  0  0  0  0
  161.4050  213.0480  149.9130 O   0  0  0  0  0  1  0  0  0  0  0  0
  162.9050  212.1170  147.9340 C   0  0  0  0  0  2  0  0  0  0  0  0
  162.1240  211.2450  148.5670 C   0  0  0  0  0  3  0  0  0  0  0  0
  162.2470  206.8130  152.5620 C   0  0  0  0  0  2  0  0  0  0  0  0
  161.5730  205.5090  152.9860 C   0  0  0  0  0  2  0  0  0  0  0  0
  161.0620  203.2640  151.9860 C   0  0  0  0  0  3  0  0  0  0  0  0
  161.2710  204.6370  151.8130 C   0  0  0  0  0  0  0  0  0  0  0  0
  161.2430  205.1890  150.5270 C   0  0  0  0  0  3  0  0  0  0  0  0
  160.9830  204.9100  148.1750 F   0  0  0  0  0  0  0  0  0  0  0  0
  160.7930  203.0020  149.5930 C   0  0  0  0  0  3  0  0  0  0  0  0
  161.0040  204.3730  149.4180 C   0  0  0  0  0  0  0  0  0  0  0  0
  160.8210  202.4480  150.8760 C   0  0  0  0  0  3  0  0  0  0  0  0
  1 10  1  0  0  0  0
  2 15  1  0  0  0  0
  2  6  1  0  0  0  0
  4  1  1  6  0  0  0
  5 10  1  0  0  0  0
  5  3  1  6  0  0  0
  6  4  1  0  0  0  0
  8  5  1  0  0  0  0
  8 11  1  1  0  0  0
  9  8  1  0  0  0  0
  9 14  1  0  0  0  0
 10  7  1  1  0  0  0
 10 19  1  0  0  0  0
 12  2  2  0  0  0  0
 13  4  1  0  0  0  0
 13  8  1  0  0  0  0
 14  3  1  0  0  0  0
 14 16  1  0  0  0  0
 15 13  1  0  0  0  0
 17 16  1  0  0  0  0
 19 18  2  0  0  0  0
 20 15  1  0  0  0  0
 21 20  1  0  0  0  0
 22 23  1  0  0  0  0
 23 21  1  0  0  0  0
 24 20  1  0  0  0  0
 25 26  1  0  0  0  0
 25 24  1  0  0  0  0
 27 28  2  0  0  0  0
 28 25  1  0  0  0  0
 29  6  1  0  0  0  0
 29 30  1  0  0  0  0
 32 31  1  0  0  0  0
 32 30  1  0  0  0  0
 33 32  2  0  0  0  0
 34 36  1  0  0  0  0
 35 37  1  0  0  0  0
 36 35  2  0  0  0  0
 36 33  1  0  0  0  0
 37 31  2  0  0  0  0
M  END
>  <MODEL>
1

>  <REMARK>
 VINA RESULT:      -4.9      0.000      0.000
  Name = 
  11 active torsions:
  status: ('A' for Active; 'I' for Inactive)
    1  A    between atoms: C_1  and  O_5
    2  A    between atoms: C_1  and  C_33
    3  A    between atoms: C_1  and  C_36
    4  A    between atoms: O_3  and  C_32
    5  A    between atoms: O_5  and  C_23
    6  A    between atoms: C_6  and  C_31
    7  A    between atoms: N_14  and  C_37
    8  A    between atoms: C_17  and  C_33
    9  A    between atoms: C_17  and  C_34
   10  A    between atoms: C_24  and  C_28
   11  A    between atoms: C_31  and  C_37
                            x       y       z     vdW  Elec       q    Type
                         _______ _______ _______ _____ _____    ______ ____

>  <TORSDO>
F 11

$$$$
=
 OpenBabel11062409153D

 37 40  0  0  1  0  0  0  0  0999 V2000
  160.1180  211.1120  151.6550 C   0  0  0  0  0  2  0  0  0  0  0  0
  162.3110  209.0850  150.2340 C   0  0  0  0  0  0  0  0  0  0  0  0
  159.5940  209.5460  154.9840 C   0  0  0  0  0  2  0  0  0  0  0  0
  161.6390  210.9040  151.5590 C   0  0  2  0  0  3  0  0  0  0  0  0
  160.2160  210.2150  154.0150 C   0  0  1  0  0  3  0  0  0  0  0  0
  161.9890  210.4700  150.2200 N   0  0  0  0  0  0  0  0  0  0  0  0
  158.0690  210.9660  152.9810 C   0  0  0  0  0  1  0  0  0  0  0  0
  161.6430  209.8010  153.8950 C   0  0  2  0  0  0  0  0  0  0  0  0
  161.7180  208.5020  154.6840 C   0  0  0  0  0  2  0  0  0  0  0  0
  159.5620  211.2340  153.0880 C   0  0  2  0  0  0  0  0  0  0  0  0
  162.5380  210.8130  154.5940 C   0  0  0  0  0  1  0  0  0  0  0  0
  162.7780  208.4780  149.2340 O   0  0  0  0  0  0  0  0  0  0  0  0
  162.0650  209.7110  152.4250 C   0  0  1  0  0  3  0  0  0  0  0  0
  160.5030  208.5410  155.6130 C   0  0  1  0  0  3  0  0  0  0  0  0
  162.0290  208.4380  151.5470 C   0  0  1  0  0  3  0  0  0  0  0  0
  160.8940  208.9930  156.8730 O   0  0  0  0  0  0  0  0  0  0  0  0
  162.0380  208.3840  157.1050 O   0  0  0  0  0  1  0  0  0  0  0  0
  158.8460  213.6170  153.3720 C   0  0  0  0  0  2  0  0  0  0  0  0
  159.7170  212.6370  153.6150 C   0  0  0  0  0  3  0  0  0  0  0  0
  160.6400  207.7640  151.4390 C   0  0  2  0  0  3  0  0  0  0  0  0
  160.4530  206.7810  152.4150 O   0  0  0  0  0  0  0  0  0  0  0  0
  161.5560  204.8260  153.2030 C   0  0  0  0  0  1  0  0  0  0  0  0
  161.7140  206.2060  152.6010 C   0  0  0  0  0  2  0  0  0  0  0  0
  160.4040  207.1640  150.0430 C   0  0  0  0  0  2  0  0  0  0  0  0
  160.9590  205.7510  149.9090 C   0  0  1  0  0  3  0  0  0  0  0  0
  159.9580  204.8210  150.1920 O   0  0  0  0  0  1  0  0  0  0  0  0
  160.8470  206.1400  147.4910 C   0  0  0  0  0  2  0  0  0  0  0  0
  161.4550  205.5500  148.5170 C   0  0  0  0  0  3  0  0  0  0  0  0
  162.0270  211.3460  149.0530 C   0  0  0  0  0  2  0  0  0  0  0  0
  161.4330  212.7180  149.3670 C   0  0  0  0  0  2  0  0  0  0  0  0
  159.1410  213.7040  149.0930 C   0  0  0  0  0  3  0  0  0  0  0  0
  160.2160  212.9920  148.5480 C   0  0  0  0  0  0  0  0  0  0  0  0
  160.1320  212.4940  147.2430 C   0  0  0  0  0  3  0  0  0  0  0  0
  158.8970  212.2220  145.2230 F   0  0  0  0  0  0  0  0  0  0  0  0
  157.9060  213.4220  147.0290 C   0  0  0  0  0  3  0  0  0  0  0  0
  158.9780  212.7090  146.4830 C   0  0  0  0  0  0  0  0  0  0  0  0
  157.9880  213.9210  148.3320 C   0  0  0  0  0  3  0  0  0  0  0  0
  1 10  1  0  0  0  0
  2 15  1  0  0  0  0
  3 14  1  0  0  0  0
  4  1  1  6  0  0  0
  4 13  1  0  0  0  0
  5  3  1  6  0  0  0
  6  2  1  0  0  0  0
  6  4  1  0  0  0  0
  8  5  1  0  0  0  0
  8 11  1  1  0  0  0
  8  9  1  0  0  0  0
  9 14  1  0  0  0  0
 10  7  1  6  0  0  0
 10 19  1  0  0  0  0
 10  5  1  0  0  0  0
 12  2  2  0  0  0  0
 13  8  1  0  0  0  0
 14 16  1  0  0  0  0
 15 13  1  0  0  0  0
 16 17  1  0  0  0  0
 18 19  2  0  0  0  0
 20 15  1  0  0  0  0
 20 21  1  0  0  0  0
 21 23  1  0  0  0  0
 23 22  1  0  0  0  0
 24 20  1  0  0  0  0
 25 24  1  0  0  0  0
 25 26  1  0  0  0  0
 27 28  2  0  0  0  0
 28 25  1  0  0  0  0
 29 30  1  0  0  0  0
 29  6  1  0  0  0  0
 32 31  1  0  0  0  0
 32 30  1  0  0  0  0
 33 32  2  0  0  0  0
 34 36  1  0  0  0  0
 35 37  1  0  0  0  0
 36 35  2  0  0  0  0
 36 33  1  0  0  0  0
 37 31  2  0  0  0  0
M  END
>  <MODEL>
2

>  <REMARK>
 VINA RESULT:      -4.0      2.725      6.350
  Name = 
  11 active torsions:
  status: ('A' for Active; 'I' for Inactive)
    1  A    between atoms: C_1  and  O_5
    2  A    between atoms: C_1  and  C_33
    3  A    between atoms: C_1  and  C_36
    4  A    between atoms: O_3  and  C_32
    5  A    between atoms: O_5  and  C_23
    6  A    between atoms: C_6  and  C_31
    7  A    between atoms: N_14  and  C_37
    8  A    between atoms: C_17  and  C_33
    9  A    between atoms: C_17  and  C_34
   10  A    between atoms: C_24  and  C_28
   11  A    between atoms: C_31  and  C_37
                            x       y       z     vdW  Elec       q    Type
                         _______ _______ _______ _____ _____    ______ ____

>  <TORSDO>
F 11

$$$$
=
 OpenBabel11062409153D

 37 40  0  0  1  0  0  0  0  0999 V2000
  162.1490  208.8290  154.6930 C   0  0  0  0  0  2  0  0  0  0  0  0
  160.6240  208.2780  151.8120 C   0  0  0  0  0  0  0  0  0  0  0  0
  160.3980  211.8410  155.9840 C   0  0  0  0  0  2  0  0  0  0  0  0
  160.9210  208.0920  154.1340 C   0  0  2  0  0  3  0  0  0  0  0  0
  160.5830  210.5660  155.6490 C   0  0  1  0  0  3  0  0  0  0  0  0
  161.2430  207.5170  152.8410 N   0  0  0  0  0  0  0  0  0  0  0  0
  163.0580  210.7110  155.9630 C   0  0  0  0  0  1  0  0  0  0  0  0
  159.3910  210.0060  154.9520 C   0  0  2  0  0  0  0  0  0  0  0  0
  158.5800  211.2340  154.5650 C   0  0  0  0  0  2  0  0  0  0  0  0
  161.8640  209.7710  155.8800 C   0  0  2  0  0  0  0  0  0  0  0  0
  158.5540  209.1910  155.9260 C   0  0  0  0  0  1  0  0  0  0  0  0
  160.6260  207.9270  150.6030 O   0  0  0  0  0  0  0  0  0  0  0  0
  159.8120  209.0950  153.7930 C   0  0  1  0  0  3  0  0  0  0  0  0
  159.0740  212.3370  155.5020 C   0  0  1  0  0  3  0  0  0  0  0  0
  159.9860  209.5270  152.3170 C   0  0  1  0  0  3  0  0  0  0  0  0
  158.2010  212.4560  156.5840 O   0  0  0  0  0  0  0  0  0  0  0  0
  157.1440  213.0700  156.0930 O   0  0  0  0  0  1  0  0  0  0  0  0
  161.5780  207.7020  157.2600 C   0  0  0  0  0  2  0  0  0  0  0  0
  161.8150  209.0120  157.1800 C   0  0  0  0  0  3  0  0  0  0  0  0
  160.9930  210.6810  152.0940 C   0  0  2  0  0  3  0  0  0  0  0  0
  162.1730  210.5000  152.8210 O   0  0  0  0  0  0  0  0  0  0  0  0
  162.5890  210.5620  150.4790 C   0  0  0  0  0  1  0  0  0  0  0  0
  163.1920  210.4790  151.8650 C   0  0  0  0  0  2  0  0  0  0  0  0
  160.3760  212.0480  152.4350 C   0  0  0  0  0  2  0  0  0  0  0  0
  159.4680  212.5750  151.3300 C   0  0  1  0  0  3  0  0  0  0  0  0
  158.3030  213.1060  151.8870 O   0  0  0  0  0  1  0  0  0  0  0  0
  160.5880  213.4150  149.3160 C   0  0  0  0  0  2  0  0  0  0  0  0
  160.1900  213.6340  150.5670 C   0  0  0  0  0  3  0  0  0  0  0  0
  162.0580  206.3220  152.6500 C   0  0  0  0  0  2  0  0  0  0  0  0
  161.2280  205.0500  152.8170 C   0  0  0  0  0  2  0  0  0  0  0  0
  161.0270  204.9480  150.3180 C   0  0  0  0  0  3  0  0  0  0  0  0
  161.1360  204.2800  151.5430 C   0  0  0  0  0  0  0  0  0  0  0  0
  161.1110  202.8810  151.5780 C   0  0  0  0  0  3  0  0  0  0  0  0
  160.9520  200.7980  150.4320 F   0  0  0  0  0  0  0  0  0  0  0  0
  160.8740  202.8200  149.1700 C   0  0  0  0  0  3  0  0  0  0  0  0
  160.9810  202.1510  150.3930 C   0  0  0  0  0  0  0  0  0  0  0  0
  160.8990  204.2170  149.1320 C   0  0  0  0  0  3  0  0  0  0  0  0
  1 10  1  0  0  0  0
  2 15  1  0  0  0  0
  2  6  1  0  0  0  0
  4  1  1  6  0  0  0
  5 10  1  0  0  0  0
  5  3  1  6  0  0  0
  6  4  1  0  0  0  0
  8  5  1  0  0  0  0
  8 11  1  1  0  0  0
  9  8  1  0  0  0  0
  9 14  1  0  0  0  0
 10  7  1  1  0  0  0
 10 19  1  0  0  0  0
 12  2  2  0  0  0  0
 13  4  1  0  0  0  0
 13  8  1  0  0  0  0
 14  3  1  0  0  0  0
 14 16  1  0  0  0  0
 15 13  1  0  0  0  0
 17 16  1  0  0  0  0
 19 18  2  0  0  0  0
 20 15  1  0  0  0  0
 20 24  1  0  0  0  0
 20 21  1  0  0  0  0
 22 23  1  0  0  0  0
 23 21  1  0  0  0  0
 25 26  1  0  0  0  0
 25 24  1  0  0  0  0
 27 28  2  0  0  0  0
 28 25  1  0  0  0  0
 29 30  1  0  0  0  0
 29  6  1  0  0  0  0
 31 32  1  0  0  0  0
 32 33  2  0  0  0  0
 32 30  1  0  0  0  0
 35 36  2  0  0  0  0
 36 34  1  0  0  0  0
 36 33  1  0  0  0  0
 37 35  1  0  0  0  0
 37 31  2  0  0  0  0
M  END
>  <MODEL>
3

>  <REMARK>
 VINA RESULT:      -3.5      1.332      2.034
  Name = 
  11 active torsions:
  status: ('A' for Active; 'I' for Inactive)
    1  A    between atoms: C_1  and  O_5
    2  A    between atoms: C_1  and  C_33
    3  A    between atoms: C_1  and  C_36
    4  A    between atoms: O_3  and  C_32
    5  A    between atoms: O_5  and  C_23
    6  A    between atoms: C_6  and  C_31
    7  A    between atoms: N_14  and  C_37
    8  A    between atoms: C_17  and  C_33
    9  A    between atoms: C_17  and  C_34
   10  A    between atoms: C_24  and  C_28
   11  A    between atoms: C_31  and  C_37
                            x       y       z     vdW  Elec       q    Type
                         _______ _______ _______ _____ _____    ______ ____

>  <TORSDO>
F 11

$$$$
=
 OpenBabel11062409153D

 37 40  0  0  1  0  0  0  0  0999 V2000
  160.1350  210.4560  151.7390 C   0  0  0  0  0  2  0  0  0  0  0  0
  162.3920  208.1850  150.9150 C   0  0  0  0  0  0  0  0  0  0  0  0
  160.0050  210.1750  155.4420 C   0  0  0  0  0  2  0  0  0  0  0  0
  161.6570  210.3170  151.5680 C   0  0  2  0  0  3  0  0  0  0  0  0
  160.4900  210.4830  154.2410 C   0  0  1  0  0  3  0  0  0  0  0  0
  161.9440  209.4490  150.4420 N   0  0  0  0  0  0  0  0  0  0  0  0
  158.2120  210.6810  153.2330 C   0  0  0  0  0  1  0  0  0  0  0  0
  161.9360  210.1380  154.1300 C   0  0  2  0  0  0  0  0  0  0  0  0
  162.1880  209.2190  155.3160 C   0  0  0  0  0  2  0  0  0  0  0  0
  159.6780  211.0570  153.0840 C   0  0  2  0  0  0  0  0  0  0  0  0
  162.7840  211.3850  154.3270 C   0  0  0  0  0  1  0  0  0  0  0  0
  162.8370  207.2860  150.1530 O   0  0  0  0  0  0  0  0  0  0  0  0
  162.2540  209.5470  152.7530 C   0  0  1  0  0  3  0  0  0  0  0  0
  161.0470  209.5210  156.2910 C   0  0  1  0  0  3  0  0  0  0  0  0
  162.2690  208.0420  152.3930 C   0  0  1  0  0  3  0  0  0  0  0  0
  161.4880  210.4220  157.2610 O   0  0  0  0  0  0  0  0  0  0  0  0
  160.6190  211.4100  157.2150 O   0  0  0  0  0  1  0  0  0  0  0  0
  158.6640  213.3450  153.0230 C   0  0  0  0  0  2  0  0  0  0  0  0
  159.7420  212.5610  153.0590 C   0  0  0  0  0  3  0  0  0  0  0  0
  160.9430  207.2950  152.6750 C   0  0  2  0  0  3  0  0  0  0  0  0
  160.3520  207.7040  153.8730 O   0  0  0  0  0  0  0  0  0  0  0  0
  159.3680  206.7330  155.8090 C   0  0  0  0  0  1  0  0  0  0  0  0
  160.3900  206.5810  154.7040 C   0  0  0  0  0  2  0  0  0  0  0  0
  161.1400  205.7690  152.6860 C   0  0  0  0  0  2  0  0  0  0  0  0
  160.2770  205.0580  151.6500 C   0  0  1  0  0  3  0  0  0  0  0  0
  160.6890  205.4130  150.3660 O   0  0  0  0  0  1  0  0  0  0  0  0
  161.4780  202.9380  151.3700 C   0  0  0  0  0  2  0  0  0  0  0  0
  160.4100  203.5840  151.8330 C   0  0  0  0  0  3  0  0  0  0  0  0
  161.8140  209.8430  149.0430 C   0  0  0  0  0  2  0  0  0  0  0  0
  162.4610  211.2030  148.7850 C   0  0  0  0  0  2  0  0  0  0  0  0
  160.8180  213.0200  149.3290 C   0  0  0  0  0  3  0  0  0  0  0  0
  161.4550  212.2240  148.3710 C   0  0  0  0  0  0  0  0  0  0  0  0
  161.1120  212.3510  147.0200 C   0  0  0  0  0  3  0  0  0  0  0  0
  159.8060  213.3910  145.3200 F   0  0  0  0  0  0  0  0  0  0  0  0
  159.5050  214.0710  147.5850 C   0  0  0  0  0  3  0  0  0  0  0  0
  160.1390  213.2740  146.6270 C   0  0  0  0  0  0  0  0  0  0  0  0
  159.8450  213.9450  148.9360 C   0  0  0  0  0  3  0  0  0  0  0  0
  1 10  1  0  0  0  0
  2 15  1  0  0  0  0
  3 14  1  0  0  0  0
  4  1  1  1  0  0  0
  4 13  1  0  0  0  0
  5  3  1  6  0  0  0
  6  2  1  0  0  0  0
  6  4  1  0  0  0  0
  8  5  1  0  0  0  0
  8 11  1  1  0  0  0
  8  9  1  0  0  0  0
  9 14  1  0  0  0  0
 10  7  1  1  0  0  0
 10  5  1  0  0  0  0
 12  2  2  0  0  0  0
 13  8  1  0  0  0  0
 14 16  1  0  0  0  0
 15 20  1  0  0  0  0
 15 13  1  0  0  0  0
 17 16  1  0  0  0  0
 18 19  2  0  0  0  0
 19 10  1  0  0  0  0
 20 24  1  0  0  0  0
 20 21  1  0  0  0  0
 21 23  1  0  0  0  0
 23 22  1  0  0  0  0
 25 28  1  0  0  0  0
 25 24  1  0  0  0  0
 26 25  1  0  0  0  0
 27 28  2  0  0  0  0
 29  6  1  0  0  0  0
 30 29  1  0  0  0  0
 32 30  1  0  0  0  0
 32 31  2  0  0  0  0
 33 32  1  0  0  0  0
 34 36  1  0  0  0  0
 35 37  2  0  0  0  0
 36 33  2  0  0  0  0
 36 35  1  0  0  0  0
 37 31  1  0  0  0  0
M  END
>  <MODEL>
4

>  <REMARK>
 VINA RESULT:      -2.3      2.562      6.340
  Name = 
  11 active torsions:
  status: ('A' for Active; 'I' for Inactive)
    1  A    between atoms: C_1  and  O_5
    2  A    between atoms: C_1  and  C_33
    3  A    between atoms: C_1  and  C_36
    4  A    between atoms: O_3  and  C_32
    5  A    between atoms: O_5  and  C_23
    6  A    between atoms: C_6  and  C_31
    7  A    between atoms: N_14  and  C_37
    8  A    between atoms: C_17  and  C_33
    9  A    between atoms: C_17  and  C_34
   10  A    between atoms: C_24  and  C_28
   11  A    between atoms: C_31  and  C_37
                            x       y       z     vdW  Elec       q    Type
                         _______ _______ _______ _____ _____    ______ ____

>  <TORSDO>
F 11

$$$$
