=
 OpenBabel11052422133D

 25 27  0  0  1  0  0  0  0  0999 V2000
  161.5100  206.5930  148.4010 C   0  0  1  0  0  3  0  0  0  0  0  0
  161.5460  205.6910  149.5800 C   0  0  0  0  0  0  0  0  0  0  0  0
  161.4960  208.4470  150.0100 C   0  0  0  0  0  3  0  0  0  0  0  0
  161.7170  207.6690  151.0290 N   0  0  0  0  0  0  0  0  0  0  0  0
  161.6910  205.4520  152.0940 C   0  0  0  0  0  0  0  0  0  0  0  0
  161.9270  205.9810  153.3940 N   0  0  0  0  0  1  0  0  0  0  0  0
  161.1020  204.4350  149.5230 C   0  0  0  0  0  3  0  0  0  0  0  0
  161.4910  207.9130  148.6320 C   0  0  0  0  0  3  0  0  0  0  0  0
  161.2710  204.2290  151.9710 N   0  0  0  0  0  0  0  0  0  0  0  0
  161.0550  203.6400  150.7110 N   0  0  0  0  0  0  0  0  0  0  0  0
  162.0790  206.2560  150.8790 C   0  0  0  0  0  0  0  0  0  0  0  0
  161.5020  206.0770  147.0050 C   0  0  0  0  0  0  0  0  0  0  0  0
  161.4020  205.1000  144.3680 C   0  0  0  0  0  3  0  0  0  0  0  0
  162.5790  205.3340  146.4740 C   0  0  0  0  0  0  0  0  0  0  0  0
  162.5230  204.8540  145.1630 C   0  0  0  0  0  3  0  0  0  0  0  0
  160.3320  205.8320  144.8820 C   0  0  0  0  0  3  0  0  0  0  0  0
  163.6960  205.0930  147.2070 F   0  0  0  0  0  0  0  0  0  0  0  0
  160.3810  206.3150  146.1920 C   0  0  0  0  0  3  0  0  0  0  0  0
  160.5920  202.2670  150.6330 C   0  0  0  0  0  2  0  0  0  0  0  0
  159.7220  202.0830  149.4000 C   0  0  0  0  0  2  0  0  0  0  0  0
  160.4530  201.2570  148.3520 C   0  0  2  0  0  3  0  0  0  0  0  0
  161.6720  200.5920  148.9640 C   0  0  0  0  0  1  0  0  0  0  0  0
  160.8360  202.0870  147.1240 C   0  0  0  0  0  2  0  0  0  0  0  0
  160.8480  201.2630  145.8440 C   0  0  0  0  0  2  0  0  0  0  0  0
  159.7440  201.7410  144.9260 C   0  0  0  0  0  1  0  0  0  0  0  0
  1 12  1  6  0  0  0
  1  8  1  0  0  0  0
  1  2  1  0  0  0  0
  2 11  1  0  0  0  0
  3  4  1  0  0  0  0
  5  6  1  0  0  0  0
  7  2  2  0  0  0  0
  7 10  1  0  0  0  0
  8  3  2  0  0  0  0
  9  5  2  0  0  0  0
 10  9  1  0  0  0  0
 11  4  2  0  0  0  0
 11  5  1  0  0  0  0
 13 16  2  0  0  0  0
 13 15  1  0  0  0  0
 14 12  1  0  0  0  0
 14 17  1  0  0  0  0
 15 14  2  0  0  0  0
 16 18  1  0  0  0  0
 18 12  2  0  0  0  0
 19 10  1  0  0  0  0
 20 19  1  0  0  0  0
 21 22  1  1  0  0  0
 21 20  1  0  0  0  0
 23 21  1  0  0  0  0
 24 23  1  0  0  0  0
 25 24  1  0  0  0  0
M  END
>  <MODEL>
1

>  <REMARK>
 VINA RESULT:      -8.0      0.000      0.000
  Name = 
  6 active torsions:
  status: ('A' for Active; 'I' for Inactive)
    1  A    between atoms: C_1  and  C_5
    2  A    between atoms: C_2  and  C_7
    3  A    between atoms: C_2  and  C_21
    4  A    between atoms: C_6  and  C_15
    5  A    between atoms: C_6  and  N_23
    6  A    between atoms: C_15  and  C_21
                            x       y       z     vdW  Elec       q    Type
                         _______ _______ _______ _____ _____    ______ ____

>  <TORSDO>
F 6

$$$$
=
 OpenBabel11052422133D

 25 27  0  0  1  0  0  0  0  0999 V2000
  161.4910  206.2640  148.5630 C   0  0  1  0  0  3  0  0  0  0  0  0
  161.4200  205.3140  149.7020 C   0  0  0  0  0  0  0  0  0  0  0  0
  161.2470  208.0470  150.2320 C   0  0  0  0  0  3  0  0  0  0  0  0
  161.3740  207.2320  151.2380 N   0  0  0  0  0  0  0  0  0  0  0  0
  161.2890  204.9720  152.2040 C   0  0  0  0  0  0  0  0  0  0  0  0
  161.3640  205.4500  153.5430 N   0  0  0  0  0  1  0  0  0  0  0  0
  161.0190  204.0510  149.5450 C   0  0  0  0  0  3  0  0  0  0  0  0
  161.4100  207.5720  148.8430 C   0  0  0  0  0  3  0  0  0  0  0  0
  160.9190  203.7460  151.9870 N   0  0  0  0  0  0  0  0  0  0  0  0
  160.8610  203.2060  150.6880 N   0  0  0  0  0  0  0  0  0  0  0  0
  161.7890  205.8350  151.0730 C   0  0  0  0  0  0  0  0  0  0  0  0
  161.6520  205.8070  147.1560 C   0  0  0  0  0  0  0  0  0  0  0  0
  162.0400  204.9520  144.5030 C   0  0  0  0  0  3  0  0  0  0  0  0
  160.6410  205.9920  146.1870 C   0  0  0  0  0  0  0  0  0  0  0  0
  160.8400  205.5620  144.8720 C   0  0  0  0  0  3  0  0  0  0  0  0
  163.0460  204.7650  145.4510 C   0  0  0  0  0  3  0  0  0  0  0  0
  159.4520  206.5600  146.5120 F   0  0  0  0  0  0  0  0  0  0  0  0
  162.8540  205.1910  146.7670 C   0  0  0  0  0  3  0  0  0  0  0  0
  160.4470  201.8270  150.5040 C   0  0  0  0  0  2  0  0  0  0  0  0
  159.6810  201.6870  149.1990 C   0  0  0  0  0  2  0  0  0  0  0  0
  160.5400  200.9940  148.1510 C   0  0  2  0  0  3  0  0  0  0  0  0
  161.8100  200.4580  148.7850 C   0  0  0  0  0  1  0  0  0  0  0  0
  160.8590  201.9080  146.9650 C   0  0  0  0  0  2  0  0  0  0  0  0
  160.6280  201.2260  145.6240 C   0  0  0  0  0  2  0  0  0  0  0  0
  159.6600  202.0480  144.8000 C   0  0  0  0  0  1  0  0  0  0  0  0
  1 12  1  1  0  0  0
  1  8  1  0  0  0  0
  1  2  1  0  0  0  0
  2 11  1  0  0  0  0
  3  4  1  0  0  0  0
  5  6  1  0  0  0  0
  7  2  2  0  0  0  0
  7 10  1  0  0  0  0
  8  3  2  0  0  0  0
  9  5  2  0  0  0  0
 10  9  1  0  0  0  0
 11  4  2  0  0  0  0
 11  5  1  0  0  0  0
 13 15  2  0  0  0  0
 13 16  1  0  0  0  0
 14 17  1  0  0  0  0
 14 12  2  0  0  0  0
 15 14  1  0  0  0  0
 16 18  2  0  0  0  0
 18 12  1  0  0  0  0
 19 10  1  0  0  0  0
 20 19  1  0  0  0  0
 21 22  1  1  0  0  0
 21 20  1  0  0  0  0
 23 21  1  0  0  0  0
 24 23  1  0  0  0  0
 25 24  1  0  0  0  0
M  END
>  <MODEL>
2

>  <REMARK>
 VINA RESULT:      -7.8      1.026      1.407
  Name = 
  6 active torsions:
  status: ('A' for Active; 'I' for Inactive)
    1  A    between atoms: C_1  and  C_5
    2  A    between atoms: C_2  and  C_7
    3  A    between atoms: C_2  and  C_21
    4  A    between atoms: C_6  and  C_15
    5  A    between atoms: C_6  and  N_23
    6  A    between atoms: C_15  and  C_21
                            x       y       z     vdW  Elec       q    Type
                         _______ _______ _______ _____ _____    ______ ____

>  <TORSDO>
F 6

$$$$
=
 OpenBabel11052422133D

 25 27  0  0  1  0  0  0  0  0999 V2000
  161.1710  205.2590  148.9890 C   0  0  1  0  0  3  0  0  0  0  0  0
  161.4970  206.1100  150.1610 C   0  0  0  0  0  0  0  0  0  0  0  0
  161.0490  207.3450  147.7000 C   0  0  0  0  0  3  0  0  0  0  0  0
  161.5170  208.0680  148.6760 N   0  0  0  0  0  0  0  0  0  0  0  0
  161.9830  208.4220  151.0650 C   0  0  0  0  0  0  0  0  0  0  0  0
  162.2850  209.8010  150.8880 N   0  0  0  0  0  1  0  0  0  0  0  0
  161.2600  205.7110  151.4120 C   0  0  0  0  0  3  0  0  0  0  0  0
  160.9650  205.8740  147.8160 C   0  0  0  0  0  3  0  0  0  0  0  0
  161.7570  207.9690  152.2610 N   0  0  0  0  0  0  0  0  0  0  0  0
  161.4880  206.6080  152.5020 N   0  0  0  0  0  0  0  0  0  0  0  0
  162.0840  207.4780  149.8930 C   0  0  0  0  0  0  0  0  0  0  0  0
  161.0770  203.7770  149.0830 C   0  0  0  0  0  0  0  0  0  0  0  0
  160.9220  200.9790  149.3420 C   0  0  0  0  0  3  0  0  0  0  0  0
  161.2710  202.9400  147.9620 C   0  0  0  0  0  0  0  0  0  0  0  0
  161.1900  201.5520  148.0980 C   0  0  0  0  0  3  0  0  0  0  0  0
  160.7300  201.7950  150.4570 C   0  0  0  0  0  3  0  0  0  0  0  0
  161.5100  203.4600  146.7310 F   0  0  0  0  0  0  0  0  0  0  0  0
  160.8090  203.1840  150.3280 C   0  0  0  0  0  3  0  0  0  0  0  0
  161.2500  206.1550  153.8600 C   0  0  0  0  0  2  0  0  0  0  0  0
  160.3760  207.1580  154.5950 C   0  0  0  0  0  2  0  0  0  0  0  0
  161.0730  207.6470  155.8560 C   0  0  2  0  0  3  0  0  0  0  0  0
  160.2600  207.2740  157.0820 C   0  0  0  0  0  1  0  0  0  0  0  0
  161.3550  209.1510  155.8170 C   0  0  0  0  0  2  0  0  0  0  0  0
  160.3300  209.9150  154.9910 C   0  0  0  0  0  2  0  0  0  0  0  0
  161.0280  211.0050  154.2050 C   0  0  0  0  0  1  0  0  0  0  0  0
  1 12  1  6  0  0  0
  1  2  1  0  0  0  0
  2  7  2  0  0  0  0
  3  8  2  0  0  0  0
  3  4  1  0  0  0  0
  4 11  2  0  0  0  0
  5  9  2  0  0  0  0
  6  5  1  0  0  0  0
  7 10  1  0  0  0  0
  8  1  1  0  0  0  0
  9 10  1  0  0  0  0
 10 19  1  0  0  0  0
 11  2  1  0  0  0  0
 11  5  1  0  0  0  0
 12 18  1  0  0  0  0
 13 16  1  0  0  0  0
 14 15  1  0  0  0  0
 14 12  2  0  0  0  0
 15 13  2  0  0  0  0
 17 14  1  0  0  0  0
 18 16  2  0  0  0  0
 19 20  1  0  0  0  0
 20 21  1  0  0  0  0
 21 22  1  1  0  0  0
 23 21  1  0  0  0  0
 24 23  1  0  0  0  0
 25 24  1  0  0  0  0
M  END
>  <MODEL>
3

>  <REMARK>
 VINA RESULT:      -7.7      2.667      6.318
  Name = 
  6 active torsions:
  status: ('A' for Active; 'I' for Inactive)
    1  A    between atoms: C_1  and  C_5
    2  A    between atoms: C_2  and  C_7
    3  A    between atoms: C_2  and  C_21
    4  A    between atoms: C_6  and  C_15
    5  A    between atoms: C_6  and  N_23
    6  A    between atoms: C_15  and  C_21
                            x       y       z     vdW  Elec       q    Type
                         _______ _______ _______ _____ _____    ______ ____

>  <TORSDO>
F 6

$$$$
=
 OpenBabel11052422133D

 25 27  0  0  1  0  0  0  0  0999 V2000
  161.1340  204.6200  151.4480 C   0  0  1  0  0  3  0  0  0  0  0  0
  161.1970  205.9310  150.7530 C   0  0  0  0  0  0  0  0  0  0  0  0
  161.4170  205.8830  153.5340 C   0  0  0  0  0  3  0  0  0  0  0  0
  161.2820  207.0370  152.9470 N   0  0  0  0  0  0  0  0  0  0  0  0
  161.3360  208.4500  150.9350 C   0  0  0  0  0  0  0  0  0  0  0  0
  161.2770  209.6600  151.6810 N   0  0  0  0  0  1  0  0  0  0  0  0
  161.5760  206.0380  149.4790 C   0  0  0  0  0  3  0  0  0  0  0  0
  161.2380  204.6230  152.7840 C   0  0  0  0  0  3  0  0  0  0  0  0
  161.6850  208.4910  149.6840 N   0  0  0  0  0  0  0  0  0  0  0  0
  161.7270  207.3310  148.8870 N   0  0  0  0  0  0  0  0  0  0  0  0
  160.8450  207.1660  151.5540 C   0  0  0  0  0  0  0  0  0  0  0  0
  160.9570  203.3390  150.7130 C   0  0  0  0  0  0  0  0  0  0  0  0
  160.5510  200.9440  149.2920 C   0  0  0  0  0  3  0  0  0  0  0  0
  161.5300  202.1300  151.1660 C   0  0  0  0  0  0  0  0  0  0  0  0
  161.3260  200.9450  150.4530 C   0  0  0  0  0  3  0  0  0  0  0  0
  159.9800  202.1320  148.8360 C   0  0  0  0  0  3  0  0  0  0  0  0
  162.3080  202.0930  152.2770 F   0  0  0  0  0  0  0  0  0  0  0  0
  160.1800  203.3200  149.5430 C   0  0  0  0  0  3  0  0  0  0  0  0
  162.1180  207.4360  147.4930 C   0  0  0  0  0  2  0  0  0  0  0  0
  162.6800  206.1080  147.0120 C   0  0  0  0  0  2  0  0  0  0  0  0
  161.8370  205.5560  145.8720 C   0  0  2  0  0  3  0  0  0  0  0  0
  160.4740  206.2240  145.8560 C   0  0  0  0  0  1  0  0  0  0  0  0
  161.7040  204.0330  145.9340 C   0  0  0  0  0  2  0  0  0  0  0  0
  160.6640  203.4970  144.9590 C   0  0  0  0  0  2  0  0  0  0  0  0
  160.3890  202.0400  145.2650 C   0  0  0  0  0  1  0  0  0  0  0  0
  1 12  1  1  0  0  0
  1  8  1  0  0  0  0
  2  1  1  0  0  0  0
  2 11  1  0  0  0  0
  4  3  1  0  0  0  0
  5 11  1  0  0  0  0
  5  6  1  0  0  0  0
  7  2  2  0  0  0  0
  8  3  2  0  0  0  0
  9  5  2  0  0  0  0
 10  7  1  0  0  0  0
 10  9  1  0  0  0  0
 11  4  2  0  0  0  0
 12 14  1  0  0  0  0
 13 15  1  0  0  0  0
 14 17  1  0  0  0  0
 15 14  2  0  0  0  0
 16 13  2  0  0  0  0
 16 18  1  0  0  0  0
 18 12  2  0  0  0  0
 19 10  1  0  0  0  0
 20 19  1  0  0  0  0
 21 22  1  1  0  0  0
 21 23  1  0  0  0  0
 21 20  1  0  0  0  0
 24 25  1  0  0  0  0
 24 23  1  0  0  0  0
M  END
>  <MODEL>
4

>  <REMARK>
 VINA RESULT:      -7.1      1.920      4.559
  Name = 
  6 active torsions:
  status: ('A' for Active; 'I' for Inactive)
    1  A    between atoms: C_1  and  C_5
    2  A    between atoms: C_2  and  C_7
    3  A    between atoms: C_2  and  C_21
    4  A    between atoms: C_6  and  C_15
    5  A    between atoms: C_6  and  N_23
    6  A    between atoms: C_15  and  C_21
                            x       y       z     vdW  Elec       q    Type
                         _______ _______ _______ _____ _____    ______ ____

>  <TORSDO>
F 6

$$$$
=
 OpenBabel11052422133D

 25 27  0  0  1  0  0  0  0  0999 V2000
  161.2820  205.3360  148.8680 C   0  0  1  0  0  3  0  0  0  0  0  0
  161.2900  206.5000  149.7890 C   0  0  0  0  0  0  0  0  0  0  0  0
  161.3040  203.9340  150.8840 C   0  0  0  0  0  3  0  0  0  0  0  0
  161.1200  204.9440  151.6840 N   0  0  0  0  0  0  0  0  0  0  0  0
  161.2100  207.3530  152.1690 C   0  0  0  0  0  0  0  0  0  0  0  0
  160.9960  207.1660  153.5630 N   0  0  0  0  0  1  0  0  0  0  0  0
  161.7540  207.6940  149.4160 C   0  0  0  0  0  3  0  0  0  0  0  0
  161.2840  204.1130  149.4170 C   0  0  0  0  0  3  0  0  0  0  0  0
  161.6470  208.4990  151.7410 N   0  0  0  0  0  0  0  0  0  0  0  0
  161.8430  208.7540  150.3710 N   0  0  0  0  0  0  0  0  0  0  0  0
  160.7790  206.2840  151.1970 C   0  0  0  0  0  0  0  0  0  0  0  0
  161.2660  205.4920  147.3890 C   0  0  0  0  0  0  0  0  0  0  0  0
  161.1520  205.7860  144.5920 C   0  0  0  0  0  3  0  0  0  0  0  0
  162.3440  205.0730  146.5780 C   0  0  0  0  0  0  0  0  0  0  0  0
  162.2810  205.2240  145.1900 C   0  0  0  0  0  3  0  0  0  0  0  0
  160.0810  206.2030  145.3820 C   0  0  0  0  0  3  0  0  0  0  0  0
  163.4680  204.5430  147.1240 F   0  0  0  0  0  0  0  0  0  0  0  0
  160.1370  206.0550  146.7700 C   0  0  0  0  0  3  0  0  0  0  0  0
  162.3270  210.0560  149.9470 C   0  0  0  0  0  2  0  0  0  0  0  0
  161.9700  210.2920  148.4890 C   0  0  0  0  0  2  0  0  0  0  0  0
  161.8770  211.7830  148.1990 C   0  0  2  0  0  3  0  0  0  0  0  0
  163.2520  212.3430  147.8870 C   0  0  0  0  0  1  0  0  0  0  0  0
  161.2130  212.5550  149.3410 C   0  0  0  0  0  2  0  0  0  0  0  0
  160.3080  213.6730  148.8400 C   0  0  0  0  0  2  0  0  0  0  0  0
  159.6110  213.2280  147.5720 C   0  0  0  0  0  1  0  0  0  0  0  0
  1 12  1  1  0  0  0
  1  8  1  0  0  0  0
  1  2  1  0  0  0  0
  2 11  1  0  0  0  0
  3  4  1  0  0  0  0
  5  6  1  0  0  0  0
  7  2  2  0  0  0  0
  7 10  1  0  0  0  0
  8  3  2  0  0  0  0
  9  5  2  0  0  0  0
 10  9  1  0  0  0  0
 11  4  2  0  0  0  0
 11  5  1  0  0  0  0
 13 15  2  0  0  0  0
 13 16  1  0  0  0  0
 14 17  1  0  0  0  0
 14 12  2  0  0  0  0
 15 14  1  0  0  0  0
 16 18  2  0  0  0  0
 18 12  1  0  0  0  0
 19 10  1  0  0  0  0
 20 19  1  0  0  0  0
 21 22  1  1  0  0  0
 21 20  1  0  0  0  0
 21 23  1  0  0  0  0
 24 23  1  0  0  0  0
 25 24  1  0  0  0  0
M  END
>  <MODEL>
5

>  <REMARK>
 VINA RESULT:      -7.0      2.406      6.076
  Name = 
  6 active torsions:
  status: ('A' for Active; 'I' for Inactive)
    1  A    between atoms: C_1  and  C_5
    2  A    between atoms: C_2  and  C_7
    3  A    between atoms: C_2  and  C_21
    4  A    between atoms: C_6  and  C_15
    5  A    between atoms: C_6  and  N_23
    6  A    between atoms: C_15  and  C_21
                            x       y       z     vdW  Elec       q    Type
                         _______ _______ _______ _____ _____    ______ ____

>  <TORSDO>
F 6

$$$$
=
 OpenBabel11052422133D

 25 27  0  0  1  0  0  0  0  0999 V2000
  161.2920  204.6690  150.8010 C   0  0  0  0  0  0  0  0  0  0  0  0
  161.4570  205.7330  149.7790 C   0  0  0  0  0  0  0  0  0  0  0  0
  161.7600  206.4100  152.4680 C   0  0  0  0  0  3  0  0  0  0  0  0
  161.7170  207.3710  151.5930 N   0  0  0  0  0  0  0  0  0  0  0  0
  161.8420  208.1820  149.2740 C   0  0  0  0  0  0  0  0  0  0  0  0
  161.9220  209.5470  149.6670 N   0  0  0  0  0  1  0  0  0  0  0  0
  161.8050  205.4570  148.5210 C   0  0  0  0  0  3  0  0  0  0  0  0
  161.4380  205.0190  152.0870 C   0  0  0  0  0  3  0  0  0  0  0  0
  162.1530  207.8510  148.0570 N   0  0  0  0  0  0  0  0  0  0  0  0
  162.0590  206.5220  147.6010 N   0  0  0  0  0  0  0  0  0  0  0  0
  161.2500  207.1660  150.2180 C   0  0  1  0  0  3  0  0  0  0  0  0
  160.9710  203.2620  150.4400 C   0  0  0  0  0  0  0  0  0  0  0  0
  160.2910  200.6270  149.7250 C   0  0  0  0  0  3  0  0  0  0  0  0
  161.5210  202.1640  151.1380 C   0  0  0  0  0  0  0  0  0  0  0  0
  161.1800  200.8580  150.7760 C   0  0  0  0  0  3  0  0  0  0  0  0
  159.7400  201.7030  149.0290 C   0  0  0  0  0  3  0  0  0  0  0  0
  162.4070  202.3470  152.1500 F   0  0  0  0  0  0  0  0  0  0  0  0
  160.0770  203.0110  149.3860 C   0  0  0  0  0  3  0  0  0  0  0  0
  162.4130  206.2100  146.2290 C   0  0  0  0  0  2  0  0  0  0  0  0
  162.8490  204.7580  146.1240 C   0  0  0  0  0  2  0  0  0  0  0  0
  161.9500  204.0010  145.1560 C   0  0  2  0  0  3  0  0  0  0  0  0
  160.9840  204.9580  144.4820 C   0  0  0  0  0  1  0  0  0  0  0  0
  161.2040  202.8510  145.8350 C   0  0  0  0  0  2  0  0  0  0  0  0
  160.0150  202.3640  145.0190 C   0  0  0  0  0  2  0  0  0  0  0  0
  160.0790  200.8570  144.8850 C   0  0  0  0  0  1  0  0  0  0  0  0
  1  8  2  0  0  0  0
  2 11  1  0  0  0  0
  2  1  1  0  0  0  0
  4  3  2  0  0  0  0
  5  6  1  0  0  0  0
  7  2  2  0  0  0  0
  8  3  1  0  0  0  0
  9  5  2  0  0  0  0
 10  9  1  0  0  0  0
 10  7  1  0  0  0  0
 11  5  1  6  0  0  0
 11  4  1  0  0  0  0
 12  1  1  0  0  0  0
 12 14  1  0  0  0  0
 13 15  1  0  0  0  0
 14 17  1  0  0  0  0
 15 14  2  0  0  0  0
 16 18  1  0  0  0  0
 16 13  2  0  0  0  0
 18 12  2  0  0  0  0
 19 10  1  0  0  0  0
 20 19  1  0  0  0  0
 21 22  1  1  0  0  0
 21 23  1  0  0  0  0
 21 20  1  0  0  0  0
 24 23  1  0  0  0  0
 25 24  1  0  0  0  0
M  END
>  <MODEL>
6

>  <REMARK>
 VINA RESULT:      -6.9      1.893      4.509
  Name = 
  6 active torsions:
  status: ('A' for Active; 'I' for Inactive)
    1  A    between atoms: C_1  and  C_5
    2  A    between atoms: C_2  and  C_7
    3  A    between atoms: C_2  and  C_21
    4  A    between atoms: C_6  and  C_15
    5  A    between atoms: C_6  and  N_23
    6  A    between atoms: C_15  and  C_21
                            x       y       z     vdW  Elec       q    Type
                         _______ _______ _______ _____ _____    ______ ____

>  <TORSDO>
F 6

$$$$
=
 OpenBabel11052422133D

 25 27  0  0  1  0  0  0  0  0999 V2000
  161.3150  203.2340  147.5080 C   0  0  1  0  0  3  0  0  0  0  0  0
  161.1600  203.8820  148.8360 C   0  0  0  0  0  0  0  0  0  0  0  0
  161.2120  201.0950  148.7100 C   0  0  0  0  0  3  0  0  0  0  0  0
  160.8890  201.6540  149.8390 N   0  0  0  0  0  0  0  0  0  0  0  0
  160.7860  203.6140  151.3230 C   0  0  0  0  0  0  0  0  0  0  0  0
  160.4420  202.8360  152.4640 N   0  0  0  0  0  1  0  0  0  0  0  0
  161.5890  205.1230  149.0710 C   0  0  0  0  0  3  0  0  0  0  0  0
  161.3330  201.8940  147.4730 C   0  0  0  0  0  3  0  0  0  0  0  0
  161.1970  204.8350  151.4860 N   0  0  0  0  0  0  0  0  0  0  0  0
  161.5170  205.6630  150.3930 N   0  0  0  0  0  0  0  0  0  0  0  0
  160.5210  203.0700  149.9410 C   0  0  0  0  0  0  0  0  0  0  0  0
  161.4410  204.0190  146.2510 C   0  0  0  0  0  0  0  0  0  0  0  0
  161.6230  205.4530  143.8370 C   0  0  0  0  0  3  0  0  0  0  0  0
  162.6250  204.7130  145.9160 C   0  0  0  0  0  0  0  0  0  0  0  0
  162.7070  205.4250  144.7160 C   0  0  0  0  0  3  0  0  0  0  0  0
  160.4490  204.7710  144.1570 C   0  0  0  0  0  3  0  0  0  0  0  0
  163.6910  204.7290  146.7550 F   0  0  0  0  0  0  0  0  0  0  0  0
  160.3600  204.0570  145.3540 C   0  0  0  0  0  3  0  0  0  0  0  0
  161.9640  207.0230  150.6330 C   0  0  0  0  0  2  0  0  0  0  0  0
  161.9860  207.3050  152.1260 C   0  0  0  0  0  2  0  0  0  0  0  0
  161.0290  208.4380  152.4670 C   0  0  2  0  0  3  0  0  0  0  0  0
  161.5230  209.7400  151.8650 C   0  0  0  0  0  1  0  0  0  0  0  0
  160.8070  208.5770  153.9750 C   0  0  0  0  0  2  0  0  0  0  0  0
  160.8090  207.2330  154.6900 C   0  0  0  0  0  2  0  0  0  0  0  0
  159.9460  207.3210  155.9310 C   0  0  0  0  0  1  0  0  0  0  0  0
  1 12  1  6  0  0  0
  1  2  1  0  0  0  0
  2  7  2  0  0  0  0
  2 11  1  0  0  0  0
  3  4  1  0  0  0  0
  4 11  2  0  0  0  0
  5  9  2  0  0  0  0
  5  6  1  0  0  0  0
  7 10  1  0  0  0  0
  8  1  1  0  0  0  0
  8  3  2  0  0  0  0
 10 19  1  0  0  0  0
 10  9  1  0  0  0  0
 11  5  1  0  0  0  0
 13 16  2  0  0  0  0
 13 15  1  0  0  0  0
 14 12  1  0  0  0  0
 14 17  1  0  0  0  0
 15 14  2  0  0  0  0
 16 18  1  0  0  0  0
 18 12  2  0  0  0  0
 19 20  1  0  0  0  0
 20 21  1  0  0  0  0
 21 22  1  1  0  0  0
 21 23  1  0  0  0  0
 23 24  1  0  0  0  0
 24 25  1  0  0  0  0
M  END
>  <MODEL>
7

>  <REMARK>
 VINA RESULT:      -6.8      1.898      5.585
  Name = 
  6 active torsions:
  status: ('A' for Active; 'I' for Inactive)
    1  A    between atoms: C_1  and  C_5
    2  A    between atoms: C_2  and  C_7
    3  A    between atoms: C_2  and  C_21
    4  A    between atoms: C_6  and  C_15
    5  A    between atoms: C_6  and  N_23
    6  A    between atoms: C_15  and  C_21
                            x       y       z     vdW  Elec       q    Type
                         _______ _______ _______ _____ _____    ______ ____

>  <TORSDO>
F 6

$$$$
=
 OpenBabel11052422133D

 25 27  0  0  1  0  0  0  0  0999 V2000
  160.9620  203.0010  148.1000 C   0  0  0  0  0  0  0  0  0  0  0  0
  161.3960  204.2390  147.4060 C   0  0  0  0  0  0  0  0  0  0  0  0
  160.4450  202.1130  145.8700 C   0  0  0  0  0  3  0  0  0  0  0  0
  160.9980  203.1170  145.2550 N   0  0  0  0  0  0  0  0  0  0  0  0
  161.8120  205.4380  145.2180 C   0  0  0  0  0  0  0  0  0  0  0  0
  161.9560  205.4530  143.8020 N   0  0  0  0  0  1  0  0  0  0  0  0
  161.4020  205.4260  148.0150 C   0  0  0  0  0  3  0  0  0  0  0  0
  160.5130  201.9910  147.3410 C   0  0  0  0  0  3  0  0  0  0  0  0
  161.8250  206.5610  145.8700 N   0  0  0  0  0  0  0  0  0  0  0  0
  161.7230  206.6060  147.2730 N   0  0  0  0  0  0  0  0  0  0  0  0
  161.8060  204.1220  145.9540 C   0  0  1  0  0  3  0  0  0  0  0  0
  161.0190  202.8570  149.5800 C   0  0  0  0  0  0  0  0  0  0  0  0
  161.1440  202.6670  152.3850 C   0  0  0  0  0  3  0  0  0  0  0  0
  161.3380  201.6300  150.2030 C   0  0  0  0  0  0  0  0  0  0  0  0
  161.3960  201.5430  151.5960 C   0  0  0  0  0  3  0  0  0  0  0  0
  160.8300  203.8850  151.7810 C   0  0  0  0  0  3  0  0  0  0  0  0
  161.5650  200.5100  149.4720 F   0  0  0  0  0  0  0  0  0  0  0  0
  160.7690  203.9790  150.3890 C   0  0  0  0  0  3  0  0  0  0  0  0
  161.7500  207.8890  147.9520 C   0  0  0  0  0  2  0  0  0  0  0  0
  162.3290  207.7240  149.3480 C   0  0  0  0  0  2  0  0  0  0  0  0
  161.4930  208.4890  150.3630 C   0  0  2  0  0  3  0  0  0  0  0  0
  162.3330  209.5630  151.0300 C   0  0  0  0  0  1  0  0  0  0  0  0
  160.8530  207.5660  151.4020 C   0  0  0  0  0  2  0  0  0  0  0  0
  161.0570  208.0600  152.8270 C   0  0  0  0  0  2  0  0  0  0  0  0
  161.2060  206.8740  153.7560 C   0  0  0  0  0  1  0  0  0  0  0  0
  1 12  1  0  0  0  0
  2  7  2  0  0  0  0
  2  1  1  0  0  0  0
  3  8  1  0  0  0  0
  4  3  2  0  0  0  0
  4 11  1  0  0  0  0
  5  9  2  0  0  0  0
  6  5  1  0  0  0  0
  8  1  2  0  0  0  0
  9 10  1  0  0  0  0
 10 19  1  0  0  0  0
 10  7  1  0  0  0  0
 11  5  1  6  0  0  0
 11  2  1  0  0  0  0
 12 14  2  0  0  0  0
 12 18  1  0  0  0  0
 14 15  1  0  0  0  0
 15 13  2  0  0  0  0
 16 13  1  0  0  0  0
 17 14  1  0  0  0  0
 18 16  2  0  0  0  0
 19 20  1  0  0  0  0
 20 21  1  0  0  0  0
 21 22  1  1  0  0  0
 21 23  1  0  0  0  0
 23 24  1  0  0  0  0
 24 25  1  0  0  0  0
M  END
>  <MODEL>
8

>  <REMARK>
 VINA RESULT:      -6.7      2.825      6.793
  Name = 
  6 active torsions:
  status: ('A' for Active; 'I' for Inactive)
    1  A    between atoms: C_1  and  C_5
    2  A    between atoms: C_2  and  C_7
    3  A    between atoms: C_2  and  C_21
    4  A    between atoms: C_6  and  C_15
    5  A    between atoms: C_6  and  N_23
    6  A    between atoms: C_15  and  C_21
                            x       y       z     vdW  Elec       q    Type
                         _______ _______ _______ _____ _____    ______ ____

>  <TORSDO>
F 6

$$$$
=
 OpenBabel11052422133D

 25 27  0  0  1  0  0  0  0  0999 V2000
  161.2450  205.6620  149.3440 C   0  0  0  0  0  0  0  0  0  0  0  0
  161.4950  206.9550  150.0310 C   0  0  0  0  0  0  0  0  0  0  0  0
  161.2560  206.9460  147.2520 C   0  0  0  0  0  3  0  0  0  0  0  0
  161.6600  208.0390  147.8310 N   0  0  0  0  0  0  0  0  0  0  0  0
  161.9490  209.4350  149.8350 C   0  0  0  0  0  0  0  0  0  0  0  0
  162.2860  210.5940  149.0810 N   0  0  0  0  0  1  0  0  0  0  0  0
  161.1580  207.1550  151.3060 C   0  0  0  0  0  3  0  0  0  0  0  0
  161.1390  205.6820  148.0090 C   0  0  0  0  0  3  0  0  0  0  0  0
  161.6260  209.5630  151.0870 N   0  0  0  0  0  0  0  0  0  0  0  0
  161.3180  208.4500  151.8910 N   0  0  0  0  0  0  0  0  0  0  0  0
  162.1230  208.0690  149.2220 C   0  0  1  0  0  3  0  0  0  0  0  0
  161.1210  204.3790  150.0860 C   0  0  0  0  0  0  0  0  0  0  0  0
  160.9300  201.9840  151.5520 C   0  0  0  0  0  3  0  0  0  0  0  0
  160.9220  203.1470  149.4250 C   0  0  0  0  0  0  0  0  0  0  0  0
  160.8260  201.9620  150.1600 C   0  0  0  0  0  3  0  0  0  0  0  0
  161.1280  203.1950  152.2160 C   0  0  0  0  0  3  0  0  0  0  0  0
  160.7920  203.0860  148.0750 F   0  0  0  0  0  0  0  0  0  0  0  0
  161.2240  204.3830  151.4870 C   0  0  0  0  0  3  0  0  0  0  0  0
  160.9700  208.6500  153.2860 C   0  0  0  0  0  2  0  0  0  0  0  0
  161.2160  207.3710  154.0690 C   0  0  0  0  0  2  0  0  0  0  0  0
  160.8730  207.5720  155.5380 C   0  0  2  0  0  3  0  0  0  0  0  0
  159.5130  206.9730  155.8460 C   0  0  0  0  0  1  0  0  0  0  0  0
  160.9330  209.0450  155.9510 C   0  0  0  0  0  2  0  0  0  0  0  0
  162.2490  209.4080  156.6240 C   0  0  0  0  0  2  0  0  0  0  0  0
  162.7770  210.6990  156.0350 C   0  0  0  0  0  1  0  0  0  0  0  0
  1  2  1  0  0  0  0
  1 12  1  0  0  0  0
  2  7  2  0  0  0  0
  3  4  2  0  0  0  0
  3  8  1  0  0  0  0
  5  9  2  0  0  0  0
  6  5  1  0  0  0  0
  7 10  1  0  0  0  0
  8  1  2  0  0  0  0
  9 10  1  0  0  0  0
 10 19  1  0  0  0  0
 11  4  1  6  0  0  0
 11  5  1  0  0  0  0
 11  2  1  0  0  0  0
 12 18  1  0  0  0  0
 13 16  1  0  0  0  0
 14 12  2  0  0  0  0
 14 15  1  0  0  0  0
 15 13  2  0  0  0  0
 17 14  1  0  0  0  0
 18 16  2  0  0  0  0
 19 20  1  0  0  0  0
 20 21  1  0  0  0  0
 21 22  1  6  0  0  0
 21 23  1  0  0  0  0
 23 24  1  0  0  0  0
 25 24  1  0  0  0  0
M  END
>  <MODEL>
9

>  <REMARK>
 VINA RESULT:      -6.6      2.984      6.936
  Name = 
  6 active torsions:
  status: ('A' for Active; 'I' for Inactive)
    1  A    between atoms: C_1  and  C_5
    2  A    between atoms: C_2  and  C_7
    3  A    between atoms: C_2  and  C_21
    4  A    between atoms: C_6  and  C_15
    5  A    between atoms: C_6  and  N_23
    6  A    between atoms: C_15  and  C_21
                            x       y       z     vdW  Elec       q    Type
                         _______ _______ _______ _____ _____    ______ ____

>  <TORSDO>
F 6

$$$$
