=
 OpenBabel11052423003D

 28 31  0  0  1  0  0  0  0  0999 V2000
  161.1510  204.7470  149.3960 C   0  0  0  0  0  0  0  0  0  0  0  0
  161.4280  206.9200  154.2570 C   0  0  0  0  0  2  0  0  0  0  0  0
  162.0330  209.4820  148.4950 C   0  0  0  0  0  1  0  0  0  0  0  0
  160.9090  209.2950  153.4620 C   0  0  1  0  0  3  0  0  0  0  0  0
  161.8980  207.5200  151.8620 C   0  0  1  0  0  3  0  0  0  0  0  0
  159.9310  208.4930  155.6290 C   0  0  2  0  0  3  0  0  0  0  0  0
  160.9980  207.7930  153.0760 C   0  0  1  0  0  3  0  0  0  0  0  0
  161.9960  210.0140  151.3490 C   0  0  0  0  0  2  0  0  0  0  0  0
  160.8320  209.5330  154.9730 C   0  0  0  0  0  2  0  0  0  0  0  0
  161.6390  207.1030  149.0180 C   0  0  0  0  0  0  0  0  0  0  0  0
  161.5250  206.2080  151.2400 C   0  0  0  0  0  3  0  0  0  0  0  0
  162.0480  210.1100  152.8690 C   0  0  0  0  0  2  0  0  0  0  0  0
  161.3210  205.6360  147.1630 C   0  0  0  0  0  3  0  0  0  0  0  0
  161.8510  208.3560  149.4690 C   0  0  0  0  0  0  0  0  0  0  0  0
  161.5810  206.8660  147.6750 N   0  0  0  0  0  0  0  0  0  0  0  0
  159.7870  208.7910  157.1060 C   0  0  0  0  0  1  0  0  0  0  0  0
  160.4650  207.0660  155.4400 C   0  0  0  0  0  2  0  0  0  0  0  0
  161.8630  208.6270  150.8880 N   0  0  0  0  0  0  0  0  0  0  0  0
  161.0940  204.5580  148.0150 C   0  0  0  0  0  3  0  0  0  0  0  0
  161.4400  206.0270  149.9170 C   0  0  0  0  0  0  0  0  0  0  0  0
  160.8750  203.5770  150.2890 C   0  0  0  0  0  2  0  0  0  0  0  0
  160.0920  202.5210  149.5290 C   0  0  0  0  0  2  0  0  0  0  0  0
  160.7910  201.1750  149.6300 C   0  0  0  0  0  2  0  0  0  0  0  0
  161.7030  200.9400  148.4300 C   0  0  0  0  0  2  0  0  0  0  0  0
  160.9200  200.6390  147.1540 C   0  0  2  0  0  3  0  0  0  0  0  0
  161.4690  199.5500  146.4970 F   0  0  0  0  0  0  0  0  0  0  0  0
  160.1280  201.3650  145.2180 C   0  0  0  0  0  1  0  0  0  0  0  0
  160.9070  201.7520  146.3080 O   0  0  0  0  0  0  0  0  0  0  0  0
  1 20  1  0  0  0  0
  1 21  1  0  0  0  0
  2 17  1  0  0  0  0
  3 14  1  0  0  0  0
  4 12  1  1  0  0  0
  4  9  1  0  0  0  0
  5 11  1  6  0  0  0
  5  7  1  0  0  0  0
  6 16  1  1  0  0  0
  7  4  1  0  0  0  0
  7  2  1  1  0  0  0
  8 12  1  0  0  0  0
  9  6  1  0  0  0  0
 10 14  2  0  0  0  0
 10 20  1  0  0  0  0
 13 15  2  0  0  0  0
 13 19  1  0  0  0  0
 14 18  1  0  0  0  0
 15 10  1  0  0  0  0
 17  6  1  0  0  0  0
 18  8  1  0  0  0  0
 18  5  1  0  0  0  0
 19  1  2  0  0  0  0
 20 11  2  0  0  0  0
 22 23  1  0  0  0  0
 22 21  1  0  0  0  0
 24 23  1  0  0  0  0
 25 26  1  6  0  0  0
 25 24  1  0  0  0  0
 27 28  1  0  0  0  0
 28 25  1  0  0  0  0
M  END
>  <MODEL>
1

>  <REMARK>
 VINA RESULT:      -9.4      0.000      0.000
  Name = 
  6 active torsions:
  status: ('A' for Active; 'I' for Inactive)
    1  A    between atoms: C_1  and  C_2
    2  A    between atoms: C_2  and  C_3
    3  A    between atoms: C_3  and  C_8
    4  A    between atoms: C_6  and  C_11
    5  A    between atoms: C_6  and  O_28
    6  A    between atoms: C_8  and  C_11
                            x       y       z     vdW  Elec       q    Type
                         _______ _______ _______ _____ _____    ______ ____

>  <TORSDO>
F 6

$$$$
=
 OpenBabel11052423003D

 28 31  0  0  1  0  0  0  0  0999 V2000
  161.1980  207.6330  152.8760 C   0  0  0  0  0  0  0  0  0  0  0  0
  160.1650  203.3910  149.8140 C   0  0  0  0  0  2  0  0  0  0  0  0
  162.2100  209.2050  148.3460 C   0  0  0  0  0  1  0  0  0  0  0  0
  161.6390  204.1620  147.8710 C   0  0  1  0  0  3  0  0  0  0  0  0
  160.6690  205.8430  149.5820 C   0  0  1  0  0  3  0  0  0  0  0  0
  161.5930  201.7280  148.4770 C   0  0  2  0  0  3  0  0  0  0  0  0
  161.1930  204.4200  149.3370 C   0  0  1  0  0  3  0  0  0  0  0  0
  161.5430  206.5780  147.3040 C   0  0  0  0  0  2  0  0  0  0  0  0
  161.3230  202.7480  147.3760 C   0  0  0  0  0  2  0  0  0  0  0  0
  161.6370  208.3670  150.5950 C   0  0  0  0  0  0  0  0  0  0  0  0
  160.7700  206.1750  151.0410 C   0  0  0  0  0  3  0  0  0  0  0  0
  161.0630  205.1880  146.9060 C   0  0  0  0  0  2  0  0  0  0  0  0
  162.0150  209.8540  152.4230 C   0  0  0  0  0  3  0  0  0  0  0  0
  161.7130  208.1320  149.2700 C   0  0  0  0  0  0  0  0  0  0  0  0
  162.0220  209.5770  151.0930 N   0  0  0  0  0  0  0  0  0  0  0  0
  161.3670  200.3270  147.9500 C   0  0  0  0  0  1  0  0  0  0  0  0
  160.7130  201.9640  149.7110 C   0  0  0  0  0  2  0  0  0  0  0  0
  161.3550  206.8380  148.7370 N   0  0  0  0  0  0  0  0  0  0  0  0
  161.6100  208.8840  153.3360 C   0  0  0  0  0  3  0  0  0  0  0  0
  161.1920  207.3630  151.4900 C   0  0  0  0  0  0  0  0  0  0  0  0
  160.7950  206.5990  153.8810 C   0  0  0  0  0  2  0  0  0  0  0  0
  161.1650  207.0660  155.2780 C   0  0  0  0  0  2  0  0  0  0  0  0
  159.9100  207.3160  156.0980 C   0  0  0  0  0  2  0  0  0  0  0  0
  160.1720  208.3290  157.2080 C   0  0  0  0  0  2  0  0  0  0  0  0
  159.9700  209.7690  156.7410 C   0  0  2  0  0  3  0  0  0  0  0  0
  159.2270  209.7960  155.5720 F   0  0  0  0  0  0  0  0  0  0  0  0
  160.9010  211.5380  155.7890 C   0  0  0  0  0  1  0  0  0  0  0  0
  161.2000  210.4020  156.5430 O   0  0  0  0  0  0  0  0  0  0  0  0
  1 19  2  0  0  0  0
  1 21  1  0  0  0  0
  3 14  1  0  0  0  0
  4 12  1  6  0  0  0
  4  7  1  0  0  0  0
  5 11  1  1  0  0  0
  6 16  1  6  0  0  0
  6 17  1  0  0  0  0
  7  5  1  0  0  0  0
  7  2  1  6  0  0  0
  8 18  1  0  0  0  0
  9  4  1  0  0  0  0
  9  6  1  0  0  0  0
 10 15  1  0  0  0  0
 10 20  1  0  0  0  0
 11 20  2  0  0  0  0
 12  8  1  0  0  0  0
 13 19  1  0  0  0  0
 14 10  2  0  0  0  0
 15 13  2  0  0  0  0
 17  2  1  0  0  0  0
 18 14  1  0  0  0  0
 18  5  1  0  0  0  0
 20  1  1  0  0  0  0
 21 22  1  0  0  0  0
 22 23  1  0  0  0  0
 23 24  1  0  0  0  0
 25 26  1  6  0  0  0
 25 24  1  0  0  0  0
 27 28  1  0  0  0  0
 28 25  1  0  0  0  0
M  END
>  <MODEL>
2

>  <REMARK>
 VINA RESULT:      -8.9      3.776      8.111
  Name = 
  6 active torsions:
  status: ('A' for Active; 'I' for Inactive)
    1  A    between atoms: C_1  and  C_2
    2  A    between atoms: C_2  and  C_3
    3  A    between atoms: C_3  and  C_8
    4  A    between atoms: C_6  and  C_11
    5  A    between atoms: C_6  and  O_28
    6  A    between atoms: C_8  and  C_11
                            x       y       z     vdW  Elec       q    Type
                         _______ _______ _______ _____ _____    ______ ____

>  <TORSDO>
F 6

$$$$
=
 OpenBabel11052423003D

 28 31  0  0  1  0  0  0  0  0999 V2000
  160.3840  211.2320  152.8780 C   0  0  0  0  0  0  0  0  0  0  0  0
  162.0380  207.4780  149.4710 C   0  0  0  0  0  2  0  0  0  0  0  0
  160.3950  207.1440  155.5800 C   0  0  0  0  0  1  0  0  0  0  0  0
  161.0290  205.5310  150.7870 C   0  0  1  0  0  3  0  0  0  0  0  0
  161.6100  207.7780  151.9300 C   0  0  1  0  0  3  0  0  0  0  0  0
  160.9280  205.4920  148.2810 C   0  0  2  0  0  3  0  0  0  0  0  0
  161.1450  207.0740  150.6470 C   0  0  1  0  0  3  0  0  0  0  0  0
  161.2590  205.6320  153.2580 C   0  0  0  0  0  2  0  0  0  0  0  0
  161.4380  204.7700  149.5230 C   0  0  0  0  0  2  0  0  0  0  0  0
  160.4580  209.1740  154.1790 C   0  0  0  0  0  0  0  0  0  0  0  0
  161.1950  209.2180  151.8960 C   0  0  0  0  0  3  0  0  0  0  0  0
  161.8070  205.0020  151.9830 C   0  0  0  0  0  2  0  0  0  0  0  0
  159.6970  211.1980  155.1870 C   0  0  0  0  0  3  0  0  0  0  0  0
  160.6720  207.8470  154.2840 C   0  0  0  0  0  0  0  0  0  0  0  0
  159.9790  209.8710  155.2490 N   0  0  0  0  0  0  0  0  0  0  0  0
  161.2560  204.6850  147.0430 C   0  0  0  0  0  1  0  0  0  0  0  0
  161.5190  206.9020  148.1500 C   0  0  0  0  0  2  0  0  0  0  0  0
  161.1310  207.0900  153.1430 N   0  0  0  0  0  0  0  0  0  0  0  0
  159.8880  211.8980  153.9990 C   0  0  0  0  0  3  0  0  0  0  0  0
  160.6910  209.8560  152.9590 C   0  0  0  0  0  0  0  0  0  0  0  0
  160.5520  212.0020  151.6050 C   0  0  0  0  0  2  0  0  0  0  0  0
  159.5720  213.1620  151.5700 C   0  0  0  0  0  2  0  0  0  0  0  0
  159.5190  213.7630  150.1750 C   0  0  0  0  0  2  0  0  0  0  0  0
  160.7620  213.3930  149.3710 C   0  0  0  0  0  2  0  0  0  0  0  0
  160.4290  212.9980  147.9340 C   0  0  2  0  0  3  0  0  0  0  0  0
  159.0620  212.8310  147.7850 F   0  0  0  0  0  0  0  0  0  0  0  0
  162.2900  211.8540  148.3010 C   0  0  0  0  0  1  0  0  0  0  0  0
  161.0970  211.8230  147.5780 O   0  0  0  0  0  0  0  0  0  0  0  0
  1 20  1  0  0  0  0
  1 19  2  0  0  0  0
  4  9  1  6  0  0  0
  4 12  1  0  0  0  0
  5 11  1  6  0  0  0
  5 18  1  0  0  0  0
  6 16  1  6  0  0  0
  6  9  1  0  0  0  0
  7  2  1  6  0  0  0
  7  4  1  0  0  0  0
  7  5  1  0  0  0  0
 10 14  2  0  0  0  0
 10 15  1  0  0  0  0
 11 20  2  0  0  0  0
 12  8  1  0  0  0  0
 13 15  2  0  0  0  0
 14  3  1  0  0  0  0
 17  6  1  0  0  0  0
 17  2  1  0  0  0  0
 18  8  1  0  0  0  0
 18 14  1  0  0  0  0
 19 13  1  0  0  0  0
 20 10  1  0  0  0  0
 21  1  1  0  0  0  0
 22 21  1  0  0  0  0
 23 22  1  0  0  0  0
 24 23  1  0  0  0  0
 25 26  1  1  0  0  0
 25 24  1  0  0  0  0
 28 25  1  0  0  0  0
 28 27  1  0  0  0  0
M  END
>  <MODEL>
3

>  <REMARK>
 VINA RESULT:      -8.1      3.922      8.315
  Name = 
  6 active torsions:
  status: ('A' for Active; 'I' for Inactive)
    1  A    between atoms: C_1  and  C_2
    2  A    between atoms: C_2  and  C_3
    3  A    between atoms: C_3  and  C_8
    4  A    between atoms: C_6  and  C_11
    5  A    between atoms: C_6  and  O_28
    6  A    between atoms: C_8  and  C_11
                            x       y       z     vdW  Elec       q    Type
                         _______ _______ _______ _____ _____    ______ ____

>  <TORSDO>
F 6

$$$$
=
 OpenBabel11052423003D

 28 31  0  0  1  0  0  0  0  0999 V2000
  161.6990  209.6590  150.3090 C   0  0  0  0  0  0  0  0  0  0  0  0
  162.2310  204.7780  148.2290 C   0  0  0  0  0  2  0  0  0  0  0  0
  160.6990  206.6850  154.0730 C   0  0  0  0  0  1  0  0  0  0  0  0
  160.7770  203.6310  149.9940 C   0  0  1  0  0  3  0  0  0  0  0  0
  161.9540  205.8850  150.4690 C   0  0  1  0  0  3  0  0  0  0  0  0
  160.6110  202.8860  147.6030 C   0  0  2  0  0  3  0  0  0  0  0  0
  161.2910  204.9800  149.4200 C   0  0  1  0  0  3  0  0  0  0  0  0
  161.0830  204.3890  152.3380 C   0  0  0  0  0  2  0  0  0  0  0  0
  160.9420  202.4540  149.0280 C   0  0  0  0  0  2  0  0  0  0  0  0
  161.2610  208.1260  152.1500 C   0  0  0  0  0  0  0  0  0  0  0  0
  161.9300  207.3080  149.9970 C   0  0  0  0  0  3  0  0  0  0  0  0
  161.4170  203.2940  151.3320 C   0  0  0  0  0  2  0  0  0  0  0  0
  161.0820  210.4820  152.4870 C   0  0  0  0  0  3  0  0  0  0  0  0
  161.1220  206.8800  152.6460 C   0  0  0  0  0  0  0  0  0  0  0  0
  161.0070  209.2050  152.9450 N   0  0  0  0  0  0  0  0  0  0  0  0
  160.6870  201.6950  146.6720 C   0  0  0  0  0  1  0  0  0  0  0  0
  161.5480  203.9940  147.1030 C   0  0  0  0  0  2  0  0  0  0  0  0
  161.3390  205.7300  151.8000 N   0  0  0  0  0  0  0  0  0  0  0  0
  161.4220  210.7290  151.1600 C   0  0  0  0  0  3  0  0  0  0  0  0
  161.6360  208.3370  150.8010 C   0  0  0  0  0  0  0  0  0  0  0  0
  162.0330  209.9510  148.8790 C   0  0  0  0  0  2  0  0  0  0  0  0
  162.3780  211.4220  148.7200 C   0  0  0  0  0  2  0  0  0  0  0  0
  161.5510  212.0360  147.6020 C   0  0  0  0  0  2  0  0  0  0  0  0
  162.3060  213.1750  146.9230 C   0  0  0  0  0  2  0  0  0  0  0  0
  161.9540  213.3050  145.4430 C   0  0  2  0  0  3  0  0  0  0  0  0
  160.9070  212.4580  145.1210 F   0  0  0  0  0  0  0  0  0  0  0  0
  162.5660  212.9690  143.3420 C   0  0  0  0  0  1  0  0  0  0  0  0
  163.0650  213.0200  144.6440 O   0  0  0  0  0  0  0  0  0  0  0  0
  1 20  1  0  0  0  0
  1 19  2  0  0  0  0
  4  9  1  6  0  0  0
  4 12  1  0  0  0  0
  5 11  1  6  0  0  0
  5 18  1  0  0  0  0
  6 16  1  6  0  0  0
  6  9  1  0  0  0  0
  7  2  1  6  0  0  0
  7  4  1  0  0  0  0
  7  5  1  0  0  0  0
 10 14  2  0  0  0  0
 10 15  1  0  0  0  0
 11 20  2  0  0  0  0
 12  8  1  0  0  0  0
 13 15  2  0  0  0  0
 14  3  1  0  0  0  0
 17  6  1  0  0  0  0
 17  2  1  0  0  0  0
 18  8  1  0  0  0  0
 18 14  1  0  0  0  0
 19 13  1  0  0  0  0
 20 10  1  0  0  0  0
 21  1  1  0  0  0  0
 22 21  1  0  0  0  0
 23 22  1  0  0  0  0
 24 23  1  0  0  0  0
 25 26  1  6  0  0  0
 25 24  1  0  0  0  0
 27 28  1  0  0  0  0
 28 25  1  0  0  0  0
M  END
>  <MODEL>
4

>  <REMARK>
 VINA RESULT:      -7.8      3.933      8.181
  Name = 
  6 active torsions:
  status: ('A' for Active; 'I' for Inactive)
    1  A    between atoms: C_1  and  C_2
    2  A    between atoms: C_2  and  C_3
    3  A    between atoms: C_3  and  C_8
    4  A    between atoms: C_6  and  C_11
    5  A    between atoms: C_6  and  O_28
    6  A    between atoms: C_8  and  C_11
                            x       y       z     vdW  Elec       q    Type
                         _______ _______ _______ _____ _____    ______ ____

>  <TORSDO>
F 6

$$$$
=
 OpenBabel11052423003D

 28 31  0  0  1  0  0  0  0  0999 V2000
  161.3710  205.2110  148.1960 C   0  0  0  0  0  0  0  0  0  0  0  0
  161.7120  206.2580  153.4130 C   0  0  0  0  0  2  0  0  0  0  0  0
  161.9560  210.0740  148.3620 C   0  0  0  0  0  1  0  0  0  0  0  0
  161.0340  208.7140  153.1860 C   0  0  1  0  0  3  0  0  0  0  0  0
  162.0580  207.4060  151.2040 C   0  0  1  0  0  3  0  0  0  0  0  0
  160.1850  207.3880  155.1400 C   0  0  2  0  0  3  0  0  0  0  0  0
  161.1900  207.3440  152.4700 C   0  0  1  0  0  3  0  0  0  0  0  0
  161.9980  209.9520  151.2620 C   0  0  0  0  0  2  0  0  0  0  0  0
  161.0010  208.6030  154.7140 C   0  0  0  0  0  2  0  0  0  0  0  0
  161.7130  207.6180  148.3460 C   0  0  0  0  0  0  0  0  0  0  0  0
  161.7340  206.2440  150.3120 C   0  0  0  0  0  3  0  0  0  0  0  0
  162.1020  209.7100  152.7630 C   0  0  0  0  0  2  0  0  0  0  0  0
  161.4070  206.5850  146.2170 C   0  0  0  0  0  3  0  0  0  0  0  0
  161.8730  208.7490  149.0620 C   0  0  0  0  0  0  0  0  0  0  0  0
  161.6180  207.6840  146.9860 N   0  0  0  0  0  0  0  0  0  0  0  0
  160.0810  207.3400  156.6500 C   0  0  0  0  0  1  0  0  0  0  0  0
  160.7890  206.0760  154.6230 C   0  0  0  0  0  2  0  0  0  0  0  0
  161.9250  208.6970  150.5050 N   0  0  0  0  0  0  0  0  0  0  0  0
  161.2730  205.3320  146.8100 C   0  0  0  0  0  3  0  0  0  0  0  0
  161.6090  206.3580  148.9840 C   0  0  0  0  0  0  0  0  0  0  0  0
  161.1940  203.8570  148.8100 C   0  0  0  0  0  2  0  0  0  0  0  0
  161.2060  202.7930  147.7250 C   0  0  0  0  0  2  0  0  0  0  0  0
  160.6350  201.4910  148.2620 C   0  0  0  0  0  2  0  0  0  0  0  0
  161.4820  200.9540  149.4130 C   0  0  0  0  0  2  0  0  0  0  0  0
  160.8310  201.1900  150.7730 C   0  0  2  0  0  3  0  0  0  0  0  0
  159.5940  201.7940  150.6170 F   0  0  0  0  0  0  0  0  0  0  0  0
  160.8320  203.0260  152.0110 C   0  0  0  0  0  1  0  0  0  0  0  0
  161.6510  201.9810  151.5830 O   0  0  0  0  0  0  0  0  0  0  0  0
  1 21  1  0  0  0  0
  1 20  1  0  0  0  0
  2 17  1  0  0  0  0
  3 14  1  0  0  0  0
  4 12  1  1  0  0  0
  4  9  1  0  0  0  0
  5 11  1  6  0  0  0
  5  7  1  0  0  0  0
  6 16  1  1  0  0  0
  7  4  1  0  0  0  0
  7  2  1  1  0  0  0
  8 12  1  0  0  0  0
  9  6  1  0  0  0  0
 10 20  1  0  0  0  0
 10 14  2  0  0  0  0
 13 19  1  0  0  0  0
 13 15  2  0  0  0  0
 14 18  1  0  0  0  0
 15 10  1  0  0  0  0
 17  6  1  0  0  0  0
 18  5  1  0  0  0  0
 18  8  1  0  0  0  0
 19  1  2  0  0  0  0
 20 11  2  0  0  0  0
 22 23  1  0  0  0  0
 22 21  1  0  0  0  0
 23 24  1  0  0  0  0
 24 25  1  0  0  0  0
 25 26  1  6  0  0  0
 25 28  1  0  0  0  0
 28 27  1  0  0  0  0
M  END
>  <MODEL>
5

>  <REMARK>
 VINA RESULT:      -7.5      1.754      2.287
  Name = 
  6 active torsions:
  status: ('A' for Active; 'I' for Inactive)
    1  A    between atoms: C_1  and  C_2
    2  A    between atoms: C_2  and  C_3
    3  A    between atoms: C_3  and  C_8
    4  A    between atoms: C_6  and  C_11
    5  A    between atoms: C_6  and  O_28
    6  A    between atoms: C_8  and  C_11
                            x       y       z     vdW  Elec       q    Type
                         _______ _______ _______ _____ _____    ______ ____

>  <TORSDO>
F 6

$$$$
=
 OpenBabel11052423003D

 28 31  0  0  1  0  0  0  0  0999 V2000
  161.4610  208.0360  152.4620 C   0  0  0  0  0  0  0  0  0  0  0  0
  162.3300  206.2990  147.4950 C   0  0  0  0  0  2  0  0  0  0  0  0
  160.6220  203.2180  152.7610 C   0  0  0  0  0  1  0  0  0  0  0  0
  160.9370  204.1710  147.7640 C   0  0  1  0  0  3  0  0  0  0  0  0
  161.9600  205.3830  149.8070 C   0  0  1  0  0  3  0  0  0  0  0  0
  160.8420  205.4250  145.5930 C   0  0  2  0  0  3  0  0  0  0  0  0
  161.3670  205.5230  148.3970 C   0  0  1  0  0  3  0  0  0  0  0  0
  161.1700  202.9630  149.9210 C   0  0  0  0  0  2  0  0  0  0  0  0
  161.1880  204.0960  146.2550 C   0  0  0  0  0  2  0  0  0  0  0  0
  161.1070  205.6280  152.5540 C   0  0  0  0  0  0  0  0  0  0  0  0
  161.8480  206.6900  150.5340 C   0  0  0  0  0  3  0  0  0  0  0  0
  161.5850  202.9800  148.4540 C   0  0  0  0  0  2  0  0  0  0  0  0
  160.7710  206.9610  154.5040 C   0  0  0  0  0  3  0  0  0  0  0  0
  161.0440  204.4170  151.9640 C   0  0  0  0  0  0  0  0  0  0  0  0
  160.7750  205.7600  153.8700 N   0  0  0  0  0  0  0  0  0  0  0  0
  161.0050  205.3130  144.0920 C   0  0  0  0  0  1  0  0  0  0  0  0
  161.7100  206.5760  146.1220 C   0  0  0  0  0  2  0  0  0  0  0  0
  161.3440  204.2750  150.5590 N   0  0  0  0  0  0  0  0  0  0  0  0
  161.1070  208.1190  153.8080 C   0  0  0  0  0  3  0  0  0  0  0  0
  161.4800  206.7800  151.8180 C   0  0  0  0  0  0  0  0  0  0  0  0
  161.7890  209.3000  151.7290 C   0  0  0  0  0  2  0  0  0  0  0  0
  161.5180  210.4990  152.6220 C   0  0  0  0  0  2  0  0  0  0  0  0
  160.3960  211.3430  152.0400 C   0  0  0  0  0  2  0  0  0  0  0  0
  159.0790  211.0790  152.7630 C   0  0  0  0  0  2  0  0  0  0  0  0
  158.9950  211.8060  154.1040 C   0  0  2  0  0  3  0  0  0  0  0  0
  159.8110  212.9250  154.0960 F   0  0  0  0  0  0  0  0  0  0  0  0
  160.2110  211.7150  155.9510 C   0  0  0  0  0  1  0  0  0  0  0  0
  159.3580  210.9550  155.1510 O   0  0  0  0  0  0  0  0  0  0  0  0
  1 19  2  0  0  0  0
  4  9  1  6  0  0  0
  4  7  1  0  0  0  0
  4 12  1  0  0  0  0
  5 11  1  1  0  0  0
  5 18  1  0  0  0  0
  6 16  1  6  0  0  0
  6 17  1  0  0  0  0
  6  9  1  0  0  0  0
  7  2  1  6  0  0  0
  7  5  1  0  0  0  0
  8 18  1  0  0  0  0
 10 15  1  0  0  0  0
 11 20  2  0  0  0  0
 12  8  1  0  0  0  0
 14 10  2  0  0  0  0
 14  3  1  0  0  0  0
 15 13  2  0  0  0  0
 17  2  1  0  0  0  0
 18 14  1  0  0  0  0
 19 13  1  0  0  0  0
 20  1  1  0  0  0  0
 20 10  1  0  0  0  0
 21  1  1  0  0  0  0
 21 22  1  0  0  0  0
 23 22  1  0  0  0  0
 23 24  1  0  0  0  0
 24 25  1  0  0  0  0
 25 26  1  6  0  0  0
 25 28  1  0  0  0  0
 28 27  1  0  0  0  0
M  END
>  <MODEL>
6

>  <REMARK>
 VINA RESULT:      -6.8      4.267      8.842
  Name = 
  6 active torsions:
  status: ('A' for Active; 'I' for Inactive)
    1  A    between atoms: C_1  and  C_2
    2  A    between atoms: C_2  and  C_3
    3  A    between atoms: C_3  and  C_8
    4  A    between atoms: C_6  and  C_11
    5  A    between atoms: C_6  and  O_28
    6  A    between atoms: C_8  and  C_11
                            x       y       z     vdW  Elec       q    Type
                         _______ _______ _______ _____ _____    ______ ____

>  <TORSDO>
F 6

$$$$
=
 OpenBabel11052423003D

 28 31  0  0  1  0  0  0  0  0999 V2000
  161.2080  203.8050  149.6210 C   0  0  0  0  0  0  0  0  0  0  0  0
  161.2060  209.0440  148.6270 C   0  0  0  0  0  2  0  0  0  0  0  0
  161.1460  205.8270  154.0840 C   0  0  0  0  0  1  0  0  0  0  0  0
  162.1300  209.7000  150.9200 C   0  0  1  0  0  3  0  0  0  0  0  0
  160.8880  207.4600  150.5530 C   0  0  1  0  0  3  0  0  0  0  0  0
  162.9180  210.9400  148.8870 C   0  0  2  0  0  3  0  0  0  0  0  0
  161.7980  208.5370  149.9440 C   0  0  1  0  0  3  0  0  0  0  0  0
  161.2190  208.4640  152.8720 C   0  0  0  0  0  2  0  0  0  0  0  0
  162.2170  211.0660  150.2350 C   0  0  0  0  0  2  0  0  0  0  0  0
  161.1280  204.8720  151.8090 C   0  0  0  0  0  0  0  0  0  0  0  0
  161.0480  206.1760  149.7970 C   0  0  0  0  0  3  0  0  0  0  0  0
  161.1540  209.7680  152.0860 C   0  0  0  0  0  2  0  0  0  0  0  0
  161.2310  202.4940  151.6420 C   0  0  0  0  0  3  0  0  0  0  0  0
  161.1200  205.9710  152.5910 C   0  0  0  0  0  0  0  0  0  0  0  0
  161.1710  203.6340  152.3790 N   0  0  0  0  0  0  0  0  0  0  0  0
  163.0820  212.3080  148.2600 C   0  0  0  0  0  1  0  0  0  0  0  0
  162.1570  210.0190  147.9240 C   0  0  0  0  0  2  0  0  0  0  0  0
  161.1260  207.2880  151.9980 N   0  0  0  0  0  0  0  0  0  0  0  0
  161.2580  202.5620  150.2520 C   0  0  0  0  0  3  0  0  0  0  0  0
  161.1270  204.9820  150.3970 C   0  0  0  0  0  0  0  0  0  0  0  0
  161.2680  203.8510  148.1250 C   0  0  0  0  0  2  0  0  0  0  0  0
  161.1420  202.4460  147.5610 C   0  0  0  0  0  2  0  0  0  0  0  0
  161.2050  202.4830  146.0430 C   0  0  0  0  0  2  0  0  0  0  0  0
  160.7530  203.8390  145.5080 C   0  0  0  0  0  2  0  0  0  0  0  0
  161.9010  204.6310  144.8860 C   0  0  2  0  0  3  0  0  0  0  0  0
  163.1190  204.1130  145.2930 F   0  0  0  0  0  0  0  0  0  0  0  0
  160.4580  206.2020  145.4800 C   0  0  0  0  0  1  0  0  0  0  0  0
  161.8140  205.9820  145.2330 O   0  0  0  0  0  0  0  0  0  0  0  0
  1 19  2  0  0  0  0
  1 20  1  0  0  0  0
  4  9  1  6  0  0  0
  4 12  1  0  0  0  0
  5 11  1  6  0  0  0
  5 18  1  0  0  0  0
  6 16  1  6  0  0  0
  6  9  1  0  0  0  0
  7  2  1  6  0  0  0
  7  5  1  0  0  0  0
  7  4  1  0  0  0  0
 10 15  1  0  0  0  0
 10 14  2  0  0  0  0
 11 20  2  0  0  0  0
 12  8  1  0  0  0  0
 13 15  2  0  0  0  0
 14  3  1  0  0  0  0
 17  2  1  0  0  0  0
 17  6  1  0  0  0  0
 18 14  1  0  0  0  0
 18  8  1  0  0  0  0
 19 13  1  0  0  0  0
 20 10  1  0  0  0  0
 21  1  1  0  0  0  0
 22 21  1  0  0  0  0
 23 22  1  0  0  0  0
 24 23  1  0  0  0  0
 25 28  1  0  0  0  0
 25 26  1  1  0  0  0
 25 24  1  0  0  0  0
 28 27  1  0  0  0  0
M  END
>  <MODEL>
7

>  <REMARK>
 VINA RESULT:      -6.7      2.224      4.663
  Name = 
  6 active torsions:
  status: ('A' for Active; 'I' for Inactive)
    1  A    between atoms: C_1  and  C_2
    2  A    between atoms: C_2  and  C_3
    3  A    between atoms: C_3  and  C_8
    4  A    between atoms: C_6  and  C_11
    5  A    between atoms: C_6  and  O_28
    6  A    between atoms: C_8  and  C_11
                            x       y       z     vdW  Elec       q    Type
                         _______ _______ _______ _____ _____    ______ ____

>  <TORSDO>
F 6

$$$$
=
 OpenBabel11052423003D

 28 31  0  0  1  0  0  0  0  0999 V2000
  161.9580  208.9840  150.3830 C   0  0  0  0  0  0  0  0  0  0  0  0
  162.0140  203.8670  148.8870 C   0  0  0  0  0  2  0  0  0  0  0  0
  160.6740  206.5780  154.4540 C   0  0  0  0  0  1  0  0  0  0  0  0
  160.4560  203.0780  150.7550 C   0  0  1  0  0  3  0  0  0  0  0  0
  161.8450  205.2480  150.9810 C   0  0  1  0  0  3  0  0  0  0  0  0
  160.2190  202.0800  148.4660 C   0  0  2  0  0  3  0  0  0  0  0  0
  161.0980  204.2950  150.0350 C   0  0  1  0  0  3  0  0  0  0  0  0
  160.8330  204.0700  153.0000 C   0  0  0  0  0  2  0  0  0  0  0  0
  160.5060  201.7860  149.9340 C   0  0  0  0  0  2  0  0  0  0  0  0
  161.3730  207.7250  152.3840 C   0  0  0  0  0  0  0  0  0  0  0  0
  161.9600  206.6020  150.3470 C   0  0  0  0  0  3  0  0  0  0  0  0
  161.0600  202.8390  152.1310 C   0  0  0  0  0  2  0  0  0  0  0  0
  161.4230  210.1110  152.4450 C   0  0  0  0  0  3  0  0  0  0  0  0
  161.1140  206.5650  153.0190 C   0  0  0  0  0  0  0  0  0  0  0  0
  161.2240  208.9090  153.0460 N   0  0  0  0  0  0  0  0  0  0  0  0
  160.1790  200.7880  147.6790 C   0  0  0  0  0  1  0  0  0  0  0  0
  161.2590  203.0270  147.8520 C   0  0  0  0  0  2  0  0  0  0  0  0
  161.2180  205.3090  152.3140 N   0  0  0  0  0  0  0  0  0  0  0  0
  161.7850  210.1680  151.1020 C   0  0  0  0  0  3  0  0  0  0  0  0
  161.7670  207.7410  151.0240 C   0  0  0  0  0  0  0  0  0  0  0  0
  162.3190  209.0750  148.9330 C   0  0  0  0  0  2  0  0  0  0  0  0
  161.2260  208.4430  148.0880 C   0  0  0  0  0  2  0  0  0  0  0  0
  161.7930  207.2920  147.2740 C   0  0  0  0  0  2  0  0  0  0  0  0
  160.6820  206.3630  146.7920 C   0  0  0  0  0  2  0  0  0  0  0  0
  160.6760  206.2030  145.2730 C   0  0  2  0  0  3  0  0  0  0  0  0
  159.7180  205.2790  144.8900 F   0  0  0  0  0  0  0  0  0  0  0  0
  161.9220  204.4140  144.8900 C   0  0  0  0  0  1  0  0  0  0  0  0
  161.9340  205.8070  144.8130 O   0  0  0  0  0  0  0  0  0  0  0  0
  1 20  1  0  0  0  0
  1 19  2  0  0  0  0
  4  9  1  6  0  0  0
  4 12  1  0  0  0  0
  5 11  1  6  0  0  0
  5 18  1  0  0  0  0
  6 16  1  6  0  0  0
  6  9  1  0  0  0  0
  7  2  1  6  0  0  0
  7  4  1  0  0  0  0
  7  5  1  0  0  0  0
 10 14  2  0  0  0  0
 10 15  1  0  0  0  0
 11 20  2  0  0  0  0
 12  8  1  0  0  0  0
 13 15  2  0  0  0  0
 14  3  1  0  0  0  0
 17  6  1  0  0  0  0
 17  2  1  0  0  0  0
 18  8  1  0  0  0  0
 18 14  1  0  0  0  0
 19 13  1  0  0  0  0
 20 10  1  0  0  0  0
 21  1  1  0  0  0  0
 22 21  1  0  0  0  0
 23 22  1  0  0  0  0
 24 23  1  0  0  0  0
 25 26  1  1  0  0  0
 25 24  1  0  0  0  0
 28 27  1  0  0  0  0
 28 25  1  0  0  0  0
M  END
>  <MODEL>
8

>  <REMARK>
 VINA RESULT:      -6.6      2.237      6.272
  Name = 
  6 active torsions:
  status: ('A' for Active; 'I' for Inactive)
    1  A    between atoms: C_1  and  C_2
    2  A    between atoms: C_2  and  C_3
    3  A    between atoms: C_3  and  C_8
    4  A    between atoms: C_6  and  C_11
    5  A    between atoms: C_6  and  O_28
    6  A    between atoms: C_8  and  C_11
                            x       y       z     vdW  Elec       q    Type
                         _______ _______ _______ _____ _____    ______ ____

>  <TORSDO>
F 6

$$$$
=
 OpenBabel11052423003D

 28 31  0  0  1  0  0  0  0  0999 V2000
  161.4420  205.3790  146.8440 C   0  0  0  0  0  0  0  0  0  0  0  0
  160.4560  207.2010  151.7580 C   0  0  0  0  0  2  0  0  0  0  0  0
  161.0940  201.3020  149.5380 C   0  0  0  0  0  1  0  0  0  0  0  0
  161.2860  205.0910  152.9410 C   0  0  1  0  0  3  0  0  0  0  0  0
  160.4720  205.0320  150.4870 C   0  0  1  0  0  3  0  0  0  0  0  0
  161.7940  207.3330  153.9460 C   0  0  2  0  0  3  0  0  0  0  0  0
  161.1560  205.8500  151.5920 C   0  0  1  0  0  3  0  0  0  0  0  0
  160.6560  202.9240  151.9060 C   0  0  0  0  0  2  0  0  0  0  0  0
  161.1070  205.9900  154.1680 C   0  0  0  0  0  2  0  0  0  0  0  0
  161.2080  203.3900  148.2300 C   0  0  0  0  0  0  0  0  0  0  0  0
  160.8510  205.5790  149.1440 C   0  0  0  0  0  3  0  0  0  0  0  0
  160.3380  203.9050  153.0280 C   0  0  0  0  0  2  0  0  0  0  0  0
  161.7450  203.1780  145.9140 C   0  0  0  0  0  3  0  0  0  0  0  0
  161.0130  202.7960  149.4240 C   0  0  0  0  0  0  0  0  0  0  0  0
  161.4900  202.6320  147.1320 N   0  0  0  0  0  0  0  0  0  0  0  0
  161.6910  208.1790  155.1970 C   0  0  0  0  0  1  0  0  0  0  0  0
  161.1970  208.0970  152.7560 C   0  0  0  0  0  2  0  0  0  0  0  0
  160.7650  203.5920  150.6030 N   0  0  0  0  0  0  0  0  0  0  0  0
  161.7320  204.5610  145.7530 C   0  0  0  0  0  3  0  0  0  0  0  0
  161.1600  204.8000  148.1000 C   0  0  0  0  0  0  0  0  0  0  0  0
  161.4640  206.8640  146.6490 C   0  0  0  0  0  2  0  0  0  0  0  0
  162.3320  207.5110  147.7140 C   0  0  0  0  0  2  0  0  0  0  0  0
  161.6520  208.7560  148.2600 C   0  0  0  0  0  2  0  0  0  0  0  0
  162.3310  209.2350  149.5400 C   0  0  0  0  0  2  0  0  0  0  0  0
  162.2540  210.7510  149.7070 C   0  0  2  0  0  3  0  0  0  0  0  0
  161.4370  211.0760  150.7780 F   0  0  0  0  0  0  0  0  0  0  0  0
  162.7050  212.3520  148.2460 C   0  0  0  0  0  1  0  0  0  0  0  0
  161.7760  211.3530  148.5400 O   0  0  0  0  0  0  0  0  0  0  0  0
  1 20  1  0  0  0  0
  2 17  1  0  0  0  0
  4 12  1  6  0  0  0
  4  9  1  0  0  0  0
  5 11  1  6  0  0  0
  5 18  1  0  0  0  0
  5  7  1  0  0  0  0
  6  9  1  0  0  0  0
  6 16  1  1  0  0  0
  7  2  1  1  0  0  0
  7  4  1  0  0  0  0
  8 12  1  0  0  0  0
 10 14  2  0  0  0  0
 13 15  2  0  0  0  0
 14  3  1  0  0  0  0
 14 18  1  0  0  0  0
 15 10  1  0  0  0  0
 17  6  1  0  0  0  0
 18  8  1  0  0  0  0
 19 13  1  0  0  0  0
 19  1  2  0  0  0  0
 20 10  1  0  0  0  0
 20 11  2  0  0  0  0
 21  1  1  0  0  0  0
 21 22  1  0  0  0  0
 22 23  1  0  0  0  0
 23 24  1  0  0  0  0
 24 25  1  0  0  0  0
 25 26  1  1  0  0  0
 27 28  1  0  0  0  0
 28 25  1  0  0  0  0
M  END
>  <MODEL>
9

>  <REMARK>
 VINA RESULT:      -6.5      3.516      6.116
  Name = 
  6 active torsions:
  status: ('A' for Active; 'I' for Inactive)
    1  A    between atoms: C_1  and  C_2
    2  A    between atoms: C_2  and  C_3
    3  A    between atoms: C_3  and  C_8
    4  A    between atoms: C_6  and  C_11
    5  A    between atoms: C_6  and  O_28
    6  A    between atoms: C_8  and  C_11
                            x       y       z     vdW  Elec       q    Type
                         _______ _______ _______ _____ _____    ______ ____

>  <TORSDO>
F 6

$$$$
