=
 OpenBabel11052421463D

 30 32  0  0  1  0  0  0  0  0999 V2000
  159.2920  210.8240  153.9650 C   0  0  2  0  0  3  0  0  0  0  0  0
  160.1230  207.8710  154.1180 C   0  0  2  0  0  3  0  0  0  0  0  0
  159.4890  209.3470  156.0620 C   0  0  0  0  0  2  0  0  0  0  0  0
  161.8770  209.9060  151.8020 C   0  0  0  0  0  2  0  0  0  0  0  0
  160.1810  210.3550  155.1580 C   0  0  1  0  0  0  0  0  0  0  0  0
  162.1390  208.7530  152.7620 C   0  0  0  0  0  2  0  0  0  0  0  0
  161.1420  206.7660  153.8830 C   0  0  0  0  0  2  0  0  0  0  0  0
  160.9870  210.9670  152.4330 C   0  0  0  0  0  2  0  0  0  0  0  0
  159.7100  210.4410  152.6700 O   0  0  0  0  0  0  0  0  0  0  0  0
  160.9340  207.8130  152.8120 C   0  0  1  0  0  3  0  0  0  0  0  0
  161.7480  208.5600  155.9240 O   0  0  0  0  0  1  0  0  0  0  0  0
  160.6180  208.8850  155.1650 C   0  0  2  0  0  0  0  0  0  0  0  0
  159.4620  213.2950  154.2890 C   0  0  0  0  0  1  0  0  0  0  0  0
  158.4890  212.1480  154.0300 C   0  0  2  0  0  0  0  0  0  0  0  0
  157.4170  212.0570  155.1540 C   0  0  2  0  0  3  0  0  0  0  0  0
  156.0570  211.6140  154.6180 C   0  0  0  0  0  2  0  0  0  0  0  0
  155.5980  210.3480  155.3160 C   0  0  0  0  0  1  0  0  0  0  0  0
  157.2560  213.3170  155.9620 C   0  0  0  0  0  3  0  0  0  0  0  0
  156.1570  214.0590  155.8620 C   0  0  0  0  0  2  0  0  0  0  0  0
  157.8230  212.3690  152.6610 C   0  0  0  0  0  2  0  0  0  0  0  0
  157.9230  213.6990  152.2410 O   0  0  0  0  0  0  0  0  0  0  0  0
  157.6170  213.6670  150.8800 C   0  0  1  0  0  3  0  0  0  0  0  0
  156.3460  214.4530  150.6300 C   0  0  0  0  0  1  0  0  0  0  0  0
  158.9780  214.4080  149.9350 S   0  0  0  0  0  1  0  0  0  0  0  0
  160.7350  211.5550  157.1890 O   0  0  0  0  0  1  0  0  0  0  0  0
  161.1620  211.2980  155.8870 C   0  0  1  0  0  3  0  0  0  0  0  0
  162.6050  210.8090  155.9000 C   0  0  0  0  0  2  0  0  0  0  0  0
  163.2630  211.0060  157.2590 C   0  0  0  0  0  2  0  0  0  0  0  0
  164.9900  211.7270  155.7690 O   0  0  0  0  0  1  0  0  0  0  0  0
  164.6880  211.5150  157.1140 C   0  0  0  0  0  2  0  0  0  0  0  0
  1 14  1  6  0  0  0
  1  5  1  0  0  0  0
  2  7  1  1  0  0  0
  2 12  1  0  0  0  0
  4  8  1  0  0  0  0
  4  6  1  0  0  0  0
  5 12  1  0  0  0  0
  5 26  1  1  0  0  0
  5  3  1  0  0  0  0
  8  9  1  0  0  0  0
  9  1  1  0  0  0  0
 10  6  1  1  0  0  0
 10  7  1  0  0  0  0
 10  2  1  0  0  0  0
 12 11  1  1  0  0  0
 12  3  1  0  0  0  0
 14 13  1  1  0  0  0
 14 15  1  0  0  0  0
 15 16  1  6  0  0  0
 15 18  1  0  0  0  0
 16 17  1  0  0  0  0
 19 18  2  0  0  0  0
 20 14  1  0  0  0  0
 21 20  1  0  0  0  0
 22 23  1  1  0  0  0
 22 21  1  0  0  0  0
 24 22  1  0  0  0  0
 26 27  1  0  0  0  0
 26 25  1  1  0  0  0
 27 28  1  0  0  0  0
 29 30  1  0  0  0  0
 30 28  1  0  0  0  0
M  END
>  <MODEL>
1

>  <REMARK>
 VINA RESULT:      -3.5      0.000      0.000
  Name = 
  11 active torsions:
  status: ('A' for Active; 'I' for Inactive)
    1  A    between atoms: C_2  and  C_14
    2  A    between atoms: C_3  and  O_19
    3  A    between atoms: C_4  and  C_22
    4  A    between atoms: C_6  and  C_12
    5  A    between atoms: C_6  and  C_17
    6  A    between atoms: C_12  and  C_13
    7  A    between atoms: C_14  and  C_20
    8  A    between atoms: C_14  and  C_22
    9  A    between atoms: C_17  and  C_21
   10  A    between atoms: O_19  and  C_29
   11  A    between atoms: C_22  and  C_29
                            x       y       z     vdW  Elec       q    Type
                         _______ _______ _______ _____ _____    ______ ____

>  <TORSDO>
F 11

$$$$
=
 OpenBabel11052421463D

 30 32  0  0  1  0  0  0  0  0999 V2000
  159.8180  211.8220  139.9340 C   0  0  2  0  0  3  0  0  0  0  0  0
  160.9740  209.0480  139.3010 C   0  0  2  0  0  3  0  0  0  0  0  0
  162.2430  211.0170  140.2350 C   0  0  0  0  0  2  0  0  0  0  0  0
  158.5870  210.3430  137.0190 C   0  0  0  0  0  2  0  0  0  0  0  0
  161.2520  211.7270  139.3260 C   0  0  1  0  0  0  0  0  0  0  0  0
  159.8680  209.5190  137.0130 C   0  0  0  0  0  2  0  0  0  0  0  0
  161.2780  207.9320  138.3120 C   0  0  0  0  0  2  0  0  0  0  0  0
  158.6920  211.5320  137.9620 C   0  0  0  0  0  2  0  0  0  0  0  0
  158.8010  211.0860  139.2850 O   0  0  0  0  0  0  0  0  0  0  0  0
  159.9350  208.6230  138.2490 C   0  0  1  0  0  3  0  0  0  0  0  0
  162.8030  210.2450  138.0360 O   0  0  0  0  0  1  0  0  0  0  0  0
  161.7670  210.3260  138.9740 C   0  0  2  0  0  0  0  0  0  0  0  0
  159.8370  214.3200  139.8950 C   0  0  0  0  0  1  0  0  0  0  0  0
  159.3370  213.1010  140.6660 C   0  0  2  0  0  0  0  0  0  0  0  0
  159.8710  213.1030  142.1270 C   0  0  2  0  0  3  0  0  0  0  0  0
  158.7770  213.4380  143.1390 C   0  0  0  0  0  2  0  0  0  0  0  0
  159.0680  212.7780  144.4740 C   0  0  0  0  0  1  0  0  0  0  0  0
  161.0600  213.9980  142.3530 C   0  0  0  0  0  3  0  0  0  0  0  0
  162.1940  213.5180  142.8550 C   0  0  0  0  0  2  0  0  0  0  0  0
  157.7980  213.1080  140.6500 C   0  0  0  0  0  2  0  0  0  0  0  0
  157.2900  214.0340  139.7330 O   0  0  0  0  0  0  0  0  0  0  0  0
  155.9050  213.8860  139.8070 C   0  0  1  0  0  3  0  0  0  0  0  0
  155.5420  212.4300  139.6050 C   0  0  0  0  0  1  0  0  0  0  0  0
  155.3240  214.4310  141.4380 S   0  0  0  0  0  1  0  0  0  0  0  0
  160.9330  213.3590  137.5630 O   0  0  0  0  0  1  0  0  0  0  0  0
  161.8680  212.8490  138.4640 C   0  0  1  0  0  3  0  0  0  0  0  0
  162.4880  213.9860  139.2680 C   0  0  0  0  0  2  0  0  0  0  0  0
  163.9910  213.8100  139.4410 C   0  0  0  0  0  2  0  0  0  0  0  0
  165.9950  213.7970  138.1350 O   0  0  0  0  0  1  0  0  0  0  0  0
  164.7540  214.4170  138.2750 C   0  0  0  0  0  2  0  0  0  0  0  0
  1 14  1  6  0  0  0
  2  7  1  6  0  0  0
  4  8  1  0  0  0  0
  5 26  1  6  0  0  0
  5  1  1  0  0  0  0
  5  3  1  0  0  0  0
  6  4  1  0  0  0  0
  8  9  1  0  0  0  0
  9  1  1  0  0  0  0
 10  6  1  6  0  0  0
 10  7  1  0  0  0  0
 10  2  1  0  0  0  0
 12 11  1  6  0  0  0
 12  2  1  0  0  0  0
 12  5  1  0  0  0  0
 12  3  1  0  0  0  0
 14 13  1  6  0  0  0
 14 15  1  0  0  0  0
 15 18  1  6  0  0  0
 15 16  1  0  0  0  0
 16 17  1  0  0  0  0
 18 19  2  0  0  0  0
 20 14  1  0  0  0  0
 21 22  1  0  0  0  0
 21 20  1  0  0  0  0
 22 23  1  1  0  0  0
 22 24  1  0  0  0  0
 26 25  1  6  0  0  0
 26 27  1  0  0  0  0
 27 28  1  0  0  0  0
 29 30  1  0  0  0  0
 30 28  1  0  0  0  0
M  END
>  <MODEL>
2

>  <REMARK>
 VINA RESULT:      -2.9     12.225     14.984
  Name = 
  11 active torsions:
  status: ('A' for Active; 'I' for Inactive)
    1  A    between atoms: C_2  and  C_14
    2  A    between atoms: C_3  and  O_19
    3  A    between atoms: C_4  and  C_22
    4  A    between atoms: C_6  and  C_12
    5  A    between atoms: C_6  and  C_17
    6  A    between atoms: C_12  and  C_13
    7  A    between atoms: C_14  and  C_20
    8  A    between atoms: C_14  and  C_22
    9  A    between atoms: C_17  and  C_21
   10  A    between atoms: O_19  and  C_29
   11  A    between atoms: C_22  and  C_29
                            x       y       z     vdW  Elec       q    Type
                         _______ _______ _______ _____ _____    ______ ____

>  <TORSDO>
F 11

$$$$
=
 OpenBabel11052421463D

 30 32  0  0  1  0  0  0  0  0999 V2000
  159.9460  210.0370  153.2770 C   0  0  2  0  0  3  0  0  0  0  0  0
  160.4390  207.2790  152.0180 C   0  0  2  0  0  3  0  0  0  0  0  0
  160.0320  207.7550  154.4610 C   0  0  0  0  0  2  0  0  0  0  0  0
  162.3470  209.9820  150.7400 C   0  0  0  0  0  2  0  0  0  0  0  0
  160.8100  208.9980  154.0580 C   0  0  1  0  0  0  0  0  0  0  0  0
  162.5030  208.4990  151.0540 C   0  0  0  0  0  2  0  0  0  0  0  0
  161.3180  206.3170  151.2320 C   0  0  0  0  0  2  0  0  0  0  0  0
  161.6030  210.7120  151.8480 C   0  0  0  0  0  2  0  0  0  0  0  0
  160.2820  210.2520  151.9200 O   0  0  0  0  0  0  0  0  0  0  0  0
  161.2010  207.7520  150.7680 C   0  0  1  0  0  3  0  0  0  0  0  0
  162.1820  206.9200  153.8090 O   0  0  0  0  0  1  0  0  0  0  0  0
  161.0760  207.6550  153.3680 C   0  0  2  0  0  0  0  0  0  0  0  0
  160.4020  212.0360  154.7040 C   0  0  0  0  0  1  0  0  0  0  0  0
  159.3020  211.2510  153.9930 C   0  0  2  0  0  0  0  0  0  0  0  0
  158.2260  210.7550  155.0010 C   0  0  2  0  0  3  0  0  0  0  0  0
  156.8250  211.2430  154.6330 C   0  0  0  0  0  2  0  0  0  0  0  0
  155.7750  210.2650  155.1270 C   0  0  0  0  0  1  0  0  0  0  0  0
  158.5170  211.0940  156.4380 C   0  0  0  0  0  3  0  0  0  0  0  0
  158.0180  212.1930  156.9980 C   0  0  0  0  0  2  0  0  0  0  0  0
  158.6690  212.1550  152.9220 C   0  0  0  0  0  2  0  0  0  0  0  0
  158.9690  213.5050  153.1340 O   0  0  0  0  0  0  0  0  0  0  0  0
  158.0400  214.2020  152.3620 C   0  0  1  0  0  3  0  0  0  0  0  0
  157.7180  213.4040  151.1160 C   0  0  0  0  0  1  0  0  0  0  0  0
  156.5200  214.4530  153.3230 S   0  0  0  0  0  1  0  0  0  0  0  0
  162.4050  210.6830  154.7570 O   0  0  0  0  0  1  0  0  0  0  0  0
  161.9120  209.4130  155.0550 C   0  0  1  0  0  3  0  0  0  0  0  0
  161.4880  209.3500  156.5180 C   0  0  0  0  0  2  0  0  0  0  0  0
  162.0020  208.0940  157.2090 C   0  0  0  0  0  2  0  0  0  0  0  0
  159.6640  207.5930  157.2230 O   0  0  0  0  0  1  0  0  0  0  0  0
  160.9320  207.0160  157.2610 C   0  0  0  0  0  2  0  0  0  0  0  0
  1 14  1  1  0  0  0
  1  5  1  0  0  0  0
  2  7  1  6  0  0  0
  2 12  1  0  0  0  0
  4  6  1  0  0  0  0
  4  8  1  0  0  0  0
  5  3  1  0  0  0  0
  5 26  1  1  0  0  0
  8  9  1  0  0  0  0
  9  1  1  0  0  0  0
 10  6  1  1  0  0  0
 10  7  1  0  0  0  0
 10  2  1  0  0  0  0
 12 11  1  1  0  0  0
 12  5  1  0  0  0  0
 12  3  1  0  0  0  0
 14 13  1  1  0  0  0
 14 15  1  0  0  0  0
 15 16  1  6  0  0  0
 15 18  1  0  0  0  0
 16 17  1  0  0  0  0
 18 19  2  0  0  0  0
 20 21  1  0  0  0  0
 20 14  1  0  0  0  0
 22 23  1  6  0  0  0
 22 21  1  0  0  0  0
 22 24  1  0  0  0  0
 26 25  1  6  0  0  0
 26 27  1  0  0  0  0
 27 28  1  0  0  0  0
 28 30  1  0  0  0  0
 29 30  1  0  0  0  0
M  END
>  <MODEL>
3

>  <REMARK>
 VINA RESULT:      -2.6      1.897      2.606
  Name = 
  11 active torsions:
  status: ('A' for Active; 'I' for Inactive)
    1  A    between atoms: C_2  and  C_14
    2  A    between atoms: C_3  and  O_19
    3  A    between atoms: C_4  and  C_22
    4  A    between atoms: C_6  and  C_12
    5  A    between atoms: C_6  and  C_17
    6  A    between atoms: C_12  and  C_13
    7  A    between atoms: C_14  and  C_20
    8  A    between atoms: C_14  and  C_22
    9  A    between atoms: C_17  and  C_21
   10  A    between atoms: O_19  and  C_29
   11  A    between atoms: C_22  and  C_29
                            x       y       z     vdW  Elec       q    Type
                         _______ _______ _______ _____ _____    ______ ____

>  <TORSDO>
F 11

$$$$
=
 OpenBabel11052421463D

 30 32  0  0  1  0  0  0  0  0999 V2000
  158.9290  210.8920  155.6550 C   0  0  2  0  0  3  0  0  0  0  0  0
  156.4290  212.5320  156.3590 C   0  0  2  0  0  3  0  0  0  0  0  0
  156.6970  210.9910  154.3810 C   0  0  0  0  0  2  0  0  0  0  0  0
  159.5680  214.0990  156.8820 C   0  0  0  0  0  2  0  0  0  0  0  0
  158.1090  211.5430  154.4990 C   0  0  1  0  0  0  0  0  0  0  0  0
  158.1600  214.4500  156.4190 C   0  0  0  0  0  2  0  0  0  0  0  0
  155.7470  213.8690  156.6080 C   0  0  0  0  0  2  0  0  0  0  0  0
  160.0480  212.7920  156.2680 C   0  0  0  0  0  2  0  0  0  0  0  0
  159.2720  211.7270  156.7430 O   0  0  0  0  0  0  0  0  0  0  0  0
  157.1240  213.6290  157.1850 C   0  0  1  0  0  3  0  0  0  0  0  0
  156.4480  213.3380  153.9660 O   0  0  0  0  0  1  0  0  0  0  0  0
  156.9010  212.3990  154.8990 C   0  0  2  0  0  0  0  0  0  0  0  0
  159.1410  208.4130  155.4170 C   0  0  0  0  0  1  0  0  0  0  0  0
  159.9170  209.7280  155.3860 C   0  0  2  0  0  0  0  0  0  0  0  0
  161.0460  209.7390  156.4560 C   0  0  2  0  0  3  0  0  0  0  0  0
  162.4070  210.0820  155.8530 C   0  0  0  0  0  2  0  0  0  0  0  0
  163.2080  210.9480  156.8080 C   0  0  0  0  0  1  0  0  0  0  0  0
  161.1540  208.4700  157.2580 C   0  0  0  0  0  3  0  0  0  0  0  0
  161.7310  207.3840  156.7500 C   0  0  0  0  0  2  0  0  0  0  0  0
  160.5030  209.9170  153.9760 C   0  0  0  0  0  2  0  0  0  0  0  0
  160.6390  208.7000  153.2990 O   0  0  0  0  0  0  0  0  0  0  0  0
  161.0920  209.0490  152.0270 C   0  0  1  0  0  3  0  0  0  0  0  0
  162.2050  210.0690  152.1490 C   0  0  0  0  0  1  0  0  0  0  0  0
  161.7200  207.5710  151.1810 S   0  0  0  0  0  1  0  0  0  0  0  0
  157.8170  211.8930  152.1190 O   0  0  0  0  0  1  0  0  0  0  0  0
  158.7460  211.9590  153.1570 C   0  0  1  0  0  3  0  0  0  0  0  0
  159.4070  213.3320  153.1760 C   0  0  0  0  0  2  0  0  0  0  0  0
  158.9590  214.1990  152.0070 C   0  0  0  0  0  2  0  0  0  0  0  0
  159.4250  213.6410  149.7280 O   0  0  0  0  0  1  0  0  0  0  0  0
  159.9840  214.1820  150.8840 C   0  0  0  0  0  2  0  0  0  0  0  0
  1 14  1  6  0  0  0
  1  9  1  0  0  0  0
  2  7  1  6  0  0  0
  2 10  1  0  0  0  0
  3  5  1  0  0  0  0
  3 12  1  0  0  0  0
  5 26  1  6  0  0  0
  5 12  1  0  0  0  0
  5  1  1  0  0  0  0
  6  4  1  0  0  0  0
  7 10  1  0  0  0  0
  8  9  1  0  0  0  0
  8  4  1  0  0  0  0
 10  6  1  6  0  0  0
 12 11  1  6  0  0  0
 12  2  1  0  0  0  0
 14 13  1  1  0  0  0
 14 15  1  0  0  0  0
 15 16  1  6  0  0  0
 15 18  1  0  0  0  0
 16 17  1  0  0  0  0
 19 18  2  0  0  0  0
 20 14  1  0  0  0  0
 21 20  1  0  0  0  0
 22 23  1  1  0  0  0
 22 21  1  0  0  0  0
 24 22  1  0  0  0  0
 26 25  1  6  0  0  0
 26 27  1  0  0  0  0
 28 27  1  0  0  0  0
 29 30  1  0  0  0  0
 30 28  1  0  0  0  0
M  END
>  <MODEL>
4

>  <REMARK>
 VINA RESULT:      -2.6      2.295      6.285
  Name = 
  11 active torsions:
  status: ('A' for Active; 'I' for Inactive)
    1  A    between atoms: C_2  and  C_14
    2  A    between atoms: C_3  and  O_19
    3  A    between atoms: C_4  and  C_22
    4  A    between atoms: C_6  and  C_12
    5  A    between atoms: C_6  and  C_17
    6  A    between atoms: C_12  and  C_13
    7  A    between atoms: C_14  and  C_20
    8  A    between atoms: C_14  and  C_22
    9  A    between atoms: C_17  and  C_21
   10  A    between atoms: O_19  and  C_29
   11  A    between atoms: C_22  and  C_29
                            x       y       z     vdW  Elec       q    Type
                         _______ _______ _______ _____ _____    ______ ____

>  <TORSDO>
F 11

$$$$
=
 OpenBabel11052421463D

 30 32  0  0  1  0  0  0  0  0999 V2000
  158.8790  211.6330  154.2680 C   0  0  2  0  0  3  0  0  0  0  0  0
  156.8770  213.8870  154.8580 C   0  0  2  0  0  3  0  0  0  0  0  0
  159.3070  213.8330  155.5300 C   0  0  0  0  0  2  0  0  0  0  0  0
  155.6600  210.5640  155.1060 C   0  0  0  0  0  2  0  0  0  0  0  0
  158.9510  212.3590  155.6470 C   0  0  1  0  0  0  0  0  0  0  0  0
  155.4990  211.9120  155.7970 C   0  0  0  0  0  2  0  0  0  0  0  0
  155.5870  214.3810  155.4940 C   0  0  0  0  0  2  0  0  0  0  0  0
  157.1210  210.2660  154.7990 C   0  0  0  0  0  2  0  0  0  0  0  0
  157.6060  211.1780  153.8530 O   0  0  0  0  0  0  0  0  0  0  0  0
  155.5890  213.0490  154.7790 C   0  0  1  0  0  3  0  0  0  0  0  0
  157.6490  213.7630  157.2590 O   0  0  0  0  0  1  0  0  0  0  0  0
  157.8970  213.4390  155.9200 C   0  0  2  0  0  0  0  0  0  0  0  0
  161.3710  211.4730  154.1930 C   0  0  0  0  0  1  0  0  0  0  0  0
  160.0770  210.8120  153.7260 C   0  0  2  0  0  0  0  0  0  0  0  0
  160.0080  210.7460  152.1740 C   0  0  2  0  0  3  0  0  0  0  0  0
  160.8230  209.5820  151.6110 C   0  0  0  0  0  2  0  0  0  0  0  0
  161.9840  210.0980  150.7820 C   0  0  0  0  0  1  0  0  0  0  0  0
  160.4040  212.0210  151.4790 C   0  0  0  0  0  3  0  0  0  0  0  0
  159.4840  212.8510  150.9940 C   0  0  0  0  0  2  0  0  0  0  0  0
  160.0010  209.4000  154.3340 C   0  0  0  0  0  2  0  0  0  0  0  0
  161.2100  208.7100  154.2030 O   0  0  0  0  0  0  0  0  0  0  0  0
  160.9990  207.4960  154.8560 C   0  0  1  0  0  3  0  0  0  0  0  0
  159.5880  207.4550  155.4040 C   0  0  0  0  0  1  0  0  0  0  0  0
  161.2280  206.1290  153.6840 S   0  0  0  0  0  1  0  0  0  0  0  0
  159.3120  210.2910  156.8570 O   0  0  0  0  0  1  0  0  0  0  0  0
  159.4820  211.6730  156.9230 C   0  0  1  0  0  3  0  0  0  0  0  0
  160.9330  212.0030  157.2520 C   0  0  0  0  0  2  0  0  0  0  0  0
  161.8320  210.7770  157.1650 C   0  0  0  0  0  2  0  0  0  0  0  0
  163.8130  210.7460  155.8250 O   0  0  0  0  0  1  0  0  0  0  0  0
  163.2950  211.1740  157.0460 C   0  0  0  0  0  2  0  0  0  0  0  0
  1 14  1  1  0  0  0
  1  5  1  0  0  0  0
  2  7  1  1  0  0  0
  2 12  1  0  0  0  0
  3  5  1  0  0  0  0
  3 12  1  0  0  0  0
  4  6  1  0  0  0  0
  5 12  1  0  0  0  0
  5 26  1  1  0  0  0
  8  4  1  0  0  0  0
  9  1  1  0  0  0  0
  9  8  1  0  0  0  0
 10  2  1  0  0  0  0
 10  7  1  1  0  0  0
 10  6  1  0  0  0  0
 12 11  1  1  0  0  0
 14 13  1  1  0  0  0
 14 20  1  0  0  0  0
 15 18  1  6  0  0  0
 15 14  1  0  0  0  0
 16 15  1  0  0  0  0
 17 16  1  0  0  0  0
 19 18  2  0  0  0  0
 21 20  1  0  0  0  0
 21 22  1  0  0  0  0
 22 23  1  6  0  0  0
 24 22  1  0  0  0  0
 26 25  1  6  0  0  0
 26 27  1  0  0  0  0
 28 27  1  0  0  0  0
 29 30  1  0  0  0  0
 30 28  1  0  0  0  0
M  END
>  <MODEL>
5

>  <REMARK>
 VINA RESULT:      -2.0      2.362      5.616
  Name = 
  11 active torsions:
  status: ('A' for Active; 'I' for Inactive)
    1  A    between atoms: C_2  and  C_14
    2  A    between atoms: C_3  and  O_19
    3  A    between atoms: C_4  and  C_22
    4  A    between atoms: C_6  and  C_12
    5  A    between atoms: C_6  and  C_17
    6  A    between atoms: C_12  and  C_13
    7  A    between atoms: C_14  and  C_20
    8  A    between atoms: C_14  and  C_22
    9  A    between atoms: C_17  and  C_21
   10  A    between atoms: O_19  and  C_29
   11  A    between atoms: C_22  and  C_29
                            x       y       z     vdW  Elec       q    Type
                         _______ _______ _______ _____ _____    ______ ____

>  <TORSDO>
F 11

$$$$
=
 OpenBabel11052421463D

 30 32  0  0  1  0  0  0  0  0999 V2000
  160.6830  210.9170  153.4070 C   0  0  2  0  0  3  0  0  0  0  0  0
  160.1470  212.5400  155.9590 C   0  0  2  0  0  3  0  0  0  0  0  0
  162.2130  211.1830  155.4590 C   0  0  0  0  0  2  0  0  0  0  0  0
  157.3940  210.7830  154.5750 C   0  0  0  0  0  2  0  0  0  0  0  0
  161.1490  210.3350  154.7790 C   0  0  1  0  0  0  0  0  0  0  0  0
  157.9660  211.1530  155.9370 C   0  0  0  0  0  2  0  0  0  0  0  0
  159.3110  212.8260  157.1980 C   0  0  0  0  0  2  0  0  0  0  0  0
  158.4840  210.3210  153.6180 C   0  0  0  0  0  2  0  0  0  0  0  0
  159.3510  211.3820  153.3320 O   0  0  0  0  0  0  0  0  0  0  0  0
  158.6100  212.5380  155.8890 C   0  0  1  0  0  3  0  0  0  0  0  0
  160.7930  210.4690  157.2520 O   0  0  0  0  0  1  0  0  0  0  0  0
  160.8110  211.1530  156.0310 C   0  0  2  0  0  0  0  0  0  0  0  0
  162.7920  210.3170  152.2080 C   0  0  0  0  0  1  0  0  0  0  0  0
  161.2730  210.3990  152.0710 C   0  0  2  0  0  0  0  0  0  0  0  0
  160.8650  211.3530  150.9120 C   0  0  2  0  0  3  0  0  0  0  0  0
  161.9550  211.4630  149.8460 C   0  0  0  0  0  2  0  0  0  0  0  0
  161.3830  212.0250  148.5580 C   0  0  0  0  0  1  0  0  0  0  0  0
  160.4540  212.7300  151.3570 C   0  0  0  0  0  3  0  0  0  0  0  0
  159.3820  213.3260  150.8410 C   0  0  0  0  0  2  0  0  0  0  0  0
  160.7270  208.9820  151.8260 C   0  0  0  0  0  2  0  0  0  0  0  0
  161.7060  208.1260  151.3100 O   0  0  0  0  0  0  0  0  0  0  0  0
  161.2020  207.7100  150.0780 C   0  0  1  0  0  3  0  0  0  0  0  0
  162.1950  208.0510  148.9860 C   0  0  0  0  0  1  0  0  0  0  0  0
  160.9330  205.9160  150.1070 S   0  0  0  0  0  1  0  0  0  0  0  0
  162.0110  208.5720  156.2000 O   0  0  0  0  0  1  0  0  0  0  0  0
  161.2750  208.8200  155.0410 C   0  0  1  0  0  3  0  0  0  0  0  0
  159.9430  208.0830  155.1030 C   0  0  0  0  0  2  0  0  0  0  0  0
  160.1180  206.5740  154.9910 C   0  0  0  0  0  2  0  0  0  0  0  0
  160.9910  204.9340  153.4840 O   0  0  0  0  0  1  0  0  0  0  0  0
  161.1990  206.2190  153.9820 C   0  0  0  0  0  2  0  0  0  0  0  0
  1 14  1  6  0  0  0
  1  5  1  0  0  0  0
  2 12  1  0  0  0  0
  2  7  1  1  0  0  0
  3 12  1  0  0  0  0
  4  6  1  0  0  0  0
  5 26  1  1  0  0  0
  5  3  1  0  0  0  0
  5 12  1  0  0  0  0
  8  4  1  0  0  0  0
  9  1  1  0  0  0  0
  9  8  1  0  0  0  0
 10  6  1  1  0  0  0
 10  2  1  0  0  0  0
 10  7  1  0  0  0  0
 12 11  1  1  0  0  0
 14 13  1  1  0  0  0
 15 16  1  6  0  0  0
 15 18  1  0  0  0  0
 15 14  1  0  0  0  0
 17 16  1  0  0  0  0
 19 18  2  0  0  0  0
 20 14  1  0  0  0  0
 21 20  1  0  0  0  0
 22 23  1  6  0  0  0
 22 24  1  0  0  0  0
 22 21  1  0  0  0  0
 26 27  1  0  0  0  0
 26 25  1  1  0  0  0
 28 27  1  0  0  0  0
 29 30  1  0  0  0  0
 30 28  1  0  0  0  0
M  END
>  <MODEL>
6

>  <REMARK>
 VINA RESULT:      -1.9      2.495      5.608
  Name = 
  11 active torsions:
  status: ('A' for Active; 'I' for Inactive)
    1  A    between atoms: C_2  and  C_14
    2  A    between atoms: C_3  and  O_19
    3  A    between atoms: C_4  and  C_22
    4  A    between atoms: C_6  and  C_12
    5  A    between atoms: C_6  and  C_17
    6  A    between atoms: C_12  and  C_13
    7  A    between atoms: C_14  and  C_20
    8  A    between atoms: C_14  and  C_22
    9  A    between atoms: C_17  and  C_21
   10  A    between atoms: O_19  and  C_29
   11  A    between atoms: C_22  and  C_29
                            x       y       z     vdW  Elec       q    Type
                         _______ _______ _______ _____ _____    ______ ____

>  <TORSDO>
F 11

$$$$
=
 OpenBabel11052421463D

 30 32  0  0  1  0  0  0  0  0999 V2000
  158.7880  212.0380  153.8780 C   0  0  2  0  0  3  0  0  0  0  0  0
  156.7980  214.0280  155.1110 C   0  0  2  0  0  3  0  0  0  0  0  0
  159.3120  214.2210  155.1340 C   0  0  0  0  0  2  0  0  0  0  0  0
  156.0220  210.5820  155.4380 C   0  0  0  0  0  2  0  0  0  0  0  0
  159.1460  212.7130  155.2380 C   0  0  1  0  0  0  0  0  0  0  0  0
  155.9150  211.8750  156.2360 C   0  0  0  0  0  2  0  0  0  0  0  0
  155.6770  214.3480  156.0870 C   0  0  0  0  0  2  0  0  0  0  0  0
  157.3730  210.4630  154.7470 C   0  0  0  0  0  2  0  0  0  0  0  0
  157.5020  211.4600  153.7730 O   0  0  0  0  0  0  0  0  0  0  0  0
  155.6230  213.0540  155.3080 C   0  0  1  0  0  3  0  0  0  0  0  0
  158.1800  213.8970  157.2210 O   0  0  0  0  0  1  0  0  0  0  0  0
  158.1000  213.6570  155.8440 C   0  0  2  0  0  0  0  0  0  0  0  0
  161.2310  211.5580  153.6750 C   0  0  0  0  0  1  0  0  0  0  0  0
  159.8770  211.3790  152.9930 C   0  0  2  0  0  0  0  0  0  0  0  0
  159.8700  212.0300  151.5800 C   0  0  2  0  0  3  0  0  0  0  0  0
  161.2580  212.0270  150.9390 C   0  0  0  0  0  2  0  0  0  0  0  0
  161.1440  212.0610  149.4270 C   0  0  0  0  0  1  0  0  0  0  0  0
  159.2970  213.4210  151.5390 C   0  0  0  0  0  3  0  0  0  0  0  0
  158.1080  213.6560  150.9920 C   0  0  0  0  0  2  0  0  0  0  0  0
  159.5690  209.8750  152.9010 C   0  0  0  0  0  2  0  0  0  0  0  0
  160.6680  209.0930  153.2730 O   0  0  0  0  0  0  0  0  0  0  0  0
  160.7820  208.1360  152.2660 C   0  0  1  0  0  3  0  0  0  0  0  0
  161.8310  208.5780  151.2660 C   0  0  0  0  0  1  0  0  0  0  0  0
  161.2750  206.5470  152.9920 S   0  0  0  0  0  1  0  0  0  0  0  0
  160.7410  212.9950  157.0410 O   0  0  0  0  0  1  0  0  0  0  0  0
  160.0580  212.0420  156.2870 C   0  0  1  0  0  3  0  0  0  0  0  0
  159.3360  211.0680  157.2100 C   0  0  0  0  0  2  0  0  0  0  0  0
  160.0260  209.7110  157.2610 C   0  0  0  0  0  2  0  0  0  0  0  0
  161.9340  208.8490  156.1030 O   0  0  0  0  0  1  0  0  0  0  0  0
  161.5170  209.8390  156.9910 C   0  0  0  0  0  2  0  0  0  0  0  0
  1 14  1  1  0  0  0
  1  5  1  0  0  0  0
  2 10  1  0  0  0  0
  2 12  1  0  0  0  0
  2  7  1  1  0  0  0
  3  5  1  0  0  0  0
  3 12  1  0  0  0  0
  4  6  1  0  0  0  0
  5 12  1  0  0  0  0
  5 26  1  1  0  0  0
  8  4  1  0  0  0  0
  9  1  1  0  0  0  0
  9  8  1  0  0  0  0
 10  7  1  1  0  0  0
 10  6  1  0  0  0  0
 12 11  1  1  0  0  0
 14 13  1  1  0  0  0
 15 16  1  1  0  0  0
 15 14  1  0  0  0  0
 17 16  1  0  0  0  0
 18 15  1  0  0  0  0
 19 18  2  0  0  0  0
 20 14  1  0  0  0  0
 20 21  1  0  0  0  0
 22 23  1  6  0  0  0
 22 24  1  0  0  0  0
 22 21  1  0  0  0  0
 26 25  1  1  0  0  0
 26 27  1  0  0  0  0
 27 28  1  0  0  0  0
 29 30  1  0  0  0  0
 30 28  1  0  0  0  0
M  END
>  <MODEL>
7

>  <REMARK>
 VINA RESULT:      -1.9      2.390      5.525
  Name = 
  11 active torsions:
  status: ('A' for Active; 'I' for Inactive)
    1  A    between atoms: C_2  and  C_14
    2  A    between atoms: C_3  and  O_19
    3  A    between atoms: C_4  and  C_22
    4  A    between atoms: C_6  and  C_12
    5  A    between atoms: C_6  and  C_17
    6  A    between atoms: C_12  and  C_13
    7  A    between atoms: C_14  and  C_20
    8  A    between atoms: C_14  and  C_22
    9  A    between atoms: C_17  and  C_21
   10  A    between atoms: O_19  and  C_29
   11  A    between atoms: C_22  and  C_29
                            x       y       z     vdW  Elec       q    Type
                         _______ _______ _______ _____ _____    ______ ____

>  <TORSDO>
F 11

$$$$
=
 OpenBabel11052421463D

 30 32  0  0  1  0  0  0  0  0999 V2000
  159.7970  210.7430  139.2960 C   0  0  2  0  0  3  0  0  0  0  0  0
  161.9310  208.7740  140.2970 C   0  0  2  0  0  3  0  0  0  0  0  0
  161.8730  211.2580  140.7250 C   0  0  0  0  0  2  0  0  0  0  0  0
  160.6990  208.2590  137.0110 C   0  0  0  0  0  2  0  0  0  0  0  0
  161.2880  211.2010  139.3220 C   0  0  1  0  0  0  0  0  0  0  0  0
  162.0050  208.1560  137.7880 C   0  0  0  0  0  2  0  0  0  0  0  0
  163.0190  207.7450  140.0250 C   0  0  0  0  0  2  0  0  0  0  0  0
  159.9420  209.5330  137.3580 C   0  0  0  0  0  2  0  0  0  0  0  0
  159.5250  209.4930  138.6940 O   0  0  0  0  0  0  0  0  0  0  0  0
  161.7400  207.6920  139.2200 C   0  0  1  0  0  3  0  0  0  0  0  0
  163.6510  210.3790  139.3800 O   0  0  0  0  0  1  0  0  0  0  0  0
  162.3260  210.1680  139.7760 C   0  0  2  0  0  0  0  0  0  0  0  0
  157.3950  211.1480  139.8530 C   0  0  0  0  0  1  0  0  0  0  0  0
  158.6390  211.7710  139.2240 C   0  0  2  0  0  0  0  0  0  0  0  0
  158.3790  212.1660  137.7420 C   0  0  2  0  0  3  0  0  0  0  0  0
  158.6020  213.6580  137.4970 C   0  0  0  0  0  2  0  0  0  0  0  0
  157.2760  214.3920  137.4460 C   0  0  0  0  0  1  0  0  0  0  0  0
  157.0270  211.7650  137.2190 C   0  0  0  0  0  3  0  0  0  0  0  0
  156.6220  210.4980  137.2630 C   0  0  0  0  0  2  0  0  0  0  0  0
  159.0430  213.0020  140.0530 C   0  0  0  0  0  2  0  0  0  0  0  0
  158.2070  213.1840  141.1600 O   0  0  0  0  0  0  0  0  0  0  0  0
  159.0650  213.5410  142.1990 C   0  0  1  0  0  3  0  0  0  0  0  0
  158.3370  214.4530  143.1640 C   0  0  0  0  0  1  0  0  0  0  0  0
  159.6090  212.0480  143.0770 S   0  0  0  0  0  1  0  0  0  0  0  0
  161.3130  212.1070  137.0750 O   0  0  0  0  0  1  0  0  0  0  0  0
  161.8500  212.2610  138.3520 C   0  0  1  0  0  3  0  0  0  0  0  0
  161.6680  213.6990  138.8230 C   0  0  0  0  0  2  0  0  0  0  0  0
  162.9950  214.4380  138.9310 C   0  0  0  0  0  2  0  0  0  0  0  0
  165.3390  214.2990  138.4730 O   0  0  0  0  0  1  0  0  0  0  0  0
  164.1220  213.6430  138.2910 C   0  0  0  0  0  2  0  0  0  0  0  0
  1 14  1  6  0  0  0
  1  5  1  0  0  0  0
  2  7  1  1  0  0  0
  4  8  1  0  0  0  0
  4  6  1  0  0  0  0
  5 26  1  6  0  0  0
  5 12  1  0  0  0  0
  5  3  1  0  0  0  0
  8  9  1  0  0  0  0
  9  1  1  0  0  0  0
 10  6  1  6  0  0  0
 10  7  1  0  0  0  0
 10  2  1  0  0  0  0
 12 11  1  6  0  0  0
 12  2  1  0  0  0  0
 12  3  1  0  0  0  0
 14 13  1  1  0  0  0
 14 20  1  0  0  0  0
 15 18  1  1  0  0  0
 15 14  1  0  0  0  0
 16 15  1  0  0  0  0
 17 16  1  0  0  0  0
 18 19  2  0  0  0  0
 20 21  1  0  0  0  0
 21 22  1  0  0  0  0
 22 24  1  0  0  0  0
 22 23  1  1  0  0  0
 26 25  1  6  0  0  0
 26 27  1  0  0  0  0
 27 28  1  0  0  0  0
 30 29  1  0  0  0  0
 30 28  1  0  0  0  0
M  END
>  <MODEL>
8

>  <REMARK>
 VINA RESULT:      -1.8     12.702     15.581
  Name = 
  11 active torsions:
  status: ('A' for Active; 'I' for Inactive)
    1  A    between atoms: C_2  and  C_14
    2  A    between atoms: C_3  and  O_19
    3  A    between atoms: C_4  and  C_22
    4  A    between atoms: C_6  and  C_12
    5  A    between atoms: C_6  and  C_17
    6  A    between atoms: C_12  and  C_13
    7  A    between atoms: C_14  and  C_20
    8  A    between atoms: C_14  and  C_22
    9  A    between atoms: C_17  and  C_21
   10  A    between atoms: O_19  and  C_29
   11  A    between atoms: C_22  and  C_29
                            x       y       z     vdW  Elec       q    Type
                         _______ _______ _______ _____ _____    ______ ____

>  <TORSDO>
F 11

$$$$
=
 OpenBabel11052421463D

 30 32  0  0  1  0  0  0  0  0999 V2000
  160.7400  207.9830  152.7080 C   0  0  2  0  0  3  0  0  0  0  0  0
  158.7700  209.8130  154.1930 C   0  0  2  0  0  3  0  0  0  0  0  0
  160.2730  210.4760  152.2800 C   0  0  0  0  0  2  0  0  0  0  0  0
  160.5680  207.4720  156.1590 C   0  0  0  0  0  2  0  0  0  0  0  0
  161.1550  209.4610  152.9900 C   0  0  1  0  0  0  0  0  0  0  0  0
  160.0470  208.9010  156.2460 C   0  0  0  0  0  2  0  0  0  0  0  0
  158.2840  210.4780  155.4710 C   0  0  0  0  0  2  0  0  0  0  0  0
  161.2030  207.1900  154.8050 C   0  0  0  0  0  2  0  0  0  0  0  0
  160.2290  207.2450  153.8000 O   0  0  0  0  0  0  0  0  0  0  0  0
  158.7110  209.0290  155.5150 C   0  0  1  0  0  3  0  0  0  0  0  0
  160.6780  211.4500  154.4320 O   0  0  0  0  0  1  0  0  0  0  0  0
  160.1640  210.3220  153.7820 C   0  0  2  0  0  0  0  0  0  0  0  0
  162.9650  207.2590  151.8310 C   0  0  0  0  0  1  0  0  0  0  0  0
  161.4570  207.1380  151.6240 C   0  0  2  0  0  0  0  0  0  0  0  0
  161.0430  207.6370  150.2100 C   0  0  2  0  0  3  0  0  0  0  0  0
  160.4390  206.5200  149.3600 C   0  0  0  0  0  2  0  0  0  0  0  0
  161.3670  206.1630  148.2140 C   0  0  0  0  0  1  0  0  0  0  0  0
  162.1450  208.3160  149.4430 C   0  0  0  0  0  3  0  0  0  0  0  0
  161.9570  209.5060  148.8800 C   0  0  0  0  0  2  0  0  0  0  0  0
  161.0520  205.6670  151.8220 C   0  0  0  0  0  2  0  0  0  0  0  0
  162.0590  204.7880  151.4100 O   0  0  0  0  0  0  0  0  0  0  0  0
  161.5370  203.5150  151.6390 C   0  0  1  0  0  3  0  0  0  0  0  0
  160.4520  203.5970  152.6920 C   0  0  0  0  0  1  0  0  0  0  0  0
  160.8330  202.8630  150.0990 S   0  0  0  0  0  1  0  0  0  0  0  0
  163.0930  210.5310  152.0040 O   0  0  0  0  0  1  0  0  0  0  0  0
  162.6260  209.8960  153.1550 C   0  0  1  0  0  3  0  0  0  0  0  0
  162.8860  210.7730  154.3740 C   0  0  0  0  0  2  0  0  0  0  0  0
  163.0810  209.9490  155.6400 C   0  0  0  0  0  2  0  0  0  0  0  0
  164.4260  211.4760  156.8960 O   0  0  0  0  0  1  0  0  0  0  0  0
  163.1860  210.8410  156.8660 C   0  0  0  0  0  2  0  0  0  0  0  0
  1 14  1  1  0  0  0
  1  5  1  0  0  0  0
  1  9  1  0  0  0  0
  2  7  1  1  0  0  0
  2 10  1  0  0  0  0
  3  5  1  0  0  0  0
  3 12  1  0  0  0  0
  4  6  1  0  0  0  0
  5 26  1  1  0  0  0
  5 12  1  0  0  0  0
  8  4  1  0  0  0  0
  9  8  1  0  0  0  0
 10  7  1  1  0  0  0
 10  6  1  0  0  0  0
 12  2  1  0  0  0  0
 12 11  1  1  0  0  0
 14 20  1  0  0  0  0
 14 13  1  1  0  0  0
 15 16  1  6  0  0  0
 15 14  1  0  0  0  0
 17 16  1  0  0  0  0
 18 15  1  0  0  0  0
 19 18  2  0  0  0  0
 21 22  1  0  0  0  0
 21 20  1  0  0  0  0
 22 23  1  1  0  0  0
 24 22  1  0  0  0  0
 26 25  1  6  0  0  0
 26 27  1  0  0  0  0
 27 28  1  0  0  0  0
 28 30  1  0  0  0  0
 30 29  1  0  0  0  0
M  END
>  <MODEL>
9

>  <REMARK>
 VINA RESULT:      -1.7      3.270      6.564
  Name = 
  11 active torsions:
  status: ('A' for Active; 'I' for Inactive)
    1  A    between atoms: C_2  and  C_14
    2  A    between atoms: C_3  and  O_19
    3  A    between atoms: C_4  and  C_22
    4  A    between atoms: C_6  and  C_12
    5  A    between atoms: C_6  and  C_17
    6  A    between atoms: C_12  and  C_13
    7  A    between atoms: C_14  and  C_20
    8  A    between atoms: C_14  and  C_22
    9  A    between atoms: C_17  and  C_21
   10  A    between atoms: O_19  and  C_29
   11  A    between atoms: C_22  and  C_29
                            x       y       z     vdW  Elec       q    Type
                         _______ _______ _______ _____ _____    ______ ____

>  <TORSDO>
F 11

$$$$
