=
 OpenBabel11052423123D

 27 31  0  0  1  0  0  0  0  0999 V2000
  159.6970  212.8410  154.8460 C   0  0  0  0  0  2  0  0  0  0  0  0
  158.3070  213.2140  152.7550 C   0  0  0  0  0  0  0  0  0  0  0  0
  160.4090  211.9070  152.0120 C   0  0  0  0  0  2  0  0  0  0  0  0
  157.7080  214.4530  148.4030 S   0  0  0  0  0  0  0  0  0  0  0  0
  159.3970  213.0570  146.9250 O   0  0  0  0  0  0  0  0  0  0  0  0
  157.2160  214.0190  152.3710 C   0  0  0  0  0  3  0  0  0  0  0  0
  159.8380  212.8280  149.2460 C   0  0  1  0  0  3  0  0  0  0  0  0
  161.4770  207.4830  152.9140 O   0  0  0  0  0  0  0  0  0  0  0  0
  161.1390  213.4710  149.3350 N   0  0  0  0  0  1  0  0  0  0  0  0
  161.0870  208.6540  153.1600 C   0  0  0  0  0  0  0  0  0  0  0  0
  158.9980  213.2070  150.4210 C   0  0  0  0  0  0  0  0  0  0  0  0
  158.4130  212.8170  154.1390 N   0  0  0  0  0  0  0  0  0  0  0  0
  159.0970  213.3680  148.0650 C   0  0  0  0  0  0  0  0  0  0  0  0
  157.9080  214.0060  150.1160 C   0  0  0  0  0  0  0  0  0  0  0  0
  160.1130  211.4310  155.2630 C   0  0  0  0  0  2  0  0  0  0  0  0
  159.2140  212.7790  151.7440 C   0  0  0  0  0  0  0  0  0  0  0  0
  160.4540  209.4640  152.1880 N   0  0  0  0  0  2  0  0  0  0  0  0
  157.0370  214.3940  151.0780 N   0  0  0  0  0  0  0  0  0  0  0  0
  161.2410  209.3110  154.4750 C   0  0  0  0  0  2  0  0  0  0  0  0
  160.8730  210.7510  154.1390 C   0  0  1  0  0  3  0  0  0  0  0  0
  160.0580  210.6930  152.8480 C   0  0  1  0  0  3  0  0  0  0  0  0
  155.0870  211.9690  156.4710 N   0  0  0  0  0  2  0  0  0  0  0  0
  157.1780  212.5660  154.8890 C   0  0  0  0  0  3  0  0  0  0  0  0
  156.8040  211.0820  154.8820 C   0  0  0  0  0  2  0  0  0  0  0  0
  155.5630  210.7900  155.7420 C   0  0  0  0  0  2  0  0  0  0  0  0
  156.2010  212.5230  157.2370 C   0  0  0  0  0  2  0  0  0  0  0  0
  157.2420  213.1520  156.3060 C   0  0  0  0  0  2  0  0  0  0  0  0
  1 15  1  0  0  0  0
  2 12  1  0  0  0  0
  4 14  1  0  0  0  0
  5 13  2  0  0  0  0
  6  2  1  0  0  0  0
  7  9  1  1  0  0  0
  7 11  1  0  0  0  0
  8 10  2  0  0  0  0
 10 19  1  0  0  0  0
 11 16  1  0  0  0  0
 12  1  1  0  0  0  0
 12 23  1  0  0  0  0
 13  4  1  0  0  0  0
 13  7  1  0  0  0  0
 14 11  2  0  0  0  0
 14 18  1  0  0  0  0
 16  3  1  0  0  0  0
 16  2  2  0  0  0  0
 17 21  1  0  0  0  0
 17 10  1  0  0  0  0
 18  6  2  0  0  0  0
 20 19  1  1  0  0  0
 20 15  1  0  0  0  0
 21  3  1  6  0  0  0
 21 20  1  0  0  0  0
 22 26  1  0  0  0  0
 23 27  1  0  0  0  0
 24 23  1  0  0  0  0
 24 25  1  0  0  0  0
 25 22  1  0  0  0  0
 27 26  1  0  0  0  0
M  END
>  <MODEL>
1

>  <REMARK>
 VINA RESULT:      -4.7      0.000      0.000
  Name = 
  1 active torsions:
  status: ('A' for Active; 'I' for Inactive)
    1  A    between atoms: C_9  and  N_15
                            x       y       z     vdW  Elec       q    Type
                         _______ _______ _______ _____ _____    ______ ____

>  <TORSDO>
F 1

$$$$
=
 OpenBabel11052423123D

 27 31  0  0  1  0  0  0  0  0999 V2000
  160.8300  211.7150  154.5460 C   0  0  0  0  0  2  0  0  0  0  0  0
  159.7070  212.6200  152.4570 C   0  0  0  0  0  0  0  0  0  0  0  0
  161.3170  210.7580  151.6730 C   0  0  0  0  0  2  0  0  0  0  0  0
  159.6910  214.2160  148.1810 S   0  0  0  0  0  0  0  0  0  0  0  0
  160.9100  212.4410  146.6500 O   0  0  0  0  0  0  0  0  0  0  0  0
  158.9390  213.7470  152.1040 C   0  0  0  0  0  3  0  0  0  0  0  0
  161.1690  211.9600  148.9600 C   0  0  1  0  0  3  0  0  0  0  0  0
  160.9070  206.1820  152.3150 O   0  0  0  0  0  0  0  0  0  0  0  0
  162.6020  212.1530  149.1140 N   0  0  0  0  0  1  0  0  0  0  0  0
  160.8960  207.4010  152.6260 C   0  0  0  0  0  0  0  0  0  0  0  0
  160.4480  212.5210  150.1410 C   0  0  0  0  0  0  0  0  0  0  0  0
  159.6310  212.1360  153.8160 N   0  0  0  0  0  0  0  0  0  0  0  0
  160.6800  212.7690  147.8020 C   0  0  0  0  0  0  0  0  0  0  0  0
  159.6760  213.6380  149.8660 C   0  0  0  0  0  0  0  0  0  0  0  0
  160.7660  210.2260  154.8820 C   0  0  0  0  0  2  0  0  0  0  0  0
  160.4680  211.9760  151.4380 C   0  0  0  0  0  0  0  0  0  0  0  0
  160.5860  208.4200  151.6960 N   0  0  0  0  0  2  0  0  0  0  0  0
  158.9360  214.2290  150.8340 N   0  0  0  0  0  0  0  0  0  0  0  0
  161.2000  207.9040  153.9830 C   0  0  0  0  0  2  0  0  0  0  0  0
  161.3160  209.4020  153.7310 C   0  0  1  0  0  3  0  0  0  0  0  0
  160.5720  209.6730  152.4250 C   0  0  1  0  0  3  0  0  0  0  0  0
  156.1070  212.2310  156.0060 N   0  0  0  0  0  2  0  0  0  0  0  0
  158.3520  212.2490  154.5250 C   0  0  0  0  0  3  0  0  0  0  0  0
  157.4580  211.0320  154.2740 C   0  0  0  0  0  2  0  0  0  0  0  0
  156.1530  211.0910  155.0860 C   0  0  0  0  0  2  0  0  0  0  0  0
  157.3040  212.2020  156.8420 C   0  0  0  0  0  2  0  0  0  0  0  0
  158.5520  212.5360  156.0190 C   0  0  0  0  0  2  0  0  0  0  0  0
  1 15  1  0  0  0  0
  2 12  1  0  0  0  0
  4 14  1  0  0  0  0
  5 13  2  0  0  0  0
  6  2  1  0  0  0  0
  7  9  1  1  0  0  0
  7 11  1  0  0  0  0
  8 10  2  0  0  0  0
 10 19  1  0  0  0  0
 11 16  1  0  0  0  0
 12 23  1  0  0  0  0
 12  1  1  0  0  0  0
 13  4  1  0  0  0  0
 13  7  1  0  0  0  0
 14 11  2  0  0  0  0
 14 18  1  0  0  0  0
 16  3  1  0  0  0  0
 16  2  2  0  0  0  0
 17 21  1  0  0  0  0
 17 10  1  0  0  0  0
 18  6  2  0  0  0  0
 20 19  1  1  0  0  0
 20 15  1  0  0  0  0
 21  3  1  6  0  0  0
 21 20  1  0  0  0  0
 22 26  1  0  0  0  0
 23 27  1  0  0  0  0
 24 23  1  0  0  0  0
 24 25  1  0  0  0  0
 25 22  1  0  0  0  0
 27 26  1  0  0  0  0
M  END
>  <MODEL>
2

>  <REMARK>
 VINA RESULT:      -4.6      1.332      1.521
  Name = 
  1 active torsions:
  status: ('A' for Active; 'I' for Inactive)
    1  A    between atoms: C_9  and  N_15
                            x       y       z     vdW  Elec       q    Type
                         _______ _______ _______ _____ _____    ______ ____

>  <TORSDO>
F 1

$$$$
=
 OpenBabel11052423123D

 27 31  0  0  1  0  0  0  0  0999 V2000
  161.7780  210.1140  153.6160 C   0  0  0  0  0  2  0  0  0  0  0  0
  160.6070  211.6080  151.9300 C   0  0  0  0  0  0  0  0  0  0  0  0
  161.9560  209.8790  150.5630 C   0  0  0  0  0  2  0  0  0  0  0  0
  160.4480  214.2310  148.1980 S   0  0  0  0  0  0  0  0  0  0  0  0
  161.3650  212.8070  146.1700 O   0  0  0  0  0  0  0  0  0  0  0  0
  159.9360  212.8470  151.9400 C   0  0  0  0  0  3  0  0  0  0  0  0
  161.7380  211.7370  148.2550 C   0  0  1  0  0  3  0  0  0  0  0  0
  161.1230  205.3390  150.0980 O   0  0  0  0  0  0  0  0  0  0  0  0
  163.1910  211.7670  148.3140 N   0  0  0  0  0  1  0  0  0  0  0  0
  161.2600  206.4370  150.6990 C   0  0  0  0  0  0  0  0  0  0  0  0
  161.1650  212.0380  149.6000 C   0  0  0  0  0  0  0  0  0  0  0  0
  160.5790  210.8030  153.1290 N   0  0  0  0  0  0  0  0  0  0  0  0
  161.2530  212.8510  147.3830 C   0  0  0  0  0  0  0  0  0  0  0  0
  160.4950  213.2480  149.6840 C   0  0  0  0  0  0  0  0  0  0  0  0
  161.5850  208.5990  153.5810 C   0  0  0  0  0  2  0  0  0  0  0  0
  161.2220  211.1830  150.7160 C   0  0  0  0  0  0  0  0  0  0  0  0
  160.9920  207.6800  150.0810 N   0  0  0  0  0  2  0  0  0  0  0  0
  159.8910  213.6330  150.8330 N   0  0  0  0  0  0  0  0  0  0  0  0
  161.7110  206.5530  152.1020 C   0  0  0  0  0  2  0  0  0  0  0  0
  161.9620  208.0510  152.2150 C   0  0  1  0  0  3  0  0  0  0  0  0
  161.1590  208.7050  151.0930 C   0  0  1  0  0  3  0  0  0  0  0  0
  157.1660  211.2010  155.4550 N   0  0  0  0  0  2  0  0  0  0  0  0
  159.3730  210.8370  153.9630 C   0  0  0  0  0  3  0  0  0  0  0  0
  159.6510  211.4610  155.3330 C   0  0  0  0  0  2  0  0  0  0  0  0
  158.3770  211.5890  156.1840 C   0  0  0  0  0  2  0  0  0  0  0  0
  157.1070  211.9640  154.2110 C   0  0  0  0  0  2  0  0  0  0  0  0
  158.1970  211.5040  153.2390 C   0  0  0  0  0  2  0  0  0  0  0  0
  2  6  1  0  0  0  0
  2 12  1  0  0  0  0
  3 16  1  0  0  0  0
  4 14  1  0  0  0  0
  5 13  2  0  0  0  0
  7  9  1  1  0  0  0
  7 11  1  0  0  0  0
  8 10  2  0  0  0  0
 10 19  1  0  0  0  0
 11 14  2  0  0  0  0
 11 16  1  0  0  0  0
 12  1  1  0  0  0  0
 12 23  1  0  0  0  0
 13  4  1  0  0  0  0
 13  7  1  0  0  0  0
 14 18  1  0  0  0  0
 15  1  1  0  0  0  0
 16  2  2  0  0  0  0
 17 10  1  0  0  0  0
 17 21  1  0  0  0  0
 18  6  2  0  0  0  0
 20 19  1  1  0  0  0
 20 15  1  0  0  0  0
 21  3  1  6  0  0  0
 21 20  1  0  0  0  0
 22 25  1  0  0  0  0
 23 24  1  0  0  0  0
 24 25  1  0  0  0  0
 26 22  1  0  0  0  0
 27 23  1  0  0  0  0
 27 26  1  0  0  0  0
M  END
>  <MODEL>
3

>  <REMARK>
 VINA RESULT:      -4.6      2.061      3.011
  Name = 
  1 active torsions:
  status: ('A' for Active; 'I' for Inactive)
    1  A    between atoms: C_9  and  N_15
                            x       y       z     vdW  Elec       q    Type
                         _______ _______ _______ _____ _____    ______ ____

>  <TORSDO>
F 1

$$$$
=
 OpenBabel11052423123D

 27 31  0  0  1  0  0  0  0  0999 V2000
  163.0180  209.9530  151.6370 C   0  0  0  0  0  2  0  0  0  0  0  0
  161.8190  208.3560  150.0710 C   0  0  0  0  0  0  0  0  0  0  0  0
  161.7800  207.2550  152.4090 C   0  0  0  0  0  2  0  0  0  0  0  0
  160.9720  204.2470  148.2730 S   0  0  0  0  0  0  0  0  0  0  0  0
  160.3900  202.6010  150.2570 O   0  0  0  0  0  0  0  0  0  0  0  0
  161.6790  208.1850  148.6800 C   0  0  0  0  0  3  0  0  0  0  0  0
  161.2350  204.6770  151.0360 C   0  0  1  0  0  3  0  0  0  0  0  0
  159.3510  208.5690  156.1360 O   0  0  0  0  0  0  0  0  0  0  0  0
  162.4880  204.2470  151.6360 N   0  0  0  0  0  1  0  0  0  0  0  0
  160.0940  208.7070  155.1290 C   0  0  0  0  0  0  0  0  0  0  0  0
  161.4330  205.9640  150.3050 C   0  0  0  0  0  0  0  0  0  0  0  0
  162.0380  209.6900  150.5810 N   0  0  0  0  0  0  0  0  0  0  0  0
  160.8310  203.7030  149.9770 C   0  0  0  0  0  0  0  0  0  0  0  0
  161.3160  205.8680  148.9280 C   0  0  0  0  0  0  0  0  0  0  0  0
  162.3300  210.4710  152.9000 C   0  0  0  0  0  2  0  0  0  0  0  0
  161.6710  207.2120  150.9100 C   0  0  0  0  0  0  0  0  0  0  0  0
  160.0230  207.8460  154.0090 N   0  0  0  0  0  2  0  0  0  0  0  0
  161.4320  206.9640  148.1400 N   0  0  0  0  0  0  0  0  0  0  0  0
  161.1120  209.7710  155.0010 C   0  0  0  0  0  2  0  0  0  0  0  0
  161.8770  209.3090  153.7670 C   0  0  1  0  0  3  0  0  0  0  0  0
  160.9430  208.3630  153.0150 C   0  0  1  0  0  3  0  0  0  0  0  0
  160.4510  213.0450  148.7240 N   0  0  0  0  0  2  0  0  0  0  0  0
  161.3960  210.8140  149.8900 C   0  0  0  0  0  3  0  0  0  0  0  0
  160.8200  211.8290  150.8800 C   0  0  0  0  0  2  0  0  0  0  0  0
  160.2270  213.0600  150.1730 C   0  0  0  0  0  2  0  0  0  0  0  0
  161.8790  212.8720  148.4770 C   0  0  0  0  0  2  0  0  0  0  0  0
  162.3310  211.4590  148.8600 C   0  0  0  0  0  2  0  0  0  0  0  0
  1 15  1  0  0  0  0
  2 12  1  0  0  0  0
  2 16  1  0  0  0  0
  4 14  1  0  0  0  0
  4 13  1  0  0  0  0
  6  2  2  0  0  0  0
  7  9  1  6  0  0  0
 10  8  2  0  0  0  0
 11 16  2  0  0  0  0
 11  7  1  0  0  0  0
 12  1  1  0  0  0  0
 13  5  2  0  0  0  0
 13  7  1  0  0  0  0
 14 11  1  0  0  0  0
 16  3  1  0  0  0  0
 17 10  1  0  0  0  0
 18  6  1  0  0  0  0
 18 14  2  0  0  0  0
 19 10  1  0  0  0  0
 20 15  1  6  0  0  0
 20 19  1  0  0  0  0
 21  3  1  1  0  0  0
 21 20  1  0  0  0  0
 21 17  1  0  0  0  0
 22 25  1  0  0  0  0
 23 12  1  0  0  0  0
 23 24  1  0  0  0  0
 25 24  1  0  0  0  0
 26 22  1  0  0  0  0
 26 27  1  0  0  0  0
 27 23  1  0  0  0  0
M  END
>  <MODEL>
4

>  <REMARK>
 VINA RESULT:      -4.4      4.435      7.269
  Name = 
  1 active torsions:
  status: ('A' for Active; 'I' for Inactive)
    1  A    between atoms: C_9  and  N_15
                            x       y       z     vdW  Elec       q    Type
                         _______ _______ _______ _____ _____    ______ ____

>  <TORSDO>
F 1

$$$$
=
 OpenBabel11052423123D

 27 31  0  0  1  0  0  0  0  0999 V2000
  162.7060  210.1180  150.0340 C   0  0  0  0  0  2  0  0  0  0  0  0
  161.5290  208.6470  151.7350 C   0  0  0  0  0  0  0  0  0  0  0  0
  161.1270  211.0890  152.4770 C   0  0  0  0  0  2  0  0  0  0  0  0
  160.4740  207.3270  155.9750 S   0  0  0  0  0  0  0  0  0  0  0  0
  159.5180  209.4280  157.2610 O   0  0  0  0  0  0  0  0  0  0  0  0
  161.5250  207.2840  152.0930 C   0  0  0  0  0  3  0  0  0  0  0  0
  160.4780  210.0180  155.1730 C   0  0  1  0  0  3  0  0  0  0  0  0
  158.4510  214.2820  150.4370 O   0  0  0  0  0  0  0  0  0  0  0  0
  161.6090  210.8180  155.6150 N   0  0  0  0  0  1  0  0  0  0  0  0
  159.3090  213.3640  150.5100 C   0  0  0  0  0  0  0  0  0  0  0  0
  160.8820  209.1510  154.0260 C   0  0  0  0  0  0  0  0  0  0  0  0
  161.8240  208.9950  150.3640 N   0  0  0  0  0  0  0  0  0  0  0  0
  160.0950  209.0580  156.2520 C   0  0  0  0  0  0  0  0  0  0  0  0
  160.9060  207.7950  154.3100 C   0  0  0  0  0  0  0  0  0  0  0  0
  161.9400  211.2070  149.2830 C   0  0  0  0  0  2  0  0  0  0  0  0
  161.1770  209.6070  152.7280 C   0  0  0  0  0  0  0  0  0  0  0  0
  159.2740  212.3700  151.5150 N   0  0  0  0  0  2  0  0  0  0  0  0
  161.2170  206.8870  153.3550 N   0  0  0  0  0  0  0  0  0  0  0  0
  160.4370  213.2190  149.5650 C   0  0  0  0  0  2  0  0  0  0  0  0
  161.2810  212.1600  150.2640 C   0  0  1  0  0  3  0  0  0  0  0  0
  160.3440  211.4340  151.2270 C   0  0  1  0  0  3  0  0  0  0  0  0
  160.6980  206.2010  147.5100 N   0  0  0  0  0  2  0  0  0  0  0  0
  161.3770  208.0880  149.3020 C   0  0  0  0  0  3  0  0  0  0  0  0
  162.5480  207.6040  148.4430 C   0  0  0  0  0  2  0  0  0  0  0  0
  162.1090  206.5790  147.3840 C   0  0  0  0  0  2  0  0  0  0  0  0
  160.4570  205.7540  148.8800 C   0  0  0  0  0  2  0  0  0  0  0  0
  160.5360  206.9310  149.8580 C   0  0  0  0  0  2  0  0  0  0  0  0
  1 12  1  0  0  0  0
  2  6  2  0  0  0  0
  2 16  1  0  0  0  0
  3 16  1  0  0  0  0
  4 13  1  0  0  0  0
  6 18  1  0  0  0  0
  7  9  1  1  0  0  0
  7 13  1  0  0  0  0
  8 10  2  0  0  0  0
 10 17  1  0  0  0  0
 11 14  1  0  0  0  0
 11  7  1  0  0  0  0
 12  2  1  0  0  0  0
 13  5  2  0  0  0  0
 14  4  1  0  0  0  0
 15  1  1  0  0  0  0
 16 11  2  0  0  0  0
 18 14  2  0  0  0  0
 19 20  1  0  0  0  0
 19 10  1  0  0  0  0
 20 15  1  6  0  0  0
 20 21  1  0  0  0  0
 21 17  1  0  0  0  0
 21  3  1  1  0  0  0
 22 26  1  0  0  0  0
 23 27  1  0  0  0  0
 23 12  1  0  0  0  0
 24 23  1  0  0  0  0
 25 22  1  0  0  0  0
 25 24  1  0  0  0  0
 26 27  1  0  0  0  0
M  END
>  <MODEL>
5

>  <REMARK>
 VINA RESULT:      -4.2      3.792      7.798
  Name = 
  1 active torsions:
  status: ('A' for Active; 'I' for Inactive)
    1  A    between atoms: C_9  and  N_15
                            x       y       z     vdW  Elec       q    Type
                         _______ _______ _______ _____ _____    ______ ____

>  <TORSDO>
F 1

$$$$
=
 OpenBabel11052423123D

 27 31  0  0  1  0  0  0  0  0999 V2000
  159.7730  209.9490  153.2430 C   0  0  0  0  0  2  0  0  0  0  0  0
  160.8950  207.6750  153.1280 C   0  0  0  0  0  0  0  0  0  0  0  0
  160.6740  208.5050  150.6910 C   0  0  0  0  0  2  0  0  0  0  0  0
  161.4190  203.4450  151.4940 S   0  0  0  0  0  0  0  0  0  0  0  0
  161.7030  203.6200  148.8730 O   0  0  0  0  0  0  0  0  0  0  0  0
  161.1020  206.5820  153.9920 C   0  0  0  0  0  3  0  0  0  0  0  0
  161.0320  205.6810  149.8400 C   0  0  1  0  0  3  0  0  0  0  0  0
  162.9920  211.9600  148.6380 O   0  0  0  0  0  0  0  0  0  0  0  0
  159.7060  205.8280  149.2600 N   0  0  0  0  0  1  0  0  0  0  0  0
  162.3310  211.3830  149.5410 C   0  0  0  0  0  0  0  0  0  0  0  0
  161.0140  206.1050  151.2710 C   0  0  0  0  0  0  0  0  0  0  0  0
  160.7850  208.9950  153.7050 N   0  0  0  0  0  0  0  0  0  0  0  0
  161.3970  204.2320  149.8830 C   0  0  0  0  0  0  0  0  0  0  0  0
  161.2060  205.0760  152.1790 C   0  0  0  0  0  0  0  0  0  0  0  0
  160.4320  211.1750  152.6130 C   0  0  0  0  0  2  0  0  0  0  0  0
  160.8710  207.4300  151.7230 C   0  0  0  0  0  0  0  0  0  0  0  0
  162.3810  209.9850  149.7440 N   0  0  0  0  0  2  0  0  0  0  0  0
  161.2530  205.3210  153.5110 N   0  0  0  0  0  0  0  0  0  0  0  0
  161.4390  212.0920  150.4830 C   0  0  0  0  0  2  0  0  0  0  0  0
  160.7080  210.9280  151.1400 C   0  0  1  0  0  3  0  0  0  0  0  0
  161.5830  209.6960  150.9190 C   0  0  1  0  0  3  0  0  0  0  0  0
  162.8840  210.1270  157.1010 N   0  0  0  0  0  2  0  0  0  0  0  0
  161.5820  209.3030  154.8970 C   0  0  0  0  0  3  0  0  0  0  0  0
  162.5590  210.4530  154.6410 C   0  0  0  0  0  2  0  0  0  0  0  0
  163.3350  210.8500  155.9080 C   0  0  0  0  0  2  0  0  0  0  0  0
  161.4390  210.3020  157.2320 C   0  0  0  0  0  2  0  0  0  0  0  0
  160.6970  209.5430  156.1280 C   0  0  0  0  0  2  0  0  0  0  0  0
  1 12  1  0  0  0  0
  2 12  1  0  0  0  0
  2  6  1  0  0  0  0
  3 16  1  0  0  0  0
  4 14  1  0  0  0  0
  5 13  2  0  0  0  0
  7  9  1  1  0  0  0
  7 13  1  0  0  0  0
  7 11  1  0  0  0  0
  8 10  2  0  0  0  0
 10 17  1  0  0  0  0
 10 19  1  0  0  0  0
 11 16  1  0  0  0  0
 11 14  2  0  0  0  0
 12 23  1  0  0  0  0
 13  4  1  0  0  0  0
 14 18  1  0  0  0  0
 15  1  1  0  0  0  0
 16  2  2  0  0  0  0
 17 21  1  0  0  0  0
 18  6  2  0  0  0  0
 20 19  1  1  0  0  0
 20 15  1  0  0  0  0
 21  3  1  6  0  0  0
 21 20  1  0  0  0  0
 22 26  1  0  0  0  0
 23 27  1  0  0  0  0
 24 23  1  0  0  0  0
 24 25  1  0  0  0  0
 25 22  1  0  0  0  0
 27 26  1  0  0  0  0
M  END
>  <MODEL>
6

>  <REMARK>
 VINA RESULT:      -3.7      4.426      6.822
  Name = 
  1 active torsions:
  status: ('A' for Active; 'I' for Inactive)
    1  A    between atoms: C_9  and  N_15
                            x       y       z     vdW  Elec       q    Type
                         _______ _______ _______ _____ _____    ______ ____

>  <TORSDO>
F 1

$$$$
=
 OpenBabel11052423123D

 27 31  0  0  1  0  0  0  0  0999 V2000
  162.6180  210.1050  153.5690 C   0  0  0  0  0  2  0  0  0  0  0  0
  161.5270  209.0560  151.5310 C   0  0  0  0  0  0  0  0  0  0  0  0
  161.7150  207.1860  153.3040 C   0  0  0  0  0  2  0  0  0  0  0  0
  161.0490  205.8110  148.3570 S   0  0  0  0  0  0  0  0  0  0  0  0
  160.7390  203.5010  149.6030 O   0  0  0  0  0  0  0  0  0  0  0  0
  161.3430  209.3870  150.1740 C   0  0  0  0  0  3  0  0  0  0  0  0
  161.3900  205.2370  151.0850 C   0  0  1  0  0  3  0  0  0  0  0  0
  159.3300  206.7630  157.2610 O   0  0  0  0  0  0  0  0  0  0  0  0
  162.7080  204.7690  151.4820 N   0  0  0  0  0  1  0  0  0  0  0  0
  160.0070  207.3420  156.3720 C   0  0  0  0  0  0  0  0  0  0  0  0
  161.4140  206.7150  150.8750 C   0  0  0  0  0  0  0  0  0  0  0  0
  161.6240  210.1300  152.4930 N   0  0  0  0  0  0  0  0  0  0  0  0
  161.0450  204.6730  149.7440 C   0  0  0  0  0  0  0  0  0  0  0  0
  161.2450  207.1130  149.5590 C   0  0  0  0  0  0  0  0  0  0  0  0
  161.9360  210.0440  154.9360 C   0  0  0  0  0  2  0  0  0  0  0  0
  161.5420  207.6770  151.8940 C   0  0  0  0  0  0  0  0  0  0  0  0
  159.9790  206.9450  155.0150 N   0  0  0  0  0  2  0  0  0  0  0  0
  161.2060  208.4250  149.2260 N   0  0  0  0  0  0  0  0  0  0  0  0
  160.8970  208.4920  156.6390 C   0  0  0  0  0  2  0  0  0  0  0  0
  161.6500  208.6030  155.3190 C   0  0  1  0  0  3  0  0  0  0  0  0
  160.7910  207.8910  154.2760 C   0  0  1  0  0  3  0  0  0  0  0  0
  159.1990  213.3960  151.6730 N   0  0  0  0  0  2  0  0  0  0  0  0
  160.8330  211.3440  152.2630 C   0  0  0  0  0  3  0  0  0  0  0  0
  160.9540  211.8310  150.8170 C   0  0  0  0  0  2  0  0  0  0  0  0
  160.0560  213.0490  150.5360 C   0  0  0  0  0  2  0  0  0  0  0  0
  158.4490  212.2080  152.0700 C   0  0  0  0  0  2  0  0  0  0  0  0
  159.3750  211.1670  152.7070 C   0  0  0  0  0  2  0  0  0  0  0  0
  1 15  1  0  0  0  0
  2 16  1  0  0  0  0
  2 12  1  0  0  0  0
  4 14  1  0  0  0  0
  4 13  1  0  0  0  0
  5 13  2  0  0  0  0
  6  2  2  0  0  0  0
  7  9  1  6  0  0  0
 10 19  1  0  0  0  0
 10  8  2  0  0  0  0
 11  7  1  0  0  0  0
 11 16  2  0  0  0  0
 12  1  1  0  0  0  0
 13  7  1  0  0  0  0
 14 11  1  0  0  0  0
 16  3  1  0  0  0  0
 17 10  1  0  0  0  0
 18 14  2  0  0  0  0
 18  6  1  0  0  0  0
 20 15  1  6  0  0  0
 20 19  1  0  0  0  0
 21  3  1  6  0  0  0
 21 17  1  0  0  0  0
 21 20  1  0  0  0  0
 22 26  1  0  0  0  0
 23 12  1  0  0  0  0
 23 27  1  0  0  0  0
 24 23  1  0  0  0  0
 25 24  1  0  0  0  0
 25 22  1  0  0  0  0
 26 27  1  0  0  0  0
M  END
>  <MODEL>
7

>  <REMARK>
 VINA RESULT:      -3.6      3.925      6.173
  Name = 
  1 active torsions:
  status: ('A' for Active; 'I' for Inactive)
    1  A    between atoms: C_9  and  N_15
                            x       y       z     vdW  Elec       q    Type
                         _______ _______ _______ _____ _____    ______ ____

>  <TORSDO>
F 1

$$$$
=
 OpenBabel11052423123D

 27 31  0  0  1  0  0  0  0  0999 V2000
  163.0280  207.3500  151.2180 C   0  0  0  0  0  2  0  0  0  0  0  0
  161.3910  207.4290  153.1560 C   0  0  0  0  0  0  0  0  0  0  0  0
  162.0070  209.8800  152.6180 C   0  0  0  0  0  2  0  0  0  0  0  0
  159.9690  208.8300  157.2610 S   0  0  0  0  0  0  0  0  0  0  0  0
  159.9490  211.4720  157.2510 O   0  0  0  0  0  0  0  0  0  0  0  0
  160.8510  206.5200  154.0880 C   0  0  0  0  0  3  0  0  0  0  0  0
  161.0300  210.5780  155.3370 C   0  0  1  0  0  3  0  0  0  0  0  0
  160.7890  212.3710  148.8990 O   0  0  0  0  0  0  0  0  0  0  0  0
  162.3930  211.0310  155.5630 N   0  0  0  0  0  1  0  0  0  0  0  0
  161.2120  211.3720  149.5370 C   0  0  0  0  0  0  0  0  0  0  0  0
  161.0370  209.1820  154.8060 C   0  0  0  0  0  0  0  0  0  0  0  0
  161.7780  206.9300  151.8570 N   0  0  0  0  0  0  0  0  0  0  0  0
  160.3150  210.4780  156.6450 C   0  0  0  0  0  0  0  0  0  0  0  0
  160.5240  208.2340  155.6750 C   0  0  0  0  0  0  0  0  0  0  0  0
  162.7470  208.1200  149.9280 C   0  0  0  0  0  2  0  0  0  0  0  0
  161.4670  208.8050  153.5210 C   0  0  0  0  0  0  0  0  0  0  0  0
  160.8020  211.0850  150.8590 N   0  0  0  0  0  2  0  0  0  0  0  0
  160.4320  206.9320  155.3120 N   0  0  0  0  0  0  0  0  0  0  0  0
  162.1730  210.3940  148.9850 C   0  0  0  0  0  2  0  0  0  0  0  0
  162.5380  209.5940  150.2290 C   0  0  1  0  0  3  0  0  0  0  0  0
  161.4060  209.8200  151.2290 C   0  0  1  0  0  3  0  0  0  0  0  0
  159.8070  203.7110  150.1320 N   0  0  0  0  0  2  0  0  0  0  0  0
  160.9890  205.8450  151.2630 C   0  0  0  0  0  3  0  0  0  0  0  0
  161.2110  205.7470  149.7520 C   0  0  0  0  0  2  0  0  0  0  0  0
  160.4630  204.5560  149.1300 C   0  0  0  0  0  2  0  0  0  0  0  0
  160.8000  203.3120  151.1260 C   0  0  0  0  0  2  0  0  0  0  0  0
  161.2250  204.5100  151.9820 C   0  0  0  0  0  2  0  0  0  0  0  0
  1 12  1  0  0  0  0
  2 16  2  0  0  0  0
  2  6  1  0  0  0  0
  3 16  1  0  0  0  0
  6 18  2  0  0  0  0
  7  9  1  1  0  0  0
  7 13  1  0  0  0  0
  8 10  2  0  0  0  0
 10 17  1  0  0  0  0
 11  7  1  0  0  0  0
 11 14  2  0  0  0  0
 12  2  1  0  0  0  0
 13  5  2  0  0  0  0
 13  4  1  0  0  0  0
 14  4  1  0  0  0  0
 15 20  1  0  0  0  0
 15  1  1  0  0  0  0
 16 11  1  0  0  0  0
 17 21  1  0  0  0  0
 18 14  1  0  0  0  0
 19 10  1  0  0  0  0
 20 19  1  6  0  0  0
 20 21  1  0  0  0  0
 21  3  1  1  0  0  0
 22 26  1  0  0  0  0
 23 12  1  0  0  0  0
 23 27  1  0  0  0  0
 24 23  1  0  0  0  0
 25 24  1  0  0  0  0
 25 22  1  0  0  0  0
 26 27  1  0  0  0  0
M  END
>  <MODEL>
8

>  <REMARK>
 VINA RESULT:      -2.9      4.267      7.821
  Name = 
  1 active torsions:
  status: ('A' for Active; 'I' for Inactive)
    1  A    between atoms: C_9  and  N_15
                            x       y       z     vdW  Elec       q    Type
                         _______ _______ _______ _____ _____    ______ ____

>  <TORSDO>
F 1

$$$$
=
 OpenBabel11052423123D

 27 31  0  0  1  0  0  0  0  0999 V2000
  159.8310  205.1850  148.4850 C   0  0  0  0  0  2  0  0  0  0  0  0
  161.2580  207.1640  149.1850 C   0  0  0  0  0  0  0  0  0  0  0  0
  160.8420  205.7710  151.3200 C   0  0  0  0  0  2  0  0  0  0  0  0
  162.3180  210.7030  151.8650 S   0  0  0  0  0  0  0  0  0  0  0  0
  162.4890  209.8150  154.3470 O   0  0  0  0  0  0  0  0  0  0  0  0
  161.6450  208.4030  148.6350 C   0  0  0  0  0  3  0  0  0  0  0  0
  161.5660  208.1950  152.8790 C   0  0  1  0  0  3  0  0  0  0  0  0
  162.5820  201.6050  152.3860 O   0  0  0  0  0  0  0  0  0  0  0  0
  160.2140  208.0950  153.4060 N   0  0  0  0  0  1  0  0  0  0  0  0
  162.0390  202.4850  151.6690 C   0  0  0  0  0  0  0  0  0  0  0  0
  161.5360  208.1640  151.3860 C   0  0  0  0  0  0  0  0  0  0  0  0
  160.9820  206.0700  148.2830 N   0  0  0  0  0  0  0  0  0  0  0  0
  162.1330  209.5370  153.2140 C   0  0  0  0  0  0  0  0  0  0  0  0
  161.9000  209.3540  150.7780 C   0  0  0  0  0  0  0  0  0  0  0  0
  160.2900  203.7550  148.7680 C   0  0  0  0  0  2  0  0  0  0  0  0
  161.2220  207.0370  150.6040 C   0  0  0  0  0  0  0  0  0  0  0  0
  162.2910  203.8660  151.8380 N   0  0  0  0  0  2  0  0  0  0  0  0
  161.9560  209.4600  149.4290 N   0  0  0  0  0  0  0  0  0  0  0  0
  161.0870  202.1810  150.5790 C   0  0  0  0  0  2  0  0  0  0  0  0
  160.5490  203.5690  150.2530 C   0  0  1  0  0  3  0  0  0  0  0  0
  161.5810  204.5620  150.7830 C   0  0  1  0  0  3  0  0  0  0  0  0
  163.0340  205.5430  144.7150 N   0  0  0  0  0  2  0  0  0  0  0  0
  161.7660  205.9700  147.0470 C   0  0  0  0  0  3  0  0  0  0  0  0
  162.6960  204.7550  147.0660 C   0  0  0  0  0  2  0  0  0  0  0  0
  163.4560  204.5830  145.7400 C   0  0  0  0  0  2  0  0  0  0  0  0
  161.5840  205.4530  144.5630 C   0  0  0  0  0  2  0  0  0  0  0  0
  160.8720  206.0100  145.8000 C   0  0  0  0  0  2  0  0  0  0  0  0
  1 15  1  0  0  0  0
  2 16  1  0  0  0  0
  4 13  1  0  0  0  0
  6  2  2  0  0  0  0
  6 18  1  0  0  0  0
  7 13  1  0  0  0  0
  7  9  1  1  0  0  0
 10 17  1  0  0  0  0
 10  8  2  0  0  0  0
 11  7  1  0  0  0  0
 12  1  1  0  0  0  0
 12  2  1  0  0  0  0
 13  5  2  0  0  0  0
 14 11  1  0  0  0  0
 14  4  1  0  0  0  0
 16  3  1  0  0  0  0
 16 11  2  0  0  0  0
 18 14  2  0  0  0  0
 19 10  1  0  0  0  0
 20 15  1  6  0  0  0
 20 19  1  0  0  0  0
 20 21  1  0  0  0  0
 21  3  1  1  0  0  0
 21 17  1  0  0  0  0
 22 25  1  0  0  0  0
 23 24  1  0  0  0  0
 23 12  1  0  0  0  0
 25 24  1  0  0  0  0
 26 22  1  0  0  0  0
 26 27  1  0  0  0  0
 27 23  1  0  0  0  0
M  END
>  <MODEL>
9

>  <REMARK>
 VINA RESULT:      -2.8      5.643      9.177
  Name = 
  1 active torsions:
  status: ('A' for Active; 'I' for Inactive)
    1  A    between atoms: C_9  and  N_15
                            x       y       z     vdW  Elec       q    Type
                         _______ _______ _______ _____ _____    ______ ____

>  <TORSDO>
F 1

$$$$
