=
 OpenBabel11052423173D

 27 31  0  0  1  0  0  0  0  0999 V2000
  160.7690  211.1000  151.3440 N   0  0  0  0  0  0  0  0  0  0  0  0
  161.6560  209.1510  150.1660 C   0  0  0  0  0  0  0  0  0  0  0  0
  161.8080  208.5570  152.5460 N   0  0  0  0  0  0  0  0  0  0  0  0
  161.0550  205.0500  149.1800 C   0  0  0  0  0  3  0  0  0  0  0  0
  161.0390  202.7640  149.8550 F   0  0  0  0  0  0  0  0  0  0  0  0
  161.6330  208.7380  148.7050 C   0  0  0  0  0  2  0  0  0  0  0  0
  161.7330  205.7890  151.7910 C   0  0  0  0  0  3  0  0  0  0  0  0
  160.9200  210.6190  155.3690 C   0  0  0  0  0  0  0  0  0  0  0  0
  161.5580  204.4400  151.4690 C   0  0  0  0  0  3  0  0  0  0  0  0
  161.0750  210.6170  156.7140 F   0  0  0  0  0  0  0  0  0  0  0  0
  161.5790  206.7770  150.8080 C   0  0  0  0  0  0  0  0  0  0  0  0
  161.8570  210.6050  150.5130 C   0  0  1  0  0  3  0  0  0  0  0  0
  161.2170  204.0710  150.1650 C   0  0  0  0  0  0  0  0  0  0  0  0
  161.2470  206.3970  149.5000 C   0  0  0  0  0  0  0  0  0  0  0  0
  160.5370  210.6590  152.5400 C   0  0  0  0  0  0  0  0  0  0  0  0
  161.6820  208.2160  151.1490 C   0  0  0  0  0  0  0  0  0  0  0  0
  161.4880  209.6470  154.6450 C   0  0  0  0  0  3  0  0  0  0  0  0
  161.0800  207.4020  148.5070 N   0  0  0  0  0  2  0  0  0  0  0  0
  160.1830  211.7630  154.7170 C   0  0  0  0  0  2  0  0  0  0  0  0
  159.5280  211.3520  153.3950 C   0  0  0  0  0  2  0  0  0  0  0  0
  161.3520  209.6000  153.1800 C   0  0  0  0  0  0  0  0  0  0  0  0
  162.4450  213.2490  147.1690 C   0  0  0  0  0  3  0  0  0  0  0  0
  162.0720  211.5120  149.3340 C   0  0  0  0  0  0  0  0  0  0  0  0
  161.0700  212.4240  148.9830 C   0  0  0  0  0  3  0  0  0  0  0  0
  161.2550  213.2890  147.9010 C   0  0  0  0  0  3  0  0  0  0  0  0
  163.4500  212.3440  147.5180 C   0  0  0  0  0  3  0  0  0  0  0  0
  163.2670  211.4770  148.5990 C   0  0  0  0  0  3  0  0  0  0  0  0
  1 15  2  0  0  0  0
  2 12  1  0  0  0  0
  2 16  2  0  0  0  0
  3 21  2  0  0  0  0
  4 14  2  0  0  0  0
  4 13  1  0  0  0  0
  5 13  1  0  0  0  0
  6  2  1  0  0  0  0
  8 10  1  0  0  0  0
  9  7  1  0  0  0  0
 11 16  1  0  0  0  0
 11  7  2  0  0  0  0
 12 23  1  6  0  0  0
 12  1  1  0  0  0  0
 13  9  2  0  0  0  0
 14 11  1  0  0  0  0
 15 21  1  0  0  0  0
 15 20  1  0  0  0  0
 16  3  1  0  0  0  0
 17  8  2  0  0  0  0
 18  6  1  0  0  0  0
 18 14  1  0  0  0  0
 19  8  1  0  0  0  0
 20 19  1  0  0  0  0
 21 17  1  0  0  0  0
 22 26  2  0  0  0  0
 22 25  1  0  0  0  0
 24 23  1  0  0  0  0
 25 24  2  0  0  0  0
 26 27  1  0  0  0  0
 27 23  2  0  0  0  0
M  END
>  <MODEL>
1

>  <REMARK>
 VINA RESULT:      -7.8      0.000      0.000
  Name = 
  1 active torsions:
  status: ('A' for Active; 'I' for Inactive)
    1  A    between atoms: C_9  and  C_15
                            x       y       z     vdW  Elec       q    Type
                         _______ _______ _______ _____ _____    ______ ____

>  <TORSDO>
F 1

$$$$
=
 OpenBabel11052423173D

 27 31  0  0  1  0  0  0  0  0999 V2000
  161.5780  209.2160  153.6270 N   0  0  0  0  0  0  0  0  0  0  0  0
  161.2390  209.6620  151.2480 C   0  0  0  0  0  0  0  0  0  0  0  0
  160.3290  211.6430  152.3840 N   0  0  0  0  0  0  0  0  0  0  0  0
  162.3480  212.0810  147.9210 C   0  0  0  0  0  3  0  0  0  0  0  0
  162.2550  214.1810  146.7950 F   0  0  0  0  0  0  0  0  0  0  0  0
  161.7720  208.9940  149.9940 C   0  0  0  0  0  2  0  0  0  0  0  0
  160.7960  213.1510  149.9870 C   0  0  0  0  0  3  0  0  0  0  0  0
  160.1110  212.2080  155.9400 C   0  0  0  0  0  0  0  0  0  0  0  0
  161.1390  213.9430  148.8880 C   0  0  0  0  0  3  0  0  0  0  0  0
  159.5140  213.0720  156.7950 F   0  0  0  0  0  0  0  0  0  0  0  0
  161.2200  211.8160  150.0560 C   0  0  0  0  0  0  0  0  0  0  0  0
  160.8580  208.8050  152.4290 C   0  0  1  0  0  3  0  0  0  0  0  0
  161.9160  213.4100  147.8560 C   0  0  0  0  0  0  0  0  0  0  0  0
  161.9900  211.2860  149.0130 C   0  0  0  0  0  0  0  0  0  0  0  0
  161.4180  210.3740  154.1850 C   0  0  0  0  0  0  0  0  0  0  0  0
  160.9330  210.9840  151.2510 C   0  0  0  0  0  0  0  0  0  0  0  0
  159.8690  212.3150  154.6280 C   0  0  0  0  0  3  0  0  0  0  0  0
  162.4280  209.9340  149.0910 N   0  0  0  0  0  2  0  0  0  0  0  0
  160.9630  211.0950  156.5000 C   0  0  0  0  0  2  0  0  0  0  0  0
  162.0430  210.6420  155.5130 C   0  0  0  0  0  2  0  0  0  0  0  0
  160.4910  211.4030  153.6550 C   0  0  0  0  0  0  0  0  0  0  0  0
  161.2440  204.5580  151.8530 C   0  0  0  0  0  3  0  0  0  0  0  0
  161.0040  207.3260  152.2100 C   0  0  0  0  0  0  0  0  0  0  0  0
  161.2570  206.4950  153.3070 C   0  0  0  0  0  3  0  0  0  0  0  0
  161.3790  205.1140  153.1290 C   0  0  0  0  0  3  0  0  0  0  0  0
  160.9880  205.3830  150.7550 C   0  0  0  0  0  3  0  0  0  0  0  0
  160.8650  206.7650  150.9310 C   0  0  0  0  0  3  0  0  0  0  0  0
  1 15  2  0  0  0  0
  2 16  2  0  0  0  0
  2 12  1  0  0  0  0
  3 21  2  0  0  0  0
  4 14  1  0  0  0  0
  5 13  1  0  0  0  0
  6  2  1  0  0  0  0
  7 11  1  0  0  0  0
  8 19  1  0  0  0  0
  8 10  1  0  0  0  0
  9  7  2  0  0  0  0
 11 16  1  0  0  0  0
 12 23  1  6  0  0  0
 12  1  1  0  0  0  0
 13  4  2  0  0  0  0
 13  9  1  0  0  0  0
 14 18  1  0  0  0  0
 14 11  2  0  0  0  0
 15 20  1  0  0  0  0
 16  3  1  0  0  0  0
 17  8  2  0  0  0  0
 18  6  1  0  0  0  0
 20 19  1  0  0  0  0
 21 15  1  0  0  0  0
 21 17  1  0  0  0  0
 22 25  1  0  0  0  0
 23 24  1  0  0  0  0
 25 24  2  0  0  0  0
 26 27  1  0  0  0  0
 26 22  2  0  0  0  0
 27 23  2  0  0  0  0
M  END
>  <MODEL>
2

>  <REMARK>
 VINA RESULT:      -6.5      2.646      5.962
  Name = 
  1 active torsions:
  status: ('A' for Active; 'I' for Inactive)
    1  A    between atoms: C_9  and  C_15
                            x       y       z     vdW  Elec       q    Type
                         _______ _______ _______ _____ _____    ______ ____

>  <TORSDO>
F 1

$$$$
=
 OpenBabel11052423173D

 27 31  0  0  1  0  0  0  0  0999 V2000
  161.3740  207.5950  153.4060 N   0  0  0  0  0  0  0  0  0  0  0  0
  161.1350  208.5670  151.1770 C   0  0  0  0  0  0  0  0  0  0  0  0
  160.1320  210.2280  152.6860 N   0  0  0  0  0  0  0  0  0  0  0  0
  162.3430  211.6900  148.5420 C   0  0  0  0  0  3  0  0  0  0  0  0
  162.2570  213.9890  147.9180 F   0  0  0  0  0  0  0  0  0  0  0  0
  161.7380  208.2070  149.8310 C   0  0  0  0  0  2  0  0  0  0  0  0
  160.6770  212.2460  150.7190 C   0  0  0  0  0  3  0  0  0  0  0  0
  159.7410  209.9680  156.2620 C   0  0  0  0  0  0  0  0  0  0  0  0
  161.0520  213.2710  149.8460 C   0  0  0  0  0  3  0  0  0  0  0  0
  159.0870  210.6100  157.2600 F   0  0  0  0  0  0  0  0  0  0  0  0
  161.1240  210.9340  150.5040 C   0  0  0  0  0  0  0  0  0  0  0  0
  160.7180  207.4600  152.1130 C   0  0  1  0  0  3  0  0  0  0  0  0
  161.8870  212.9940  148.7590 C   0  0  0  0  0  0  0  0  0  0  0  0
  161.9520  210.6640  149.4070 C   0  0  0  0  0  0  0  0  0  0  0  0
  161.1640  208.5950  154.2030 C   0  0  0  0  0  0  0  0  0  0  0  0
  160.8010  209.8500  151.4640 C   0  0  0  0  0  0  0  0  0  0  0  0
  159.5570  210.3680  154.9980 C   0  0  0  0  0  3  0  0  0  0  0  0
  162.4150  209.3340  149.1980 N   0  0  0  0  0  2  0  0  0  0  0  0
  160.5900  208.7660  156.5960 C   0  0  0  0  0  2  0  0  0  0  0  0
  161.7230  208.5600  155.5870 C   0  0  0  0  0  2  0  0  0  0  0  0
  160.2410  209.7070  153.8750 C   0  0  0  0  0  0  0  0  0  0  0  0
  161.2280  203.4590  150.6140 C   0  0  0  0  0  3  0  0  0  0  0  0
  160.9060  206.0710  151.5710 C   0  0  0  0  0  0  0  0  0  0  0  0
  161.3030  205.0480  152.4390 C   0  0  0  0  0  3  0  0  0  0  0  0
  161.4670  203.7450  151.9620 C   0  0  0  0  0  3  0  0  0  0  0  0
  160.8270  204.4750  149.7440 C   0  0  0  0  0  3  0  0  0  0  0  0
  160.6630  205.7800  150.2200 C   0  0  0  0  0  3  0  0  0  0  0  0
  1 15  2  0  0  0  0
  2 16  2  0  0  0  0
  2 12  1  0  0  0  0
  3 21  2  0  0  0  0
  4 13  2  0  0  0  0
  4 14  1  0  0  0  0
  5 13  1  0  0  0  0
  6  2  1  0  0  0  0
  8 19  1  0  0  0  0
  8 10  1  0  0  0  0
  9  7  2  0  0  0  0
 11  7  1  0  0  0  0
 11 16  1  0  0  0  0
 12 23  1  6  0  0  0
 12  1  1  0  0  0  0
 13  9  1  0  0  0  0
 14 11  2  0  0  0  0
 15 20  1  0  0  0  0
 16  3  1  0  0  0  0
 17  8  2  0  0  0  0
 18 14  1  0  0  0  0
 18  6  1  0  0  0  0
 20 19  1  0  0  0  0
 21 15  1  0  0  0  0
 21 17  1  0  0  0  0
 22 25  1  0  0  0  0
 23 24  1  0  0  0  0
 25 24  2  0  0  0  0
 26 27  1  0  0  0  0
 26 22  2  0  0  0  0
 27 23  2  0  0  0  0
M  END
>  <MODEL>
3

>  <REMARK>
 VINA RESULT:      -6.3      2.486      5.947
  Name = 
  1 active torsions:
  status: ('A' for Active; 'I' for Inactive)
    1  A    between atoms: C_9  and  C_15
                            x       y       z     vdW  Elec       q    Type
                         _______ _______ _______ _____ _____    ______ ____

>  <TORSDO>
F 1

$$$$
=
 OpenBabel11052423173D

 27 31  0  0  1  0  0  0  0  0999 V2000
  162.4410  208.8450  148.9030 N   0  0  0  0  0  0  0  0  0  0  0  0
  161.5220  209.5420  151.0570 C   0  0  0  0  0  0  0  0  0  0  0  0
  160.7160  207.2400  150.7570 N   0  0  0  0  0  0  0  0  0  0  0  0
  161.6010  208.9650  155.2780 C   0  0  0  0  0  3  0  0  0  0  0  0
  161.0530  207.6230  157.1710 F   0  0  0  0  0  0  0  0  0  0  0  0
  161.8130  210.7280  151.9600 C   0  0  0  0  0  2  0  0  0  0  0  0
  160.4740  207.0240  153.6090 C   0  0  0  0  0  3  0  0  0  0  0  0
  161.2710  205.0890  147.9160 C   0  0  0  0  0  0  0  0  0  0  0  0
  160.4770  206.8380  154.9940 C   0  0  0  0  0  3  0  0  0  0  0  0
  160.8080  203.9130  147.4290 F   0  0  0  0  0  0  0  0  0  0  0  0
  161.0260  208.1850  153.0490 C   0  0  0  0  0  0  0  0  0  0  0  0
  161.5070  209.7460  149.5630 C   0  0  1  0  0  3  0  0  0  0  0  0
  161.0430  207.8070  155.8290 C   0  0  0  0  0  0  0  0  0  0  0  0
  161.5810  209.1560  153.8940 C   0  0  0  0  0  0  0  0  0  0  0  0
  162.3050  207.5570  148.9110 C   0  0  0  0  0  0  0  0  0  0  0  0
  161.1020  208.3620  151.5790 C   0  0  0  0  0  0  0  0  0  0  0  0
  160.7240  205.5950  149.0280 C   0  0  0  0  0  3  0  0  0  0  0  0
  162.1510  210.3280  153.3220 N   0  0  0  0  0  2  0  0  0  0  0  0
  162.3310  205.8360  147.1440 C   0  0  0  0  0  2  0  0  0  0  0  0
  163.1920  206.7200  148.0500 C   0  0  0  0  0  2  0  0  0  0  0  0
  161.1890  206.8690  149.6010 C   0  0  0  0  0  0  0  0  0  0  0  0
  162.1860  213.7800  148.2280 C   0  0  0  0  0  3  0  0  0  0  0  0
  161.7370  211.1620  149.1160 C   0  0  0  0  0  0  0  0  0  0  0  0
  162.8560  211.4550  148.3280 C   0  0  0  0  0  3  0  0  0  0  0  0
  163.0810  212.7620  147.8860 C   0  0  0  0  0  3  0  0  0  0  0  0
  161.0650  213.4920  149.0110 C   0  0  0  0  0  3  0  0  0  0  0  0
  160.8390  212.1850  149.4540 C   0  0  0  0  0  3  0  0  0  0  0  0
  1 15  2  0  0  0  0
  1 12  1  0  0  0  0
  2 16  2  0  0  0  0
  2  6  1  0  0  0  0
  3 16  1  0  0  0  0
  4 13  1  0  0  0  0
  6 18  1  0  0  0  0
  7  9  1  0  0  0  0
  8 17  2  0  0  0  0
  9 13  2  0  0  0  0
 10  8  1  0  0  0  0
 11  7  2  0  0  0  0
 11 14  1  0  0  0  0
 12 23  1  1  0  0  0
 12  2  1  0  0  0  0
 13  5  1  0  0  0  0
 14  4  2  0  0  0  0
 15 21  1  0  0  0  0
 16 11  1  0  0  0  0
 17 21  1  0  0  0  0
 18 14  1  0  0  0  0
 19  8  1  0  0  0  0
 19 20  1  0  0  0  0
 20 15  1  0  0  0  0
 21  3  2  0  0  0  0
 22 26  1  0  0  0  0
 23 27  1  0  0  0  0
 24 23  2  0  0  0  0
 25 22  2  0  0  0  0
 25 24  1  0  0  0  0
 26 27  2  0  0  0  0
M  END
>  <MODEL>
4

>  <REMARK>
 VINA RESULT:      -6.0      1.757      5.463
  Name = 
  1 active torsions:
  status: ('A' for Active; 'I' for Inactive)
    1  A    between atoms: C_9  and  C_15
                            x       y       z     vdW  Elec       q    Type
                         _______ _______ _______ _____ _____    ______ ____

>  <TORSDO>
F 1

$$$$
=
 OpenBabel11052423173D

 27 31  0  0  1  0  0  0  0  0999 V2000
  160.6760  206.9590  151.5540 N   0  0  0  0  0  0  0  0  0  0  0  0
  161.3900  209.2960  151.5080 C   0  0  0  0  0  0  0  0  0  0  0  0
  162.3100  208.3280  149.4440 N   0  0  0  0  0  0  0  0  0  0  0  0
  160.9970  213.0660  149.5640 C   0  0  0  0  0  3  0  0  0  0  0  0
  161.4440  214.4530  147.6770 F   0  0  0  0  0  0  0  0  0  0  0  0
  160.9810  210.5090  152.3240 C   0  0  0  0  0  2  0  0  0  0  0  0
  162.3310  210.9590  148.2990 C   0  0  0  0  0  3  0  0  0  0  0  0
  162.0700  204.8990  148.3500 C   0  0  0  0  0  0  0  0  0  0  0  0
  162.2240  212.2000  147.6650 C   0  0  0  0  0  3  0  0  0  0  0  0
  162.6180  204.0950  147.4080 F   0  0  0  0  0  0  0  0  0  0  0  0
  161.7790  210.7660  149.5730 C   0  0  0  0  0  0  0  0  0  0  0  0
  161.5180  207.9590  152.1960 C   0  0  1  0  0  3  0  0  0  0  0  0
  161.5550  213.2530  148.2950 C   0  0  0  0  0  0  0  0  0  0  0  0
  161.1200  211.8300  150.2030 C   0  0  0  0  0  0  0  0  0  0  0  0
  160.8620  206.5550  150.3370 C   0  0  0  0  0  0  0  0  0  0  0  0
  161.8140  209.4350  150.2270 C   0  0  0  0  0  0  0  0  0  0  0  0
  162.5060  206.1600  148.4660 C   0  0  0  0  0  3  0  0  0  0  0  0
  160.5510  211.6280  151.4920 N   0  0  0  0  0  2  0  0  0  0  0  0
  161.0470  204.3250  149.2990 C   0  0  0  0  0  2  0  0  0  0  0  0
  160.0810  205.3910  149.8230 C   0  0  0  0  0  2  0  0  0  0  0  0
  161.9460  207.0770  149.4720 C   0  0  0  0  0  0  0  0  0  0  0  0
  160.8090  207.9710  156.4400 C   0  0  0  0  0  3  0  0  0  0  0  0
  161.2670  207.9850  153.6770 C   0  0  0  0  0  0  0  0  0  0  0  0
  160.5200  206.9550  154.2610 C   0  0  0  0  0  3  0  0  0  0  0  0
  160.2890  206.9490  155.6390 C   0  0  0  0  0  3  0  0  0  0  0  0
  161.5590  208.9980  155.8630 C   0  0  0  0  0  3  0  0  0  0  0  0
  161.7900  209.0060  154.4850 C   0  0  0  0  0  3  0  0  0  0  0  0
  1 12  1  0  0  0  0
  2 12  1  0  0  0  0
  2  6  1  0  0  0  0
  3 21  2  0  0  0  0
  3 16  1  0  0  0  0
  4 14  1  0  0  0  0
  5 13  1  0  0  0  0
  7 11  1  0  0  0  0
  8 17  2  0  0  0  0
  8 19  1  0  0  0  0
  9 13  1  0  0  0  0
  9  7  2  0  0  0  0
 10  8  1  0  0  0  0
 11 14  2  0  0  0  0
 11 16  1  0  0  0  0
 12 23  1  1  0  0  0
 13  4  2  0  0  0  0
 14 18  1  0  0  0  0
 15  1  2  0  0  0  0
 16  2  2  0  0  0  0
 17 21  1  0  0  0  0
 18  6  1  0  0  0  0
 19 20  1  0  0  0  0
 20 15  1  0  0  0  0
 21 15  1  0  0  0  0
 23 24  2  0  0  0  0
 23 27  1  0  0  0  0
 24 25  1  0  0  0  0
 25 22  2  0  0  0  0
 26 22  1  0  0  0  0
 27 26  2  0  0  0  0
M  END
>  <MODEL>
5

>  <REMARK>
 VINA RESULT:      -5.7      2.451      7.247
  Name = 
  1 active torsions:
  status: ('A' for Active; 'I' for Inactive)
    1  A    between atoms: C_9  and  C_15
                            x       y       z     vdW  Elec       q    Type
                         _______ _______ _______ _____ _____    ______ ____

>  <TORSDO>
F 1

$$$$
=
 OpenBabel11052423173D

 27 31  0  0  1  0  0  0  0  0999 V2000
  162.0040  208.6890  152.2700 N   0  0  0  0  0  0  0  0  0  0  0  0
  161.0510  206.4400  152.2110 C   0  0  0  0  0  0  0  0  0  0  0  0
  160.8590  207.2530  149.8990 N   0  0  0  0  0  0  0  0  0  0  0  0
  161.5010  202.4550  150.7700 C   0  0  0  0  0  3  0  0  0  0  0  0
  161.4250  200.9150  148.9530 F   0  0  0  0  0  0  0  0  0  0  0  0
  161.0680  205.2920  153.2040 C   0  0  0  0  0  2  0  0  0  0  0  0
  160.8340  204.5240  149.0110 C   0  0  0  0  0  3  0  0  0  0  0  0
  161.8060  210.5000  148.6460 C   0  0  0  0  0  0  0  0  0  0  0  0
  160.9600  203.2160  148.5360 C   0  0  0  0  0  3  0  0  0  0  0  0
  161.6420  211.2420  147.5250 F   0  0  0  0  0  0  0  0  0  0  0  0
  161.0330  204.8060  150.3700 C   0  0  0  0  0  0  0  0  0  0  0  0
  160.9030  207.8510  152.7230 C   0  0  1  0  0  3  0  0  0  0  0  0
  161.2950  202.1820  149.4150 C   0  0  0  0  0  0  0  0  0  0  0  0
  161.3590  203.7620  151.2460 C   0  0  0  0  0  0  0  0  0  0  0  0
  162.2100  208.9710  151.0220 C   0  0  0  0  0  0  0  0  0  0  0  0
  160.9820  206.1990  150.8770 C   0  0  0  0  0  0  0  0  0  0  0  0
  161.2060  209.3070  148.7330 C   0  0  0  0  0  3  0  0  0  0  0  0
  161.5710  204.0520  152.6230 N   0  0  0  0  0  2  0  0  0  0  0  0
  162.5910  211.0780  149.7980 C   0  0  0  0  0  2  0  0  0  0  0  0
  163.2380  209.9910  150.6600 C   0  0  0  0  0  2  0  0  0  0  0  0
  161.3510  208.4600  149.9280 C   0  0  0  0  0  0  0  0  0  0  0  0
  160.3970  208.2450  156.9780 C   0  0  0  0  0  3  0  0  0  0  0  0
  160.7310  207.9670  154.2110 C   0  0  0  0  0  0  0  0  0  0  0  0
  161.2060  209.1090  154.8650 C   0  0  0  0  0  3  0  0  0  0  0  0
  161.0420  209.2480  156.2470 C   0  0  0  0  0  3  0  0  0  0  0  0
  159.9170  207.1050  156.3290 C   0  0  0  0  0  3  0  0  0  0  0  0
  160.0810  206.9650  154.9480 C   0  0  0  0  0  3  0  0  0  0  0  0
  1 12  1  0  0  0  0
  2 12  1  0  0  0  0
  2  6  1  0  0  0  0
  3 21  2  0  0  0  0
  3 16  1  0  0  0  0
  4 14  1  0  0  0  0
  5 13  1  0  0  0  0
  7 11  1  0  0  0  0
  8 17  2  0  0  0  0
  8 19  1  0  0  0  0
  9  7  2  0  0  0  0
  9 13  1  0  0  0  0
 10  8  1  0  0  0  0
 11 16  1  0  0  0  0
 11 14  2  0  0  0  0
 12 23  1  1  0  0  0
 13  4  2  0  0  0  0
 14 18  1  0  0  0  0
 15  1  2  0  0  0  0
 16  2  2  0  0  0  0
 17 21  1  0  0  0  0
 18  6  1  0  0  0  0
 19 20  1  0  0  0  0
 20 15  1  0  0  0  0
 21 15  1  0  0  0  0
 23 24  2  0  0  0  0
 23 27  1  0  0  0  0
 24 25  1  0  0  0  0
 25 22  2  0  0  0  0
 26 22  1  0  0  0  0
 27 26  2  0  0  0  0
M  END
>  <MODEL>
6

>  <REMARK>
 VINA RESULT:      -5.1      2.538      5.725
  Name = 
  1 active torsions:
  status: ('A' for Active; 'I' for Inactive)
    1  A    between atoms: C_9  and  C_15
                            x       y       z     vdW  Elec       q    Type
                         _______ _______ _______ _____ _____    ______ ____

>  <TORSDO>
F 1

$$$$
=
 OpenBabel11052423173D

 27 31  0  0  1  0  0  0  0  0999 V2000
  161.2050  209.3870  147.7560 N   0  0  0  0  0  0  0  0  0  0  0  0
  161.6760  208.2620  149.8740 C   0  0  0  0  0  0  0  0  0  0  0  0
  162.5130  210.5520  150.1900 N   0  0  0  0  0  0  0  0  0  0  0  0
  160.7480  208.0290  154.0250 C   0  0  0  0  0  3  0  0  0  0  0  0
  160.8960  208.9670  156.2120 F   0  0  0  0  0  0  0  0  0  0  0  0
  161.2170  206.9370  150.4550 C   0  0  0  0  0  2  0  0  0  0  0  0
  162.1760  210.2130  153.0200 C   0  0  0  0  0  3  0  0  0  0  0  0
  162.5270  213.2210  147.7650 C   0  0  0  0  0  0  0  0  0  0  0  0
  161.8930  210.1310  154.3860 C   0  0  0  0  0  3  0  0  0  0  0  0
  163.0720  214.4520  147.6150 F   0  0  0  0  0  0  0  0  0  0  0  0
  161.7550  209.1980  152.1490 C   0  0  0  0  0  0  0  0  0  0  0  0
  161.9930  208.3460  148.4010 C   0  0  1  0  0  3  0  0  0  0  0  0
  161.1780  209.0410  154.8890 C   0  0  0  0  0  0  0  0  0  0  0  0
  161.0470  208.1030  152.6620 C   0  0  0  0  0  0  0  0  0  0  0  0
  161.3290  210.6450  148.0390 C   0  0  0  0  0  0  0  0  0  0  0  0
  161.9760  209.3070  150.6860 C   0  0  0  0  0  0  0  0  0  0  0  0
  162.8430  212.4950  148.8440 C   0  0  0  0  0  3  0  0  0  0  0  0
  160.6100  207.0810  151.7740 N   0  0  0  0  0  2  0  0  0  0  0  0
  161.6490  212.6700  146.6680 C   0  0  0  0  0  2  0  0  0  0  0  0
  160.6280  211.6590  147.1980 C   0  0  0  0  0  2  0  0  0  0  0  0
  162.2800  211.1510  149.0570 C   0  0  0  0  0  0  0  0  0  0  0  0
  161.6060  204.6640  146.2080 C   0  0  0  0  0  3  0  0  0  0  0  0
  161.8650  207.0490  147.6530 C   0  0  0  0  0  0  0  0  0  0  0  0
  160.7680  206.8560  146.8060 C   0  0  0  0  0  3  0  0  0  0  0  0
  160.6370  205.6650  146.0860 C   0  0  0  0  0  3  0  0  0  0  0  0
  162.7060  204.8540  147.0490 C   0  0  0  0  0  3  0  0  0  0  0  0
  162.8380  206.0450  147.7690 C   0  0  0  0  0  3  0  0  0  0  0  0
  1 15  2  0  0  0  0
  1 12  1  0  0  0  0
  2  6  1  0  0  0  0
  2 16  2  0  0  0  0
  3 16  1  0  0  0  0
  4 13  1  0  0  0  0
  6 18  1  0  0  0  0
  7  9  1  0  0  0  0
  8 17  2  0  0  0  0
  9 13  2  0  0  0  0
 10  8  1  0  0  0  0
 11 14  1  0  0  0  0
 11  7  2  0  0  0  0
 12 23  1  6  0  0  0
 12  2  1  0  0  0  0
 13  5  1  0  0  0  0
 14  4  2  0  0  0  0
 15 21  1  0  0  0  0
 16 11  1  0  0  0  0
 17 21  1  0  0  0  0
 18 14  1  0  0  0  0
 19 20  1  0  0  0  0
 19  8  1  0  0  0  0
 20 15  1  0  0  0  0
 21  3  2  0  0  0  0
 22 26  1  0  0  0  0
 23 27  1  0  0  0  0
 24 23  2  0  0  0  0
 25 22  2  0  0  0  0
 25 24  1  0  0  0  0
 26 27  2  0  0  0  0
M  END
>  <MODEL>
7

>  <REMARK>
 VINA RESULT:      -5.0      2.604      5.903
  Name = 
  1 active torsions:
  status: ('A' for Active; 'I' for Inactive)
    1  A    between atoms: C_9  and  C_15
                            x       y       z     vdW  Elec       q    Type
                         _______ _______ _______ _____ _____    ______ ____

>  <TORSDO>
F 1

$$$$
