=
 OpenBabel11052422023D

 30 34  0  0  1  0  0  0  0  0999 V2000
  159.0110  209.1850  155.1070 C   0  0  1  0  0  3  0  0  0  0  0  0
  155.9370  211.1870  155.9340 C   0  0  0  0  0  2  0  0  0  0  0  0
  159.7280  214.1070  156.0800 C   0  0  0  0  0  1  0  0  0  0  0  0
  159.7420  209.3060  153.7290 C   0  0  2  0  0  3  0  0  0  0  0  0
  159.9120  208.6500  156.2240 C   0  0  0  0  0  2  0  0  0  0  0  0
  162.0490  208.0810  150.0490 C   0  0  0  0  0  2  0  0  0  0  0  0
  161.1190  207.2610  154.4310 C   0  0  2  0  0  3  0  0  0  0  0  0
  160.6550  210.8670  151.8840 C   0  0  0  0  0  2  0  0  0  0  0  0
  161.5730  211.8070  154.5740 C   0  0  0  0  0  1  0  0  0  0  0  0
  160.5250  207.3010  155.8470 C   0  0  0  0  0  2  0  0  0  0  0  0
  161.1380  208.6520  153.7750 C   0  0  1  0  0  3  0  0  0  0  0  0
  155.9610  212.5820  155.8580 O   0  0  0  0  0  0  0  0  0  0  0  0
  162.0190  210.1670  151.9960 C   0  0  2  0  0  3  0  0  0  0  0  0
  162.1140  209.5790  149.7570 C   0  0  0  0  0  2  0  0  0  0  0  0
  156.9460  210.6100  154.9530 C   0  0  0  0  0  2  0  0  0  0  0  0
  159.2620  211.7000  155.4880 C   0  0  1  0  0  3  0  0  0  0  0  0
  156.4140  213.0400  157.1050 C   0  0  0  0  0  2  0  0  0  0  0  0
  158.3280  210.4640  155.5930 C   0  0  2  0  0  3  0  0  0  0  0  0
  158.4630  211.0160  152.6560 O   0  0  0  0  0  1  0  0  0  0  0  0
  160.0980  211.8020  154.1940 C   0  0  2  0  0  3  0  0  0  0  0  0
  159.7470  210.7410  153.1240 C   0  0  1  0  0  0  0  0  0  0  0  0
  162.7720  210.2730  150.8000 O   0  0  0  0  0  0  0  0  0  0  0  0
  161.2720  207.8660  151.3400 C   0  0  0  0  0  2  0  0  0  0  0  0
  158.6540  213.0450  155.9250 C   0  0  1  0  0  3  0  0  0  0  0  0
  157.9320  212.9000  157.2600 C   0  0  0  0  0  2  0  0  0  0  0  0
  161.8990  208.7100  152.4510 C   0  0  2  0  0  3  0  0  0  0  0  0
  160.3860  206.3570  153.6580 O   0  0  0  0  0  0  0  0  0  0  0  0
  161.1940  205.2760  153.5350 N   0  0  0  0  0  2  0  0  0  0  0  0
  160.6090  204.4320  152.5100 C   0  0  0  0  0  2  0  0  0  0  0  0
  161.5980  204.2570  151.3770 C   0  0  0  0  0  1  0  0  0  0  0  0
  1 18  1  0  0  0  0
  1  5  1  1  0  0  0
  4 11  1  0  0  0  0
  4  1  1  0  0  0  0
  6 23  1  0  0  0  0
  7 10  1  0  0  0  0
  8 13  1  0  0  0  0
  8 21  1  0  0  0  0
 10  5  1  0  0  0  0
 11  7  1  0  0  0  0
 12  2  1  0  0  0  0
 12 17  1  0  0  0  0
 13 26  1  0  0  0  0
 14  6  1  0  0  0  0
 14 22  1  0  0  0  0
 15 18  1  0  0  0  0
 15  2  1  0  0  0  0
 16 18  1  0  0  0  0
 16 24  1  0  0  0  0
 17 25  1  0  0  0  0
 19 21  1  0  0  0  0
 20  9  1  0  0  0  0
 20 16  1  0  0  0  0
 21  4  1  0  0  0  0
 21 20  1  0  0  0  0
 22 13  1  0  0  0  0
 23 26  1  0  0  0  0
 24  3  1  0  0  0  0
 24 25  1  0  0  0  0
 26 11  1  0  0  0  0
 27  7  1  0  0  0  0
 28 27  1  0  0  0  0
 29 28  1  0  0  0  0
 30 29  1  0  0  0  0
M  END
>  <MODEL>
1

>  <REMARK>
 VINA RESULT:      -3.8      0.000      0.000
  Name = 
  3 active torsions:
  status: ('A' for Active; 'I' for Inactive)
    1  A    between atoms: O_6  and  C_8
    2  A    between atoms: O_6  and  N_21
    3  A    between atoms: C_9  and  N_21
                            x       y       z     vdW  Elec       q    Type
                         _______ _______ _______ _____ _____    ______ ____

>  <TORSDO>
F 3

$$$$
=
 OpenBabel11052422023D

 30 34  0  0  1  0  0  0  0  0999 V2000
  159.7840  208.3340  154.1100 C   0  0  1  0  0  3  0  0  0  0  0  0
  156.9480  210.1550  155.7780 C   0  0  0  0  0  2  0  0  0  0  0  0
  160.8720  212.8830  156.0610 C   0  0  0  0  0  1  0  0  0  0  0  0
  160.3370  208.7540  152.7090 C   0  0  2  0  0  3  0  0  0  0  0  0
  160.7910  207.5370  154.9440 C   0  0  0  0  0  2  0  0  0  0  0  0
  162.0890  208.3620  148.5680 C   0  0  0  0  0  2  0  0  0  0  0  0
  161.6850  206.5740  152.7370 C   0  0  2  0  0  3  0  0  0  0  0  0
  161.0860  210.6780  151.1570 C   0  0  0  0  0  2  0  0  0  0  0  0
  162.3880  210.9530  153.8380 C   0  0  0  0  0  1  0  0  0  0  0  0
  161.2800  206.2980  154.1920 C   0  0  0  0  0  2  0  0  0  0  0  0
  161.6920  208.0780  152.4150 C   0  0  1  0  0  3  0  0  0  0  0  0
  157.0330  211.5290  156.0160 O   0  0  0  0  0  0  0  0  0  0  0  0
  162.4150  209.9430  150.9210 C   0  0  2  0  0  3  0  0  0  0  0  0
  162.1930  209.8850  148.6150 C   0  0  0  0  0  2  0  0  0  0  0  0
  157.7920  209.7990  154.5650 C   0  0  0  0  0  2  0  0  0  0  0  0
  160.2100  210.6870  155.0100 C   0  0  1  0  0  3  0  0  0  0  0  0
  157.6650  211.6780  157.2610 C   0  0  0  0  0  2  0  0  0  0  0  0
  159.2350  209.4800  154.9600 C   0  0  2  0  0  3  0  0  0  0  0  0
  159.0210  210.6910  152.2330 O   0  0  0  0  0  1  0  0  0  0  0  0
  160.8780  211.0680  153.6710 C   0  0  2  0  0  3  0  0  0  0  0  0
  160.3390  210.2880  152.4480 C   0  0  1  0  0  0  0  0  0  0  0  0
  163.0140  210.3060  149.6880 O   0  0  0  0  0  0  0  0  0  0  0  0
  161.4730  207.8720  149.8700 C   0  0  0  0  0  2  0  0  0  0  0  0
  159.7340  211.9070  155.8190 C   0  0  1  0  0  3  0  0  0  0  0  0
  159.1810  211.4740  157.1720 C   0  0  0  0  0  2  0  0  0  0  0  0
  162.2790  208.4230  151.0470 C   0  0  2  0  0  3  0  0  0  0  0  0
  160.8140  205.8870  151.8870 O   0  0  0  0  0  0  0  0  0  0  0  0
  161.0830  204.5770  152.1030 N   0  0  0  0  0  2  0  0  0  0  0  0
  160.5560  203.8490  150.9640 C   0  0  0  0  0  2  0  0  0  0  0  0
  161.1590  204.4020  149.6900 C   0  0  0  0  0  1  0  0  0  0  0  0
  1  5  1  1  0  0  0
  1 18  1  0  0  0  0
  2 12  1  0  0  0  0
  4  1  1  0  0  0  0
  6 14  1  0  0  0  0
  6 23  1  0  0  0  0
  7 10  1  0  0  0  0
  8 21  1  0  0  0  0
 10  5  1  0  0  0  0
 11  4  1  0  0  0  0
 11  7  1  0  0  0  0
 12 17  1  0  0  0  0
 13 26  1  0  0  0  0
 13  8  1  0  0  0  0
 14 22  1  0  0  0  0
 15 18  1  0  0  0  0
 15  2  1  0  0  0  0
 16 24  1  0  0  0  0
 18 16  1  0  0  0  0
 19 21  1  0  0  0  0
 20  9  1  0  0  0  0
 20 16  1  0  0  0  0
 21  4  1  0  0  0  0
 21 20  1  0  0  0  0
 22 13  1  0  0  0  0
 23 26  1  0  0  0  0
 24  3  1  0  0  0  0
 24 25  1  0  0  0  0
 25 17  1  0  0  0  0
 26 11  1  0  0  0  0
 27 28  1  0  0  0  0
 27  7  1  0  0  0  0
 29 28  1  0  0  0  0
 30 29  1  0  0  0  0
M  END
>  <MODEL>
2

>  <REMARK>
 VINA RESULT:      -1.5      1.253      1.517
  Name = 
  3 active torsions:
  status: ('A' for Active; 'I' for Inactive)
    1  A    between atoms: O_6  and  C_8
    2  A    between atoms: O_6  and  N_21
    3  A    between atoms: C_9  and  N_21
                            x       y       z     vdW  Elec       q    Type
                         _______ _______ _______ _____ _____    ______ ____

>  <TORSDO>
F 3

$$$$
=
 OpenBabel11052422023D

 30 34  0  0  1  0  0  0  0  0999 V2000
  161.8230  211.4880  149.3870 C   0  0  1  0  0  3  0  0  0  0  0  0
  163.4310  213.5540  146.6880 C   0  0  0  0  0  2  0  0  0  0  0  0
  158.6970  213.5550  145.9750 C   0  0  0  0  0  1  0  0  0  0  0  0
  161.0280  212.1320  150.5710 C   0  0  2  0  0  3  0  0  0  0  0  0
  161.4370  210.0300  149.1230 C   0  0  0  0  0  2  0  0  0  0  0  0
  159.4220  212.7430  154.7440 C   0  0  0  0  0  2  0  0  0  0  0  0
  161.0030  209.8050  151.6440 C   0  0  2  0  0  3  0  0  0  0  0  0
  159.2800  213.8820  151.3150 C   0  0  0  0  0  2  0  0  0  0  0  0
  158.2290  212.2980  149.0030 C   0  0  0  0  0  1  0  0  0  0  0  0
  161.6010  209.1740  150.3780 C   0  0  0  0  0  2  0  0  0  0  0  0
  160.1980  211.0760  151.3290 C   0  0  1  0  0  3  0  0  0  0  0  0
  162.6680  214.4490  145.9340 O   0  0  0  0  0  0  0  0  0  0  0  0
  158.5060  212.7700  152.0410 C   0  0  2  0  0  3  0  0  0  0  0  0
  158.5520  213.8230  154.1050 C   0  0  0  0  0  2  0  0  0  0  0  0
  162.8020  213.3870  148.0620 C   0  0  0  0  0  2  0  0  0  0  0  0
  160.3140  212.6720  147.6980 C   0  0  1  0  0  3  0  0  0  0  0  0
  162.1460  213.7160  144.8560 C   0  0  0  0  0  2  0  0  0  0  0  0
  161.7650  212.2630  148.0700 C   0  0  2  0  0  3  0  0  0  0  0  0
  161.1170  214.4520  150.0030 O   0  0  0  0  0  1  0  0  0  0  0  0
  159.4460  213.2020  148.8600 C   0  0  2  0  0  3  0  0  0  0  0  0
  160.2160  213.4040  150.1870 C   0  0  1  0  0  0  0  0  0  0  0  0
  157.7150  213.2760  153.1030 O   0  0  0  0  0  0  0  0  0  0  0  0
  160.2990  212.1190  153.6680 C   0  0  0  0  0  2  0  0  0  0  0  0
  160.1530  213.4840  146.4010 C   0  0  1  0  0  3  0  0  0  0  0  0
  160.9510  212.8500  145.2670 C   0  0  0  0  0  2  0  0  0  0  0  0
  159.4150  211.6330  152.5180 C   0  0  2  0  0  3  0  0  0  0  0  0
  162.0370  210.0810  152.5440 O   0  0  0  0  0  0  0  0  0  0  0  0
  162.2570  208.9080  153.1850 N   0  0  0  0  0  2  0  0  0  0  0  0
  161.0060  208.5400  153.8230 C   0  0  0  0  0  2  0  0  0  0  0  0
  160.9170  207.0320  153.9240 C   0  0  0  0  0  1  0  0  0  0  0  0
  1  5  1  6  0  0  0
  1  4  1  0  0  0  0
  2 15  1  0  0  0  0
  3 24  1  0  0  0  0
  4 11  1  0  0  0  0
  5 10  1  0  0  0  0
  7 27  1  0  0  0  0
  8 13  1  0  0  0  0
 10  7  1  0  0  0  0
 11  7  1  0  0  0  0
 11 26  1  0  0  0  0
 12  2  1  0  0  0  0
 13 26  1  0  0  0  0
 13 22  1  0  0  0  0
 14  6  1  0  0  0  0
 15 18  1  0  0  0  0
 16 18  1  0  0  0  0
 16 20  1  0  0  0  0
 17 25  1  0  0  0  0
 17 12  1  0  0  0  0
 18  1  1  0  0  0  0
 19 21  1  0  0  0  0
 20  9  1  0  0  0  0
 20 21  1  0  0  0  0
 21  4  1  0  0  0  0
 21  8  1  0  0  0  0
 22 14  1  0  0  0  0
 23  6  1  0  0  0  0
 24 16  1  0  0  0  0
 25 24  1  0  0  0  0
 26 23  1  0  0  0  0
 27 28  1  0  0  0  0
 28 29  1  0  0  0  0
 29 30  1  0  0  0  0
M  END
>  <MODEL>
3

>  <REMARK>
 VINA RESULT:      -1.0      3.568      7.356
  Name = 
  3 active torsions:
  status: ('A' for Active; 'I' for Inactive)
    1  A    between atoms: O_6  and  C_8
    2  A    between atoms: O_6  and  N_21
    3  A    between atoms: C_9  and  N_21
                            x       y       z     vdW  Elec       q    Type
                         _______ _______ _______ _____ _____    ______ ____

>  <TORSDO>
F 3

$$$$
