=
 OpenBabel11062410373D

 32 38  0  0  1  0  0  0  0  0999 V2000
  160.7830  202.9120  151.4790 C   0  0  0  0  0  2  0  0  0  0  0  0
  161.7880  208.0670  150.8150 C   0  0  0  0  0  0  0  0  0  0  0  0
  160.0270  208.5880  155.3370 C   0  0  0  0  0  3  0  0  0  0  0  0
  159.3900  209.6710  154.8920 C   0  0  0  0  0  3  0  0  0  0  0  0
  161.8410  209.9670  149.2490 C   0  0  0  0  0  0  0  0  0  0  0  0
  161.5230  211.2980  148.9540 C   0  0  0  0  0  0  0  0  0  0  0  0
  161.5420  205.6310  150.2620 C   0  0  1  0  0  3  0  0  0  0  0  0
  162.3410  206.2600  152.5390 C   0  0  0  0  0  2  0  0  0  0  0  0
  160.6200  213.4820  149.4900 C   0  0  2  0  0  3  0  0  0  0  0  0
  161.6670  203.9360  152.1750 C   0  0  0  0  0  2  0  0  0  0  0  0
  161.1840  208.0000  154.5790 C   0  0  0  0  0  2  0  0  0  0  0  0
  162.1380  207.7540  152.2520 C   0  0  2  0  0  3  0  0  0  0  0  0
  161.1740  208.3870  153.1610 N   0  0  0  0  0  0  0  0  0  0  0  0
  160.9180  210.2320  151.4410 C   0  0  0  0  0  0  0  0  0  0  0  0
  161.0250  213.6100  147.7130 S   0  0  0  0  0  0  0  0  0  0  0  0
  160.7810  203.5450  149.0140 C   0  0  0  0  0  2  0  0  0  0  0  0
  161.3640  205.3800  151.7720 C   0  0  2  0  0  3  0  0  0  0  0  0
  161.8070  211.9590  147.6570 C   0  0  0  0  0  2  0  0  0  0  0  0
  160.4210  204.9540  149.4850 C   0  0  0  0  0  2  0  0  0  0  0  0
  161.3560  202.6270  150.0950 C   0  0  2  0  0  3  0  0  0  0  0  0
  159.7430  210.2730  153.6000 C   0  0  0  0  0  3  0  0  0  0  0  0
  160.5990  209.6580  152.7750 C   0  0  0  0  0  0  0  0  0  0  0  0
  160.5980  211.5690  151.1530 C   0  0  0  0  0  3  0  0  0  0  0  0
  161.4640  207.0960  149.9490 C   0  0  0  0  0  3  0  0  0  0  0  0
  162.4270  209.2620  148.3810 O   0  0  0  0  0  0  0  0  0  0  0  0
  161.4890  214.4520  150.2700 C   0  0  0  0  0  1  0  0  0  0  0  0
  161.5240  209.4470  150.4840 N   0  0  0  0  0  0  0  0  0  0  0  0
  160.9120  212.0870  149.9010 C   0  0  0  0  0  0  0  0  0  0  0  0
  161.1030  201.1820  149.7020 C   0  0  0  0  0  2  0  0  0  0  0  0
  160.7830  201.0810  148.2220 C   0  0  0  0  0  3  0  0  0  0  0  0
  161.2190  199.8680  147.7400 O   0  0  0  0  0  0  0  0  0  0  0  0
  161.9530  200.9660  147.5070 O   0  0  0  0  0  0  0  0  0  0  0  0
  1 10  1  0  0  0  0
  2 12  1  0  0  0  0
  4  3  2  0  0  0  0
  5 27  1  0  0  0  0
  6  5  1  0  0  0  0
  6 28  2  0  0  0  0
  7 19  1  6  0  0  0
  7 17  1  0  0  0  0
  9 28  1  0  0  0  0
  9 26  1  1  0  0  0
 11  3  1  0  0  0  0
 12  8  1  6  0  0  0
 12 13  1  0  0  0  0
 13 11  1  0  0  0  0
 14 22  1  0  0  0  0
 15  9  1  0  0  0  0
 16 19  1  0  0  0  0
 16 20  1  0  0  0  0
 17 10  1  6  0  0  0
 17  8  1  0  0  0  0
 18 15  1  0  0  0  0
 18  6  1  0  0  0  0
 20 29  1  6  0  0  0
 20  1  1  0  0  0  0
 21  4  1  0  0  0  0
 22 13  1  0  0  0  0
 22 21  2  0  0  0  0
 23 14  2  0  0  0  0
 24  7  1  0  0  0  0
 24  2  2  0  0  0  0
 25  5  2  0  0  0  0
 27  2  1  0  0  0  0
 27 14  1  0  0  0  0
 28 23  1  0  0  0  0
 30 29  1  0  0  0  0
 31 30  1  0  0  0  0
 32 31  1  0  0  0  0
 32 30  1  0  0  0  0
M  END
>  <MODEL>
1

>  <REMARK>
 VINA RESULT:      -6.5      0.000      0.000
  Name = 
  2 active torsions:
  status: ('A' for Active; 'I' for Inactive)
    1  A    between atoms: C_1  and  C_10
    2  A    between atoms: C_10  and  C_24
                            x       y       z     vdW  Elec       q    Type
                         _______ _______ _______ _____ _____    ______ ____

>  <TORSDO>
F 2

$$$$
=
 OpenBabel11062410373D

 32 38  0  0  1  0  0  0  0  0999 V2000
  161.2840  203.6220  150.4530 C   0  0  0  0  0  2  0  0  0  0  0  0
  161.1410  208.5610  152.3530 C   0  0  0  0  0  0  0  0  0  0  0  0
  160.4480  206.4480  156.6970 C   0  0  0  0  0  3  0  0  0  0  0  0
  159.5360  207.3900  156.9360 C   0  0  0  0  0  3  0  0  0  0  0  0
  160.4690  210.8980  151.9580 C   0  0  0  0  0  0  0  0  0  0  0  0
  159.8520  212.0690  152.4110 C   0  0  0  0  0  0  0  0  0  0  0  0
  161.2190  206.6870  150.6860 C   0  0  1  0  0  3  0  0  0  0  0  0
  162.4110  206.3990  152.8570 C   0  0  0  0  0  2  0  0  0  0  0  0
  158.7190  213.4210  154.0750 C   0  0  2  0  0  3  0  0  0  0  0  0
  162.1060  204.4140  151.4590 C   0  0  0  0  0  2  0  0  0  0  0  0
  161.4780  206.6180  155.6160 C   0  0  0  0  0  2  0  0  0  0  0  0
  161.8750  207.7370  153.3860 C   0  0  2  0  0  3  0  0  0  0  0  0
  161.0580  207.5890  154.5960 N   0  0  0  0  0  0  0  0  0  0  0  0
  160.0650  209.8650  154.0790 C   0  0  0  0  0  0  0  0  0  0  0  0
  158.6570  214.4530  152.5680 S   0  0  0  0  0  0  0  0  0  0  0  0
  160.5770  205.2830  148.6600 C   0  0  0  0  0  2  0  0  0  0  0  0
  161.4570  205.7350  151.8740 C   0  0  2  0  0  3  0  0  0  0  0  0
  159.6910  213.2990  151.5990 C   0  0  0  0  0  2  0  0  0  0  0  0
  160.0880  206.1590  149.8130 C   0  0  0  0  0  2  0  0  0  0  0  0
  161.5510  204.1720  149.0570 C   0  0  2  0  0  3  0  0  0  0  0  0
  159.4540  208.5870  156.0890 C   0  0  0  0  0  3  0  0  0  0  0  0
  160.1850  208.6820  154.9720 C   0  0  0  0  0  0  0  0  0  0  0  0
  159.4460  211.0380  154.5410 C   0  0  0  0  0  3  0  0  0  0  0  0
  160.8020  208.0470  151.1620 C   0  0  0  0  0  3  0  0  0  0  0  0
  160.9490  210.8610  150.7910 O   0  0  0  0  0  0  0  0  0  0  0  0
  159.5580  214.1250  155.1260 C   0  0  0  0  0  1  0  0  0  0  0  0
  160.5570  209.8060  152.7940 N   0  0  0  0  0  0  0  0  0  0  0  0
  159.3520  212.1340  153.6910 C   0  0  0  0  0  0  0  0  0  0  0  0
  161.4800  203.0600  148.0250 C   0  0  0  0  0  2  0  0  0  0  0  0
  160.7140  201.8710  148.5750 C   0  0  0  0  0  3  0  0  0  0  0  0
  161.4750  200.7320  148.4430 O   0  0  0  0  0  0  0  0  0  0  0  0
  160.4880  200.9640  147.5650 O   0  0  0  0  0  0  0  0  0  0  0  0
  1 10  1  0  0  0  0
  2 27  1  0  0  0  0
  2 12  1  0  0  0  0
  3  4  2  0  0  0  0
  5  6  1  0  0  0  0
  5 27  1  0  0  0  0
  6 28  2  0  0  0  0
  7 19  1  6  0  0  0
  7 24  1  0  0  0  0
  7 17  1  0  0  0  0
  9 26  1  1  0  0  0
 11  3  1  0  0  0  0
 12  8  1  6  0  0  0
 12 13  1  0  0  0  0
 13 22  1  0  0  0  0
 13 11  1  0  0  0  0
 14 23  2  0  0  0  0
 14 22  1  0  0  0  0
 15  9  1  0  0  0  0
 16 20  1  0  0  0  0
 16 19  1  0  0  0  0
 17 10  1  6  0  0  0
 17  8  1  0  0  0  0
 18  6  1  0  0  0  0
 18 15  1  0  0  0  0
 20 29  1  6  0  0  0
 20  1  1  0  0  0  0
 21  4  1  0  0  0  0
 22 21  2  0  0  0  0
 24  2  2  0  0  0  0
 25  5  2  0  0  0  0
 27 14  1  0  0  0  0
 28  9  1  0  0  0  0
 28 23  1  0  0  0  0
 29 30  1  0  0  0  0
 31 30  1  0  0  0  0
 32 31  1  0  0  0  0
 32 30  1  0  0  0  0
M  END
>  <MODEL>
2

>  <REMARK>
 VINA RESULT:      -6.1      2.014      2.803
  Name = 
  2 active torsions:
  status: ('A' for Active; 'I' for Inactive)
    1  A    between atoms: C_1  and  C_10
    2  A    between atoms: C_10  and  C_24
                            x       y       z     vdW  Elec       q    Type
                         _______ _______ _______ _____ _____    ______ ____

>  <TORSDO>
F 2

$$$$
=
 OpenBabel11062410373D

 32 38  0  0  1  0  0  0  0  0999 V2000
  161.3760  203.7590  150.1890 C   0  0  0  0  0  2  0  0  0  0  0  0
  161.1650  208.6180  152.2790 C   0  0  0  0  0  0  0  0  0  0  0  0
  160.5490  206.3280  156.5440 C   0  0  0  0  0  3  0  0  0  0  0  0
  159.6220  207.2440  156.8260 C   0  0  0  0  0  3  0  0  0  0  0  0
  160.4510  210.9560  151.9810 C   0  0  0  0  0  0  0  0  0  0  0  0
  159.8170  212.0990  152.4840 C   0  0  0  0  0  0  0  0  0  0  0  0
  161.2610  206.8110  150.5400 C   0  0  1  0  0  3  0  0  0  0  0  0
  162.4770  206.4610  152.6890 C   0  0  0  0  0  2  0  0  0  0  0  0
  158.6770  213.3650  154.2080 C   0  0  2  0  0  3  0  0  0  0  0  0
  162.1930  204.5260  151.2170 C   0  0  0  0  0  2  0  0  0  0  0  0
  161.5650  206.5570  155.4610 C   0  0  0  0  0  2  0  0  0  0  0  0
  161.9230  207.7680  153.2730 C   0  0  2  0  0  3  0  0  0  0  0  0
  161.1190  207.5590  154.4840 N   0  0  0  0  0  0  0  0  0  0  0  0
  160.0830  209.8350  154.0640 C   0  0  0  0  0  0  0  0  0  0  0  0
  158.5830  214.4530  152.7430 S   0  0  0  0  0  0  0  0  0  0  0  0
  160.6250  205.4750  148.4670 C   0  0  0  0  0  2  0  0  0  0  0  0
  161.5260  205.8190  151.6880 C   0  0  2  0  0  3  0  0  0  0  0  0
  159.6280  213.3560  151.7210 C   0  0  0  0  0  2  0  0  0  0  0  0
  160.1310  206.2980  149.6570 C   0  0  0  0  0  2  0  0  0  0  0  0
  161.6210  204.3670  148.8120 C   0  0  2  0  0  3  0  0  0  0  0  0
  159.5120  208.4710  156.0280 C   0  0  0  0  0  3  0  0  0  0  0  0
  160.2310  208.6210  154.9090 C   0  0  0  0  0  0  0  0  0  0  0  0
  159.4490  210.9790  154.5760 C   0  0  0  0  0  3  0  0  0  0  0  0
  160.8250  208.1440  151.0720 C   0  0  0  0  0  3  0  0  0  0  0  0
  160.9200  210.9730  150.8100 O   0  0  0  0  0  0  0  0  0  0  0  0
  159.5120  214.0430  155.2790 C   0  0  0  0  0  1  0  0  0  0  0  0
  160.5650  209.8350  152.7730 N   0  0  0  0  0  0  0  0  0  0  0  0
  159.3280  212.1060  153.7700 C   0  0  0  0  0  0  0  0  0  0  0  0
  161.5600  203.2950  147.7390 C   0  0  0  0  0  2  0  0  0  0  0  0
  161.2300  203.9090  146.3910 C   0  0  0  0  0  3  0  0  0  0  0  0
  161.3220  202.9460  145.4120 O   0  0  0  0  0  0  0  0  0  0  0  0
  162.3270  203.8210  145.5650 O   0  0  0  0  0  0  0  0  0  0  0  0
  1 10  1  0  0  0  0
  2 27  1  0  0  0  0
  2 12  1  0  0  0  0
  3  4  2  0  0  0  0
  5  6  1  0  0  0  0
  5 27  1  0  0  0  0
  6 28  2  0  0  0  0
  7 19  1  6  0  0  0
  7 24  1  0  0  0  0
  7 17  1  0  0  0  0
  9 26  1  1  0  0  0
 11  3  1  0  0  0  0
 12  8  1  6  0  0  0
 12 13  1  0  0  0  0
 13 22  1  0  0  0  0
 13 11  1  0  0  0  0
 14 23  2  0  0  0  0
 14 22  1  0  0  0  0
 15  9  1  0  0  0  0
 16 20  1  0  0  0  0
 16 19  1  0  0  0  0
 17 10  1  6  0  0  0
 17  8  1  0  0  0  0
 18  6  1  0  0  0  0
 18 15  1  0  0  0  0
 20 29  1  6  0  0  0
 20  1  1  0  0  0  0
 21  4  1  0  0  0  0
 22 21  2  0  0  0  0
 24  2  2  0  0  0  0
 25  5  2  0  0  0  0
 27 14  1  0  0  0  0
 28  9  1  0  0  0  0
 28 23  1  0  0  0  0
 30 29  1  0  0  0  0
 31 32  1  0  0  0  0
 31 30  1  0  0  0  0
 32 30  1  0  0  0  0
M  END
>  <MODEL>
3

>  <REMARK>
 VINA RESULT:      -5.9      2.279      3.064
  Name = 
  2 active torsions:
  status: ('A' for Active; 'I' for Inactive)
    1  A    between atoms: C_1  and  C_10
    2  A    between atoms: C_10  and  C_24
                            x       y       z     vdW  Elec       q    Type
                         _______ _______ _______ _____ _____    ______ ____

>  <TORSDO>
F 2

$$$$
=
 OpenBabel11062410373D

 32 38  0  0  1  0  0  0  0  0999 V2000
  159.9440  211.8600  154.8900 C   0  0  0  0  0  2  0  0  0  0  0  0
  161.4750  207.5940  152.1550 C   0  0  0  0  0  0  0  0  0  0  0  0
  161.9550  210.6660  148.3940 C   0  0  0  0  0  3  0  0  0  0  0  0
  161.3950  209.7220  147.6370 C   0  0  0  0  0  3  0  0  0  0  0  0
  161.1900  205.1750  151.7880 C   0  0  0  0  0  0  0  0  0  0  0  0
  161.0210  204.0990  150.9090 C   0  0  0  0  0  0  0  0  0  0  0  0
  160.5810  208.9710  154.0530 C   0  0  1  0  0  3  0  0  0  0  0  0
  162.3810  209.9390  152.6230 C   0  0  0  0  0  2  0  0  0  0  0  0
  160.8460  203.1060  148.7040 C   0  0  2  0  0  3  0  0  0  0  0  0
  161.2090  211.4510  154.1520 C   0  0  0  0  0  2  0  0  0  0  0  0
  162.5470  210.3380  149.7350 C   0  0  0  0  0  2  0  0  0  0  0  0
  162.3460  208.7330  151.6760 C   0  0  2  0  0  3  0  0  0  0  0  0
  161.9980  209.0960  150.2970 N   0  0  0  0  0  0  0  0  0  0  0  0
  161.3640  206.6690  149.9260 C   0  0  0  0  0  0  0  0  0  0  0  0
  160.4630  201.7190  149.8320 S   0  0  0  0  0  0  0  0  0  0  0  0
  158.9960  209.7250  155.8990 C   0  0  0  0  0  2  0  0  0  0  0  0
  161.0280  210.2170  153.2650 C   0  0  2  0  0  3  0  0  0  0  0  0
  160.8340  202.6910  151.3350 C   0  0  0  0  0  2  0  0  0  0  0  0
  159.1340  209.1270  154.4990 C   0  0  0  0  0  2  0  0  0  0  0  0
  159.8040  211.0020  156.1420 C   0  0  2  0  0  3  0  0  0  0  0  0
  161.2600  208.3460  148.1310 C   0  0  0  0  0  3  0  0  0  0  0  0
  161.5520  208.0480  149.4020 C   0  0  0  0  0  0  0  0  0  0  0  0
  161.1970  205.5940  149.0380 C   0  0  0  0  0  3  0  0  0  0  0  0
  160.6410  207.7430  153.1940 C   0  0  0  0  0  3  0  0  0  0  0  0
  161.2090  204.9630  153.0320 O   0  0  0  0  0  0  0  0  0  0  0  0
  162.1250  202.7940  147.9490 C   0  0  0  0  0  1  0  0  0  0  0  0
  161.3470  206.4480  151.2860 N   0  0  0  0  0  0  0  0  0  0  0  0
  161.0300  204.3110  149.5500 C   0  0  0  0  0  0  0  0  0  0  0  0
  159.1520  211.7950  157.2610 C   0  0  0  0  0  2  0  0  0  0  0  0
  158.3020  212.9160  156.6930 C   0  0  0  0  0  3  0  0  0  0  0  0
  157.0490  212.8760  157.2610 O   0  0  0  0  0  0  0  0  0  0  0  0
  157.2230  212.3810  156.0260 O   0  0  0  0  0  0  0  0  0  0  0  0
  1 20  1  0  0  0  0
  2 24  2  0  0  0  0
  3 11  1  0  0  0  0
  4 21  1  0  0  0  0
  4  3  2  0  0  0  0
  5 25  2  0  0  0  0
  6 18  1  0  0  0  0
  6  5  1  0  0  0  0
  7 24  1  6  0  0  0
  7 19  1  0  0  0  0
  9 26  1  1  0  0  0
  9 28  1  0  0  0  0
  9 15  1  0  0  0  0
 10  1  1  0  0  0  0
 11 13  1  0  0  0  0
 12  2  1  0  0  0  0
 12  8  1  1  0  0  0
 13 12  1  0  0  0  0
 14 27  1  0  0  0  0
 15 18  1  0  0  0  0
 16 20  1  0  0  0  0
 17  8  1  1  0  0  0
 17  7  1  0  0  0  0
 17 10  1  0  0  0  0
 19 16  1  0  0  0  0
 20 29  1  1  0  0  0
 21 22  2  0  0  0  0
 22 14  1  0  0  0  0
 22 13  1  0  0  0  0
 23 28  1  0  0  0  0
 23 14  2  0  0  0  0
 27  5  1  0  0  0  0
 27  2  1  0  0  0  0
 28  6  2  0  0  0  0
 30 29  1  0  0  0  0
 30 31  1  0  0  0  0
 32 30  1  0  0  0  0
 32 31  1  0  0  0  0
M  END
>  <MODEL>
4

>  <REMARK>
 VINA RESULT:      -4.7      3.863      8.522
  Name = 
  2 active torsions:
  status: ('A' for Active; 'I' for Inactive)
    1  A    between atoms: C_1  and  C_10
    2  A    between atoms: C_10  and  C_24
                            x       y       z     vdW  Elec       q    Type
                         _______ _______ _______ _____ _____    ______ ____

>  <TORSDO>
F 2

$$$$
=
 OpenBabel11062410373D

 32 38  0  0  1  0  0  0  0  0999 V2000
  161.5860  202.9190  148.1640 C   0  0  0  0  0  2  0  0  0  0  0  0
  160.6790  206.8380  151.6050 C   0  0  0  0  0  0  0  0  0  0  0  0
  162.4220  209.7720  148.1170 C   0  0  0  0  0  3  0  0  0  0  0  0
  163.0820  210.4150  149.0800 C   0  0  0  0  0  3  0  0  0  0  0  0
  160.6680  207.5410  153.9660 C   0  0  0  0  0  0  0  0  0  0  0  0
  161.0120  208.4770  154.9480 C   0  0  0  0  0  0  0  0  0  0  0  0
  160.8840  204.5050  150.7020 C   0  0  1  0  0  3  0  0  0  0  0  0
  160.0830  206.3070  149.1750 C   0  0  0  0  0  2  0  0  0  0  0  0
  161.9520  210.5790  155.7070 C   0  0  2  0  0  3  0  0  0  0  0  0
  160.7180  204.1670  148.1700 C   0  0  0  0  0  2  0  0  0  0  0  0
  161.2590  208.8750  148.4350 C   0  0  0  0  0  2  0  0  0  0  0  0
  160.3150  207.3840  150.2430 C   0  0  2  0  0  3  0  0  0  0  0  0
  161.2850  208.4050  149.8270 N   0  0  0  0  0  0  0  0  0  0  0  0
  161.5840  208.9730  152.2800 C   0  0  0  0  0  0  0  0  0  0  0  0
  161.5590  209.6980  157.2600 S   0  0  0  0  0  0  0  0  0  0  0  0
  161.6140  202.0690  150.5630 C   0  0  0  0  0  2  0  0  0  0  0  0
  161.0480  205.1370  149.3060 C   0  0  2  0  0  3  0  0  0  0  0  0
  160.7480  208.3060  156.3970 C   0  0  0  0  0  2  0  0  0  0  0  0
  161.9970  203.4960  150.9530 C   0  0  0  0  0  2  0  0  0  0  0  0
  161.0170  201.9170  149.1620 C   0  0  2  0  0  3  0  0  0  0  0  0
  162.7470  210.1980  150.4940 C   0  0  0  0  0  3  0  0  0  0  0  0
  161.8850  209.2380  150.8480 C   0  0  0  0  0  0  0  0  0  0  0  0
  161.9290  209.9180  153.2600 C   0  0  0  0  0  3  0  0  0  0  0  0
  160.9900  205.5450  151.7780 C   0  0  0  0  0  3  0  0  0  0  0  0
  160.0750  206.4790  154.3010 O   0  0  0  0  0  0  0  0  0  0  0  0
  161.0960  211.8290  155.6140 C   0  0  0  0  0  1  0  0  0  0  0  0
  160.9690  207.7960  152.6460 N   0  0  0  0  0  0  0  0  0  0  0  0
  161.6320  209.6530  154.5930 C   0  0  0  0  0  0  0  0  0  0  0  0
  161.2460  200.4950  148.6790 C   0  0  0  0  0  2  0  0  0  0  0  0
  161.8400  200.4970  147.2820 C   0  0  0  0  0  3  0  0  0  0  0  0
  160.8330  200.3560  146.3540 O   0  0  0  0  0  0  0  0  0  0  0  0
  161.5840  199.2910  146.6730 O   0  0  0  0  0  0  0  0  0  0  0  0
  1 10  1  0  0  0  0
  1 20  1  0  0  0  0
  2 24  2  0  0  0  0
  2 27  1  0  0  0  0
  3 11  1  0  0  0  0
  3  4  2  0  0  0  0
  4 21  1  0  0  0  0
  5 25  2  0  0  0  0
  5  6  1  0  0  0  0
  6 18  1  0  0  0  0
  7 19  1  1  0  0  0
  7 24  1  0  0  0  0
  8 17  1  0  0  0  0
  9 26  1  6  0  0  0
  9 15  1  0  0  0  0
 11 13  1  0  0  0  0
 12  8  1  6  0  0  0
 12  2  1  0  0  0  0
 13 12  1  0  0  0  0
 13 22  1  0  0  0  0
 14 27  1  0  0  0  0
 14 23  2  0  0  0  0
 16 19  1  0  0  0  0
 17 10  1  6  0  0  0
 17  7  1  0  0  0  0
 18 15  1  0  0  0  0
 20 29  1  6  0  0  0
 20 16  1  0  0  0  0
 21 22  2  0  0  0  0
 22 14  1  0  0  0  0
 23 28  1  0  0  0  0
 27  5  1  0  0  0  0
 28  6  2  0  0  0  0
 28  9  1  0  0  0  0
 30 29  1  0  0  0  0
 31 32  1  0  0  0  0
 31 30  1  0  0  0  0
 32 30  1  0  0  0  0
M  END
>  <MODEL>
5

>  <REMARK>
 VINA RESULT:      -3.5      2.812      4.764
  Name = 
  2 active torsions:
  status: ('A' for Active; 'I' for Inactive)
    1  A    between atoms: C_1  and  C_10
    2  A    between atoms: C_10  and  C_24
                            x       y       z     vdW  Elec       q    Type
                         _______ _______ _______ _____ _____    ______ ____

>  <TORSDO>
F 2

$$$$
