=
 OpenBabel11062409173D

 37 45  0  0  1  0  0  0  0  0999 V2000
  160.7840  208.2210  153.2990 C   0  0  1  0  0  3  0  0  0  0  0  0
  158.6070  210.9310  156.4910 C   0  0  2  0  0  3  0  0  0  0  0  0
  159.2300  212.3030  152.2820 C   0  0  1  0  0  3  0  0  0  0  0  0
  162.0900  211.6020  149.9970 C   0  0  0  0  0  2  0  0  0  0  0  0
  158.6630  212.7030  154.7620 C   0  0  2  0  0  3  0  0  0  0  0  0
  160.0880  211.6100  151.5410 C   0  0  1  0  0  3  0  0  0  0  0  0
  161.4860  207.7670  155.7020 C   0  0  0  0  0  1  0  0  0  0  0  0
  159.1490  211.7360  153.6720 C   0  0  2  0  0  3  0  0  0  0  0  0
  160.6710  212.0490  150.2470 C   0  0  0  0  0  0  0  0  0  0  0  0
  158.8920  214.1670  154.4130 C   0  0  0  0  0  2  0  0  0  0  0  0
  160.5250  211.1010  153.8760 C   0  0  1  0  0  3  0  0  0  0  0  0
  159.3310  209.7580  155.8020 C   0  0  1  0  0  3  0  0  0  0  0  0
  158.1010  213.7450  150.6830 C   0  0  0  0  0  3  0  0  0  0  0  0
  161.3950  208.8020  154.5870 C   0  0  2  0  0  3  0  0  0  0  0  0
  158.1860  214.4530  153.0880 C   0  0  0  0  0  2  0  0  0  0  0  0
  160.6300  210.0590  155.0170 C   0  0  1  0  0  3  0  0  0  0  0  0
  162.3230  210.1660  150.4600 C   0  0  0  0  0  2  0  0  0  0  0  0
  158.8870  213.7200  151.9460 C   0  0  1  0  0  3  0  0  0  0  0  0
  160.7880  210.6550  152.4390 C   0  0  2  0  0  0  0  0  0  0  0  0
  159.1700  212.3100  156.1430 C   0  0  0  0  0  2  0  0  0  0  0  0
  160.0050  212.8080  149.3270 C   0  0  0  0  0  0  0  0  0  0  0  0
  159.6010  210.0960  157.2610 C   0  0  0  0  0  2  0  0  0  0  0  0
  162.0630  209.9800  151.9590 C   0  0  1  0  0  3  0  0  0  0  0  0
  160.7520  209.1780  152.0840 C   0  0  1  0  0  3  0  0  0  0  0  0
  158.6260  213.3360  149.5250 C   0  0  0  0  0  3  0  0  0  0  0  0
  161.5530  214.1490  147.8770 C   0  0  0  0  0  3  0  0  0  0  0  0
  160.6080  213.1220  148.0110 C   0  0  0  0  0  0  0  0  0  0  0  0
  160.1910  212.4280  146.8670 C   0  0  0  0  0  3  0  0  0  0  0  0
  160.3490  212.0780  144.5170 F   0  0  0  0  0  0  0  0  0  0  0  0
  161.6670  213.7420  145.5260 N   0  0  0  0  0  0  0  0  0  0  0  0
  160.7410  212.7510  145.6250 C   0  0  0  0  0  0  0  0  0  0  0  0
  162.0790  214.4420  146.6170 C   0  0  0  0  0  3  0  0  0  0  0  0
  161.2390  206.9240  152.9670 O   0  0  0  0  0  0  0  0  0  0  0  0
  160.8820  206.6420  151.6380 C   0  0  0  0  0  2  0  0  0  0  0  0
  161.0340  205.2770  151.3960 O   0  0  0  0  0  0  0  0  0  0  0  0
  161.3030  205.1920  150.0310 C   0  0  0  0  0  2  0  0  0  0  0  0
  160.4360  206.0290  149.3330 O   0  0  0  0  0  1  0  0  0  0  0  0
  1 33  1  6  0  0  0
  1 14  1  0  0  0  0
  2 20  1  6  0  0  0
  2 22  1  0  0  0  0
  3  8  1  0  0  0  0
  4  9  1  0  0  0  0
  4 17  1  0  0  0  0
  5 20  1  0  0  0  0
  6  3  1  0  0  0  0
  6 19  1  0  0  0  0
  8 11  1  0  0  0  0
  8  5  1  0  0  0  0
  9  6  1  0  0  0  0
 10  5  1  0  0  0  0
 11 16  1  0  0  0  0
 12  2  1  0  0  0  0
 12 22  1  0  0  0  0
 13 18  1  0  0  0  0
 14 16  1  0  0  0  0
 14  7  1  0  0  0  0
 15 10  1  0  0  0  0
 16 12  1  0  0  0  0
 17 23  1  0  0  0  0
 18  3  1  0  0  0  0
 18 15  1  0  0  0  0
 19 11  1  0  0  0  0
 21 25  1  0  0  0  0
 21  9  2  0  0  0  0
 23 24  1  0  0  0  0
 23 19  1  0  0  0  0
 24 19  1  0  0  0  0
 24  1  1  0  0  0  0
 25 13  2  0  0  0  0
 26 27  1  0  0  0  0
 27 21  1  0  0  0  0
 28 27  2  0  0  0  0
 29 31  1  0  0  0  0
 30 31  2  0  0  0  0
 30 32  1  0  0  0  0
 31 28  1  0  0  0  0
 32 26  2  0  0  0  0
 34 33  1  0  0  0  0
 35 34  1  0  0  0  0
 36 35  1  0  0  0  0
 37 36  1  0  0  0  0
M  END
>  <MODEL>
1

>  <REMARK>
 VINA RESULT:      -5.5      0.000      0.000
  Name = 
  5 active torsions:
  status: ('A' for Active; 'I' for Inactive)
    1  A    between atoms: C_1  and  O_5
    2  A    between atoms: O_5  and  C_17
    3  A    between atoms: C_6  and  C_31
    4  A    between atoms: C_11  and  O_26
    5  A    between atoms: C_17  and  O_26
                            x       y       z     vdW  Elec       q    Type
                         _______ _______ _______ _____ _____    ______ ____

>  <TORSDO>
F 5

$$$$
=
 OpenBabel11062409173D

 37 45  0  0  1  0  0  0  0  0999 V2000
  160.7360  205.8860  150.2550 C   0  0  1  0  0  3  0  0  0  0  0  0
  160.4130  206.8180  154.8700 C   0  0  2  0  0  3  0  0  0  0  0  0
  160.7300  210.0840  151.8330 C   0  0  1  0  0  3  0  0  0  0  0  0
  162.6170  210.1080  148.6190 C   0  0  0  0  0  2  0  0  0  0  0  0
  160.8310  209.1770  154.2410 C   0  0  2  0  0  3  0  0  0  0  0  0
  161.0980  209.7340  150.6060 C   0  0  1  0  0  3  0  0  0  0  0  0
  161.6370  204.0400  151.7550 C   0  0  0  0  0  1  0  0  0  0  0  0
  160.6930  208.8850  152.7390 C   0  0  2  0  0  3  0  0  0  0  0  0
  161.5560  210.6610  149.5380 C   0  0  0  0  0  0  0  0  0  0  0  0
  161.5410  210.4910  154.5360 C   0  0  0  0  0  2  0  0  0  0  0  0
  161.7260  207.9420  152.1210 C   0  0  1  0  0  3  0  0  0  0  0  0
  160.4830  206.0860  153.5150 C   0  0  1  0  0  3  0  0  0  0  0  0
  159.9740  212.3820  151.5900 C   0  0  0  0  0  3  0  0  0  0  0  0
  161.7510  205.5030  151.3470 C   0  0  2  0  0  3  0  0  0  0  0  0
  160.7700  211.6110  153.8400 C   0  0  0  0  0  2  0  0  0  0  0  0
  161.6270  206.4550  152.5420 C   0  0  1  0  0  3  0  0  0  0  0  0
  162.3560  208.6460  148.2630 C   0  0  0  0  0  2  0  0  0  0  0  0
  160.9080  211.4860  152.3230 C   0  0  1  0  0  3  0  0  0  0  0  0
  161.5250  208.3110  150.6530 C   0  0  2  0  0  0  0  0  0  0  0  0
  161.3910  207.9850  155.0060 C   0  0  0  0  0  2  0  0  0  0  0  0
  161.0790  211.9300  149.3720 C   0  0  0  0  0  0  0  0  0  0  0  0
  161.1270  205.4940  154.7610 C   0  0  0  0  0  2  0  0  0  0  0  0
  162.3260  207.7350  149.4950 C   0  0  1  0  0  3  0  0  0  0  0  0
  160.8540  207.3290  149.7080 C   0  0  1  0  0  3  0  0  0  0  0  0
  160.0760  212.5660  150.2700 C   0  0  0  0  0  3  0  0  0  0  0  0
  162.5760  213.6580  148.3360 C   0  0  0  0  0  3  0  0  0  0  0  0
  161.5020  212.7630  148.2220 C   0  0  0  0  0  0  0  0  0  0  0  0
  160.7880  212.7080  147.0180 C   0  0  0  0  0  3  0  0  0  0  0  0
  160.4930  213.4650  144.7800 F   0  0  0  0  0  0  0  0  0  0  0  0
  162.2280  214.3680  146.0830 N   0  0  0  0  0  0  0  0  0  0  0  0
  161.1730  213.5200  145.9500 C   0  0  0  0  0  0  0  0  0  0  0  0
  162.9300  214.4530  147.2450 C   0  0  0  0  0  3  0  0  0  0  0  0
  160.5820  204.9210  149.2330 O   0  0  0  0  0  0  0  0  0  0  0  0
  161.0750  205.4490  148.0280 C   0  0  0  0  0  2  0  0  0  0  0  0
  161.2540  204.4170  147.1080 O   0  0  0  0  0  0  0  0  0  0  0  0
  162.0300  204.9820  146.0960 C   0  0  0  0  0  2  0  0  0  0  0  0
  163.3790  204.7770  146.3760 O   0  0  0  0  0  1  0  0  0  0  0  0
  1 33  1  6  0  0  0
  1 14  1  0  0  0  0
  2 22  1  1  0  0  0
  2 20  1  0  0  0  0
  3 18  1  0  0  0  0
  3  8  1  0  0  0  0
  4  9  1  0  0  0  0
  5 10  1  0  0  0  0
  5 20  1  0  0  0  0
  6 19  1  0  0  0  0
  6  3  1  0  0  0  0
  8  5  1  0  0  0  0
  9  6  1  0  0  0  0
 11 16  1  0  0  0  0
 11  8  1  0  0  0  0
 12 22  1  0  0  0  0
 12  2  1  0  0  0  0
 13 18  1  0  0  0  0
 14  7  1  0  0  0  0
 14 16  1  0  0  0  0
 15 10  1  0  0  0  0
 16 12  1  0  0  0  0
 17  4  1  0  0  0  0
 17 23  1  0  0  0  0
 18 15  1  0  0  0  0
 19 11  1  0  0  0  0
 21  9  2  0  0  0  0
 21 25  1  0  0  0  0
 23 24  1  0  0  0  0
 23 19  1  0  0  0  0
 24  1  1  0  0  0  0
 24 19  1  0  0  0  0
 25 13  2  0  0  0  0
 27 26  1  0  0  0  0
 27 21  1  0  0  0  0
 28 27  2  0  0  0  0
 29 31  1  0  0  0  0
 30 32  1  0  0  0  0
 31 30  2  0  0  0  0
 31 28  1  0  0  0  0
 32 26  2  0  0  0  0
 34 33  1  0  0  0  0
 35 34  1  0  0  0  0
 36 37  1  0  0  0  0
 36 35  1  0  0  0  0
M  END
>  <MODEL>
2

>  <REMARK>
 VINA RESULT:      -5.4      1.843      3.429
  Name = 
  5 active torsions:
  status: ('A' for Active; 'I' for Inactive)
    1  A    between atoms: C_1  and  O_5
    2  A    between atoms: O_5  and  C_17
    3  A    between atoms: C_6  and  C_31
    4  A    between atoms: C_11  and  O_26
    5  A    between atoms: C_17  and  O_26
                            x       y       z     vdW  Elec       q    Type
                         _______ _______ _______ _____ _____    ______ ____

>  <TORSDO>
F 5

$$$$
=
 OpenBabel11062409173D

 37 45  0  0  1  0  0  0  0  0999 V2000
  162.4410  210.1290  149.9880 C   0  0  1  0  0  3  0  0  0  0  0  0
  161.5850  209.7750  154.6160 C   0  0  2  0  0  3  0  0  0  0  0  0
  161.5280  206.1950  151.9390 C   0  0  1  0  0  3  0  0  0  0  0  0
  160.4300  205.9550  148.3850 C   0  0  0  0  0  2  0  0  0  0  0  0
  161.0080  207.4130  154.1470 C   0  0  2  0  0  3  0  0  0  0  0  0
  161.4970  206.4200  150.6300 C   0  0  1  0  0  3  0  0  0  0  0  0
  161.4790  212.2400  151.0330 C   0  0  0  0  0  1  0  0  0  0  0  0
  161.5190  207.4910  152.7010 C   0  0  2  0  0  3  0  0  0  0  0  0
  161.1720  205.4160  149.5830 C   0  0  0  0  0  0  0  0  0  0  0  0
  160.0800  206.2310  154.3950 C   0  0  0  0  0  2  0  0  0  0  0  0
  160.7880  208.4490  151.7610 C   0  0  1  0  0  3  0  0  0  0  0  0
  161.9210  210.3280  153.2170 C   0  0  1  0  0  3  0  0  0  0  0  0
  162.0040  203.8180  152.1180 C   0  0  0  0  0  3  0  0  0  0  0  0
  161.2660  210.7560  150.7600 C   0  0  2  0  0  3  0  0  0  0  0  0
  160.8310  204.9540  154.0210 C   0  0  0  0  0  2  0  0  0  0  0  0
  160.9880  209.9590  152.0400 C   0  0  1  0  0  3  0  0  0  0  0  0
  160.9580  207.3210  147.9560 C   0  0  0  0  0  2  0  0  0  0  0  0
  161.0580  204.8950  152.5110 C   0  0  1  0  0  3  0  0  0  0  0  0
  161.2650  207.8740  150.4290 C   0  0  2  0  0  0  0  0  0  0  0  0
  160.4540  208.7460  154.6310 C   0  0  0  0  0  2  0  0  0  0  0  0
  161.5000  204.0930  149.6650 C   0  0  0  0  0  0  0  0  0  0  0  0
  161.0980  211.1420  154.2050 C   0  0  0  0  0  2  0  0  0  0  0  0
  160.8310  208.3760  149.0610 C   0  0  1  0  0  3  0  0  0  0  0  0
  162.2570  208.6480  149.5780 C   0  0  1  0  0  3  0  0  0  0  0  0
  162.1800  203.4750  150.8380 C   0  0  0  0  0  3  0  0  0  0  0  0
  160.8670  201.8350  148.7710 C   0  0  0  0  0  3  0  0  0  0  0  0
  161.2400  203.1660  148.5390 C   0  0  0  0  0  0  0  0  0  0  0  0
  161.4230  203.6010  147.2190 C   0  0  0  0  0  3  0  0  0  0  0  0
  161.3730  203.1290  144.8860 F   0  0  0  0  0  0  0  0  0  0  0  0
  160.8320  201.4310  146.4170 N   0  0  0  0  0  0  0  0  0  0  0  0
  161.2070  202.7130  146.1640 C   0  0  0  0  0  0  0  0  0  0  0  0
  160.6610  200.9770  147.6890 C   0  0  0  0  0  3  0  0  0  0  0  0
  162.9490  210.9310  148.9410 O   0  0  0  0  0  0  0  0  0  0  0  0
  161.8750  211.4400  148.1920 C   0  0  0  0  0  2  0  0  0  0  0  0
  162.2620  212.6280  147.5740 O   0  0  0  0  0  0  0  0  0  0  0  0
  161.1930  212.9500  146.7380 C   0  0  0  0  0  2  0  0  0  0  0  0
  160.0750  212.2040  147.1030 O   0  0  0  0  0  1  0  0  0  0  0  0
  1 33  1  6  0  0  0
  1 14  1  0  0  0  0
  2 22  1  1  0  0  0
  2 20  1  0  0  0  0
  3 18  1  0  0  0  0
  3  8  1  0  0  0  0
  4  9  1  0  0  0  0
  5 10  1  0  0  0  0
  5 20  1  0  0  0  0
  6  3  1  0  0  0  0
  8  5  1  0  0  0  0
  9 21  2  0  0  0  0
  9  6  1  0  0  0  0
 11 16  1  0  0  0  0
 11  8  1  0  0  0  0
 12 22  1  0  0  0  0
 12  2  1  0  0  0  0
 13 18  1  0  0  0  0
 14  7  1  0  0  0  0
 14 16  1  0  0  0  0
 15 10  1  0  0  0  0
 16 12  1  0  0  0  0
 17  4  1  0  0  0  0
 17 23  1  0  0  0  0
 18 15  1  0  0  0  0
 19  6  1  0  0  0  0
 19 11  1  0  0  0  0
 21 25  1  0  0  0  0
 23 24  1  0  0  0  0
 23 19  1  0  0  0  0
 24  1  1  0  0  0  0
 24 19  1  0  0  0  0
 25 13  2  0  0  0  0
 27 26  1  0  0  0  0
 27 21  1  0  0  0  0
 28 27  2  0  0  0  0
 29 31  1  0  0  0  0
 30 32  1  0  0  0  0
 31 30  2  0  0  0  0
 31 28  1  0  0  0  0
 32 26  2  0  0  0  0
 34 33  1  0  0  0  0
 35 34  1  0  0  0  0
 36 37  1  0  0  0  0
 36 35  1  0  0  0  0
M  END
>  <MODEL>
3

>  <REMARK>
 VINA RESULT:      -4.8      3.706      7.491
  Name = 
  5 active torsions:
  status: ('A' for Active; 'I' for Inactive)
    1  A    between atoms: C_1  and  O_5
    2  A    between atoms: O_5  and  C_17
    3  A    between atoms: C_6  and  C_31
    4  A    between atoms: C_11  and  O_26
    5  A    between atoms: C_17  and  O_26
                            x       y       z     vdW  Elec       q    Type
                         _______ _______ _______ _____ _____    ______ ____

>  <TORSDO>
F 5

$$$$
=
 OpenBabel11062409173D

 37 45  0  0  1  0  0  0  0  0999 V2000
  160.6300  205.0330  148.2600 C   0  0  1  0  0  3  0  0  0  0  0  0
  160.5330  203.7240  152.7930 C   0  0  2  0  0  3  0  0  0  0  0  0
  160.8400  208.0210  151.5980 C   0  0  1  0  0  3  0  0  0  0  0  0
  162.5920  209.5080  148.6630 C   0  0  0  0  0  2  0  0  0  0  0  0
  161.0100  206.1000  153.3040 C   0  0  2  0  0  3  0  0  0  0  0  0
  161.1440  208.2750  150.3300 C   0  0  1  0  0  3  0  0  0  0  0  0
  161.5260  202.6910  148.6860 C   0  0  0  0  0  1  0  0  0  0  0  0
  160.7980  206.5400  151.8480 C   0  0  2  0  0  3  0  0  0  0  0  0
  161.5900  209.5860  149.7890 C   0  0  0  0  0  0  0  0  0  0  0  0
  161.7780  207.1190  154.1350 C   0  0  0  0  0  2  0  0  0  0  0  0
  161.7700  205.9780  150.8100 C   0  0  1  0  0  3  0  0  0  0  0  0
  160.5200  203.7030  151.2520 C   0  0  1  0  0  3  0  0  0  0  0  0
  160.1590  210.1800  152.4850 C   0  0  0  0  0  3  0  0  0  0  0  0
  161.6750  204.1760  148.9950 C   0  0  2  0  0  3  0  0  0  0  0  0
  161.0200  208.4440  154.0780 C   0  0  0  0  0  2  0  0  0  0  0  0
  161.6350  204.4660  150.5000 C   0  0  1  0  0  3  0  0  0  0  0  0
  162.2630  208.3820  147.6860 C   0  0  0  0  0  2  0  0  0  0  0  0
  161.0890  209.0340  152.6700 C   0  0  1  0  0  3  0  0  0  0  0  0
  161.5210  206.9880  149.6920 C   0  0  2  0  0  0  0  0  0  0  0  0
  161.5580  204.6830  153.4010 C   0  0  0  0  0  2  0  0  0  0  0  0
  161.1530  210.7930  150.2540 C   0  0  0  0  0  0  0  0  0  0  0  0
  161.1940  202.5930  152.0460 C   0  0  0  0  0  2  0  0  0  0  0  0
  162.2520  207.0040  148.3570 C   0  0  1  0  0  3  0  0  0  0  0  0
  160.7770  206.5640  148.4370 C   0  0  1  0  0  3  0  0  0  0  0  0
  160.2120  210.9540  151.3970 C   0  0  0  0  0  3  0  0  0  0  0  0
  160.9780  213.2810  149.9720 C   0  0  0  0  0  3  0  0  0  0  0  0
  161.5570  212.0590  149.6000 C   0  0  0  0  0  0  0  0  0  0  0  0
  162.4880  212.0390  148.5520 C   0  0  0  0  0  3  0  0  0  0  0  0
  163.7450  213.2220  146.9120 F   0  0  0  0  0  0  0  0  0  0  0  0
  162.2740  214.4060  148.3100 N   0  0  0  0  0  0  0  0  0  0  0  0
  162.8400  213.2330  147.9190 C   0  0  0  0  0  0  0  0  0  0  0  0
  161.3570  214.4530  149.3150 C   0  0  0  0  0  3  0  0  0  0  0  0
  160.3990  204.6540  146.9170 O   0  0  0  0  0  0  0  0  0  0  0  0
  161.5950  204.7850  146.1930 C   0  0  0  0  0  2  0  0  0  0  0  0
  161.4080  204.3080  144.8970 O   0  0  0  0  0  0  0  0  0  0  0  0
  161.2710  205.4570  144.1180 C   0  0  0  0  0  2  0  0  0  0  0  0
  160.4390  206.3640  144.7710 O   0  0  0  0  0  1  0  0  0  0  0  0
  1 33  1  6  0  0  0
  1 24  1  0  0  0  0
  1 14  1  0  0  0  0
  2 22  1  1  0  0  0
  2 20  1  0  0  0  0
  3  8  1  0  0  0  0
  3 18  1  0  0  0  0
  4  9  1  0  0  0  0
  5 20  1  0  0  0  0
  5 10  1  0  0  0  0
  6  3  1  0  0  0  0
  7 14  1  0  0  0  0
  8  5  1  0  0  0  0
  9 21  2  0  0  0  0
  9  6  1  0  0  0  0
 11  8  1  0  0  0  0
 12 22  1  0  0  0  0
 12  2  1  0  0  0  0
 13 18  1  0  0  0  0
 14 16  1  0  0  0  0
 15 10  1  0  0  0  0
 16 11  1  0  0  0  0
 16 12  1  0  0  0  0
 17 23  1  0  0  0  0
 17  4  1  0  0  0  0
 18 15  1  0  0  0  0
 19  6  1  0  0  0  0
 19 11  1  0  0  0  0
 21 25  1  0  0  0  0
 23 24  1  0  0  0  0
 23 19  1  0  0  0  0
 24 19  1  0  0  0  0
 25 13  2  0  0  0  0
 27 26  1  0  0  0  0
 27 21  1  0  0  0  0
 28 27  2  0  0  0  0
 29 31  1  0  0  0  0
 30 32  1  0  0  0  0
 31 30  2  0  0  0  0
 31 28  1  0  0  0  0
 32 26  2  0  0  0  0
 34 33  1  0  0  0  0
 35 34  1  0  0  0  0
 36 37  1  0  0  0  0
 36 35  1  0  0  0  0
M  END
>  <MODEL>
4

>  <REMARK>
 VINA RESULT:      -3.9      2.806      5.583
  Name = 
  5 active torsions:
  status: ('A' for Active; 'I' for Inactive)
    1  A    between atoms: C_1  and  O_5
    2  A    between atoms: O_5  and  C_17
    3  A    between atoms: C_6  and  C_31
    4  A    between atoms: C_11  and  O_26
    5  A    between atoms: C_17  and  O_26
                            x       y       z     vdW  Elec       q    Type
                         _______ _______ _______ _____ _____    ______ ____

>  <TORSDO>
F 5

$$$$
=
 OpenBabel11062409173D

 37 45  0  0  1  0  0  0  0  0999 V2000
  162.4510  208.5960  149.5350 C   0  0  1  0  0  3  0  0  0  0  0  0
  161.6500  207.5580  154.0690 C   0  0  2  0  0  3  0  0  0  0  0  0
  161.4220  204.4400  150.8730 C   0  0  1  0  0  3  0  0  0  0  0  0
  160.2650  204.7920  147.3470 C   0  0  0  0  0  2  0  0  0  0  0  0
  160.9780  205.3190  153.2530 C   0  0  2  0  0  3  0  0  0  0  0  0
  161.3800  204.8660  149.6150 C   0  0  1  0  0  3  0  0  0  0  0  0
  161.5840  210.5510  150.9120 C   0  0  0  0  0  1  0  0  0  0  0  0
  161.4720  205.6020  151.8260 C   0  0  2  0  0  3  0  0  0  0  0  0
  161.0040  204.0490  148.4330 C   0  0  0  0  0  0  0  0  0  0  0  0
  160.0110  204.1460  153.3330 C   0  0  0  0  0  2  0  0  0  0  0  0
  160.7630  206.7190  151.0600 C   0  0  1  0  0  3  0  0  0  0  0  0
  161.9860  208.3100  152.7660 C   0  0  1  0  0  3  0  0  0  0  0  0
  161.8120  202.0490  150.6740 C   0  0  0  0  0  3  0  0  0  0  0  0
  161.3120  209.1350  150.4180 C   0  0  2  0  0  3  0  0  0  0  0  0
  160.7090  202.9170  152.7530 C   0  0  0  0  0  2  0  0  0  0  0  0
  161.0230  208.1600  151.5650 C   0  0  1  0  0  3  0  0  0  0  0  0
  160.8370  206.1890  147.1240 C   0  0  0  0  0  2  0  0  0  0  0  0
  160.9120  203.0850  151.2470 C   0  0  1  0  0  3  0  0  0  0  0  0
  161.1990  206.3410  149.6460 C   0  0  2  0  0  0  0  0  0  0  0  0
  160.4810  206.5790  153.9480 C   0  0  0  0  0  2  0  0  0  0  0  0
  161.2830  202.7180  148.3040 C   0  0  0  0  0  0  0  0  0  0  0  0
  161.2070  208.9890  153.8830 C   0  0  0  0  0  2  0  0  0  0  0  0
  160.7640  207.0640  148.3800 C   0  0  1  0  0  3  0  0  0  0  0  0
  162.2070  207.2030  148.9050 C   0  0  1  0  0  3  0  0  0  0  0  0
  161.9560  201.9030  149.3530 C   0  0  0  0  0  3  0  0  0  0  0  0
  160.3920  202.6430  145.9590 C   0  0  0  0  0  3  0  0  0  0  0  0
  160.9730  201.9870  147.0530 C   0  0  0  0  0  0  0  0  0  0  0  0
  161.2060  200.6070  146.9730 C   0  0  0  0  0  3  0  0  0  0  0  0
  161.1130  198.5880  145.7150 F   0  0  0  0  0  0  0  0  0  0  0  0
  160.3320  200.5840  144.7510 N   0  0  0  0  0  0  0  0  0  0  0  0
  160.8820  199.9200  145.8020 C   0  0  0  0  0  0  0  0  0  0  0  0
  160.0810  201.9200  144.8060 C   0  0  0  0  0  3  0  0  0  0  0  0
  162.9740  209.5320  148.6140 O   0  0  0  0  0  0  0  0  0  0  0  0
  162.0000  210.5110  148.3550 C   0  0  0  0  0  2  0  0  0  0  0  0
  162.6190  211.6680  147.8860 O   0  0  0  0  0  0  0  0  0  0  0  0
  161.5660  212.5360  147.5980 C   0  0  0  0  0  2  0  0  0  0  0  0
  161.1340  213.1480  148.7730 O   0  0  0  0  0  1  0  0  0  0  0  0
  1 33  1  6  0  0  0
  1 14  1  0  0  0  0
  2 22  1  1  0  0  0
  3 18  1  0  0  0  0
  3  8  1  0  0  0  0
  4  9  1  0  0  0  0
  5 10  1  0  0  0  0
  5 20  1  0  0  0  0
  6 19  1  0  0  0  0
  6  3  1  0  0  0  0
  8  5  1  0  0  0  0
  9  6  1  0  0  0  0
 11 16  1  0  0  0  0
 11  8  1  0  0  0  0
 12 22  1  0  0  0  0
 12  2  1  0  0  0  0
 13 18  1  0  0  0  0
 14  7  1  0  0  0  0
 14 16  1  0  0  0  0
 15 10  1  0  0  0  0
 16 12  1  0  0  0  0
 17  4  1  0  0  0  0
 17 23  1  0  0  0  0
 18 15  1  0  0  0  0
 19 11  1  0  0  0  0
 20  2  1  0  0  0  0
 21  9  2  0  0  0  0
 21 25  1  0  0  0  0
 23 24  1  0  0  0  0
 23 19  1  0  0  0  0
 24  1  1  0  0  0  0
 24 19  1  0  0  0  0
 25 13  2  0  0  0  0
 26 27  1  0  0  0  0
 27 21  1  0  0  0  0
 28 27  2  0  0  0  0
 29 31  1  0  0  0  0
 30 32  1  0  0  0  0
 30 31  2  0  0  0  0
 31 28  1  0  0  0  0
 32 26  2  0  0  0  0
 34 33  1  0  0  0  0
 35 34  1  0  0  0  0
 36 35  1  0  0  0  0
 36 37  1  0  0  0  0
M  END
>  <MODEL>
5

>  <REMARK>
 VINA RESULT:      -3.6      4.509      8.583
  Name = 
  5 active torsions:
  status: ('A' for Active; 'I' for Inactive)
    1  A    between atoms: C_1  and  O_5
    2  A    between atoms: O_5  and  C_17
    3  A    between atoms: C_6  and  C_31
    4  A    between atoms: C_11  and  O_26
    5  A    between atoms: C_17  and  O_26
                            x       y       z     vdW  Elec       q    Type
                         _______ _______ _______ _____ _____    ______ ____

>  <TORSDO>
F 5

$$$$
=
 OpenBabel11062409173D

 37 45  0  0  1  0  0  0  0  0999 V2000
  161.2250  210.6450  154.9770 C   0  0  1  0  0  3  0  0  0  0  0  0
  161.4370  205.9830  154.2780 C   0  0  2  0  0  3  0  0  0  0  0  0
  161.6700  208.8770  150.8790 C   0  0  1  0  0  3  0  0  0  0  0  0
  159.9580  212.1650  150.4910 C   0  0  0  0  0  2  0  0  0  0  0  0
  161.3420  206.5200  151.8620 C   0  0  2  0  0  3  0  0  0  0  0  0
  161.3210  210.1340  151.1310 C   0  0  1  0  0  3  0  0  0  0  0  0
  160.0330  209.2710  156.7550 C   0  0  0  0  0  1  0  0  0  0  0  0
  161.5150  208.0260  152.1080 C   0  0  2  0  0  3  0  0  0  0  0  0
  161.0330  211.1770  150.1120 C   0  0  0  0  0  0  0  0  0  0  0  0
  160.7840  206.1960  150.4830 C   0  0  0  0  0  2  0  0  0  0  0  0
  160.4060  208.7300  152.8890 C   0  0  1  0  0  3  0  0  0  0  0  0
  161.3430  207.3710  154.9410 C   0  0  1  0  0  3  0  0  0  0  0  0
  162.7130  208.9820  148.6850 C   0  0  0  0  0  3  0  0  0  0  0  0
  160.1200  209.6170  155.2730 C   0  0  2  0  0  3  0  0  0  0  0  0
  161.7200  206.8050  149.4400 C   0  0  0  0  0  2  0  0  0  0  0  0
  160.3010  208.3740  154.3930 C   0  0  1  0  0  3  0  0  0  0  0  0
  160.0550  212.5760  151.9580 C   0  0  0  0  0  2  0  0  0  0  0  0
  161.6420  208.3310  149.4860 C   0  0  1  0  0  3  0  0  0  0  0  0
  160.7210  210.1700  152.4890 C   0  0  2  0  0  0  0  0  0  0  0  0
  160.6030  205.8350  153.0050 C   0  0  0  0  0  2  0  0  0  0  0  0
  161.6690  211.2640  148.9060 C   0  0  0  0  0  0  0  0  0  0  0  0
  160.5710  206.1830  155.4970 C   0  0  0  0  0  2  0  0  0  0  0  0
  159.9130  211.3870  152.9140 C   0  0  1  0  0  3  0  0  0  0  0  0
  161.3120  211.1300  153.5090 C   0  0  1  0  0  3  0  0  0  0  0  0
  162.6990  210.2950  148.4360 C   0  0  0  0  0  3  0  0  0  0  0  0
  160.1190  212.9250  147.8400 C   0  0  0  0  0  3  0  0  0  0  0  0
  161.4080  212.3910  147.9810 C   0  0  0  0  0  0  0  0  0  0  0  0
  162.4450  212.8990  147.1870 C   0  0  0  0  0  3  0  0  0  0  0  0
  163.1840  214.4420  145.5310 F   0  0  0  0  0  0  0  0  0  0  0  0
  160.9280  214.4490  146.1880 N   0  0  0  0  0  0  0  0  0  0  0  0
  162.1840  213.9400  146.2950 C   0  0  0  0  0  0  0  0  0  0  0  0
  159.8990  213.9650  146.9360 C   0  0  0  0  0  3  0  0  0  0  0  0
  161.3090  211.7030  155.9110 O   0  0  0  0  0  0  0  0  0  0  0  0
  160.2250  212.5740  155.7130 C   0  0  0  0  0  2  0  0  0  0  0  0
  159.9340  213.2320  156.9070 O   0  0  0  0  0  0  0  0  0  0  0  0
  158.5410  213.2630  156.9580 C   0  0  0  0  0  2  0  0  0  0  0  0
  158.0220  212.3360  156.0560 O   0  0  0  0  0  1  0  0  0  0  0  0
  1 14  1  0  0  0  0
  1 33  1  1  0  0  0
  2 20  1  6  0  0  0
  2 12  1  0  0  0  0
  2 22  1  0  0  0  0
  3  6  1  0  0  0  0
  3  8  1  0  0  0  0
  4 17  1  0  0  0  0
  5  8  1  0  0  0  0
  5 20  1  0  0  0  0
  6 19  1  0  0  0  0
  8 11  1  0  0  0  0
  9  4  1  0  0  0  0
  9  6  1  0  0  0  0
 10  5  1  0  0  0  0
 11 16  1  0  0  0  0
 12 22  1  0  0  0  0
 13 18  1  0  0  0  0
 14  7  1  0  0  0  0
 15 18  1  0  0  0  0
 15 10  1  0  0  0  0
 16 12  1  0  0  0  0
 16 14  1  0  0  0  0
 17 23  1  0  0  0  0
 18  3  1  0  0  0  0
 19 11  1  0  0  0  0
 19 23  1  0  0  0  0
 19 24  1  0  0  0  0
 21  9  2  0  0  0  0
 23 24  1  0  0  0  0
 24  1  1  0  0  0  0
 25 13  2  0  0  0  0
 25 21  1  0  0  0  0
 26 27  1  0  0  0  0
 27 21  1  0  0  0  0
 28 27  2  0  0  0  0
 29 31  1  0  0  0  0
 30 31  2  0  0  0  0
 30 32  1  0  0  0  0
 31 28  1  0  0  0  0
 32 26  2  0  0  0  0
 34 33  1  0  0  0  0
 34 35  1  0  0  0  0
 35 36  1  0  0  0  0
 37 36  1  0  0  0  0
M  END
>  <MODEL>
6

>  <REMARK>
 VINA RESULT:      -3.2      2.597      5.188
  Name = 
  5 active torsions:
  status: ('A' for Active; 'I' for Inactive)
    1  A    between atoms: C_1  and  O_5
    2  A    between atoms: O_5  and  C_17
    3  A    between atoms: C_6  and  C_31
    4  A    between atoms: C_11  and  O_26
    5  A    between atoms: C_17  and  O_26
                            x       y       z     vdW  Elec       q    Type
                         _______ _______ _______ _____ _____    ______ ____

>  <TORSDO>
F 5

$$$$
