=
 OpenBabel11062409073D

 37 41  0  0  1  0  0  0  0  0999 V2000
  161.4880  206.5390  152.3040 C   0  0  1  0  0  0  0  0  0  0  0  0
  161.2090  207.8480  156.1200 S   0  0  0  0  0  0  0  0  0  0  0  0
  159.0550  210.5350  154.1040 C   0  0  0  0  0  3  0  0  0  0  0  0
  160.9200  205.5170  151.2990 C   0  0  1  0  0  3  0  0  0  0  0  0
  162.1380  210.0530  149.9880 C   0  0  0  0  0  3  0  0  0  0  0  0
  161.2380  210.5120  156.2660 C   0  0  0  0  0  3  0  0  0  0  0  0
  160.3110  208.5520  150.0140 O   0  0  0  0  0  1  0  0  0  0  0  0
  161.7380  206.7450  148.3080 O   0  0  0  0  0  1  0  0  0  0  0  0
  159.3530  209.5500  154.9510 C   0  0  0  0  0  3  0  0  0  0  0  0
  161.0580  211.9780  150.9710 N   0  0  0  0  0  2  0  0  0  0  0  0
  160.8850  211.9360  156.0960 C   0  0  0  0  0  3  0  0  0  0  0  0
  161.9260  205.1930  150.1800 C   0  0  2  0  0  3  0  0  0  0  0  0
  161.0760  206.4460  153.7730 C   0  0  1  0  0  3  0  0  0  0  0  0
  160.0700  206.9590  156.5340 O   0  0  0  0  0  0  0  0  0  0  0  0
  159.4470  212.5420  152.7040 C   0  0  0  0  0  2  0  0  0  0  0  0
  160.3020  212.4540  155.0140 C   0  0  0  0  0  3  0  0  0  0  0  0
  162.0510  207.1670  154.6990 C   0  0  0  0  0  2  0  0  0  0  0  0
  162.4670  206.4510  149.4680 C   0  0  2  0  0  3  0  0  0  0  0  0
  161.6770  208.8120  150.1120 C   0  0  0  0  0  0  0  0  0  0  0  0
  160.0070  211.6460  153.7950 C   0  0  1  0  0  3  0  0  0  0  0  0
  162.7090  207.3600  151.8730 C   0  0  0  0  0  2  0  0  0  0  0  0
  160.6030  209.4540  155.7370 C   0  0  0  0  0  0  0  0  0  0  0  0
  161.2290  211.2160  149.7430 C   0  0  1  0  0  3  0  0  0  0  0  0
  162.1830  207.9380  157.2610 O   0  0  0  0  0  0  0  0  0  0  0  0
  162.6480  207.6980  150.3780 C   0  0  1  0  0  3  0  0  0  0  0  0
  161.3760  204.2930  149.2650 O   0  0  0  0  0  1  0  0  0  0  0  0
  160.3920  207.4310  152.8450 C   0  0  0  0  0  2  0  0  0  0  0  0
  159.6520  211.9140  151.3340 C   0  0  0  0  0  2  0  0  0  0  0  0
  163.1460  212.0600  148.3210 C   0  0  0  0  0  3  0  0  0  0  0  0
  161.7820  212.0770  148.6510 C   0  0  0  0  0  0  0  0  0  0  0  0
  160.9050  212.8750  147.9060 C   0  0  0  0  0  3  0  0  0  0  0  0
  160.5120  214.4530  146.1220 O   0  0  0  0  0  1  0  0  0  0  0  0
  162.7480  213.6490  146.5400 C   0  0  0  0  0  3  0  0  0  0  0  0
  161.3870  213.6600  146.8550 C   0  0  0  0  0  0  0  0  0  0  0  0
  163.6280  212.8480  147.2720 C   0  0  0  0  0  3  0  0  0  0  0  0
  161.3330  203.3690  152.0090 C   0  0  0  0  0  1  0  0  0  0  0  0
  160.3520  204.3690  151.9040 O   0  0  0  0  0  0  0  0  0  0  0  0
  1 21  1  6  0  0  0
  1 27  1  0  0  0  0
  1 13  1  0  0  0  0
  2 14  2  0  0  0  0
  2 24  2  0  0  0  0
  3  9  2  0  0  0  0
  4 37  1  1  0  0  0
  4  1  1  0  0  0  0
  5 19  2  0  0  0  0
  7 19  1  0  0  0  0
  9 22  1  0  0  0  0
 10 28  1  0  0  0  0
 11  6  1  0  0  0  0
 12 26  1  6  0  0  0
 12  4  1  0  0  0  0
 13 27  1  6  0  0  0
 13 17  1  0  0  0  0
 16 11  2  0  0  0  0
 17  2  1  0  0  0  0
 18  8  1  6  0  0  0
 18 12  1  0  0  0  0
 18 25  1  0  0  0  0
 19 25  1  0  0  0  0
 20 15  1  6  0  0  0
 20  3  1  0  0  0  0
 20 16  1  0  0  0  0
 22  2  1  0  0  0  0
 22  6  2  0  0  0  0
 23 30  1  6  0  0  0
 23  5  1  0  0  0  0
 23 10  1  0  0  0  0
 25 21  1  1  0  0  0
 28 15  1  0  0  0  0
 29 30  1  0  0  0  0
 31 30  2  0  0  0  0
 32 34  1  0  0  0  0
 33 34  2  0  0  0  0
 33 35  1  0  0  0  0
 34 31  1  0  0  0  0
 35 29  2  0  0  0  0
 37 36  1  0  0  0  0
M  END
>  <MODEL>
1

>  <REMARK>
 VINA RESULT:      -1.4      0.000      0.000
  Name = 
  2 active torsions:
  status: ('A' for Active; 'I' for Inactive)
    1  A    between atoms: C_5  and  O_23
    2  A    between atoms: C_6  and  C_31
                            x       y       z     vdW  Elec       q    Type
                         _______ _______ _______ _____ _____    ______ ____

>  <TORSDO>
F 2

$$$$
