=
 OpenBabel11052422143D

 25 28  0  0  0  0  0  0  0  0999 V2000
  161.0660  205.7980  151.5460 C   0  0  0  0  0  0  0  0  0  0  0  0
  160.7290  205.2270  150.2050 C   0  0  0  0  0  0  0  0  0  0  0  0
  161.1050  203.6480  152.6760 C   0  0  0  0  0  3  0  0  0  0  0  0
  161.0490  207.0350  152.0110 C   0  0  0  0  0  0  0  0  0  0  0  0
  161.0390  209.3920  153.4700 C   0  0  0  0  0  3  0  0  0  0  0  0
  161.0100  202.9960  151.3440 C   0  0  0  0  0  3  0  0  0  0  0  0
  161.1730  206.9950  153.3970 C   0  0  0  0  0  0  0  0  0  0  0  0
  161.1750  208.1680  154.1490 C   0  0  0  0  0  3  0  0  0  0  0  0
  160.9410  203.0470  148.8820 C   0  0  0  0  0  0  0  0  0  0  0  0
  160.6300  201.5990  148.7190 C   0  0  0  0  0  1  0  0  0  0  0  0
  161.4950  205.8580  149.0730 C   0  0  0  0  0  2  0  0  0  0  0  0
  160.8950  209.4240  152.0690 C   0  0  0  0  0  3  0  0  0  0  0  0
  161.1580  204.9760  152.7250 C   0  0  0  0  0  0  0  0  0  0  0  0
  161.2380  205.7940  153.8890 N   0  0  0  0  0  0  0  0  0  0  0  0
  161.3420  203.7540  147.8190 C   0  0  0  0  0  3  0  0  0  0  0  0
  160.8930  208.2360  151.3210 C   0  0  0  0  0  3  0  0  0  0  0  0
  161.7230  205.1800  147.9410 C   0  0  0  0  0  0  0  0  0  0  0  0
  160.8860  203.7090  150.2020 C   0  0  0  0  0  0  0  0  0  0  0  0
  162.3930  205.8610  146.8010 C   0  0  0  0  0  2  0  0  0  0  0  0
  162.5140  204.9420  145.6830 N   0  0  0  0  0  2  0  0  0  0  0  0
  161.5930  205.4060  144.6590 C   0  0  0  0  0  2  0  0  0  0  0  0
  160.4860  204.3870  144.4630 C   0  0  0  0  0  2  0  0  0  0  0  0
  160.9120  203.1320  144.9010 O   0  0  0  0  0  0  0  0  0  0  0  0
  159.7950  202.3120  144.7520 C   0  0  0  0  0  2  0  0  0  0  0  0
  160.1530  200.9890  145.0050 O   0  0  0  0  0  1  0  0  0  0  0  0
  1  4  1  0  0  0  0
  1 13  1  0  0  0  0
  2  1  2  0  0  0  0
  3 13  1  0  0  0  0
  4  7  1  0  0  0  0
  5  8  1  0  0  0  0
  6  3  2  0  0  0  0
  7 14  1  0  0  0  0
  7  8  2  0  0  0  0
  9 18  2  0  0  0  0
 10  9  1  0  0  0  0
 11  2  1  0  0  0  0
 12  5  2  0  0  0  0
 13 14  2  0  0  0  0
 15 17  2  0  0  0  0
 15  9  1  0  0  0  0
 16  4  2  0  0  0  0
 16 12  1  0  0  0  0
 17 11  1  0  0  0  0
 18  2  1  0  0  0  0
 18  6  1  0  0  0  0
 19 17  1  0  0  0  0
 20 19  1  0  0  0  0
 21 20  1  0  0  0  0
 22 21  1  0  0  0  0
 22 23  1  0  0  0  0
 24 23  1  0  0  0  0
 24 25  1  0  0  0  0
M  END
>  <MODEL>
1

>  <REMARK>
 VINA RESULT:      -9.5      0.000      0.000
  Name = 
  6 active torsions:
  status: ('A' for Active; 'I' for Inactive)
    1  A    between atoms: O_2  and  C_7
    2  A    between atoms: O_2  and  C_25
    3  A    between atoms: C_6  and  N_15
    4  A    between atoms: C_6  and  C_23
    5  A    between atoms: N_15  and  C_21
    6  A    between atoms: C_21  and  C_25
                            x       y       z     vdW  Elec       q    Type
                         _______ _______ _______ _____ _____    ______ ____

>  <TORSDO>
F 6

$$$$
=
 OpenBabel11052422143D

 25 28  0  0  0  0  0  0  0  0999 V2000
  161.3650  205.9860  150.7140 C   0  0  0  0  0  0  0  0  0  0  0  0
  160.8050  204.9270  149.8180 C   0  0  0  0  0  0  0  0  0  0  0  0
  161.1920  204.6510  152.7360 C   0  0  0  0  0  3  0  0  0  0  0  0
  161.5880  207.2750  150.5290 C   0  0  0  0  0  0  0  0  0  0  0  0
  162.0940  209.9960  150.6770 C   0  0  0  0  0  3  0  0  0  0  0  0
  160.8590  203.4820  151.8830 C   0  0  0  0  0  3  0  0  0  0  0  0
  161.8500  207.8670  151.7600 C   0  0  0  0  0  0  0  0  0  0  0  0
  162.1120  209.2320  151.8570 C   0  0  0  0  0  3  0  0  0  0  0  0
  160.5380  202.3840  149.7000 C   0  0  0  0  0  0  0  0  0  0  0  0
  159.9930  201.1150  150.2590 C   0  0  0  0  0  1  0  0  0  0  0  0
  161.5350  204.7990  148.5080 C   0  0  0  0  0  2  0  0  0  0  0  0
  161.8090  209.3940  149.4350 C   0  0  0  0  0  3  0  0  0  0  0  0
  161.4540  205.8120  152.1410 C   0  0  0  0  0  0  0  0  0  0  0  0
  161.7810  207.0480  152.7680 N   0  0  0  0  0  0  0  0  0  0  0  0
  160.9280  202.4220  148.4210 C   0  0  0  0  0  3  0  0  0  0  0  0
  161.5460  208.0180  149.3500 C   0  0  0  0  0  3  0  0  0  0  0  0
  161.5340  203.6410  147.8360 C   0  0  0  0  0  0  0  0  0  0  0  0
  160.7250  203.5850  150.5410 C   0  0  0  0  0  0  0  0  0  0  0  0
  162.1770  203.5700  146.4960 C   0  0  0  0  0  2  0  0  0  0  0  0
  161.3200  202.8380  145.5790 N   0  0  0  0  0  2  0  0  0  0  0  0
  160.6330  203.8290  144.7690 C   0  0  0  0  0  2  0  0  0  0  0  0
  161.5960  204.9340  144.3800 C   0  0  0  0  0  2  0  0  0  0  0  0
  160.9010  206.1340  144.2180 O   0  0  0  0  0  0  0  0  0  0  0  0
  160.0590  206.2030  145.3270 C   0  0  0  0  0  2  0  0  0  0  0  0
  160.7150  206.8580  146.3680 O   0  0  0  0  0  1  0  0  0  0  0  0
  1 13  1  0  0  0  0
  2 18  1  0  0  0  0
  2  1  2  0  0  0  0
  4  1  1  0  0  0  0
  4  7  1  0  0  0  0
  5  8  1  0  0  0  0
  6  3  2  0  0  0  0
  7  8  2  0  0  0  0
  7 14  1  0  0  0  0
  9 10  1  0  0  0  0
  9 18  2  0  0  0  0
 11  2  1  0  0  0  0
 12  5  2  0  0  0  0
 13  3  1  0  0  0  0
 13 14  2  0  0  0  0
 15  9  1  0  0  0  0
 16 12  1  0  0  0  0
 16  4  2  0  0  0  0
 17 15  2  0  0  0  0
 17 11  1  0  0  0  0
 18  6  1  0  0  0  0
 19 17  1  0  0  0  0
 20 19  1  0  0  0  0
 21 20  1  0  0  0  0
 22 21  1  0  0  0  0
 23 22  1  0  0  0  0
 23 24  1  0  0  0  0
 24 25  1  0  0  0  0
M  END
>  <MODEL>
2

>  <REMARK>
 VINA RESULT:      -9.0      1.762      2.284
  Name = 
  6 active torsions:
  status: ('A' for Active; 'I' for Inactive)
    1  A    between atoms: O_2  and  C_7
    2  A    between atoms: O_2  and  C_25
    3  A    between atoms: C_6  and  N_15
    4  A    between atoms: C_6  and  C_23
    5  A    between atoms: N_15  and  C_21
    6  A    between atoms: C_21  and  C_25
                            x       y       z     vdW  Elec       q    Type
                         _______ _______ _______ _____ _____    ______ ____

>  <TORSDO>
F 6

$$$$
=
 OpenBabel11052422143D

 25 28  0  0  1  0  0  0  0  0999 V2000
  161.3510  205.1400  149.1150 C   0  0  0  0  0  0  0  0  0  0  0  0
  160.9630  206.2120  150.0850 C   0  0  1  0  0  3  0  0  0  0  0  0
  162.3010  206.6750  147.4900 C   0  0  0  0  0  3  0  0  0  0  0  0
  161.0260  203.8630  149.0310 C   0  0  0  0  0  0  0  0  0  0  0  0
  160.5390  201.2190  148.3540 C   0  0  0  0  0  3  0  0  0  0  0  0
  162.1660  207.7580  148.4980 C   0  0  0  0  0  3  0  0  0  0  0  0
  161.4230  203.3790  147.7880 C   0  0  0  0  0  0  0  0  0  0  0  0
  161.1930  202.0520  147.4290 C   0  0  0  0  0  3  0  0  0  0  0  0
  161.6070  208.5990  150.7460 C   0  0  0  0  0  0  0  0  0  0  0  0
  161.7550  210.0410  150.3980 C   0  0  0  0  0  1  0  0  0  0  0  0
  161.2490  205.8570  151.5190 C   0  0  0  0  0  3  0  0  0  0  0  0
  160.1230  201.7200  149.6040 C   0  0  0  0  0  3  0  0  0  0  0  0
  161.9310  205.4440  147.8330 C   0  0  0  0  0  0  0  0  0  0  0  0
  161.9680  204.2750  147.0200 N   0  0  0  0  0  0  0  0  0  0  0  0
  161.5430  208.2390  152.0330 C   0  0  0  0  0  3  0  0  0  0  0  0
  160.3600  203.0590  149.9540 C   0  0  0  0  0  3  0  0  0  0  0  0
  161.4580  206.8140  152.4310 C   0  0  0  0  0  0  0  0  0  0  0  0
  161.5980  207.5470  149.7070 C   0  0  0  0  0  0  0  0  0  0  0  0
  161.6370  206.4400  153.8600 C   0  0  0  0  0  2  0  0  0  0  0  0
  160.5530  206.9940  154.6520 N   0  0  0  0  0  2  0  0  0  0  0  0
  161.1650  207.7860  155.7040 C   0  0  0  0  0  2  0  0  0  0  0  0
  160.2730  208.9630  156.0480 C   0  0  0  0  0  2  0  0  0  0  0  0
  160.0030  209.7070  154.8990 O   0  0  0  0  0  0  0  0  0  0  0  0
  161.0400  210.6370  154.8320 C   0  0  0  0  0  2  0  0  0  0  0  0
  160.8940  211.4140  153.6850 O   0  0  0  0  0  1  0  0  0  0  0  0
  1  2  1  0  0  0  0
  2 11  1  1  0  0  0
  3 13  2  0  0  0  0
  3  6  1  0  0  0  0
  4  1  2  0  0  0  0
  4 16  1  0  0  0  0
  5 12  1  0  0  0  0
  6 18  2  0  0  0  0
  7  4  1  0  0  0  0
  8  7  1  0  0  0  0
  8  5  2  0  0  0  0
  9 15  2  0  0  0  0
 10  9  1  0  0  0  0
 11 17  2  0  0  0  0
 12 16  2  0  0  0  0
 13  1  1  0  0  0  0
 14  7  2  0  0  0  0
 14 13  1  0  0  0  0
 15 17  1  0  0  0  0
 17 19  1  0  0  0  0
 18  2  1  0  0  0  0
 18  9  1  0  0  0  0
 19 20  1  0  0  0  0
 20 21  1  0  0  0  0
 21 22  1  0  0  0  0
 23 22  1  0  0  0  0
 24 23  1  0  0  0  0
 25 24  1  0  0  0  0
M  END
>  <MODEL>
3

>  <REMARK>
 VINA RESULT:      -8.9      3.902      8.005
  Name = 
  6 active torsions:
  status: ('A' for Active; 'I' for Inactive)
    1  A    between atoms: O_2  and  C_7
    2  A    between atoms: O_2  and  C_25
    3  A    between atoms: C_6  and  N_15
    4  A    between atoms: C_6  and  C_23
    5  A    between atoms: N_15  and  C_21
    6  A    between atoms: C_21  and  C_25
                            x       y       z     vdW  Elec       q    Type
                         _______ _______ _______ _____ _____    ______ ____

>  <TORSDO>
F 6

$$$$
=
 OpenBabel11052422143D

 25 28  0  0  1  0  0  0  0  0999 V2000
  161.4670  204.8510  149.1980 C   0  0  0  0  0  0  0  0  0  0  0  0
  161.9870  205.8180  150.2150 C   0  0  1  0  0  3  0  0  0  0  0  0
  160.5270  203.3230  150.8360 C   0  0  0  0  0  3  0  0  0  0  0  0
  161.6970  204.7200  147.9040 C   0  0  0  0  0  0  0  0  0  0  0  0
  161.9570  203.9560  145.2520 C   0  0  0  0  0  3  0  0  0  0  0  0
  160.7990  204.3440  151.8800 C   0  0  0  0  0  3  0  0  0  0  0  0
  161.1910  203.4940  147.4810 C   0  0  0  0  0  0  0  0  0  0  0  0
  161.3070  203.0930  146.1510 C   0  0  0  0  0  3  0  0  0  0  0  0
  161.5520  206.5690  152.6230 C   0  0  0  0  0  0  0  0  0  0  0  0
  161.4830  206.2630  154.0800 C   0  0  0  0  0  1  0  0  0  0  0  0
  161.7660  207.2590  149.8430 C   0  0  0  0  0  3  0  0  0  0  0  0
  162.4830  205.1880  145.6910 C   0  0  0  0  0  3  0  0  0  0  0  0
  160.8310  203.6150  149.5740 C   0  0  0  0  0  0  0  0  0  0  0  0
  160.6640  202.7810  148.4310 N   0  0  0  0  0  0  0  0  0  0  0  0
  161.6700  207.8420  152.2260 C   0  0  0  0  0  3  0  0  0  0  0  0
  162.3620  205.5820  147.0330 C   0  0  0  0  0  3  0  0  0  0  0  0
  161.6800  208.2030  150.7890 C   0  0  0  0  0  0  0  0  0  0  0  0
  161.4240  205.5100  151.6000 C   0  0  0  0  0  0  0  0  0  0  0  0
  161.5640  209.6320  150.3910 C   0  0  0  0  0  2  0  0  0  0  0  0
  161.9560  209.7870  149.0010 N   0  0  0  0  0  2  0  0  0  0  0  0
  162.3310  211.1800  148.8260 C   0  0  0  0  0  2  0  0  0  0  0  0
  161.3560  211.8610  147.8860 C   0  0  0  0  0  2  0  0  0  0  0  0
  162.0300  212.7940  147.0960 O   0  0  0  0  0  0  0  0  0  0  0  0
  161.2190  212.9530  145.9730 C   0  0  0  0  0  2  0  0  0  0  0  0
  160.0200  212.2690  146.1650 O   0  0  0  0  0  1  0  0  0  0  0  0
  1 13  1  0  0  0  0
  1  2  1  0  0  0  0
  2 11  1  6  0  0  0
  2 18  1  0  0  0  0
  3  6  1  0  0  0  0
  4  1  2  0  0  0  0
  5 12  1  0  0  0  0
  5  8  2  0  0  0  0
  7  4  1  0  0  0  0
  7 14  2  0  0  0  0
  8  7  1  0  0  0  0
  9 10  1  0  0  0  0
 11 17  2  0  0  0  0
 12 16  2  0  0  0  0
 13  3  2  0  0  0  0
 14 13  1  0  0  0  0
 15  9  2  0  0  0  0
 16  4  1  0  0  0  0
 17 15  1  0  0  0  0
 18  6  2  0  0  0  0
 18  9  1  0  0  0  0
 19 17  1  0  0  0  0
 20 19  1  0  0  0  0
 21 20  1  0  0  0  0
 22 21  1  0  0  0  0
 23 22  1  0  0  0  0
 24 25  1  0  0  0  0
 24 23  1  0  0  0  0
M  END
>  <MODEL>
4

>  <REMARK>
 VINA RESULT:      -8.3      3.729      6.568
  Name = 
  6 active torsions:
  status: ('A' for Active; 'I' for Inactive)
    1  A    between atoms: O_2  and  C_7
    2  A    between atoms: O_2  and  C_25
    3  A    between atoms: C_6  and  N_15
    4  A    between atoms: C_6  and  C_23
    5  A    between atoms: N_15  and  C_21
    6  A    between atoms: C_21  and  C_25
                            x       y       z     vdW  Elec       q    Type
                         _______ _______ _______ _____ _____    ______ ____

>  <TORSDO>
F 6

$$$$
=
 OpenBabel11052422143D

 25 28  0  0  1  0  0  0  0  0999 V2000
  161.4540  207.1470  150.9260 C   0  0  0  0  0  0  0  0  0  0  0  0
  161.8990  205.9970  150.0790 C   0  0  0  0  0  0  0  0  0  0  0  0
  161.7760  208.8130  149.1880 C   0  0  0  0  0  3  0  0  0  0  0  0
  161.2520  207.2620  152.2270 C   0  0  0  0  0  0  0  0  0  0  0  0
  160.8380  208.0320  154.8570 C   0  0  0  0  0  3  0  0  0  0  0  0
  161.9960  207.7040  148.2260 C   0  0  0  0  0  3  0  0  0  0  0  0
  161.1220  208.6100  152.5440 C   0  0  1  0  0  3  0  0  0  0  0  0
  160.9080  209.0200  153.8590 C   0  0  0  0  0  3  0  0  0  0  0  0
  162.0810  205.3170  147.6180 C   0  0  0  0  0  0  0  0  0  0  0  0
  162.6400  205.5380  146.2540 C   0  0  0  0  0  1  0  0  0  0  0  0
  161.0470  204.7670  150.2400 C   0  0  0  0  0  3  0  0  0  0  0  0
  160.9890  206.6690  154.5320 C   0  0  0  0  0  3  0  0  0  0  0  0
  161.4930  208.5060  150.4510 C   0  0  0  0  0  0  0  0  0  0  0  0
  161.2600  209.4100  151.5280 N   0  0  0  0  0  0  0  0  0  0  0  0
  161.5760  204.1190  147.9320 C   0  0  0  0  0  3  0  0  0  0  0  0
  161.2050  206.2690  153.2040 C   0  0  0  0  0  3  0  0  0  0  0  0
  160.9530  203.8670  149.2530 C   0  0  0  0  0  0  0  0  0  0  0  0
  162.0080  206.4080  148.6130 C   0  0  0  0  0  0  0  0  0  0  0  0
  160.1870  202.6110  149.4750 C   0  0  0  0  0  2  0  0  0  0  0  0
  161.0740  201.5780  149.9800 N   0  0  0  0  0  2  0  0  0  0  0  0
  161.2090  200.5900  148.9250 C   0  0  0  0  0  2  0  0  0  0  0  0
  160.4570  201.0500  147.6900 C   0  0  0  0  0  2  0  0  0  0  0  0
  161.2050  200.7670  146.5460 O   0  0  0  0  0  0  0  0  0  0  0  0
  160.8150  201.7370  145.6240 C   0  0  0  0  0  2  0  0  0  0  0  0
  159.7390  201.2620  144.8760 O   0  0  0  0  0  1  0  0  0  0  0  0
  1  4  2  0  0  0  0
  2 11  1  0  0  0  0
  2  1  1  0  0  0  0
  3 13  1  0  0  0  0
  4  7  1  0  0  0  0
  4 16  1  0  0  0  0
  6 18  1  0  0  0  0
  6  3  2  0  0  0  0
  7  8  1  1  0  0  0
  8  5  2  0  0  0  0
  9 15  2  0  0  0  0
  9 18  1  0  0  0  0
 10  9  1  0  0  0  0
 12  5  1  0  0  0  0
 13  1  1  0  0  0  0
 13 14  2  0  0  0  0
 14  7  1  0  0  0  0
 15 17  1  0  0  0  0
 16 12  2  0  0  0  0
 17 19  1  0  0  0  0
 17 11  2  0  0  0  0
 18  2  2  0  0  0  0
 19 20  1  0  0  0  0
 21 20  1  0  0  0  0
 22 21  1  0  0  0  0
 23 22  1  0  0  0  0
 24 23  1  0  0  0  0
 25 24  1  0  0  0  0
M  END
>  <MODEL>
5

>  <REMARK>
 VINA RESULT:      -8.1      1.945      3.590
  Name = 
  6 active torsions:
  status: ('A' for Active; 'I' for Inactive)
    1  A    between atoms: O_2  and  C_7
    2  A    between atoms: O_2  and  C_25
    3  A    between atoms: C_6  and  N_15
    4  A    between atoms: C_6  and  C_23
    5  A    between atoms: N_15  and  C_21
    6  A    between atoms: C_21  and  C_25
                            x       y       z     vdW  Elec       q    Type
                         _______ _______ _______ _____ _____    ______ ____

>  <TORSDO>
F 6

$$$$
=
 OpenBabel11052422143D

 25 28  0  0  1  0  0  0  0  0999 V2000
  161.4030  204.7730  149.2000 C   0  0  0  0  0  0  0  0  0  0  0  0
  161.8560  205.6890  150.2940 C   0  0  1  0  0  3  0  0  0  0  0  0
  160.5410  203.0730  150.7060 C   0  0  0  0  0  3  0  0  0  0  0  0
  161.6510  204.7540  147.9030 C   0  0  0  0  0  0  0  0  0  0  0  0
  161.9790  204.2110  145.2050 C   0  0  0  0  0  3  0  0  0  0  0  0
  160.7430  204.0260  151.8270 C   0  0  0  0  0  3  0  0  0  0  0  0
  161.2230  203.5370  147.3820 C   0  0  0  0  0  0  0  0  0  0  0  0
  161.3740  203.2450  146.0280 C   0  0  0  0  0  3  0  0  0  0  0  0
  161.3560  206.2290  152.7450 C   0  0  0  0  0  0  0  0  0  0  0  0
  161.2930  205.8090  154.1740 C   0  0  0  0  0  1  0  0  0  0  0  0
  161.5530  207.1390  150.0290 C   0  0  0  0  0  3  0  0  0  0  0  0
  162.4270  205.4340  145.7420 C   0  0  0  0  0  3  0  0  0  0  0  0
  160.8380  203.4770  149.4740 C   0  0  0  0  0  0  0  0  0  0  0  0
  160.7310  202.7240  148.2690 N   0  0  0  0  0  0  0  0  0  0  0  0
  161.4020  207.5320  152.4470 C   0  0  0  0  0  3  0  0  0  0  0  0
  162.2710  205.7170  147.1080 C   0  0  0  0  0  3  0  0  0  0  0  0
  161.4030  208.0010  151.0420 C   0  0  0  0  0  0  0  0  0  0  0  0
  161.3000  205.2440  151.6440 C   0  0  0  0  0  0  0  0  0  0  0  0
  161.2050  209.4470  150.7510 C   0  0  0  0  0  2  0  0  0  0  0  0
  161.6300  210.2400  151.8920 N   0  0  0  0  0  2  0  0  0  0  0  0
  160.4550  210.9440  152.3720 C   0  0  0  0  0  2  0  0  0  0  0  0
  160.6830  211.4140  153.7970 C   0  0  0  0  0  2  0  0  0  0  0  0
  161.1020  210.3440  154.5890 O   0  0  0  0  0  0  0  0  0  0  0  0
  161.4630  210.9270  155.8020 C   0  0  0  0  0  2  0  0  0  0  0  0
  162.8050  210.6580  156.0650 O   0  0  0  0  0  1  0  0  0  0  0  0
  1 13  1  0  0  0  0
  1  2  1  0  0  0  0
  2 11  1  6  0  0  0
  2 18  1  0  0  0  0
  3  6  1  0  0  0  0
  4  1  2  0  0  0  0
  5 12  1  0  0  0  0
  5  8  2  0  0  0  0
  7  4  1  0  0  0  0
  7 14  2  0  0  0  0
  8  7  1  0  0  0  0
  9 10  1  0  0  0  0
 11 17  2  0  0  0  0
 12 16  2  0  0  0  0
 13  3  2  0  0  0  0
 14 13  1  0  0  0  0
 15  9  2  0  0  0  0
 16  4  1  0  0  0  0
 17 15  1  0  0  0  0
 18  6  2  0  0  0  0
 18  9  1  0  0  0  0
 19 17  1  0  0  0  0
 19 20  1  0  0  0  0
 20 21  1  0  0  0  0
 21 22  1  0  0  0  0
 22 23  1  0  0  0  0
 23 24  1  0  0  0  0
 24 25  1  0  0  0  0
M  END
>  <MODEL>
6

>  <REMARK>
 VINA RESULT:      -8.1      4.026      7.579
  Name = 
  6 active torsions:
  status: ('A' for Active; 'I' for Inactive)
    1  A    between atoms: O_2  and  C_7
    2  A    between atoms: O_2  and  C_25
    3  A    between atoms: C_6  and  N_15
    4  A    between atoms: C_6  and  C_23
    5  A    between atoms: N_15  and  C_21
    6  A    between atoms: C_21  and  C_25
                            x       y       z     vdW  Elec       q    Type
                         _______ _______ _______ _____ _____    ______ ____

>  <TORSDO>
F 6

$$$$
=
 OpenBabel11052422143D

 25 28  0  0  0  0  0  0  0  0999 V2000
  160.9000  207.9670  152.8020 C   0  0  0  0  0  0  0  0  0  0  0  0
  160.6040  207.1130  151.6090 C   0  0  0  0  0  0  0  0  0  0  0  0
  161.2540  206.0940  154.3080 C   0  0  0  0  0  3  0  0  0  0  0  0
  160.7340  209.2580  153.0290 C   0  0  0  0  0  0  0  0  0  0  0  0
  160.4550  211.8300  154.0230 C   0  0  0  0  0  3  0  0  0  0  0  0
  161.2090  205.1930  153.1280 C   0  0  0  0  0  3  0  0  0  0  0  0
  160.9010  209.4990  154.3890 C   0  0  0  0  0  0  0  0  0  0  0  0
  160.7700  210.7860  154.9090 C   0  0  0  0  0  3  0  0  0  0  0  0
  161.0640  204.7630  150.7060 C   0  0  0  0  0  0  0  0  0  0  0  0
  160.9420  203.2830  150.8320 C   0  0  0  0  0  1  0  0  0  0  0  0
  161.2490  207.6060  150.3420 C   0  0  0  0  0  2  0  0  0  0  0  0
  160.2690  211.5760  152.6490 C   0  0  0  0  0  3  0  0  0  0  0  0
  161.1340  207.4040  154.1060 C   0  0  0  0  0  0  0  0  0  0  0  0
  161.1380  208.4320  155.0920 N   0  0  0  0  0  0  0  0  0  0  0  0
  161.3380  205.2980  149.5100 C   0  0  0  0  0  3  0  0  0  0  0  0
  160.4020  210.2760  152.1370 C   0  0  0  0  0  3  0  0  0  0  0  0
  161.5310  206.7570  149.3450 C   0  0  0  0  0  0  0  0  0  0  0  0
  160.9590  205.6540  151.8810 C   0  0  0  0  0  0  0  0  0  0  0  0
  162.0740  207.2860  148.0640 C   0  0  0  0  0  2  0  0  0  0  0  0
  161.2810  206.7880  146.9530 N   0  0  0  0  0  2  0  0  0  0  0  0
  162.1780  206.0130  146.1140 C   0  0  0  0  0  2  0  0  0  0  0  0
  161.3860  204.9900  145.3210 C   0  0  0  0  0  2  0  0  0  0  0  0
  162.1010  203.7940  145.2410 O   0  0  0  0  0  0  0  0  0  0  0  0
  161.2060  202.8210  145.6810 C   0  0  0  0  0  2  0  0  0  0  0  0
  161.2020  202.7890  147.0740 O   0  0  0  0  0  1  0  0  0  0  0  0
  1  4  1  0  0  0  0
  1 13  1  0  0  0  0
  2 18  1  0  0  0  0
  2  1  2  0  0  0  0
  4  7  1  0  0  0  0
  5  8  1  0  0  0  0
  6  3  2  0  0  0  0
  7  8  2  0  0  0  0
  7 14  1  0  0  0  0
  9 10  1  0  0  0  0
  9 18  2  0  0  0  0
 11  2  1  0  0  0  0
 12  5  2  0  0  0  0
 13  3  1  0  0  0  0
 13 14  2  0  0  0  0
 15  9  1  0  0  0  0
 16 12  1  0  0  0  0
 16  4  2  0  0  0  0
 17 15  2  0  0  0  0
 17 11  1  0  0  0  0
 18  6  1  0  0  0  0
 19 17  1  0  0  0  0
 20 19  1  0  0  0  0
 21 20  1  0  0  0  0
 22 21  1  0  0  0  0
 23 22  1  0  0  0  0
 23 24  1  0  0  0  0
 24 25  1  0  0  0  0
M  END
>  <MODEL>
7

>  <REMARK>
 VINA RESULT:      -8.0      1.552      2.419
  Name = 
  6 active torsions:
  status: ('A' for Active; 'I' for Inactive)
    1  A    between atoms: O_2  and  C_7
    2  A    between atoms: O_2  and  C_25
    3  A    between atoms: C_6  and  N_15
    4  A    between atoms: C_6  and  C_23
    5  A    between atoms: N_15  and  C_21
    6  A    between atoms: C_21  and  C_25
                            x       y       z     vdW  Elec       q    Type
                         _______ _______ _______ _____ _____    ______ ____

>  <TORSDO>
F 6

$$$$
=
 OpenBabel11052422143D

 25 28  0  0  0  0  0  0  0  0999 V2000
  161.1600  205.2080  150.8230 C   0  0  0  0  0  0  0  0  0  0  0  0
  160.8630  204.6210  149.4790 C   0  0  0  0  0  0  0  0  0  0  0  0
  160.9770  203.0970  152.0100 C   0  0  0  0  0  3  0  0  0  0  0  0
  161.2050  206.4560  151.2530 C   0  0  0  0  0  0  0  0  0  0  0  0
  161.2790  208.8520  152.6450 C   0  0  0  0  0  3  0  0  0  0  0  0
  160.9150  202.4120  150.6930 C   0  0  0  0  0  3  0  0  0  0  0  0
  161.2440  206.4510  152.6440 C   0  0  0  0  0  0  0  0  0  0  0  0
  161.2860  207.6440  153.3630 C   0  0  0  0  0  3  0  0  0  0  0  0
  160.9950  202.3910  148.2300 C   0  0  0  0  0  0  0  0  0  0  0  0
  160.5910  200.9630  148.0880 C   0  0  0  0  0  1  0  0  0  0  0  0
  161.7380  205.1610  148.3800 C   0  0  0  0  0  2  0  0  0  0  0  0
  161.2200  208.8510  151.2360 C   0  0  0  0  0  3  0  0  0  0  0  0
  161.1230  204.4190  152.0270 C   0  0  0  0  0  0  0  0  0  0  0  0
  161.1930  205.2640  153.1710 N   0  0  0  0  0  0  0  0  0  0  0  0
  161.5080  203.0340  147.1750 C   0  0  0  0  0  3  0  0  0  0  0  0
  161.1770  207.6430  150.5220 C   0  0  0  0  0  3  0  0  0  0  0  0
  161.9820  204.4340  147.2830 C   0  0  0  0  0  0  0  0  0  0  0  0
  160.9090  203.0960  149.5260 C   0  0  0  0  0  0  0  0  0  0  0  0
  162.7660  205.0300  146.1680 C   0  0  0  0  0  2  0  0  0  0  0  0
  162.2930  204.5040  144.8990 N   0  0  0  0  0  2  0  0  0  0  0  0
  161.0270  205.1590  144.6210 C   0  0  0  0  0  2  0  0  0  0  0  0
  161.2080  206.1830  143.5160 C   0  0  0  0  0  2  0  0  0  0  0  0
  161.9620  205.6330  142.4780 O   0  0  0  0  0  0  0  0  0  0  0  0
  161.8950  206.5800  141.4570 C   0  0  0  0  0  2  0  0  0  0  0  0
  162.7140  206.1830  140.4020 O   0  0  0  0  0  1  0  0  0  0  0  0
  1  4  1  0  0  0  0
  1 13  1  0  0  0  0
  2 18  1  0  0  0  0
  2  1  2  0  0  0  0
  3 13  1  0  0  0  0
  4  7  1  0  0  0  0
  5  8  1  0  0  0  0
  6  3  2  0  0  0  0
  7 14  1  0  0  0  0
  7  8  2  0  0  0  0
  9 18  2  0  0  0  0
 10  9  1  0  0  0  0
 11  2  1  0  0  0  0
 12  5  2  0  0  0  0
 13 14  2  0  0  0  0
 15 17  2  0  0  0  0
 15  9  1  0  0  0  0
 16 12  1  0  0  0  0
 16  4  2  0  0  0  0
 17 11  1  0  0  0  0
 18  6  1  0  0  0  0
 19 17  1  0  0  0  0
 20 19  1  0  0  0  0
 21 20  1  0  0  0  0
 22 21  1  0  0  0  0
 23 22  1  0  0  0  0
 24 23  1  0  0  0  0
 25 24  1  0  0  0  0
M  END
>  <MODEL>
8

>  <REMARK>
 VINA RESULT:      -8.0      1.732      2.236
  Name = 
  6 active torsions:
  status: ('A' for Active; 'I' for Inactive)
    1  A    between atoms: O_2  and  C_7
    2  A    between atoms: O_2  and  C_25
    3  A    between atoms: C_6  and  N_15
    4  A    between atoms: C_6  and  C_23
    5  A    between atoms: N_15  and  C_21
    6  A    between atoms: C_21  and  C_25
                            x       y       z     vdW  Elec       q    Type
                         _______ _______ _______ _____ _____    ______ ____

>  <TORSDO>
F 6

$$$$
=
 OpenBabel11052422143D

 25 28  0  0  1  0  0  0  0  0999 V2000
  161.2810  206.0240  150.7750 C   0  0  0  0  0  0  0  0  0  0  0  0
  161.6320  207.0710  151.7840 C   0  0  1  0  0  3  0  0  0  0  0  0
  160.8190  204.3020  152.4240 C   0  0  0  0  0  3  0  0  0  0  0  0
  161.4510  205.9640  149.4660 C   0  0  0  0  0  0  0  0  0  0  0  0
  161.7080  205.3140  146.7840 C   0  0  0  0  0  3  0  0  0  0  0  0
  160.9180  205.3440  153.4760 C   0  0  0  0  0  3  0  0  0  0  0  0
  161.2120  204.6610  149.0410 C   0  0  0  0  0  0  0  0  0  0  0  0
  161.3300  204.3130  147.6970 C   0  0  0  0  0  3  0  0  0  0  0  0
  161.1920  207.6740  154.2320 C   0  0  0  0  0  0  0  0  0  0  0  0
  161.2870  207.3420  155.6820 C   0  0  0  0  0  1  0  0  0  0  0  0
  161.0660  208.4290  151.4640 C   0  0  0  0  0  3  0  0  0  0  0  0
  161.9680  206.6270  147.2230 C   0  0  0  0  0  3  0  0  0  0  0  0
  160.9680  204.6710  151.1540 C   0  0  0  0  0  0  0  0  0  0  0  0
  160.9220  203.8350  150.0020 N   0  0  0  0  0  0  0  0  0  0  0  0
  160.9920  208.9450  153.8630 C   0  0  0  0  0  3  0  0  0  0  0  0
  161.8460  206.9660  148.5800 C   0  0  0  0  0  3  0  0  0  0  0  0
  160.8290  209.3160  152.4390 C   0  0  0  0  0  0  0  0  0  0  0  0
  161.2430  206.6260  153.1910 C   0  0  0  0  0  0  0  0  0  0  0  0
  160.3650  210.6850  152.0860 C   0  0  0  0  0  2  0  0  0  0  0  0
  159.1080  210.9660  152.7570 N   0  0  0  0  0  2  0  0  0  0  0  0
  159.2670  212.2470  153.4230 C   0  0  0  0  0  2  0  0  0  0  0  0
  159.1520  212.0640  154.9250 C   0  0  0  0  0  2  0  0  0  0  0  0
  158.0900  211.2080  155.2190 O   0  0  0  0  0  0  0  0  0  0  0  0
  157.0180  212.0580  155.4870 C   0  0  0  0  0  2  0  0  0  0  0  0
  155.9500  211.7370  154.6520 O   0  0  0  0  0  1  0  0  0  0  0  0
  1 13  1  0  0  0  0
  1  2  1  0  0  0  0
  2 11  1  6  0  0  0
  2 18  1  0  0  0  0
  3  6  1  0  0  0  0
  4  1  2  0  0  0  0
  5 12  1  0  0  0  0
  5  8  2  0  0  0  0
  7  4  1  0  0  0  0
  7 14  2  0  0  0  0
  8  7  1  0  0  0  0
  9 10  1  0  0  0  0
 11 17  2  0  0  0  0
 12 16  2  0  0  0  0
 13  3  2  0  0  0  0
 14 13  1  0  0  0  0
 15  9  2  0  0  0  0
 16  4  1  0  0  0  0
 17 15  1  0  0  0  0
 18  6  2  0  0  0  0
 18  9  1  0  0  0  0
 19 17  1  0  0  0  0
 19 20  1  0  0  0  0
 20 21  1  0  0  0  0
 21 22  1  0  0  0  0
 22 23  1  0  0  0  0
 23 24  1  0  0  0  0
 25 24  1  0  0  0  0
M  END
>  <MODEL>
9

>  <REMARK>
 VINA RESULT:      -7.9      4.433      7.932
  Name = 
  6 active torsions:
  status: ('A' for Active; 'I' for Inactive)
    1  A    between atoms: O_2  and  C_7
    2  A    between atoms: O_2  and  C_25
    3  A    between atoms: C_6  and  N_15
    4  A    between atoms: C_6  and  C_23
    5  A    between atoms: N_15  and  C_21
    6  A    between atoms: C_21  and  C_25
                            x       y       z     vdW  Elec       q    Type
                         _______ _______ _______ _____ _____    ______ ____

>  <TORSDO>
F 6

$$$$
