=
 OpenBabel11062408193D

 32 35  0  0  1  0  0  0  0  0999 V2000
  160.0470  210.4730  154.5350 C   0  0  1  0  0  3  0  0  0  0  0  0
  160.0890  209.7380  151.9990 C   0  0  0  0  0  2  0  0  0  0  0  0
  160.1430  209.9380  155.9630 C   0  0  0  0  0  2  0  0  0  0  0  0
  160.5810  209.5270  153.4210 C   0  0  2  0  0  0  0  0  0  0  0  0
  161.0620  207.1470  151.4180 C   0  0  0  0  0  2  0  0  0  0  0  0
  162.7010  208.9200  150.7340 N   0  0  0  0  0  0  0  0  0  0  0  0
  161.2730  208.1670  153.7920 C   0  0  2  0  0  3  0  0  0  0  0  0
  162.5030  207.4950  151.0440 C   0  0  0  0  0  2  0  0  0  0  0  0
  160.8600  206.9460  152.9270 C   0  0  2  0  0  3  0  0  0  0  0  0
  161.1730  207.8330  155.2840 C   0  0  0  0  0  2  0  0  0  0  0  0
  161.3920  210.3880  152.4300 C   0  0  1  0  0  3  0  0  0  0  0  0
  161.3620  209.0620  156.1470 C   0  0  0  0  0  2  0  0  0  0  0  0
  162.7160  209.7210  151.9730 C   0  0  0  0  0  2  0  0  0  0  0  0
  160.5970  204.5480  153.3650 N   0  0  0  0  0  2  0  0  0  0  0  0
  161.5700  204.6840  152.2750 C   0  0  0  0  0  2  0  0  0  0  0  0
  161.5630  205.6580  153.3650 C   0  0  1  0  0  3  0  0  0  0  0  0
  162.0750  210.9340  149.4600 C   0  0  0  0  0  1  0  0  0  0  0  0
  161.8490  209.4390  149.6460 C   0  0  1  0  0  3  0  0  0  0  0  0
  161.1970  207.5860  148.1030 C   0  0  0  0  0  1  0  0  0  0  0  0
  162.1590  208.7380  148.3270 C   0  0  0  0  0  2  0  0  0  0  0  0
  157.7390  210.7360  155.4330 C   0  0  0  0  0  1  0  0  0  0  0  0
  158.6740  211.1340  154.2950 C   0  0  1  0  0  3  0  0  0  0  0  0
  158.7440  212.6060  154.1170 N   0  0  0  0  0  0  0  0  0  0  0  0
  157.4200  214.4530  155.0880 C   0  0  0  0  0  1  0  0  0  0  0  0
  158.4210  213.3440  155.3530 C   0  0  2  0  0  3  0  0  0  0  0  0
  159.5620  213.8440  155.9910 O   0  0  0  0  0  1  0  0  0  0  0  0
  157.7430  213.0110  153.1300 C   0  0  0  0  0  2  0  0  0  0  0  0
  158.3300  213.0260  151.7160 C   0  0  1  0  0  3  0  0  0  0  0  0
  157.4300  213.7500  150.7230 C   0  0  0  0  0  2  0  0  0  0  0  0
  157.0400  212.8820  149.7210 F   0  0  0  0  0  0  0  0  0  0  0  0
  160.1430  214.1190  150.0830 S   0  0  0  0  0  1  0  0  0  0  0  0
  159.6930  213.5600  151.7070 N   0  0  0  0  0  2  0  0  0  0  0  0
  1 22  1  6  0  0  0
  1  3  1  0  0  0  0
  2 11  1  0  0  0  0
  3 12  1  0  0  0  0
  4  2  1  6  0  0  0
  4  7  1  0  0  0  0
  4  1  1  0  0  0  0
  6  8  1  0  0  0  0
  6 13  1  0  0  0  0
  7 10  1  1  0  0  0
  8  5  1  0  0  0  0
  9  5  1  6  0  0  0
  9 16  1  0  0  0  0
  9  7  1  0  0  0  0
 10 12  1  0  0  0  0
 11 13  1  6  0  0  0
 11  4  1  0  0  0  0
 14 16  1  0  0  0  0
 15 14  1  0  0  0  0
 16 15  1  6  0  0  0
 18 17  1  6  0  0  0
 18  6  1  0  0  0  0
 19 20  1  0  0  0  0
 20 18  1  0  0  0  0
 22 21  1  1  0  0  0
 23 22  1  0  0  0  0
 23 25  1  0  0  0  0
 25 24  1  6  0  0  0
 25 26  1  0  0  0  0
 27 23  1  0  0  0  0
 28 29  1  6  0  0  0
 28 27  1  0  0  0  0
 30 29  1  0  0  0  0
 31 32  1  0  0  0  0
 32 28  1  0  0  0  0
M  END
>  <MODEL>
1

>  <REMARK>
 VINA RESULT:      -4.7      0.000      0.000
  Name = 
  10 active torsions:
  status: ('A' for Active; 'I' for Inactive)
    1  A    between atoms: C_1  and  C_27
    2  A    between atoms: C_3  and  C_7
    3  A    between atoms: C_7  and  C_20
    4  A    between atoms: C_7  and  N_26
    5  A    between atoms: N_10  and  C_12
    6  A    between atoms: C_12  and  C_31
    7  A    between atoms: N_16  and  C_20
    8  A    between atoms: N_16  and  C_22
    9  A    between atoms: N_16  and  C_27
   10  A    between atoms: C_18  and  C_29
                            x       y       z     vdW  Elec       q    Type
                         _______ _______ _______ _____ _____    ______ ____

>  <TORSDO>
F 10

$$$$
=
 OpenBabel11062408193D

 32 35  0  0  1  0  0  0  0  0999 V2000
  161.1940  209.5060  152.1000 C   0  0  1  0  0  3  0  0  0  0  0  0
  159.1560  210.1620  153.6470 C   0  0  0  0  0  2  0  0  0  0  0  0
  161.8820  209.8430  150.7780 C   0  0  0  0  0  2  0  0  0  0  0  0
  160.2240  210.5890  152.6540 C   0  0  2  0  0  0  0  0  0  0  0  0
  157.8560  212.6140  153.1050 C   0  0  0  0  0  2  0  0  0  0  0  0
  159.2390  212.7470  155.1960 N   0  0  0  0  0  0  0  0  0  0  0  0
  160.0780  211.9750  151.9310 C   0  0  2  0  0  3  0  0  0  0  0  0
  158.5540  213.5030  154.1350 C   0  0  0  0  0  2  0  0  0  0  0  0
  158.6260  212.5040  151.7800 C   0  0  2  0  0  3  0  0  0  0  0  0
  160.8150  212.0290  150.5890 C   0  0  0  0  0  2  0  0  0  0  0  0
  160.4730  210.7030  154.1720 C   0  0  1  0  0  3  0  0  0  0  0  0
  162.1530  211.3260  150.6570 C   0  0  0  0  0  2  0  0  0  0  0  0
  160.4960  212.1680  154.6860 C   0  0  0  0  0  2  0  0  0  0  0  0
  157.8600  213.6790  149.7690 N   0  0  0  0  0  2  0  0  0  0  0  0
  157.1840  214.2980  150.9160 C   0  0  0  0  0  2  0  0  0  0  0  0
  158.5680  213.8470  151.0480 C   0  0  1  0  0  3  0  0  0  0  0  0
  159.0640  211.3790  157.2370 C   0  0  0  0  0  1  0  0  0  0  0  0
  158.3710  211.8270  155.9560 C   0  0  1  0  0  3  0  0  0  0  0  0
  155.8990  211.5350  156.1550 C   0  0  0  0  0  1  0  0  0  0  0  0
  157.0560  212.5010  156.3310 C   0  0  0  0  0  2  0  0  0  0  0  0
  160.6770  207.5490  150.6510 C   0  0  0  0  0  1  0  0  0  0  0  0
  160.6870  208.0490  152.0910 C   0  0  1  0  0  3  0  0  0  0  0  0
  161.4460  207.1480  152.9930 N   0  0  0  0  0  0  0  0  0  0  0  0
  161.2480  204.6860  152.8890 C   0  0  0  0  0  1  0  0  0  0  0  0
  161.9110  205.9240  152.3130 C   0  0  2  0  0  3  0  0  0  0  0  0
  163.3050  205.7970  152.3320 O   0  0  0  0  0  1  0  0  0  0  0  0
  160.5640  206.7020  154.0710 C   0  0  0  0  0  2  0  0  0  0  0  0
  160.6310  207.6460  155.2720 C   0  0  1  0  0  3  0  0  0  0  0  0
  159.7400  207.1900  156.4200 C   0  0  0  0  0  2  0  0  0  0  0  0
  158.5500  206.6940  155.9240 F   0  0  0  0  0  0  0  0  0  0  0  0
  162.0750  208.9810  157.0850 S   0  0  0  0  0  1  0  0  0  0  0  0
  162.0130  207.8630  155.7070 N   0  0  0  0  0  2  0  0  0  0  0  0
  1 22  1  6  0  0  0
  1  4  1  0  0  0  0
  3  1  1  0  0  0  0
  4  2  1  6  0  0  0
  4 11  1  0  0  0  0
  5  8  1  0  0  0  0
  6 18  1  0  0  0  0
  7 10  1  6  0  0  0
  7  4  1  0  0  0  0
  8  6  1  0  0  0  0
  9  7  1  0  0  0  0
  9  5  1  1  0  0  0
 10 12  1  0  0  0  0
 11  2  1  1  0  0  0
 11 13  1  0  0  0  0
 12  3  1  0  0  0  0
 13  6  1  0  0  0  0
 14 15  1  0  0  0  0
 14 16  1  0  0  0  0
 16 15  1  1  0  0  0
 16  9  1  0  0  0  0
 18 20  1  0  0  0  0
 18 17  1  1  0  0  0
 19 20  1  0  0  0  0
 22 21  1  6  0  0  0
 22 23  1  0  0  0  0
 23 27  1  0  0  0  0
 25 26  1  0  0  0  0
 25 24  1  1  0  0  0
 25 23  1  0  0  0  0
 28 27  1  6  0  0  0
 28 32  1  0  0  0  0
 28 29  1  0  0  0  0
 30 29  1  0  0  0  0
 32 31  1  0  0  0  0
M  END
>  <MODEL>
2

>  <REMARK>
 VINA RESULT:      -3.9      3.219      7.412
  Name = 
  10 active torsions:
  status: ('A' for Active; 'I' for Inactive)
    1  A    between atoms: C_1  and  C_27
    2  A    between atoms: C_3  and  C_7
    3  A    between atoms: C_7  and  C_20
    4  A    between atoms: C_7  and  N_26
    5  A    between atoms: N_10  and  C_12
    6  A    between atoms: C_12  and  C_31
    7  A    between atoms: N_16  and  C_20
    8  A    between atoms: N_16  and  C_22
    9  A    between atoms: N_16  and  C_27
   10  A    between atoms: C_18  and  C_29
                            x       y       z     vdW  Elec       q    Type
                         _______ _______ _______ _____ _____    ______ ____

>  <TORSDO>
F 10

$$$$
=
 OpenBabel11062408193D

 32 35  0  0  1  0  0  0  0  0999 V2000
  161.4630  208.4130  150.9310 C   0  0  1  0  0  3  0  0  0  0  0  0
  159.7850  209.0960  152.8530 C   0  0  0  0  0  2  0  0  0  0  0  0
  162.1270  208.9200  149.6520 C   0  0  0  0  0  2  0  0  0  0  0  0
  160.8610  209.5060  151.8600 C   0  0  2  0  0  0  0  0  0  0  0  0
  159.1620  211.8420  153.1120 C   0  0  0  0  0  2  0  0  0  0  0  0
  160.6660  211.0610  154.9640 N   0  0  0  0  0  0  0  0  0  0  0  0
  161.0450  211.0290  151.5260 C   0  0  2  0  0  3  0  0  0  0  0  0
  160.1400  212.2200  154.2240 C   0  0  0  0  0  2  0  0  0  0  0  0
  159.7830  211.9140  151.7090 C   0  0  2  0  0  3  0  0  0  0  0  0
  161.6790  211.2660  150.1520 C   0  0  0  0  0  2  0  0  0  0  0  0
  161.2320  209.1370  153.3120 C   0  0  1  0  0  3  0  0  0  0  0  0
  162.7790  210.2680  149.8630 C   0  0  0  0  0  2  0  0  0  0  0  0
  161.6830  210.3550  154.1610 C   0  0  0  0  0  2  0  0  0  0  0  0
  159.2300  213.7420  150.1720 N   0  0  0  0  0  2  0  0  0  0  0  0
  158.8240  214.1690  151.5160 C   0  0  0  0  0  2  0  0  0  0  0  0
  160.0410  213.3780  151.3440 C   0  0  1  0  0  3  0  0  0  0  0  0
  160.2710  209.2400  156.5760 C   0  0  0  0  0  1  0  0  0  0  0  0
  159.6340  210.2070  155.5850 C   0  0  1  0  0  3  0  0  0  0  0  0
  157.2180  210.8160  155.7550 C   0  0  0  0  0  1  0  0  0  0  0  0
  158.6030  211.0490  156.3290 C   0  0  0  0  0  2  0  0  0  0  0  0
  160.5170  206.9870  149.1220 C   0  0  0  0  0  1  0  0  0  0  0  0
  160.5830  207.1810  150.6330 C   0  0  1  0  0  3  0  0  0  0  0  0
  161.0200  205.9510  151.3380 N   0  0  0  0  0  0  0  0  0  0  0  0
  163.3560  205.6600  152.0910 C   0  0  0  0  0  1  0  0  0  0  0  0
  161.9870  206.2270  152.4170 C   0  0  2  0  0  3  0  0  0  0  0  0
  161.5420  205.7700  153.6640 O   0  0  0  0  0  1  0  0  0  0  0  0
  161.7130  205.0810  150.3870 C   0  0  0  0  0  2  0  0  0  0  0  0
  160.8380  203.8940  149.9790 C   0  0  1  0  0  3  0  0  0  0  0  0
  161.1820  203.3710  148.5900 C   0  0  0  0  0  2  0  0  0  0  0  0
  161.8690  204.3350  147.8790 F   0  0  0  0  0  0  0  0  0  0  0  0
  160.8570  201.2310  150.2190 S   0  0  0  0  0  1  0  0  0  0  0  0
  160.8720  202.8320  150.9860 N   0  0  0  0  0  2  0  0  0  0  0  0
  1 22  1  6  0  0  0
  1  4  1  0  0  0  0
  3 12  1  0  0  0  0
  3  1  1  0  0  0  0
  4  2  1  6  0  0  0
  4 11  1  0  0  0  0
  5  8  1  0  0  0  0
  6 18  1  0  0  0  0
  7 10  1  6  0  0  0
  7  9  1  0  0  0  0
  7  4  1  0  0  0  0
  8  6  1  0  0  0  0
  9  5  1  1  0  0  0
 11  2  1  1  0  0  0
 11 13  1  0  0  0  0
 12 10  1  0  0  0  0
 13  6  1  0  0  0  0
 14 16  1  0  0  0  0
 14 15  1  0  0  0  0
 16 15  1  1  0  0  0
 16  9  1  0  0  0  0
 18 20  1  0  0  0  0
 18 17  1  1  0  0  0
 19 20  1  0  0  0  0
 22 21  1  6  0  0  0
 22 23  1  0  0  0  0
 23 25  1  0  0  0  0
 25 24  1  6  0  0  0
 25 26  1  0  0  0  0
 27 23  1  0  0  0  0
 28 29  1  6  0  0  0
 28 27  1  0  0  0  0
 28 32  1  0  0  0  0
 30 29  1  0  0  0  0
 31 32  1  0  0  0  0
M  END
>  <MODEL>
3

>  <REMARK>
 VINA RESULT:      -3.8      3.650      7.756
  Name = 
  10 active torsions:
  status: ('A' for Active; 'I' for Inactive)
    1  A    between atoms: C_1  and  C_27
    2  A    between atoms: C_3  and  C_7
    3  A    between atoms: C_7  and  C_20
    4  A    between atoms: C_7  and  N_26
    5  A    between atoms: N_10  and  C_12
    6  A    between atoms: C_12  and  C_31
    7  A    between atoms: N_16  and  C_20
    8  A    between atoms: N_16  and  C_22
    9  A    between atoms: N_16  and  C_27
   10  A    between atoms: C_18  and  C_29
                            x       y       z     vdW  Elec       q    Type
                         _______ _______ _______ _____ _____    ______ ____

>  <TORSDO>
F 10

$$$$
=
 OpenBabel11062408193D

 32 35  0  0  1  0  0  0  0  0999 V2000
  161.7580  207.9410  149.7340 C   0  0  1  0  0  3  0  0  0  0  0  0
  160.4270  208.2150  151.9980 C   0  0  0  0  0  2  0  0  0  0  0  0
  162.1780  208.6840  148.4670 C   0  0  0  0  0  2  0  0  0  0  0  0
  161.3040  208.8350  150.9240 C   0  0  2  0  0  0  0  0  0  0  0  0
  159.8020  210.8460  152.8230 C   0  0  0  0  0  2  0  0  0  0  0  0
  161.6210  209.8470  154.2350 N   0  0  0  0  0  0  0  0  0  0  0  0
  161.3970  210.4000  150.8280 C   0  0  2  0  0  3  0  0  0  0  0  0
  160.9510  211.0850  153.8030 C   0  0  0  0  0  2  0  0  0  0  0  0
  160.1680  211.1790  151.3690 C   0  0  2  0  0  3  0  0  0  0  0  0
  161.7760  210.8910  149.4270 C   0  0  0  0  0  2  0  0  0  0  0  0
  161.9300  208.2520  152.2080 C   0  0  1  0  0  3  0  0  0  0  0  0
  162.8290  210.0100  148.7920 C   0  0  0  0  0  2  0  0  0  0  0  0
  162.4970  209.3340  153.1650 C   0  0  0  0  0  2  0  0  0  0  0  0
  159.2890  213.2120  150.3160 N   0  0  0  0  0  2  0  0  0  0  0  0
  159.1640  213.3870  151.7680 C   0  0  0  0  0  2  0  0  0  0  0  0
  160.3280  212.6940  151.2210 C   0  0  1  0  0  3  0  0  0  0  0  0
  161.5470  207.8280  155.6450 C   0  0  0  0  0  1  0  0  0  0  0  0
  160.7310  208.8530  154.8660 C   0  0  1  0  0  3  0  0  0  0  0  0
  160.0730  209.1310  157.2590 C   0  0  0  0  0  1  0  0  0  0  0  0
  159.7570  209.5240  155.8280 C   0  0  0  0  0  2  0  0  0  0  0  0
  160.0610  207.0730  148.1330 C   0  0  0  0  0  1  0  0  0  0  0  0
  160.8650  206.7330  149.3830 C   0  0  1  0  0  3  0  0  0  0  0  0
  161.6120  205.4600  149.2400 N   0  0  0  0  0  0  0  0  0  0  0  0
  161.5360  203.4920  147.7470 C   0  0  0  0  0  1  0  0  0  0  0  0
  161.6860  204.9980  147.8400 C   0  0  2  0  0  3  0  0  0  0  0  0
  162.8560  205.4240  147.1980 O   0  0  0  0  0  1  0  0  0  0  0  0
  160.9070  204.4100  149.9750 C   0  0  0  0  0  2  0  0  0  0  0  0
  161.5740  204.1300  151.3230 C   0  0  1  0  0  3  0  0  0  0  0  0
  160.7760  204.6910  152.4930 C   0  0  0  0  0  2  0  0  0  0  0  0
  161.6350  205.1770  153.4600 F   0  0  0  0  0  0  0  0  0  0  0  0
  160.7870  201.7180  150.4790 S   0  0  0  0  0  1  0  0  0  0  0  0
  161.8610  202.7040  151.4920 N   0  0  0  0  0  2  0  0  0  0  0  0
  1 22  1  6  0  0  0
  1  4  1  0  0  0  0
  3 12  1  0  0  0  0
  3  1  1  0  0  0  0
  4  2  1  1  0  0  0
  4 11  1  0  0  0  0
  5  8  1  0  0  0  0
  6 18  1  0  0  0  0
  7 10  1  6  0  0  0
  7  4  1  0  0  0  0
  7  9  1  0  0  0  0
  8  6  1  0  0  0  0
  9  5  1  1  0  0  0
 11  2  1  1  0  0  0
 11 13  1  0  0  0  0
 12 10  1  0  0  0  0
 13  6  1  0  0  0  0
 14 16  1  0  0  0  0
 14 15  1  0  0  0  0
 16  9  1  0  0  0  0
 16 15  1  1  0  0  0
 18 17  1  1  0  0  0
 18 20  1  0  0  0  0
 20 19  1  0  0  0  0
 22 21  1  6  0  0  0
 23 22  1  0  0  0  0
 23 27  1  0  0  0  0
 25 24  1  1  0  0  0
 25 23  1  0  0  0  0
 26 25  1  0  0  0  0
 28 27  1  6  0  0  0
 28 32  1  0  0  0  0
 28 29  1  0  0  0  0
 29 30  1  0  0  0  0
 31 32  1  0  0  0  0
M  END
>  <MODEL>
4

>  <REMARK>
 VINA RESULT:      -3.7      4.043      8.088
  Name = 
  10 active torsions:
  status: ('A' for Active; 'I' for Inactive)
    1  A    between atoms: C_1  and  C_27
    2  A    between atoms: C_3  and  C_7
    3  A    between atoms: C_7  and  C_20
    4  A    between atoms: C_7  and  N_26
    5  A    between atoms: N_10  and  C_12
    6  A    between atoms: C_12  and  C_31
    7  A    between atoms: N_16  and  C_20
    8  A    between atoms: N_16  and  C_22
    9  A    between atoms: N_16  and  C_27
   10  A    between atoms: C_18  and  C_29
                            x       y       z     vdW  Elec       q    Type
                         _______ _______ _______ _____ _____    ______ ____

>  <TORSDO>
F 10

$$$$
=
 OpenBabel11062408193D

 32 35  0  0  1  0  0  0  0  0999 V2000
  161.6230  207.0230  151.7120 C   0  0  1  0  0  3  0  0  0  0  0  0
  160.3280  206.5080  149.4690 C   0  0  0  0  0  2  0  0  0  0  0  0
  162.2480  206.3640  152.9410 C   0  0  0  0  0  2  0  0  0  0  0  0
  161.3610  206.0840  150.5000 C   0  0  2  0  0  0  0  0  0  0  0  0
  160.3290  203.8300  148.5590 C   0  0  0  0  0  2  0  0  0  0  0  0
  161.8110  205.2830  147.1470 N   0  0  0  0  0  0  0  0  0  0  0  0
  161.8300  204.5860  150.5340 C   0  0  2  0  0  3  0  0  0  0  0  0
  161.4720  203.9080  147.5460 C   0  0  0  0  0  2  0  0  0  0  0  0
  160.8090  203.5500  149.9910 C   0  0  2  0  0  3  0  0  0  0  0  0
  162.3590  204.1570  151.9060 C   0  0  0  0  0  2  0  0  0  0  0  0
  161.7890  206.8410  149.2250 C   0  0  1  0  0  3  0  0  0  0  0  0
  163.1890  205.2460  152.5520 C   0  0  0  0  0  2  0  0  0  0  0  0
  162.5700  205.9590  148.2160 C   0  0  0  0  0  2  0  0  0  0  0  0
  160.3480  201.2740  150.7770 N   0  0  0  0  0  2  0  0  0  0  0  0
  160.4750  201.2100  149.3160 C   0  0  0  0  0  2  0  0  0  0  0  0
  161.3330  202.1150  150.0780 C   0  0  1  0  0  3  0  0  0  0  0  0
  161.0940  207.5070  146.3650 C   0  0  0  0  0  1  0  0  0  0  0  0
  160.6890  206.0530  146.5740 C   0  0  1  0  0  3  0  0  0  0  0  0
  161.4280  205.4720  144.2600 C   0  0  0  0  0  1  0  0  0  0  0  0
  160.2600  205.4750  145.2290 C   0  0  0  0  0  2  0  0  0  0  0  0
  160.2890  207.8650  153.6390 C   0  0  0  0  0  1  0  0  0  0  0  0
  160.4760  207.9680  152.1290 C   0  0  1  0  0  3  0  0  0  0  0  0
  160.6660  209.3700  151.6810 N   0  0  0  0  0  0  0  0  0  0  0  0
  162.8640  210.2760  152.3570 C   0  0  0  0  0  1  0  0  0  0  0  0
  162.0480  209.6450  151.2450 C   0  0  2  0  0  3  0  0  0  0  0  0
  162.0980  210.4270  150.0850 O   0  0  0  0  0  1  0  0  0  0  0  0
  160.4120  210.2660  152.8090 C   0  0  0  0  0  2  0  0  0  0  0  0
  159.3160  211.2810  152.4790 C   0  0  1  0  0  3  0  0  0  0  0  0
  158.3460  211.4830  153.6350 C   0  0  0  0  0  2  0  0  0  0  0  0
  158.7140  210.6910  154.7050 F   0  0  0  0  0  0  0  0  0  0  0  0
  158.7060  213.4430  151.0290 S   0  0  0  0  0  1  0  0  0  0  0  0
  159.8820  212.5480  152.0130 N   0  0  0  0  0  2  0  0  0  0  0  0
  1 22  1  1  0  0  0
  1  3  1  0  0  0  0
  4  2  1  6  0  0  0
  4  7  1  0  0  0  0
  4  1  1  0  0  0  0
  6  8  1  0  0  0  0
  6 13  1  0  0  0  0
  7 10  1  1  0  0  0
  8  5  1  0  0  0  0
  9  5  1  6  0  0  0
  9 16  1  0  0  0  0
  9  7  1  0  0  0  0
 10 12  1  0  0  0  0
 11 13  1  6  0  0  0
 11  2  1  0  0  0  0
 11  4  1  0  0  0  0
 12  3  1  0  0  0  0
 15 14  1  0  0  0  0
 16 15  1  6  0  0  0
 16 14  1  0  0  0  0
 18 17  1  6  0  0  0
 18  6  1  0  0  0  0
 19 20  1  0  0  0  0
 20 18  1  0  0  0  0
 22 21  1  1  0  0  0
 23 22  1  0  0  0  0
 23 27  1  0  0  0  0
 25 23  1  0  0  0  0
 25 24  1  1  0  0  0
 26 25  1  0  0  0  0
 28 27  1  1  0  0  0
 28 29  1  0  0  0  0
 29 30  1  0  0  0  0
 31 32  1  0  0  0  0
 32 28  1  0  0  0  0
M  END
>  <MODEL>
5

>  <REMARK>
 VINA RESULT:      -3.4      2.959      4.810
  Name = 
  10 active torsions:
  status: ('A' for Active; 'I' for Inactive)
    1  A    between atoms: C_1  and  C_27
    2  A    between atoms: C_3  and  C_7
    3  A    between atoms: C_7  and  C_20
    4  A    between atoms: C_7  and  N_26
    5  A    between atoms: N_10  and  C_12
    6  A    between atoms: C_12  and  C_31
    7  A    between atoms: N_16  and  C_20
    8  A    between atoms: N_16  and  C_22
    9  A    between atoms: N_16  and  C_27
   10  A    between atoms: C_18  and  C_29
                            x       y       z     vdW  Elec       q    Type
                         _______ _______ _______ _____ _____    ______ ____

>  <TORSDO>
F 10

$$$$
=
 OpenBabel11062408193D

 32 35  0  0  1  0  0  0  0  0999 V2000
  160.9960  207.9700  153.9890 C   0  0  1  0  0  3  0  0  0  0  0  0
  160.4060  209.1280  151.6900 C   0  0  0  0  0  2  0  0  0  0  0  0
  161.3000  206.6190  154.6340 C   0  0  0  0  0  2  0  0  0  0  0  0
  161.1410  208.0300  152.4410 C   0  0  2  0  0  0  0  0  0  0  0  0
  160.8320  207.6210  149.3350 C   0  0  0  0  0  2  0  0  0  0  0  0
  162.5480  209.4350  149.5900 N   0  0  0  0  0  0  0  0  0  0  0  0
  161.6780  206.7900  151.6410 C   0  0  2  0  0  3  0  0  0  0  0  0
  162.2020  208.1660  148.9300 C   0  0  0  0  0  2  0  0  0  0  0  0
  160.9160  206.4540  150.3310 C   0  0  2  0  0  3  0  0  0  0  0  0
  161.8350  205.5400  152.5120 C   0  0  0  0  0  2  0  0  0  0  0  0
  161.8530  209.3530  152.0910 C   0  0  1  0  0  3  0  0  0  0  0  0
  162.3820  205.8770  153.8820 C   0  0  0  0  0  2  0  0  0  0  0  0
  162.9380  209.1980  150.9930 C   0  0  0  0  0  2  0  0  0  0  0  0
  160.4640  204.1680  149.5690 N   0  0  0  0  0  2  0  0  0  0  0  0
  160.7670  204.9700  148.3780 C   0  0  0  0  0  2  0  0  0  0  0  0
  161.4880  205.2240  149.6230 C   0  0  1  0  0  3  0  0  0  0  0  0
  162.1520  211.8520  149.8620 C   0  0  0  0  0  1  0  0  0  0  0  0
  161.5800  210.5280  149.3700 C   0  0  1  0  0  3  0  0  0  0  0  0
  161.1050  212.1350  147.5180 C   0  0  0  0  0  1  0  0  0  0  0  0
  161.2440  210.6700  147.8890 C   0  0  0  0  0  2  0  0  0  0  0  0
  159.2640  207.7080  155.7580 C   0  0  0  0  0  1  0  0  0  0  0  0
  159.7210  208.5880  154.5990 C   0  0  1  0  0  3  0  0  0  0  0  0
  159.8780  210.0070  155.0010 N   0  0  0  0  0  0  0  0  0  0  0  0
  160.5840  210.7180  157.2600 C   0  0  0  0  0  1  0  0  0  0  0  0
  161.0300  210.2190  155.8990 C   0  0  2  0  0  3  0  0  0  0  0  0
  161.9900  211.0740  155.3440 O   0  0  0  0  0  1  0  0  0  0  0  0
  158.6950  210.4200  155.7560 C   0  0  0  0  0  2  0  0  0  0  0  0
  157.7100  211.1880  154.8710 C   0  0  1  0  0  3  0  0  0  0  0  0
  156.3230  211.2790  155.4920 C   0  0  0  0  0  2  0  0  0  0  0  0
  155.3780  210.7940  154.6090 F   0  0  0  0  0  0  0  0  0  0  0  0
  157.7530  213.7290  155.7010 S   0  0  0  0  0  1  0  0  0  0  0  0
  158.2330  212.5060  154.5070 N   0  0  0  0  0  2  0  0  0  0  0  0
  1 22  1  6  0  0  0
  1  3  1  0  0  0  0
  2 11  1  0  0  0  0
  4  2  1  6  0  0  0
  4  1  1  0  0  0  0
  6 13  1  0  0  0  0
  7  4  1  0  0  0  0
  7 10  1  1  0  0  0
  8  5  1  0  0  0  0
  8  6  1  0  0  0  0
  9  5  1  6  0  0  0
  9  7  1  0  0  0  0
 10 12  1  0  0  0  0
 11 13  1  6  0  0  0
 11  4  1  0  0  0  0
 12  3  1  0  0  0  0
 14 16  1  0  0  0  0
 15 14  1  0  0  0  0
 16 15  1  6  0  0  0
 16  9  1  0  0  0  0
 18  6  1  0  0  0  0
 18 17  1  6  0  0  0
 19 20  1  0  0  0  0
 20 18  1  0  0  0  0
 22 23  1  0  0  0  0
 22 21  1  1  0  0  0
 23 27  1  0  0  0  0
 23 25  1  0  0  0  0
 25 24  1  1  0  0  0
 26 25  1  0  0  0  0
 28 29  1  1  0  0  0
 28 27  1  0  0  0  0
 30 29  1  0  0  0  0
 32 28  1  0  0  0  0
 32 31  1  0  0  0  0
M  END
>  <MODEL>
6

>  <REMARK>
 VINA RESULT:      -2.6      2.464      3.452
  Name = 
  10 active torsions:
  status: ('A' for Active; 'I' for Inactive)
    1  A    between atoms: C_1  and  C_27
    2  A    between atoms: C_3  and  C_7
    3  A    between atoms: C_7  and  C_20
    4  A    between atoms: C_7  and  N_26
    5  A    between atoms: N_10  and  C_12
    6  A    between atoms: C_12  and  C_31
    7  A    between atoms: N_16  and  C_20
    8  A    between atoms: N_16  and  C_22
    9  A    between atoms: N_16  and  C_27
   10  A    between atoms: C_18  and  C_29
                            x       y       z     vdW  Elec       q    Type
                         _______ _______ _______ _____ _____    ______ ____

>  <TORSDO>
F 10

$$$$
=
 OpenBabel11062408193D

 32 35  0  0  1  0  0  0  0  0999 V2000
  159.3470  212.1000  154.1570 C   0  0  1  0  0  3  0  0  0  0  0  0
  161.3040  210.3840  153.7130 C   0  0  0  0  0  2  0  0  0  0  0  0
  158.5910  213.2760  153.5410 C   0  0  0  0  0  2  0  0  0  0  0  0
  160.1660  211.2270  153.1630 C   0  0  2  0  0  0  0  0  0  0  0  0
  162.2340  210.1390  151.0530 C   0  0  0  0  0  2  0  0  0  0  0  0
  160.8900  208.1360  151.7470 N   0  0  0  0  0  0  0  0  0  0  0  0
  160.1000  211.5000  151.6180 C   0  0  2  0  0  3  0  0  0  0  0  0
  161.4390  208.9070  150.6200 C   0  0  0  0  0  2  0  0  0  0  0  0
  161.4590  211.4530  150.8700 C   0  0  2  0  0  3  0  0  0  0  0  0
  159.3340  212.7810  151.2700 C   0  0  0  0  0  2  0  0  0  0  0  0
  159.9350  209.7500  153.5440 C   0  0  1  0  0  3  0  0  0  0  0  0
  158.1100  212.9550  152.1430 C   0  0  0  0  0  2  0  0  0  0  0  0
  159.7170  208.8230  152.3190 C   0  0  0  0  0  2  0  0  0  0  0  0
  161.9410  213.0430  149.0660 N   0  0  0  0  0  2  0  0  0  0  0  0
  162.6220  211.7870  148.7300 C   0  0  0  0  0  2  0  0  0  0  0  0
  161.3110  211.7490  149.3750 C   0  0  1  0  0  3  0  0  0  0  0  0
  161.2120  207.0980  153.9580 C   0  0  0  0  0  1  0  0  0  0  0  0
  161.8950  207.6660  152.7200 C   0  0  1  0  0  3  0  0  0  0  0  0
  161.9460  205.3510  151.7830 C   0  0  0  0  0  1  0  0  0  0  0  0
  162.7760  206.5780  152.1150 C   0  0  0  0  0  2  0  0  0  0  0  0
  160.0840  214.0560  155.5100 C   0  0  0  0  0  1  0  0  0  0  0  0
  160.0540  212.5330  155.4590 C   0  0  1  0  0  3  0  0  0  0  0  0
  159.4620  211.9420  156.6840 N   0  0  0  0  0  0  0  0  0  0  0  0
  161.7700  211.1170  156.9950 C   0  0  0  0  0  1  0  0  0  0  0  0
  160.2970  210.8710  157.2600 C   0  0  2  0  0  3  0  0  0  0  0  0
  159.9170  209.5990  156.8160 O   0  0  0  0  0  1  0  0  0  0  0  0
  158.1840  211.3180  156.3390 C   0  0  0  0  0  2  0  0  0  0  0  0
  157.0410  211.8870  157.1830 C   0  0  1  0  0  3  0  0  0  0  0  0
  157.0790  213.4070  157.2610 C   0  0  0  0  0  2  0  0  0  0  0  0
  156.5550  213.9520  156.1040 F   0  0  0  0  0  0  0  0  0  0  0  0
  155.8290  210.8530  155.0360 S   0  0  0  0  0  1  0  0  0  0  0  0
  155.7410  211.3960  156.7240 N   0  0  0  0  0  2  0  0  0  0  0  0
  1 22  1  1  0  0  0
  3  1  1  0  0  0  0
  4 11  1  0  0  0  0
  4  2  1  1  0  0  0
  4  1  1  0  0  0  0
  6 13  1  0  0  0  0
  6 18  1  0  0  0  0
  7 10  1  1  0  0  0
  7  4  1  0  0  0  0
  8  5  1  0  0  0  0
  8  6  1  0  0  0  0
  9  5  1  6  0  0  0
  9  7  1  0  0  0  0
 10 12  1  0  0  0  0
 11 13  1  6  0  0  0
 11  2  1  0  0  0  0
 12  3  1  0  0  0  0
 14 16  1  0  0  0  0
 15 14  1  0  0  0  0
 16 15  1  6  0  0  0
 16  9  1  0  0  0  0
 18 17  1  1  0  0  0
 19 20  1  0  0  0  0
 20 18  1  0  0  0  0
 22 21  1  1  0  0  0
 22 23  1  0  0  0  0
 23 25  1  0  0  0  0
 25 24  1  6  0  0  0
 26 25  1  0  0  0  0
 27 23  1  0  0  0  0
 28 27  1  6  0  0  0
 28 29  1  0  0  0  0
 30 29  1  0  0  0  0
 31 32  1  0  0  0  0
 32 28  1  0  0  0  0
M  END
>  <MODEL>
7

>  <REMARK>
 VINA RESULT:      -1.9      2.584      5.040
  Name = 
  10 active torsions:
  status: ('A' for Active; 'I' for Inactive)
    1  A    between atoms: C_1  and  C_27
    2  A    between atoms: C_3  and  C_7
    3  A    between atoms: C_7  and  C_20
    4  A    between atoms: C_7  and  N_26
    5  A    between atoms: N_10  and  C_12
    6  A    between atoms: C_12  and  C_31
    7  A    between atoms: N_16  and  C_20
    8  A    between atoms: N_16  and  C_22
    9  A    between atoms: N_16  and  C_27
   10  A    between atoms: C_18  and  C_29
                            x       y       z     vdW  Elec       q    Type
                         _______ _______ _______ _____ _____    ______ ____

>  <TORSDO>
F 10

$$$$
=
 OpenBabel11062408193D

 32 35  0  0  1  0  0  0  0  0999 V2000
  160.8200  207.2020  152.8570 C   0  0  1  0  0  3  0  0  0  0  0  0
  161.2220  209.7810  152.4580 C   0  0  0  0  0  2  0  0  0  0  0  0
  160.9950  206.0830  153.8820 C   0  0  0  0  0  2  0  0  0  0  0  0
  160.8910  208.6510  153.4180 C   0  0  2  0  0  0  0  0  0  0  0  0
  161.7870  211.3700  154.7280 C   0  0  0  0  0  2  0  0  0  0  0  0
  159.4690  211.7930  153.8630 N   0  0  0  0  0  0  0  0  0  0  0  0
  161.0210  208.9040  154.9630 C   0  0  2  0  0  3  0  0  0  0  0  0
  160.3880  211.9240  155.0040 C   0  0  0  0  0  2  0  0  0  0  0  0
  162.0360  210.0020  155.3800 C   0  0  2  0  0  3  0  0  0  0  0  0
  161.2550  207.6180  155.7610 C   0  0  0  0  0  2  0  0  0  0  0  0
  159.7660  209.4650  152.7470 C   0  0  1  0  0  3  0  0  0  0  0  0
  160.4260  206.4700  155.2280 C   0  0  0  0  0  2  0  0  0  0  0  0
  159.0080  210.3980  153.7290 C   0  0  0  0  0  2  0  0  0  0  0  0
  163.4210  210.7540  157.2590 N   0  0  0  0  0  2  0  0  0  0  0  0
  162.2130  211.5880  157.2500 C   0  0  0  0  0  2  0  0  0  0  0  0
  162.1170  210.1720  156.8990 C   0  0  1  0  0  3  0  0  0  0  0  0
  159.1730  211.8870  151.4190 C   0  0  0  0  0  1  0  0  0  0  0  0
  159.9360  212.4350  152.6190 C   0  0  1  0  0  3  0  0  0  0  0  0
  158.2910  214.2920  152.3320 C   0  0  0  0  0  1  0  0  0  0  0  0
  159.7290  213.9450  152.6720 C   0  0  0  0  0  2  0  0  0  0  0  0
  162.8260  206.0300  151.9630 C   0  0  0  0  0  1  0  0  0  0  0  0
  161.6350  206.9020  151.5820 C   0  0  1  0  0  3  0  0  0  0  0  0
  160.8320  206.3060  150.4860 N   0  0  0  0  0  0  0  0  0  0  0  0
  161.5290  204.1910  151.5580 C   0  0  0  0  0  1  0  0  0  0  0  0
  160.4590  204.9040  150.7530 C   0  0  2  0  0  3  0  0  0  0  0  0
  160.1620  204.1970  149.5810 O   0  0  0  0  0  1  0  0  0  0  0  0
  161.6370  206.2860  149.2650 C   0  0  0  0  0  2  0  0  0  0  0  0
  161.1510  207.3320  148.2600 C   0  0  1  0  0  3  0  0  0  0  0  0
  162.0920  208.5260  148.1660 C   0  0  0  0  0  2  0  0  0  0  0  0
  161.9620  209.3200  149.2890 F   0  0  0  0  0  0  0  0  0  0  0  0
  162.0300  205.4120  146.6200 S   0  0  0  0  0  1  0  0  0  0  0  0
  160.8930  206.7360  146.9480 N   0  0  0  0  0  2  0  0  0  0  0  0
  1 22  1  6  0  0  0
  1  4  1  0  0  0  0
  1  3  1  0  0  0  0
  3 12  1  0  0  0  0
  4  2  1  6  0  0  0
  4  7  1  0  0  0  0
  5  8  1  0  0  0  0
  6  8  1  0  0  0  0
  7  9  1  0  0  0  0
  7 10  1  1  0  0  0
  9  5  1  6  0  0  0
  9 16  1  0  0  0  0
 11  2  1  6  0  0  0
 11  4  1  0  0  0  0
 11 13  1  0  0  0  0
 12 10  1  0  0  0  0
 13  6  1  0  0  0  0
 15 14  1  0  0  0  0
 16 15  1  6  0  0  0
 16 14  1  0  0  0  0
 18 17  1  6  0  0  0
 18 20  1  0  0  0  0
 18  6  1  0  0  0  0
 19 20  1  0  0  0  0
 22 21  1  1  0  0  0
 23 25  1  0  0  0  0
 23 22  1  0  0  0  0
 25 24  1  6  0  0  0
 26 25  1  0  0  0  0
 27 23  1  0  0  0  0
 28 29  1  6  0  0  0
 28 27  1  0  0  0  0
 29 30  1  0  0  0  0
 31 32  1  0  0  0  0
 32 28  1  0  0  0  0
M  END
>  <MODEL>
8

>  <REMARK>
 VINA RESULT:      -1.9      3.452      6.631
  Name = 
  10 active torsions:
  status: ('A' for Active; 'I' for Inactive)
    1  A    between atoms: C_1  and  C_27
    2  A    between atoms: C_3  and  C_7
    3  A    between atoms: C_7  and  C_20
    4  A    between atoms: C_7  and  N_26
    5  A    between atoms: N_10  and  C_12
    6  A    between atoms: C_12  and  C_31
    7  A    between atoms: N_16  and  C_20
    8  A    between atoms: N_16  and  C_22
    9  A    between atoms: N_16  and  C_27
   10  A    between atoms: C_18  and  C_29
                            x       y       z     vdW  Elec       q    Type
                         _______ _______ _______ _____ _____    ______ ____

>  <TORSDO>
F 10

$$$$
=
 OpenBabel11062408193D

 32 35  0  0  1  0  0  0  0  0999 V2000
  160.7740  211.4930  151.5030 C   0  0  1  0  0  3  0  0  0  0  0  0
  158.3460  211.5520  152.5390 C   0  0  0  0  0  2  0  0  0  0  0  0
  161.5780  211.8490  150.2530 C   0  0  0  0  0  2  0  0  0  0  0  0
  159.3910  212.1910  151.6390 C   0  0  2  0  0  0  0  0  0  0  0  0
  156.4280  213.1840  151.2520 C   0  0  0  0  0  2  0  0  0  0  0  0
  157.1750  214.1840  153.4300 N   0  0  0  0  0  0  0  0  0  0  0  0
  158.9350  213.2730  150.5960 C   0  0  2  0  0  3  0  0  0  0  0  0
  156.5240  214.4300  152.1330 C   0  0  0  0  0  2  0  0  0  0  0  0
  157.4630  213.1650  150.1160 C   0  0  2  0  0  3  0  0  0  0  0  0
  159.8870  213.3870  149.4010 C   0  0  0  0  0  2  0  0  0  0  0  0
  159.2390  212.6400  153.1070 C   0  0  1  0  0  3  0  0  0  0  0  0
  161.3350  213.2790  149.8260 C   0  0  0  0  0  2  0  0  0  0  0  0
  158.6350  214.0620  153.2590 C   0  0  0  0  0  2  0  0  0  0  0  0
  156.7150  213.5990  147.8220 N   0  0  0  0  0  2  0  0  0  0  0  0
  155.6930  214.1480  148.7220 C   0  0  0  0  0  2  0  0  0  0  0  0
  157.1050  214.2410  149.0880 C   0  0  1  0  0  3  0  0  0  0  0  0
  156.8640  213.3450  155.7250 C   0  0  0  0  0  1  0  0  0  0  0  0
  156.5360  213.1380  154.2510 C   0  0  1  0  0  3  0  0  0  0  0  0
  154.4390  214.3970  154.7550 C   0  0  0  0  0  1  0  0  0  0  0  0
  155.0200  213.1640  154.0880 C   0  0  0  0  0  2  0  0  0  0  0  0
  161.9490  209.3750  150.9290 C   0  0  0  0  0  1  0  0  0  0  0  0
  160.8230  209.9740  151.7650 C   0  0  1  0  0  3  0  0  0  0  0  0
  160.9410  209.6190  153.2010 N   0  0  0  0  0  0  0  0  0  0  0  0
  163.0540  210.3510  154.2520 C   0  0  0  0  0  1  0  0  0  0  0  0
  161.5950  210.6760  153.9950 C   0  0  2  0  0  3  0  0  0  0  0  0
  160.9230  210.9360  155.1960 O   0  0  0  0  0  1  0  0  0  0  0  0
  161.7880  208.4340  153.3280 C   0  0  0  0  0  2  0  0  0  0  0  0
  161.0050  207.2470  153.8930 C   0  0  1  0  0  3  0  0  0  0  0  0
  161.2280  205.9710  153.0920 C   0  0  0  0  0  2  0  0  0  0  0  0
  160.9400  206.1940  151.7590 F   0  0  0  0  0  0  0  0  0  0  0  0
  159.7910  207.1870  156.2740 S   0  0  0  0  0  1  0  0  0  0  0  0
  161.2810  207.0520  155.3170 N   0  0  0  0  0  2  0  0  0  0  0  0
  1  4  1  0  0  0  0
  1 22  1  6  0  0  0
  3  1  1  0  0  0  0
  4  2  1  6  0  0  0
  4 11  1  0  0  0  0
  5  8  1  0  0  0  0
  6 18  1  0  0  0  0
  7 10  1  6  0  0  0
  7  4  1  0  0  0  0
  8  6  1  0  0  0  0
  9  7  1  0  0  0  0
  9  5  1  1  0  0  0
 10 12  1  0  0  0  0
 11  2  1  1  0  0  0
 11 13  1  0  0  0  0
 12  3  1  0  0  0  0
 13  6  1  0  0  0  0
 14 15  1  0  0  0  0
 14 16  1  0  0  0  0
 16 15  1  1  0  0  0
 16  9  1  0  0  0  0
 18 17  1  1  0  0  0
 20 18  1  0  0  0  0
 20 19  1  0  0  0  0
 22 21  1  6  0  0  0
 22 23  1  0  0  0  0
 23 27  1  0  0  0  0
 23 25  1  0  0  0  0
 25 24  1  1  0  0  0
 25 26  1  0  0  0  0
 27 28  1  0  0  0  0
 28 29  1  6  0  0  0
 28 32  1  0  0  0  0
 30 29  1  0  0  0  0
 32 31  1  0  0  0  0
M  END
>  <MODEL>
9

>  <REMARK>
 VINA RESULT:      -1.8      3.012      7.536
  Name = 
  10 active torsions:
  status: ('A' for Active; 'I' for Inactive)
    1  A    between atoms: C_1  and  C_27
    2  A    between atoms: C_3  and  C_7
    3  A    between atoms: C_7  and  C_20
    4  A    between atoms: C_7  and  N_26
    5  A    between atoms: N_10  and  C_12
    6  A    between atoms: C_12  and  C_31
    7  A    between atoms: N_16  and  C_20
    8  A    between atoms: N_16  and  C_22
    9  A    between atoms: N_16  and  C_27
   10  A    between atoms: C_18  and  C_29
                            x       y       z     vdW  Elec       q    Type
                         _______ _______ _______ _____ _____    ______ ____

>  <TORSDO>
F 10

$$$$
