=
 OpenBabel11052422563D

 28 32  0  0  1  0  0  0  0  0999 V2000
  160.8270  207.9220  152.3570 C   0  0  1  0  0  3  0  0  0  0  0  0
  161.3800  203.5430  150.4940 C   0  0  0  0  0  3  0  0  0  0  0  0
  161.9680  209.2850  148.2540 O   0  0  0  0  0  1  0  0  0  0  0  0
  161.2770  204.2310  148.1660 C   0  0  0  0  0  0  0  0  0  0  0  0
  161.4070  206.0130  149.9770 C   0  0  1  0  0  3  0  0  0  0  0  0
  161.2060  201.8780  148.7480 C   0  0  0  0  0  0  0  0  0  0  0  0
  161.4060  204.5670  149.5350 C   0  0  0  0  0  0  0  0  0  0  0  0
  160.9270  206.6580  147.6180 C   0  0  0  0  0  2  0  0  0  0  0  0
  161.1980  202.8870  147.7840 C   0  0  0  0  0  3  0  0  0  0  0  0
  162.4500  208.7130  150.5330 C   0  0  1  0  0  3  0  0  0  0  0  0
  162.3350  206.2600  151.1670 C   0  0  0  0  0  2  0  0  0  0  0  0
  161.3060  205.2790  147.0880 C   0  0  0  0  0  2  0  0  0  0  0  0
  161.5760  210.3350  152.3380 C   0  0  0  0  0  2  0  0  0  0  0  0
  161.5930  208.4250  149.2900 C   0  0  2  0  0  3  0  0  0  0  0  0
  162.2740  210.1750  150.9850 C   0  0  0  0  0  2  0  0  0  0  0  0
  161.1010  200.2010  148.2600 Cl  0  0  0  0  0  0  0  0  0  0  0  0
  161.2900  202.2060  150.1030 C   0  0  0  0  0  3  0  0  0  0  0  0
  161.7790  206.9730  148.8410 C   0  0  1  0  0  3  0  0  0  0  0  0
  160.3860  209.3890  152.4480 C   0  0  0  0  0  2  0  0  0  0  0  0
  162.1900  207.6980  151.6690 C   0  0  2  0  0  3  0  0  0  0  0  0
  160.6420  207.1170  153.6640 C   0  0  0  0  0  2  0  0  0  0  0  0
  160.2700  207.8680  154.8750 N   0  0  0  0  0  0  0  0  0  0  0  0
  161.3080  208.9180  156.7540 C   0  0  0  0  0  0  0  0  0  0  0  0
  161.3300  208.7940  155.2470 C   0  0  0  0  0  2  0  0  0  0  0  0
  160.0350  207.0030  156.0250 C   0  0  0  0  0  2  0  0  0  0  0  0
  160.5200  207.7340  157.2610 C   0  0  0  0  0  2  0  0  0  0  0  0
  162.6060  208.8890  157.2600 O   0  0  0  0  0  1  0  0  0  0  0  0
  160.6780  210.1050  157.1270 O   0  0  0  0  0  1  0  0  0  0  0  0
  1 19  1  0  0  0  0
  1 21  1  1  0  0  0
  4  7  1  0  0  0  0
  5 11  1  1  0  0  0
  6 17  2  0  0  0  0
  7  5  1  0  0  0  0
  7  2  2  0  0  0  0
  9  4  2  0  0  0  0
  9  6  1  0  0  0  0
 10 15  1  1  0  0  0
 10 20  1  0  0  0  0
 12  8  1  0  0  0  0
 12  4  1  0  0  0  0
 13 19  1  0  0  0  0
 14  3  1  6  0  0  0
 14 10  1  0  0  0  0
 15 13  1  0  0  0  0
 16  6  1  0  0  0  0
 17  2  1  0  0  0  0
 18  8  1  6  0  0  0
 18 14  1  0  0  0  0
 18  5  1  0  0  0  0
 20 11  1  6  0  0  0
 20  1  1  0  0  0  0
 21 22  1  0  0  0  0
 22 24  1  0  0  0  0
 22 25  1  0  0  0  0
 23 28  1  0  0  0  0
 23 27  1  0  0  0  0
 23 26  1  0  0  0  0
 24 23  1  0  0  0  0
 25 26  1  0  0  0  0
M  END
>  <MODEL>
1

>  <REMARK>
 VINA RESULT:     -10.1      0.000      0.000
  Name = 
  2 active torsions:
  status: ('A' for Active; 'I' for Inactive)
    1  A    between atoms: C_1  and  C_2
    2  A    between atoms: C_2  and  N_3
                            x       y       z     vdW  Elec       q    Type
                         _______ _______ _______ _____ _____    ______ ____

>  <TORSDO>
F 2

$$$$
=
 OpenBabel11052422563D

 28 32  0  0  1  0  0  0  0  0999 V2000
  162.1990  208.9190  150.4030 C   0  0  1  0  0  3  0  0  0  0  0  0
  161.1240  205.0450  147.7990 C   0  0  0  0  0  3  0  0  0  0  0  0
  161.1260  206.2960  153.8620 O   0  0  0  0  0  1  0  0  0  0  0  0
  161.2510  203.4520  149.6290 C   0  0  0  0  0  0  0  0  0  0  0  0
  161.3600  205.9410  150.1460 C   0  0  1  0  0  3  0  0  0  0  0  0
  161.0740  202.6710  147.3400 C   0  0  0  0  0  0  0  0  0  0  0  0
  161.1910  204.7920  149.1770 C   0  0  0  0  0  0  0  0  0  0  0  0
  161.8560  204.2690  151.9260 C   0  0  0  0  0  2  0  0  0  0  0  0
  161.1720  202.4030  148.7060 C   0  0  0  0  0  3  0  0  0  0  0  0
  160.6340  207.9400  152.1860 C   0  0  1  0  0  3  0  0  0  0  0  0
  160.4910  207.1460  149.7820 C   0  0  0  0  0  2  0  0  0  0  0  0
  161.3150  203.1120  151.0920 C   0  0  0  0  0  2  0  0  0  0  0  0
  161.7210  210.2590  152.4910 C   0  0  0  0  0  2  0  0  0  0  0  0
  161.4260  206.6740  152.5500 C   0  0  2  0  0  3  0  0  0  0  0  0
  160.9800  209.0920  153.1490 C   0  0  0  0  0  2  0  0  0  0  0  0
  160.9820  201.3510  146.1940 Cl  0  0  0  0  0  0  0  0  0  0  0  0
  161.0570  203.9910  146.8850 C   0  0  0  0  0  3  0  0  0  0  0  0
  161.0710  205.5320  151.5950 C   0  0  1  0  0  3  0  0  0  0  0  0
  162.8010  209.7490  151.5450 C   0  0  0  0  0  2  0  0  0  0  0  0
  160.8050  208.3280  150.7000 C   0  0  2  0  0  3  0  0  0  0  0  0
  162.3220  209.5690  149.0060 C   0  0  0  0  0  2  0  0  0  0  0  0
  162.1180  211.0260  148.9170 N   0  0  0  0  0  0  0  0  0  0  0  0
  161.3050  212.6570  147.3720 C   0  0  0  0  0  0  0  0  0  0  0  0
  161.0020  211.3320  148.0340 C   0  0  0  0  0  2  0  0  0  0  0  0
  163.2840  211.7270  148.3900 C   0  0  0  0  0  2  0  0  0  0  0  0
  162.7860  212.8870  147.5520 C   0  0  0  0  0  2  0  0  0  0  0  0
  160.9840  212.6030  146.0160 O   0  0  0  0  0  1  0  0  0  0  0  0
  160.5850  213.6780  147.9910 O   0  0  0  0  0  1  0  0  0  0  0  0
  1 21  1  6  0  0  0
  1 20  1  0  0  0  0
  1 19  1  0  0  0  0
  2  7  1  0  0  0  0
  4 12  1  0  0  0  0
  5 11  1  6  0  0  0
  5 18  1  0  0  0  0
  6  9  2  0  0  0  0
  7  4  2  0  0  0  0
  7  5  1  0  0  0  0
  9  4  1  0  0  0  0
 10 14  1  0  0  0  0
 10 15  1  1  0  0  0
 12  8  1  0  0  0  0
 13 15  1  0  0  0  0
 14  3  1  1  0  0  0
 16  6  1  0  0  0  0
 17  6  1  0  0  0  0
 17  2  2  0  0  0  0
 18  8  1  1  0  0  0
 18 14  1  0  0  0  0
 19 13  1  0  0  0  0
 20 11  1  6  0  0  0
 20 10  1  0  0  0  0
 22 21  1  0  0  0  0
 23 26  1  0  0  0  0
 23 28  1  0  0  0  0
 23 24  1  0  0  0  0
 24 22  1  0  0  0  0
 25 22  1  0  0  0  0
 26 25  1  0  0  0  0
 27 23  1  0  0  0  0
M  END
>  <MODEL>
2

>  <REMARK>
 VINA RESULT:      -9.3      2.629      5.605
  Name = 
  2 active torsions:
  status: ('A' for Active; 'I' for Inactive)
    1  A    between atoms: C_1  and  C_2
    2  A    between atoms: C_2  and  N_3
                            x       y       z     vdW  Elec       q    Type
                         _______ _______ _______ _____ _____    ______ ____

>  <TORSDO>
F 2

$$$$
=
 OpenBabel11052422563D

 28 32  0  0  1  0  0  0  0  0999 V2000
  161.9680  206.2950  151.2410 C   0  0  1  0  0  3  0  0  0  0  0  0
  161.2080  206.3420  146.5110 C   0  0  0  0  0  3  0  0  0  0  0  0
  160.8380  201.9840  150.8920 O   0  0  0  0  0  1  0  0  0  0  0  0
  161.3130  203.9350  146.2020 C   0  0  0  0  0  0  0  0  0  0  0  0
  161.2800  204.8780  148.5650 C   0  0  1  0  0  3  0  0  0  0  0  0
  161.2910  205.4130  144.2800 C   0  0  0  0  0  0  0  0  0  0  0  0
  161.2140  205.0530  147.0640 C   0  0  0  0  0  0  0  0  0  0  0  0
  161.7590  202.4620  148.1880 C   0  0  0  0  0  2  0  0  0  0  0  0
  161.3300  204.1240  144.8160 C   0  0  0  0  0  3  0  0  0  0  0  0
  160.3590  204.2970  151.3040 C   0  0  1  0  0  3  0  0  0  0  0  0
  160.3770  205.8630  149.3090 C   0  0  0  0  0  2  0  0  0  0  0  0
  161.3160  202.5270  146.7300 C   0  0  0  0  0  2  0  0  0  0  0  0
  161.3210  205.3050  153.4730 C   0  0  0  0  0  2  0  0  0  0  0  0
  161.1880  203.2800  150.5040 C   0  0  2  0  0  3  0  0  0  0  0  0
  160.6020  204.1260  152.8150 C   0  0  0  0  0  2  0  0  0  0  0  0
  161.3190  205.6390  142.5440 Cl  0  0  0  0  0  0  0  0  0  0  0  0
  161.2370  206.5220  145.1270 C   0  0  0  0  0  3  0  0  0  0  0  0
  160.9360  203.4500  149.0040 C   0  0  1  0  0  3  0  0  0  0  0  0
  162.4710  205.7920  152.6010 C   0  0  0  0  0  2  0  0  0  0  0  0
  160.5890  205.7470  150.8190 C   0  0  2  0  0  3  0  0  0  0  0  0
  162.1340  207.8170  151.0200 C   0  0  0  0  0  2  0  0  0  0  0  0
  161.9330  208.6950  152.1860 N   0  0  0  0  0  0  0  0  0  0  0  0
  160.2830  210.1670  153.0910 C   0  0  0  0  0  0  0  0  0  0  0  0
  160.5190  208.7870  152.5180 C   0  0  0  0  0  2  0  0  0  0  0  0
  162.4080  210.0550  151.9540 C   0  0  0  0  0  2  0  0  0  0  0  0
  161.4730  211.0000  152.6820 C   0  0  0  0  0  2  0  0  0  0  0  0
  159.1080  210.7100  152.5720 O   0  0  0  0  0  1  0  0  0  0  0  0
  160.2020  210.1000  154.4820 O   0  0  0  0  0  1  0  0  0  0  0  0
  1 21  1  1  0  0  0
  1 19  1  0  0  0  0
  2  7  1  0  0  0  0
  4 12  1  0  0  0  0
  4  7  2  0  0  0  0
  5 18  1  0  0  0  0
  5 11  1  1  0  0  0
  6  9  2  0  0  0  0
  6 17  1  0  0  0  0
  7  5  1  0  0  0  0
  9  4  1  0  0  0  0
 10 15  1  1  0  0  0
 12  8  1  0  0  0  0
 14  3  1  1  0  0  0
 14 10  1  0  0  0  0
 15 13  1  0  0  0  0
 16  6  1  0  0  0  0
 17  2  2  0  0  0  0
 18  8  1  6  0  0  0
 18 14  1  0  0  0  0
 19 13  1  0  0  0  0
 20 11  1  6  0  0  0
 20  1  1  0  0  0  0
 20 10  1  0  0  0  0
 21 22  1  0  0  0  0
 22 24  1  0  0  0  0
 23 28  1  0  0  0  0
 24 23  1  0  0  0  0
 25 22  1  0  0  0  0
 25 26  1  0  0  0  0
 26 23  1  0  0  0  0
 27 23  1  0  0  0  0
M  END
>  <MODEL>
3

>  <REMARK>
 VINA RESULT:      -9.1      2.767      4.626
  Name = 
  2 active torsions:
  status: ('A' for Active; 'I' for Inactive)
    1  A    between atoms: C_1  and  C_2
    2  A    between atoms: C_2  and  N_3
                            x       y       z     vdW  Elec       q    Type
                         _______ _______ _______ _____ _____    ______ ____

>  <TORSDO>
F 2

$$$$
=
 OpenBabel11052422563D

 28 32  0  0  1  0  0  0  0  0999 V2000
  160.6100  208.4620  152.7140 C   0  0  1  0  0  3  0  0  0  0  0  0
  161.1040  203.8550  151.4950 C   0  0  0  0  0  3  0  0  0  0  0  0
  161.8930  209.2140  148.4970 O   0  0  0  0  0  1  0  0  0  0  0  0
  161.0790  204.2130  149.0920 C   0  0  0  0  0  0  0  0  0  0  0  0
  161.2050  206.2280  150.6410 C   0  0  1  0  0  3  0  0  0  0  0  0
  160.9340  201.9660  149.9940 C   0  0  0  0  0  0  0  0  0  0  0  0
  161.1800  204.7340  150.4040 C   0  0  0  0  0  0  0  0  0  0  0  0
  160.8040  206.5460  148.2030 C   0  0  0  0  0  2  0  0  0  0  0  0
  160.9770  202.8310  148.8990 C   0  0  0  0  0  3  0  0  0  0  0  0
  162.3000  208.9560  150.8470 C   0  0  1  0  0  3  0  0  0  0  0  0
  162.1070  206.6190  151.8120 C   0  0  0  0  0  2  0  0  0  0  0  0
  161.1620  205.0990  147.8810 C   0  0  0  0  0  2  0  0  0  0  0  0
  161.4190  210.8320  152.3820 C   0  0  0  0  0  2  0  0  0  0  0  0
  161.4690  208.5150  149.6310 C   0  0  2  0  0  3  0  0  0  0  0  0
  162.1480  210.4700  151.0860 C   0  0  0  0  0  2  0  0  0  0  0  0
  160.8010  200.2390  149.7410 Cl  0  0  0  0  0  0  0  0  0  0  0  0
  160.9910  202.4780  151.2920 C   0  0  0  0  0  3  0  0  0  0  0  0
  161.6310  207.0110  149.3940 C   0  0  1  0  0  3  0  0  0  0  0  0
  160.2040  209.9360  152.5870 C   0  0  0  0  0  2  0  0  0  0  0  0
  161.9840  208.1150  152.1050 C   0  0  2  0  0  3  0  0  0  0  0  0
  160.3710  207.8510  154.1140 C   0  0  0  0  0  2  0  0  0  0  0  0
  160.6100  208.7190  155.2810 N   0  0  0  0  0  0  0  0  0  0  0  0
  160.3480  211.0020  155.9320 C   0  0  0  0  0  0  0  0  0  0  0  0
  159.6520  209.8150  155.3060 C   0  0  0  0  0  2  0  0  0  0  0  0
  161.9410  209.3140  155.2770 C   0  0  0  0  0  2  0  0  0  0  0  0
  161.8260  210.7060  155.8650 C   0  0  0  0  0  2  0  0  0  0  0  0
  160.0530  212.1650  155.2200 O   0  0  0  0  0  1  0  0  0  0  0  0
  159.9490  211.1450  157.2610 O   0  0  0  0  0  1  0  0  0  0  0  0
  1 21  1  1  0  0  0
  4  7  1  0  0  0  0
  5 11  1  1  0  0  0
  6 17  2  0  0  0  0
  7  5  1  0  0  0  0
  7  2  2  0  0  0  0
  9  4  2  0  0  0  0
  9  6  1  0  0  0  0
 10 15  1  1  0  0  0
 10 20  1  0  0  0  0
 12  8  1  0  0  0  0
 12  4  1  0  0  0  0
 13 19  1  0  0  0  0
 14  3  1  6  0  0  0
 14 10  1  0  0  0  0
 15 13  1  0  0  0  0
 16  6  1  0  0  0  0
 17  2  1  0  0  0  0
 18  8  1  6  0  0  0
 18 14  1  0  0  0  0
 18  5  1  0  0  0  0
 19  1  1  0  0  0  0
 20 11  1  6  0  0  0
 20  1  1  0  0  0  0
 21 22  1  0  0  0  0
 22 24  1  0  0  0  0
 23 28  1  0  0  0  0
 24 23  1  0  0  0  0
 25 22  1  0  0  0  0
 25 26  1  0  0  0  0
 26 23  1  0  0  0  0
 27 23  1  0  0  0  0
M  END
>  <MODEL>
4

>  <REMARK>
 VINA RESULT:      -8.9      1.248      1.591
  Name = 
  2 active torsions:
  status: ('A' for Active; 'I' for Inactive)
    1  A    between atoms: C_1  and  C_2
    2  A    between atoms: C_2  and  N_3
                            x       y       z     vdW  Elec       q    Type
                         _______ _______ _______ _____ _____    ______ ____

>  <TORSDO>
F 2

$$$$
=
 OpenBabel11052422563D

 28 32  0  0  1  0  0  0  0  0999 V2000
  162.2530  209.5330  152.0020 C   0  0  1  0  0  3  0  0  0  0  0  0
  161.3350  205.8900  149.0300 C   0  0  0  0  0  3  0  0  0  0  0  0
  160.4240  206.8520  155.0770 O   0  0  0  0  0  1  0  0  0  0  0  0
  161.0350  204.2080  150.7570 C   0  0  0  0  0  0  0  0  0  0  0  0
  161.2440  206.6520  151.4340 C   0  0  1  0  0  3  0  0  0  0  0  0
  161.1820  203.5530  148.4270 C   0  0  0  0  0  0  0  0  0  0  0  0
  161.1520  205.5680  150.3840 C   0  0  0  0  0  0  0  0  0  0  0  0
  161.3090  204.8630  153.1680 C   0  0  0  0  0  2  0  0  0  0  0  0
  161.0310  203.2140  149.7730 C   0  0  0  0  0  3  0  0  0  0  0  0
  160.3430  208.6090  153.4460 C   0  0  1  0  0  3  0  0  0  0  0  0
  160.5420  207.9420  151.0070 C   0  0  0  0  0  2  0  0  0  0  0  0
  160.8290  203.7970  152.1890 C   0  0  0  0  0  2  0  0  0  0  0  0
  161.5370  210.8100  154.0620 C   0  0  0  0  0  2  0  0  0  0  0  0
  160.9660  207.2640  153.8570 C   0  0  2  0  0  3  0  0  0  0  0  0
  160.6110  209.6800  154.5190 C   0  0  0  0  0  2  0  0  0  0  0  0
  161.1820  202.3000  147.2050 Cl  0  0  0  0  0  0  0  0  0  0  0  0
  161.3410  204.8900  148.0560 C   0  0  0  0  0  3  0  0  0  0  0  0
  160.6880  206.2020  152.7900 C   0  0  1  0  0  3  0  0  0  0  0  0
  162.7180  210.2550  153.2740 C   0  0  0  0  0  2  0  0  0  0  0  0
  160.7880  209.0500  152.0330 C   0  0  2  0  0  3  0  0  0  0  0  0
  162.6550  210.2350  150.6850 C   0  0  0  0  0  2  0  0  0  0  0  0
  161.5850  210.8900  149.9120 N   0  0  0  0  0  0  0  0  0  0  0  0
  161.3300  212.4330  148.1060 C   0  0  0  0  0  0  0  0  0  0  0  0
  162.0340  211.1730  148.5570 C   0  0  0  0  0  2  0  0  0  0  0  0
  161.1640  212.1590  150.4970 C   0  0  0  0  0  2  0  0  0  0  0  0
  160.8160  213.0980  149.3600 C   0  0  0  0  0  2  0  0  0  0  0  0
  162.2230  213.2740  147.4420 O   0  0  0  0  0  1  0  0  0  0  0  0
  160.2650  212.1120  147.2650 O   0  0  0  0  0  1  0  0  0  0  0  0
  1 21  1  6  0  0  0
  1 20  1  0  0  0  0
  1 19  1  0  0  0  0
  2  7  1  0  0  0  0
  4 12  1  0  0  0  0
  5 11  1  6  0  0  0
  5 18  1  0  0  0  0
  6  9  2  0  0  0  0
  7  4  2  0  0  0  0
  7  5  1  0  0  0  0
  9  4  1  0  0  0  0
 10 14  1  0  0  0  0
 10 15  1  1  0  0  0
 12  8  1  0  0  0  0
 13 15  1  0  0  0  0
 14  3  1  1  0  0  0
 16  6  1  0  0  0  0
 17  6  1  0  0  0  0
 17  2  2  0  0  0  0
 18  8  1  1  0  0  0
 18 14  1  0  0  0  0
 19 13  1  0  0  0  0
 20 11  1  6  0  0  0
 20 10  1  0  0  0  0
 22 25  1  0  0  0  0
 22 21  1  0  0  0  0
 23 24  1  0  0  0  0
 23 26  1  0  0  0  0
 24 22  1  0  0  0  0
 26 25  1  0  0  0  0
 27 23  1  0  0  0  0
 28 23  1  0  0  0  0
M  END
>  <MODEL>
5

>  <REMARK>
 VINA RESULT:      -8.7      2.327      5.400
  Name = 
  2 active torsions:
  status: ('A' for Active; 'I' for Inactive)
    1  A    between atoms: C_1  and  C_2
    2  A    between atoms: C_2  and  N_3
                            x       y       z     vdW  Elec       q    Type
                         _______ _______ _______ _____ _____    ______ ____

>  <TORSDO>
F 2

$$$$
=
 OpenBabel11052422563D

 28 32  0  0  1  0  0  0  0  0999 V2000
  161.4390  205.7400  149.9260 C   0  0  1  0  0  3  0  0  0  0  0  0
  162.2830  210.3240  148.8160 C   0  0  0  0  0  3  0  0  0  0  0  0
  160.5390  207.3910  153.9820 O   0  0  0  0  0  1  0  0  0  0  0  0
  161.1250  211.2760  150.7280 C   0  0  0  0  0  0  0  0  0  0  0  0
  161.5030  208.7610  150.6390 C   0  0  1  0  0  3  0  0  0  0  0  0
  161.8610  212.7030  148.9110 C   0  0  0  0  0  0  0  0  0  0  0  0
  161.6850  210.1530  150.0740 C   0  0  0  0  0  0  0  0  0  0  0  0
  160.0090  209.7420  152.3750 C   0  0  0  0  0  2  0  0  0  0  0  0
  161.2360  212.5450  150.1490 C   0  0  0  0  0  3  0  0  0  0  0  0
  161.9860  206.4060  152.3430 C   0  0  1  0  0  3  0  0  0  0  0  0
  162.7280  207.8740  150.4120 C   0  0  0  0  0  2  0  0  0  0  0  0
  160.4780  211.1630  152.0810 C   0  0  0  0  0  2  0  0  0  0  0  0
  161.5090  203.9520  151.7090 C   0  0  0  0  0  2  0  0  0  0  0  0
  160.8150  207.3640  152.6120 C   0  0  2  0  0  3  0  0  0  0  0  0
  161.6470  204.9850  152.8300 C   0  0  0  0  0  2  0  0  0  0  0  0
  161.9890  214.2940  148.1930 Cl  0  0  0  0  0  0  0  0  0  0  0  0
  162.3790  211.5920  148.2410 C   0  0  0  0  0  3  0  0  0  0  0  0
  161.1620  208.7760  152.1330 C   0  0  1  0  0  3  0  0  0  0  0  0
  160.7240  204.5280  150.5370 C   0  0  0  0  0  2  0  0  0  0  0  0
  162.4410  206.4420  150.8660 C   0  0  2  0  0  3  0  0  0  0  0  0
  161.9760  205.5110  148.4940 C   0  0  0  0  0  2  0  0  0  0  0  0
  160.9860  205.2520  147.4330 N   0  0  0  0  0  0  0  0  0  0  0  0
  160.8890  204.9980  145.0600 C   0  0  0  0  0  0  0  0  0  0  0  0
  161.6060  204.5560  146.3150 C   0  0  0  0  0  2  0  0  0  0  0  0
  160.3980  206.4760  146.9010 C   0  0  0  0  0  2  0  0  0  0  0  0
  160.1540  206.2660  145.4210 C   0  0  0  0  0  2  0  0  0  0  0  0
  161.8080  205.2430  144.0400 O   0  0  0  0  0  1  0  0  0  0  0  0
  159.9820  204.0190  144.6560 O   0  0  0  0  0  1  0  0  0  0  0  0
  1 21  1  6  0  0  0
  1 19  1  0  0  0  0
  1 20  1  0  0  0  0
  2  7  1  0  0  0  0
  4 12  1  0  0  0  0
  5 11  1  1  0  0  0
  5 18  1  0  0  0  0
  6  9  2  0  0  0  0
  7  5  1  0  0  0  0
  7  4  2  0  0  0  0
  9  4  1  0  0  0  0
 10 14  1  0  0  0  0
 10 15  1  6  0  0  0
 12  8  1  0  0  0  0
 13 15  1  0  0  0  0
 14  3  1  1  0  0  0
 16  6  1  0  0  0  0
 17  2  2  0  0  0  0
 17  6  1  0  0  0  0
 18  8  1  6  0  0  0
 18 14  1  0  0  0  0
 19 13  1  0  0  0  0
 20 11  1  6  0  0  0
 20 10  1  0  0  0  0
 22 21  1  0  0  0  0
 23 26  1  0  0  0  0
 23 24  1  0  0  0  0
 24 22  1  0  0  0  0
 25 22  1  0  0  0  0
 26 25  1  0  0  0  0
 27 23  1  0  0  0  0
 28 23  1  0  0  0  0
M  END
>  <MODEL>
6

>  <REMARK>
 VINA RESULT:      -8.3      3.940      8.215
  Name = 
  2 active torsions:
  status: ('A' for Active; 'I' for Inactive)
    1  A    between atoms: C_1  and  C_2
    2  A    between atoms: C_2  and  N_3
                            x       y       z     vdW  Elec       q    Type
                         _______ _______ _______ _____ _____    ______ ____

>  <TORSDO>
F 2

$$$$
=
 OpenBabel11052422563D

 28 32  0  0  1  0  0  0  0  0999 V2000
  162.2340  207.0970  150.4400 C   0  0  1  0  0  3  0  0  0  0  0  0
  161.0310  203.7840  147.1960 C   0  0  0  0  0  3  0  0  0  0  0  0
  160.8450  204.0280  153.3790 O   0  0  0  0  0  1  0  0  0  0  0  0
  160.9760  201.9090  148.7400 C   0  0  0  0  0  0  0  0  0  0  0  0
  161.2190  204.2670  149.6660 C   0  0  1  0  0  3  0  0  0  0  0  0
  160.8520  201.5260  146.3490 C   0  0  0  0  0  0  0  0  0  0  0  0
  161.0210  203.3060  148.5150 C   0  0  0  0  0  0  0  0  0  0  0  0
  161.5290  202.2970  151.1600 C   0  0  0  0  0  2  0  0  0  0  0  0
  160.8720  201.0330  147.6550 C   0  0  0  0  0  3  0  0  0  0  0  0
  160.5320  205.9530  151.9840 C   0  0  1  0  0  3  0  0  0  0  0  0
  160.4460  205.5730  149.4780 C   0  0  0  0  0  2  0  0  0  0  0  0
  160.9540  201.3320  150.1290 C   0  0  0  0  0  2  0  0  0  0  0  0
  161.7500  208.1090  152.7040 C   0  0  0  0  0  2  0  0  0  0  0  0
  161.2260  204.5930  152.1590 C   0  0  2  0  0  3  0  0  0  0  0  0
  160.9090  206.9050  153.1340 C   0  0  0  0  0  2  0  0  0  0  0  0
  160.7270  200.4200  144.9980 Cl  0  0  0  0  0  0  0  0  0  0  0  0
  160.9380  202.9010  146.1190 C   0  0  0  0  0  3  0  0  0  0  0  0
  160.8410  203.6490  151.0170 C   0  0  1  0  0  3  0  0  0  0  0  0
  162.8360  207.6870  151.7230 C   0  0  0  0  0  2  0  0  0  0  0  0
  160.7940  206.5650  150.5880 C   0  0  2  0  0  3  0  0  0  0  0  0
  162.4600  207.9560  149.1750 C   0  0  0  0  0  2  0  0  0  0  0  0
  161.7380  209.2380  149.0890 N   0  0  0  0  0  0  0  0  0  0  0  0
  162.0690  211.4600  148.2750 C   0  0  0  0  0  0  0  0  0  0  0  0
  162.1760  209.9940  147.9240 C   0  0  0  0  0  2  0  0  0  0  0  0
  161.9560  210.0860  150.2550 C   0  0  0  0  0  2  0  0  0  0  0  0
  161.9820  211.5250  149.7810 C   0  0  0  0  0  2  0  0  0  0  0  0
  163.1950  212.1480  147.8240 O   0  0  0  0  0  1  0  0  0  0  0  0
  160.9190  212.0060  147.7070 O   0  0  0  0  0  1  0  0  0  0  0  0
  1 21  1  6  0  0  0
  1 20  1  0  0  0  0
  1 19  1  0  0  0  0
  2  7  1  0  0  0  0
  4 12  1  0  0  0  0
  5 11  1  6  0  0  0
  5 18  1  0  0  0  0
  6  9  2  0  0  0  0
  7  4  2  0  0  0  0
  7  5  1  0  0  0  0
  9  4  1  0  0  0  0
 10 14  1  0  0  0  0
 10 15  1  1  0  0  0
 12  8  1  0  0  0  0
 13 15  1  0  0  0  0
 14  3  1  1  0  0  0
 16  6  1  0  0  0  0
 17  6  1  0  0  0  0
 17  2  2  0  0  0  0
 18  8  1  1  0  0  0
 18 14  1  0  0  0  0
 19 13  1  0  0  0  0
 20 11  1  6  0  0  0
 20 10  1  0  0  0  0
 22 21  1  0  0  0  0
 22 25  1  0  0  0  0
 23 26  1  0  0  0  0
 24 23  1  0  0  0  0
 24 22  1  0  0  0  0
 26 25  1  0  0  0  0
 27 23  1  0  0  0  0
 28 23  1  0  0  0  0
M  END
>  <MODEL>
7

>  <REMARK>
 VINA RESULT:      -7.8      2.863      5.285
  Name = 
  2 active torsions:
  status: ('A' for Active; 'I' for Inactive)
    1  A    between atoms: C_1  and  C_2
    2  A    between atoms: C_2  and  N_3
                            x       y       z     vdW  Elec       q    Type
                         _______ _______ _______ _____ _____    ______ ____

>  <TORSDO>
F 2

$$$$
=
 OpenBabel11052422563D

 28 32  0  0  1  0  0  0  0  0999 V2000
  161.1720  207.9730  152.3350 C   0  0  1  0  0  3  0  0  0  0  0  0
  161.8840  211.3800  149.0430 C   0  0  0  0  0  3  0  0  0  0  0  0
  159.7010  211.3740  154.8360 O   0  0  0  0  0  1  0  0  0  0  0  0
  160.4540  213.0500  150.0770 C   0  0  0  0  0  0  0  0  0  0  0  0
  160.9810  210.9120  151.3530 C   0  0  1  0  0  3  0  0  0  0  0  0
  161.3220  213.4010  147.8400 C   0  0  0  0  0  0  0  0  0  0  0  0
  161.1510  211.8200  150.1560 C   0  0  0  0  0  0  0  0  0  0  0  0
  159.2370  212.4780  152.1990 C   0  0  0  0  0  2  0  0  0  0  0  0
  160.5620  213.8390  148.9270 C   0  0  0  0  0  3  0  0  0  0  0  0
  161.3880  209.8500  154.0720 C   0  0  1  0  0  3  0  0  0  0  0  0
  162.2710  210.1770  151.7170 C   0  0  0  0  0  2  0  0  0  0  0  0
  159.6580  213.5830  151.2360 C   0  0  0  0  0  2  0  0  0  0  0  0
  161.1280  207.3880  154.7920 C   0  0  0  0  0  2  0  0  0  0  0  0
  160.1400  210.6730  153.7100 C   0  0  2  0  0  3  0  0  0  0  0  0
  161.0720  208.8590  155.2080 C   0  0  0  0  0  2  0  0  0  0  0  0
  161.4450  214.3930  146.4030 Cl  0  0  0  0  0  0  0  0  0  0  0  0
  161.9770  212.1690  147.8950 C   0  0  0  0  0  3  0  0  0  0  0  0
  160.4620  211.6610  152.5870 C   0  0  1  0  0  3  0  0  0  0  0  0
  160.4580  207.1820  153.4390 C   0  0  0  0  0  2  0  0  0  0  0  0
  162.0130  209.1660  152.8350 C   0  0  2  0  0  3  0  0  0  0  0  0
  161.8890  207.0960  151.2820 C   0  0  0  0  0  2  0  0  0  0  0  0
  161.4540  207.2300  149.8810 N   0  0  0  0  0  0  0  0  0  0  0  0
  161.2790  205.9110  147.8970 C   0  0  0  0  0  0  0  0  0  0  0  0
  160.9620  205.9570  149.3740 C   0  0  0  0  0  2  0  0  0  0  0  0
  162.5320  207.6550  148.9950 C   0  0  0  0  0  2  0  0  0  0  0  0
  162.3310  206.9670  147.6600 C   0  0  0  0  0  2  0  0  0  0  0  0
  161.7680  204.6520  147.5470 O   0  0  0  0  0  1  0  0  0  0  0  0
  160.1360  206.2000  147.1520 O   0  0  0  0  0  1  0  0  0  0  0  0
  1 21  1  1  0  0  0
  1 20  1  0  0  0  0
  1 19  1  0  0  0  0
  2  7  1  0  0  0  0
  4  7  2  0  0  0  0
  4 12  1  0  0  0  0
  5 11  1  1  0  0  0
  5 18  1  0  0  0  0
  6 17  1  0  0  0  0
  6  9  2  0  0  0  0
  7  5  1  0  0  0  0
  9  4  1  0  0  0  0
 10 15  1  1  0  0  0
 12  8  1  0  0  0  0
 13 15  1  0  0  0  0
 14 10  1  0  0  0  0
 14  3  1  1  0  0  0
 16  6  1  0  0  0  0
 17  2  2  0  0  0  0
 18  8  1  6  0  0  0
 18 14  1  0  0  0  0
 19 13  1  0  0  0  0
 20 11  1  6  0  0  0
 20 10  1  0  0  0  0
 22 21  1  0  0  0  0
 23 24  1  0  0  0  0
 24 22  1  0  0  0  0
 25 22  1  0  0  0  0
 26 23  1  0  0  0  0
 26 25  1  0  0  0  0
 27 23  1  0  0  0  0
 28 23  1  0  0  0  0
M  END
>  <MODEL>
8

>  <REMARK>
 VINA RESULT:      -7.8      3.772      7.732
  Name = 
  2 active torsions:
  status: ('A' for Active; 'I' for Inactive)
    1  A    between atoms: C_1  and  C_2
    2  A    between atoms: C_2  and  N_3
                            x       y       z     vdW  Elec       q    Type
                         _______ _______ _______ _____ _____    ______ ____

>  <TORSDO>
F 2

$$$$
=
 OpenBabel11052422563D

 28 32  0  0  1  0  0  0  0  0999 V2000
  160.8020  206.2820  150.2760 C   0  0  1  0  0  3  0  0  0  0  0  0
  160.4380  210.9120  151.4480 C   0  0  0  0  0  3  0  0  0  0  0  0
  161.3410  205.7080  154.6770 O   0  0  0  0  0  1  0  0  0  0  0  0
  160.0010  210.5540  153.8120 C   0  0  0  0  0  0  0  0  0  0  0  0
  160.6870  208.5750  152.3660 C   0  0  1  0  0  3  0  0  0  0  0  0
  159.7350  212.7600  152.8420 C   0  0  0  0  0  0  0  0  0  0  0  0
  160.4190  210.0510  152.5560 C   0  0  0  0  0  0  0  0  0  0  0  0
  159.8720  208.2040  154.6920 C   0  0  0  0  0  2  0  0  0  0  0  0
  159.6820  211.9090  153.9470 C   0  0  0  0  0  3  0  0  0  0  0  0
  162.1530  206.0190  152.4420 C   0  0  1  0  0  3  0  0  0  0  0  0
  161.8410  208.3090  151.3980 C   0  0  0  0  0  2  0  0  0  0  0  0
  159.9670  209.6860  155.0390 C   0  0  0  0  0  2  0  0  0  0  0  0
  161.8390  204.0420  150.8160 C   0  0  0  0  0  2  0  0  0  0  0  0
  161.0540  206.3440  153.4660 C   0  0  2  0  0  3  0  0  0  0  0  0
  162.2520  204.4980  152.2170 C   0  0  0  0  0  2  0  0  0  0  0  0
  159.3280  214.4530  153.0210 Cl  0  0  0  0  0  0  0  0  0  0  0  0
  160.1070  212.2610  151.5910 C   0  0  0  0  0  3  0  0  0  0  0  0
  160.9660  207.8550  153.6910 C   0  0  1  0  0  3  0  0  0  0  0  0
  160.5780  204.7660  150.3610 C   0  0  0  0  0  2  0  0  0  0  0  0
  161.9760  206.8100  151.1260 C   0  0  2  0  0  3  0  0  0  0  0  0
  160.7570  206.8550  148.8410 C   0  0  0  0  0  2  0  0  0  0  0  0
  160.6190  205.8950  147.7320 N   0  0  0  0  0  0  0  0  0  0  0  0
  161.9850  204.7280  146.1570 C   0  0  0  0  0  0  0  0  0  0  0  0
  161.8130  205.0700  147.6200 C   0  0  0  0  0  2  0  0  0  0  0  0
  160.4270  206.5470  146.4420 C   0  0  0  0  0  2  0  0  0  0  0  0
  161.1350  205.7140  145.3930 C   0  0  0  0  0  2  0  0  0  0  0  0
  163.3230  204.8510  145.7860 O   0  0  0  0  0  1  0  0  0  0  0  0
  161.5420  203.4280  145.9140 O   0  0  0  0  0  1  0  0  0  0  0  0
  1 21  1  6  0  0  0
  1 19  1  0  0  0  0
  1 20  1  0  0  0  0
  2 17  2  0  0  0  0
  2  7  1  0  0  0  0
  4  9  1  0  0  0  0
  4 12  1  0  0  0  0
  5 11  1  6  0  0  0
  5  7  1  0  0  0  0
  5 18  1  0  0  0  0
  6 16  1  0  0  0  0
  6  9  2  0  0  0  0
  7  4  2  0  0  0  0
  8 12  1  0  0  0  0
 10 15  1  6  0  0  0
 10 14  1  0  0  0  0
 13 15  1  0  0  0  0
 14 18  1  0  0  0  0
 14  3  1  1  0  0  0
 17  6  1  0  0  0  0
 18  8  1  1  0  0  0
 19 13  1  0  0  0  0
 20 11  1  1  0  0  0
 20 10  1  0  0  0  0
 22 21  1  0  0  0  0
 23 24  1  0  0  0  0
 24 22  1  0  0  0  0
 25 22  1  0  0  0  0
 26 23  1  0  0  0  0
 26 25  1  0  0  0  0
 27 23  1  0  0  0  0
 28 23  1  0  0  0  0
M  END
>  <MODEL>
9

>  <REMARK>
 VINA RESULT:      -7.5      3.899      8.405
  Name = 
  2 active torsions:
  status: ('A' for Active; 'I' for Inactive)
    1  A    between atoms: C_1  and  C_2
    2  A    between atoms: C_2  and  N_3
                            x       y       z     vdW  Elec       q    Type
                         _______ _______ _______ _____ _____    ______ ____

>  <TORSDO>
F 2

$$$$
