=
 OpenBabel11052422013D

 30 35  0  0  1  0  0  0  0  0999 V2000
  161.8260  206.7010  149.7870 C   0  0  1  0  0  3  0  0  0  0  0  0
  162.0370  210.1820  151.3170 C   0  0  0  0  0  2  0  0  0  0  0  0
  161.9580  206.3610  152.6540 N   0  0  0  0  0  2  0  0  0  0  0  0
  160.8980  205.4450  149.8140 C   0  0  1  0  0  3  0  0  0  0  0  0
  161.8370  207.2800  148.5000 O   0  0  0  0  0  0  0  0  0  0  0  0
  161.8650  201.5380  147.6600 C   0  0  0  0  0  2  0  0  0  0  0  0
  161.4740  205.2290  147.3290 C   0  0  1  0  0  3  0  0  0  0  0  0
  159.9880  203.3600  151.0940 C   0  0  0  0  0  2  0  0  0  0  0  0
  161.0900  204.2970  153.5850 O   0  0  0  0  0  1  0  0  0  0  0  0
  162.4340  206.3760  147.6080 C   0  0  0  0  0  2  0  0  0  0  0  0
  161.2560  204.4890  148.6540 C   0  0  2  0  0  3  0  0  0  0  0  0
  162.2000  210.3650  152.8280 C   0  0  0  0  0  2  0  0  0  0  0  0
  160.2820  202.4770  149.8810 C   0  0  2  0  0  3  0  0  0  0  0  0
  161.7210  200.8070  148.9890 C   0  0  0  0  0  2  0  0  0  0  0  0
  162.5590  208.8380  150.8370 C   0  0  0  0  0  2  0  0  0  0  0  0
  160.9840  207.3100  152.1400 C   0  0  2  0  0  3  0  0  0  0  0  0
  161.8700  209.1280  153.6640 C   0  0  0  0  0  2  0  0  0  0  0  0
  161.4150  207.8230  150.7600 C   0  0  2  0  0  3  0  0  0  0  0  0
  162.1930  204.2840  151.5520 O   0  0  0  0  0  0  0  0  0  0  0  0
  161.3990  205.0360  152.4410 C   0  0  2  0  0  0  0  0  0  0  0  0
  160.8850  204.5970  151.1120 C   0  0  1  0  0  0  0  0  0  0  0  0
  161.5520  201.7740  150.0700 N   0  0  0  0  0  2  0  0  0  0  0  0
  160.6060  202.3570  147.3940 C   0  0  0  0  0  2  0  0  0  0  0  0
  160.6280  208.4010  153.1610 C   0  0  2  0  0  3  0  0  0  0  0  0
  159.8850  207.7910  154.3340 C   0  0  0  0  0  1  0  0  0  0  0  0
  160.2840  203.2920  148.5680 C   0  0  2  0  0  3  0  0  0  0  0  0
  160.1720  205.7640  146.7390 C   0  0  0  0  0  2  0  0  0  0  0  0
  160.3740  206.1260  145.2830 C   0  0  0  0  0  2  0  0  0  0  0  0
  161.0240  204.9660  144.5600 C   0  0  0  0  0  2  0  0  0  0  0  0
  160.0070  203.8620  144.3640 C   0  0  0  0  0  1  0  0  0  0  0  0
  1  5  1  6  0  0  0
  1  4  1  0  0  0  0
  1 18  1  0  0  0  0
  2 12  1  0  0  0  0
  4 21  1  0  0  0  0
  6 14  1  0  0  0  0
  7 10  1  0  0  0  0
  7 11  1  0  0  0  0
  8 21  1  0  0  0  0
 10  5  1  0  0  0  0
 11  4  1  0  0  0  0
 12 17  1  0  0  0  0
 13 22  1  0  0  0  0
 13  8  1  0  0  0  0
 14 22  1  0  0  0  0
 15  2  1  0  0  0  0
 16  3  1  0  0  0  0
 16 24  1  0  0  0  0
 18 15  1  0  0  0  0
 18 16  1  0  0  0  0
 19 20  1  0  0  0  0
 20  3  1  0  0  0  0
 20  9  1  0  0  0  0
 21 19  1  0  0  0  0
 21 20  1  0  0  0  0
 23  6  1  0  0  0  0
 23 26  1  0  0  0  0
 24 17  1  0  0  0  0
 24 25  1  0  0  0  0
 26 11  1  0  0  0  0
 26 13  1  0  0  0  0
 27  7  1  0  0  0  0
 28 27  1  0  0  0  0
 29 28  1  0  0  0  0
 30 29  1  0  0  0  0
M  END
>  <MODEL>
1

>  <REMARK>
 VINA RESULT:      -6.2      0.000      0.000
  Name = 
  3 active torsions:
  status: ('A' for Active; 'I' for Inactive)
    1  A    between atoms: C_6  and  C_8
    2  A    between atoms: C_6  and  C_21
    3  A    between atoms: C_9  and  C_21
                            x       y       z     vdW  Elec       q    Type
                         _______ _______ _______ _____ _____    ______ ____

>  <TORSDO>
F 3

$$$$
=
 OpenBabel11052422013D

 30 35  0  0  1  0  0  0  0  0999 V2000
  160.6310  204.2020  149.9750 C   0  0  1  0  0  3  0  0  0  0  0  0
  160.9650  205.1430  153.6500 C   0  0  0  0  0  2  0  0  0  0  0  0
  160.6130  207.0890  150.1170 N   0  0  0  0  0  2  0  0  0  0  0  0
  161.3860  204.4050  148.6230 C   0  0  1  0  0  3  0  0  0  0  0  0
  160.6260  202.8380  150.3380 O   0  0  0  0  0  0  0  0  0  0  0  0
  159.7960  202.9580  144.5960 C   0  0  0  0  0  2  0  0  0  0  0  0
  160.6510  202.0100  148.0960 C   0  0  1  0  0  3  0  0  0  0  0  0
  162.0830  205.9820  146.6620 C   0  0  0  0  0  2  0  0  0  0  0  0
  161.2520  208.3180  148.1270 O   0  0  0  0  0  1  0  0  0  0  0  0
  159.8670  202.1280  149.3950 C   0  0  0  0  0  2  0  0  0  0  0  0
  160.8420  203.4310  147.5530 C   0  0  2  0  0  3  0  0  0  0  0  0
  160.9110  206.6070  154.0920 C   0  0  0  0  0  2  0  0  0  0  0  0
  161.6090  204.9410  145.6470 C   0  0  2  0  0  3  0  0  0  0  0  0
  159.9150  204.3840  144.0720 C   0  0  0  0  0  2  0  0  0  0  0  0
  160.2450  204.9080  152.3320 C   0  0  0  0  0  2  0  0  0  0  0  0
  161.6740  206.3930  150.8280 C   0  0  2  0  0  3  0  0  0  0  0  0
  161.1210  207.6240  152.9690 C   0  0  0  0  0  2  0  0  0  0  0  0
  161.2390  204.9620  151.1690 C   0  0  2  0  0  3  0  0  0  0  0  0
  160.0470  206.3530  147.9440 O   0  0  0  0  0  0  0  0  0  0  0  0
  160.9800  207.0790  148.7100 C   0  0  2  0  0  0  0  0  0  0  0  0
  161.3590  205.8250  147.9990 C   0  0  1  0  0  0  0  0  0  0  0  0
  160.2690  205.2850  145.1660 N   0  0  0  0  0  2  0  0  0  0  0  0
  161.1350  202.5200  145.1790 C   0  0  0  0  0  2  0  0  0  0  0  0
  162.2270  207.2080  152.0060 C   0  0  2  0  0  3  0  0  0  0  0  0
  162.9460  208.4410  151.4940 C   0  0  0  0  0  1  0  0  0  0  0  0
  161.6420  203.5120  146.2350 C   0  0  2  0  0  3  0  0  0  0  0  0
  161.9780  201.2980  148.3440 C   0  0  0  0  0  2  0  0  0  0  0  0
  161.9190  199.8880  147.7940 C   0  0  0  0  0  2  0  0  0  0  0  0
  161.1230  199.8820  146.5080 C   0  0  0  0  0  2  0  0  0  0  0  0
  161.4770  198.6500  145.7030 C   0  0  0  0  0  1  0  0  0  0  0  0
  1  5  1  1  0  0  0
  1 18  1  0  0  0  0
  2 12  1  0  0  0  0
  3 16  1  0  0  0  0
  4  1  1  0  0  0  0
  6 23  1  0  0  0  0
  7 27  1  0  0  0  0
  7 10  1  0  0  0  0
  8 21  1  0  0  0  0
  9 20  1  0  0  0  0
 10  5  1  0  0  0  0
 11  7  1  0  0  0  0
 11  4  1  0  0  0  0
 13 26  1  0  0  0  0
 13  8  1  0  0  0  0
 14  6  1  0  0  0  0
 14 22  1  0  0  0  0
 15  2  1  0  0  0  0
 16 18  1  0  0  0  0
 16 24  1  0  0  0  0
 17 12  1  0  0  0  0
 18 15  1  0  0  0  0
 19 21  1  0  0  0  0
 19 20  1  0  0  0  0
 20  3  1  0  0  0  0
 21  4  1  0  0  0  0
 21 20  1  0  0  0  0
 22 13  1  0  0  0  0
 23 26  1  0  0  0  0
 24 17  1  0  0  0  0
 25 24  1  0  0  0  0
 26 11  1  0  0  0  0
 28 27  1  0  0  0  0
 29 28  1  0  0  0  0
 30 29  1  0  0  0  0
M  END
>  <MODEL>
2

>  <REMARK>
 VINA RESULT:      -6.1      1.888      4.438
  Name = 
  3 active torsions:
  status: ('A' for Active; 'I' for Inactive)
    1  A    between atoms: C_6  and  C_8
    2  A    between atoms: C_6  and  C_21
    3  A    between atoms: C_9  and  C_21
                            x       y       z     vdW  Elec       q    Type
                         _______ _______ _______ _____ _____    ______ ____

>  <TORSDO>
F 3

$$$$
=
 OpenBabel11052422013D

 30 35  0  0  1  0  0  0  0  0999 V2000
  162.0100  206.3950  148.6890 C   0  0  1  0  0  3  0  0  0  0  0  0
  162.3510  210.1810  148.9120 C   0  0  0  0  0  2  0  0  0  0  0  0
  162.1420  207.0710  151.4960 N   0  0  0  0  0  2  0  0  0  0  0  0
  161.0380  205.2600  149.1430 C   0  0  1  0  0  3  0  0  0  0  0  0
  162.0360  206.4880  147.2800 O   0  0  0  0  0  0  0  0  0  0  0  0
  161.8560  200.8160  148.4930 C   0  0  0  0  0  2  0  0  0  0  0  0
  161.5950  204.1720  146.8940 C   0  0  1  0  0  3  0  0  0  0  0  0
  160.0590  203.7850  151.0620 C   0  0  0  0  0  2  0  0  0  0  0  0
  161.2040  205.4920  153.0790 O   0  0  0  0  0  1  0  0  0  0  0  0
  162.5970  205.3100  146.7640 C   0  0  0  0  0  2  0  0  0  0  0  0
  161.3570  203.9480  148.3920 C   0  0  2  0  0  3  0  0  0  0  0  0
  162.5280  210.8730  150.2650 C   0  0  0  0  0  2  0  0  0  0  0  0
  160.3160  202.5250  150.2350 C   0  0  2  0  0  3  0  0  0  0  0  0
  161.6910  200.5990  149.9920 C   0  0  0  0  0  2  0  0  0  0  0  0
  162.8230  208.7370  148.9340 C   0  0  0  0  0  2  0  0  0  0  0  0
  161.2010  207.8150  150.6740 C   0  0  2  0  0  3  0  0  0  0  0  0
  162.1570  210.0170  151.4770 C   0  0  0  0  0  2  0  0  0  0  0  0
  161.6440  207.7990  149.2060 C   0  0  2  0  0  3  0  0  0  0  0  0
  162.2980  204.7330  151.1880 O   0  0  0  0  0  0  0  0  0  0  0  0
  161.5350  205.7750  151.7530 C   0  0  2  0  0  0  0  0  0  0  0  0
  161.0000  204.9190  150.6550 C   0  0  1  0  0  0  0  0  0  0  0  0
  161.5610  201.8880  150.6680 N   0  0  0  0  0  2  0  0  0  0  0  0
  160.6260  201.5350  147.9480 C   0  0  0  0  0  2  0  0  0  0  0  0
  160.8880  209.2040  151.2490 C   0  0  2  0  0  3  0  0  0  0  0  0
  160.1280  209.0680  152.5550 C   0  0  0  0  0  1  0  0  0  0  0  0
  160.3420  202.8310  148.7200 C   0  0  2  0  0  3  0  0  0  0  0  0
  160.3110  204.5130  146.1440 C   0  0  0  0  0  2  0  0  0  0  0  0
  160.4280  204.0860  144.6960 C   0  0  0  0  0  2  0  0  0  0  0  0
  159.3650  203.0560  144.3850 C   0  0  0  0  0  2  0  0  0  0  0  0
  159.8830  201.6770  144.7330 C   0  0  0  0  0  1  0  0  0  0  0  0
  1  5  1  6  0  0  0
  1  4  1  0  0  0  0
  1 18  1  0  0  0  0
  2 15  1  0  0  0  0
  2 12  1  0  0  0  0
  3 20  1  0  0  0  0
  4 21  1  0  0  0  0
  6 14  1  0  0  0  0
  7 11  1  0  0  0  0
 10  7  1  0  0  0  0
 10  5  1  0  0  0  0
 11 26  1  0  0  0  0
 11  4  1  0  0  0  0
 12 17  1  0  0  0  0
 13 22  1  0  0  0  0
 13  8  1  0  0  0  0
 14 22  1  0  0  0  0
 15 18  1  0  0  0  0
 16 24  1  0  0  0  0
 16  3  1  0  0  0  0
 18 16  1  0  0  0  0
 19 20  1  0  0  0  0
 20  9  1  0  0  0  0
 21  8  1  0  0  0  0
 21 19  1  0  0  0  0
 21 20  1  0  0  0  0
 23  6  1  0  0  0  0
 23 26  1  0  0  0  0
 24 17  1  0  0  0  0
 24 25  1  0  0  0  0
 26 13  1  0  0  0  0
 27  7  1  0  0  0  0
 28 27  1  0  0  0  0
 29 28  1  0  0  0  0
 29 30  1  0  0  0  0
M  END
>  <MODEL>
3

>  <REMARK>
 VINA RESULT:      -5.8      1.157      1.540
  Name = 
  3 active torsions:
  status: ('A' for Active; 'I' for Inactive)
    1  A    between atoms: C_6  and  C_8
    2  A    between atoms: C_6  and  C_21
    3  A    between atoms: C_9  and  C_21
                            x       y       z     vdW  Elec       q    Type
                         _______ _______ _______ _____ _____    ______ ____

>  <TORSDO>
F 3

$$$$
=
 OpenBabel11052422013D

 30 35  0  0  1  0  0  0  0  0999 V2000
  160.6040  206.3860  153.0800 C   0  0  1  0  0  3  0  0  0  0  0  0
  160.3350  207.2180  156.7870 C   0  0  0  0  0  2  0  0  0  0  0  0
  160.6550  209.2670  153.3100 N   0  0  0  0  0  2  0  0  0  0  0  0
  161.5850  206.5970  151.8840 C   0  0  1  0  0  3  0  0  0  0  0  0
  160.4930  205.0150  153.3930 O   0  0  0  0  0  0  0  0  0  0  0  0
  160.6620  205.3160  147.6000 C   0  0  0  0  0  2  0  0  0  0  0  0
  160.8750  204.2450  151.1630 C   0  0  1  0  0  3  0  0  0  0  0  0
  162.6580  208.1970  150.1210 C   0  0  0  0  0  2  0  0  0  0  0  0
  161.6650  210.5230  151.4980 O   0  0  0  0  0  1  0  0  0  0  0  0
  159.8840  204.3580  152.3120 C   0  0  0  0  0  2  0  0  0  0  0  0
  161.2010  205.6720  150.7060 C   0  0  2  0  0  3  0  0  0  0  0  0
  160.2520  208.6710  157.2600 C   0  0  0  0  0  2  0  0  0  0  0  0
  162.3320  207.2010  149.0080 C   0  0  2  0  0  3  0  0  0  0  0  0
  160.9150  206.7490  147.1510 C   0  0  0  0  0  2  0  0  0  0  0  0
  159.8430  207.0450  155.3590 C   0  0  0  0  0  2  0  0  0  0  0  0
  161.5560  208.5140  154.1680 C   0  0  2  0  0  3  0  0  0  0  0  0
  160.6840  209.7090  156.2230 C   0  0  0  0  0  2  0  0  0  0  0  0
  161.0230  207.0920  154.3840 C   0  0  2  0  0  3  0  0  0  0  0  0
  160.4460  208.6090  151.0500 O   0  0  0  0  0  0  0  0  0  0  0  0
  161.2570  209.2800  151.9860 C   0  0  2  0  0  0  0  0  0  0  0  0
  161.7110  208.0320  151.3100 C   0  0  1  0  0  0  0  0  0  0  0  0
  161.1060  207.6070  148.3170 N   0  0  0  0  0  2  0  0  0  0  0  0
  161.8670  204.8130  148.3880 C   0  0  0  0  0  2  0  0  0  0  0  0
  161.9240  209.2770  155.4490 C   0  0  2  0  0  3  0  0  0  0  0  0
  162.7600  210.4950  155.1060 C   0  0  0  0  0  1  0  0  0  0  0  0
  162.2170  205.7580  149.5460 C   0  0  2  0  0  3  0  0  0  0  0  0
  162.1160  203.4780  151.6100 C   0  0  0  0  0  2  0  0  0  0  0  0
  161.9980  202.0230  151.2080 C   0  0  0  0  0  2  0  0  0  0  0  0
  160.8140  201.8500  150.2820 C   0  0  0  0  0  2  0  0  0  0  0  0
  161.2110  200.9700  149.1160 C   0  0  0  0  0  1  0  0  0  0  0  0
  1  5  1  1  0  0  0
  1 18  1  0  0  0  0
  2 12  1  0  0  0  0
  3 16  1  0  0  0  0
  4  1  1  0  0  0  0
  6 23  1  0  0  0  0
  7 27  1  0  0  0  0
  7 10  1  0  0  0  0
  8 21  1  0  0  0  0
  9 20  1  0  0  0  0
 10  5  1  0  0  0  0
 11  7  1  0  0  0  0
 11  4  1  0  0  0  0
 13 26  1  0  0  0  0
 13  8  1  0  0  0  0
 14  6  1  0  0  0  0
 14 22  1  0  0  0  0
 15  2  1  0  0  0  0
 16 18  1  0  0  0  0
 16 24  1  0  0  0  0
 17 12  1  0  0  0  0
 18 15  1  0  0  0  0
 19 21  1  0  0  0  0
 19 20  1  0  0  0  0
 20  3  1  0  0  0  0
 21  4  1  0  0  0  0
 21 20  1  0  0  0  0
 22 13  1  0  0  0  0
 23 26  1  0  0  0  0
 24 17  1  0  0  0  0
 25 24  1  0  0  0  0
 26 11  1  0  0  0  0
 28 27  1  0  0  0  0
 29 28  1  0  0  0  0
 30 29  1  0  0  0  0
M  END
>  <MODEL>
4

>  <REMARK>
 VINA RESULT:      -5.4      2.075      4.810
  Name = 
  3 active torsions:
  status: ('A' for Active; 'I' for Inactive)
    1  A    between atoms: C_6  and  C_8
    2  A    between atoms: C_6  and  C_21
    3  A    between atoms: C_9  and  C_21
                            x       y       z     vdW  Elec       q    Type
                         _______ _______ _______ _____ _____    ______ ____

>  <TORSDO>
F 3

$$$$
=
 OpenBabel11052422013D

 30 35  0  0  1  0  0  0  0  0999 V2000
  160.9290  211.4180  151.3510 C   0  0  1  0  0  3  0  0  0  0  0  0
  161.2720  212.4700  147.7070 C   0  0  0  0  0  2  0  0  0  0  0  0
  159.5250  213.9270  151.0560 N   0  0  0  0  0  2  0  0  0  0  0  0
  159.8140  211.0680  152.3870 C   0  0  1  0  0  3  0  0  0  0  0  0
  161.7310  210.2870  151.0860 O   0  0  0  0  0  0  0  0  0  0  0  0
  160.6410  210.1650  156.7850 C   0  0  0  0  0  2  0  0  0  0  0  0
  161.4650  209.3130  153.2520 C   0  0  1  0  0  3  0  0  0  0  0  0
  157.8710  211.8600  153.9400 C   0  0  0  0  0  2  0  0  0  0  0  0
  157.7960  214.4460  152.6750 O   0  0  0  0  0  1  0  0  0  0  0  0
  162.4260  209.9480  152.2570 C   0  0  0  0  0  2  0  0  0  0  0  0
  160.4310  210.3810  153.6260 C   0  0  2  0  0  3  0  0  0  0  0  0
  160.7060  213.8060  147.2210 C   0  0  0  0  0  2  0  0  0  0  0  0
  158.4810  211.0870  155.1090 C   0  0  2  0  0  3  0  0  0  0  0  0
  159.6680  211.2740  157.1620 C   0  0  0  0  0  2  0  0  0  0  0  0
  161.5830  212.4800  149.1940 C   0  0  0  0  0  2  0  0  0  0  0  0
  159.2290  212.8800  150.0920 C   0  0  2  0  0  3  0  0  0  0  0  0
  159.6880  214.4530  148.1620 C   0  0  0  0  0  2  0  0  0  0  0  0
  160.4060  211.9030  149.9850 C   0  0  2  0  0  3  0  0  0  0  0  0
  159.7120  213.3330  153.3360 O   0  0  0  0  0  0  0  0  0  0  0  0
  158.8160  213.5800  152.2770 C   0  0  2  0  0  0  0  0  0  0  0  0
  158.9330  212.2330  152.9060 C   0  0  1  0  0  0  0  0  0  0  0  0
  159.2490  211.9950  155.9630 N   0  0  0  0  0  2  0  0  0  0  0  0
  159.9510  209.1870  155.8400 C   0  0  0  0  0  2  0  0  0  0  0  0
  158.7180  213.4380  148.7550 C   0  0  2  0  0  3  0  0  0  0  0  0
  157.3590  214.0850  148.9470 C   0  0  0  0  0  1  0  0  0  0  0  0
  159.3510  209.9060  154.6240 C   0  0  2  0  0  3  0  0  0  0  0  0
  160.8240  208.0680  152.6440 C   0  0  0  0  0  2  0  0  0  0  0  0
  161.3660  206.8250  153.3200 C   0  0  0  0  0  2  0  0  0  0  0  0
  161.8170  205.8360  152.2680 C   0  0  0  0  0  2  0  0  0  0  0  0
  161.4640  206.3650  150.8940 C   0  0  0  0  0  1  0  0  0  0  0  0
  1  5  1  6  0  0  0
  1  4  1  0  0  0  0
  2 15  1  0  0  0  0
  3 20  1  0  0  0  0
  4 21  1  0  0  0  0
  4 11  1  0  0  0  0
  5 10  1  0  0  0  0
  6 14  1  0  0  0  0
  7 11  1  0  0  0  0
  8 13  1  0  0  0  0
 10  7  1  0  0  0  0
 11 26  1  0  0  0  0
 12  2  1  0  0  0  0
 12 17  1  0  0  0  0
 13 22  1  0  0  0  0
 15 18  1  0  0  0  0
 16  3  1  0  0  0  0
 17 24  1  0  0  0  0
 18 16  1  0  0  0  0
 18  1  1  0  0  0  0
 20  9  1  0  0  0  0
 20 21  1  0  0  0  0
 20 19  1  0  0  0  0
 21 19  1  0  0  0  0
 21  8  1  0  0  0  0
 22 14  1  0  0  0  0
 23  6  1  0  0  0  0
 24 25  1  0  0  0  0
 24 16  1  0  0  0  0
 26 13  1  0  0  0  0
 26 23  1  0  0  0  0
 27  7  1  0  0  0  0
 27 28  1  0  0  0  0
 29 28  1  0  0  0  0
 30 29  1  0  0  0  0
M  END
>  <MODEL>
5

>  <REMARK>
 VINA RESULT:      -4.4      4.589      8.287
  Name = 
  3 active torsions:
  status: ('A' for Active; 'I' for Inactive)
    1  A    between atoms: C_6  and  C_8
    2  A    between atoms: C_6  and  C_21
    3  A    between atoms: C_9  and  C_21
                            x       y       z     vdW  Elec       q    Type
                         _______ _______ _______ _____ _____    ______ ____

>  <TORSDO>
F 3

$$$$
=
 OpenBabel11052422013D

 30 35  0  0  1  0  0  0  0  0999 V2000
  160.8830  205.2590  148.0930 C   0  0  1  0  0  3  0  0  0  0  0  0
  160.7050  202.9650  145.0580 C   0  0  0  0  0  2  0  0  0  0  0  0
  160.2260  202.6170  149.0640 N   0  0  0  0  0  2  0  0  0  0  0  0
  161.6830  205.4050  149.4270 C   0  0  1  0  0  3  0  0  0  0  0  0
  161.1460  206.3500  147.2370 O   0  0  0  0  0  0  0  0  0  0  0  0
  160.7790  208.5770  152.5830 C   0  0  0  0  0  2  0  0  0  0  0  0
  161.5330  207.9240  148.9930 C   0  0  1  0  0  3  0  0  0  0  0  0
  162.1770  204.5590  151.8470 C   0  0  0  0  0  2  0  0  0  0  0  0
  160.7410  202.1070  151.3770 O   0  0  0  0  0  1  0  0  0  0  0  0
  160.6390  207.5160  147.8310 C   0  0  0  0  0  2  0  0  0  0  0  0
  161.4530  206.8060  150.0390 C   0  0  2  0  0  3  0  0  0  0  0  0
  160.2970  201.4980  145.2080 C   0  0  0  0  0  2  0  0  0  0  0  0
  162.0250  205.9820  152.3830 C   0  0  2  0  0  3  0  0  0  0  0  0
  160.6270  207.4640  153.6120 C   0  0  0  0  0  2  0  0  0  0  0  0
  160.1630  203.8350  146.1800 C   0  0  0  0  0  2  0  0  0  0  0  0
  161.3510  202.7310  148.1500 C   0  0  2  0  0  3  0  0  0  0  0  0
  160.3710  200.9540  146.6360 C   0  0  0  0  0  2  0  0  0  0  0  0
  161.2120  203.9890  147.2850 C   0  0  2  0  0  3  0  0  0  0  0  0
  160.0120  204.2200  150.7860 O   0  0  0  0  0  0  0  0  0  0  0  0
  160.6990  203.0650  150.3630 C   0  0  2  0  0  0  0  0  0  0  0  0
  161.3980  204.3700  150.5450 C   0  0  1  0  0  0  0  0  0  0  0  0
  160.6860  206.1640  152.9480 N   0  0  0  0  0  2  0  0  0  0  0  0
  162.1290  208.4420  151.8880 C   0  0  0  0  0  2  0  0  0  0  0  0
  161.6150  201.4300  147.3760 C   0  0  2  0  0  3  0  0  0  0  0  0
  162.0880  200.3470  148.3260 C   0  0  0  0  0  1  0  0  0  0  0  0
  162.3200  207.0390  151.2950 C   0  0  2  0  0  3  0  0  0  0  0  0
  162.9580  208.1630  148.5030 C   0  0  0  0  0  2  0  0  0  0  0  0
  163.1530  209.6280  148.1730 C   0  0  0  0  0  2  0  0  0  0  0  0
  162.0360  210.4380  148.7930 C   0  0  0  0  0  2  0  0  0  0  0  0
  162.2640  211.9080  148.5140 C   0  0  0  0  0  1  0  0  0  0  0  0
  1  5  1  6  0  0  0
  1  4  1  0  0  0  0
  2 12  1  0  0  0  0
  2 15  1  0  0  0  0
  3 20  1  0  0  0  0
  4 11  1  0  0  0  0
  4 21  1  0  0  0  0
  5 10  1  0  0  0  0
  6 14  1  0  0  0  0
  7 11  1  0  0  0  0
  8 13  1  0  0  0  0
 10  7  1  0  0  0  0
 11 26  1  0  0  0  0
 12 17  1  0  0  0  0
 13 22  1  0  0  0  0
 15 18  1  0  0  0  0
 16  3  1  0  0  0  0
 17 24  1  0  0  0  0
 18  1  1  0  0  0  0
 18 16  1  0  0  0  0
 20 21  1  0  0  0  0
 20 19  1  0  0  0  0
 20  9  1  0  0  0  0
 21 19  1  0  0  0  0
 21  8  1  0  0  0  0
 22 14  1  0  0  0  0
 23  6  1  0  0  0  0
 24 16  1  0  0  0  0
 24 25  1  0  0  0  0
 26 23  1  0  0  0  0
 26 13  1  0  0  0  0
 27  7  1  0  0  0  0
 28 27  1  0  0  0  0
 28 29  1  0  0  0  0
 30 29  1  0  0  0  0
M  END
>  <MODEL>
6

>  <REMARK>
 VINA RESULT:      -4.4      1.676      6.319
  Name = 
  3 active torsions:
  status: ('A' for Active; 'I' for Inactive)
    1  A    between atoms: C_6  and  C_8
    2  A    between atoms: C_6  and  C_21
    3  A    between atoms: C_9  and  C_21
                            x       y       z     vdW  Elec       q    Type
                         _______ _______ _______ _____ _____    ______ ____

>  <TORSDO>
F 3

$$$$
=
 OpenBabel11052422013D

 30 35  0  0  1  0  0  0  0  0999 V2000
  161.5970  203.1030  148.9420 C   0  0  1  0  0  3  0  0  0  0  0  0
  161.1730  199.5430  147.6580 C   0  0  0  0  0  2  0  0  0  0  0  0
  161.7730  203.2140  146.0590 N   0  0  0  0  0  2  0  0  0  0  0  0
  160.9090  204.5000  148.8210 C   0  0  1  0  0  3  0  0  0  0  0  0
  161.5100  202.6220  150.2660 O   0  0  0  0  0  0  0  0  0  0  0  0
  162.5710  208.3110  150.7070 C   0  0  0  0  0  2  0  0  0  0  0  0
  161.5270  204.7820  151.2890 C   0  0  1  0  0  3  0  0  0  0  0  0
  160.3800  206.6200  147.3930 C   0  0  0  0  0  2  0  0  0  0  0  0
  161.2830  205.3300  144.9810 O   0  0  0  0  0  1  0  0  0  0  0  0
  162.2640  203.4650  151.0970 C   0  0  0  0  0  2  0  0  0  0  0  0
  161.4380  205.4550  149.9150 C   0  0  2  0  0  3  0  0  0  0  0  0
  161.2930  199.2290  146.1650 C   0  0  0  0  0  2  0  0  0  0  0  0
  160.8330  207.5180  148.5440 C   0  0  2  0  0  3  0  0  0  0  0  0
  162.5530  208.9620  149.3290 C   0  0  0  0  0  2  0  0  0  0  0  0
  161.9300  200.8020  148.0480 C   0  0  0  0  0  2  0  0  0  0  0  0
  160.6480  202.4930  146.6310 C   0  0  2  0  0  3  0  0  0  0  0  0
  161.1850  200.4450  145.2430 C   0  0  0  0  0  2  0  0  0  0  0  0
  160.9870  202.0080  148.0460 C   0  0  2  0  0  3  0  0  0  0  0  0
  162.3810  205.2870  147.0160 O   0  0  0  0  0  0  0  0  0  0  0  0
  161.4620  204.6300  146.1760 C   0  0  2  0  0  0  0  0  0  0  0  0
  161.0410  205.2440  147.4670 C   0  0  1  0  0  0  0  0  0  0  0  0
  162.2080  207.9680  148.3160 N   0  0  0  0  0  2  0  0  0  0  0  0
  161.1870  207.7510  151.0190 C   0  0  0  0  0  2  0  0  0  0  0  0
  160.0960  201.4150  145.6850 C   0  0  2  0  0  3  0  0  0  0  0  0
  159.4690  202.0650  144.4660 C   0  0  0  0  0  1  0  0  0  0  0  0
  160.6960  206.8100  149.9100 C   0  0  2  0  0  3  0  0  0  0  0  0
  160.1530  204.5310  151.9050 C   0  0  0  0  0  2  0  0  0  0  0  0
  160.1920  204.8160  153.3920 C   0  0  0  0  0  2  0  0  0  0  0  0
  161.2820  205.8240  153.6830 C   0  0  0  0  0  2  0  0  0  0  0  0
  160.7250  206.9280  154.5560 C   0  0  0  0  0  1  0  0  0  0  0  0
  1  5  1  1  0  0  0
  2 15  1  0  0  0  0
  3 20  1  0  0  0  0
  3 16  1  0  0  0  0
  4  1  1  0  0  0  0
  4 11  1  0  0  0  0
  5 10  1  0  0  0  0
  6 23  1  0  0  0  0
  7 27  1  0  0  0  0
  8 21  1  0  0  0  0
  8 13  1  0  0  0  0
  9 20  1  0  0  0  0
 10  7  1  0  0  0  0
 11  7  1  0  0  0  0
 12  2  1  0  0  0  0
 13 26  1  0  0  0  0
 14  6  1  0  0  0  0
 16 18  1  0  0  0  0
 17 24  1  0  0  0  0
 17 12  1  0  0  0  0
 18 15  1  0  0  0  0
 18  1  1  0  0  0  0
 19 21  1  0  0  0  0
 20 19  1  0  0  0  0
 20 21  1  0  0  0  0
 21  4  1  0  0  0  0
 22 13  1  0  0  0  0
 22 14  1  0  0  0  0
 24 16  1  0  0  0  0
 25 24  1  0  0  0  0
 26 11  1  0  0  0  0
 26 23  1  0  0  0  0
 27 28  1  0  0  0  0
 28 29  1  0  0  0  0
 29 30  1  0  0  0  0
M  END
>  <MODEL>
7

>  <REMARK>
 VINA RESULT:      -4.2      2.006      7.520
  Name = 
  3 active torsions:
  status: ('A' for Active; 'I' for Inactive)
    1  A    between atoms: C_6  and  C_8
    2  A    between atoms: C_6  and  C_21
    3  A    between atoms: C_9  and  C_21
                            x       y       z     vdW  Elec       q    Type
                         _______ _______ _______ _____ _____    ______ ____

>  <TORSDO>
F 3

$$$$
=
 OpenBabel11052422013D

 30 35  0  0  1  0  0  0  0  0999 V2000
  162.1170  208.8400  151.5060 C   0  0  1  0  0  3  0  0  0  0  0  0
  161.9790  210.7040  154.8250 C   0  0  0  0  0  2  0  0  0  0  0  0
  161.7880  206.8550  153.5810 N   0  0  0  0  0  2  0  0  0  0  0  0
  161.2320  207.8890  150.6400 C   0  0  1  0  0  3  0  0  0  0  0  0
  162.3220  210.0680  150.8410 O   0  0  0  0  0  0  0  0  0  0  0  0
  162.6440  205.9660  146.7480 C   0  0  0  0  0  2  0  0  0  0  0  0
  162.2110  209.1480  148.6380 C   0  0  1  0  0  3  0  0  0  0  0  0
  160.1820  205.5280  150.2670 C   0  0  0  0  0  2  0  0  0  0  0  0
  160.8360  204.7160  152.9520 O   0  0  0  0  0  1  0  0  0  0  0  0
  163.0810  209.8280  149.6850 C   0  0  0  0  0  2  0  0  0  0  0  0
  161.8000  207.7850  149.2070 C   0  0  2  0  0  3  0  0  0  0  0  0
  161.8880  209.9410  156.1480 C   0  0  0  0  0  2  0  0  0  0  0  0
  160.6940  205.5200  148.8270 C   0  0  2  0  0  3  0  0  0  0  0  0
  162.3050  204.6020  147.3360 C   0  0  0  0  0  2  0  0  0  0  0  0
  162.6090  209.8730  153.7200 C   0  0  0  0  0  2  0  0  0  0  0  0
  160.8860  207.9950  153.6000 C   0  0  2  0  0  3  0  0  0  0  0  0
  161.4600  208.4780  156.0180 C   0  0  0  0  0  2  0  0  0  0  0  0
  161.5220  209.1920  152.8830 C   0  0  2  0  0  3  0  0  0  0  0  0
  162.2560  205.8290  151.5050 O   0  0  0  0  0  0  0  0  0  0  0  0
  161.3080  205.9630  152.5380 C   0  0  2  0  0  0  0  0  0  0  0  0
  161.0290  206.4400  151.1540 C   0  0  1  0  0  0  0  0  0  0  0  0
  161.9350  204.7470  148.7420 N   0  0  0  0  0  2  0  0  0  0  0  0
  161.4240  206.8750  146.8440 C   0  0  0  0  0  2  0  0  0  0  0  0
  160.3370  208.2890  155.0050 C   0  0  2  0  0  3  0  0  0  0  0  0
  159.4300  207.1610  155.4550 C   0  0  0  0  0  1  0  0  0  0  0  0
  160.8880  206.9520  148.2800 C   0  0  2  0  0  3  0  0  0  0  0  0
  161.0090  210.0260  148.3010 C   0  0  0  0  0  2  0  0  0  0  0  0
  161.4590  211.4530  148.0680 C   0  0  0  0  0  2  0  0  0  0  0  0
  160.4640  212.1560  147.1720 C   0  0  0  0  0  2  0  0  0  0  0  0
  161.2070  212.9540  146.1220 C   0  0  0  0  0  1  0  0  0  0  0  0
  1  5  1  6  0  0  0
  1 18  1  0  0  0  0
  2 12  1  0  0  0  0
  3 16  1  0  0  0  0
  4 21  1  0  0  0  0
  4  1  1  0  0  0  0
  6 23  1  0  0  0  0
  6 14  1  0  0  0  0
  7 11  1  0  0  0  0
  7 10  1  0  0  0  0
  8 21  1  0  0  0  0
 10  5  1  0  0  0  0
 11  4  1  0  0  0  0
 13  8  1  0  0  0  0
 14 22  1  0  0  0  0
 15  2  1  0  0  0  0
 16 24  1  0  0  0  0
 17 12  1  0  0  0  0
 18 16  1  0  0  0  0
 18 15  1  0  0  0  0
 19 20  1  0  0  0  0
 20  9  1  0  0  0  0
 20  3  1  0  0  0  0
 21 19  1  0  0  0  0
 21 20  1  0  0  0  0
 22 13  1  0  0  0  0
 23 26  1  0  0  0  0
 24 25  1  0  0  0  0
 24 17  1  0  0  0  0
 26 13  1  0  0  0  0
 26 11  1  0  0  0  0
 27  7  1  0  0  0  0
 28 27  1  0  0  0  0
 29 28  1  0  0  0  0
 30 29  1  0  0  0  0
M  END
>  <MODEL>
8

>  <REMARK>
 VINA RESULT:      -3.8      2.256      3.834
  Name = 
  3 active torsions:
  status: ('A' for Active; 'I' for Inactive)
    1  A    between atoms: C_6  and  C_8
    2  A    between atoms: C_6  and  C_21
    3  A    between atoms: C_9  and  C_21
                            x       y       z     vdW  Elec       q    Type
                         _______ _______ _______ _____ _____    ______ ____

>  <TORSDO>
F 3

$$$$
=
 OpenBabel11052422013D

 30 35  0  0  1  0  0  0  0  0999 V2000
  161.4130  205.7810  151.7210 C   0  0  1  0  0  3  0  0  0  0  0  0
  160.7620  202.7570  149.4980 C   0  0  0  0  0  2  0  0  0  0  0  0
  162.3260  206.4670  149.0660 N   0  0  0  0  0  2  0  0  0  0  0  0
  161.0100  207.2860  151.8280 C   0  0  1  0  0  3  0  0  0  0  0  0
  160.9190  205.0570  152.8280 O   0  0  0  0  0  0  0  0  0  0  0  0
  162.7300  210.1500  154.9390 C   0  0  0  0  0  2  0  0  0  0  0  0
  161.0210  206.8900  154.3580 C   0  0  1  0  0  3  0  0  0  0  0  0
  161.2050  209.7260  150.9220 C   0  0  0  0  0  2  0  0  0  0  0  0
  162.4690  208.8200  148.4980 O   0  0  0  0  0  1  0  0  0  0  0  0
  161.5630  205.5180  153.9870 C   0  0  0  0  0  2  0  0  0  0  0  0
  161.3920  207.8460  153.2170 C   0  0  2  0  0  3  0  0  0  0  0  0
  161.2030  202.7530  148.0330 C   0  0  0  0  0  2  0  0  0  0  0  0
  161.4910  210.2360  152.3350 C   0  0  2  0  0  3  0  0  0  0  0  0
  163.1650  211.0700  153.8050 C   0  0  0  0  0  2  0  0  0  0  0  0
  161.5870  203.7090  150.3490 C   0  0  0  0  0  2  0  0  0  0  0  0
  160.9920  205.9010  149.1870 C   0  0  2  0  0  3  0  0  0  0  0  0
  161.5280  204.1320  147.4560 C   0  0  0  0  0  2  0  0  0  0  0  0
  160.8810  205.0620  150.4660 C   0  0  2  0  0  3  0  0  0  0  0  0
  162.9970  208.1030  150.6330 O   0  0  0  0  0  0  0  0  0  0  0  0
  162.2260  207.8570  149.4800 C   0  0  2  0  0  0  0  0  0  0  0  0
  161.5970  208.2570  150.7710 C   0  0  1  0  0  0  0  0  0  0  0  0
  162.9320  210.4160  152.5200 N   0  0  0  0  0  2  0  0  0  0  0  0
  161.2410  209.8500  154.8030 C   0  0  0  0  0  2  0  0  0  0  0  0
  160.5320  205.1970  147.9010 C   0  0  2  0  0  3  0  0  0  0  0  0
  160.3450  206.2140  146.7910 C   0  0  0  0  0  1  0  0  0  0  0  0
  160.9020  209.2980  153.4120 C   0  0  2  0  0  3  0  0  0  0  0  0
  159.5150  206.8170  154.5900 C   0  0  0  0  0  2  0  0  0  0  0  0
  159.1660  207.4430  155.9250 C   0  0  0  0  0  2  0  0  0  0  0  0
  160.0710  206.8790  156.9980 C   0  0  0  0  0  2  0  0  0  0  0  0
  161.2050  207.8480  157.2600 C   0  0  0  0  0  1  0  0  0  0  0  0
  1  4  1  0  0  0  0
  1  5  1  1  0  0  0
  2 15  1  0  0  0  0
  3 16  1  0  0  0  0
  3 20  1  0  0  0  0
  4 11  1  0  0  0  0
  5 10  1  0  0  0  0
  7 27  1  0  0  0  0
  8 13  1  0  0  0  0
  9 20  1  0  0  0  0
 10  7  1  0  0  0  0
 11 26  1  0  0  0  0
 11  7  1  0  0  0  0
 12  2  1  0  0  0  0
 13 22  1  0  0  0  0
 13 26  1  0  0  0  0
 14  6  1  0  0  0  0
 15 18  1  0  0  0  0
 16 18  1  0  0  0  0
 17 24  1  0  0  0  0
 17 12  1  0  0  0  0
 18  1  1  0  0  0  0
 19 21  1  0  0  0  0
 20 19  1  0  0  0  0
 20 21  1  0  0  0  0
 21  8  1  0  0  0  0
 21  4  1  0  0  0  0
 22 14  1  0  0  0  0
 23  6  1  0  0  0  0
 24 16  1  0  0  0  0
 25 24  1  0  0  0  0
 26 23  1  0  0  0  0
 27 28  1  0  0  0  0
 28 29  1  0  0  0  0
 29 30  1  0  0  0  0
M  END
>  <MODEL>
9

>  <REMARK>
 VINA RESULT:      -3.7      1.793      7.673
  Name = 
  3 active torsions:
  status: ('A' for Active; 'I' for Inactive)
    1  A    between atoms: C_6  and  C_8
    2  A    between atoms: C_6  and  C_21
    3  A    between atoms: C_9  and  C_21
                            x       y       z     vdW  Elec       q    Type
                         _______ _______ _______ _____ _____    ______ ____

>  <TORSDO>
F 3

$$$$
