=
 OpenBabel11052423223D

 27 30  0  0  1  0  0  0  0  0999 V2000
  161.1670  205.4830  150.0770 N   0  0  0  0  0  0  0  0  0  0  0  0
  161.2330  206.2060  151.3280 C   0  0  0  0  0  0  0  0  0  0  0  0
  161.3350  208.4970  154.8150 N   0  0  0  0  0  2  0  0  0  0  0  0
  161.4830  210.9240  154.8080 C   0  0  0  0  0  1  0  0  0  0  0  0
  161.9250  205.6830  152.4410 C   0  0  0  0  0  3  0  0  0  0  0  0
  159.9660  209.7400  152.8380 S   0  0  0  0  0  0  0  0  0  0  0  0
  160.6970  208.1380  152.5900 C   0  0  0  0  0  0  0  0  0  0  0  0
  160.5840  209.7270  154.5780 C   0  0  1  0  0  3  0  0  0  0  0  0
  161.3550  207.6510  153.6830 C   0  0  0  0  0  0  0  0  0  0  0  0
  160.6370  207.4320  151.4320 N   0  0  0  0  0  0  0  0  0  0  0  0
  161.9870  206.4120  153.6340 C   0  0  0  0  0  3  0  0  0  0  0  0
  160.4650  203.1710  150.6740 C   0  0  1  0  0  3  0  0  0  0  0  0
  160.8450  202.2500  148.4060 C   0  0  1  0  0  3  0  0  0  0  0  0
  160.9890  202.7990  151.9130 O   0  0  0  0  0  1  0  0  0  0  0  0
  160.2250  203.3840  147.8290 O   0  0  0  0  0  0  0  0  0  0  0  0
  161.4510  204.0500  149.9340 C   0  0  1  0  0  3  0  0  0  0  0  0
  160.8090  200.8130  150.2930 F   0  0  0  0  0  0  0  0  0  0  0  0
  162.5540  203.7650  147.6640 O   0  0  0  0  0  1  0  0  0  0  0  0
  161.4460  203.5900  148.4900 C   0  0  1  0  0  0  0  0  0  0  0  0
  160.2270  201.9560  149.7710 C   0  0  1  0  0  3  0  0  0  0  0  0
  160.6970  206.1620  148.8740 C   0  0  0  0  0  2  0  0  0  0  0  0
  161.7720  207.0820  148.3170 C   0  0  2  0  0  3  0  0  0  0  0  0
  161.4130  208.3950  148.5600 F   0  0  0  0  0  0  0  0  0  0  0  0
  161.9300  206.8570  146.8200 C   0  0  0  0  0  2  0  0  0  0  0  0
  160.6030  206.4800  146.1800 C   0  0  0  0  0  2  0  0  0  0  0  0
  160.7920  205.4240  145.1810 C   0  0  0  0  0  0  0  0  0  0  0  0
  160.9450  204.5570  144.3580 C   0  0  0  0  0  3  0  0  0  0  0  0
  1  2  1  0  0  0  0
  2 10  2  0  0  0  0
  2  5  1  0  0  0  0
  5 11  2  0  0  0  0
  6  8  1  0  0  0  0
  7  6  1  0  0  0  0
  7  9  2  0  0  0  0
  8  4  1  6  0  0  0
  8  3  1  0  0  0  0
  9  3  1  0  0  0  0
 10  7  1  0  0  0  0
 11  9  1  0  0  0  0
 12 14  1  1  0  0  0
 13 15  1  6  0  0  0
 13 19  1  0  0  0  0
 13 20  1  0  0  0  0
 15 19  1  0  0  0  0
 16  1  1  6  0  0  0
 16 12  1  0  0  0  0
 19 18  1  6  0  0  0
 19 16  1  0  0  0  0
 20 17  1  1  0  0  0
 20 12  1  0  0  0  0
 21  1  1  0  0  0  0
 22 23  1  6  0  0  0
 22 21  1  0  0  0  0
 24 22  1  0  0  0  0
 25 24  1  0  0  0  0
 26 25  1  0  0  0  0
 27 26  3  0  0  0  0
M  END
>  <MODEL>
1

>  <REMARK>
 VINA RESULT:      -6.7      0.000      0.000
  Name = 
  6 active torsions:
  status: ('A' for Active; 'I' for Inactive)
    1  A    between atoms: N_1  and  C_15
    2  A    between atoms: N_1  and  C_18
    3  A    between atoms: C_7  and  C_25
    4  A    between atoms: C_9  and  C_15
    5  A    between atoms: C_9  and  C_27
    6  A    between atoms: C_25  and  C_27
                            x       y       z     vdW  Elec       q    Type
                         _______ _______ _______ _____ _____    ______ ____

>  <TORSDO>
F 6

$$$$
=
 OpenBabel11052423223D

 27 30  0  0  1  0  0  0  0  0999 V2000
  161.0780  205.6210  149.7140 N   0  0  0  0  0  0  0  0  0  0  0  0
  161.2100  206.6620  150.7090 C   0  0  0  0  0  0  0  0  0  0  0  0
  161.4620  209.5200  153.7390 N   0  0  0  0  0  2  0  0  0  0  0  0
  159.8890  209.6390  155.5890 C   0  0  0  0  0  1  0  0  0  0  0  0
  161.6420  207.9590  150.3580 C   0  0  0  0  0  3  0  0  0  0  0  0
  160.5900  207.1370  154.6790 S   0  0  0  0  0  0  0  0  0  0  0  0
  160.9870  207.3620  152.9610 C   0  0  0  0  0  0  0  0  0  0  0  0
  161.0660  208.8920  154.9970 C   0  0  1  0  0  3  0  0  0  0  0  0
  161.4100  208.6240  152.6490 C   0  0  0  0  0  0  0  0  0  0  0  0
  160.8860  206.3980  152.0110 N   0  0  0  0  0  0  0  0  0  0  0  0
  161.7460  208.9520  151.3390 C   0  0  0  0  0  3  0  0  0  0  0  0
  161.5530  204.3620  147.6210 C   0  0  1  0  0  3  0  0  0  0  0  0
  161.0460  206.2660  146.1180 C   0  0  1  0  0  3  0  0  0  0  0  0
  162.7060  203.5880  147.7600 O   0  0  0  0  0  1  0  0  0  0  0  0
  159.8940  206.5750  146.8790 O   0  0  0  0  0  0  0  0  0  0  0  0
  161.7020  205.6600  148.3870 C   0  0  1  0  0  3  0  0  0  0  0  0
  162.4090  204.4760  145.3670 F   0  0  0  0  0  0  0  0  0  0  0  0
  161.5730  208.0740  147.6080 O   0  0  0  0  0  1  0  0  0  0  0  0
  161.1380  206.7540  147.5030 C   0  0  1  0  0  0  0  0  0  0  0  0
  161.3120  204.7630  146.1610 C   0  0  1  0  0  3  0  0  0  0  0  0
  160.3680  204.3900  150.0470 C   0  0  0  0  0  2  0  0  0  0  0  0
  161.1060  203.6140  151.1270 C   0  0  2  0  0  3  0  0  0  0  0  0
  162.4390  203.9830  151.1170 F   0  0  0  0  0  0  0  0  0  0  0  0
  160.9820  202.1180  150.8750 C   0  0  0  0  0  2  0  0  0  0  0  0
  160.1460  201.8390  149.6360 C   0  0  0  0  0  2  0  0  0  0  0  0
  160.8890  201.0020  148.6880 C   0  0  0  0  0  0  0  0  0  0  0  0
  161.5010  200.3170  147.9090 C   0  0  0  0  0  3  0  0  0  0  0  0
  1 21  1  0  0  0  0
  1  2  1  0  0  0  0
  2 10  1  0  0  0  0
  3  8  1  0  0  0  0
  5  2  2  0  0  0  0
  5 11  1  0  0  0  0
  6  8  1  0  0  0  0
  7  6  1  0  0  0  0
  8  4  1  6  0  0  0
  9  7  1  0  0  0  0
  9  3  1  0  0  0  0
 10  7  2  0  0  0  0
 11  9  2  0  0  0  0
 12 14  1  6  0  0  0
 12 16  1  0  0  0  0
 13 20  1  0  0  0  0
 13 15  1  1  0  0  0
 13 19  1  0  0  0  0
 15 19  1  0  0  0  0
 16  1  1  1  0  0  0
 19 18  1  1  0  0  0
 19 16  1  0  0  0  0
 20 17  1  6  0  0  0
 20 12  1  0  0  0  0
 21 22  1  0  0  0  0
 22 23  1  6  0  0  0
 24 22  1  0  0  0  0
 25 24  1  0  0  0  0
 26 25  1  0  0  0  0
 27 26  3  0  0  0  0
M  END
>  <MODEL>
2

>  <REMARK>
 VINA RESULT:      -6.5      2.044      3.833
  Name = 
  6 active torsions:
  status: ('A' for Active; 'I' for Inactive)
    1  A    between atoms: N_1  and  C_15
    2  A    between atoms: N_1  and  C_18
    3  A    between atoms: C_7  and  C_25
    4  A    between atoms: C_9  and  C_15
    5  A    between atoms: C_9  and  C_27
    6  A    between atoms: C_25  and  C_27
                            x       y       z     vdW  Elec       q    Type
                         _______ _______ _______ _____ _____    ______ ____

>  <TORSDO>
F 6

$$$$
=
 OpenBabel11052423223D

 27 30  0  0  1  0  0  0  0  0999 V2000
  160.9350  208.8520  153.3070 N   0  0  0  0  0  0  0  0  0  0  0  0
  161.0480  207.4760  152.8780 C   0  0  0  0  0  0  0  0  0  0  0  0
  161.3290  203.5820  151.4050 N   0  0  0  0  0  2  0  0  0  0  0  0
  160.2790  202.8650  149.3320 C   0  0  0  0  0  1  0  0  0  0  0  0
  161.0500  206.4160  153.8110 C   0  0  0  0  0  3  0  0  0  0  0  0
  161.3260  205.4100  149.4100 S   0  0  0  0  0  0  0  0  0  0  0  0
  161.2210  205.9030  151.1150 C   0  0  0  0  0  0  0  0  0  0  0  0
  161.4210  203.6470  149.9480 C   0  0  1  0  0  3  0  0  0  0  0  0
  161.2320  204.8600  151.9970 C   0  0  0  0  0  0  0  0  0  0  0  0
  161.1290  207.1880  151.5440 N   0  0  0  0  0  0  0  0  0  0  0  0
  161.1450  205.0920  153.3670 C   0  0  0  0  0  3  0  0  0  0  0  0
  161.7110  210.7340  154.7380 C   0  0  1  0  0  3  0  0  0  0  0  0
  159.9340  210.4430  156.4400 C   0  0  1  0  0  3  0  0  0  0  0  0
  163.1020  210.7250  154.8560 O   0  0  0  0  0  1  0  0  0  0  0  0
  158.9690  210.2730  155.4200 O   0  0  0  0  0  0  0  0  0  0  0  0
  161.1850  209.3150  154.6770 C   0  0  1  0  0  3  0  0  0  0  0  0
  161.9470  211.5720  156.9890 F   0  0  0  0  0  0  0  0  0  0  0  0
  159.5220  208.0940  156.1580 O   0  0  0  0  0  1  0  0  0  0  0  0
  159.9450  209.2730  155.5490 C   0  0  1  0  0  0  0  0  0  0  0  0
  161.0430  211.3760  155.9590 C   0  0  1  0  0  3  0  0  0  0  0  0
  160.6520  209.8940  152.3250 C   0  0  0  0  0  2  0  0  0  0  0  0
  161.7560  209.9660  151.2810 C   0  0  2  0  0  3  0  0  0  0  0  0
  162.9790  210.0430  151.9210 F   0  0  0  0  0  0  0  0  0  0  0  0
  161.5580  211.1890  150.3950 C   0  0  0  0  0  2  0  0  0  0  0  0
  162.0500  210.9260  148.9810 C   0  0  0  0  0  2  0  0  0  0  0  0
  162.4670  212.1760  148.3370 C   0  0  0  0  0  0  0  0  0  0  0  0
  162.8120  213.2010  147.8070 C   0  0  0  0  0  3  0  0  0  0  0  0
  2  1  1  0  0  0  0
  2  5  1  0  0  0  0
  3  9  1  0  0  0  0
  6  8  1  0  0  0  0
  6  7  1  0  0  0  0
  7 10  1  0  0  0  0
  7  9  2  0  0  0  0
  8  4  1  6  0  0  0
  8  3  1  0  0  0  0
  9 11  1  0  0  0  0
 10  2  2  0  0  0  0
 11  5  2  0  0  0  0
 12 14  1  1  0  0  0
 12 20  1  0  0  0  0
 13 15  1  6  0  0  0
 15 19  1  0  0  0  0
 16  1  1  6  0  0  0
 16 12  1  0  0  0  0
 16 19  1  0  0  0  0
 19 18  1  1  0  0  0
 19 13  1  0  0  0  0
 20 13  1  0  0  0  0
 20 17  1  1  0  0  0
 21  1  1  0  0  0  0
 22 23  1  1  0  0  0
 22 21  1  0  0  0  0
 24 22  1  0  0  0  0
 25 24  1  0  0  0  0
 26 25  1  0  0  0  0
 27 26  3  0  0  0  0
M  END
>  <MODEL>
3

>  <REMARK>
 VINA RESULT:      -6.5      4.348      7.347
  Name = 
  6 active torsions:
  status: ('A' for Active; 'I' for Inactive)
    1  A    between atoms: N_1  and  C_15
    2  A    between atoms: N_1  and  C_18
    3  A    between atoms: C_7  and  C_25
    4  A    between atoms: C_9  and  C_15
    5  A    between atoms: C_9  and  C_27
    6  A    between atoms: C_25  and  C_27
                            x       y       z     vdW  Elec       q    Type
                         _______ _______ _______ _____ _____    ______ ____

>  <TORSDO>
F 6

$$$$
=
 OpenBabel11052423223D

 27 30  0  0  1  0  0  0  0  0999 V2000
  160.9900  208.3290  152.6470 N   0  0  0  0  0  0  0  0  0  0  0  0
  161.2890  208.1610  151.2420 C   0  0  0  0  0  0  0  0  0  0  0  0
  162.0830  207.4360  147.2100 N   0  0  0  0  0  2  0  0  0  0  0  0
  162.5910  205.2270  146.3310 C   0  0  0  0  0  1  0  0  0  0  0  0
  162.0040  209.1430  150.5240 C   0  0  0  0  0  3  0  0  0  0  0  0
  160.7230  205.3910  148.3470 S   0  0  0  0  0  0  0  0  0  0  0  0
  161.1770  206.8320  149.2840 C   0  0  0  0  0  0  0  0  0  0  0  0
  161.5040  206.1430  146.8530 C   0  0  1  0  0  3  0  0  0  0  0  0
  161.8620  207.7710  148.5650 C   0  0  0  0  0  0  0  0  0  0  0  0
  160.8960  207.0200  150.5990 N   0  0  0  0  0  0  0  0  0  0  0  0
  162.2930  208.9480  149.1680 C   0  0  0  0  0  3  0  0  0  0  0  0
  159.9350  210.5620  152.9480 C   0  0  1  0  0  3  0  0  0  0  0  0
  160.1390  210.5540  155.4170 C   0  0  1  0  0  3  0  0  0  0  0  0
  160.4060  211.4650  151.9930 O   0  0  0  0  0  1  0  0  0  0  0  0
  159.7020  209.2090  155.4600 O   0  0  0  0  0  0  0  0  0  0  0  0
  161.0410  209.6120  153.3570 C   0  0  1  0  0  3  0  0  0  0  0  0
  159.8950  212.5990  154.2410 F   0  0  0  0  0  0  0  0  0  0  0  0
  162.0610  209.1290  155.6320 O   0  0  0  0  0  1  0  0  0  0  0  0
  160.9470  209.4570  154.8620 C   0  0  1  0  0  0  0  0  0  0  0  0
  159.4970  211.2730  154.2330 C   0  0  1  0  0  3  0  0  0  0  0  0
  160.5080  207.1900  153.4230 C   0  0  0  0  0  2  0  0  0  0  0  0
  161.6010  206.1460  153.5880 C   0  0  2  0  0  3  0  0  0  0  0  0
  162.7170  206.5440  152.8750 F   0  0  0  0  0  0  0  0  0  0  0  0
  161.1160  204.7960  153.0770 C   0  0  0  0  0  2  0  0  0  0  0  0
  161.9570  204.3190  151.9040 C   0  0  0  0  0  2  0  0  0  0  0  0
  161.3250  203.1720  151.2450 C   0  0  0  0  0  0  0  0  0  0  0  0
  160.8070  202.2280  150.7040 C   0  0  0  0  0  3  0  0  0  0  0  0
  1 21  1  0  0  0  0
  2  1  1  0  0  0  0
  3  9  1  0  0  0  0
  5  2  2  0  0  0  0
  6  7  1  0  0  0  0
  7 10  2  0  0  0  0
  8  4  1  1  0  0  0
  8  3  1  0  0  0  0
  8  6  1  0  0  0  0
  9 11  2  0  0  0  0
  9  7  1  0  0  0  0
 10  2  1  0  0  0  0
 11  5  1  0  0  0  0
 12 14  1  6  0  0  0
 12 16  1  0  0  0  0
 12 20  1  0  0  0  0
 13 15  1  1  0  0  0
 16  1  1  6  0  0  0
 16 19  1  0  0  0  0
 19 13  1  0  0  0  0
 19 15  1  0  0  0  0
 19 18  1  1  0  0  0
 20 17  1  6  0  0  0
 20 13  1  0  0  0  0
 21 22  1  0  0  0  0
 22 23  1  6  0  0  0
 24 22  1  0  0  0  0
 25 24  1  0  0  0  0
 26 25  1  0  0  0  0
 27 26  3  0  0  0  0
M  END
>  <MODEL>
4

>  <REMARK>
 VINA RESULT:      -6.5      3.741      7.313
  Name = 
  6 active torsions:
  status: ('A' for Active; 'I' for Inactive)
    1  A    between atoms: N_1  and  C_15
    2  A    between atoms: N_1  and  C_18
    3  A    between atoms: C_7  and  C_25
    4  A    between atoms: C_9  and  C_15
    5  A    between atoms: C_9  and  C_27
    6  A    between atoms: C_25  and  C_27
                            x       y       z     vdW  Elec       q    Type
                         _______ _______ _______ _____ _____    ______ ____

>  <TORSDO>
F 6

$$$$
=
 OpenBabel11052423223D

 27 30  0  0  1  0  0  0  0  0999 V2000
  161.1640  204.3360  148.9990 N   0  0  0  0  0  0  0  0  0  0  0  0
  161.4930  205.7430  148.9340 C   0  0  0  0  0  0  0  0  0  0  0  0
  162.3310  209.8310  148.9710 N   0  0  0  0  0  2  0  0  0  0  0  0
  161.0610  211.4380  150.2810 C   0  0  0  0  0  1  0  0  0  0  0  0
  161.9280  206.3380  147.7300 C   0  0  0  0  0  3  0  0  0  0  0  0
  161.4980  208.9570  151.3920 S   0  0  0  0  0  0  0  0  0  0  0  0
  161.6430  207.8480  150.0110 C   0  0  0  0  0  0  0  0  0  0  0  0
  162.0990  210.3350  150.3220 C   0  0  1  0  0  3  0  0  0  0  0  0
  162.0740  208.4460  148.8600 C   0  0  0  0  0  0  0  0  0  0  0  0
  161.3560  206.5220  150.0490 N   0  0  0  0  0  0  0  0  0  0  0  0
  162.2240  207.7050  147.6910 C   0  0  0  0  0  3  0  0  0  0  0  0
  160.6510  202.1500  147.9280 C   0  0  1  0  0  3  0  0  0  0  0  0
  161.2060  202.9100  145.6360 C   0  0  1  0  0  3  0  0  0  0  0  0
  161.1570  201.0950  148.6890 O   0  0  0  0  0  1  0  0  0  0  0  0
  160.5100  204.1220  145.8570 O   0  0  0  0  0  0  0  0  0  0  0  0
  161.5830  203.3410  148.0060 C   0  0  1  0  0  3  0  0  0  0  0  0
  161.2240  200.6000  146.1690 F   0  0  0  0  0  0  0  0  0  0  0  0
  162.8000  204.6230  146.1820 O   0  0  0  0  0  1  0  0  0  0  0  0
  161.6790  203.9110  146.6050 C   0  0  1  0  0  0  0  0  0  0  0  0
  160.5630  201.7840  146.4420 C   0  0  1  0  0  3  0  0  0  0  0  0
  160.4540  203.8140  150.1630 C   0  0  0  0  0  2  0  0  0  0  0  0
  161.4100  203.5940  151.3260 C   0  0  2  0  0  3  0  0  0  0  0  0
  161.5550  202.2360  151.5410 F   0  0  0  0  0  0  0  0  0  0  0  0
  160.8690  204.2620  152.5820 C   0  0  0  0  0  2  0  0  0  0  0  0
  161.7270  205.4500  152.9850 C   0  0  0  0  0  2  0  0  0  0  0  0
  161.0280  206.2850  153.9660 C   0  0  0  0  0  0  0  0  0  0  0  0
  160.4560  206.9720  154.7750 C   0  0  0  0  0  3  0  0  0  0  0  0
  1 21  1  0  0  0  0
  2  1  1  0  0  0  0
  2 10  1  0  0  0  0
  3  8  1  0  0  0  0
  5  2  2  0  0  0  0
  7 10  2  0  0  0  0
  7  6  1  0  0  0  0
  8  4  1  6  0  0  0
  8  6  1  0  0  0  0
  9  3  1  0  0  0  0
  9  7  1  0  0  0  0
 11  5  1  0  0  0  0
 11  9  2  0  0  0  0
 12 16  1  0  0  0  0
 12 14  1  1  0  0  0
 13 15  1  6  0  0  0
 13 20  1  0  0  0  0
 13 19  1  0  0  0  0
 15 19  1  0  0  0  0
 16  1  1  1  0  0  0
 19 18  1  6  0  0  0
 19 16  1  0  0  0  0
 20 17  1  1  0  0  0
 20 12  1  0  0  0  0
 21 22  1  0  0  0  0
 22 23  1  1  0  0  0
 22 24  1  0  0  0  0
 24 25  1  0  0  0  0
 25 26  1  0  0  0  0
 26 27  3  0  0  0  0
M  END
>  <MODEL>
5

>  <REMARK>
 VINA RESULT:      -6.3      2.488      4.788
  Name = 
  6 active torsions:
  status: ('A' for Active; 'I' for Inactive)
    1  A    between atoms: N_1  and  C_15
    2  A    between atoms: N_1  and  C_18
    3  A    between atoms: C_7  and  C_25
    4  A    between atoms: C_9  and  C_15
    5  A    between atoms: C_9  and  C_27
    6  A    between atoms: C_25  and  C_27
                            x       y       z     vdW  Elec       q    Type
                         _______ _______ _______ _____ _____    ______ ____

>  <TORSDO>
F 6

$$$$
=
 OpenBabel11052423223D

 27 30  0  0  1  0  0  0  0  0999 V2000
  161.3630  205.7190  149.5760 N   0  0  0  0  0  0  0  0  0  0  0  0
  161.3640  206.2550  150.9190 C   0  0  0  0  0  0  0  0  0  0  0  0
  161.2940  208.0230  154.6990 N   0  0  0  0  0  2  0  0  0  0  0  0
  161.4950  210.4200  155.0500 C   0  0  0  0  0  1  0  0  0  0  0  0
  161.9730  205.5580  151.9850 C   0  0  0  0  0  3  0  0  0  0  0  0
  160.0810  209.5750  152.8440 S   0  0  0  0  0  0  0  0  0  0  0  0
  160.7910  208.0040  152.4110 C   0  0  0  0  0  0  0  0  0  0  0  0
  160.5860  209.2970  154.5970 C   0  0  1  0  0  3  0  0  0  0  0  0
  161.3670  207.3460  153.4610 C   0  0  0  0  0  0  0  0  0  0  0  0
  160.7900  207.4720  151.1630 N   0  0  0  0  0  0  0  0  0  0  0  0
  161.9740  206.1080  153.2720 C   0  0  0  0  0  3  0  0  0  0  0  0
  160.5120  203.3830  149.6820 C   0  0  1  0  0  3  0  0  0  0  0  0
  161.2060  202.8080  147.3740 C   0  0  1  0  0  3  0  0  0  0  0  0
  160.8310  202.7950  150.9080 O   0  0  0  0  0  1  0  0  0  0  0  0
  160.7140  204.0490  146.9050 O   0  0  0  0  0  0  0  0  0  0  0  0
  161.6240  204.3140  149.2460 C   0  0  1  0  0  3  0  0  0  0  0  0
  160.8430  201.0990  148.9780 F   0  0  0  0  0  0  0  0  0  0  0  0
  163.0510  204.3280  147.1450 O   0  0  0  0  0  1  0  0  0  0  0  0
  161.8250  204.0850  147.7610 C   0  0  1  0  0  0  0  0  0  0  0  0
  160.3800  202.3380  148.5700 C   0  0  1  0  0  3  0  0  0  0  0  0
  160.9850  206.5770  148.4570 C   0  0  0  0  0  2  0  0  0  0  0  0
  162.1080  207.5430  148.1130 C   0  0  2  0  0  3  0  0  0  0  0  0
  163.1090  207.4270  149.0590 F   0  0  0  0  0  0  0  0  0  0  0  0
  161.5810  208.9710  148.0890 C   0  0  0  0  0  2  0  0  0  0  0  0
  162.3310  209.8480  149.0790 C   0  0  0  0  0  2  0  0  0  0  0  0
  162.3310  211.2460  148.6360 C   0  0  0  0  0  0  0  0  0  0  0  0
  162.3290  212.3940  148.2700 C   0  0  0  0  0  3  0  0  0  0  0  0
  1  2  1  0  0  0  0
  2 10  2  0  0  0  0
  2  5  1  0  0  0  0
  5 11  2  0  0  0  0
  6  8  1  0  0  0  0
  7  6  1  0  0  0  0
  7  9  2  0  0  0  0
  8  3  1  0  0  0  0
  8  4  1  6  0  0  0
  9  3  1  0  0  0  0
 10  7  1  0  0  0  0
 11  9  1  0  0  0  0
 12 14  1  1  0  0  0
 13 15  1  6  0  0  0
 13 19  1  0  0  0  0
 13 20  1  0  0  0  0
 15 19  1  0  0  0  0
 16  1  1  6  0  0  0
 16 12  1  0  0  0  0
 19 18  1  6  0  0  0
 19 16  1  0  0  0  0
 20 17  1  1  0  0  0
 20 12  1  0  0  0  0
 21  1  1  0  0  0  0
 22 21  1  0  0  0  0
 22 23  1  1  0  0  0
 24 22  1  0  0  0  0
 24 25  1  0  0  0  0
 26 25  1  0  0  0  0
 27 26  3  0  0  0  0
M  END
>  <MODEL>
6

>  <REMARK>
 VINA RESULT:      -6.1      1.665      2.535
  Name = 
  6 active torsions:
  status: ('A' for Active; 'I' for Inactive)
    1  A    between atoms: N_1  and  C_15
    2  A    between atoms: N_1  and  C_18
    3  A    between atoms: C_7  and  C_25
    4  A    between atoms: C_9  and  C_15
    5  A    between atoms: C_9  and  C_27
    6  A    between atoms: C_25  and  C_27
                            x       y       z     vdW  Elec       q    Type
                         _______ _______ _______ _____ _____    ______ ____

>  <TORSDO>
F 6

$$$$
=
 OpenBabel11052423223D

 27 30  0  0  1  0  0  0  0  0999 V2000
  161.2270  206.0770  148.0040 N   0  0  0  0  0  0  0  0  0  0  0  0
  161.4740  207.2660  148.7890 C   0  0  0  0  0  0  0  0  0  0  0  0
  162.0400  210.5990  151.2360 N   0  0  0  0  0  2  0  0  0  0  0  0
  160.4830  211.2420  152.9890 C   0  0  0  0  0  1  0  0  0  0  0  0
  162.0550  208.4160  148.2130 C   0  0  0  0  0  3  0  0  0  0  0  0
  160.8940  208.5500  152.5820 S   0  0  0  0  0  0  0  0  0  0  0  0
  161.3230  208.4000  150.8630 C   0  0  0  0  0  0  0  0  0  0  0  0
  161.5680  210.2680  152.5790 C   0  0  1  0  0  3  0  0  0  0  0  0
  161.8900  209.5240  150.3320 C   0  0  0  0  0  0  0  0  0  0  0  0
  161.1160  207.2920  150.1080 N   0  0  0  0  0  0  0  0  0  0  0  0
  162.2680  209.5590  148.9930 C   0  0  0  0  0  3  0  0  0  0  0  0
  162.7030  204.5380  146.7210 C   0  0  1  0  0  3  0  0  0  0  0  0
  161.3020  204.5660  144.6780 C   0  0  1  0  0  3  0  0  0  0  0  0
  164.0460  204.8640  146.9150 O   0  0  0  0  0  1  0  0  0  0  0  0
  160.1330  204.4340  145.4640 O   0  0  0  0  0  0  0  0  0  0  0  0
  161.8580  205.7950  146.7090 C   0  0  1  0  0  3  0  0  0  0  0  0
  163.5920  203.9600  144.5530 F   0  0  0  0  0  0  0  0  0  0  0  0
  160.3020  206.7340  144.9360 O   0  0  0  0  0  1  0  0  0  0  0  0
  160.8530  205.6320  145.5870 C   0  0  1  0  0  0  0  0  0  0  0  0
  162.4730  203.8660  145.3640 C   0  0  1  0  0  3  0  0  0  0  0  0
  160.3780  205.0200  148.5420 C   0  0  0  0  0  2  0  0  0  0  0  0
  161.1930  204.0480  149.3830 C   0  0  2  0  0  3  0  0  0  0  0  0
  161.4050  202.8910  148.6570 F   0  0  0  0  0  0  0  0  0  0  0  0
  160.4500  203.7210  150.6720 C   0  0  0  0  0  2  0  0  0  0  0  0
  161.4170  203.5370  151.8300 C   0  0  0  0  0  2  0  0  0  0  0  0
  161.3140  204.6560  152.7720 C   0  0  0  0  0  0  0  0  0  0  0  0
  161.2310  205.5730  153.5490 C   0  0  0  0  0  3  0  0  0  0  0  0
  1 21  1  0  0  0  0
  1  2  1  0  0  0  0
  2 10  1  0  0  0  0
  3  8  1  0  0  0  0
  5  2  2  0  0  0  0
  5 11  1  0  0  0  0
  7  6  1  0  0  0  0
  8  6  1  0  0  0  0
  8  4  1  6  0  0  0
  9  7  1  0  0  0  0
  9  3  1  0  0  0  0
 10  7  2  0  0  0  0
 11  9  2  0  0  0  0
 12 14  1  6  0  0  0
 13 20  1  0  0  0  0
 13 15  1  1  0  0  0
 13 19  1  0  0  0  0
 15 19  1  0  0  0  0
 16 12  1  0  0  0  0
 16  1  1  1  0  0  0
 19 18  1  6  0  0  0
 19 16  1  0  0  0  0
 20 17  1  6  0  0  0
 20 12  1  0  0  0  0
 21 22  1  0  0  0  0
 22 23  1  6  0  0  0
 22 24  1  0  0  0  0
 24 25  1  0  0  0  0
 25 26  1  0  0  0  0
 26 27  3  0  0  0  0
M  END
>  <MODEL>
7

>  <REMARK>
 VINA RESULT:      -6.0      2.367      4.666
  Name = 
  6 active torsions:
  status: ('A' for Active; 'I' for Inactive)
    1  A    between atoms: N_1  and  C_15
    2  A    between atoms: N_1  and  C_18
    3  A    between atoms: C_7  and  C_25
    4  A    between atoms: C_9  and  C_15
    5  A    between atoms: C_9  and  C_27
    6  A    between atoms: C_25  and  C_27
                            x       y       z     vdW  Elec       q    Type
                         _______ _______ _______ _____ _____    ______ ____

>  <TORSDO>
F 6

$$$$
=
 OpenBabel11052423223D

 27 30  0  0  1  0  0  0  0  0999 V2000
  161.3250  205.3470  150.4850 N   0  0  0  0  0  0  0  0  0  0  0  0
  161.2150  206.1780  151.6630 C   0  0  0  0  0  0  0  0  0  0  0  0
  161.0140  208.7630  154.9330 N   0  0  0  0  0  2  0  0  0  0  0  0
  162.5360  210.6330  155.2460 C   0  0  0  0  0  1  0  0  0  0  0  0
  160.8570  205.6320  152.9140 C   0  0  0  0  0  3  0  0  0  0  0  0
  161.7410  210.0610  152.6730 S   0  0  0  0  0  0  0  0  0  0  0  0
  161.4060  208.3150  152.6680 C   0  0  0  0  0  0  0  0  0  0  0  0
  161.3420  210.1100  154.4740 C   0  0  1  0  0  3  0  0  0  0  0  0
  161.0550  207.8130  153.8880 C   0  0  0  0  0  0  0  0  0  0  0  0
  161.4870  207.5150  151.5740 N   0  0  0  0  0  0  0  0  0  0  0  0
  160.7740  206.4580  154.0410 C   0  0  0  0  0  3  0  0  0  0  0  0
  161.2320  203.2550  149.1400 C   0  0  1  0  0  3  0  0  0  0  0  0
  161.2800  201.7460  151.1050 C   0  0  1  0  0  3  0  0  0  0  0  0
  160.3070  203.3760  148.1010 O   0  0  0  0  0  1  0  0  0  0  0  0
  162.2990  202.5300  151.6960 O   0  0  0  0  0  0  0  0  0  0  0  0
  160.7430  204.0060  150.3620 C   0  0  1  0  0  3  0  0  0  0  0  0
  160.4280  200.9820  149.0280 F   0  0  0  0  0  0  0  0  0  0  0  0
  160.2800  203.2080  152.7280 O   0  0  0  0  0  1  0  0  0  0  0  0
  161.0350  203.1240  151.5590 C   0  0  1  0  0  0  0  0  0  0  0  0
  161.3990  201.7980  149.5830 C   0  0  1  0  0  3  0  0  0  0  0  0
  161.9640  205.8760  149.2840 C   0  0  0  0  0  2  0  0  0  0  0  0
  161.0500  206.8650  148.5760 C   0  0  2  0  0  3  0  0  0  0  0  0
  159.7530  206.3870  148.6130 F   0  0  0  0  0  0  0  0  0  0  0  0
  161.4940  207.0450  147.1310 C   0  0  0  0  0  2  0  0  0  0  0  0
  162.2780  205.8370  146.6440 C   0  0  0  0  0  2  0  0  0  0  0  0
  161.6330  205.2420  145.4690 C   0  0  0  0  0  0  0  0  0  0  0  0
  161.1020  204.7510  144.5050 C   0  0  0  0  0  3  0  0  0  0  0  0
  1  2  1  0  0  0  0
  2  5  1  0  0  0  0
  5 11  2  0  0  0  0
  6  8  1  0  0  0  0
  7  6  1  0  0  0  0
  7  9  2  0  0  0  0
  8  3  1  0  0  0  0
  8  4  1  1  0  0  0
  9 11  1  0  0  0  0
  9  3  1  0  0  0  0
 10  2  2  0  0  0  0
 10  7  1  0  0  0  0
 12 14  1  6  0  0  0
 12 20  1  0  0  0  0
 12 16  1  0  0  0  0
 13 19  1  0  0  0  0
 13 15  1  1  0  0  0
 16  1  1  1  0  0  0
 16 19  1  0  0  0  0
 19 15  1  0  0  0  0
 19 18  1  1  0  0  0
 20 17  1  6  0  0  0
 20 13  1  0  0  0  0
 21  1  1  0  0  0  0
 22 23  1  6  0  0  0
 22 21  1  0  0  0  0
 24 22  1  0  0  0  0
 25 24  1  0  0  0  0
 26 25  1  0  0  0  0
 27 26  3  0  0  0  0
M  END
>  <MODEL>
8

>  <REMARK>
 VINA RESULT:      -5.7      1.138      2.065
  Name = 
  6 active torsions:
  status: ('A' for Active; 'I' for Inactive)
    1  A    between atoms: N_1  and  C_15
    2  A    between atoms: N_1  and  C_18
    3  A    between atoms: C_7  and  C_25
    4  A    between atoms: C_9  and  C_15
    5  A    between atoms: C_9  and  C_27
    6  A    between atoms: C_25  and  C_27
                            x       y       z     vdW  Elec       q    Type
                         _______ _______ _______ _____ _____    ______ ____

>  <TORSDO>
F 6

$$$$
=
 OpenBabel11052423223D

 27 30  0  0  1  0  0  0  0  0999 V2000
  160.8840  208.8190  153.3150 N   0  0  0  0  0  0  0  0  0  0  0  0
  161.0610  207.4810  152.7940 C   0  0  0  0  0  0  0  0  0  0  0  0
  161.5190  203.7130  151.0610 N   0  0  0  0  0  2  0  0  0  0  0  0
  160.4740  203.0800  148.9590 C   0  0  0  0  0  1  0  0  0  0  0  0
  161.1330  206.3640  153.6540 C   0  0  0  0  0  3  0  0  0  0  0  0
  161.3880  205.6670  149.1930 S   0  0  0  0  0  0  0  0  0  0  0  0
  161.2860  206.0400  150.9280 C   0  0  0  0  0  0  0  0  0  0  0  0
  161.5830  203.8790  149.6110 C   0  0  1  0  0  3  0  0  0  0  0  0
  161.3650  204.9430  151.7390 C   0  0  0  0  0  0  0  0  0  0  0  0
  161.1350  207.2870  151.4430 N   0  0  0  0  0  0  0  0  0  0  0  0
  161.2880  205.0790  153.1220 C   0  0  0  0  0  3  0  0  0  0  0  0
  161.5590  210.6480  154.8610 C   0  0  1  0  0  3  0  0  0  0  0  0
  159.8460  210.1150  156.5700 C   0  0  1  0  0  3  0  0  0  0  0  0
  162.9500  210.7300  154.9530 O   0  0  0  0  0  1  0  0  0  0  0  0
  158.8720  209.9470  155.5580 O   0  0  0  0  0  0  0  0  0  0  0  0
  161.1320  209.2030  154.7100 C   0  0  1  0  0  3  0  0  0  0  0  0
  161.7860  211.3440  157.1610 F   0  0  0  0  0  0  0  0  0  0  0  0
  159.5930  207.7670  156.1310 O   0  0  0  0  0  1  0  0  0  0  0  0
  159.9190  209.0130  155.5980 C   0  0  1  0  0  0  0  0  0  0  0  0
  160.8760  211.1560  156.1350 C   0  0  1  0  0  3  0  0  0  0  0  0
  160.5320  209.9060  152.4080 C   0  0  0  0  0  2  0  0  0  0  0  0
  161.5990  210.0860  151.3390 C   0  0  2  0  0  3  0  0  0  0  0  0
  162.8160  210.3230  151.9520 F   0  0  0  0  0  0  0  0  0  0  0  0
  161.2400  211.2550  150.4320 C   0  0  0  0  0  2  0  0  0  0  0  0
  160.7090  212.4300  151.2380 C   0  0  0  0  0  2  0  0  0  0  0  0
  159.8630  213.2890  150.4040 C   0  0  0  0  0  0  0  0  0  0  0  0
  159.1690  213.9970  149.7180 C   0  0  0  0  0  3  0  0  0  0  0  0
  2  1  1  0  0  0  0
  2  5  1  0  0  0  0
  3  9  1  0  0  0  0
  6  8  1  0  0  0  0
  6  7  1  0  0  0  0
  7 10  1  0  0  0  0
  7  9  2  0  0  0  0
  8  4  1  6  0  0  0
  8  3  1  0  0  0  0
  9 11  1  0  0  0  0
 10  2  2  0  0  0  0
 11  5  2  0  0  0  0
 12 14  1  1  0  0  0
 12 20  1  0  0  0  0
 13 15  1  6  0  0  0
 15 19  1  0  0  0  0
 16  1  1  6  0  0  0
 16 12  1  0  0  0  0
 16 19  1  0  0  0  0
 19 18  1  1  0  0  0
 19 13  1  0  0  0  0
 20 13  1  0  0  0  0
 20 17  1  1  0  0  0
 21  1  1  0  0  0  0
 22 23  1  1  0  0  0
 22 21  1  0  0  0  0
 24 25  1  0  0  0  0
 24 22  1  0  0  0  0
 26 25  1  0  0  0  0
 27 26  3  0  0  0  0
M  END
>  <MODEL>
9

>  <REMARK>
 VINA RESULT:      -5.5      4.246      7.551
  Name = 
  6 active torsions:
  status: ('A' for Active; 'I' for Inactive)
    1  A    between atoms: N_1  and  C_15
    2  A    between atoms: N_1  and  C_18
    3  A    between atoms: C_7  and  C_25
    4  A    between atoms: C_9  and  C_15
    5  A    between atoms: C_9  and  C_27
    6  A    between atoms: C_25  and  C_27
                            x       y       z     vdW  Elec       q    Type
                         _______ _______ _______ _____ _____    ______ ____

>  <TORSDO>
F 6

$$$$
