=
 OpenBabel11052422163D

 25 28  0  0  1  0  0  0  0  0999 V2000
  161.3470  205.0420  149.1970 C   0  0  0  0  0  0  0  0  0  0  0  0
  161.4390  206.1500  150.0610 C   0  0  0  0  0  0  0  0  0  0  0  0
  160.6730  203.6310  151.0490 C   0  0  0  0  0  3  0  0  0  0  0  0
  161.5980  204.9810  147.8140 C   0  0  0  0  0  0  0  0  0  0  0  0
  161.9570  209.8280  150.1910 C   0  0  0  0  0  0  0  0  0  0  0  0
  161.9790  204.4180  145.1280 C   0  0  0  0  0  3  0  0  0  0  0  0
  160.7650  204.7060  151.8770 N   0  0  0  0  0  0  0  0  0  0  0  0
  161.4040  203.7080  147.2930 C   0  0  0  0  0  0  0  0  0  0  0  0
  161.5890  203.4270  145.9800 N   0  0  0  0  0  0  0  0  0  0  0  0
  161.1980  207.0710  152.3870 C   0  0  0  0  0  0  0  0  0  0  0  0
  160.8820  206.8090  154.0930 Cl  0  0  0  0  0  0  0  0  0  0  0  0
  162.1820  211.0570  149.8170 C   0  0  0  0  0  3  0  0  0  0  0  0
  161.9000  207.4950  149.5580 C   0  0  0  0  0  2  0  0  0  0  0  0
  162.1900  205.7250  145.6030 C   0  0  0  0  0  3  0  0  0  0  0  0
  160.9640  203.8020  149.7030 C   0  0  0  0  0  0  0  0  0  0  0  0
  160.9250  202.6270  148.4910 S   0  0  0  0  0  0  0  0  0  0  0  0
  161.4640  208.3090  151.9730 C   0  0  0  0  0  3  0  0  0  0  0  0
  161.9970  206.0130  146.9620 C   0  0  0  0  0  3  0  0  0  0  0  0
  161.7330  208.5990  150.5590 C   0  0  0  0  0  0  0  0  0  0  0  0
  161.1350  205.9450  151.4320 C   0  0  0  0  0  0  0  0  0  0  0  0
  161.9900  211.4690  148.3950 C   0  0  2  0  0  3  0  0  0  0  0  0
  163.2010  212.0890  147.8800 N   0  0  0  0  0  1  0  0  0  0  0  0
  160.8430  212.4170  148.2810 C   0  0  0  0  0  0  0  0  0  0  0  0
  160.0940  212.4500  147.1120 O   0  0  0  0  0  0  0  0  0  0  0  0
  160.5400  213.1770  149.2390 O   0  0  0  0  0  1  0  0  0  0  0  0
  1 15  1  0  0  0  0
  1  2  2  0  0  0  0
  2 20  1  0  0  0  0
  3  7  1  0  0  0  0
  4  1  1  0  0  0  0
  5 19  2  0  0  0  0
  6 14  2  0  0  0  0
  6  9  1  0  0  0  0
  8  4  1  0  0  0  0
  8 16  1  0  0  0  0
  9  8  2  0  0  0  0
 10 11  1  0  0  0  0
 12  5  2  0  0  0  0
 13  2  1  0  0  0  0
 13 19  1  0  0  0  0
 14 18  1  0  0  0  0
 15  3  2  0  0  0  0
 16 15  1  0  0  0  0
 17 10  2  0  0  0  0
 18  4  2  0  0  0  0
 19 17  1  0  0  0  0
 20  7  2  0  0  0  0
 20 10  1  0  0  0  0
 21 22  1  1  0  0  0
 21 12  1  0  0  0  0
 23 21  1  0  0  0  0
 23 25  1  0  0  0  0
 24 23  2  0  0  0  0
M  END
>  <MODEL>
1

>  <REMARK>
 VINA RESULT:      -9.8      0.000      0.000
  Name = 
  2 active torsions:
  status: ('A' for Active; 'I' for Inactive)
    1  A    between atoms: C_2  and  CA_21
    2  A    between atoms: C_15  and  CA_21
                            x       y       z     vdW  Elec       q    Type
                         _______ _______ _______ _____ _____    ______ ____

>  <TORSDO>
F 2

$$$$
=
 OpenBabel11052422163D

 25 28  0  0  1  0  0  0  0  0999 V2000
  161.4830  207.1800  151.0490 C   0  0  0  0  0  0  0  0  0  0  0  0
  161.2960  205.8740  150.5560 C   0  0  0  0  0  0  0  0  0  0  0  0
  161.2560  206.3740  153.3230 C   0  0  0  0  0  3  0  0  0  0  0  0
  161.7010  208.3690  150.3290 C   0  0  0  0  0  0  0  0  0  0  0  0
  161.3900  203.7730  147.4910 C   0  0  0  0  0  0  0  0  0  0  0  0
  162.1470  210.9130  149.3250 C   0  0  0  0  0  3  0  0  0  0  0  0
  161.0750  205.1150  152.8390 N   0  0  0  0  0  0  0  0  0  0  0  0
  161.8410  209.4750  151.1580 C   0  0  0  0  0  0  0  0  0  0  0  0
  162.0590  210.7220  150.6720 N   0  0  0  0  0  0  0  0  0  0  0  0
  160.9010  203.4410  151.0480 C   0  0  0  0  0  0  0  0  0  0  0  0
  160.5820  202.1640  152.2080 Cl  0  0  0  0  0  0  0  0  0  0  0  0
  161.5120  203.4160  146.2430 C   0  0  0  0  0  3  0  0  0  0  0  0
  161.2610  205.5970  149.0730 C   0  0  0  0  0  2  0  0  0  0  0  0
  162.0130  209.8270  148.4400 C   0  0  0  0  0  3  0  0  0  0  0  0
  161.4620  207.4090  152.4220 C   0  0  0  0  0  0  0  0  0  0  0  0
  161.7050  209.0410  152.7790 S   0  0  0  0  0  0  0  0  0  0  0  0
  160.9990  203.1190  149.7590 C   0  0  0  0  0  3  0  0  0  0  0  0
  161.7870  208.5390  148.9450 C   0  0  0  0  0  3  0  0  0  0  0  0
  161.2680  204.1360  148.7360 C   0  0  0  0  0  0  0  0  0  0  0  0
  161.0880  204.8360  151.5000 C   0  0  0  0  0  0  0  0  0  0  0  0
  162.2320  204.2860  145.2660 C   0  0  2  0  0  3  0  0  0  0  0  0
  163.3240  204.9870  145.9240 N   0  0  0  0  0  1  0  0  0  0  0  0
  161.2890  205.2670  144.6550 C   0  0  0  0  0  0  0  0  0  0  0  0
  160.4300  205.9920  145.4690 O   0  0  0  0  0  1  0  0  0  0  0  0
  161.2750  205.4540  143.4090 O   0  0  0  0  0  0  0  0  0  0  0  0
  1 15  1  0  0  0  0
  2  1  2  0  0  0  0
  2 20  1  0  0  0  0
  4  1  1  0  0  0  0
  4  8  1  0  0  0  0
  5 19  2  0  0  0  0
  6  9  1  0  0  0  0
  7  3  1  0  0  0  0
  8 16  1  0  0  0  0
  9  8  2  0  0  0  0
 10 20  1  0  0  0  0
 10 11  1  0  0  0  0
 12  5  2  0  0  0  0
 13  2  1  0  0  0  0
 14 18  1  0  0  0  0
 14  6  2  0  0  0  0
 15 16  1  0  0  0  0
 15  3  2  0  0  0  0
 17 10  2  0  0  0  0
 18  4  2  0  0  0  0
 19 13  1  0  0  0  0
 19 17  1  0  0  0  0
 20  7  2  0  0  0  0
 21 22  1  1  0  0  0
 21 12  1  0  0  0  0
 23 21  1  0  0  0  0
 23 24  1  0  0  0  0
 25 23  2  0  0  0  0
M  END
>  <MODEL>
2

>  <REMARK>
 VINA RESULT:      -9.7      3.062      5.920
  Name = 
  2 active torsions:
  status: ('A' for Active; 'I' for Inactive)
    1  A    between atoms: C_2  and  CA_21
    2  A    between atoms: C_15  and  CA_21
                            x       y       z     vdW  Elec       q    Type
                         _______ _______ _______ _____ _____    ______ ____

>  <TORSDO>
F 2

$$$$
=
 OpenBabel11052422163D

 25 28  0  0  1  0  0  0  0  0999 V2000
  161.3180  205.4350  151.2440 C   0  0  0  0  0  0  0  0  0  0  0  0
  161.1530  204.3660  150.3430 C   0  0  0  0  0  0  0  0  0  0  0  0
  161.0160  203.9280  153.1180 C   0  0  0  0  0  3  0  0  0  0  0  0
  161.5550  206.7930  150.9640 C   0  0  0  0  0  0  0  0  0  0  0  0
  161.3580  203.3900  146.7620 C   0  0  0  0  0  0  0  0  0  0  0  0
  162.0260  209.5220  150.8690 C   0  0  0  0  0  3  0  0  0  0  0  0
  160.8560  202.9000  152.2400 N   0  0  0  0  0  0  0  0  0  0  0  0
  161.6630  207.5640  152.1150 C   0  0  0  0  0  0  0  0  0  0  0  0
  161.8930  208.8990  152.0740 N   0  0  0  0  0  0  0  0  0  0  0  0
  160.7490  201.9100  149.9930 C   0  0  0  0  0  0  0  0  0  0  0  0
  160.3960  200.3240  150.6570 Cl  0  0  0  0  0  0  0  0  0  0  0  0
  161.5230  203.4630  145.4710 C   0  0  0  0  0  3  0  0  0  0  0  0
  161.1690  204.5930  148.8520 C   0  0  0  0  0  2  0  0  0  0  0  0
  161.9260  208.7890  149.6720 C   0  0  0  0  0  3  0  0  0  0  0  0
  161.2490  205.1990  152.6150 C   0  0  0  0  0  0  0  0  0  0  0  0
  161.4740  206.6220  153.4970 S   0  0  0  0  0  0  0  0  0  0  0  0
  160.8930  202.0280  148.6750 C   0  0  0  0  0  3  0  0  0  0  0  0
  161.6880  207.4080  149.7170 C   0  0  0  0  0  3  0  0  0  0  0  0
  161.1930  203.3240  148.0520 C   0  0  0  0  0  0  0  0  0  0  0  0
  160.9160  203.0760  150.8850 C   0  0  0  0  0  0  0  0  0  0  0  0
  162.2730  204.6000  144.8600 C   0  0  2  0  0  3  0  0  0  0  0  0
  163.1010  205.2550  145.8600 N   0  0  0  0  0  1  0  0  0  0  0  0
  161.3240  205.5820  144.2590 C   0  0  0  0  0  0  0  0  0  0  0  0
  161.3670  205.8300  142.8930 O   0  0  0  0  0  0  0  0  0  0  0  0
  160.4770  206.1770  144.9750 O   0  0  0  0  0  1  0  0  0  0  0  0
  1 15  2  0  0  0  0
  2 20  2  0  0  0  0
  2  1  1  0  0  0  0
  4  1  1  0  0  0  0
  4  8  1  0  0  0  0
  5 19  2  0  0  0  0
  6  9  1  0  0  0  0
  7  3  2  0  0  0  0
  8 16  1  0  0  0  0
  9  8  2  0  0  0  0
 10 11  1  0  0  0  0
 10 20  1  0  0  0  0
 12  5  2  0  0  0  0
 13  2  1  0  0  0  0
 14 18  1  0  0  0  0
 14  6  2  0  0  0  0
 15  3  1  0  0  0  0
 15 16  1  0  0  0  0
 17 10  2  0  0  0  0
 18  4  2  0  0  0  0
 19 17  1  0  0  0  0
 19 13  1  0  0  0  0
 20  7  1  0  0  0  0
 21 12  1  0  0  0  0
 21 22  1  1  0  0  0
 23 21  1  0  0  0  0
 23 25  1  0  0  0  0
 24 23  2  0  0  0  0
M  END
>  <MODEL>
3

>  <REMARK>
 VINA RESULT:      -9.3      3.403      6.017
  Name = 
  2 active torsions:
  status: ('A' for Active; 'I' for Inactive)
    1  A    between atoms: C_2  and  CA_21
    2  A    between atoms: C_15  and  CA_21
                            x       y       z     vdW  Elec       q    Type
                         _______ _______ _______ _____ _____    ______ ____

>  <TORSDO>
F 2

$$$$
=
 OpenBabel11052422163D

 25 28  0  0  1  0  0  0  0  0999 V2000
  161.4040  205.4620  148.9880 C   0  0  0  0  0  0  0  0  0  0  0  0
  161.4220  206.7200  149.6200 C   0  0  0  0  0  0  0  0  0  0  0  0
  162.0620  206.4840  146.8920 C   0  0  0  0  0  3  0  0  0  0  0  0
  161.0920  204.2050  149.5400 C   0  0  0  0  0  0  0  0  0  0  0  0
  161.1530  208.4430  152.9030 C   0  0  0  0  0  0  0  0  0  0  0  0
  160.5620  201.5670  150.2030 C   0  0  0  0  0  3  0  0  0  0  0  0
  162.0760  207.6960  147.5090 N   0  0  0  0  0  0  0  0  0  0  0  0
  161.1800  203.1780  148.6070 C   0  0  0  0  0  0  0  0  0  0  0  0
  160.9210  201.8860  148.9260 N   0  0  0  0  0  0  0  0  0  0  0  0
  161.8220  209.1950  149.4400 C   0  0  0  0  0  0  0  0  0  0  0  0
  162.1910  210.6010  148.4570 Cl  0  0  0  0  0  0  0  0  0  0  0  0
  160.9940  208.6450  154.1810 C   0  0  0  0  0  3  0  0  0  0  0  0
  161.0290  206.8720  151.0690 C   0  0  0  0  0  2  0  0  0  0  0  0
  160.4580  202.5690  151.1860 C   0  0  0  0  0  3  0  0  0  0  0  0
  161.7260  205.3630  147.6370 C   0  0  0  0  0  0  0  0  0  0  0  0
  161.6370  203.7650  147.0980 S   0  0  0  0  0  0  0  0  0  0  0  0
  161.6200  209.3680  150.7450 C   0  0  0  0  0  3  0  0  0  0  0  0
  160.7260  203.9040  150.8530 C   0  0  0  0  0  3  0  0  0  0  0  0
  161.3110  208.2350  151.6270 C   0  0  0  0  0  0  0  0  0  0  0  0
  161.7700  207.8490  148.8330 C   0  0  0  0  0  0  0  0  0  0  0  0
  161.1520  207.5260  155.1570 C   0  0  2  0  0  3  0  0  0  0  0  0
  160.7200  206.2720  154.5610 N   0  0  0  0  0  1  0  0  0  0  0  0
  160.3650  207.8030  156.3930 C   0  0  0  0  0  0  0  0  0  0  0  0
  159.9220  209.0930  156.6500 O   0  0  0  0  0  0  0  0  0  0  0  0
  160.0870  206.8750  157.1990 O   0  0  0  0  0  1  0  0  0  0  0  0
  1  4  1  0  0  0  0
  1  2  1  0  0  0  0
  2 13  1  0  0  0  0
  3  7  2  0  0  0  0
  3 15  1  0  0  0  0
  4 18  1  0  0  0  0
  5 12  2  0  0  0  0
  6 14  1  0  0  0  0
  7 20  1  0  0  0  0
  8  9  1  0  0  0  0
  8  4  2  0  0  0  0
  9  6  2  0  0  0  0
 10 17  2  0  0  0  0
 11 10  1  0  0  0  0
 12 21  1  0  0  0  0
 13 19  1  0  0  0  0
 15  1  2  0  0  0  0
 16 15  1  0  0  0  0
 16  8  1  0  0  0  0
 17 19  1  0  0  0  0
 18 14  2  0  0  0  0
 19  5  2  0  0  0  0
 20 10  1  0  0  0  0
 20  2  2  0  0  0  0
 21 22  1  6  0  0  0
 21 23  1  0  0  0  0
 23 24  2  0  0  0  0
 23 25  1  0  0  0  0
M  END
>  <MODEL>
4

>  <REMARK>
 VINA RESULT:      -9.3      3.537      5.451
  Name = 
  2 active torsions:
  status: ('A' for Active; 'I' for Inactive)
    1  A    between atoms: C_2  and  CA_21
    2  A    between atoms: C_15  and  CA_21
                            x       y       z     vdW  Elec       q    Type
                         _______ _______ _______ _____ _____    ______ ____

>  <TORSDO>
F 2

$$$$
=
 OpenBabel11052422163D

 25 28  0  0  1  0  0  0  0  0999 V2000
  160.9510  209.0890  153.2760 C   0  0  0  0  0  0  0  0  0  0  0  0
  161.2240  208.5490  152.0050 C   0  0  0  0  0  0  0  0  0  0  0  0
  161.1980  211.3330  152.3960 C   0  0  0  0  0  3  0  0  0  0  0  0
  160.6700  208.4130  154.4780 C   0  0  0  0  0  0  0  0  0  0  0  0
  161.2990  205.4030  150.0270 C   0  0  0  0  0  0  0  0  0  0  0  0
  160.0810  207.5030  157.0280 C   0  0  0  0  0  3  0  0  0  0  0  0
  161.4620  210.8030  151.1700 N   0  0  0  0  0  0  0  0  0  0  0  0
  160.4520  209.2830  155.5390 C   0  0  0  0  0  0  0  0  0  0  0  0
  160.1640  208.8430  156.7890 N   0  0  0  0  0  0  0  0  0  0  0  0
  161.7620  208.9510  149.5830 C   0  0  0  0  0  0  0  0  0  0  0  0
  162.1440  210.0660  148.2830 Cl  0  0  0  0  0  0  0  0  0  0  0  0
  161.2160  204.1400  149.7130 C   0  0  0  0  0  3  0  0  0  0  0  0
  161.2950  207.0570  151.7900 C   0  0  0  0  0  2  0  0  0  0  0  0
  160.2940  206.5780  155.9880 C   0  0  0  0  0  3  0  0  0  0  0  0
  160.9400  210.4710  153.4510 C   0  0  0  0  0  0  0  0  0  0  0  0
  160.5930  210.8870  155.0500 S   0  0  0  0  0  0  0  0  0  0  0  0
  161.7000  207.6500  149.3070 C   0  0  0  0  0  3  0  0  0  0  0  0
  160.5910  207.0360  154.6970 C   0  0  0  0  0  3  0  0  0  0  0  0
  161.3820  206.6630  150.3460 C   0  0  0  0  0  0  0  0  0  0  0  0
  161.4840  209.4540  150.9440 C   0  0  0  0  0  0  0  0  0  0  0  0
  160.4560  203.1870  150.5760 C   0  0  2  0  0  3  0  0  0  0  0  0
  161.1020  203.0540  151.8720 N   0  0  0  0  0  1  0  0  0  0  0  0
  160.3590  201.8540  149.9130 C   0  0  0  0  0  0  0  0  0  0  0  0
  159.3330  201.6090  149.0110 O   0  0  0  0  0  0  0  0  0  0  0  0
  161.2060  200.9540  150.1550 O   0  0  0  0  0  1  0  0  0  0  0  0
  1 15  2  0  0  0  0
  1  4  1  0  0  0  0
  2  1  1  0  0  0  0
  3 15  1  0  0  0  0
  4 18  2  0  0  0  0
  4  8  1  0  0  0  0
  5 19  2  0  0  0  0
  7  3  2  0  0  0  0
  8  9  2  0  0  0  0
  9  6  1  0  0  0  0
 10 20  1  0  0  0  0
 11 10  1  0  0  0  0
 12  5  2  0  0  0  0
 12 21  1  0  0  0  0
 13  2  1  0  0  0  0
 14  6  2  0  0  0  0
 15 16  1  0  0  0  0
 16  8  1  0  0  0  0
 17 10  2  0  0  0  0
 17 19  1  0  0  0  0
 18 14  1  0  0  0  0
 19 13  1  0  0  0  0
 20  7  1  0  0  0  0
 20  2  2  0  0  0  0
 21 22  1  1  0  0  0
 23 25  1  0  0  0  0
 23 21  1  0  0  0  0
 24 23  2  0  0  0  0
M  END
>  <MODEL>
5

>  <REMARK>
 VINA RESULT:      -7.8      4.780      8.168
  Name = 
  2 active torsions:
  status: ('A' for Active; 'I' for Inactive)
    1  A    between atoms: C_2  and  CA_21
    2  A    between atoms: C_15  and  CA_21
                            x       y       z     vdW  Elec       q    Type
                         _______ _______ _______ _____ _____    ______ ____

>  <TORSDO>
F 2

$$$$
=
 OpenBabel11052422163D

 25 28  0  0  1  0  0  0  0  0999 V2000
  161.5510  207.3990  150.0980 C   0  0  0  0  0  0  0  0  0  0  0  0
  161.4020  206.6880  151.3040 C   0  0  0  0  0  0  0  0  0  0  0  0
  161.2890  205.3470  148.8350 C   0  0  0  0  0  3  0  0  0  0  0  0
  161.7660  208.7770  149.9100 C   0  0  0  0  0  0  0  0  0  0  0  0
  161.0330  207.0520  154.9850 C   0  0  0  0  0  0  0  0  0  0  0  0
  162.1870  211.3900  149.0890 C   0  0  0  0  0  3  0  0  0  0  0  0
  161.1480  204.6670  150.0060 N   0  0  0  0  0  0  0  0  0  0  0  0
  161.8640  209.1210  148.5670 C   0  0  0  0  0  0  0  0  0  0  0  0
  162.0710  210.3980  148.1600 N   0  0  0  0  0  0  0  0  0  0  0  0
  161.0200  204.4850  152.4540 C   0  0  0  0  0  0  0  0  0  0  0  0
  160.8290  202.7440  152.3610 Cl  0  0  0  0  0  0  0  0  0  0  0  0
  160.9480  207.5910  156.1700 C   0  0  0  0  0  3  0  0  0  0  0  0
  161.5140  207.3840  152.6390 C   0  0  0  0  0  2  0  0  0  0  0  0
  162.0950  211.0950  150.4620 C   0  0  0  0  0  3  0  0  0  0  0  0
  161.4900  206.7190  148.8840 C   0  0  0  0  0  0  0  0  0  0  0  0
  161.6940  207.7690  147.5780 S   0  0  0  0  0  0  0  0  0  0  0  0
  160.9710  205.0670  153.6500 C   0  0  0  0  0  3  0  0  0  0  0  0
  161.8810  209.7750  150.8800 C   0  0  0  0  0  3  0  0  0  0  0  0
  161.1200  206.5200  153.8000 C   0  0  0  0  0  0  0  0  0  0  0  0
  161.1980  205.2860  151.2240 C   0  0  0  0  0  0  0  0  0  0  0  0
  160.6200  209.0390  156.3280 C   0  0  2  0  0  3  0  0  0  0  0  0
  159.3950  209.3610  155.6120 N   0  0  0  0  0  1  0  0  0  0  0  0
  161.7430  209.8820  155.8250 C   0  0  0  0  0  0  0  0  0  0  0  0
  161.6200  210.5310  154.6040 O   0  0  0  0  0  0  0  0  0  0  0  0
  162.7960  210.0210  156.5030 O   0  0  0  0  0  1  0  0  0  0  0  0
  1  2  2  0  0  0  0
  2 13  1  0  0  0  0
  3 15  2  0  0  0  0
  3  7  1  0  0  0  0
  4  1  1  0  0  0  0
  4 18  1  0  0  0  0
  5 12  2  0  0  0  0
  6 14  1  0  0  0  0
  7 20  2  0  0  0  0
  8  4  2  0  0  0  0
  9  8  1  0  0  0  0
  9  6  2  0  0  0  0
 10 17  2  0  0  0  0
 11 10  1  0  0  0  0
 12 21  1  0  0  0  0
 13 19  1  0  0  0  0
 14 18  2  0  0  0  0
 15  1  1  0  0  0  0
 16  8  1  0  0  0  0
 16 15  1  0  0  0  0
 17 19  1  0  0  0  0
 19  5  2  0  0  0  0
 20  2  1  0  0  0  0
 20 10  1  0  0  0  0
 21 22  1  6  0  0  0
 23 21  1  0  0  0  0
 23 25  1  0  0  0  0
 24 23  2  0  0  0  0
M  END
>  <MODEL>
6

>  <REMARK>
 VINA RESULT:      -7.5      3.318      5.673
  Name = 
  2 active torsions:
  status: ('A' for Active; 'I' for Inactive)
    1  A    between atoms: C_2  and  CA_21
    2  A    between atoms: C_15  and  CA_21
                            x       y       z     vdW  Elec       q    Type
                         _______ _______ _______ _____ _____    ______ ____

>  <TORSDO>
F 2

$$$$
=
 OpenBabel11052422163D

 25 28  0  0  1  0  0  0  0  0999 V2000
  161.4860  206.8620  150.2980 C   0  0  0  0  0  0  0  0  0  0  0  0
  161.4930  208.2160  150.6810 C   0  0  0  0  0  0  0  0  0  0  0  0
  162.0250  207.4850  148.0190 C   0  0  0  0  0  3  0  0  0  0  0  0
  161.2340  205.7250  151.0880 C   0  0  0  0  0  0  0  0  0  0  0  0
  161.3110  210.5200  153.5930 C   0  0  0  0  0  0  0  0  0  0  0  0
  160.8100  203.2480  152.2570 C   0  0  0  0  0  3  0  0  0  0  0  0
  162.0290  208.7920  148.3970 N   0  0  0  0  0  0  0  0  0  0  0  0
  161.3130  204.5430  150.3610 C   0  0  0  0  0  0  0  0  0  0  0  0
  161.1060  203.3290  150.9280 N   0  0  0  0  0  0  0  0  0  0  0  0
  161.8120  210.6220  150.0240 C   0  0  0  0  0  0  0  0  0  0  0  0
  162.0980  211.8250  148.7790 Cl  0  0  0  0  0  0  0  0  0  0  0  0
  161.1990  210.9560  154.8170 C   0  0  0  0  0  3  0  0  0  0  0  0
  161.1570  208.6300  152.0930 C   0  0  0  0  0  2  0  0  0  0  0  0
  160.7170  204.4150  153.0390 C   0  0  0  0  0  3  0  0  0  0  0  0
  161.7540  206.5170  148.9750 C   0  0  0  0  0  0  0  0  0  0  0  0
  161.6890  204.8450  148.7490 S   0  0  0  0  0  0  0  0  0  0  0  0
  161.6600  211.0320  151.2810 C   0  0  0  0  0  3  0  0  0  0  0  0
  160.9320  205.6690  152.4510 C   0  0  0  0  0  3  0  0  0  0  0  0
  161.4210  210.0790  152.3720 C   0  0  0  0  0  0  0  0  0  0  0  0
  161.7740  209.1840  149.6820 C   0  0  0  0  0  0  0  0  0  0  0  0
  161.4300  210.0440  155.9760 C   0  0  2  0  0  3  0  0  0  0  0  0
  162.8530  209.9260  156.2500 N   0  0  0  0  0  1  0  0  0  0  0  0
  160.8500  208.6980  155.6990 C   0  0  0  0  0  0  0  0  0  0  0  0
  159.4720  208.5260  155.7250 O   0  0  0  0  0  1  0  0  0  0  0  0
  161.5960  207.7200  155.4280 O   0  0  0  0  0  0  0  0  0  0  0  0
  1  2  1  0  0  0  0
  1  4  1  0  0  0  0
  2 13  1  0  0  0  0
  3  7  2  0  0  0  0
  3 15  1  0  0  0  0
  4 18  1  0  0  0  0
  5 12  2  0  0  0  0
  6 14  1  0  0  0  0
  7 20  1  0  0  0  0
  8  9  1  0  0  0  0
  8  4  2  0  0  0  0
  9  6  2  0  0  0  0
 10 17  2  0  0  0  0
 11 10  1  0  0  0  0
 12 21  1  0  0  0  0
 13 19  1  0  0  0  0
 15  1  2  0  0  0  0
 16 15  1  0  0  0  0
 16  8  1  0  0  0  0
 17 19  1  0  0  0  0
 18 14  2  0  0  0  0
 19  5  2  0  0  0  0
 20 10  1  0  0  0  0
 20  2  2  0  0  0  0
 21 22  1  6  0  0  0
 23 24  1  0  0  0  0
 23 21  1  0  0  0  0
 25 23  2  0  0  0  0
M  END
>  <MODEL>
7

>  <REMARK>
 VINA RESULT:      -7.1      3.667      5.587
  Name = 
  2 active torsions:
  status: ('A' for Active; 'I' for Inactive)
    1  A    between atoms: C_2  and  CA_21
    2  A    between atoms: C_15  and  CA_21
                            x       y       z     vdW  Elec       q    Type
                         _______ _______ _______ _____ _____    ______ ____

>  <TORSDO>
F 2

$$$$
=
 OpenBabel11052422163D

 25 28  0  0  1  0  0  0  0  0999 V2000
  161.6680  207.2150  150.1390 C   0  0  0  0  0  0  0  0  0  0  0  0
  161.7240  206.2290  149.1350 C   0  0  0  0  0  0  0  0  0  0  0  0
  161.9560  208.9530  148.4750 C   0  0  0  0  0  3  0  0  0  0  0  0
  161.5050  207.0480  151.5270 C   0  0  0  0  0  0  0  0  0  0  0  0
  161.2970  202.6000  148.4540 C   0  0  0  0  0  0  0  0  0  0  0  0
  161.2060  207.1800  154.2790 C   0  0  0  0  0  3  0  0  0  0  0  0
  162.0100  207.9940  147.5110 N   0  0  0  0  0  0  0  0  0  0  0  0
  161.4980  208.2580  152.2110 C   0  0  0  0  0  0  0  0  0  0  0  0
  161.3530  208.3280  153.5570 N   0  0  0  0  0  0  0  0  0  0  0  0
  161.9540  205.6770  146.6930 C   0  0  0  0  0  0  0  0  0  0  0  0
  162.2350  206.2030  145.0430 Cl  0  0  0  0  0  0  0  0  0  0  0  0
  161.0790  201.3270  148.6360 C   0  0  0  0  0  3  0  0  0  0  0  0
  161.6560  204.7610  149.4770 C   0  0  0  0  0  2  0  0  0  0  0  0
  161.2060  205.9290  153.6350 C   0  0  0  0  0  3  0  0  0  0  0  0
  161.7820  208.5590  149.7940 C   0  0  0  0  0  0  0  0  0  0  0  0
  161.6890  209.5550  151.1550 S   0  0  0  0  0  0  0  0  0  0  0  0
  161.7590  204.3800  146.9220 C   0  0  0  0  0  3  0  0  0  0  0  0
  161.3560  205.8590  152.2440 C   0  0  0  0  0  3  0  0  0  0  0  0
  161.5150  203.8720  148.2780 C   0  0  0  0  0  0  0  0  0  0  0  0
  161.9020  206.6610  147.7950 C   0  0  0  0  0  0  0  0  0  0  0  0
  160.3770  200.8410  149.8610 C   0  0  2  0  0  3  0  0  0  0  0  0
  158.9370  200.9560  149.6960 N   0  0  0  0  0  1  0  0  0  0  0  0
  160.8190  201.6190  151.0540 C   0  0  0  0  0  0  0  0  0  0  0  0
  162.0640  201.3650  151.6150 O   0  0  0  0  0  1  0  0  0  0  0  0
  160.0810  202.5120  151.5490 O   0  0  0  0  0  0  0  0  0  0  0  0
  1  4  1  0  0  0  0
  2 13  1  0  0  0  0
  2  1  1  0  0  0  0
  3 15  1  0  0  0  0
  4  8  2  0  0  0  0
  4 18  1  0  0  0  0
  5 12  2  0  0  0  0
  7 20  1  0  0  0  0
  7  3  2  0  0  0  0
  8  9  1  0  0  0  0
  9  6  2  0  0  0  0
 10 17  2  0  0  0  0
 10 20  1  0  0  0  0
 11 10  1  0  0  0  0
 12 21  1  0  0  0  0
 14  6  1  0  0  0  0
 15  1  2  0  0  0  0
 15 16  1  0  0  0  0
 16  8  1  0  0  0  0
 17 19  1  0  0  0  0
 18 14  2  0  0  0  0
 19  5  2  0  0  0  0
 19 13  1  0  0  0  0
 20  2  2  0  0  0  0
 21 22  1  6  0  0  0
 21 23  1  0  0  0  0
 23 25  2  0  0  0  0
 23 24  1  0  0  0  0
M  END
>  <MODEL>
8

>  <REMARK>
 VINA RESULT:      -7.1      4.480      7.747
  Name = 
  2 active torsions:
  status: ('A' for Active; 'I' for Inactive)
    1  A    between atoms: C_2  and  CA_21
    2  A    between atoms: C_15  and  CA_21
                            x       y       z     vdW  Elec       q    Type
                         _______ _______ _______ _____ _____    ______ ____

>  <TORSDO>
F 2

$$$$
=
 OpenBabel11052422163D

 25 28  0  0  1  0  0  0  0  0999 V2000
  161.0470  207.8760  153.1870 C   0  0  0  0  0  0  0  0  0  0  0  0
  161.2280  207.8550  151.7920 C   0  0  0  0  0  0  0  0  0  0  0  0
  161.1870  205.4580  153.2620 C   0  0  0  0  0  3  0  0  0  0  0  0
  160.8670  208.9860  154.0340 C   0  0  0  0  0  0  0  0  0  0  0  0
  161.7750  209.9860  148.7950 C   0  0  0  0  0  0  0  0  0  0  0  0
  160.4920  210.8590  156.0410 C   0  0  0  0  0  3  0  0  0  0  0  0
  161.3590  205.4460  151.9120 N   0  0  0  0  0  0  0  0  0  0  0  0
  160.7190  208.6200  155.3670 C   0  0  0  0  0  0  0  0  0  0  0  0
  160.5340  209.5320  156.3520 N   0  0  0  0  0  0  0  0  0  0  0  0
  161.5920  206.5020  149.7050 C   0  0  0  0  0  0  0  0  0  0  0  0
  161.7240  204.9380  148.9190 Cl  0  0  0  0  0  0  0  0  0  0  0  0
  161.9310  211.0380  148.0410 C   0  0  0  0  0  3  0  0  0  0  0  0
  161.1980  209.1270  150.9810 C   0  0  0  0  0  2  0  0  0  0  0  0
  160.6370  211.2840  154.7070 C   0  0  0  0  0  3  0  0  0  0  0  0
  161.0320  206.6800  153.9000 C   0  0  0  0  0  0  0  0  0  0  0  0
  160.8020  206.9490  155.5510 S   0  0  0  0  0  0  0  0  0  0  0  0
  161.7140  207.5990  148.9600 C   0  0  0  0  0  3  0  0  0  0  0  0
  160.8270  210.3390  153.6900 C   0  0  0  0  0  3  0  0  0  0  0  0
  161.6170  208.9390  149.5530 C   0  0  0  0  0  0  0  0  0  0  0  0
  161.3840  206.5910  151.1650 C   0  0  0  0  0  0  0  0  0  0  0  0
  162.3110  212.3540  148.6350 C   0  0  2  0  0  3  0  0  0  0  0  0
  161.2090  212.8940  149.4150 N   0  0  0  0  0  1  0  0  0  0  0  0
  162.6960  213.3150  147.5610 C   0  0  0  0  0  0  0  0  0  0  0  0
  162.5290  212.9580  146.2290 O   0  0  0  0  0  0  0  0  0  0  0  0
  163.1580  214.4510  147.8490 O   0  0  0  0  0  1  0  0  0  0  0  0
  1 15  2  0  0  0  0
  1  4  1  0  0  0  0
  2  1  1  0  0  0  0
  3 15  1  0  0  0  0
  4  8  1  0  0  0  0
  5 19  2  0  0  0  0
  6  9  1  0  0  0  0
  7  3  2  0  0  0  0
  8 16  1  0  0  0  0
  8  9  2  0  0  0  0
 10 20  1  0  0  0  0
 11 10  1  0  0  0  0
 12 21  1  0  0  0  0
 12  5  2  0  0  0  0
 13  2  1  0  0  0  0
 14  6  2  0  0  0  0
 15 16  1  0  0  0  0
 17 19  1  0  0  0  0
 17 10  2  0  0  0  0
 18  4  2  0  0  0  0
 18 14  1  0  0  0  0
 19 13  1  0  0  0  0
 20  2  2  0  0  0  0
 20  7  1  0  0  0  0
 21 22  1  6  0  0  0
 23 25  1  0  0  0  0
 23 21  1  0  0  0  0
 24 23  2  0  0  0  0
M  END
>  <MODEL>
9

>  <REMARK>
 VINA RESULT:      -6.8      3.214      5.864
  Name = 
  2 active torsions:
  status: ('A' for Active; 'I' for Inactive)
    1  A    between atoms: C_2  and  CA_21
    2  A    between atoms: C_15  and  CA_21
                            x       y       z     vdW  Elec       q    Type
                         _______ _______ _______ _____ _____    ______ ____

>  <TORSDO>
F 2

$$$$
