=
 OpenBabel11052422263D

 31 35  0  0  1  0  0  0  0  0999 V2000
  161.1890  207.4570  153.8350 C   0  0  0  0  0  0  0  0  0  0  0  0
  161.3260  207.3780  150.0690 C   0  0  0  0  0  0  0  0  0  0  0  0
  161.0460  206.0560  149.6430 C   0  0  0  0  0  0  0  0  0  0  0  0
  160.8610  203.9370  150.9030 C   0  0  0  0  0  3  0  0  0  0  0  0
  160.8600  207.9150  151.4150 C   0  0  1  0  0  3  0  0  0  0  0  0
  161.1010  208.9330  154.1620 C   0  0  0  0  0  2  0  0  0  0  0  0
  160.1520  205.1700  150.4560 C   0  0  0  0  0  2  0  0  0  0  0  0
  162.1880  209.7150  149.5260 C   0  0  1  0  0  3  0  0  0  0  0  0
  161.3920  206.5540  154.8700 O   0  0  0  0  0  1  0  0  0  0  0  0
  162.1460  206.5280  147.5450 C   0  0  0  0  0  3  0  0  0  0  0  0
  161.3100  203.0150  150.0550 C   0  0  0  0  0  3  0  0  0  0  0  0
  161.2690  210.1630  150.5740 N   0  0  0  0  0  2  0  0  0  0  0  0
  161.9290  208.2690  149.1470 C   0  0  0  0  0  0  0  0  0  0  0  0
  161.1390  207.0000  152.5770 C   0  0  0  0  0  3  0  0  0  0  0  0
  161.2500  203.1200  148.5850 C   0  0  0  0  0  3  0  0  0  0  0  0
  161.4630  209.2840  151.7150 C   0  0  1  0  0  3  0  0  0  0  0  0
  160.7790  209.8300  152.9580 C   0  0  0  0  0  2  0  0  0  0  0  0
  162.3410  207.8110  147.9360 N   0  0  0  0  0  0  0  0  0  0  0  0
  161.5020  205.6190  148.3810 C   0  0  0  0  0  0  0  0  0  0  0  0
  161.3260  204.2460  147.8650 C   0  0  0  0  0  3  0  0  0  0  0  0
  162.0650  210.6340  148.3160 C   0  0  0  0  0  2  0  0  0  0  0  0
  163.4280  212.6870  148.1200 C   0  0  0  0  0  1  0  0  0  0  0  0
  162.1710  212.0940  148.7250 C   0  0  1  0  0  3  0  0  0  0  0  0
  159.0640  213.4670  151.3160 C   0  0  0  0  0  0  0  0  0  0  0  0
  161.0060  212.8280  148.2520 N   0  0  0  0  0  2  0  0  0  0  0  0
  157.8900  214.4530  149.4590 C   0  0  0  0  0  3  0  0  0  0  0  0
  159.1670  213.1690  152.7690 C   0  0  0  0  0  1  0  0  0  0  0  0
  160.0350  213.0390  150.4650 N   0  0  0  0  0  0  0  0  0  0  0  0
  158.8970  214.0060  148.6020 C   0  0  0  0  0  3  0  0  0  0  0  0
  159.9770  213.2920  149.1270 C   0  0  0  0  0  0  0  0  0  0  0  0
  157.9710  214.1840  150.8260 C   0  0  0  0  0  3  0  0  0  0  0  0
  1  6  1  0  0  0  0
  1  9  1  0  0  0  0
  2  5  1  0  0  0  0
  3  2  1  0  0  0  0
  3  7  1  0  0  0  0
  5 16  1  0  0  0  0
  5 14  1  1  0  0  0
  7  4  1  0  0  0  0
  8 21  1  6  0  0  0
  8 12  1  0  0  0  0
 10 18  2  0  0  0  0
 10 19  1  0  0  0  0
 11  4  2  0  0  0  0
 12 16  1  0  0  0  0
 13  8  1  0  0  0  0
 13  2  2  0  0  0  0
 14  1  2  0  0  0  0
 15 11  1  0  0  0  0
 16 17  1  1  0  0  0
 17  6  1  0  0  0  0
 18 13  1  0  0  0  0
 19  3  2  0  0  0  0
 20 19  1  0  0  0  0
 20 15  2  0  0  0  0
 21 23  1  0  0  0  0
 23 22  1  6  0  0  0
 24 27  1  0  0  0  0
 25 23  1  0  0  0  0
 25 30  1  0  0  0  0
 26 31  1  0  0  0  0
 28 24  1  0  0  0  0
 29 30  1  0  0  0  0
 29 26  2  0  0  0  0
 30 28  2  0  0  0  0
 31 24  2  0  0  0  0
M  END
>  <MODEL>
1

>  <REMARK>
 VINA RESULT:      -9.0      0.000      0.000
  Name = 
  3 active torsions:
  status: ('A' for Active; 'I' for Inactive)
    1  A    between atoms: N_3  and  C_9
    2  A    between atoms: C_9  and  C_23
    3  A    between atoms: C_15  and  C_23
                            x       y       z     vdW  Elec       q    Type
                         _______ _______ _______ _____ _____    ______ ____

>  <TORSDO>
F 3

$$$$
=
 OpenBabel11052422263D

 31 35  0  0  1  0  0  0  0  0999 V2000
  162.2400  209.9570  149.5260 C   0  0  0  0  0  0  0  0  0  0  0  0
  161.0900  207.5360  152.1760 C   0  0  0  0  0  0  0  0  0  0  0  0
  160.8880  208.2580  153.3780 C   0  0  0  0  0  0  0  0  0  0  0  0
  161.4740  210.5740  154.0130 C   0  0  0  0  0  3  0  0  0  0  0  0
  161.0360  208.2020  150.8090 C   0  0  1  0  0  3  0  0  0  0  0  0
  162.0430  209.1960  148.2320 C   0  0  0  0  0  2  0  0  0  0  0  0
  160.4740  209.6970  153.3400 C   0  0  0  0  0  2  0  0  0  0  0  0
  161.3420  205.2960  150.9860 C   0  0  1  0  0  3  0  0  0  0  0  0
  162.9220  211.1660  149.4950 O   0  0  0  0  0  1  0  0  0  0  0  0
  161.1160  206.1990  154.6210 C   0  0  0  0  0  3  0  0  0  0  0  0
  161.7420  210.4960  155.3140 C   0  0  0  0  0  3  0  0  0  0  0  0
  160.7810  205.9890  149.8250 N   0  0  0  0  0  2  0  0  0  0  0  0
  161.1950  206.1250  152.2480 C   0  0  0  0  0  0  0  0  0  0  0  0
  161.8330  209.4750  150.7080 C   0  0  0  0  0  3  0  0  0  0  0  0
  161.1660  209.4990  156.2360 C   0  0  0  0  0  3  0  0  0  0  0  0
  161.4870  207.2530  149.7020 C   0  0  1  0  0  3  0  0  0  0  0  0
  161.1950  207.9240  148.3690 C   0  0  0  0  0  2  0  0  0  0  0  0
  161.2330  205.5110  153.4590 N   0  0  0  0  0  0  0  0  0  0  0  0
  160.9460  207.5810  154.6160 C   0  0  0  0  0  0  0  0  0  0  0  0
  160.8170  208.2430  155.9300 C   0  0  0  0  0  3  0  0  0  0  0  0
  160.6730  203.9350  151.1370 C   0  0  0  0  0  2  0  0  0  0  0  0
  161.8710  201.8850  151.8280 C   0  0  0  0  0  1  0  0  0  0  0  0
  161.5910  202.8190  150.6660 C   0  0  1  0  0  3  0  0  0  0  0  0
  161.9340  203.9330  146.5570 C   0  0  0  0  0  0  0  0  0  0  0  0
  160.9570  202.0770  149.5850 N   0  0  0  0  0  2  0  0  0  0  0  0
  160.5850  202.0530  145.8880 C   0  0  0  0  0  3  0  0  0  0  0  0
  162.7250  205.1430  146.2120 C   0  0  0  0  0  1  0  0  0  0  0  0
  161.8020  203.5550  147.8570 N   0  0  0  0  0  0  0  0  0  0  0  0
  160.4620  201.6810  147.2290 C   0  0  0  0  0  3  0  0  0  0  0  0
  161.0850  202.4520  148.2130 C   0  0  0  0  0  0  0  0  0  0  0  0
  161.3250  203.1850  145.5460 C   0  0  0  0  0  3  0  0  0  0  0  0
  1 14  2  0  0  0  0
  2 13  2  0  0  0  0
  2  3  1  0  0  0  0
  3 19  2  0  0  0  0
  4 11  2  0  0  0  0
  5 14  1  1  0  0  0
  5  2  1  0  0  0  0
  6 17  1  0  0  0  0
  6  1  1  0  0  0  0
  7  3  1  0  0  0  0
  7  4  1  0  0  0  0
  8 21  1  1  0  0  0
  8 13  1  0  0  0  0
  9  1  1  0  0  0  0
 11 15  1  0  0  0  0
 12  8  1  0  0  0  0
 13 18  1  0  0  0  0
 16 17  1  6  0  0  0
 16 12  1  0  0  0  0
 16  5  1  0  0  0  0
 18 10  2  0  0  0  0
 19 10  1  0  0  0  0
 19 20  1  0  0  0  0
 20 15  2  0  0  0  0
 23 21  1  0  0  0  0
 23 22  1  1  0  0  0
 24 28  1  0  0  0  0
 25 23  1  0  0  0  0
 26 29  2  0  0  0  0
 27 24  1  0  0  0  0
 28 30  2  0  0  0  0
 29 30  1  0  0  0  0
 30 25  1  0  0  0  0
 31 26  1  0  0  0  0
 31 24  2  0  0  0  0
M  END
>  <MODEL>
2

>  <REMARK>
 VINA RESULT:      -9.0      3.450      8.156
  Name = 
  3 active torsions:
  status: ('A' for Active; 'I' for Inactive)
    1  A    between atoms: N_3  and  C_9
    2  A    between atoms: C_9  and  C_23
    3  A    between atoms: C_15  and  C_23
                            x       y       z     vdW  Elec       q    Type
                         _______ _______ _______ _____ _____    ______ ____

>  <TORSDO>
F 3

$$$$
=
 OpenBabel11052422263D

 31 35  0  0  1  0  0  0  0  0999 V2000
  161.1550  207.1650  153.8280 C   0  0  0  0  0  0  0  0  0  0  0  0
  161.3010  207.2130  150.0610 C   0  0  0  0  0  0  0  0  0  0  0  0
  161.0180  205.9070  149.5900 C   0  0  0  0  0  0  0  0  0  0  0  0
  160.8250  203.7470  150.7770 C   0  0  0  0  0  3  0  0  0  0  0  0
  160.8320  207.7050  151.4230 C   0  0  1  0  0  3  0  0  0  0  0  0
  161.0690  208.6290  154.2040 C   0  0  0  0  0  2  0  0  0  0  0  0
  160.1200  204.9960  150.3700 C   0  0  0  0  0  2  0  0  0  0  0  0
  162.1690  209.5650  149.5990 C   0  0  1  0  0  3  0  0  0  0  0  0
  161.3540  206.2270  154.8310 O   0  0  0  0  0  1  0  0  0  0  0  0
  162.1240  206.4470  147.5120 C   0  0  0  0  0  3  0  0  0  0  0  0
  161.2740  202.8530  149.8990 C   0  0  0  0  0  3  0  0  0  0  0  0
  161.2490  209.9790  150.6600 N   0  0  0  0  0  2  0  0  0  0  0  0
  161.9070  208.1330  149.1710 C   0  0  0  0  0  0  0  0  0  0  0  0
  161.1060  206.7510  152.5550 C   0  0  0  0  0  3  0  0  0  0  0  0
  161.2170  203.0080  148.4340 C   0  0  0  0  0  3  0  0  0  0  0  0
  161.4390  209.0620  151.7710 C   0  0  1  0  0  3  0  0  0  0  0  0
  160.7530  209.5670  153.0300 C   0  0  0  0  0  2  0  0  0  0  0  0
  162.3210  207.7160  147.9460 N   0  0  0  0  0  0  0  0  0  0  0  0
  161.4760  205.5120  148.3150 C   0  0  0  0  0  0  0  0  0  0  0  0
  161.2980  204.1580  147.7530 C   0  0  0  0  0  3  0  0  0  0  0  0
  162.0510  210.5240  148.4200 C   0  0  0  0  0  2  0  0  0  0  0  0
  163.2550  212.5870  147.7820 C   0  0  0  0  0  1  0  0  0  0  0  0
  162.3770  211.9480  148.8410 C   0  0  1  0  0  3  0  0  0  0  0  0
  159.6360  212.6070  145.6320 C   0  0  0  0  0  0  0  0  0  0  0  0
  161.1490  212.7170  148.9870 N   0  0  0  0  0  2  0  0  0  0  0  0
  158.1760  213.8630  147.0770 C   0  0  0  0  0  3  0  0  0  0  0  0
  159.9550  212.0380  144.2960 C   0  0  0  0  0  1  0  0  0  0  0  0
  160.4910  212.4180  146.6720 N   0  0  0  0  0  0  0  0  0  0  0  0
  159.0660  213.6580  148.1330 C   0  0  0  0  0  3  0  0  0  0  0  0
  160.2340  212.9230  147.9120 C   0  0  0  0  0  0  0  0  0  0  0  0
  158.4590  213.3350  145.8170 C   0  0  0  0  0  3  0  0  0  0  0  0
  1  6  1  0  0  0  0
  1  9  1  0  0  0  0
  2  5  1  0  0  0  0
  3  2  1  0  0  0  0
  3  7  1  0  0  0  0
  5 16  1  0  0  0  0
  5 14  1  1  0  0  0
  7  4  1  0  0  0  0
  8 21  1  6  0  0  0
  8 12  1  0  0  0  0
 10 18  2  0  0  0  0
 10 19  1  0  0  0  0
 11  4  2  0  0  0  0
 12 16  1  0  0  0  0
 13  8  1  0  0  0  0
 13  2  2  0  0  0  0
 14  1  2  0  0  0  0
 15 11  1  0  0  0  0
 16 17  1  1  0  0  0
 17  6  1  0  0  0  0
 18 13  1  0  0  0  0
 19  3  2  0  0  0  0
 20 19  1  0  0  0  0
 20 15  2  0  0  0  0
 21 23  1  0  0  0  0
 23 22  1  6  0  0  0
 23 25  1  0  0  0  0
 24 31  2  0  0  0  0
 24 28  1  0  0  0  0
 26 29  2  0  0  0  0
 27 24  1  0  0  0  0
 28 30  2  0  0  0  0
 30 29  1  0  0  0  0
 30 25  1  0  0  0  0
 31 26  1  0  0  0  0
M  END
>  <MODEL>
3

>  <REMARK>
 VINA RESULT:      -8.9      1.294      2.258
  Name = 
  3 active torsions:
  status: ('A' for Active; 'I' for Inactive)
    1  A    between atoms: N_3  and  C_9
    2  A    between atoms: C_9  and  C_23
    3  A    between atoms: C_15  and  C_23
                            x       y       z     vdW  Elec       q    Type
                         _______ _______ _______ _____ _____    ______ ____

>  <TORSDO>
F 3

$$$$
=
 OpenBabel11052422263D

 31 35  0  0  1  0  0  0  0  0999 V2000
  161.0780  205.0510  149.1160 C   0  0  0  0  0  0  0  0  0  0  0  0
  161.7010  208.3090  150.9070 C   0  0  0  0  0  0  0  0  0  0  0  0
  161.6650  208.0610  152.3020 C   0  0  0  0  0  0  0  0  0  0  0  0
  160.9620  206.0730  153.5930 C   0  0  0  0  0  3  0  0  0  0  0  0
  162.0160  207.2160  149.8960 C   0  0  1  0  0  3  0  0  0  0  0  0
  161.5230  205.3290  147.6960 C   0  0  0  0  0  2  0  0  0  0  0  0
  162.0760  206.7280  152.8480 C   0  0  0  0  0  2  0  0  0  0  0  0
  161.6870  209.9780  148.9810 C   0  0  1  0  0  3  0  0  0  0  0  0
  160.4130  203.8630  149.3880 O   0  0  0  0  0  1  0  0  0  0  0  0
  161.2050  210.4030  152.6780 C   0  0  0  0  0  3  0  0  0  0  0  0
  160.4480  206.5780  154.7120 C   0  0  0  0  0  3  0  0  0  0  0  0
  162.4610  208.9650  148.2610 N   0  0  0  0  0  2  0  0  0  0  0  0
  161.5860  209.6470  150.4580 C   0  0  0  0  0  0  0  0  0  0  0  0
  161.2510  205.9370  150.1060 C   0  0  0  0  0  3  0  0  0  0  0  0
  160.8370  207.8670  155.3120 C   0  0  0  0  0  3  0  0  0  0  0  0
  161.7890  207.6920  148.4640 C   0  0  1  0  0  3  0  0  0  0  0  0
  162.3320  206.6240  147.5290 C   0  0  0  0  0  2  0  0  0  0  0  0
  161.3160  210.6380  151.3480 N   0  0  0  0  0  0  0  0  0  0  0  0
  161.3710  209.1180  153.1900 C   0  0  0  0  0  0  0  0  0  0  0  0
  161.2420  208.9610  154.6530 C   0  0  0  0  0  3  0  0  0  0  0  0
  162.3180  211.3480  148.7630 C   0  0  0  0  0  2  0  0  0  0  0  0
  160.4800  213.0010  148.7390 C   0  0  0  0  0  1  0  0  0  0  0  0
  161.4450  212.2160  147.8720 C   0  0  1  0  0  3  0  0  0  0  0  0
  161.0890  212.7200  143.6450 C   0  0  0  0  0  0  0  0  0  0  0  0
  162.2750  213.1360  147.1070 N   0  0  0  0  0  2  0  0  0  0  0  0
  162.8360  214.3780  143.6510 C   0  0  0  0  0  3  0  0  0  0  0  0
  160.0810  211.9080  142.9150 C   0  0  0  0  0  1  0  0  0  0  0  0
  161.2300  212.5780  144.9900 N   0  0  0  0  0  0  0  0  0  0  0  0
  162.9640  214.2200  145.0320 C   0  0  0  0  0  3  0  0  0  0  0  0
  162.1430  213.3050  145.6950 C   0  0  0  0  0  0  0  0  0  0  0  0
  161.8930  213.6260  142.9490 C   0  0  0  0  0  3  0  0  0  0  0  0
  1  9  1  0  0  0  0
  1 14  2  0  0  0  0
  2  3  1  0  0  0  0
  3  7  1  0  0  0  0
  3 19  2  0  0  0  0
  4 11  2  0  0  0  0
  5 14  1  1  0  0  0
  5  2  1  0  0  0  0
  6  1  1  0  0  0  0
  7  4  1  0  0  0  0
  8 21  1  1  0  0  0
  8 13  1  0  0  0  0
 10 19  1  0  0  0  0
 11 15  1  0  0  0  0
 12 16  1  0  0  0  0
 12  8  1  0  0  0  0
 13  2  2  0  0  0  0
 13 18  1  0  0  0  0
 16 17  1  6  0  0  0
 16  5  1  0  0  0  0
 17  6  1  0  0  0  0
 18 10  2  0  0  0  0
 19 20  1  0  0  0  0
 20 15  2  0  0  0  0
 23 22  1  1  0  0  0
 23 21  1  0  0  0  0
 24 28  1  0  0  0  0
 25 23  1  0  0  0  0
 26 29  2  0  0  0  0
 27 24  1  0  0  0  0
 28 30  2  0  0  0  0
 29 30  1  0  0  0  0
 30 25  1  0  0  0  0
 31 24  2  0  0  0  0
 31 26  1  0  0  0  0
M  END
>  <MODEL>
4

>  <REMARK>
 VINA RESULT:      -8.4      2.584      5.382
  Name = 
  3 active torsions:
  status: ('A' for Active; 'I' for Inactive)
    1  A    between atoms: N_3  and  C_9
    2  A    between atoms: C_9  and  C_23
    3  A    between atoms: C_15  and  C_23
                            x       y       z     vdW  Elec       q    Type
                         _______ _______ _______ _____ _____    ______ ____

>  <TORSDO>
F 3

$$$$
=
 OpenBabel11052422263D

 31 35  0  0  1  0  0  0  0  0999 V2000
  161.0690  204.9360  149.1900 C   0  0  0  0  0  0  0  0  0  0  0  0
  161.6930  208.2280  150.9180 C   0  0  0  0  0  0  0  0  0  0  0  0
  161.6520  208.0090  152.3170 C   0  0  0  0  0  0  0  0  0  0  0  0
  160.9410  206.0480  153.6450 C   0  0  0  0  0  3  0  0  0  0  0  0
  162.0090  207.1140  149.9290 C   0  0  1  0  0  3  0  0  0  0  0  0
  161.5190  205.1850  147.7660 C   0  0  0  0  0  2  0  0  0  0  0  0
  162.0580  206.6850  152.8900 C   0  0  0  0  0  2  0  0  0  0  0  0
  161.6890  209.8580  148.9590 C   0  0  1  0  0  3  0  0  0  0  0  0
  160.4000  203.7560  149.4840 O   0  0  0  0  0  1  0  0  0  0  0  0
  161.1970  210.3580  152.6450 C   0  0  0  0  0  3  0  0  0  0  0  0
  160.4250  206.5770  154.7520 C   0  0  0  0  0  3  0  0  0  0  0  0
  162.4630  208.8290  148.2610 N   0  0  0  0  0  2  0  0  0  0  0  0
  161.5830  209.5570  150.4410 C   0  0  0  0  0  0  0  0  0  0  0  0
  161.2400  205.8420  150.1620 C   0  0  0  0  0  3  0  0  0  0  0  0
  160.8140  207.8770  155.3270 C   0  0  0  0  0  3  0  0  0  0  0  0
  161.7870  207.5630  148.4870 C   0  0  1  0  0  3  0  0  0  0  0  0
  162.3310  206.4750  147.5750 C   0  0  0  0  0  2  0  0  0  0  0  0
  161.3120  210.5670  151.3100 N   0  0  0  0  0  0  0  0  0  0  0  0
  161.3570  209.0840  153.1820 C   0  0  0  0  0  0  0  0  0  0  0  0
  161.2240  208.9560  154.6480 C   0  0  0  0  0  3  0  0  0  0  0  0
  162.3240  211.2230  148.7150 C   0  0  0  0  0  2  0  0  0  0  0  0
  161.3770  213.4880  149.0100 C   0  0  0  0  0  1  0  0  0  0  0  0
  161.3010  212.2160  148.1880 C   0  0  1  0  0  3  0  0  0  0  0  0
  158.2760  213.4070  145.4170 C   0  0  0  0  0  0  0  0  0  0  0  0
  161.5760  212.5180  146.7910 N   0  0  0  0  0  2  0  0  0  0  0  0
  159.9060  213.6070  143.6560 C   0  0  0  0  0  3  0  0  0  0  0  0
  156.8720  213.5030  145.8960 C   0  0  0  0  0  1  0  0  0  0  0  0
  159.2600  213.0250  146.2750 N   0  0  0  0  0  0  0  0  0  0  0  0
  160.9030  213.2150  144.5520 C   0  0  0  0  0  3  0  0  0  0  0  0
  160.5600  212.9250  145.8740 C   0  0  0  0  0  0  0  0  0  0  0  0
  158.5820  213.7060  144.0880 C   0  0  0  0  0  3  0  0  0  0  0  0
  1  9  1  0  0  0  0
  1 14  2  0  0  0  0
  2  3  1  0  0  0  0
  3  7  1  0  0  0  0
  3 19  2  0  0  0  0
  4 11  2  0  0  0  0
  5 14  1  1  0  0  0
  5  2  1  0  0  0  0
  6  1  1  0  0  0  0
  7  4  1  0  0  0  0
  8 21  1  1  0  0  0
  8 13  1  0  0  0  0
 10 19  1  0  0  0  0
 11 15  1  0  0  0  0
 12 16  1  0  0  0  0
 12  8  1  0  0  0  0
 13  2  2  0  0  0  0
 13 18  1  0  0  0  0
 16 17  1  6  0  0  0
 16  5  1  0  0  0  0
 17  6  1  0  0  0  0
 18 10  2  0  0  0  0
 19 20  1  0  0  0  0
 20 15  2  0  0  0  0
 23 21  1  0  0  0  0
 23 22  1  1  0  0  0
 24 27  1  0  0  0  0
 24 28  1  0  0  0  0
 25 23  1  0  0  0  0
 26 31  1  0  0  0  0
 26 29  2  0  0  0  0
 29 30  1  0  0  0  0
 30 28  2  0  0  0  0
 30 25  1  0  0  0  0
 31 24  2  0  0  0  0
M  END
>  <MODEL>
5

>  <REMARK>
 VINA RESULT:      -8.4      2.340      4.883
  Name = 
  3 active torsions:
  status: ('A' for Active; 'I' for Inactive)
    1  A    between atoms: N_3  and  C_9
    2  A    between atoms: C_9  and  C_23
    3  A    between atoms: C_15  and  C_23
                            x       y       z     vdW  Elec       q    Type
                         _______ _______ _______ _____ _____    ______ ____

>  <TORSDO>
F 3

$$$$
=
 OpenBabel11052422263D

 31 35  0  0  1  0  0  0  0  0999 V2000
  161.7190  210.4920  148.6660 C   0  0  0  0  0  0  0  0  0  0  0  0
  161.5870  207.0800  150.2630 C   0  0  0  0  0  0  0  0  0  0  0  0
  161.7580  206.1080  149.2460 C   0  0  0  0  0  0  0  0  0  0  0  0
  161.7610  206.3030  146.7820 C   0  0  0  0  0  3  0  0  0  0  0  0
  162.0930  208.5080  150.1150 C   0  0  1  0  0  3  0  0  0  0  0  0
  161.9290  211.4300  149.8360 C   0  0  0  0  0  2  0  0  0  0  0  0
  162.5720  206.4180  148.0280 C   0  0  0  0  0  2  0  0  0  0  0  0
  160.9260  207.6460  152.6580 C   0  0  1  0  0  3  0  0  0  0  0  0
  161.4380  211.0310  147.4190 O   0  0  0  0  0  1  0  0  0  0  0  0
  160.7080  204.4680  150.6750 C   0  0  0  0  0  3  0  0  0  0  0  0
  161.2390  205.1520  146.3640 C   0  0  0  0  0  3  0  0  0  0  0  0
  161.8750  208.7530  152.5280 N   0  0  0  0  0  2  0  0  0  0  0  0
  161.0640  206.6630  151.5110 C   0  0  0  0  0  0  0  0  0  0  0  0
  161.7350  209.1600  148.8070 C   0  0  0  0  0  3  0  0  0  0  0  0
  161.3130  203.8770  147.1000 C   0  0  0  0  0  3  0  0  0  0  0  0
  161.6050  209.3980  151.2550 C   0  0  1  0  0  3  0  0  0  0  0  0
  162.3280  210.7300  151.1440 C   0  0  0  0  0  2  0  0  0  0  0  0
  160.6190  205.3880  151.6660 N   0  0  0  0  0  0  0  0  0  0  0  0
  161.2710  204.7980  149.4460 C   0  0  0  0  0  0  0  0  0  0  0  0
  161.3330  203.7260  148.4310 C   0  0  0  0  0  3  0  0  0  0  0  0
  161.1290  206.9580  154.0040 C   0  0  0  0  0  2  0  0  0  0  0  0
  160.3560  206.8070  156.3480 C   0  0  0  0  0  1  0  0  0  0  0  0
  160.3650  207.6760  155.1050 C   0  0  1  0  0  3  0  0  0  0  0  0
  158.1870  211.3130  155.6310 C   0  0  0  0  0  0  0  0  0  0  0  0
  161.0030  208.9510  155.4030 N   0  0  0  0  0  2  0  0  0  0  0  0
  160.2240  212.5230  156.0600 C   0  0  0  0  0  3  0  0  0  0  0  0
  156.7070  211.2820  155.4880 C   0  0  0  0  0  1  0  0  0  0  0  0
  158.9090  210.1720  155.4640 N   0  0  0  0  0  0  0  0  0  0  0  0
  160.9470  211.3410  155.8870 C   0  0  0  0  0  3  0  0  0  0  0  0
  160.2660  210.1590  155.5870 C   0  0  0  0  0  0  0  0  0  0  0  0
  158.8340  212.5130  155.9330 C   0  0  0  0  0  3  0  0  0  0  0  0
  1 14  2  0  0  0  0
  1  6  1  0  0  0  0
  2 13  1  0  0  0  0
  3 19  1  0  0  0  0
  3  2  2  0  0  0  0
  4  7  1  0  0  0  0
  5 14  1  6  0  0  0
  5  2  1  0  0  0  0
  5 16  1  0  0  0  0
  6 17  1  0  0  0  0
  7  3  1  0  0  0  0
  8 21  1  1  0  0  0
  9  1  1  0  0  0  0
 10 18  1  0  0  0  0
 11  4  2  0  0  0  0
 11 15  1  0  0  0  0
 12  8  1  0  0  0  0
 13 18  2  0  0  0  0
 13  8  1  0  0  0  0
 15 20  2  0  0  0  0
 16 17  1  1  0  0  0
 16 12  1  0  0  0  0
 19 10  2  0  0  0  0
 20 19  1  0  0  0  0
 21 23  1  0  0  0  0
 23 25  1  0  0  0  0
 23 22  1  1  0  0  0
 24 31  2  0  0  0  0
 25 30  1  0  0  0  0
 27 24  1  0  0  0  0
 28 30  2  0  0  0  0
 28 24  1  0  0  0  0
 29 26  2  0  0  0  0
 30 29  1  0  0  0  0
 31 26  1  0  0  0  0
M  END
>  <MODEL>
6

>  <REMARK>
 VINA RESULT:      -7.9      3.075      5.266
  Name = 
  3 active torsions:
  status: ('A' for Active; 'I' for Inactive)
    1  A    between atoms: N_3  and  C_9
    2  A    between atoms: C_9  and  C_23
    3  A    between atoms: C_15  and  C_23
                            x       y       z     vdW  Elec       q    Type
                         _______ _______ _______ _____ _____    ______ ____

>  <TORSDO>
F 3

$$$$
=
 OpenBabel11052422263D

 31 35  0  0  1  0  0  0  0  0999 V2000
  160.9020  206.9520  147.1540 C   0  0  0  0  0  0  0  0  0  0  0  0
  161.3670  205.0790  150.3920 C   0  0  0  0  0  0  0  0  0  0  0  0
  161.4200  203.6930  150.0990 C   0  0  0  0  0  0  0  0  0  0  0  0
  160.9340  202.4420  148.0230 C   0  0  0  0  0  3  0  0  0  0  0  0
  161.7130  206.1420  149.3590 C   0  0  1  0  0  3  0  0  0  0  0  0
  161.2530  208.3810  147.5110 C   0  0  0  0  0  2  0  0  0  0  0  0
  161.9560  203.2160  148.7840 C   0  0  0  0  0  2  0  0  0  0  0  0
  161.1320  206.9420  152.1150 C   0  0  1  0  0  3  0  0  0  0  0  0
  160.3420  206.6910  145.9110 O   0  0  0  0  0  1  0  0  0  0  0  0
  160.8050  203.2130  152.3850 C   0  0  0  0  0  3  0  0  0  0  0  0
  160.4400  201.2830  148.4510 C   0  0  0  0  0  3  0  0  0  0  0  0
  161.9420  207.7330  151.1880 N   0  0  0  0  0  2  0  0  0  0  0  0
  161.1300  205.4740  151.7310 C   0  0  0  0  0  0  0  0  0  0  0  0
  161.0570  205.9410  148.0190 C   0  0  0  0  0  3  0  0  0  0  0  0
  160.7600  200.6560  149.7460 C   0  0  0  0  0  3  0  0  0  0  0  0
  161.3790  207.5440  149.8620 C   0  0  1  0  0  3  0  0  0  0  0  0
  161.9530  208.5410  148.8690 C   0  0  0  0  0  2  0  0  0  0  0  0
  160.8310  204.5380  152.6700 N   0  0  0  0  0  0  0  0  0  0  0  0
  161.0910  202.7560  151.1010 C   0  0  0  0  0  0  0  0  0  0  0  0
  161.0480  201.2950  150.8880 C   0  0  0  0  0  3  0  0  0  0  0  0
  161.6460  207.1410  153.5370 C   0  0  0  0  0  2  0  0  0  0  0  0
  160.2940  207.0080  155.6030 C   0  0  0  0  0  1  0  0  0  0  0  0
  160.6200  207.8640  154.3930 C   0  0  1  0  0  3  0  0  0  0  0  0
  158.1480  211.2140  155.3500 C   0  0  0  0  0  0  0  0  0  0  0  0
  161.1520  209.1470  154.8290 N   0  0  0  0  0  2  0  0  0  0  0  0
  160.0820  212.5400  155.8980 C   0  0  0  0  0  3  0  0  0  0  0  0
  156.6740  211.0710  155.2170 C   0  0  0  0  0  1  0  0  0  0  0  0
  158.9620  210.1670  155.0480 N   0  0  0  0  0  0  0  0  0  0  0  0
  160.9000  211.4530  155.5850 C   0  0  0  0  0  3  0  0  0  0  0  0
  160.3170  210.2580  155.1570 C   0  0  0  0  0  0  0  0  0  0  0  0
  158.6960  212.4240  155.7820 C   0  0  0  0  0  3  0  0  0  0  0  0
  1  6  1  0  0  0  0
  1 14  2  0  0  0  0
  2 13  1  0  0  0  0
  3  2  2  0  0  0  0
  3 19  1  0  0  0  0
  4 11  2  0  0  0  0
  4  7  1  0  0  0  0
  5 14  1  6  0  0  0
  5 16  1  0  0  0  0
  5  2  1  0  0  0  0
  6 17  1  0  0  0  0
  7  3  1  0  0  0  0
  8 21  1  1  0  0  0
  9  1  1  0  0  0  0
 10 18  1  0  0  0  0
 11 15  1  0  0  0  0
 12  8  1  0  0  0  0
 13  8  1  0  0  0  0
 13 18  2  0  0  0  0
 15 20  2  0  0  0  0
 16 17  1  6  0  0  0
 16 12  1  0  0  0  0
 19 10  2  0  0  0  0
 20 19  1  0  0  0  0
 21 23  1  0  0  0  0
 23 25  1  0  0  0  0
 23 22  1  1  0  0  0
 24 31  2  0  0  0  0
 25 30  1  0  0  0  0
 27 24  1  0  0  0  0
 28 30  2  0  0  0  0
 28 24  1  0  0  0  0
 29 26  2  0  0  0  0
 30 29  1  0  0  0  0
 31 26  1  0  0  0  0
M  END
>  <MODEL>
7

>  <REMARK>
 VINA RESULT:      -7.9      3.574      5.432
  Name = 
  3 active torsions:
  status: ('A' for Active; 'I' for Inactive)
    1  A    between atoms: N_3  and  C_9
    2  A    between atoms: C_9  and  C_23
    3  A    between atoms: C_15  and  C_23
                            x       y       z     vdW  Elec       q    Type
                         _______ _______ _______ _____ _____    ______ ____

>  <TORSDO>
F 3

$$$$
=
 OpenBabel11052422263D

 31 35  0  0  1  0  0  0  0  0999 V2000
  160.6380  204.0620  144.8950 C   0  0  0  0  0  0  0  0  0  0  0  0
  161.4620  204.7880  148.5010 C   0  0  0  0  0  0  0  0  0  0  0  0
  161.3140  203.5880  149.2390 C   0  0  0  0  0  0  0  0  0  0  0  0
  160.3380  201.4000  148.6260 C   0  0  0  0  0  3  0  0  0  0  0  0
  161.7330  204.7920  147.0030 C   0  0  1  0  0  3  0  0  0  0  0  0
  161.1990  205.2550  144.1500 C   0  0  0  0  0  2  0  0  0  0  0  0
  161.5550  202.2600  148.5880 C   0  0  0  0  0  2  0  0  0  0  0  0
  161.7370  207.3220  148.4770 C   0  0  1  0  0  3  0  0  0  0  0  0
  159.8440  203.1560  144.2060 O   0  0  0  0  0  1  0  0  0  0  0  0
  161.0630  204.8920  151.2570 C   0  0  0  0  0  3  0  0  0  0  0  0
  159.8050  200.9530  149.7610 C   0  0  0  0  0  3  0  0  0  0  0  0
  162.4510  207.1090  147.2170 N   0  0  0  0  0  2  0  0  0  0  0  0
  161.5090  206.0130  149.2100 C   0  0  0  0  0  0  0  0  0  0  0  0
  160.8340  203.8840  146.2080 C   0  0  0  0  0  3  0  0  0  0  0  0
  160.2800  201.3050  151.1120 C   0  0  0  0  0  3  0  0  0  0  0  0
  161.6460  206.2000  146.4190 C   0  0  1  0  0  3  0  0  0  0  0  0
  162.1400  206.1370  144.9830 C   0  0  0  0  0  2  0  0  0  0  0  0
  161.2820  206.0280  150.5500 N   0  0  0  0  0  0  0  0  0  0  0  0
  161.0680  203.6500  150.6280 C   0  0  0  0  0  0  0  0  0  0  0  0
  160.8310  202.4680  151.4820 C   0  0  0  0  0  3  0  0  0  0  0  0
  162.5120  208.3110  149.3400 C   0  0  0  0  0  2  0  0  0  0  0  0
  161.3530  209.7670  150.9680 C   0  0  0  0  0  1  0  0  0  0  0  0
  161.7400  209.6090  149.5110 C   0  0  1  0  0  3  0  0  0  0  0  0
  160.3620  212.6720  146.8710 C   0  0  0  0  0  0  0  0  0  0  0  0
  162.5650  210.7360  149.0980 N   0  0  0  0  0  2  0  0  0  0  0  0
  162.4750  213.8170  147.0250 C   0  0  0  0  0  3  0  0  0  0  0  0
  158.9790  212.5780  146.3340 C   0  0  0  0  0  1  0  0  0  0  0  0
  160.8310  211.7100  147.7100 N   0  0  0  0  0  0  0  0  0  0  0  0
  162.9380  212.8200  147.8860 C   0  0  0  0  0  3  0  0  0  0  0  0
  162.0930  211.7600  148.2230 C   0  0  0  0  0  0  0  0  0  0  0  0
  161.1790  213.7470  146.5130 C   0  0  0  0  0  3  0  0  0  0  0  0
  1 14  2  0  0  0  0
  2 13  2  0  0  0  0
  2  3  1  0  0  0  0
  3 19  2  0  0  0  0
  4 11  2  0  0  0  0
  5 14  1  6  0  0  0
  5  2  1  0  0  0  0
  6  1  1  0  0  0  0
  6 17  1  0  0  0  0
  7  4  1  0  0  0  0
  7  3  1  0  0  0  0
  8 13  1  0  0  0  0
  8 21  1  1  0  0  0
  9  1  1  0  0  0  0
 11 15  1  0  0  0  0
 12  8  1  0  0  0  0
 13 18  1  0  0  0  0
 15 20  2  0  0  0  0
 16 17  1  6  0  0  0
 16  5  1  0  0  0  0
 16 12  1  0  0  0  0
 18 10  2  0  0  0  0
 19 10  1  0  0  0  0
 19 20  1  0  0  0  0
 21 23  1  0  0  0  0
 23 22  1  1  0  0  0
 24 28  1  0  0  0  0
 25 23  1  0  0  0  0
 26 29  2  0  0  0  0
 27 24  1  0  0  0  0
 28 30  2  0  0  0  0
 29 30  1  0  0  0  0
 30 25  1  0  0  0  0
 31 24  2  0  0  0  0
 31 26  1  0  0  0  0
M  END
>  <MODEL>
8

>  <REMARK>
 VINA RESULT:      -7.6      3.032      5.315
  Name = 
  3 active torsions:
  status: ('A' for Active; 'I' for Inactive)
    1  A    between atoms: N_3  and  C_9
    2  A    between atoms: C_9  and  C_23
    3  A    between atoms: C_15  and  C_23
                            x       y       z     vdW  Elec       q    Type
                         _______ _______ _______ _____ _____    ______ ____

>  <TORSDO>
F 3

$$$$
=
 OpenBabel11052422263D

 31 35  0  0  1  0  0  0  0  0999 V2000
  161.2370  203.6870  152.1870 C   0  0  0  0  0  0  0  0  0  0  0  0
  161.3940  206.5690  149.7630 C   0  0  0  0  0  0  0  0  0  0  0  0
  161.3290  206.0460  148.4470 C   0  0  0  0  0  0  0  0  0  0  0  0
  161.4820  203.7290  147.6000 C   0  0  0  0  0  3  0  0  0  0  0  0
  160.8450  205.8150  150.9650 C   0  0  1  0  0  3  0  0  0  0  0  0
  160.9140  204.3460  153.5110 C   0  0  0  0  0  2  0  0  0  0  0  0
  160.5860  204.7750  148.1720 C   0  0  0  0  0  2  0  0  0  0  0  0
  161.8720  208.5340  151.3140 C   0  0  1  0  0  3  0  0  0  0  0  0
  161.5800  202.3420  152.1750 O   0  0  0  0  0  1  0  0  0  0  0  0
  162.3440  208.0760  147.6200 C   0  0  0  0  0  3  0  0  0  0  0  0
  162.0740  203.8550  146.4150 C   0  0  0  0  0  3  0  0  0  0  0  0
  160.8920  207.9110  152.2040 N   0  0  0  0  0  2  0  0  0  0  0  0
  161.8480  207.8990  149.9360 C   0  0  0  0  0  0  0  0  0  0  0  0
  161.2630  204.3710  151.0350 C   0  0  0  0  0  3  0  0  0  0  0  0
  162.0010  205.0530  145.5590 C   0  0  0  0  0  3  0  0  0  0  0  0
  161.2210  206.4970  152.2780 C   0  0  1  0  0  3  0  0  0  0  0  0
  160.4560  205.8070  153.3950 C   0  0  0  0  0  2  0  0  0  0  0  0
  162.3310  208.5930  148.8720 N   0  0  0  0  0  0  0  0  0  0  0  0
  161.8520  206.7970  147.3730 C   0  0  0  0  0  0  0  0  0  0  0  0
  161.8980  206.3220  145.9740 C   0  0  0  0  0  3  0  0  0  0  0  0
  161.6070  210.0340  151.2360 C   0  0  0  0  0  2  0  0  0  0  0  0
  161.5810  210.6770  153.6240 C   0  0  0  0  0  1  0  0  0  0  0  0
  160.7250  210.4930  152.3860 C   0  0  1  0  0  3  0  0  0  0  0  0
  157.1690  211.8900  154.2980 C   0  0  0  0  0  0  0  0  0  0  0  0
  160.0800  211.7530  152.0440 N   0  0  0  0  0  2  0  0  0  0  0  0
  157.1840  213.8930  152.9610 C   0  0  0  0  0  3  0  0  0  0  0  0
  156.5500  211.0440  155.3520 C   0  0  0  0  0  1  0  0  0  0  0  0
  158.2990  211.4700  153.6670 N   0  0  0  0  0  0  0  0  0  0  0  0
  158.3440  213.4450  152.3260 C   0  0  0  0  0  3  0  0  0  0  0  0
  158.8970  212.2160  152.6960 C   0  0  0  0  0  0  0  0  0  0  0  0
  156.5900  213.1130  153.9540 C   0  0  0  0  0  3  0  0  0  0  0  0
  1  6  1  0  0  0  0
  2 13  1  0  0  0  0
  2  5  1  0  0  0  0
  3  2  2  0  0  0  0
  4  7  1  0  0  0  0
  5 14  1  1  0  0  0
  5 16  1  0  0  0  0
  7  3  1  0  0  0  0
  8 21  1  6  0  0  0
  8 12  1  0  0  0  0
  9  1  1  0  0  0  0
 10 18  1  0  0  0  0
 11  4  2  0  0  0  0
 12 16  1  0  0  0  0
 13  8  1  0  0  0  0
 14  1  2  0  0  0  0
 15 20  2  0  0  0  0
 15 11  1  0  0  0  0
 16 17  1  1  0  0  0
 17  6  1  0  0  0  0
 18 13  2  0  0  0  0
 19 10  2  0  0  0  0
 19  3  1  0  0  0  0
 20 19  1  0  0  0  0
 21 23  1  0  0  0  0
 23 22  1  1  0  0  0
 24 27  1  0  0  0  0
 25 23  1  0  0  0  0
 25 30  1  0  0  0  0
 26 31  1  0  0  0  0
 28 24  1  0  0  0  0
 29 30  1  0  0  0  0
 29 26  2  0  0  0  0
 30 28  2  0  0  0  0
 31 24  2  0  0  0  0
M  END
>  <MODEL>
9

>  <REMARK>
 VINA RESULT:      -7.4      2.238      3.420
  Name = 
  3 active torsions:
  status: ('A' for Active; 'I' for Inactive)
    1  A    between atoms: N_3  and  C_9
    2  A    between atoms: C_9  and  C_23
    3  A    between atoms: C_15  and  C_23
                            x       y       z     vdW  Elec       q    Type
                         _______ _______ _______ _____ _____    ______ ____

>  <TORSDO>
F 3

$$$$
