=
 OpenBabel11062410493D

 32 36  0  0  1  0  0  0  0  0999 V2000
  160.8360  203.5700  152.3170 C   0  0  0  0  0  3  0  0  0  0  0  0
  161.2230  208.4180  151.9420 C   0  0  0  0  0  0  0  0  0  0  0  0
  162.1720  208.9400  157.2310 C   0  0  0  0  0  3  0  0  0  0  0  0
  161.9140  210.2840  156.9740 C   0  0  0  0  0  3  0  0  0  0  0  0
  161.3010  205.8580  150.7680 C   0  0  0  0  0  0  0  0  0  0  0  0
  161.0790  207.2680  152.7720 C   0  0  0  0  0  0  0  0  0  0  0  0
  160.8280  204.8290  152.9160 C   0  0  0  0  0  3  0  0  0  0  0  0
  161.8900  207.9820  156.2570 C   0  0  0  0  0  3  0  0  0  0  0  0
  161.1140  207.2940  154.0790 N   0  0  0  0  0  0  0  0  0  0  0  0
  161.3530  208.3490  155.0170 C   0  0  0  0  0  0  0  0  0  0  0  0
  160.4290  210.1130  153.5480 N   0  0  0  0  0  0  0  0  0  0  0  0
  161.5520  204.4610  148.8370 F   0  0  0  0  0  0  0  0  0  0  0  0
  161.3130  204.5870  150.1690 C   0  0  0  0  0  0  0  0  0  0  0  0
  161.0510  205.9910  152.1560 C   0  0  0  0  0  0  0  0  0  0  0  0
  161.5560  206.9910  150.0010 C   0  0  0  0  0  3  0  0  0  0  0  0
  161.0830  203.4440  150.9480 C   0  0  0  0  0  0  0  0  0  0  0  0
  161.3580  210.6590  155.7500 C   0  0  0  0  0  3  0  0  0  0  0  0
  161.0600  209.6990  154.7660 C   0  0  0  0  0  0  0  0  0  0  0  0
  161.5030  208.2530  150.5830 C   0  0  0  0  0  3  0  0  0  0  0  0
  160.9480  209.6760  152.2900 C   0  0  0  0  0  3  0  0  0  0  0  0
  158.6310  213.3520  152.7280 C   0  0  0  0  0  0  0  0  0  0  0  0
  157.4500  213.2420  153.3320 C   0  0  0  0  0  3  0  0  0  0  0  0
  158.2220  211.0590  154.4630 C   0  0  2  0  0  3  0  0  0  0  0  0
  155.9810  211.8880  154.5890 O   0  0  0  0  0  0  0  0  0  0  0  0
  157.1410  212.0500  154.1320 C   0  0  0  0  0  0  0  0  0  0  0  0
  159.6170  212.2600  152.7960 C   0  0  0  0  0  3  0  0  0  0  0  0
  158.9040  214.4520  151.9870 F   0  0  0  0  0  0  0  0  0  0  0  0
  158.6230  211.2540  155.7730 F   0  0  0  0  0  0  0  0  0  0  0  0
  159.4270  211.1570  153.5430 C   0  0  0  0  0  0  0  0  0  0  0  0
  161.0590  202.0910  150.3220 C   0  0  0  0  0  2  0  0  0  0  0  0
  160.0420  202.0280  149.3720 O   0  0  0  0  0  0  0  0  0  0  0  0
  160.6260  201.3990  148.2730 C   0  0  0  0  0  1  0  0  0  0  0  0
  1  7  1  0  0  0  0
  2 20  2  0  0  0  0
  2  6  1  0  0  0  0
  4  3  1  0  0  0  0
  5 14  1  0  0  0  0
  6  9  2  0  0  0  0
  8  3  2  0  0  0  0
  9 10  1  0  0  0  0
 10  8  1  0  0  0  0
 11 18  1  0  0  0  0
 12 13  1  0  0  0  0
 13  5  2  0  0  0  0
 13 16  1  0  0  0  0
 14  6  1  0  0  0  0
 14  7  2  0  0  0  0
 15 19  2  0  0  0  0
 15  5  1  0  0  0  0
 16  1  2  0  0  0  0
 17  4  2  0  0  0  0
 18 10  2  0  0  0  0
 18 17  1  0  0  0  0
 19  2  1  0  0  0  0
 20 11  1  0  0  0  0
 21 26  1  0  0  0  0
 21 22  2  0  0  0  0
 22 25  1  0  0  0  0
 23 28  1  1  0  0  0
 25 23  1  0  0  0  0
 25 24  2  0  0  0  0
 26 29  2  0  0  0  0
 27 21  1  0  0  0  0
 29 11  1  0  0  0  0
 29 23  1  0  0  0  0
 30 16  1  0  0  0  0
 31 30  1  0  0  0  0
 32 31  1  0  0  0  0
M  END
>  <MODEL>
1

>  <REMARK>
 VINA RESULT:      -9.6      0.000      0.000
  Name = 
  3 active torsions:
  status: ('A' for Active; 'I' for Inactive)
    1  A    between atoms: O_1  and  C_10
    2  A    between atoms: C_10  and  C_24
    3  A    between atoms: N_16  and  C_32
                            x       y       z     vdW  Elec       q    Type
                         _______ _______ _______ _____ _____    ______ ____

>  <TORSDO>
F 3

$$$$
=
 OpenBabel11062410493D

 32 36  0  0  1  0  0  0  0  0999 V2000
  160.7280  203.8720  150.3150 C   0  0  0  0  0  3  0  0  0  0  0  0
  161.4790  208.6230  151.1280 C   0  0  0  0  0  0  0  0  0  0  0  0
  161.5580  207.8890  156.4760 C   0  0  0  0  0  3  0  0  0  0  0  0
  161.4330  209.2760  156.4990 C   0  0  0  0  0  3  0  0  0  0  0  0
  161.5900  206.3840  149.4210 C   0  0  0  0  0  0  0  0  0  0  0  0
  161.1250  207.3410  151.6400 C   0  0  0  0  0  0  0  0  0  0  0  0
  160.6990  204.9660  151.1800 C   0  0  0  0  0  3  0  0  0  0  0  0
  161.3830  207.1970  155.2770 C   0  0  0  0  0  3  0  0  0  0  0  0
  160.9420  207.0790  152.9080 N   0  0  0  0  0  0  0  0  0  0  0  0
  161.0870  207.8760  154.0880 C   0  0  0  0  0  0  0  0  0  0  0  0
  160.5360  210.0000  152.9440 N   0  0  0  0  0  0  0  0  0  0  0  0
  162.0720  205.4210  147.2810 F   0  0  0  0  0  0  0  0  0  0  0  0
  161.6210  205.2780  148.5550 C   0  0  0  0  0  0  0  0  0  0  0  0
  161.1200  206.2380  150.7500 C   0  0  0  0  0  0  0  0  0  0  0  0
  162.0420  207.6250  148.9830 C   0  0  0  0  0  3  0  0  0  0  0  0
  161.1920  204.0230  149.0070 C   0  0  0  0  0  0  0  0  0  0  0  0
  161.1160  209.9610  155.3250 C   0  0  0  0  0  3  0  0  0  0  0  0
  160.9260  209.2710  154.1140 C   0  0  0  0  0  0  0  0  0  0  0  0
  161.9720  208.7290  149.8250 C   0  0  0  0  0  3  0  0  0  0  0  0
  161.2300  209.7970  151.7110 C   0  0  0  0  0  3  0  0  0  0  0  0
  158.9170  213.3690  152.2930 C   0  0  0  0  0  0  0  0  0  0  0  0
  157.7890  213.3410  152.9990 C   0  0  0  0  0  3  0  0  0  0  0  0
  158.4950  211.0980  154.0530 C   0  0  2  0  0  3  0  0  0  0  0  0
  156.3410  212.0890  154.3790 O   0  0  0  0  0  0  0  0  0  0  0  0
  157.4650  212.1690  153.8210 C   0  0  0  0  0  0  0  0  0  0  0  0
  159.8220  212.2080  152.2710 C   0  0  0  0  0  3  0  0  0  0  0  0
  159.2040  214.4530  151.5330 F   0  0  0  0  0  0  0  0  0  0  0  0
  159.0230  211.2520  155.3230 F   0  0  0  0  0  0  0  0  0  0  0  0
  159.6180  211.1150  153.0300 C   0  0  0  0  0  0  0  0  0  0  0  0
  161.1880  202.8470  148.0910 C   0  0  0  0  0  2  0  0  0  0  0  0
  160.5150  201.7840  148.6900 O   0  0  0  0  0  0  0  0  0  0  0  0
  161.2310  200.6510  148.3060 C   0  0  0  0  0  1  0  0  0  0  0  0
  1  7  1  0  0  0  0
  2  6  1  0  0  0  0
  2 20  2  0  0  0  0
  3  4  1  0  0  0  0
  5 14  1  0  0  0  0
  6  9  2  0  0  0  0
  8  3  2  0  0  0  0
  9 10  1  0  0  0  0
 10 18  2  0  0  0  0
 10  8  1  0  0  0  0
 11 29  1  0  0  0  0
 11 18  1  0  0  0  0
 12 13  1  0  0  0  0
 13 16  1  0  0  0  0
 13  5  2  0  0  0  0
 14  7  2  0  0  0  0
 14  6  1  0  0  0  0
 15  5  1  0  0  0  0
 15 19  2  0  0  0  0
 16  1  2  0  0  0  0
 17  4  2  0  0  0  0
 18 17  1  0  0  0  0
 19  2  1  0  0  0  0
 20 11  1  0  0  0  0
 21 22  2  0  0  0  0
 22 25  1  0  0  0  0
 23 28  1  1  0  0  0
 25 23  1  0  0  0  0
 25 24  2  0  0  0  0
 26 21  1  0  0  0  0
 26 29  2  0  0  0  0
 27 21  1  0  0  0  0
 29 23  1  0  0  0  0
 30 31  1  0  0  0  0
 30 16  1  0  0  0  0
 32 31  1  0  0  0  0
M  END
>  <MODEL>
2

>  <REMARK>
 VINA RESULT:      -9.3      0.996      1.210
  Name = 
  3 active torsions:
  status: ('A' for Active; 'I' for Inactive)
    1  A    between atoms: O_1  and  C_10
    2  A    between atoms: C_10  and  C_24
    3  A    between atoms: N_16  and  C_32
                            x       y       z     vdW  Elec       q    Type
                         _______ _______ _______ _____ _____    ______ ____

>  <TORSDO>
F 3

$$$$
=
 OpenBabel11062410493D

 32 36  0  0  1  0  0  0  0  0999 V2000
  160.7530  204.0380  150.6560 C   0  0  0  0  0  3  0  0  0  0  0  0
  161.2570  208.7740  151.7120 C   0  0  0  0  0  0  0  0  0  0  0  0
  161.4330  207.7670  157.0130 C   0  0  0  0  0  3  0  0  0  0  0  0
  161.2340  209.1420  157.1100 C   0  0  0  0  0  3  0  0  0  0  0  0
  161.4700  206.6360  149.8890 C   0  0  0  0  0  0  0  0  0  0  0  0
  160.9780  207.4490  152.1590 C   0  0  0  0  0  0  0  0  0  0  0  0
  160.6750  205.0820  151.5780 C   0  0  0  0  0  3  0  0  0  0  0  0
  161.2820  207.1310  155.7810 C   0  0  0  0  0  3  0  0  0  0  0  0
  160.8230  207.1120  153.4120 N   0  0  0  0  0  0  0  0  0  0  0  0
  160.9370  207.8530  154.6310 C   0  0  0  0  0  0  0  0  0  0  0  0
  160.2610  210.0010  153.6050 N   0  0  0  0  0  0  0  0  0  0  0  0
  161.9800  205.8130  147.6970 F   0  0  0  0  0  0  0  0  0  0  0  0
  161.5510  205.5800  148.9650 C   0  0  0  0  0  0  0  0  0  0  0  0
  161.0220  206.3950  151.2110 C   0  0  0  0  0  0  0  0  0  0  0  0
  161.8500  207.9210  149.5130 C   0  0  0  0  0  3  0  0  0  0  0  0
  161.1940  204.2810  149.3540 C   0  0  0  0  0  0  0  0  0  0  0  0
  160.8680  209.8690  155.9770 C   0  0  0  0  0  3  0  0  0  0  0  0
  160.7020  209.2340  154.7320 C   0  0  0  0  0  0  0  0  0  0  0  0
  161.7290  208.9740  150.4120 C   0  0  0  0  0  3  0  0  0  0  0  0
  160.9520  209.9000  152.3580 C   0  0  0  0  0  3  0  0  0  0  0  0
  157.3660  212.0390  154.9690 C   0  0  0  0  0  0  0  0  0  0  0  0
  157.3820  213.1640  154.2560 C   0  0  0  0  0  3  0  0  0  0  0  0
  159.2180  212.1840  152.7370 C   0  0  2  0  0  3  0  0  0  0  0  0
  158.4710  214.4530  152.6060 O   0  0  0  0  0  0  0  0  0  0  0  0
  158.3720  213.3410  153.1860 C   0  0  0  0  0  0  0  0  0  0  0  0
  158.3740  210.9890  154.7440 C   0  0  0  0  0  3  0  0  0  0  0  0
  156.4530  211.8870  155.9580 F   0  0  0  0  0  0  0  0  0  0  0  0
  158.7160  211.6970  151.5430 F   0  0  0  0  0  0  0  0  0  0  0  0
  159.2860  211.0590  153.7570 C   0  0  0  0  0  0  0  0  0  0  0  0
  161.2440  203.1560  148.3770 C   0  0  0  0  0  2  0  0  0  0  0  0
  160.4470  202.1050  148.8280 O   0  0  0  0  0  0  0  0  0  0  0  0
  161.2080  200.9610  148.5920 C   0  0  0  0  0  1  0  0  0  0  0  0
  1  7  1  0  0  0  0
  2  6  1  0  0  0  0
  2 20  2  0  0  0  0
  3  4  1  0  0  0  0
  5 14  1  0  0  0  0
  6  9  2  0  0  0  0
  8  3  2  0  0  0  0
  9 10  1  0  0  0  0
 10 18  2  0  0  0  0
 10  8  1  0  0  0  0
 11 29  1  0  0  0  0
 11 18  1  0  0  0  0
 12 13  1  0  0  0  0
 13 16  1  0  0  0  0
 13  5  2  0  0  0  0
 14  7  2  0  0  0  0
 14  6  1  0  0  0  0
 15  5  1  0  0  0  0
 15 19  2  0  0  0  0
 16  1  2  0  0  0  0
 17  4  2  0  0  0  0
 18 17  1  0  0  0  0
 19  2  1  0  0  0  0
 20 11  1  0  0  0  0
 21 27  1  0  0  0  0
 22 21  2  0  0  0  0
 23 28  1  6  0  0  0
 23 25  1  0  0  0  0
 23 29  1  0  0  0  0
 24 25  2  0  0  0  0
 25 22  1  0  0  0  0
 26 21  1  0  0  0  0
 29 26  2  0  0  0  0
 30 31  1  0  0  0  0
 30 16  1  0  0  0  0
 32 31  1  0  0  0  0
M  END
>  <MODEL>
3

>  <REMARK>
 VINA RESULT:      -9.2      1.316      1.945
  Name = 
  3 active torsions:
  status: ('A' for Active; 'I' for Inactive)
    1  A    between atoms: O_1  and  C_10
    2  A    between atoms: C_10  and  C_24
    3  A    between atoms: N_16  and  C_32
                            x       y       z     vdW  Elec       q    Type
                         _______ _______ _______ _____ _____    ______ ____

>  <TORSDO>
F 3

$$$$
=
 OpenBabel11062410493D

 32 36  0  0  1  0  0  0  0  0999 V2000
  160.8820  205.2040  149.4940 C   0  0  0  0  0  3  0  0  0  0  0  0
  161.4740  209.4070  151.8980 C   0  0  0  0  0  0  0  0  0  0  0  0
  160.6450  207.0150  156.6660 C   0  0  0  0  0  3  0  0  0  0  0  0
  160.5150  208.3280  157.1120 C   0  0  0  0  0  3  0  0  0  0  0  0
  161.8780  207.8200  149.6040 C   0  0  0  0  0  0  0  0  0  0  0  0
  161.0410  208.0490  151.9070 C   0  0  0  0  0  0  0  0  0  0  0  0
  160.7040  205.9680  150.6470 C   0  0  0  0  0  3  0  0  0  0  0  0
  160.6780  206.7490  155.2970 C   0  0  0  0  0  3  0  0  0  0  0  0
  160.6460  207.4100  152.9760 N   0  0  0  0  0  0  0  0  0  0  0  0
  160.5860  207.7830  154.3570 C   0  0  0  0  0  0  0  0  0  0  0  0
  160.2330  210.1860  153.8820 N   0  0  0  0  0  0  0  0  0  0  0  0
  162.7190  207.5600  147.3750 F   0  0  0  0  0  0  0  0  0  0  0  0
  162.0590  207.0460  148.4460 C   0  0  0  0  0  0  0  0  0  0  0  0
  161.1890  207.2860  150.7210 C   0  0  0  0  0  0  0  0  0  0  0  0
  162.3950  209.1110  149.6670 C   0  0  0  0  0  3  0  0  0  0  0  0
  161.5610  205.7360  148.3950 C   0  0  0  0  0  0  0  0  0  0  0  0
  160.4000  209.3650  156.1850 C   0  0  0  0  0  3  0  0  0  0  0  0
  160.4200  209.1040  154.8030 C   0  0  0  0  0  0  0  0  0  0  0  0
  162.1810  209.8940  150.7950 C   0  0  0  0  0  3  0  0  0  0  0  0
  161.1270  210.3470  152.7780 C   0  0  0  0  0  3  0  0  0  0  0  0
  157.6320  212.9060  153.3980 C   0  0  0  0  0  0  0  0  0  0  0  0
  157.3400  213.3140  154.6310 C   0  0  0  0  0  3  0  0  0  0  0  0
  159.2300  211.8370  155.5750 C   0  0  2  0  0  3  0  0  0  0  0  0
  157.6660  213.0170  156.9500 O   0  0  0  0  0  0  0  0  0  0  0  0
  158.0360  212.7280  155.7830 C   0  0  0  0  0  0  0  0  0  0  0  0
  158.6020  211.8210  153.1720 C   0  0  0  0  0  3  0  0  0  0  0  0
  156.9810  213.4490  152.3420 F   0  0  0  0  0  0  0  0  0  0  0  0
  160.3790  212.5570  155.8490 F   0  0  0  0  0  0  0  0  0  0  0  0
  159.3120  211.2630  154.1710 C   0  0  0  0  0  0  0  0  0  0  0  0
  161.7160  204.9130  147.1630 C   0  0  0  0  0  2  0  0  0  0  0  0
  161.8620  205.7450  146.0540 O   0  0  0  0  0  0  0  0  0  0  0  0
  160.5660  205.9170  145.5700 C   0  0  0  0  0  1  0  0  0  0  0  0
  1  7  1  0  0  0  0
  2  6  1  0  0  0  0
  2 20  2  0  0  0  0
  3  4  1  0  0  0  0
  5 15  1  0  0  0  0
  5 14  1  0  0  0  0
  6  9  2  0  0  0  0
  7 14  2  0  0  0  0
  8  3  2  0  0  0  0
  9 10  1  0  0  0  0
 10 18  2  0  0  0  0
 10  8  1  0  0  0  0
 11 29  1  0  0  0  0
 11 18  1  0  0  0  0
 12 13  1  0  0  0  0
 13  5  2  0  0  0  0
 14  6  1  0  0  0  0
 15 19  2  0  0  0  0
 16 13  1  0  0  0  0
 16  1  2  0  0  0  0
 17  4  2  0  0  0  0
 18 17  1  0  0  0  0
 19  2  1  0  0  0  0
 20 11  1  0  0  0  0
 21 22  2  0  0  0  0
 22 25  1  0  0  0  0
 23 25  1  0  0  0  0
 23 28  1  6  0  0  0
 25 24  2  0  0  0  0
 26 21  1  0  0  0  0
 26 29  2  0  0  0  0
 27 21  1  0  0  0  0
 29 23  1  0  0  0  0
 30 16  1  0  0  0  0
 31 30  1  0  0  0  0
 32 31  1  0  0  0  0
M  END
>  <MODEL>
4

>  <REMARK>
 VINA RESULT:      -8.0      2.062      2.505
  Name = 
  3 active torsions:
  status: ('A' for Active; 'I' for Inactive)
    1  A    between atoms: O_1  and  C_10
    2  A    between atoms: C_10  and  C_24
    3  A    between atoms: N_16  and  C_32
                            x       y       z     vdW  Elec       q    Type
                         _______ _______ _______ _____ _____    ______ ____

>  <TORSDO>
F 3

$$$$
=
 OpenBabel11062410493D

 32 36  0  0  1  0  0  0  0  0999 V2000
  160.6140  203.7880  149.1780 C   0  0  0  0  0  3  0  0  0  0  0  0
  161.7880  208.3230  150.5380 C   0  0  0  0  0  0  0  0  0  0  0  0
  161.0210  207.1600  155.7540 C   0  0  0  0  0  3  0  0  0  0  0  0
  161.0550  208.5460  155.8940 C   0  0  0  0  0  3  0  0  0  0  0  0
  161.8800  206.2320  148.6520 C   0  0  0  0  0  0  0  0  0  0  0  0
  161.2190  207.0600  150.8730 C   0  0  0  0  0  0  0  0  0  0  0  0
  160.5900  204.8040  150.1330 C   0  0  0  0  0  3  0  0  0  0  0  0
  160.9390  206.5950  154.4810 C   0  0  0  0  0  3  0  0  0  0  0  0
  160.8290  206.7240  152.0740 N   0  0  0  0  0  0  0  0  0  0  0  0
  160.8950  207.3990  153.3350 C   0  0  0  0  0  0  0  0  0  0  0  0
  160.7630  209.6610  152.3390 N   0  0  0  0  0  0  0  0  0  0  0  0
  162.5470  205.3890  146.5100 F   0  0  0  0  0  0  0  0  0  0  0  0
  161.9060  205.2040  147.6950 C   0  0  0  0  0  0  0  0  0  0  0  0
  161.2120  206.0410  149.8870 C   0  0  0  0  0  0  0  0  0  0  0  0
  162.5310  207.4360  148.3990 C   0  0  0  0  0  3  0  0  0  0  0  0
  161.2730  203.9820  147.9630 C   0  0  0  0  0  0  0  0  0  0  0  0
  160.9900  209.3570  154.7610 C   0  0  0  0  0  3  0  0  0  0  0  0
  160.8950  208.7960  153.4740 C   0  0  0  0  0  0  0  0  0  0  0  0
  162.4700  208.4690  149.3270 C   0  0  0  0  0  3  0  0  0  0  0  0
  161.5970  209.4690  151.1940 C   0  0  0  0  0  3  0  0  0  0  0  0
  158.0180  212.1030  153.2840 C   0  0  0  0  0  0  0  0  0  0  0  0
  158.4030  213.2620  152.7530 C   0  0  0  0  0  3  0  0  0  0  0  0
  160.3590  212.0780  151.5660 C   0  0  2  0  0  3  0  0  0  0  0  0
  160.0700  214.4530  151.5820 O   0  0  0  0  0  0  0  0  0  0  0  0
  159.6410  213.3350  151.9680 C   0  0  0  0  0  0  0  0  0  0  0  0
  158.8540  210.8980  153.1500 C   0  0  0  0  0  3  0  0  0  0  0  0
  156.8770  212.0470  154.0130 F   0  0  0  0  0  0  0  0  0  0  0  0
  160.0890  211.8130  150.2350 F   0  0  0  0  0  0  0  0  0  0  0  0
  159.9780  210.8740  152.4110 C   0  0  0  0  0  0  0  0  0  0  0  0
  161.2630  202.8930  146.9440 C   0  0  0  0  0  2  0  0  0  0  0  0
  161.6220  203.4080  145.7000 O   0  0  0  0  0  0  0  0  0  0  0  0
  160.5540  203.0840  144.8640 C   0  0  0  0  0  1  0  0  0  0  0  0
  1  7  1  0  0  0  0
  2  6  1  0  0  0  0
  2 20  2  0  0  0  0
  3  4  1  0  0  0  0
  5 14  1  0  0  0  0
  6  9  2  0  0  0  0
  8  3  2  0  0  0  0
  9 10  1  0  0  0  0
 10 18  2  0  0  0  0
 10  8  1  0  0  0  0
 11 29  1  0  0  0  0
 11 18  1  0  0  0  0
 12 13  1  0  0  0  0
 13 16  1  0  0  0  0
 13  5  2  0  0  0  0
 14  7  2  0  0  0  0
 14  6  1  0  0  0  0
 15  5  1  0  0  0  0
 15 19  2  0  0  0  0
 16  1  2  0  0  0  0
 17  4  2  0  0  0  0
 18 17  1  0  0  0  0
 19  2  1  0  0  0  0
 20 11  1  0  0  0  0
 21 27  1  0  0  0  0
 22 21  2  0  0  0  0
 23 28  1  6  0  0  0
 23 25  1  0  0  0  0
 23 29  1  0  0  0  0
 24 25  2  0  0  0  0
 25 22  1  0  0  0  0
 26 21  1  0  0  0  0
 29 26  2  0  0  0  0
 30 16  1  0  0  0  0
 31 30  1  0  0  0  0
 32 31  1  0  0  0  0
M  END
>  <MODEL>
5

>  <REMARK>
 VINA RESULT:      -7.9      2.120      2.831
  Name = 
  3 active torsions:
  status: ('A' for Active; 'I' for Inactive)
    1  A    between atoms: O_1  and  C_10
    2  A    between atoms: C_10  and  C_24
    3  A    between atoms: N_16  and  C_32
                            x       y       z     vdW  Elec       q    Type
                         _______ _______ _______ _____ _____    ______ ____

>  <TORSDO>
F 3

$$$$
