=
 OpenBabel11052422183D

 25 28  0  0  0  0  0  0  0  0999 V2000
  161.3100  205.1060  149.4000 C   0  0  0  0  0  0  0  0  0  0  0  0
  161.1570  205.7490  150.6270 C   0  0  0  0  0  3  0  0  0  0  0  0
  162.0200  206.9930  147.8380 C   0  0  0  0  0  3  0  0  0  0  0  0
  161.0740  203.7230  149.2840 C   0  0  0  0  0  0  0  0  0  0  0  0
  160.6960  201.0110  148.7190 C   0  0  0  0  0  3  0  0  0  0  0  0
  162.0410  208.1170  148.6510 C   0  0  0  0  0  3  0  0  0  0  0  0
  161.2730  203.2240  148.0070 C   0  0  0  0  0  0  0  0  0  0  0  0
  161.0930  201.8800  147.6920 C   0  0  0  0  0  3  0  0  0  0  0  0
  161.7600  209.2880  150.8020 C   0  0  0  0  0  0  0  0  0  0  0  0
  162.0510  210.4810  150.4000 N   0  0  0  0  0  2  0  0  0  0  0  0
  161.3620  207.0880  150.9060 C   0  0  0  0  0  0  0  0  0  0  0  0
  160.4890  201.4970  150.0220 C   0  0  0  0  0  3  0  0  0  0  0  0
  161.7010  205.6780  148.1680 C   0  0  0  0  0  0  0  0  0  0  0  0
  161.7420  204.4650  146.9910 S   0  0  0  0  0  0  0  0  0  0  0  0
  161.4320  209.0050  152.0410 O   0  0  0  0  0  0  0  0  0  0  0  0
  160.6780  202.8570  150.3130 C   0  0  0  0  0  3  0  0  0  0  0  0
  161.1970  207.7150  152.1390 C   0  0  0  0  0  0  0  0  0  0  0  0
  161.7490  208.1610  150.0040 C   0  0  0  0  0  0  0  0  0  0  0  0
  160.8090  207.1010  153.3740 N   0  0  0  0  0  2  0  0  0  0  0  0
  161.4730  207.3220  154.6520 C   0  0  0  0  0  2  0  0  0  0  0  0
  160.7000  209.3950  155.8450 C   0  0  0  0  0  0  0  0  0  0  0  0
  159.9270  209.9610  156.6640 O   0  0  0  0  0  0  0  0  0  0  0  0
  161.7070  210.1640  155.1920 N   0  0  0  0  0  1  0  0  0  0  0  0
  159.5330  207.2120  156.2340 C   0  0  0  0  0  1  0  0  0  0  0  0
  160.5650  207.9930  155.5730 N   0  0  0  0  0  0  0  0  0  0  0  0
  1  2  2  0  0  0  0
  2 11  1  0  0  0  0
  3 13  2  0  0  0  0
  3  6  1  0  0  0  0
  4  1  1  0  0  0  0
  4 16  1  0  0  0  0
  5 12  1  0  0  0  0
  6 18  2  0  0  0  0
  7  4  2  0  0  0  0
  8  7  1  0  0  0  0
  8  5  2  0  0  0  0
  9 15  1  0  0  0  0
 10  9  2  0  0  0  0
 11 17  2  0  0  0  0
 12 16  2  0  0  0  0
 13  1  1  0  0  0  0
 14  7  1  0  0  0  0
 14 13  1  0  0  0  0
 15 17  1  0  0  0  0
 17 19  1  0  0  0  0
 18  9  1  0  0  0  0
 18 11  1  0  0  0  0
 19 20  1  0  0  0  0
 20 25  1  0  0  0  0
 21 22  2  0  0  0  0
 23 21  1  0  0  0  0
 25 21  1  0  0  0  0
 25 24  1  0  0  0  0
M  END
>  <MODEL>
1

>  <REMARK>
 VINA RESULT:      -9.8      0.000      0.000
  Name = 
  3 active torsions:
  status: ('A' for Active; 'I' for Inactive)
    1  A    between atoms: N_6  and  C_15
    2  A    between atoms: N_6  and  C_23
    3  A    between atoms: C_15  and  N_25
                            x       y       z     vdW  Elec       q    Type
                         _______ _______ _______ _____ _____    ______ ____

>  <TORSDO>
F 3

$$$$
=
 OpenBabel11052422183D

 25 28  0  0  0  0  0  0  0  0999 V2000
  161.3140  205.2240  149.3930 C   0  0  0  0  0  0  0  0  0  0  0  0
  161.1310  205.9570  150.5650 C   0  0  0  0  0  3  0  0  0  0  0  0
  162.1000  206.9820  147.7210 C   0  0  0  0  0  3  0  0  0  0  0  0
  161.0620  203.8390  149.3710 C   0  0  0  0  0  0  0  0  0  0  0  0
  160.6640  201.0980  148.9930 C   0  0  0  0  0  3  0  0  0  0  0  0
  162.1120  208.1630  148.4510 C   0  0  0  0  0  3  0  0  0  0  0  0
  161.2950  203.2450  148.1410 C   0  0  0  0  0  0  0  0  0  0  0  0
  161.1060  201.8840  147.9190 C   0  0  0  0  0  3  0  0  0  0  0  0
  161.7790  209.4920  150.5000 C   0  0  0  0  0  0  0  0  0  0  0  0
  162.1000  210.6490  150.0220 N   0  0  0  0  0  2  0  0  0  0  0  0
  161.3460  207.3110  150.7510 C   0  0  0  0  0  0  0  0  0  0  0  0
  160.4210  201.6810  150.2500 C   0  0  0  0  0  3  0  0  0  0  0  0
  161.7520  205.6990  148.1360 C   0  0  0  0  0  0  0  0  0  0  0  0
  161.8130  204.4020  147.0520 S   0  0  0  0  0  0  0  0  0  0  0  0
  161.4070  209.3050  151.7450 O   0  0  0  0  0  0  0  0  0  0  0  0
  160.6210  203.0560  150.4470 C   0  0  0  0  0  3  0  0  0  0  0  0
  161.1500  208.0280  151.9290 C   0  0  0  0  0  0  0  0  0  0  0  0
  161.7770  208.3090  149.7860 C   0  0  0  0  0  0  0  0  0  0  0  0
  160.7150  207.5110  153.1920 N   0  0  0  0  0  2  0  0  0  0  0  0
  161.5420  207.4470  154.3890 C   0  0  0  0  0  2  0  0  0  0  0  0
  160.3030  208.2640  156.4180 C   0  0  0  0  0  0  0  0  0  0  0  0
  159.9680  209.2030  157.1890 O   0  0  0  0  0  0  0  0  0  0  0  0
  159.8070  206.9500  156.6620 N   0  0  0  0  0  1  0  0  0  0  0  0
  161.6850  209.8560  155.0620 C   0  0  0  0  0  1  0  0  0  0  0  0
  161.1740  208.5170  155.3060 N   0  0  0  0  0  0  0  0  0  0  0  0
  1  2  2  0  0  0  0
  2 11  1  0  0  0  0
  3 13  2  0  0  0  0
  3  6  1  0  0  0  0
  4  1  1  0  0  0  0
  4 16  1  0  0  0  0
  5 12  1  0  0  0  0
  6 18  2  0  0  0  0
  7  4  2  0  0  0  0
  8  7  1  0  0  0  0
  8  5  2  0  0  0  0
  9 15  1  0  0  0  0
 10  9  2  0  0  0  0
 11 17  2  0  0  0  0
 12 16  2  0  0  0  0
 13  1  1  0  0  0  0
 14 13  1  0  0  0  0
 14  7  1  0  0  0  0
 15 17  1  0  0  0  0
 17 19  1  0  0  0  0
 18  9  1  0  0  0  0
 18 11  1  0  0  0  0
 19 20  1  0  0  0  0
 20 25  1  0  0  0  0
 21 23  1  0  0  0  0
 21 22  2  0  0  0  0
 24 25  1  0  0  0  0
 25 21  1  0  0  0  0
M  END
>  <MODEL>
2

>  <REMARK>
 VINA RESULT:      -9.6      0.620      1.166
  Name = 
  3 active torsions:
  status: ('A' for Active; 'I' for Inactive)
    1  A    between atoms: N_6  and  C_15
    2  A    between atoms: N_6  and  C_23
    3  A    between atoms: C_15  and  N_25
                            x       y       z     vdW  Elec       q    Type
                         _______ _______ _______ _____ _____    ______ ____

>  <TORSDO>
F 3

$$$$
=
 OpenBabel11052422183D

 25 28  0  0  0  0  0  0  0  0999 V2000
  161.1430  204.3990  149.5390 C   0  0  0  0  0  0  0  0  0  0  0  0
  161.2890  205.7480  149.8590 C   0  0  0  0  0  3  0  0  0  0  0  0
  160.8290  203.2910  151.8150 C   0  0  0  0  0  3  0  0  0  0  0  0
  161.1910  203.9750  148.1980 C   0  0  0  0  0  0  0  0  0  0  0  0
  161.2270  202.8080  145.6570 C   0  0  0  0  0  3  0  0  0  0  0  0
  160.9020  204.3430  152.7180 C   0  0  0  0  0  3  0  0  0  0  0  0
  161.0230  202.6090  148.0350 C   0  0  0  0  0  0  0  0  0  0  0  0
  161.0370  201.9960  146.7850 C   0  0  0  0  0  3  0  0  0  0  0  0
  161.1780  206.7180  153.3190 C   0  0  0  0  0  0  0  0  0  0  0  0
  161.0890  206.5930  154.6020 N   0  0  0  0  0  2  0  0  0  0  0  0
  161.2540  206.3220  151.1170 C   0  0  0  0  0  0  0  0  0  0  0  0
  161.3990  204.1970  145.8010 C   0  0  0  0  0  3  0  0  0  0  0  0
  160.9330  203.3190  150.4260 C   0  0  0  0  0  0  0  0  0  0  0  0
  160.8140  201.8900  149.5290 S   0  0  0  0  0  0  0  0  0  0  0  0
  161.3650  207.8690  152.7180 O   0  0  0  0  0  0  0  0  0  0  0  0
  161.3810  204.7890  147.0730 C   0  0  0  0  0  3  0  0  0  0  0  0
  161.4090  207.6730  151.4180 C   0  0  0  0  0  0  0  0  0  0  0  0
  161.0920  205.6800  152.4110 C   0  0  0  0  0  0  0  0  0  0  0  0
  161.6100  208.7470  150.4910 N   0  0  0  0  0  2  0  0  0  0  0  0
  162.3680  209.9570  150.7770 C   0  0  0  0  0  2  0  0  0  0  0  0
  161.5640  211.8870  149.3800 C   0  0  0  0  0  0  0  0  0  0  0  0
  160.8460  212.9140  149.2450 O   0  0  0  0  0  0  0  0  0  0  0  0
  162.4160  211.4870  148.3110 N   0  0  0  0  0  1  0  0  0  0  0  0
  160.6440  211.5330  151.6850 C   0  0  0  0  0  1  0  0  0  0  0  0
  161.5200  211.1280  150.5970 N   0  0  0  0  0  0  0  0  0  0  0  0
  1  2  2  0  0  0  0
  1 13  1  0  0  0  0
  2 11  1  0  0  0  0
  3  6  1  0  0  0  0
  4  1  1  0  0  0  0
  5 12  2  0  0  0  0
  5  8  1  0  0  0  0
  7  4  1  0  0  0  0
  7 14  1  0  0  0  0
  8  7  2  0  0  0  0
  9 10  2  0  0  0  0
 11 17  2  0  0  0  0
 11 18  1  0  0  0  0
 12 16  1  0  0  0  0
 13  3  2  0  0  0  0
 14 13  1  0  0  0  0
 15  9  1  0  0  0  0
 16  4  2  0  0  0  0
 17 15  1  0  0  0  0
 18  6  2  0  0  0  0
 18  9  1  0  0  0  0
 19 20  1  0  0  0  0
 19 17  1  0  0  0  0
 21 25  1  0  0  0  0
 22 21  2  0  0  0  0
 23 21  1  0  0  0  0
 25 20  1  0  0  0  0
 25 24  1  0  0  0  0
M  END
>  <MODEL>
3

>  <REMARK>
 VINA RESULT:      -9.2      2.137      4.387
  Name = 
  3 active torsions:
  status: ('A' for Active; 'I' for Inactive)
    1  A    between atoms: N_6  and  C_15
    2  A    between atoms: N_6  and  C_23
    3  A    between atoms: C_15  and  N_25
                            x       y       z     vdW  Elec       q    Type
                         _______ _______ _______ _____ _____    ______ ____

>  <TORSDO>
F 3

$$$$
=
 OpenBabel11052422183D

 25 28  0  0  0  0  0  0  0  0999 V2000
  161.3290  205.7570  150.4620 C   0  0  0  0  0  0  0  0  0  0  0  0
  161.5740  207.0400  149.9760 C   0  0  0  0  0  3  0  0  0  0  0  0
  161.1270  206.1140  152.9790 C   0  0  0  0  0  3  0  0  0  0  0  0
  161.2510  204.6630  149.5800 C   0  0  0  0  0  0  0  0  0  0  0  0
  161.0280  202.2940  148.1100 C   0  0  0  0  0  3  0  0  0  0  0  0
  161.3280  207.4780  153.1460 C   0  0  0  0  0  3  0  0  0  0  0  0
  160.9950  203.4530  150.2060 C   0  0  0  0  0  0  0  0  0  0  0  0
  160.8790  202.2560  149.5040 C   0  0  0  0  0  3  0  0  0  0  0  0
  161.7810  209.7560  152.3210 C   0  0  0  0  0  0  0  0  0  0  0  0
  161.7830  210.3660  153.4610 N   0  0  0  0  0  2  0  0  0  0  0  0
  161.6670  208.2110  150.7060 C   0  0  0  0  0  0  0  0  0  0  0  0
  161.2880  203.5120  147.4550 C   0  0  0  0  0  3  0  0  0  0  0  0
  161.1270  205.3650  151.8050 C   0  0  0  0  0  0  0  0  0  0  0  0
  160.8610  203.6960  151.8540 S   0  0  0  0  0  0  0  0  0  0  0  0
  161.9860  210.3660  151.1770 O   0  0  0  0  0  0  0  0  0  0  0  0
  161.4000  204.7040  148.1870 C   0  0  0  0  0  3  0  0  0  0  0  0
  161.9200  209.4850  150.2030 C   0  0  0  0  0  0  0  0  0  0  0  0
  161.5690  208.4030  152.1440 C   0  0  0  0  0  0  0  0  0  0  0  0
  162.1090  209.8500  148.8310 N   0  0  0  0  0  2  0  0  0  0  0  0
  161.3780  210.9080  148.1470 C   0  0  0  0  0  2  0  0  0  0  0  0
  161.4490  213.3670  148.6680 C   0  0  0  0  0  0  0  0  0  0  0  0
  162.0850  214.4530  148.7270 O   0  0  0  0  0  0  0  0  0  0  0  0
  160.0690  213.3460  149.0220 N   0  0  0  0  0  1  0  0  0  0  0  0
  163.5200  212.1840  147.8950 C   0  0  0  0  0  1  0  0  0  0  0  0
  162.1100  212.1640  148.2500 N   0  0  0  0  0  0  0  0  0  0  0  0
  1 13  1  0  0  0  0
  2  1  2  0  0  0  0
  2 11  1  0  0  0  0
  3  6  1  0  0  0  0
  4  7  1  0  0  0  0
  4  1  1  0  0  0  0
  5  8  1  0  0  0  0
  7 14  1  0  0  0  0
  8  7  2  0  0  0  0
  9 10  2  0  0  0  0
 11 18  1  0  0  0  0
 12  5  2  0  0  0  0
 12 16  1  0  0  0  0
 13 14  1  0  0  0  0
 13  3  2  0  0  0  0
 15  9  1  0  0  0  0
 16  4  2  0  0  0  0
 17 11  2  0  0  0  0
 17 15  1  0  0  0  0
 18  9  1  0  0  0  0
 18  6  2  0  0  0  0
 19 17  1  0  0  0  0
 20 25  1  0  0  0  0
 20 19  1  0  0  0  0
 21 22  2  0  0  0  0
 21 23  1  0  0  0  0
 24 25  1  0  0  0  0
 25 21  1  0  0  0  0
M  END
>  <MODEL>
4

>  <REMARK>
 VINA RESULT:      -9.2      2.529      5.006
  Name = 
  3 active torsions:
  status: ('A' for Active; 'I' for Inactive)
    1  A    between atoms: N_6  and  C_15
    2  A    between atoms: N_6  and  C_23
    3  A    between atoms: C_15  and  N_25
                            x       y       z     vdW  Elec       q    Type
                         _______ _______ _______ _____ _____    ______ ____

>  <TORSDO>
F 3

$$$$
=
 OpenBabel11052422183D

 25 28  0  0  0  0  0  0  0  0999 V2000
  161.2600  206.3340  151.4780 C   0  0  0  0  0  0  0  0  0  0  0  0
  161.3780  205.8250  150.1860 C   0  0  0  0  0  3  0  0  0  0  0  0
  160.7880  204.2590  152.8830 C   0  0  0  0  0  3  0  0  0  0  0  0
  161.4070  207.7140  151.7180 C   0  0  0  0  0  0  0  0  0  0  0  0
  161.6490  210.3780  152.5310 C   0  0  0  0  0  3  0  0  0  0  0  0
  160.7750  203.2210  151.9620 C   0  0  0  0  0  3  0  0  0  0  0  0
  161.2700  208.0700  153.0500 C   0  0  0  0  0  0  0  0  0  0  0  0
  161.3840  209.3870  153.4880 C   0  0  0  0  0  3  0  0  0  0  0  0
  160.9570  202.2900  149.6870 C   0  0  0  0  0  0  0  0  0  0  0  0
  160.7290  201.0520  149.9770 N   0  0  0  0  0  2  0  0  0  0  0  0
  161.2740  204.5030  149.7920 C   0  0  0  0  0  0  0  0  0  0  0  0
  161.7910  210.0370  151.1740 C   0  0  0  0  0  3  0  0  0  0  0  0
  161.0020  205.6180  152.6690 C   0  0  0  0  0  0  0  0  0  0  0  0
  160.9650  206.7050  153.9640 S   0  0  0  0  0  0  0  0  0  0  0  0
  161.1910  202.7130  148.4660 O   0  0  0  0  0  0  0  0  0  0  0  0
  161.6720  208.7010  150.7590 C   0  0  0  0  0  3  0  0  0  0  0  0
  161.3880  204.0130  148.4930 C   0  0  0  0  0  0  0  0  0  0  0  0
  160.9860  203.3280  150.5980 C   0  0  0  0  0  0  0  0  0  0  0  0
  161.6630  204.7680  147.3060 N   0  0  0  0  0  2  0  0  0  0  0  0
  162.0950  204.1910  146.0410 C   0  0  0  0  0  2  0  0  0  0  0  0
  160.2270  203.0410  144.8130 C   0  0  0  0  0  0  0  0  0  0  0  0
  159.2980  203.0700  143.9610 O   0  0  0  0  0  0  0  0  0  0  0  0
  160.5000  201.8260  145.5050 N   0  0  0  0  0  1  0  0  0  0  0  0
  160.7140  205.4610  144.3790 C   0  0  0  0  0  1  0  0  0  0  0  0
  160.9990  204.2200  145.0820 N   0  0  0  0  0  0  0  0  0  0  0  0
  1  4  1  0  0  0  0
  1 13  1  0  0  0  0
  2  1  2  0  0  0  0
  4  7  1  0  0  0  0
  5  8  1  0  0  0  0
  6  3  1  0  0  0  0
  7  8  2  0  0  0  0
  7 14  1  0  0  0  0
  9 10  2  0  0  0  0
  9 18  1  0  0  0  0
 11  2  1  0  0  0  0
 11 18  1  0  0  0  0
 12  5  2  0  0  0  0
 13  3  2  0  0  0  0
 13 14  1  0  0  0  0
 15 17  1  0  0  0  0
 15  9  1  0  0  0  0
 16 12  1  0  0  0  0
 16  4  2  0  0  0  0
 17 11  2  0  0  0  0
 18  6  2  0  0  0  0
 19 17  1  0  0  0  0
 20 19  1  0  0  0  0
 21 25  1  0  0  0  0
 21 23  1  0  0  0  0
 22 21  2  0  0  0  0
 24 25  1  0  0  0  0
 25 20  1  0  0  0  0
M  END
>  <MODEL>
5

>  <REMARK>
 VINA RESULT:      -9.2      4.628      8.280
  Name = 
  3 active torsions:
  status: ('A' for Active; 'I' for Inactive)
    1  A    between atoms: N_6  and  C_15
    2  A    between atoms: N_6  and  C_23
    3  A    between atoms: C_15  and  N_25
                            x       y       z     vdW  Elec       q    Type
                         _______ _______ _______ _____ _____    ______ ____

>  <TORSDO>
F 3

$$$$
=
 OpenBabel11052422183D

 25 28  0  0  0  0  0  0  0  0999 V2000
  160.8480  207.3150  152.3900 C   0  0  0  0  0  0  0  0  0  0  0  0
  160.8440  207.0070  151.0310 C   0  0  0  0  0  3  0  0  0  0  0  0
  160.8780  205.0230  153.5080 C   0  0  0  0  0  3  0  0  0  0  0  0
  160.8390  208.6560  152.8180 C   0  0  0  0  0  0  0  0  0  0  0  0
  160.8310  211.1930  153.9940 C   0  0  0  0  0  3  0  0  0  0  0  0
  160.8710  204.1280  152.4470 C   0  0  0  0  0  3  0  0  0  0  0  0
  160.8530  208.8060  154.1960 C   0  0  0  0  0  0  0  0  0  0  0  0
  160.8480  210.0540  154.8130 C   0  0  0  0  0  3  0  0  0  0  0  0
  160.8420  203.5490  150.0510 C   0  0  0  0  0  0  0  0  0  0  0  0
  160.8310  202.2620  150.1740 N   0  0  0  0  0  2  0  0  0  0  0  0
  160.8650  205.7500  150.4540 C   0  0  0  0  0  0  0  0  0  0  0  0
  160.8170  211.0620  152.5940 C   0  0  0  0  0  3  0  0  0  0  0  0
  160.8690  206.4160  153.4800 C   0  0  0  0  0  0  0  0  0  0  0  0
  160.8760  207.3010  154.9200 S   0  0  0  0  0  0  0  0  0  0  0  0
  160.8330  204.1620  148.8900 O   0  0  0  0  0  0  0  0  0  0  0  0
  160.8220  209.7920  151.9970 C   0  0  0  0  0  3  0  0  0  0  0  0
  160.8520  205.4610  149.0910 C   0  0  0  0  0  0  0  0  0  0  0  0
  160.8630  204.4480  151.1000 C   0  0  0  0  0  0  0  0  0  0  0  0
  160.8430  206.4010  148.0100 N   0  0  0  0  0  2  0  0  0  0  0  0
  161.9790  206.6740  147.1410 C   0  0  0  0  0  2  0  0  0  0  0  0
  161.2060  205.3430  145.1530 C   0  0  0  0  0  0  0  0  0  0  0  0
  161.3570  204.3750  144.3600 O   0  0  0  0  0  0  0  0  0  0  0  0
  160.0810  206.2030  144.9970 N   0  0  0  0  0  1  0  0  0  0  0  0
  163.3110  204.7030  146.3530 C   0  0  0  0  0  1  0  0  0  0  0  0
  162.1590  205.5770  146.1990 N   0  0  0  0  0  0  0  0  0  0  0  0
  1  4  1  0  0  0  0
  1 13  1  0  0  0  0
  2  1  2  0  0  0  0
  4  7  1  0  0  0  0
  5  8  1  0  0  0  0
  6  3  1  0  0  0  0
  7  8  2  0  0  0  0
  7 14  1  0  0  0  0
  9 10  2  0  0  0  0
  9 18  1  0  0  0  0
 11  2  1  0  0  0  0
 11 18  1  0  0  0  0
 12  5  2  0  0  0  0
 13  3  2  0  0  0  0
 13 14  1  0  0  0  0
 15 17  1  0  0  0  0
 15  9  1  0  0  0  0
 16 12  1  0  0  0  0
 16  4  2  0  0  0  0
 17 11  2  0  0  0  0
 18  6  2  0  0  0  0
 19 17  1  0  0  0  0
 20 19  1  0  0  0  0
 21 25  1  0  0  0  0
 22 21  2  0  0  0  0
 23 21  1  0  0  0  0
 25 24  1  0  0  0  0
 25 20  1  0  0  0  0
M  END
>  <MODEL>
6

>  <REMARK>
 VINA RESULT:      -9.1      4.159      7.998
  Name = 
  3 active torsions:
  status: ('A' for Active; 'I' for Inactive)
    1  A    between atoms: N_6  and  C_15
    2  A    between atoms: N_6  and  C_23
    3  A    between atoms: C_15  and  N_25
                            x       y       z     vdW  Elec       q    Type
                         _______ _______ _______ _____ _____    ______ ____

>  <TORSDO>
F 3

$$$$
=
 OpenBabel11052422183D

 25 28  0  0  0  0  0  0  0  0999 V2000
  161.4200  206.0770  149.5270 C   0  0  0  0  0  0  0  0  0  0  0  0
  161.6240  207.4380  149.2990 C   0  0  0  0  0  3  0  0  0  0  0  0
  161.1540  205.9440  152.0600 C   0  0  0  0  0  3  0  0  0  0  0  0
  161.4030  205.1680  148.4530 C   0  0  0  0  0  0  0  0  0  0  0  0
  161.3050  203.1160  146.5570 C   0  0  0  0  0  3  0  0  0  0  0  0
  161.2970  207.2570  152.4870 C   0  0  0  0  0  3  0  0  0  0  0  0
  161.1840  203.8540  148.8320 C   0  0  0  0  0  0  0  0  0  0  0  0
  161.1300  202.8080  147.9140 C   0  0  0  0  0  3  0  0  0  0  0  0
  161.6750  209.6650  152.1200 C   0  0  0  0  0  0  0  0  0  0  0  0
  161.6300  210.0470  153.3540 N   0  0  0  0  0  2  0  0  0  0  0  0
  161.6540  208.4520  150.2400 C   0  0  0  0  0  0  0  0  0  0  0  0
  161.5290  204.4430  146.1510 C   0  0  0  0  0  3  0  0  0  0  0  0
  161.2080  205.4310  150.7660 C   0  0  0  0  0  0  0  0  0  0  0  0
  161.0070  203.7750  150.4920 S   0  0  0  0  0  0  0  0  0  0  0  0
  161.8780  210.4880  151.1180 O   0  0  0  0  0  0  0  0  0  0  0  0
  161.5790  205.4790  147.0970 C   0  0  0  0  0  3  0  0  0  0  0  0
  161.8670  209.8060  149.9930 C   0  0  0  0  0  0  0  0  0  0  0  0
  161.5200  208.3630  151.6840 C   0  0  0  0  0  0  0  0  0  0  0  0
  162.0680  210.4310  148.7200 N   0  0  0  0  0  2  0  0  0  0  0  0
  162.2700  211.8590  148.5210 C   0  0  0  0  0  2  0  0  0  0  0  0
  160.1660  213.2110  148.7800 C   0  0  0  0  0  0  0  0  0  0  0  0
  159.1140  213.7010  148.2880 O   0  0  0  0  0  0  0  0  0  0  0  0
  160.4500  213.4150  150.1610 N   0  0  0  0  0  1  0  0  0  0  0  0
  160.7800  212.2550  146.5460 C   0  0  0  0  0  1  0  0  0  0  0  0
  161.0670  212.4570  147.9570 N   0  0  0  0  0  0  0  0  0  0  0  0
  1 13  1  0  0  0  0
  2  1  2  0  0  0  0
  2 11  1  0  0  0  0
  3  6  1  0  0  0  0
  4  7  1  0  0  0  0
  4  1  1  0  0  0  0
  5  8  1  0  0  0  0
  7 14  1  0  0  0  0
  8  7  2  0  0  0  0
  9 10  2  0  0  0  0
 11 18  1  0  0  0  0
 12  5  2  0  0  0  0
 12 16  1  0  0  0  0
 13  3  2  0  0  0  0
 14 13  1  0  0  0  0
 15  9  1  0  0  0  0
 16  4  2  0  0  0  0
 17 11  2  0  0  0  0
 17 15  1  0  0  0  0
 18  9  1  0  0  0  0
 18  6  2  0  0  0  0
 19 17  1  0  0  0  0
 20 19  1  0  0  0  0
 21 23  1  0  0  0  0
 22 21  2  0  0  0  0
 24 25  1  0  0  0  0
 25 20  1  0  0  0  0
 25 21  1  0  0  0  0
M  END
>  <MODEL>
7

>  <REMARK>
 VINA RESULT:      -9.0      2.538      5.008
  Name = 
  3 active torsions:
  status: ('A' for Active; 'I' for Inactive)
    1  A    between atoms: N_6  and  C_15
    2  A    between atoms: N_6  and  C_23
    3  A    between atoms: C_15  and  N_25
                            x       y       z     vdW  Elec       q    Type
                         _______ _______ _______ _____ _____    ______ ____

>  <TORSDO>
F 3

$$$$
=
 OpenBabel11052422183D

 25 28  0  0  0  0  0  0  0  0999 V2000
  161.2820  205.1520  149.3560 C   0  0  0  0  0  0  0  0  0  0  0  0
  161.3490  206.3920  149.9890 C   0  0  0  0  0  3  0  0  0  0  0  0
  160.9170  203.5300  151.2890 C   0  0  0  0  0  3  0  0  0  0  0  0
  161.4120  205.0570  147.9570 C   0  0  0  0  0  0  0  0  0  0  0  0
  161.6210  204.5230  145.2210 C   0  0  0  0  0  3  0  0  0  0  0  0
  160.8980  204.3410  152.4150 C   0  0  0  0  0  3  0  0  0  0  0  0
  161.3170  203.7620  147.4720 C   0  0  0  0  0  0  0  0  0  0  0  0
  161.4180  203.4620  146.1160 C   0  0  0  0  0  3  0  0  0  0  0  0
  161.0320  206.5160  153.5670 C   0  0  0  0  0  0  0  0  0  0  0  0
  160.8900  206.0910  154.7790 N   0  0  0  0  0  2  0  0  0  0  0  0
  161.2280  206.6530  151.3420 C   0  0  0  0  0  0  0  0  0  0  0  0
  161.7190  205.8440  145.6930 C   0  0  0  0  0  3  0  0  0  0  0  0
  161.0840  203.8870  149.9530 C   0  0  0  0  0  0  0  0  0  0  0  0
  161.0740  202.7060  148.7430 S   0  0  0  0  0  0  0  0  0  0  0  0
  161.1920  207.7830  153.2620 O   0  0  0  0  0  0  0  0  0  0  0  0
  161.6140  206.1190  147.0660 C   0  0  0  0  0  3  0  0  0  0  0  0
  161.3050  207.9000  151.9570 C   0  0  0  0  0  0  0  0  0  0  0  0
  161.0380  205.7190  152.4390 C   0  0  0  0  0  0  0  0  0  0  0  0
  161.4960  209.1680  151.3180 N   0  0  0  0  0  2  0  0  0  0  0  0
  161.9860  210.3660  151.9860 C   0  0  0  0  0  2  0  0  0  0  0  0
  161.0910  211.0450  154.2350 C   0  0  0  0  0  0  0  0  0  0  0  0
  160.1630  211.5180  154.9440 O   0  0  0  0  0  0  0  0  0  0  0  0
  162.2970  210.6160  154.8600 N   0  0  0  0  0  1  0  0  0  0  0  0
  159.7050  211.3850  152.1740 C   0  0  0  0  0  1  0  0  0  0  0  0
  160.9330  210.9400  152.8130 N   0  0  0  0  0  0  0  0  0  0  0  0
  1 13  1  0  0  0  0
  1  2  2  0  0  0  0
  2 11  1  0  0  0  0
  3  6  1  0  0  0  0
  4  1  1  0  0  0  0
  5 12  2  0  0  0  0
  5  8  1  0  0  0  0
  6 18  2  0  0  0  0
  7  4  1  0  0  0  0
  7 14  1  0  0  0  0
  8  7  2  0  0  0  0
  9 10  2  0  0  0  0
 11 17  2  0  0  0  0
 11 18  1  0  0  0  0
 12 16  1  0  0  0  0
 13  3  2  0  0  0  0
 14 13  1  0  0  0  0
 15  9  1  0  0  0  0
 16  4  2  0  0  0  0
 17 15  1  0  0  0  0
 18  9  1  0  0  0  0
 19 17  1  0  0  0  0
 19 20  1  0  0  0  0
 20 25  1  0  0  0  0
 21 23  1  0  0  0  0
 21 22  2  0  0  0  0
 24 25  1  0  0  0  0
 25 21  1  0  0  0  0
M  END
>  <MODEL>
8

>  <REMARK>
 VINA RESULT:      -8.9      1.818      3.601
  Name = 
  3 active torsions:
  status: ('A' for Active; 'I' for Inactive)
    1  A    between atoms: N_6  and  C_15
    2  A    between atoms: N_6  and  C_23
    3  A    between atoms: C_15  and  N_25
                            x       y       z     vdW  Elec       q    Type
                         _______ _______ _______ _____ _____    ______ ____

>  <TORSDO>
F 3

$$$$
=
 OpenBabel11052422183D

 25 28  0  0  0  0  0  0  0  0999 V2000
  161.1130  206.0300  150.4340 C   0  0  0  0  0  0  0  0  0  0  0  0
  161.0230  207.3200  150.9540 C   0  0  0  0  0  3  0  0  0  0  0  0
  161.1400  204.5610  152.5180 C   0  0  0  0  0  3  0  0  0  0  0  0
  161.1630  205.8240  149.0420 C   0  0  0  0  0  0  0  0  0  0  0  0
  161.2730  205.0710  146.3520 C   0  0  0  0  0  3  0  0  0  0  0  0
  161.0670  205.4640  153.5710 C   0  0  0  0  0  3  0  0  0  0  0  0
  161.2440  204.4900  148.6750 C   0  0  0  0  0  0  0  0  0  0  0  0
  161.3010  204.0820  147.3450 C   0  0  0  0  0  3  0  0  0  0  0  0
  160.9290  207.7330  154.5230 C   0  0  0  0  0  0  0  0  0  0  0  0
  160.9370  207.4070  155.7740 N   0  0  0  0  0  2  0  0  0  0  0  0
  160.9520  207.6860  152.2860 C   0  0  0  0  0  0  0  0  0  0  0  0
  161.1910  206.4310  146.7030 C   0  0  0  0  0  3  0  0  0  0  0  0
  161.1590  204.8120  151.1480 C   0  0  0  0  0  0  0  0  0  0  0  0
  161.2580  203.5340  150.0450 S   0  0  0  0  0  0  0  0  0  0  0  0
  160.8640  208.9750  154.1030 O   0  0  0  0  0  0  0  0  0  0  0  0
  161.1340  206.8150  148.0520 C   0  0  0  0  0  3  0  0  0  0  0  0
  160.8700  208.9830  152.7880 C   0  0  0  0  0  0  0  0  0  0  0  0
  160.9870  206.8420  153.4690 C   0  0  0  0  0  0  0  0  0  0  0  0
  160.8140  210.1990  152.0320 N   0  0  0  0  0  2  0  0  0  0  0  0
  160.6770  211.5280  152.6120 C   0  0  0  0  0  2  0  0  0  0  0  0
  159.0050  212.9260  151.3590 C   0  0  0  0  0  0  0  0  0  0  0  0
  157.8310  213.3630  151.2200 O   0  0  0  0  0  0  0  0  0  0  0  0
  160.0170  213.3450  150.4470 N   0  0  0  0  0  1  0  0  0  0  0  0
  158.2830  211.5830  153.3480 C   0  0  0  0  0  1  0  0  0  0  0  0
  159.3180  212.0160  152.4220 N   0  0  0  0  0  0  0  0  0  0  0  0
  1  2  2  0  0  0  0
  1 13  1  0  0  0  0
  2 11  1  0  0  0  0
  3  6  1  0  0  0  0
  4  1  1  0  0  0  0
  5 12  2  0  0  0  0
  5  8  1  0  0  0  0
  7  4  1  0  0  0  0
  7 14  1  0  0  0  0
  8  7  2  0  0  0  0
  9 10  2  0  0  0  0
 11 17  2  0  0  0  0
 11 18  1  0  0  0  0
 12 16  1  0  0  0  0
 13  3  2  0  0  0  0
 14 13  1  0  0  0  0
 15  9  1  0  0  0  0
 16  4  2  0  0  0  0
 17 15  1  0  0  0  0
 18  6  2  0  0  0  0
 18  9  1  0  0  0  0
 19 20  1  0  0  0  0
 19 17  1  0  0  0  0
 21 25  1  0  0  0  0
 22 21  2  0  0  0  0
 23 21  1  0  0  0  0
 25 20  1  0  0  0  0
 25 24  1  0  0  0  0
M  END
>  <MODEL>
9

>  <REMARK>
 VINA RESULT:      -8.8      2.463      4.306
  Name = 
  3 active torsions:
  status: ('A' for Active; 'I' for Inactive)
    1  A    between atoms: N_6  and  C_15
    2  A    between atoms: N_6  and  C_23
    3  A    between atoms: C_15  and  N_25
                            x       y       z     vdW  Elec       q    Type
                         _______ _______ _______ _____ _____    ______ ____

>  <TORSDO>
F 3

$$$$
