=
 OpenBabel11052423123D

 27 31  0  0  0  0  0  0  0  0999 V2000
  162.2840  208.6890  151.6140 O   0  0  0  0  0  0  0  0  0  0  0  0
  161.2120  206.5370  151.2570 C   0  0  0  0  0  0  0  0  0  0  0  0
  161.6640  207.4720  149.0170 C   0  0  0  0  0  3  0  0  0  0  0  0
  160.8110  202.7730  149.3500 C   0  0  0  0  0  3  0  0  0  0  0  0
  161.0060  201.4000  147.4130 F   0  0  0  0  0  0  0  0  0  0  0  0
  160.7530  205.3830  151.9250 C   0  0  0  0  0  3  0  0  0  0  0  0
  161.6740  204.9650  147.8550 C   0  0  0  0  0  3  0  0  0  0  0  0
  161.7230  211.0790  148.2590 C   0  0  0  0  0  0  0  0  0  0  0  0
  161.5540  203.7120  147.2510 C   0  0  0  0  0  3  0  0  0  0  0  0
  161.5540  211.7960  147.2390 O   0  0  0  0  0  0  0  0  0  0  0  0
  161.3700  205.1490  149.2220 C   0  0  0  0  0  0  0  0  0  0  0  0
  161.4730  207.6310  152.0300 C   0  0  0  0  0  0  0  0  0  0  0  0
  161.1240  202.6160  147.9990 C   0  0  0  0  0  0  0  0  0  0  0  0
  160.9340  204.0250  149.9590 C   0  0  0  0  0  0  0  0  0  0  0  0
  162.0720  209.4640  150.4850 C   0  0  0  0  0  0  0  0  0  0  0  0
  161.4670  206.4290  149.8470 C   0  0  0  0  0  0  0  0  0  0  0  0
  161.5790  209.7300  148.1720 N   0  0  0  0  0  2  0  0  0  0  0  0
  160.6050  204.1560  151.2970 C   0  0  0  0  0  3  0  0  0  0  0  0
  162.0660  211.6650  149.4750 C   0  0  0  0  0  3  0  0  0  0  0  0
  162.2470  210.8460  150.5890 C   0  0  0  0  0  3  0  0  0  0  0  0
  161.7350  208.9120  149.2500 C   0  0  0  0  0  0  0  0  0  0  0  0
  160.0820  207.9530  156.0830 C   0  0  0  0  0  3  0  0  0  0  0  0
  161.0310  207.7290  153.4490 C   0  0  0  0  0  0  0  0  0  0  0  0
  160.8010  206.5800  154.2240 C   0  0  0  0  0  3  0  0  0  0  0  0
  160.3360  206.6920  155.5370 C   0  0  0  0  0  3  0  0  0  0  0  0
  160.2870  209.1010  155.3130 C   0  0  0  0  0  3  0  0  0  0  0  0
  160.7540  208.9880  154.0000 C   0  0  0  0  0  3  0  0  0  0  0  0
  1 12  1  0  0  0  0
  2  6  1  0  0  0  0
  2 12  2  0  0  0  0
  3 21  1  0  0  0  0
  3 16  2  0  0  0  0
  4 14  1  0  0  0  0
  5 13  1  0  0  0  0
  7 11  1  0  0  0  0
  8 19  1  0  0  0  0
  9  7  2  0  0  0  0
  9 13  1  0  0  0  0
 10  8  2  0  0  0  0
 11 16  1  0  0  0  0
 11 14  2  0  0  0  0
 12 23  1  0  0  0  0
 13  4  2  0  0  0  0
 14 18  1  0  0  0  0
 15 20  1  0  0  0  0
 15  1  1  0  0  0  0
 16  2  1  0  0  0  0
 17  8  1  0  0  0  0
 17 21  1  0  0  0  0
 18  6  2  0  0  0  0
 19 20  2  0  0  0  0
 21 15  2  0  0  0  0
 23 27  2  0  0  0  0
 23 24  1  0  0  0  0
 24 25  2  0  0  0  0
 25 22  1  0  0  0  0
 26 22  2  0  0  0  0
 27 26  1  0  0  0  0
M  END
>  <MODEL>
1

>  <REMARK>
 VINA RESULT:     -10.9      0.000      0.000
  Name = 
  1 active torsions:
  status: ('A' for Active; 'I' for Inactive)
    1  A    between atoms: C_9  and  C_15
                            x       y       z     vdW  Elec       q    Type
                         _______ _______ _______ _____ _____    ______ ____

>  <TORSDO>
F 1

$$$$
=
 OpenBabel11052423123D

 27 31  0  0  0  0  0  0  0  0999 V2000
  162.2830  209.7830  151.0120 O   0  0  0  0  0  0  0  0  0  0  0  0
  161.3290  207.5670  150.7110 C   0  0  0  0  0  0  0  0  0  0  0  0
  161.6830  208.4880  148.4480 C   0  0  0  0  0  3  0  0  0  0  0  0
  161.1060  203.7550  148.8720 C   0  0  0  0  0  3  0  0  0  0  0  0
  161.3410  202.3630  146.9530 F   0  0  0  0  0  0  0  0  0  0  0  0
  160.9490  206.4010  151.4070 C   0  0  0  0  0  3  0  0  0  0  0  0
  161.8120  205.9670  147.3260 C   0  0  0  0  0  3  0  0  0  0  0  0
  161.5200  212.0800  147.6320 C   0  0  0  0  0  0  0  0  0  0  0  0
  161.7530  204.6990  146.7440 C   0  0  0  0  0  3  0  0  0  0  0  0
  161.2910  212.7690  146.6050 O   0  0  0  0  0  0  0  0  0  0  0  0
  161.5260  206.1570  148.6960 C   0  0  0  0  0  0  0  0  0  0  0  0
  161.5420  208.6880  151.4620 C   0  0  0  0  0  0  0  0  0  0  0  0
  161.4000  203.5930  147.5170 C   0  0  0  0  0  0  0  0  0  0  0  0
  161.1690  205.0220  149.4590 C   0  0  0  0  0  0  0  0  0  0  0  0
  162.0050  210.5250  149.8760 C   0  0  0  0  0  0  0  0  0  0  0  0
  161.5620  207.4510  149.2980 C   0  0  0  0  0  0  0  0  0  0  0  0
  161.4520  210.7230  147.5700 N   0  0  0  0  0  2  0  0  0  0  0  0
  160.8600  205.1570  150.8010 C   0  0  0  0  0  3  0  0  0  0  0  0
  161.8530  212.7050  148.8320 C   0  0  0  0  0  3  0  0  0  0  0  0
  162.1030  211.9170  149.9540 C   0  0  0  0  0  3  0  0  0  0  0  0
  161.6750  209.9340  148.6570 C   0  0  0  0  0  0  0  0  0  0  0  0
  160.2100  208.9560  155.5380 C   0  0  0  0  0  3  0  0  0  0  0  0
  161.1230  208.7830  152.8870 C   0  0  0  0  0  0  0  0  0  0  0  0
  161.3470  207.7290  153.7880 C   0  0  0  0  0  3  0  0  0  0  0  0
  160.8990  207.8180  155.1090 C   0  0  0  0  0  3  0  0  0  0  0  0
  159.9640  210.0000  154.6440 C   0  0  0  0  0  3  0  0  0  0  0  0
  160.4130  209.9120  153.3230 C   0  0  0  0  0  3  0  0  0  0  0  0
  1 12  1  0  0  0  0
  2  6  1  0  0  0  0
  2 12  2  0  0  0  0
  3 21  1  0  0  0  0
  3 16  2  0  0  0  0
  4 14  1  0  0  0  0
  5 13  1  0  0  0  0
  7 11  1  0  0  0  0
  8 19  1  0  0  0  0
  9  7  2  0  0  0  0
  9 13  1  0  0  0  0
 10  8  2  0  0  0  0
 11 16  1  0  0  0  0
 11 14  2  0  0  0  0
 12 23  1  0  0  0  0
 13  4  2  0  0  0  0
 14 18  1  0  0  0  0
 15 20  1  0  0  0  0
 15  1  1  0  0  0  0
 16  2  1  0  0  0  0
 17  8  1  0  0  0  0
 17 21  1  0  0  0  0
 18  6  2  0  0  0  0
 19 20  2  0  0  0  0
 21 15  2  0  0  0  0
 23 27  2  0  0  0  0
 23 24  1  0  0  0  0
 24 25  2  0  0  0  0
 25 22  1  0  0  0  0
 26 22  2  0  0  0  0
 27 26  1  0  0  0  0
M  END
>  <MODEL>
2

>  <REMARK>
 VINA RESULT:      -9.6      1.017      1.188
  Name = 
  1 active torsions:
  status: ('A' for Active; 'I' for Inactive)
    1  A    between atoms: C_9  and  C_15
                            x       y       z     vdW  Elec       q    Type
                         _______ _______ _______ _____ _____    ______ ____

>  <TORSDO>
F 1

$$$$
=
 OpenBabel11052423123D

 27 31  0  0  0  0  0  0  0  0999 V2000
  162.7060  208.4550  148.7310 O   0  0  0  0  0  0  0  0  0  0  0  0
  161.5310  209.3930  150.6410 C   0  0  0  0  0  0  0  0  0  0  0  0
  161.3520  206.9390  150.8470 C   0  0  0  0  0  3  0  0  0  0  0  0
  160.5270  209.5780  154.7540 C   0  0  0  0  0  3  0  0  0  0  0  0
  160.1370  208.5010  156.8430 F   0  0  0  0  0  0  0  0  0  0  0  0
  161.2550  210.6030  151.3090 C   0  0  0  0  0  3  0  0  0  0  0  0
  160.9790  207.0880  153.5800 C   0  0  0  0  0  3  0  0  0  0  0  0
  161.2710  204.6270  147.9770 C   0  0  0  0  0  0  0  0  0  0  0  0
  160.6660  207.1730  154.9390 C   0  0  0  0  0  3  0  0  0  0  0  0
  160.8370  203.4670  147.7560 O   0  0  0  0  0  0  0  0  0  0  0  0
  161.0780  208.2480  152.7790 C   0  0  0  0  0  0  0  0  0  0  0  0
  162.0240  209.4910  149.3710 C   0  0  0  0  0  0  0  0  0  0  0  0
  160.4410  208.4180  155.5250 C   0  0  0  0  0  0  0  0  0  0  0  0
  160.8440  209.4980  153.3960 C   0  0  0  0  0  0  0  0  0  0  0  0
  162.2010  207.1860  148.5000 C   0  0  0  0  0  0  0  0  0  0  0  0
  161.3750  208.1740  151.3850 C   0  0  0  0  0  0  0  0  0  0  0  0
  161.0800  205.2040  149.1930 N   0  0  0  0  0  2  0  0  0  0  0  0
  160.9100  210.6620  152.6510 C   0  0  0  0  0  3  0  0  0  0  0  0
  161.9560  205.3170  146.9800 C   0  0  0  0  0  3  0  0  0  0  0  0
  162.4280  206.6000  147.2520 C   0  0  0  0  0  3  0  0  0  0  0  0
  161.5160  206.4630  149.4760 C   0  0  0  0  0  0  0  0  0  0  0  0
  162.0480  213.1250  147.0780 C   0  0  0  0  0  3  0  0  0  0  0  0
  162.0030  210.7680  148.6050 C   0  0  0  0  0  0  0  0  0  0  0  0
  160.8840  211.1470  147.8450 C   0  0  0  0  0  3  0  0  0  0  0  0
  160.9040  212.3230  147.0910 C   0  0  0  0  0  3  0  0  0  0  0  0
  163.1740  212.7460  147.8140 C   0  0  0  0  0  3  0  0  0  0  0  0
  163.1530  211.5690  148.5690 C   0  0  0  0  0  3  0  0  0  0  0  0
  1 12  1  0  0  0  0
  2  6  1  0  0  0  0
  2 16  1  0  0  0  0
  3 16  2  0  0  0  0
  4 13  1  0  0  0  0
  6 18  2  0  0  0  0
  7  9  1  0  0  0  0
  8 17  1  0  0  0  0
  9 13  2  0  0  0  0
 10  8  2  0  0  0  0
 11 14  1  0  0  0  0
 11  7  2  0  0  0  0
 12  2  2  0  0  0  0
 13  5  1  0  0  0  0
 14  4  2  0  0  0  0
 15  1  1  0  0  0  0
 15 21  2  0  0  0  0
 16 11  1  0  0  0  0
 17 21  1  0  0  0  0
 18 14  1  0  0  0  0
 19 20  2  0  0  0  0
 19  8  1  0  0  0  0
 20 15  1  0  0  0  0
 21  3  1  0  0  0  0
 22 25  2  0  0  0  0
 22 26  1  0  0  0  0
 23 12  1  0  0  0  0
 24 23  2  0  0  0  0
 25 24  1  0  0  0  0
 26 27  2  0  0  0  0
 27 23  1  0  0  0  0
M  END
>  <MODEL>
3

>  <REMARK>
 VINA RESULT:      -9.2      3.040      6.789
  Name = 
  1 active torsions:
  status: ('A' for Active; 'I' for Inactive)
    1  A    between atoms: C_9  and  C_15
                            x       y       z     vdW  Elec       q    Type
                         _______ _______ _______ _____ _____    ______ ____

>  <TORSDO>
F 1

$$$$
=
 OpenBabel11052423123D

 27 31  0  0  0  0  0  0  0  0999 V2000
  160.7640  210.5590  151.5320 O   0  0  0  0  0  0  0  0  0  0  0  0
  161.5810  208.8760  149.9790 C   0  0  0  0  0  0  0  0  0  0  0  0
  161.2290  207.7260  152.1350 C   0  0  0  0  0  3  0  0  0  0  0  0
  161.5400  205.0350  148.1890 C   0  0  0  0  0  3  0  0  0  0  0  0
  161.1810  202.6840  148.3340 F   0  0  0  0  0  0  0  0  0  0  0  0
  161.9080  208.6570  148.6250 C   0  0  0  0  0  3  0  0  0  0  0  0
  160.9280  205.2730  150.9000 C   0  0  0  0  0  3  0  0  0  0  0  0
  161.5810  209.3530  155.4250 C   0  0  0  0  0  0  0  0  0  0  0  0
  160.9010  204.0190  150.2860 C   0  0  0  0  0  3  0  0  0  0  0  0
  161.8260  208.9810  156.6010 O   0  0  0  0  0  0  0  0  0  0  0  0
  161.2560  206.4380  150.1710 C   0  0  0  0  0  0  0  0  0  0  0  0
  161.4500  210.1760  150.3770 C   0  0  0  0  0  0  0  0  0  0  0  0
  161.2060  203.9010  148.9300 C   0  0  0  0  0  0  0  0  0  0  0  0
  161.5640  206.2920  148.7980 C   0  0  0  0  0  0  0  0  0  0  0  0
  161.0580  210.1340  152.8160 C   0  0  0  0  0  0  0  0  0  0  0  0
  161.3090  207.7220  150.7910 C   0  0  0  0  0  0  0  0  0  0  0  0
  161.5690  208.4450  154.4130 N   0  0  0  0  0  2  0  0  0  0  0  0
  161.9110  207.3990  148.0450 C   0  0  0  0  0  3  0  0  0  0  0  0
  161.3120  210.6940  155.1590 C   0  0  0  0  0  3  0  0  0  0  0  0
  161.0430  211.0780  153.8460 C   0  0  0  0  0  3  0  0  0  0  0  0
  161.3250  208.8000  153.1210 C   0  0  0  0  0  0  0  0  0  0  0  0
  162.7370  213.4000  147.8450 C   0  0  0  0  0  3  0  0  0  0  0  0
  161.9070  211.3170  149.5360 C   0  0  0  0  0  0  0  0  0  0  0  0
  161.1780  212.5160  149.4720 C   0  0  0  0  0  3  0  0  0  0  0  0
  161.5950  213.5550  148.6360 C   0  0  0  0  0  3  0  0  0  0  0  0
  163.4560  212.2030  147.8860 C   0  0  0  0  0  3  0  0  0  0  0  0
  163.0390  211.1640  148.7230 C   0  0  0  0  0  3  0  0  0  0  0  0
  1 15  1  0  0  0  0
  2 12  2  0  0  0  0
  2 16  1  0  0  0  0
  3 21  1  0  0  0  0
  4 14  2  0  0  0  0
  4 13  1  0  0  0  0
  5 13  1  0  0  0  0
  6  2  1  0  0  0  0
  8 10  2  0  0  0  0
  9  7  1  0  0  0  0
 11 16  1  0  0  0  0
 11  7  2  0  0  0  0
 12  1  1  0  0  0  0
 13  9  2  0  0  0  0
 14 11  1  0  0  0  0
 15 21  2  0  0  0  0
 15 20  1  0  0  0  0
 16  3  2  0  0  0  0
 17  8  1  0  0  0  0
 18  6  2  0  0  0  0
 18 14  1  0  0  0  0
 19  8  1  0  0  0  0
 20 19  2  0  0  0  0
 21 17  1  0  0  0  0
 22 26  2  0  0  0  0
 22 25  1  0  0  0  0
 23 12  1  0  0  0  0
 24 23  1  0  0  0  0
 25 24  2  0  0  0  0
 26 27  1  0  0  0  0
 27 23  2  0  0  0  0
M  END
>  <MODEL>
4

>  <REMARK>
 VINA RESULT:      -8.9      2.061      5.378
  Name = 
  1 active torsions:
  status: ('A' for Active; 'I' for Inactive)
    1  A    between atoms: C_9  and  C_15
                            x       y       z     vdW  Elec       q    Type
                         _______ _______ _______ _____ _____    ______ ____

>  <TORSDO>
F 1

$$$$
=
 OpenBabel11052423123D

 27 31  0  0  0  0  0  0  0  0999 V2000
  161.7560  206.2720  153.0460 O   0  0  0  0  0  0  0  0  0  0  0  0
  161.4590  207.2470  150.8390 C   0  0  0  0  0  0  0  0  0  0  0  0
  161.2410  209.1000  152.4570 C   0  0  0  0  0  3  0  0  0  0  0  0
  162.1250  210.2130  147.8860 C   0  0  0  0  0  3  0  0  0  0  0  0
  162.5110  212.4850  147.2800 F   0  0  0  0  0  0  0  0  0  0  0  0
  161.5260  206.9560  149.4610 C   0  0  0  0  0  3  0  0  0  0  0  0
  161.9560  210.9800  150.5630 C   0  0  0  0  0  3  0  0  0  0  0  0
  159.9380  208.7070  155.8830 C   0  0  0  0  0  0  0  0  0  0  0  0
  162.1950  211.9390  149.5760 C   0  0  0  0  0  3  0  0  0  0  0  0
  159.3910  209.4500  156.7380 O   0  0  0  0  0  0  0  0  0  0  0  0
  161.8020  209.6150  150.2340 C   0  0  0  0  0  0  0  0  0  0  0  0
  161.4290  206.1810  151.6910 C   0  0  0  0  0  0  0  0  0  0  0  0
  162.2810  211.5550  148.2380 C   0  0  0  0  0  0  0  0  0  0  0  0
  161.8900  209.2500  148.8710 C   0  0  0  0  0  0  0  0  0  0  0  0
  161.1330  207.0990  153.9650 C   0  0  0  0  0  0  0  0  0  0  0  0
  161.5350  208.6280  151.2300 C   0  0  0  0  0  0  0  0  0  0  0  0
  160.2610  209.2020  154.6590 N   0  0  0  0  0  2  0  0  0  0  0  0
  161.7270  207.9290  148.4940 C   0  0  0  0  0  3  0  0  0  0  0  0
  160.2230  207.3790  156.1920 C   0  0  0  0  0  3  0  0  0  0  0  0
  160.8310  206.5780  155.2260 C   0  0  0  0  0  3  0  0  0  0  0  0
  160.8390  208.4350  153.6930 C   0  0  0  0  0  0  0  0  0  0  0  0
  160.8340  202.1700  150.2700 C   0  0  0  0  0  3  0  0  0  0  0  0
  161.1830  204.7900  151.2190 C   0  0  0  0  0  0  0  0  0  0  0  0
  161.2060  203.7020  152.1070 C   0  0  0  0  0  3  0  0  0  0  0  0
  161.0250  202.3990  151.6350 C   0  0  0  0  0  3  0  0  0  0  0  0
  160.8310  203.2440  149.3770 C   0  0  0  0  0  3  0  0  0  0  0  0
  161.0110  204.5470  149.8490 C   0  0  0  0  0  3  0  0  0  0  0  0
  1 15  1  0  0  0  0
  2 16  1  0  0  0  0
  2 12  2  0  0  0  0
  3 21  1  0  0  0  0
  4 13  2  0  0  0  0
  4 14  1  0  0  0  0
  5 13  1  0  0  0  0
  6  2  1  0  0  0  0
  8 19  1  0  0  0  0
  8 10  2  0  0  0  0
  9  7  2  0  0  0  0
 11  7  1  0  0  0  0
 11 16  1  0  0  0  0
 12  1  1  0  0  0  0
 13  9  1  0  0  0  0
 14 11  2  0  0  0  0
 15 20  1  0  0  0  0
 16  3  2  0  0  0  0
 17  8  1  0  0  0  0
 18 14  1  0  0  0  0
 18  6  2  0  0  0  0
 20 19  2  0  0  0  0
 21 15  2  0  0  0  0
 21 17  1  0  0  0  0
 22 25  1  0  0  0  0
 23 12  1  0  0  0  0
 23 24  1  0  0  0  0
 25 24  2  0  0  0  0
 26 27  1  0  0  0  0
 26 22  2  0  0  0  0
 27 23  2  0  0  0  0
M  END
>  <MODEL>
5

>  <REMARK>
 VINA RESULT:      -8.8      3.126      6.363
  Name = 
  1 active torsions:
  status: ('A' for Active; 'I' for Inactive)
    1  A    between atoms: C_9  and  C_15
                            x       y       z     vdW  Elec       q    Type
                         _______ _______ _______ _____ _____    ______ ____

>  <TORSDO>
F 1

$$$$
