=
 OpenBabel11062408033D

 34 38  0  0  1  0  0  0  0  0999 V2000
  161.2070  211.0810  150.7470 C   0  0  0  0  0  0  0  0  0  0  0  0
  161.9430  208.9390  149.9060 C   0  0  0  0  0  0  0  0  0  0  0  0
  160.8490  209.0660  152.1390 N   0  0  0  0  0  0  0  0  0  0  0  0
  160.9500  206.9560  153.5820 C   0  0  2  0  0  3  0  0  0  0  0  0
  162.2620  210.9070  148.6350 C   0  0  0  0  0  3  0  0  0  0  0  0
  162.3900  209.5630  148.7860 N   0  0  0  0  0  0  0  0  0  0  0  0
  162.0620  207.0460  151.4870 C   0  0  2  0  0  3  0  0  0  0  0  0
  161.3240  209.6940  150.9250 C   0  0  0  0  0  0  0  0  0  0  0  0
  161.4720  205.5480  153.2720 C   0  0  0  0  0  2  0  0  0  0  0  0
  161.6700  211.6530  149.6050 N   0  0  0  0  0  0  0  0  0  0  0  0
  160.4450  211.2620  153.1340 C   0  0  0  0  0  2  0  0  0  0  0  0
  160.4800  211.9230  151.7560 C   0  0  0  0  0  2  0  0  0  0  0  0
  162.0560  207.4400  150.0140 C   0  0  0  0  0  2  0  0  0  0  0  0
  162.0720  205.5720  151.8590 C   0  0  1  0  0  3  0  0  0  0  0  0
  160.8590  207.6010  152.2010 C   0  0  2  0  0  3  0  0  0  0  0  0
  159.9530  209.8240  153.0100 C   0  0  0  0  0  2  0  0  0  0  0  0
  160.1140  204.3230  151.3240 O   0  0  0  0  0  0  0  0  0  0  0  0
  161.2350  204.7420  150.9310 C   0  0  0  0  0  0  0  0  0  0  0  0
  161.7170  204.4090  149.6620 O   0  0  0  0  0  0  0  0  0  0  0  0
  160.8640  204.3020  148.5280 C   0  0  0  0  0  2  0  0  0  0  0  0
  161.6120  203.6640  147.3570 C   0  0  0  0  0  2  0  0  0  0  0  0
  161.2030  204.2970  145.0040 C   0  0  0  0  0  1  0  0  0  0  0  0
  161.5870  206.0720  146.6690 C   0  0  0  0  0  1  0  0  0  0  0  0
  161.9710  204.6630  146.2560 C   0  0  0  0  0  0  0  0  0  0  0  0
  163.3370  204.6160  145.9760 O   0  0  0  0  0  1  0  0  0  0  0  0
  161.9670  207.6500  154.4820 C   0  0  0  0  0  2  0  0  0  0  0  0
  161.4320  207.8060  155.7900 O   0  0  0  0  0  0  0  0  0  0  0  0
  161.3540  212.0470  157.2450 C   0  0  0  0  0  3  0  0  0  0  0  0
  162.3570  211.1710  157.2610 C   0  0  0  0  0  3  0  0  0  0  0  0
  161.2720  209.0480  156.4120 C   0  0  0  0  0  0  0  0  0  0  0  0
  162.3410  209.8440  156.6150 C   0  0  0  0  0  3  0  0  0  0  0  0
  159.3800  210.5990  156.9500 C   0  0  0  0  0  3  0  0  0  0  0  0
  159.9080  209.3770  156.8780 C   0  0  0  0  0  3  0  0  0  0  0  0
  160.0910  211.8240  156.4830 C   0  0  0  0  0  2  0  0  0  0  0  0
  1  8  1  0  0  0  0
  1 12  1  0  0  0  0
  2 13  1  0  0  0  0
  2  8  2  0  0  0  0
  3 16  1  0  0  0  0
  4 26  1  1  0  0  0
  5  6  2  0  0  0  0
  5 10  1  0  0  0  0
  6  2  1  0  0  0  0
  7 13  1  6  0  0  0
  7 14  1  0  0  0  0
  7 15  1  0  0  0  0
  8  3  1  0  0  0  0
  9  4  1  0  0  0  0
 10  1  2  0  0  0  0
 12 11  1  0  0  0  0
 14 18  1  6  0  0  0
 14  9  1  0  0  0  0
 15  3  1  1  0  0  0
 15  4  1  0  0  0  0
 16 11  1  0  0  0  0
 18 17  2  0  0  0  0
 19 18  1  0  0  0  0
 20 19  1  0  0  0  0
 21 20  1  0  0  0  0
 22 24  1  0  0  0  0
 24 23  1  0  0  0  0
 24 21  1  0  0  0  0
 25 24  1  0  0  0  0
 26 27  1  0  0  0  0
 27 30  1  0  0  0  0
 28 29  2  0  0  0  0
 30 31  2  0  0  0  0
 30 33  1  0  0  0  0
 31 29  1  0  0  0  0
 33 32  2  0  0  0  0
 34 32  1  0  0  0  0
 34 28  1  0  0  0  0
M  END
>  <MODEL>
1

>  <REMARK>
 VINA RESULT:      -6.9      0.000      0.000
  Name = 
  8 active torsions:
  status: ('A' for Active; 'I' for Inactive)
    1  A    between atoms: C_5  and  C_26
    2  A    between atoms: C_12  and  O_28
    3  A    between atoms: O_13  and  C_17
    4  A    between atoms: O_13  and  C_33
    5  A    between atoms: C_17  and  C_29
    6  A    between atoms: C_20  and  C_34
    7  A    between atoms: C_26  and  O_28
    8  A    between atoms: C_33  and  C_34
                            x       y       z     vdW  Elec       q    Type
                         _______ _______ _______ _____ _____    ______ ____

>  <TORSDO>
F 8

$$$$
=
 OpenBabel11062408033D

 34 38  0  0  1  0  0  0  0  0999 V2000
  160.4690  213.0880  149.4170 C   0  0  0  0  0  0  0  0  0  0  0  0
  159.6900  212.6100  151.6540 C   0  0  0  0  0  0  0  0  0  0  0  0
  161.4070  211.1360  150.6150 N   0  0  0  0  0  0  0  0  0  0  0  0
  161.9330  208.9550  151.8440 C   0  0  2  0  0  3  0  0  0  0  0  0
  158.8310  214.4530  150.4460 C   0  0  0  0  0  3  0  0  0  0  0  0
  158.8690  213.6880  151.5690 N   0  0  0  0  0  0  0  0  0  0  0  0
  160.2250  210.4040  152.6260 C   0  0  2  0  0  3  0  0  0  0  0  0
  160.5290  212.2850  150.5670 C   0  0  0  0  0  0  0  0  0  0  0  0
  161.4600  208.4250  153.2030 C   0  0  0  0  0  2  0  0  0  0  0  0
  159.6300  214.1550  149.3870 N   0  0  0  0  0  0  0  0  0  0  0  0
  161.9140  211.4050  148.2400 C   0  0  0  0  0  2  0  0  0  0  0  0
  161.3990  212.8440  148.2640 C   0  0  0  0  0  2  0  0  0  0  0  0
  159.7410  211.8170  152.9340 C   0  0  0  0  0  2  0  0  0  0  0  0
  160.4520  209.4340  153.7730 C   0  0  1  0  0  3  0  0  0  0  0  0
  161.5390  210.4290  151.8940 C   0  0  2  0  0  3  0  0  0  0  0  0
  162.4620  211.0220  149.6100 C   0  0  0  0  0  2  0  0  0  0  0  0
  162.2290  210.4840  154.9660 O   0  0  0  0  0  0  0  0  0  0  0  0
  161.0280  210.1050  154.9850 C   0  0  0  0  0  0  0  0  0  0  0  0
  160.2470  210.2690  156.1330 O   0  0  0  0  0  0  0  0  0  0  0  0
  159.3940  211.3920  156.3200 C   0  0  0  0  0  2  0  0  0  0  0  0
  157.9470  211.0210  156.0000 C   0  0  0  0  0  2  0  0  0  0  0  0
  157.8000  213.4640  156.3420 C   0  0  0  0  0  1  0  0  0  0  0  0
  156.3680  212.4080  154.6380 C   0  0  0  0  0  1  0  0  0  0  0  0
  157.0010  212.2230  156.0050 C   0  0  0  0  0  0  0  0  0  0  0  0
  156.0010  212.0580  156.9630 O   0  0  0  0  0  1  0  0  0  0  0  0
  161.1900  208.1900  150.7540 C   0  0  0  0  0  2  0  0  0  0  0  0
  161.9190  207.0220  150.3960 O   0  0  0  0  0  0  0  0  0  0  0  0
  160.7770  202.6930  150.1520 C   0  0  0  0  0  3  0  0  0  0  0  0
  160.7770  203.6180  149.1940 C   0  0  0  0  0  3  0  0  0  0  0  0
  161.3790  205.7340  150.4450 C   0  0  0  0  0  0  0  0  0  0  0  0
  161.3200  204.9840  149.3270 C   0  0  0  0  0  3  0  0  0  0  0  0
  160.8080  204.0510  152.2100 C   0  0  0  0  0  3  0  0  0  0  0  0
  160.8330  205.3010  151.7480 C   0  0  0  0  0  3  0  0  0  0  0  0
  161.4190  202.9010  151.4830 C   0  0  0  0  0  2  0  0  0  0  0  0
  1  8  1  0  0  0  0
  2 13  1  0  0  0  0
  4 26  1  6  0  0  0
  4 15  1  0  0  0  0
  4  9  1  0  0  0  0
  5  6  2  0  0  0  0
  6  2  1  0  0  0  0
  7 13  1  1  0  0  0
  7 14  1  0  0  0  0
  8  3  1  0  0  0  0
  8  2  2  0  0  0  0
  9 14  1  0  0  0  0
 10  1  2  0  0  0  0
 10  5  1  0  0  0  0
 11 12  1  0  0  0  0
 11 16  1  0  0  0  0
 12  1  1  0  0  0  0
 14 18  1  1  0  0  0
 15  3  1  6  0  0  0
 15  7  1  0  0  0  0
 16  3  1  0  0  0  0
 17 18  2  0  0  0  0
 18 19  1  0  0  0  0
 19 20  1  0  0  0  0
 21 24  1  0  0  0  0
 21 20  1  0  0  0  0
 23 24  1  0  0  0  0
 24 22  1  0  0  0  0
 24 25  1  0  0  0  0
 27 30  1  0  0  0  0
 27 26  1  0  0  0  0
 28 34  1  0  0  0  0
 29 31  1  0  0  0  0
 29 28  2  0  0  0  0
 30 33  1  0  0  0  0
 31 30  2  0  0  0  0
 33 32  2  0  0  0  0
 34 32  1  0  0  0  0
M  END
>  <MODEL>
2

>  <REMARK>
 VINA RESULT:      -6.6      2.383      7.893
  Name = 
  8 active torsions:
  status: ('A' for Active; 'I' for Inactive)
    1  A    between atoms: C_5  and  C_26
    2  A    between atoms: C_12  and  O_28
    3  A    between atoms: O_13  and  C_17
    4  A    between atoms: O_13  and  C_33
    5  A    between atoms: C_17  and  C_29
    6  A    between atoms: C_20  and  C_34
    7  A    between atoms: C_26  and  O_28
    8  A    between atoms: C_33  and  C_34
                            x       y       z     vdW  Elec       q    Type
                         _______ _______ _______ _____ _____    ______ ____

>  <TORSDO>
F 8

$$$$
=
 OpenBabel11062408033D

 34 38  0  0  1  0  0  0  0  0999 V2000
  160.7500  212.2770  150.5170 C   0  0  0  0  0  0  0  0  0  0  0  0
  161.8040  210.1890  149.9090 C   0  0  0  0  0  0  0  0  0  0  0  0
  160.4800  210.3250  152.0140 N   0  0  0  0  0  0  0  0  0  0  0  0
  160.6710  208.3360  153.6120 C   0  0  2  0  0  3  0  0  0  0  0  0
  162.0270  212.0980  148.5310 C   0  0  0  0  0  3  0  0  0  0  0  0
  162.2890  210.7910  148.7930 N   0  0  0  0  0  0  0  0  0  0  0  0
  161.9730  208.4270  151.6300 C   0  0  2  0  0  3  0  0  0  0  0  0
  161.0030  210.9270  150.8070 C   0  0  0  0  0  0  0  0  0  0  0  0
  161.3760  206.9840  153.4580 C   0  0  0  0  0  2  0  0  0  0  0  0
  161.2590  212.8270  149.3840 N   0  0  0  0  0  0  0  0  0  0  0  0
  159.7330  212.5150  152.8010 C   0  0  0  0  0  2  0  0  0  0  0  0
  159.8340  213.0880  151.3880 C   0  0  0  0  0  2  0  0  0  0  0  0
  162.0730  208.7240  150.1380 C   0  0  0  0  0  2  0  0  0  0  0  0
  162.1110  206.9910  152.1090 C   0  0  1  0  0  3  0  0  0  0  0  0
  160.6490  208.8780  152.1850 C   0  0  2  0  0  3  0  0  0  0  0  0
  159.4210  211.0240  152.7390 C   0  0  0  0  0  2  0  0  0  0  0  0
  160.7880  206.4410  150.2040 O   0  0  0  0  0  0  0  0  0  0  0  0
  161.4710  206.0110  151.1710 C   0  0  0  0  0  0  0  0  0  0  0  0
  161.6020  204.6370  151.3960 O   0  0  0  0  0  0  0  0  0  0  0  0
  160.5380  203.7230  151.1630 C   0  0  0  0  0  2  0  0  0  0  0  0
  161.0880  202.3650  150.7280 C   0  0  0  0  0  2  0  0  0  0  0  0
  160.9980  203.1620  148.3910 C   0  0  0  0  0  1  0  0  0  0  0  0
  161.5060  200.7910  148.8260 C   0  0  0  0  0  1  0  0  0  0  0  0
  160.7000  201.9870  149.2980 C   0  0  0  0  0  0  0  0  0  0  0  0
  159.3390  201.6920  149.2200 O   0  0  0  0  0  1  0  0  0  0  0  0
  161.5070  209.2020  154.5500 C   0  0  0  0  0  2  0  0  0  0  0  0
  160.8670  209.3040  155.8160 O   0  0  0  0  0  0  0  0  0  0  0  0
  159.6320  213.4580  156.9650 C   0  0  0  0  0  3  0  0  0  0  0  0
  160.7530  212.8020  157.2610 C   0  0  0  0  0  3  0  0  0  0  0  0
  160.3280  210.4950  156.3120 C   0  0  0  0  0  0  0  0  0  0  0  0
  161.1450  211.4920  156.7070 C   0  0  0  0  0  3  0  0  0  0  0  0
  158.1010  211.6400  156.3110 C   0  0  0  0  0  3  0  0  0  0  0  0
  158.8570  210.5480  156.4320 C   0  0  0  0  0  3  0  0  0  0  0  0
  158.6520  212.9780  155.9480 C   0  0  0  0  0  2  0  0  0  0  0  0
  1  8  1  0  0  0  0
  1 12  1  0  0  0  0
  2 13  1  0  0  0  0
  2  8  2  0  0  0  0
  3 16  1  0  0  0  0
  4 26  1  1  0  0  0
  5  6  2  0  0  0  0
  5 10  1  0  0  0  0
  6  2  1  0  0  0  0
  7 13  1  6  0  0  0
  7 14  1  0  0  0  0
  7 15  1  0  0  0  0
  8  3  1  0  0  0  0
  9  4  1  0  0  0  0
 10  1  2  0  0  0  0
 12 11  1  0  0  0  0
 14 18  1  6  0  0  0
 14  9  1  0  0  0  0
 15  3  1  1  0  0  0
 15  4  1  0  0  0  0
 16 11  1  0  0  0  0
 17 18  2  0  0  0  0
 18 19  1  0  0  0  0
 20 19  1  0  0  0  0
 21 20  1  0  0  0  0
 22 24  1  0  0  0  0
 23 24  1  0  0  0  0
 24 21  1  0  0  0  0
 25 24  1  0  0  0  0
 26 27  1  0  0  0  0
 27 30  1  0  0  0  0
 28 29  2  0  0  0  0
 30 33  1  0  0  0  0
 30 31  2  0  0  0  0
 31 29  1  0  0  0  0
 32 33  2  0  0  0  0
 34 32  1  0  0  0  0
 34 28  1  0  0  0  0
M  END
>  <MODEL>
3

>  <REMARK>
 VINA RESULT:      -6.0      1.779      2.369
  Name = 
  8 active torsions:
  status: ('A' for Active; 'I' for Inactive)
    1  A    between atoms: C_5  and  C_26
    2  A    between atoms: C_12  and  O_28
    3  A    between atoms: O_13  and  C_17
    4  A    between atoms: O_13  and  C_33
    5  A    between atoms: C_17  and  C_29
    6  A    between atoms: C_20  and  C_34
    7  A    between atoms: C_26  and  O_28
    8  A    between atoms: C_33  and  C_34
                            x       y       z     vdW  Elec       q    Type
                         _______ _______ _______ _____ _____    ______ ____

>  <TORSDO>
F 8

$$$$
=
 OpenBabel11062408033D

 34 38  0  0  1  0  0  0  0  0999 V2000
  160.8710  209.0660  156.3420 C   0  0  0  0  0  0  0  0  0  0  0  0
  160.5910  207.3490  154.6650 C   0  0  0  0  0  0  0  0  0  0  0  0
  161.5500  209.5520  154.0130 N   0  0  0  0  0  0  0  0  0  0  0  0
  161.7950  209.9930  151.5050 C   0  0  2  0  0  3  0  0  0  0  0  0
  159.9550  206.9570  156.9090 C   0  0  0  0  0  3  0  0  0  0  0  0
  160.0800  206.5340  155.6230 N   0  0  0  0  0  0  0  0  0  0  0  0
  160.7720  208.0020  152.2910 C   0  0  2  0  0  3  0  0  0  0  0  0
  161.0140  208.6510  155.0090 C   0  0  0  0  0  0  0  0  0  0  0  0
  161.5640  209.0810  150.2940 C   0  0  0  0  0  2  0  0  0  0  0  0
  160.3540  208.2080  157.2600 N   0  0  0  0  0  0  0  0  0  0  0  0
  161.4890  211.3910  155.6210 C   0  0  0  0  0  2  0  0  0  0  0  0
  161.3830  210.4060  156.7850 C   0  0  0  0  0  2  0  0  0  0  0  0
  160.7610  206.8270  153.2620 C   0  0  0  0  0  2  0  0  0  0  0  0
  161.0270  207.7400  150.8150 C   0  0  1  0  0  3  0  0  0  0  0  0
  161.8170  209.0130  152.6750 C   0  0  2  0  0  3  0  0  0  0  0  0
  162.2500  210.7540  154.4640 C   0  0  0  0  0  2  0  0  0  0  0  0
  163.2670  206.9300  150.7240 O   0  0  0  0  0  0  0  0  0  0  0  0
  162.0440  206.6590  150.5930 C   0  0  0  0  0  0  0  0  0  0  0  0
  161.6340  205.3800  150.2080 O   0  0  0  0  0  0  0  0  0  0  0  0
  160.7680  205.1580  149.1010 C   0  0  0  0  0  2  0  0  0  0  0  0
  161.4830  204.3480  148.0200 C   0  0  0  0  0  2  0  0  0  0  0  0
  161.7060  206.6320  147.1040 C   0  0  0  0  0  1  0  0  0  0  0  0
  163.1860  204.8530  146.2560 C   0  0  0  0  0  1  0  0  0  0  0  0
  161.7880  205.1590  146.7610 C   0  0  0  0  0  0  0  0  0  0  0  0
  160.8590  204.8790  145.7580 O   0  0  0  0  0  1  0  0  0  0  0  0
  160.6290  210.9730  151.5880 C   0  0  0  0  0  2  0  0  0  0  0  0
  161.0280  212.2480  151.1000 O   0  0  0  0  0  0  0  0  0  0  0  0
  159.9570  213.1250  146.8350 C   0  0  0  0  0  3  0  0  0  0  0  0
  161.1440  212.8270  147.3600 C   0  0  0  0  0  3  0  0  0  0  0  0
  160.6630  212.7380  149.8430 C   0  0  0  0  0  0  0  0  0  0  0  0
  161.3780  212.3970  148.7520 C   0  0  0  0  0  3  0  0  0  0  0  0
  158.6570  213.8240  148.8100 C   0  0  0  0  0  3  0  0  0  0  0  0
  159.5240  213.6790  149.8120 C   0  0  0  0  0  3  0  0  0  0  0  0
  158.6760  212.9740  147.5850 C   0  0  0  0  0  2  0  0  0  0  0  0
  1 12  1  0  0  0  0
  1 10  1  0  0  0  0
  2  8  1  0  0  0  0
  2  6  2  0  0  0  0
  3 16  1  0  0  0  0
  3  8  1  0  0  0  0
  4 26  1  1  0  0  0
  4 15  1  0  0  0  0
  5 10  2  0  0  0  0
  6  5  1  0  0  0  0
  7 15  1  0  0  0  0
  7 13  1  1  0  0  0
  8  1  2  0  0  0  0
  9 14  1  0  0  0  0
  9  4  1  0  0  0  0
 11 12  1  0  0  0  0
 13  2  1  0  0  0  0
 14 18  1  1  0  0  0
 14  7  1  0  0  0  0
 15  3  1  1  0  0  0
 16 11  1  0  0  0  0
 18 17  2  0  0  0  0
 19 18  1  0  0  0  0
 20 19  1  0  0  0  0
 21 20  1  0  0  0  0
 23 24  1  0  0  0  0
 24 22  1  0  0  0  0
 24 21  1  0  0  0  0
 25 24  1  0  0  0  0
 27 26  1  0  0  0  0
 28 29  2  0  0  0  0
 28 34  1  0  0  0  0
 29 31  1  0  0  0  0
 30 27  1  0  0  0  0
 31 30  2  0  0  0  0
 32 33  2  0  0  0  0
 33 30  1  0  0  0  0
 34 32  1  0  0  0  0
M  END
>  <MODEL>
4

>  <REMARK>
 VINA RESULT:      -5.9      2.485      5.663
  Name = 
  8 active torsions:
  status: ('A' for Active; 'I' for Inactive)
    1  A    between atoms: C_5  and  C_26
    2  A    between atoms: C_12  and  O_28
    3  A    between atoms: O_13  and  C_17
    4  A    between atoms: O_13  and  C_33
    5  A    between atoms: C_17  and  C_29
    6  A    between atoms: C_20  and  C_34
    7  A    between atoms: C_26  and  O_28
    8  A    between atoms: C_33  and  C_34
                            x       y       z     vdW  Elec       q    Type
                         _______ _______ _______ _____ _____    ______ ____

>  <TORSDO>
F 8

$$$$
=
 OpenBabel11062408033D

 34 38  0  0  1  0  0  0  0  0999 V2000
  161.1550  204.1540  149.5430 C   0  0  0  0  0  0  0  0  0  0  0  0
  161.3800  204.6120  151.9050 C   0  0  0  0  0  0  0  0  0  0  0  0
  160.9580  206.4930  150.3280 N   0  0  0  0  0  0  0  0  0  0  0  0
  161.2040  208.8550  151.2780 C   0  0  2  0  0  3  0  0  0  0  0  0
  161.5660  202.4030  151.0820 C   0  0  0  0  0  3  0  0  0  0  0  0
  161.5730  203.2850  152.1160 N   0  0  0  0  0  0  0  0  0  0  0  0
  161.7050  206.9560  152.6090 C   0  0  2  0  0  3  0  0  0  0  0  0
  161.1540  205.0840  150.5940 C   0  0  0  0  0  0  0  0  0  0  0  0
  161.4540  209.3450  152.7090 C   0  0  0  0  0  2  0  0  0  0  0  0
  161.3520  202.8370  149.8120 N   0  0  0  0  0  0  0  0  0  0  0  0
  161.0990  206.0740  147.9240 C   0  0  0  0  0  2  0  0  0  0  0  0
  160.8340  204.5840  148.1400 C   0  0  0  0  0  2  0  0  0  0  0  0
  161.3430  205.5520  153.0820 C   0  0  0  0  0  2  0  0  0  0  0  0
  161.6450  208.1080  153.5990 C   0  0  1  0  0  3  0  0  0  0  0  0
  160.8150  207.3930  151.4770 C   0  0  2  0  0  3  0  0  0  0  0  0
  160.4290  206.8890  149.0250 C   0  0  0  0  0  2  0  0  0  0  0  0
  160.4110  206.9560  155.2820 O   0  0  0  0  0  0  0  0  0  0  0  0
  160.4960  207.9820  154.5550 C   0  0  0  0  0  0  0  0  0  0  0  0
  159.5140  208.9750  154.6070 O   0  0  0  0  0  0  0  0  0  0  0  0
  159.4200  209.8980  155.6850 C   0  0  0  0  0  2  0  0  0  0  0  0
  159.6790  211.3210  155.1920 C   0  0  0  0  0  2  0  0  0  0  0  0
  158.5050  213.4270  154.6480 C   0  0  0  0  0  1  0  0  0  0  0  0
  158.5900  211.6350  152.9590 C   0  0  0  0  0  1  0  0  0  0  0  0
  158.4890  211.9270  154.4450 C   0  0  0  0  0  0  0  0  0  0  0  0
  157.2880  211.4180  154.9390 O   0  0  0  0  0  1  0  0  0  0  0  0
  162.5010  209.0110  150.4910 C   0  0  0  0  0  2  0  0  0  0  0  0
  162.2400  209.6320  149.2390 O   0  0  0  0  0  0  0  0  0  0  0  0
  162.2970  213.9160  147.9160 C   0  0  0  0  0  3  0  0  0  0  0  0
  163.2730  213.0110  147.8800 C   0  0  0  0  0  3  0  0  0  0  0  0
  162.2470  211.0170  149.0510 C   0  0  0  0  0  0  0  0  0  0  0  0
  163.1200  211.5770  148.1900 C   0  0  0  0  0  3  0  0  0  0  0  0
  160.7240  212.9430  149.5450 C   0  0  0  0  0  3  0  0  0  0  0  0
  161.3120  211.7970  149.8890 C   0  0  0  0  0  3  0  0  0  0  0  0
  160.8740  213.5650  148.1990 C   0  0  0  0  0  2  0  0  0  0  0  0
  1 10  2  0  0  0  0
  1  8  1  0  0  0  0
  2  6  1  0  0  0  0
  2 13  1  0  0  0  0
  3  8  1  0  0  0  0
  4 26  1  6  0  0  0
  4 15  1  0  0  0  0
  4  9  1  0  0  0  0
  5  6  2  0  0  0  0
  7 13  1  1  0  0  0
  7 14  1  0  0  0  0
  8  2  2  0  0  0  0
  9 14  1  0  0  0  0
 10  5  1  0  0  0  0
 11 12  1  0  0  0  0
 11 16  1  0  0  0  0
 12  1  1  0  0  0  0
 14 18  1  1  0  0  0
 15  3  1  6  0  0  0
 15  7  1  0  0  0  0
 16  3  1  0  0  0  0
 18 19  1  0  0  0  0
 18 17  2  0  0  0  0
 19 20  1  0  0  0  0
 21 20  1  0  0  0  0
 23 24  1  0  0  0  0
 24 22  1  0  0  0  0
 24 25  1  0  0  0  0
 24 21  1  0  0  0  0
 27 26  1  0  0  0  0
 28 34  1  0  0  0  0
 29 28  2  0  0  0  0
 29 31  1  0  0  0  0
 30 27  1  0  0  0  0
 30 33  1  0  0  0  0
 31 30  2  0  0  0  0
 32 33  2  0  0  0  0
 34 32  1  0  0  0  0
M  END
>  <MODEL>
5

>  <REMARK>
 VINA RESULT:      -5.8      2.621      7.561
  Name = 
  8 active torsions:
  status: ('A' for Active; 'I' for Inactive)
    1  A    between atoms: C_5  and  C_26
    2  A    between atoms: C_12  and  O_28
    3  A    between atoms: O_13  and  C_17
    4  A    between atoms: O_13  and  C_33
    5  A    between atoms: C_17  and  C_29
    6  A    between atoms: C_20  and  C_34
    7  A    between atoms: C_26  and  O_28
    8  A    between atoms: C_33  and  C_34
                            x       y       z     vdW  Elec       q    Type
                         _______ _______ _______ _____ _____    ______ ____

>  <TORSDO>
F 8

$$$$
=
 OpenBabel11062408033D

 34 38  0  0  1  0  0  0  0  0999 V2000
  160.9600  209.0520  156.3850 C   0  0  0  0  0  0  0  0  0  0  0  0
  160.6190  207.4350  154.6230 C   0  0  0  0  0  0  0  0  0  0  0  0
  161.6780  209.6240  154.0870 N   0  0  0  0  0  0  0  0  0  0  0  0
  161.9610  210.1770  151.6060 C   0  0  2  0  0  3  0  0  0  0  0  0
  159.9490  206.9610  156.8410 C   0  0  0  0  0  3  0  0  0  0  0  0
  160.0650  206.5970  155.5370 N   0  0  0  0  0  0  0  0  0  0  0  0
  160.8460  208.1960  152.2860 C   0  0  2  0  0  3  0  0  0  0  0  0
  161.0950  208.6990  155.0340 C   0  0  0  0  0  0  0  0  0  0  0  0
  161.6990  209.3370  150.3500 C   0  0  0  0  0  2  0  0  0  0  0  0
  160.3990  208.1740  157.2570 N   0  0  0  0  0  0  0  0  0  0  0  0
  161.6840  211.3810  155.7850 C   0  0  0  0  0  2  0  0  0  0  0  0
  161.5260  210.3450  156.8980 C   0  0  0  0  0  2  0  0  0  0  0  0
  160.7770  206.9760  153.1970 C   0  0  0  0  0  2  0  0  0  0  0  0
  161.1010  207.9970  150.8000 C   0  0  1  0  0  3  0  0  0  0  0  0
  161.9310  209.1400  152.7260 C   0  0  2  0  0  3  0  0  0  0  0  0
  162.4250  210.7690  154.6020 C   0  0  0  0  0  2  0  0  0  0  0  0
  163.3080  207.1170  150.6020 O   0  0  0  0  0  0  0  0  0  0  0  0
  162.0710  206.8850  150.5310 C   0  0  0  0  0  0  0  0  0  0  0  0
  161.6040  205.6190  150.1660 O   0  0  0  0  0  0  0  0  0  0  0  0
  160.8280  205.4020  148.9930 C   0  0  0  0  0  2  0  0  0  0  0  0
  161.6220  205.8000  147.7490 C   0  0  0  0  0  2  0  0  0  0  0  0
  163.1450  204.7020  146.1430 C   0  0  0  0  0  1  0  0  0  0  0  0
  161.5330  203.3230  147.3950 C   0  0  0  0  0  1  0  0  0  0  0  0
  161.7490  204.6690  146.7280 C   0  0  0  0  0  0  0  0  0  0  0  0
  160.8250  204.8320  145.6970 O   0  0  0  0  0  1  0  0  0  0  0  0
  160.8380  211.2020  151.7320 C   0  0  0  0  0  2  0  0  0  0  0  0
  159.7250  210.6240  152.4030 O   0  0  0  0  0  0  0  0  0  0  0  0
  157.0650  212.9530  155.1610 C   0  0  0  0  0  3  0  0  0  0  0  0
  157.3130  211.6450  155.1380 C   0  0  0  0  0  3  0  0  0  0  0  0
  158.7590  211.3760  153.0780 C   0  0  0  0  0  0  0  0  0  0  0  0
  158.3270  210.9830  154.2930 C   0  0  0  0  0  3  0  0  0  0  0  0
  157.7810  213.6760  152.9150 C   0  0  0  0  0  3  0  0  0  0  0  0
  158.2170  212.5460  152.3570 C   0  0  0  0  0  3  0  0  0  0  0  0
  157.8590  213.9450  154.3800 C   0  0  0  0  0  2  0  0  0  0  0  0
  1 12  1  0  0  0  0
  1 10  1  0  0  0  0
  2  8  1  0  0  0  0
  2  6  2  0  0  0  0
  3 16  1  0  0  0  0
  3  8  1  0  0  0  0
  4 26  1  1  0  0  0
  4 15  1  0  0  0  0
  5 10  2  0  0  0  0
  6  5  1  0  0  0  0
  7 15  1  0  0  0  0
  7 13  1  1  0  0  0
  8  1  2  0  0  0  0
  9 14  1  0  0  0  0
  9  4  1  0  0  0  0
 11 12  1  0  0  0  0
 13  2  1  0  0  0  0
 14 18  1  1  0  0  0
 14  7  1  0  0  0  0
 15  3  1  1  0  0  0
 16 11  1  0  0  0  0
 18 17  2  0  0  0  0
 19 18  1  0  0  0  0
 20 19  1  0  0  0  0
 21 20  1  0  0  0  0
 22 24  1  0  0  0  0
 24 23  1  0  0  0  0
 24 21  1  0  0  0  0
 25 24  1  0  0  0  0
 26 27  1  0  0  0  0
 27 30  1  0  0  0  0
 29 28  2  0  0  0  0
 30 31  2  0  0  0  0
 31 29  1  0  0  0  0
 32 34  1  0  0  0  0
 33 32  2  0  0  0  0
 33 30  1  0  0  0  0
 34 28  1  0  0  0  0
M  END
>  <MODEL>
6

>  <REMARK>
 VINA RESULT:      -5.8      2.324      4.503
  Name = 
  8 active torsions:
  status: ('A' for Active; 'I' for Inactive)
    1  A    between atoms: C_5  and  C_26
    2  A    between atoms: C_12  and  O_28
    3  A    between atoms: O_13  and  C_17
    4  A    between atoms: O_13  and  C_33
    5  A    between atoms: C_17  and  C_29
    6  A    between atoms: C_20  and  C_34
    7  A    between atoms: C_26  and  O_28
    8  A    between atoms: C_33  and  C_34
                            x       y       z     vdW  Elec       q    Type
                         _______ _______ _______ _____ _____    ______ ____

>  <TORSDO>
F 8

$$$$
=
 OpenBabel11062408033D

 34 38  0  0  1  0  0  0  0  0999 V2000
  162.1380  209.7500  149.2100 C   0  0  0  0  0  0  0  0  0  0  0  0
  161.2610  210.2480  151.4060 C   0  0  0  0  0  0  0  0  0  0  0  0
  162.0480  207.9420  150.8970 N   0  0  0  0  0  0  0  0  0  0  0  0
  161.4880  206.1380  152.6230 C   0  0  2  0  0  3  0  0  0  0  0  0
  161.3670  211.9250  149.7410 C   0  0  0  0  0  3  0  0  0  0  0  0
  161.0530  211.5280  151.0020 N   0  0  0  0  0  0  0  0  0  0  0  0
  160.6920  208.3570  152.8880 C   0  0  2  0  0  3  0  0  0  0  0  0
  161.8250  209.3170  150.5080 C   0  0  0  0  0  0  0  0  0  0  0  0
  160.8410  206.2360  154.0090 C   0  0  0  0  0  2  0  0  0  0  0  0
  161.9100  211.0430  148.8610 N   0  0  0  0  0  0  0  0  0  0  0  0
  162.5850  207.3590  148.5850 C   0  0  0  0  0  2  0  0  0  0  0  0
  162.8200  208.8290  148.2400 C   0  0  0  0  0  2  0  0  0  0  0  0
  160.9470  209.8590  152.8270 C   0  0  0  0  0  2  0  0  0  0  0  0
  160.4460  207.7020  154.2380 C   0  0  1  0  0  3  0  0  0  0  0  0
  161.8460  207.5870  152.3060 C   0  0  2  0  0  3  0  0  0  0  0  0
  162.9050  207.1090  150.0550 C   0  0  0  0  0  2  0  0  0  0  0  0
  162.3320  207.6920  155.6970 O   0  0  0  0  0  0  0  0  0  0  0  0
  161.2910  208.2980  155.3250 C   0  0  0  0  0  0  0  0  0  0  0  0
  160.9020  209.4910  155.9410 O   0  0  0  0  0  0  0  0  0  0  0  0
  159.6730  209.6180  156.6460 C   0  0  0  0  0  2  0  0  0  0  0  0
  159.3200  211.0930  156.8380 C   0  0  0  0  0  2  0  0  0  0  0  0
  157.5410  212.6130  156.0450 C   0  0  0  0  0  1  0  0  0  0  0  0
  159.6980  212.5750  154.8550 C   0  0  0  0  0  1  0  0  0  0  0  0
  158.6840  211.7260  155.6000 C   0  0  0  0  0  0  0  0  0  0  0  0
  158.1830  210.7420  154.7470 O   0  0  0  0  0  1  0  0  0  0  0  0
  160.4530  205.5700  151.6560 C   0  0  0  0  0  2  0  0  0  0  0  0
  160.4320  204.1510  151.7450 O   0  0  0  0  0  0  0  0  0  0  0  0
  161.1730  201.0450  148.5970 C   0  0  0  0  0  3  0  0  0  0  0  0
  161.2900  200.9460  149.9200 C   0  0  0  0  0  3  0  0  0  0  0  0
  160.8480  203.3100  150.7090 C   0  0  0  0  0  0  0  0  0  0  0  0
  160.8720  201.9750  150.8930 C   0  0  0  0  0  3  0  0  0  0  0  0
  161.2040  203.4840  148.2360 C   0  0  0  0  0  3  0  0  0  0  0  0
  161.3100  203.9720  149.4720 C   0  0  0  0  0  3  0  0  0  0  0  0
  160.5120  202.2000  147.9230 C   0  0  0  0  0  2  0  0  0  0  0  0
  1  8  1  0  0  0  0
  2 13  1  0  0  0  0
  4 26  1  6  0  0  0
  4  9  1  0  0  0  0
  5  6  2  0  0  0  0
  6  2  1  0  0  0  0
  7 13  1  1  0  0  0
  7 14  1  0  0  0  0
  8  3  1  0  0  0  0
  8  2  2  0  0  0  0
  9 14  1  0  0  0  0
 10  1  2  0  0  0  0
 10  5  1  0  0  0  0
 11 16  1  0  0  0  0
 12 11  1  0  0  0  0
 12  1  1  0  0  0  0
 14 18  1  1  0  0  0
 15  3  1  6  0  0  0
 15  4  1  0  0  0  0
 15  7  1  0  0  0  0
 16  3  1  0  0  0  0
 18 17  2  0  0  0  0
 18 19  1  0  0  0  0
 19 20  1  0  0  0  0
 20 21  1  0  0  0  0
 23 24  1  0  0  0  0
 24 22  1  0  0  0  0
 24 21  1  0  0  0  0
 25 24  1  0  0  0  0
 26 27  1  0  0  0  0
 28 29  2  0  0  0  0
 29 31  1  0  0  0  0
 30 31  2  0  0  0  0
 30 27  1  0  0  0  0
 32 33  2  0  0  0  0
 33 30  1  0  0  0  0
 34 32  1  0  0  0  0
 34 28  1  0  0  0  0
M  END
>  <MODEL>
7

>  <REMARK>
 VINA RESULT:      -5.7      1.917      7.840
  Name = 
  8 active torsions:
  status: ('A' for Active; 'I' for Inactive)
    1  A    between atoms: C_5  and  C_26
    2  A    between atoms: C_12  and  O_28
    3  A    between atoms: O_13  and  C_17
    4  A    between atoms: O_13  and  C_33
    5  A    between atoms: C_17  and  C_29
    6  A    between atoms: C_20  and  C_34
    7  A    between atoms: C_26  and  O_28
    8  A    between atoms: C_33  and  C_34
                            x       y       z     vdW  Elec       q    Type
                         _______ _______ _______ _____ _____    ______ ____

>  <TORSDO>
F 8

$$$$
=
 OpenBabel11062408033D

 34 38  0  0  1  0  0  0  0  0999 V2000
  161.1780  207.0020  153.9300 C   0  0  0  0  0  0  0  0  0  0  0  0
  161.5920  209.3210  153.3900 C   0  0  0  0  0  0  0  0  0  0  0  0
  161.1680  207.6940  151.5540 N   0  0  0  0  0  0  0  0  0  0  0  0
  161.6100  208.5190  149.1730 C   0  0  2  0  0  3  0  0  0  0  0  0
  161.5970  208.5870  155.6390 C   0  0  0  0  0  3  0  0  0  0  0  0
  161.7260  209.5770  154.7170 N   0  0  0  0  0  0  0  0  0  0  0  0
  162.0960  209.8970  151.0430 C   0  0  2  0  0  3  0  0  0  0  0  0
  161.3030  208.0080  152.9590 C   0  0  0  0  0  0  0  0  0  0  0  0
  161.9860  209.9080  148.6420 C   0  0  0  0  0  2  0  0  0  0  0  0
  161.3200  207.3160  155.2440 N   0  0  0  0  0  0  0  0  0  0  0  0
  161.1170  205.3070  152.0770 C   0  0  0  0  0  2  0  0  0  0  0  0
  160.7850  205.6070  153.5390 C   0  0  0  0  0  2  0  0  0  0  0  0
  161.6910  210.4550  152.4030 C   0  0  0  0  0  2  0  0  0  0  0  0
  162.1690  210.8370  149.8500 C   0  0  1  0  0  3  0  0  0  0  0  0
  161.1550  208.8090  150.6010 C   0  0  2  0  0  3  0  0  0  0  0  0
  160.5710  206.4130  151.1800 C   0  0  0  0  0  2  0  0  0  0  0  0
  160.8000  212.4860  148.8070 O   0  0  0  0  0  0  0  0  0  0  0  0
  161.0850  211.8730  149.8700 C   0  0  0  0  0  0  0  0  0  0  0  0
  160.4280  212.1780  151.0660 O   0  0  0  0  0  0  0  0  0  0  0  0
  159.6820  213.3760  151.2410 C   0  0  0  0  0  2  0  0  0  0  0  0
  158.2460  213.0530  151.6530 C   0  0  0  0  0  2  0  0  0  0  0  0
  156.6720  213.5110  153.5020 C   0  0  0  0  0  1  0  0  0  0  0  0
  158.1630  211.5560  153.6580 C   0  0  0  0  0  1  0  0  0  0  0  0
  158.0530  212.9890  153.1680 C   0  0  0  0  0  0  0  0  0  0  0  0
  159.0020  213.7770  153.8180 O   0  0  0  0  0  1  0  0  0  0  0  0
  162.8560  207.6410  149.1270 C   0  0  0  0  0  2  0  0  0  0  0  0
  163.0390  207.1260  147.8140 O   0  0  0  0  0  0  0  0  0  0  0  0
  161.2280  203.5990  145.7200 C   0  0  0  0  0  3  0  0  0  0  0  0
  161.5090  204.8080  145.2400 C   0  0  0  0  0  3  0  0  0  0  0  0
  162.2890  206.0680  147.2910 C   0  0  0  0  0  0  0  0  0  0  0  0
  162.2520  205.8610  145.9600 C   0  0  0  0  0  3  0  0  0  0  0  0
  161.2170  203.9770  148.1560 C   0  0  0  0  0  3  0  0  0  0  0  0
  161.5120  205.2720  148.2640 C   0  0  0  0  0  3  0  0  0  0  0  0
  161.7160  203.1160  147.0450 C   0  0  0  0  0  2  0  0  0  0  0  0
  1 10  1  0  0  0  0
  2  6  2  0  0  0  0
  3  8  1  0  0  0  0
  4 26  1  1  0  0  0
  4 15  1  0  0  0  0
  6  5  1  0  0  0  0
  7 13  1  1  0  0  0
  8  2  1  0  0  0  0
  8  1  2  0  0  0  0
  9  4  1  0  0  0  0
  9 14  1  0  0  0  0
 10  5  2  0  0  0  0
 11 12  1  0  0  0  0
 12  1  1  0  0  0  0
 13  2  1  0  0  0  0
 14 18  1  1  0  0  0
 14  7  1  0  0  0  0
 15  7  1  0  0  0  0
 15  3  1  1  0  0  0
 16  3  1  0  0  0  0
 16 11  1  0  0  0  0
 17 18  2  0  0  0  0
 18 19  1  0  0  0  0
 19 20  1  0  0  0  0
 20 21  1  0  0  0  0
 21 24  1  0  0  0  0
 24 22  1  0  0  0  0
 24 23  1  0  0  0  0
 24 25  1  0  0  0  0
 27 26  1  0  0  0  0
 28 34  1  0  0  0  0
 29 28  2  0  0  0  0
 29 31  1  0  0  0  0
 30 27  1  0  0  0  0
 30 33  1  0  0  0  0
 31 30  2  0  0  0  0
 32 33  2  0  0  0  0
 34 32  1  0  0  0  0
M  END
>  <MODEL>
8

>  <REMARK>
 VINA RESULT:      -5.6      2.742      8.515
  Name = 
  8 active torsions:
  status: ('A' for Active; 'I' for Inactive)
    1  A    between atoms: C_5  and  C_26
    2  A    between atoms: C_12  and  O_28
    3  A    between atoms: O_13  and  C_17
    4  A    between atoms: O_13  and  C_33
    5  A    between atoms: C_17  and  C_29
    6  A    between atoms: C_20  and  C_34
    7  A    between atoms: C_26  and  O_28
    8  A    between atoms: C_33  and  C_34
                            x       y       z     vdW  Elec       q    Type
                         _______ _______ _______ _____ _____    ______ ____

>  <TORSDO>
F 8

$$$$
=
 OpenBabel11062408033D

 34 38  0  0  1  0  0  0  0  0999 V2000
  160.3440  213.5650  149.8340 C   0  0  0  0  0  0  0  0  0  0  0  0
  161.6790  211.5520  149.7710 C   0  0  0  0  0  0  0  0  0  0  0  0
  160.0650  211.8920  151.6350 N   0  0  0  0  0  0  0  0  0  0  0  0
  160.2270  210.2580  153.5970 C   0  0  2  0  0  3  0  0  0  0  0  0
  161.9010  213.1990  148.0880 C   0  0  0  0  0  3  0  0  0  0  0  0
  162.2540  212.0020  148.6260 N   0  0  0  0  0  0  0  0  0  0  0  0
  161.7810  210.1590  151.8060 C   0  0  2  0  0  3  0  0  0  0  0  0
  160.6890  212.3310  150.4070 C   0  0  0  0  0  0  0  0  0  0  0  0
  161.0810  209.0000  153.7920 C   0  0  0  0  0  2  0  0  0  0  0  0
  160.9500  213.9650  148.6860 N   0  0  0  0  0  0  0  0  0  0  0  0
  158.9950  214.0740  151.8900 C   0  0  0  0  0  2  0  0  0  0  0  0
  159.2370  214.3960  150.4150 C   0  0  0  0  0  2  0  0  0  0  0  0
  162.0610  210.1970  150.3080 C   0  0  0  0  0  2  0  0  0  0  0  0
  161.9940  208.8600  152.5660 C   0  0  1  0  0  3  0  0  0  0  0  0
  160.3530  210.5310  152.1010 C   0  0  2  0  0  3  0  0  0  0  0  0
  158.8480  212.5690  152.0800 C   0  0  0  0  0  2  0  0  0  0  0  0
  160.6730  206.9120  152.1890 O   0  0  0  0  0  0  0  0  0  0  0  0
  161.5970  207.6560  151.7640 C   0  0  0  0  0  0  0  0  0  0  0  0
  162.2740  207.3470  150.5810 O   0  0  0  0  0  0  0  0  0  0  0  0
  161.6540  207.4350  149.3040 C   0  0  0  0  0  2  0  0  0  0  0  0
  161.0720  206.0810  148.9000 C   0  0  0  0  0  2  0  0  0  0  0  0
  161.5500  204.1340  147.4540 C   0  0  0  0  0  1  0  0  0  0  0  0
  160.4540  206.1100  146.4730 C   0  0  0  0  0  1  0  0  0  0  0  0
  161.4790  205.6460  147.4910 C   0  0  0  0  0  0  0  0  0  0  0  0
  162.7320  206.1630  147.1600 O   0  0  0  0  0  1  0  0  0  0  0  0
  160.8300  211.3750  154.4450 C   0  0  0  0  0  2  0  0  0  0  0  0
  160.0610  211.5570  155.6270 O   0  0  0  0  0  0  0  0  0  0  0  0
  156.2510  213.8590  155.0860 C   0  0  0  0  0  3  0  0  0  0  0  0
  157.4310  214.2800  155.5370 C   0  0  0  0  0  3  0  0  0  0  0  0
  158.7950  212.1510  155.6370 C   0  0  0  0  0  0  0  0  0  0  0  0
  158.6780  213.4900  155.5330 C   0  0  0  0  0  3  0  0  0  0  0  0
  156.4210  211.4130  155.3400 C   0  0  0  0  0  3  0  0  0  0  0  0
  157.6470  211.2430  155.8350 C   0  0  0  0  0  3  0  0  0  0  0  0
  156.0580  212.5350  154.4270 C   0  0  0  0  0  2  0  0  0  0  0  0
  1  8  1  0  0  0  0
  1 12  1  0  0  0  0
  2 13  1  0  0  0  0
  2  8  2  0  0  0  0
  3 16  1  0  0  0  0
  4  9  1  0  0  0  0
  4 26  1  1  0  0  0
  5  6  2  0  0  0  0
  5 10  1  0  0  0  0
  6  2  1  0  0  0  0
  7 13  1  6  0  0  0
  7 15  1  0  0  0  0
  7 14  1  0  0  0  0
  8  3  1  0  0  0  0
 10  1  2  0  0  0  0
 11 16  1  0  0  0  0
 12 11  1  0  0  0  0
 14 18  1  6  0  0  0
 14  9  1  0  0  0  0
 15  3  1  1  0  0  0
 15  4  1  0  0  0  0
 18 17  2  0  0  0  0
 19 18  1  0  0  0  0
 20 19  1  0  0  0  0
 21 20  1  0  0  0  0
 22 24  1  0  0  0  0
 23 24  1  0  0  0  0
 24 21  1  0  0  0  0
 25 24  1  0  0  0  0
 26 27  1  0  0  0  0
 27 30  1  0  0  0  0
 28 29  2  0  0  0  0
 30 33  1  0  0  0  0
 31 29  1  0  0  0  0
 31 30  2  0  0  0  0
 32 33  2  0  0  0  0
 34 28  1  0  0  0  0
 34 32  1  0  0  0  0
M  END
>  <MODEL>
9

>  <REMARK>
 VINA RESULT:      -5.5      2.347      3.393
  Name = 
  8 active torsions:
  status: ('A' for Active; 'I' for Inactive)
    1  A    between atoms: C_5  and  C_26
    2  A    between atoms: C_12  and  O_28
    3  A    between atoms: O_13  and  C_17
    4  A    between atoms: O_13  and  C_33
    5  A    between atoms: C_17  and  C_29
    6  A    between atoms: C_20  and  C_34
    7  A    between atoms: C_26  and  O_28
    8  A    between atoms: C_33  and  C_34
                            x       y       z     vdW  Elec       q    Type
                         _______ _______ _______ _____ _____    ______ ____

>  <TORSDO>
F 8

$$$$
