=
 OpenBabel11062410533D

 32 36  0  0  1  0  0  0  0  0999 V2000
  160.6130  206.8640  154.9410 C   0  0  0  0  0  3  0  0  0  0  0  0
  159.8810  207.7090  155.7730 C   0  0  0  0  0  3  0  0  0  0  0  0
  161.2440  207.3760  153.8070 C   0  0  0  0  0  3  0  0  0  0  0  0
  161.1520  208.7350  153.4830 C   0  0  0  0  0  0  0  0  0  0  0  0
  159.7850  209.0680  155.4730 C   0  0  0  0  0  3  0  0  0  0  0  0
  160.4160  209.5990  154.3370 C   0  0  0  0  0  0  0  0  0  0  0  0
  159.6930  212.7490  152.5070 C   0  0  2  0  0  3  0  0  0  0  0  0
  158.2890  212.9670  153.0810 C   0  0  2  0  0  3  0  0  0  0  0  0
  157.1110  213.0330  155.0810 C   0  0  2  0  0  3  0  0  0  0  0  0
  160.3230  211.0770  154.0960 C   0  0  2  0  0  3  0  0  0  0  0  0
  157.5630  214.3820  154.7810 N   0  0  0  0  0  2  0  0  0  0  0  0
  158.1090  214.3620  153.4800 N   0  0  0  0  0  2  0  0  0  0  0  0
  159.2900  211.7300  155.0330 C   0  0  0  0  0  2  0  0  0  0  0  0
  159.7100  213.1100  151.0350 C   0  0  0  0  0  1  0  0  0  0  0  0
  157.0950  212.7840  156.5820 C   0  0  0  0  0  1  0  0  0  0  0  0
  160.0850  211.3520  152.6730 N   0  0  0  0  0  2  0  0  0  0  0  0
  157.9930  212.0990  154.2910 C   0  0  2  0  0  3  0  0  0  0  0  0
  161.8320  209.1720  152.2960 N   0  0  0  0  0  2  0  0  0  0  0  0
  160.5830  204.1080  150.2830 C   0  0  0  0  0  2  0  0  0  0  0  0
  160.8840  206.8580  150.2050 C   0  0  2  0  0  3  0  0  0  0  0  0
  162.6120  206.9840  151.7390 N   0  0  0  0  0  2  0  0  0  0  0  0
  161.6320  204.7500  151.2260 C   0  0  0  0  0  2  0  0  0  0  0  0
  162.3220  208.3250  151.2180 C   0  0  1  0  0  3  0  0  0  0  0  0
  160.5270  204.7320  148.8640 C   0  0  1  0  0  3  0  0  0  0  0  0
  162.0660  206.1200  150.7210 C   0  0  1  0  0  3  0  0  0  0  0  0
  160.4880  206.2790  148.8520 C   0  0  0  0  0  2  0  0  0  0  0  0
  161.3120  208.2350  150.1530 N   0  0  0  0  0  2  0  0  0  0  0  0
  161.9250  204.1450  147.8620 S   0  0  0  0  0  0  0  0  0  0  0  0
  162.0660  205.7360  147.0030 C   0  0  0  0  0  2  0  0  0  0  0  0
  162.4580  205.4920  145.5590 C   0  0  0  0  0  2  0  0  0  0  0  0
  160.1350  206.0890  145.1490 N   0  0  0  0  0  1  0  0  0  0  0  0
  161.2240  205.2310  144.7160 C   0  0  0  0  0  2  0  0  0  0  0  0
  1  2  1  0  0  0  0
  3  1  2  0  0  0  0
  4  3  1  0  0  0  0
  4  6  2  0  0  0  0
  5  2  2  0  0  0  0
  6  5  1  0  0  0  0
  7 14  1  6  0  0  0
  7 16  1  0  0  0  0
  7  8  1  0  0  0  0
  8 12  1  1  0  0  0
  8 17  1  0  0  0  0
  9 15  1  1  0  0  0
 10  6  1  6  0  0  0
 10 13  1  0  0  0  0
 11  9  1  0  0  0  0
 12 11  1  0  0  0  0
 16 10  1  0  0  0  0
 17 13  1  1  0  0  0
 17  9  1  0  0  0  0
 18  4  1  0  0  0  0
 19 22  1  0  0  0  0
 20 26  1  6  0  0  0
 20 25  1  0  0  0  0
 23 21  1  0  0  0  0
 23 18  1  1  0  0  0
 24 28  1  6  0  0  0
 24 19  1  0  0  0  0
 25 22  1  1  0  0  0
 25 21  1  0  0  0  0
 26 24  1  0  0  0  0
 27 20  1  0  0  0  0
 27 23  1  0  0  0  0
 29 28  1  0  0  0  0
 30 29  1  0  0  0  0
 32 31  1  0  0  0  0
 32 30  1  0  0  0  0
M  END
>  <MODEL>
1

>  <REMARK>
 VINA RESULT:      -7.9      0.000      0.000
  Name = 
  7 active torsions:
  status: ('A' for Active; 'I' for Inactive)
    1  A    between atoms: N_3  and  C_14
    2  A    between atoms: N_3  and  C_15
    3  A    between atoms: C_10  and  C_20
    4  A    between atoms: C_10  and  S_24
    5  A    between atoms: C_16  and  C_26
    6  A    between atoms: C_17  and  C_20
    7  A    between atoms: C_19  and  S_24
                            x       y       z     vdW  Elec       q    Type
                         _______ _______ _______ _____ _____    ______ ____

>  <TORSDO>
F 7

$$$$
=
 OpenBabel11062410533D

 32 36  0  0  1  0  0  0  0  0999 V2000
  161.3210  202.0770  152.1090 C   0  0  0  0  0  3  0  0  0  0  0  0
  160.9440  201.6910  150.8240 C   0  0  0  0  0  3  0  0  0  0  0  0
  161.5520  203.4240  152.3940 C   0  0  0  0  0  3  0  0  0  0  0  0
  161.4160  204.4030  151.4030 C   0  0  0  0  0  0  0  0  0  0  0  0
  160.7940  202.6540  149.8250 C   0  0  0  0  0  3  0  0  0  0  0  0
  161.0210  204.0120  150.0960 C   0  0  0  0  0  0  0  0  0  0  0  0
  161.7520  206.8450  147.8090 C   0  0  2  0  0  3  0  0  0  0  0  0
  162.2840  205.9990  146.6460 C   0  0  2  0  0  3  0  0  0  0  0  0
  161.7740  204.1520  145.3330 C   0  0  2  0  0  3  0  0  0  0  0  0
  160.7900  205.0060  148.9970 C   0  0  2  0  0  3  0  0  0  0  0  0
  161.2440  205.3340  144.6730 N   0  0  0  0  0  2  0  0  0  0  0  0
  161.7210  206.4590  145.3780 N   0  0  0  0  0  2  0  0  0  0  0  0
  160.6940  204.3090  147.6270 C   0  0  0  0  0  2  0  0  0  0  0  0
  162.5900  208.0990  147.9600 C   0  0  0  0  0  1  0  0  0  0  0  0
  160.8810  202.9440  145.0910 C   0  0  0  0  0  1  0  0  0  0  0  0
  161.7990  206.0720  149.0470 N   0  0  0  0  0  2  0  0  0  0  0  0
  161.9650  204.5210  146.7840 C   0  0  2  0  0  3  0  0  0  0  0  0
  161.6770  205.7630  151.7870 N   0  0  0  0  0  2  0  0  0  0  0  0
  161.8530  210.2600  155.1030 C   0  0  0  0  0  2  0  0  0  0  0  0
  161.3790  208.8580  152.7660 C   0  0  2  0  0  3  0  0  0  0  0  0
  160.8690  206.8330  153.7640 N   0  0  0  0  0  2  0  0  0  0  0  0
  161.5130  208.7530  155.2180 C   0  0  0  0  0  2  0  0  0  0  0  0
  160.7080  206.7150  152.3100 C   0  0  1  0  0  3  0  0  0  0  0  0
  161.0270  211.0270  154.0370 C   0  0  1  0  0  3  0  0  0  0  0  0
  160.7740  208.2560  153.9820 C   0  0  1  0  0  3  0  0  0  0  0  0
  160.9470  210.3160  152.6650 C   0  0  0  0  0  2  0  0  0  0  0  0
  160.9090  208.0290  151.6810 N   0  0  0  0  0  2  0  0  0  0  0  0
  159.3510  211.3570  154.6570 S   0  0  0  0  0  0  0  0  0  0  0  0
  158.6850  211.5070  152.9760 C   0  0  0  0  0  2  0  0  0  0  0  0
  158.0420  212.8700  152.8130 C   0  0  0  0  0  2  0  0  0  0  0  0
  159.8080  213.3860  151.2210 N   0  0  0  0  0  1  0  0  0  0  0  0
  158.3750  213.4500  151.4520 C   0  0  0  0  0  2  0  0  0  0  0  0
  1  3  1  0  0  0  0
  2  1  2  0  0  0  0
  4 18  1  0  0  0  0
  4  3  2  0  0  0  0
  5  6  2  0  0  0  0
  5  2  1  0  0  0  0
  6  4  1  0  0  0  0
  7 14  1  1  0  0  0
  7 16  1  0  0  0  0
  8 12  1  6  0  0  0
  8 17  1  0  0  0  0
  8  7  1  0  0  0  0
  9 15  1  1  0  0  0
  9 17  1  0  0  0  0
 10 16  1  0  0  0  0
 10  6  1  1  0  0  0
 11  9  1  0  0  0  0
 11 12  1  0  0  0  0
 13 10  1  0  0  0  0
 17 13  1  1  0  0  0
 19 22  1  0  0  0  0
 20 26  1  6  0  0  0
 20 25  1  0  0  0  0
 21 25  1  0  0  0  0
 23 18  1  6  0  0  0
 23 21  1  0  0  0  0
 24 28  1  1  0  0  0
 24 19  1  0  0  0  0
 25 22  1  1  0  0  0
 26 24  1  0  0  0  0
 27 23  1  0  0  0  0
 27 20  1  0  0  0  0
 29 28  1  0  0  0  0
 30 29  1  0  0  0  0
 31 32  1  0  0  0  0
 32 30  1  0  0  0  0
M  END
>  <MODEL>
2

>  <REMARK>
 VINA RESULT:      -7.8      2.583      8.597
  Name = 
  7 active torsions:
  status: ('A' for Active; 'I' for Inactive)
    1  A    between atoms: N_3  and  C_14
    2  A    between atoms: N_3  and  C_15
    3  A    between atoms: C_10  and  C_20
    4  A    between atoms: C_10  and  S_24
    5  A    between atoms: C_16  and  C_26
    6  A    between atoms: C_17  and  C_20
    7  A    between atoms: C_19  and  S_24
                            x       y       z     vdW  Elec       q    Type
                         _______ _______ _______ _____ _____    ______ ____

>  <TORSDO>
F 7

$$$$
=
 OpenBabel11062410533D

 32 36  0  0  1  0  0  0  0  0999 V2000
  161.3030  202.0620  152.1050 C   0  0  0  0  0  3  0  0  0  0  0  0
  160.9530  201.6890  150.8090 C   0  0  0  0  0  3  0  0  0  0  0  0
  161.5070  203.4080  152.4140 C   0  0  0  0  0  3  0  0  0  0  0  0
  161.3720  204.4000  151.4350 C   0  0  0  0  0  0  0  0  0  0  0  0
  160.8050  202.6640  149.8220 C   0  0  0  0  0  3  0  0  0  0  0  0
  161.0050  204.0220  150.1160 C   0  0  0  0  0  0  0  0  0  0  0  0
  161.7320  206.8930  147.8760 C   0  0  2  0  0  3  0  0  0  0  0  0
  162.2870  206.0690  146.7090 C   0  0  2  0  0  3  0  0  0  0  0  0
  161.8150  204.2350  145.3650 C   0  0  2  0  0  3  0  0  0  0  0  0
  160.7760  205.0280  149.0270 C   0  0  2  0  0  3  0  0  0  0  0  0
  161.2790  205.4190  144.7140 N   0  0  0  0  0  2  0  0  0  0  0  0
  161.7350  206.5400  145.4400 N   0  0  0  0  0  2  0  0  0  0  0  0
  160.7050  204.3480  147.6470 C   0  0  0  0  0  2  0  0  0  0  0  0
  162.5540  208.1540  148.0540 C   0  0  0  0  0  1  0  0  0  0  0  0
  160.9390  203.0200  145.0950 C   0  0  0  0  0  1  0  0  0  0  0  0
  161.7730  206.1040  149.1040 N   0  0  0  0  0  2  0  0  0  0  0  0
  161.9830  204.5860  146.8230 C   0  0  2  0  0  3  0  0  0  0  0  0
  161.6050  205.7570  151.8420 N   0  0  0  0  0  2  0  0  0  0  0  0
  161.9080  209.6040  155.8880 C   0  0  0  0  0  2  0  0  0  0  0  0
  161.3890  208.6410  153.3460 C   0  0  2  0  0  3  0  0  0  0  0  0
  160.8320  206.4870  153.9820 N   0  0  0  0  0  2  0  0  0  0  0  0
  161.5300  208.1080  155.7420 C   0  0  0  0  0  2  0  0  0  0  0  0
  160.6620  206.6270  152.5310 C   0  0  1  0  0  3  0  0  0  0  0  0
  161.0970  210.5640  154.9790 C   0  0  1  0  0  3  0  0  0  0  0  0
  160.7740  207.8520  154.4440 C   0  0  1  0  0  3  0  0  0  0  0  0
  160.9940  210.1050  153.5040 C   0  0  0  0  0  2  0  0  0  0  0  0
  160.8940  208.0260  152.1380 N   0  0  0  0  0  2  0  0  0  0  0  0
  159.4320  210.8220  155.6600 S   0  0  0  0  0  0  0  0  0  0  0  0
  158.7760  211.3300  154.0470 C   0  0  0  0  0  2  0  0  0  0  0  0
  157.3290  211.7490  154.2060 C   0  0  0  0  0  2  0  0  0  0  0  0
  155.4560  210.4600  155.0730 N   0  0  0  0  0  1  0  0  0  0  0  0
  156.7190  211.0850  155.4260 C   0  0  0  0  0  2  0  0  0  0  0  0
  1  3  1  0  0  0  0
  2  1  2  0  0  0  0
  4 18  1  0  0  0  0
  4  3  2  0  0  0  0
  5  6  2  0  0  0  0
  5  2  1  0  0  0  0
  6  4  1  0  0  0  0
  7 14  1  1  0  0  0
  7 16  1  0  0  0  0
  8 12  1  6  0  0  0
  8 17  1  0  0  0  0
  8  7  1  0  0  0  0
  9 15  1  1  0  0  0
  9 17  1  0  0  0  0
 10 16  1  0  0  0  0
 10  6  1  1  0  0  0
 11  9  1  0  0  0  0
 11 12  1  0  0  0  0
 13 10  1  0  0  0  0
 17 13  1  1  0  0  0
 20 26  1  1  0  0  0
 20 25  1  0  0  0  0
 21 25  1  0  0  0  0
 22 19  1  0  0  0  0
 23 18  1  6  0  0  0
 23 21  1  0  0  0  0
 24 28  1  1  0  0  0
 24 19  1  0  0  0  0
 25 22  1  1  0  0  0
 26 24  1  0  0  0  0
 27 23  1  0  0  0  0
 27 20  1  0  0  0  0
 29 30  1  0  0  0  0
 29 28  1  0  0  0  0
 30 32  1  0  0  0  0
 31 32  1  0  0  0  0
M  END
>  <MODEL>
3

>  <REMARK>
 VINA RESULT:      -7.8      2.746      8.835
  Name = 
  7 active torsions:
  status: ('A' for Active; 'I' for Inactive)
    1  A    between atoms: N_3  and  C_14
    2  A    between atoms: N_3  and  C_15
    3  A    between atoms: C_10  and  C_20
    4  A    between atoms: C_10  and  S_24
    5  A    between atoms: C_16  and  C_26
    6  A    between atoms: C_17  and  C_20
    7  A    between atoms: C_19  and  S_24
                            x       y       z     vdW  Elec       q    Type
                         _______ _______ _______ _____ _____    ______ ____

>  <TORSDO>
F 7

$$$$
=
 OpenBabel11062410533D

 32 36  0  0  1  0  0  0  0  0999 V2000
  161.5190  212.6200  148.8040 C   0  0  0  0  0  3  0  0  0  0  0  0
  160.5830  213.3930  149.4880 C   0  0  0  0  0  3  0  0  0  0  0  0
  161.9620  211.4150  149.3500 C   0  0  0  0  0  3  0  0  0  0  0  0
  161.4840  210.9650  150.5860 C   0  0  0  0  0  0  0  0  0  0  0  0
  160.0870  212.9580  150.7170 C   0  0  0  0  0  3  0  0  0  0  0  0
  160.5210  211.7460  151.2790 C   0  0  0  0  0  0  0  0  0  0  0  0
  160.1940  211.2910  154.9500 C   0  0  2  0  0  3  0  0  0  0  0  0
  159.3200  212.5250  155.2030 C   0  0  2  0  0  3  0  0  0  0  0  0
  157.4040  213.6040  154.4580 C   0  0  2  0  0  3  0  0  0  0  0  0
  159.9110  211.3030  152.5760 C   0  0  2  0  0  3  0  0  0  0  0  0
  157.0220  212.6990  155.5290 N   0  0  0  0  0  2  0  0  0  0  0  0
  158.2110  212.1940  156.0960 N   0  0  0  0  0  2  0  0  0  0  0  0
  158.5830  212.0360  152.8450 C   0  0  0  0  0  2  0  0  0  0  0  0
  161.2130  211.1440  156.0630 C   0  0  0  0  0  1  0  0  0  0  0  0
  156.3020  213.7100  153.4130 C   0  0  0  0  0  1  0  0  0  0  0  0
  160.8830  211.4260  153.6700 N   0  0  0  0  0  2  0  0  0  0  0  0
  158.7310  213.1140  153.9330 C   0  0  2  0  0  3  0  0  0  0  0  0
  161.9980  209.7150  151.0710 N   0  0  0  0  0  2  0  0  0  0  0  0
  160.5600  204.3260  150.6840 C   0  0  0  0  0  2  0  0  0  0  0  0
  160.8950  206.9250  149.7960 C   0  0  2  0  0  3  0  0  0  0  0  0
  162.7120  207.4360  151.1340 N   0  0  0  0  0  2  0  0  0  0  0  0
  161.6710  205.1810  151.3440 C   0  0  0  0  0  2  0  0  0  0  0  0
  162.4120  208.5770  150.2620 C   0  0  1  0  0  3  0  0  0  0  0  0
  160.4280  204.5140  149.1500 C   0  0  1  0  0  3  0  0  0  0  0  0
  162.0940  206.3320  150.4410 C   0  0  1  0  0  3  0  0  0  0  0  0
  160.4110  205.9930  148.6920 C   0  0  0  0  0  2  0  0  0  0  0  0
  161.3380  208.2150  149.3240 N   0  0  0  0  0  2  0  0  0  0  0  0
  161.7560  203.6200  148.2900 S   0  0  0  0  0  0  0  0  0  0  0  0
  161.7410  204.7910  146.9050 C   0  0  0  0  0  2  0  0  0  0  0  0
  161.5990  204.0260  145.6040 C   0  0  0  0  0  2  0  0  0  0  0  0
  160.3330  206.0390  145.0930 N   0  0  0  0  0  1  0  0  0  0  0  0
  161.0820  204.9390  144.5100 C   0  0  0  0  0  2  0  0  0  0  0  0
  1  3  2  0  0  0  0
  1  2  1  0  0  0  0
  2  5  2  0  0  0  0
  3  4  1  0  0  0  0
  4 18  1  0  0  0  0
  4  6  2  0  0  0  0
  5  6  1  0  0  0  0
  7  8  1  0  0  0  0
  7 14  1  1  0  0  0
  8 12  1  1  0  0  0
  9 15  1  6  0  0  0
  9 11  1  0  0  0  0
 10  6  1  6  0  0  0
 10 13  1  0  0  0  0
 10 16  1  0  0  0  0
 11 12  1  0  0  0  0
 16  7  1  0  0  0  0
 17 13  1  6  0  0  0
 17  9  1  0  0  0  0
 17  8  1  0  0  0  0
 19 22  1  0  0  0  0
 20 26  1  6  0  0  0
 20 25  1  0  0  0  0
 23 18  1  1  0  0  0
 23 21  1  0  0  0  0
 24 28  1  6  0  0  0
 24 19  1  0  0  0  0
 25 21  1  0  0  0  0
 25 22  1  1  0  0  0
 26 24  1  0  0  0  0
 27 20  1  0  0  0  0
 27 23  1  0  0  0  0
 29 28  1  0  0  0  0
 30 29  1  0  0  0  0
 32 31  1  0  0  0  0
 32 30  1  0  0  0  0
M  END
>  <MODEL>
4

>  <REMARK>
 VINA RESULT:      -7.5      1.719      3.259
  Name = 
  7 active torsions:
  status: ('A' for Active; 'I' for Inactive)
    1  A    between atoms: N_3  and  C_14
    2  A    between atoms: N_3  and  C_15
    3  A    between atoms: C_10  and  C_20
    4  A    between atoms: C_10  and  S_24
    5  A    between atoms: C_16  and  C_26
    6  A    between atoms: C_17  and  C_20
    7  A    between atoms: C_19  and  S_24
                            x       y       z     vdW  Elec       q    Type
                         _______ _______ _______ _____ _____    ______ ____

>  <TORSDO>
F 7

$$$$
=
 OpenBabel11062410533D

 32 36  0  0  1  0  0  0  0  0999 V2000
  161.9400  211.3410  149.4070 C   0  0  0  0  0  3  0  0  0  0  0  0
  162.1210  210.6000  148.2410 C   0  0  0  0  0  3  0  0  0  0  0  0
  161.8620  210.6940  150.6410 C   0  0  0  0  0  3  0  0  0  0  0  0
  161.9570  209.3000  150.7310 C   0  0  0  0  0  0  0  0  0  0  0  0
  162.2270  209.2110  148.3100 C   0  0  0  0  0  3  0  0  0  0  0  0
  162.1530  208.5450  149.5440 C   0  0  0  0  0  0  0  0  0  0  0  0
  161.3020  204.9850  150.1760 C   0  0  2  0  0  3  0  0  0  0  0  0
  160.7340  204.6910  148.7840 C   0  0  2  0  0  3  0  0  0  0  0  0
  161.2120  204.9050  146.5210 C   0  0  2  0  0  3  0  0  0  0  0  0
  162.3300  207.0550  149.5620 C   0  0  2  0  0  3  0  0  0  0  0  0
  161.7030  203.6100  146.9630 N   0  0  0  0  0  2  0  0  0  0  0  0
  161.2420  203.4150  148.2820 N   0  0  0  0  0  2  0  0  0  0  0  0
  162.3790  206.4840  148.1320 C   0  0  0  0  0  2  0  0  0  0  0  0
  160.4570  204.3020  151.2330 C   0  0  0  0  0  1  0  0  0  0  0  0
  162.1080  205.4880  145.4370 C   0  0  0  0  0  1  0  0  0  0  0  0
  161.3120  206.4260  150.4130 N   0  0  0  0  0  2  0  0  0  0  0  0
  161.0750  205.7570  147.7580 C   0  0  2  0  0  3  0  0  0  0  0  0
  161.8630  208.7210  152.0420 N   0  0  0  0  0  2  0  0  0  0  0  0
  161.3850  211.4520  156.8960 C   0  0  0  0  0  2  0  0  0  0  0  0
  160.8150  210.8770  154.2510 C   0  0  2  0  0  3  0  0  0  0  0  0
  161.2870  208.6150  154.3580 N   0  0  0  0  0  2  0  0  0  0  0  0
  161.6090  209.9990  156.4050 C   0  0  0  0  0  2  0  0  0  0  0  0
  160.8030  208.9490  153.0140 C   0  0  1  0  0  3  0  0  0  0  0  0
  160.1040  212.1280  156.3420 C   0  0  1  0  0  3  0  0  0  0  0  0
  160.7840  209.7030  155.1590 C   0  0  1  0  0  3  0  0  0  0  0  0
  159.9110  211.9670  154.8150 C   0  0  0  0  0  2  0  0  0  0  0  0
  160.3830  210.3580  152.9740 N   0  0  0  0  0  2  0  0  0  0  0  0
  158.6350  211.5070  157.2150 S   0  0  0  0  0  0  0  0  0  0  0  0
  157.5800  212.7990  156.5010 C   0  0  0  0  0  2  0  0  0  0  0  0
  156.2370  212.2000  156.1340 C   0  0  0  0  0  2  0  0  0  0  0  0
  155.2060  210.2860  155.0410 N   0  0  0  0  0  1  0  0  0  0  0  0
  156.4180  211.0830  155.1230 C   0  0  0  0  0  2  0  0  0  0  0  0
  1  3  1  0  0  0  0
  2  5  1  0  0  0  0
  2  1  2  0  0  0  0
  3  4  2  0  0  0  0
  4 18  1  0  0  0  0
  5  6  2  0  0  0  0
  6  4  1  0  0  0  0
  7 16  1  0  0  0  0
  7 14  1  1  0  0  0
  8 12  1  6  0  0  0
  8  7  1  0  0  0  0
  9 15  1  6  0  0  0
  9 11  1  0  0  0  0
  9 17  1  0  0  0  0
 10  6  1  6  0  0  0
 10 16  1  0  0  0  0
 11 12  1  0  0  0  0
 13 10  1  0  0  0  0
 17 13  1  1  0  0  0
 17  8  1  0  0  0  0
 20 26  1  1  0  0  0
 20 25  1  0  0  0  0
 21 25  1  0  0  0  0
 22 19  1  0  0  0  0
 23 18  1  6  0  0  0
 23 21  1  0  0  0  0
 24 19  1  0  0  0  0
 24 28  1  1  0  0  0
 25 22  1  1  0  0  0
 26 24  1  0  0  0  0
 27 23  1  0  0  0  0
 27 20  1  0  0  0  0
 29 28  1  0  0  0  0
 30 29  1  0  0  0  0
 31 32  1  0  0  0  0
 32 30  1  0  0  0  0
M  END
>  <MODEL>
5

>  <REMARK>
 VINA RESULT:      -7.2      3.022      9.147
  Name = 
  7 active torsions:
  status: ('A' for Active; 'I' for Inactive)
    1  A    between atoms: N_3  and  C_14
    2  A    between atoms: N_3  and  C_15
    3  A    between atoms: C_10  and  C_20
    4  A    between atoms: C_10  and  S_24
    5  A    between atoms: C_16  and  C_26
    6  A    between atoms: C_17  and  C_20
    7  A    between atoms: C_19  and  S_24
                            x       y       z     vdW  Elec       q    Type
                         _______ _______ _______ _____ _____    ______ ____

>  <TORSDO>
F 7

$$$$
=
 OpenBabel11062410533D

 32 36  0  0  1  0  0  0  0  0999 V2000
  161.9200  211.4320  149.0540 C   0  0  0  0  0  3  0  0  0  0  0  0
  162.1210  210.2990  148.2690 C   0  0  0  0  0  3  0  0  0  0  0  0
  161.8360  211.3150  150.4420 C   0  0  0  0  0  3  0  0  0  0  0  0
  161.9460  210.0670  151.0670 C   0  0  0  0  0  0  0  0  0  0  0  0
  162.2420  209.0470  148.8730 C   0  0  0  0  0  3  0  0  0  0  0  0
  162.1620  208.9120  150.2690 C   0  0  0  0  0  0  0  0  0  0  0  0
  161.4820  205.9790  152.4430 C   0  0  2  0  0  3  0  0  0  0  0  0
  160.6680  205.1840  151.4160 C   0  0  2  0  0  3  0  0  0  0  0  0
  160.7140  204.4320  149.2190 C   0  0  2  0  0  3  0  0  0  0  0  0
  162.3550  207.5490  150.8650 C   0  0  2  0  0  3  0  0  0  0  0  0
  161.2930  203.3970  150.0610 N   0  0  0  0  0  2  0  0  0  0  0  0
  161.0870  203.7840  151.4020 N   0  0  0  0  0  2  0  0  0  0  0  0
  162.1430  206.4460  149.8110 C   0  0  0  0  0  2  0  0  0  0  0  0
  160.8550  205.8410  153.8160 C   0  0  0  0  0  1  0  0  0  0  0  0
  161.3860  204.4640  147.8540 C   0  0  0  0  0  1  0  0  0  0  0  0
  161.5200  207.3890  152.0620 N   0  0  0  0  0  2  0  0  0  0  0  0
  160.8000  205.7190  150.0010 C   0  0  2  0  0  3  0  0  0  0  0  0
  161.8440  210.0410  152.5000 N   0  0  0  0  0  2  0  0  0  0  0  0
  157.0970  211.1040  155.2550 C   0  0  0  0  0  2  0  0  0  0  0  0
  159.8080  210.6260  154.9770 C   0  0  2  0  0  3  0  0  0  0  0  0
  160.0320  211.5530  152.8700 N   0  0  0  0  0  2  0  0  0  0  0  0
  157.7710  211.5030  153.9180 C   0  0  0  0  0  2  0  0  0  0  0  0
  161.3460  211.1120  153.3510 C   0  0  1  0  0  3  0  0  0  0  0  0
  157.9460  211.4040  156.5180 C   0  0  1  0  0  3  0  0  0  0  0  0
  159.2730  211.6890  154.0890 C   0  0  1  0  0  3  0  0  0  0  0  0
  159.4190  210.9380  156.4180 C   0  0  0  0  0  2  0  0  0  0  0  0
  161.2320  210.6360  154.7380 N   0  0  0  0  0  2  0  0  0  0  0  0
  157.8880  213.1770  156.9110 S   0  0  0  0  0  0  0  0  0  0  0  0
  156.0770  213.1670  157.0090 C   0  0  0  0  0  2  0  0  0  0  0  0
  155.5370  214.4520  156.4160 C   0  0  0  0  0  2  0  0  0  0  0  0
  156.2690  214.4530  154.0960 N   0  0  0  0  0  1  0  0  0  0  0  0
  155.1300  214.2350  154.9710 C   0  0  0  0  0  2  0  0  0  0  0  0
  1  3  1  0  0  0  0
  2  5  1  0  0  0  0
  2  1  2  0  0  0  0
  3  4  2  0  0  0  0
  4 18  1  0  0  0  0
  5  6  2  0  0  0  0
  6  4  1  0  0  0  0
  7 14  1  1  0  0  0
  8 12  1  6  0  0  0
  8  7  1  0  0  0  0
  9 15  1  6  0  0  0
  9 17  1  0  0  0  0
  9 11  1  0  0  0  0
 10  6  1  6  0  0  0
 10 16  1  0  0  0  0
 11 12  1  0  0  0  0
 13 10  1  0  0  0  0
 16  7  1  0  0  0  0
 17 13  1  1  0  0  0
 17  8  1  0  0  0  0
 19 24  1  0  0  0  0
 20 26  1  1  0  0  0
 21 23  1  0  0  0  0
 21 25  1  0  0  0  0
 22 19  1  0  0  0  0
 23 18  1  6  0  0  0
 23 27  1  0  0  0  0
 24 28  1  6  0  0  0
 25 22  1  6  0  0  0
 25 20  1  0  0  0  0
 26 24  1  0  0  0  0
 27 20  1  0  0  0  0
 28 29  1  0  0  0  0
 30 29  1  0  0  0  0
 31 32  1  0  0  0  0
 32 30  1  0  0  0  0
M  END
>  <MODEL>
6

>  <REMARK>
 VINA RESULT:      -6.4      3.059      9.116
  Name = 
  7 active torsions:
  status: ('A' for Active; 'I' for Inactive)
    1  A    between atoms: N_3  and  C_14
    2  A    between atoms: N_3  and  C_15
    3  A    between atoms: C_10  and  C_20
    4  A    between atoms: C_10  and  S_24
    5  A    between atoms: C_16  and  C_26
    6  A    between atoms: C_17  and  C_20
    7  A    between atoms: C_19  and  S_24
                            x       y       z     vdW  Elec       q    Type
                         _______ _______ _______ _____ _____    ______ ____

>  <TORSDO>
F 7

$$$$
=
 OpenBabel11062410533D

 32 36  0  0  1  0  0  0  0  0999 V2000
  162.3250  211.3510  156.9480 C   0  0  0  0  0  3  0  0  0  0  0  0
  161.1960  212.1050  157.2610 C   0  0  0  0  0  3  0  0  0  0  0  0
  162.3900  210.6590  155.7370 C   0  0  0  0  0  3  0  0  0  0  0  0
  161.3290  210.7040  154.8250 C   0  0  0  0  0  0  0  0  0  0  0  0
  160.1320  212.1700  156.3600 C   0  0  0  0  0  3  0  0  0  0  0  0
  160.1830  211.4820  155.1370 C   0  0  0  0  0  0  0  0  0  0  0  0
  156.9490  212.7510  153.8230 C   0  0  2  0  0  3  0  0  0  0  0  0
  157.5380  213.8740  152.9630 C   0  0  2  0  0  3  0  0  0  0  0  0
  159.1620  214.3030  151.3590 C   0  0  2  0  0  3  0  0  0  0  0  0
  159.0330  211.6350  154.1860 C   0  0  2  0  0  3  0  0  0  0  0  0
  157.9270  213.9650  150.6700 N   0  0  0  0  0  2  0  0  0  0  0  0
  156.9090  213.8940  151.6440 N   0  0  0  0  0  2  0  0  0  0  0  0
  159.4870  212.2830  152.8640 C   0  0  0  0  0  2  0  0  0  0  0  0
  155.6810  213.2300  154.5010 C   0  0  0  0  0  1  0  0  0  0  0  0
  160.3740  213.8110  150.5810 C   0  0  0  0  0  1  0  0  0  0  0  0
  157.9190  212.3400  154.8340 N   0  0  0  0  0  2  0  0  0  0  0  0
  159.0370  213.7510  152.7580 C   0  0  2  0  0  3  0  0  0  0  0  0
  161.4820  209.9590  153.6060 N   0  0  0  0  0  2  0  0  0  0  0  0
  162.0290  205.9800  149.7180 C   0  0  0  0  0  2  0  0  0  0  0  0
  161.8890  207.0080  152.2830 C   0  0  2  0  0  3  0  0  0  0  0  0
  160.4810  208.7760  151.7890 N   0  0  0  0  0  2  0  0  0  0  0  0
  161.2120  207.2780  149.9350 C   0  0  0  0  0  2  0  0  0  0  0  0
  160.7520  208.7570  153.2300 C   0  0  1  0  0  3  0  0  0  0  0  0
  161.8650  204.9200  150.8380 C   0  0  1  0  0  3  0  0  0  0  0  0
  160.7780  207.4230  151.3880 C   0  0  1  0  0  3  0  0  0  0  0  0
  161.9960  205.4880  152.2720 C   0  0  0  0  0  2  0  0  0  0  0  0
  161.5450  207.5650  153.5690 N   0  0  0  0  0  2  0  0  0  0  0  0
  160.2740  204.0590  150.6620 S   0  0  0  0  0  0  0  0  0  0  0  0
  161.0050  202.4670  151.1340 C   0  0  0  0  0  2  0  0  0  0  0  0
  161.2220  201.6280  149.8910 C   0  0  0  0  0  2  0  0  0  0  0  0
  160.6970  201.4330  147.5230 N   0  0  0  0  0  1  0  0  0  0  0  0
  160.5700  202.2880  148.6910 C   0  0  0  0  0  2  0  0  0  0  0  0
  1  2  1  0  0  0  0
  3  1  2  0  0  0  0
  4  6  2  0  0  0  0
  4  3  1  0  0  0  0
  5  2  2  0  0  0  0
  6  5  1  0  0  0  0
  7 14  1  1  0  0  0
  7 16  1  0  0  0  0
  8 12  1  6  0  0  0
  8  7  1  0  0  0  0
  9 15  1  6  0  0  0
  9 17  1  0  0  0  0
 10 16  1  0  0  0  0
 10  6  1  1  0  0  0
 11  9  1  0  0  0  0
 11 12  1  0  0  0  0
 13 10  1  0  0  0  0
 17 13  1  6  0  0  0
 17  8  1  0  0  0  0
 18  4  1  0  0  0  0
 19 22  1  0  0  0  0
 19 24  1  0  0  0  0
 20 26  1  1  0  0  0
 20 27  1  0  0  0  0
 21 23  1  0  0  0  0
 23 27  1  0  0  0  0
 23 18  1  6  0  0  0
 24 28  1  1  0  0  0
 24 26  1  0  0  0  0
 25 22  1  6  0  0  0
 25 21  1  0  0  0  0
 25 20  1  0  0  0  0
 28 29  1  0  0  0  0
 30 29  1  0  0  0  0
 31 32  1  0  0  0  0
 32 30  1  0  0  0  0
M  END
>  <MODEL>
7

>  <REMARK>
 VINA RESULT:      -6.4      2.285      3.703
  Name = 
  7 active torsions:
  status: ('A' for Active; 'I' for Inactive)
    1  A    between atoms: N_3  and  C_14
    2  A    between atoms: N_3  and  C_15
    3  A    between atoms: C_10  and  C_20
    4  A    between atoms: C_10  and  S_24
    5  A    between atoms: C_16  and  C_26
    6  A    between atoms: C_17  and  C_20
    7  A    between atoms: C_19  and  S_24
                            x       y       z     vdW  Elec       q    Type
                         _______ _______ _______ _____ _____    ______ ____

>  <TORSDO>
F 7

$$$$
=
 OpenBabel11062410533D

 32 36  0  0  1  0  0  0  0  0999 V2000
  161.7990  209.1810  148.6130 C   0  0  0  0  0  3  0  0  0  0  0  0
  161.8710  208.1140  147.7200 C   0  0  0  0  0  3  0  0  0  0  0  0
  161.8040  208.9430  149.9880 C   0  0  0  0  0  3  0  0  0  0  0  0
  161.8770  207.6390  150.4930 C   0  0  0  0  0  0  0  0  0  0  0  0
  161.9540  206.8080  148.2030 C   0  0  0  0  0  3  0  0  0  0  0  0
  161.9620  206.5510  149.5830 C   0  0  0  0  0  0  0  0  0  0  0  0
  161.1460  203.4260  151.4160 C   0  0  2  0  0  3  0  0  0  0  0  0
  160.3630  202.7560  150.2800 C   0  0  2  0  0  3  0  0  0  0  0  0
  160.4880  202.2310  148.0220 C   0  0  2  0  0  3  0  0  0  0  0  0
  162.1090  205.1310  150.0430 C   0  0  2  0  0  3  0  0  0  0  0  0
  161.0150  201.1050  148.7740 N   0  0  0  0  0  2  0  0  0  0  0  0
  160.7600  201.3560  150.1390 N   0  0  0  0  0  2  0  0  0  0  0  0
  161.9230  204.1450  148.8740 C   0  0  0  0  0  2  0  0  0  0  0  0
  160.4600  203.1600  152.7410 C   0  0  0  0  0  1  0  0  0  0  0  0
  161.2160  202.3900  146.6950 C   0  0  0  0  0  1  0  0  0  0  0  0
  161.2220  204.8650  151.1830 N   0  0  0  0  0  2  0  0  0  0  0  0
  160.5620  203.4300  148.9340 C   0  0  2  0  0  3  0  0  0  0  0  0
  161.8740  207.4890  151.9210 N   0  0  0  0  0  2  0  0  0  0  0  0
  162.0930  209.8510  156.9830 C   0  0  0  0  0  2  0  0  0  0  0  0
  161.5830  209.7340  154.2660 C   0  0  2  0  0  3  0  0  0  0  0  0
  161.0960  207.4740  154.1800 N   0  0  0  0  0  2  0  0  0  0  0  0
  161.7580  208.4690  156.3670 C   0  0  0  0  0  2  0  0  0  0  0  0
  160.9110  208.0650  152.8490 C   0  0  1  0  0  3  0  0  0  0  0  0
  161.2470  211.0260  156.4260 C   0  0  1  0  0  3  0  0  0  0  0  0
  161.0010  208.6180  155.0540 C   0  0  1  0  0  3  0  0  0  0  0  0
  161.1470  211.0590  154.8820 C   0  0  0  0  0  2  0  0  0  0  0  0
  161.0980  209.5220  152.9230 N   0  0  0  0  0  2  0  0  0  0  0  0
  159.5800  211.0030  157.1500 S   0  0  0  0  0  0  0  0  0  0  0  0
  158.8430  211.7030  155.6480 C   0  0  0  0  0  2  0  0  0  0  0  0
  157.5140  211.0260  155.3810 C   0  0  0  0  0  2  0  0  0  0  0  0
  156.8350  213.1050  154.3160 N   0  0  0  0  0  1  0  0  0  0  0  0
  156.4150  212.0610  155.2350 C   0  0  0  0  0  2  0  0  0  0  0  0
  1  3  1  0  0  0  0
  2  5  1  0  0  0  0
  2  1  2  0  0  0  0
  3  4  2  0  0  0  0
  4 18  1  0  0  0  0
  5  6  2  0  0  0  0
  6  4  1  0  0  0  0
  7 14  1  1  0  0  0
  8 12  1  6  0  0  0
  8  7  1  0  0  0  0
  9 15  1  6  0  0  0
  9 11  1  0  0  0  0
  9 17  1  0  0  0  0
 10  6  1  6  0  0  0
 10 16  1  0  0  0  0
 11 12  1  0  0  0  0
 13 10  1  0  0  0  0
 16  7  1  0  0  0  0
 17 13  1  1  0  0  0
 17  8  1  0  0  0  0
 20 26  1  1  0  0  0
 20 25  1  0  0  0  0
 21 25  1  0  0  0  0
 22 19  1  0  0  0  0
 23 18  1  6  0  0  0
 23 27  1  0  0  0  0
 23 21  1  0  0  0  0
 24 19  1  0  0  0  0
 24 28  1  1  0  0  0
 25 22  1  1  0  0  0
 26 24  1  0  0  0  0
 27 20  1  0  0  0  0
 29 28  1  0  0  0  0
 30 29  1  0  0  0  0
 31 32  1  0  0  0  0
 32 30  1  0  0  0  0
M  END
>  <MODEL>
8

>  <REMARK>
 VINA RESULT:      -6.4      3.146      9.296
  Name = 
  7 active torsions:
  status: ('A' for Active; 'I' for Inactive)
    1  A    between atoms: N_3  and  C_14
    2  A    between atoms: N_3  and  C_15
    3  A    between atoms: C_10  and  C_20
    4  A    between atoms: C_10  and  S_24
    5  A    between atoms: C_16  and  C_26
    6  A    between atoms: C_17  and  C_20
    7  A    between atoms: C_19  and  S_24
                            x       y       z     vdW  Elec       q    Type
                         _______ _______ _______ _____ _____    ______ ____

>  <TORSDO>
F 7

$$$$
=
 OpenBabel11062410533D

 32 36  0  0  1  0  0  0  0  0999 V2000
  160.8660  206.1650  144.4530 C   0  0  0  0  0  3  0  0  0  0  0  0
  160.6880  204.7880  144.5710 C   0  0  0  0  0  3  0  0  0  0  0  0
  161.3420  206.9030  145.5380 C   0  0  0  0  0  3  0  0  0  0  0  0
  161.6410  206.2820  146.7560 C   0  0  0  0  0  0  0  0  0  0  0  0
  160.9900  204.1490  145.7740 C   0  0  0  0  0  3  0  0  0  0  0  0
  161.4710  204.8770  146.8740 C   0  0  0  0  0  0  0  0  0  0  0  0
  161.1020  203.5750  150.3330 C   0  0  2  0  0  3  0  0  0  0  0  0
  160.4930  202.2220  149.9470 C   0  0  2  0  0  3  0  0  0  0  0  0
  160.8060  200.3990  148.5430 C   0  0  2  0  0  3  0  0  0  0  0  0
  161.8300  204.1270  148.1230 C   0  0  2  0  0  3  0  0  0  0  0  0
  161.4780  200.1180  149.8010 N   0  0  0  0  0  2  0  0  0  0  0  0
  161.1230  201.1420  150.7040 N   0  0  0  0  0  2  0  0  0  0  0  0
  161.8640  202.6080  147.8690 C   0  0  0  0  0  2  0  0  0  0  0  0
  160.4120  204.1180  151.5680 C   0  0  0  0  0  1  0  0  0  0  0  0
  161.5570  199.7820  147.3720 C   0  0  0  0  0  1  0  0  0  0  0  0
  160.9490  204.5200  149.2300 N   0  0  0  0  0  2  0  0  0  0  0  0
  160.6380  201.8970  148.4710 C   0  0  2  0  0  3  0  0  0  0  0  0
  162.1220  207.1210  147.8180 N   0  0  0  0  0  2  0  0  0  0  0  0
  161.7590  208.4510  153.2360 C   0  0  0  0  0  2  0  0  0  0  0  0
  162.2190  208.9040  150.5450 C   0  0  2  0  0  3  0  0  0  0  0  0
  160.7270  207.3260  149.7470 N   0  0  0  0  0  2  0  0  0  0  0  0
  161.0100  207.5610  152.2120 C   0  0  0  0  0  2  0  0  0  0  0  0
  161.3290  208.0440  148.6180 C   0  0  1  0  0  3  0  0  0  0  0  0
  161.8650  209.9450  152.8340 C   0  0  1  0  0  3  0  0  0  0  0  0
  160.9280  208.2350  150.8480 C   0  0  1  0  0  3  0  0  0  0  0  0
  162.3260  210.1780  151.3750 C   0  0  0  0  0  2  0  0  0  0  0  0
  162.1830  209.1310  149.1200 N   0  0  0  0  0  2  0  0  0  0  0  0
  160.2810  210.7890  153.1190 S   0  0  0  0  0  0  0  0  0  0  0  0
  160.1820  210.1750  154.8240 C   0  0  0  0  0  2  0  0  0  0  0  0
  160.9520  211.1080  155.7360 C   0  0  0  0  0  2  0  0  0  0  0  0
  163.3310  210.7810  156.1260 N   0  0  0  0  0  1  0  0  0  0  0  0
  162.0030  210.3370  156.5120 C   0  0  0  0  0  2  0  0  0  0  0  0
  1  2  2  0  0  0  0
  1  3  1  0  0  0  0
  2  5  1  0  0  0  0
  3  4  2  0  0  0  0
  4  6  1  0  0  0  0
  4 18  1  0  0  0  0
  5  6  2  0  0  0  0
  7 14  1  1  0  0  0
  8  7  1  0  0  0  0
  8 12  1  1  0  0  0
  9 15  1  6  0  0  0
  9 11  1  0  0  0  0
 10  6  1  6  0  0  0
 10 16  1  0  0  0  0
 11 12  1  0  0  0  0
 13 10  1  0  0  0  0
 16  7  1  0  0  0  0
 17 13  1  1  0  0  0
 17  9  1  0  0  0  0
 17  8  1  0  0  0  0
 20 25  1  0  0  0  0
 20 26  1  1  0  0  0
 21 25  1  0  0  0  0
 22 19  1  0  0  0  0
 23 18  1  1  0  0  0
 23 27  1  0  0  0  0
 23 21  1  0  0  0  0
 24 28  1  6  0  0  0
 24 19  1  0  0  0  0
 25 22  1  1  0  0  0
 26 24  1  0  0  0  0
 27 20  1  0  0  0  0
 28 29  1  0  0  0  0
 29 30  1  0  0  0  0
 30 32  1  0  0  0  0
 31 32  1  0  0  0  0
M  END
>  <MODEL>
9

>  <REMARK>
 VINA RESULT:      -6.2      3.328      9.683
  Name = 
  7 active torsions:
  status: ('A' for Active; 'I' for Inactive)
    1  A    between atoms: N_3  and  C_14
    2  A    between atoms: N_3  and  C_15
    3  A    between atoms: C_10  and  C_20
    4  A    between atoms: C_10  and  S_24
    5  A    between atoms: C_16  and  C_26
    6  A    between atoms: C_17  and  C_20
    7  A    between atoms: C_19  and  S_24
                            x       y       z     vdW  Elec       q    Type
                         _______ _______ _______ _____ _____    ______ ____

>  <TORSDO>
F 7

$$$$
