=
 OpenBabel11052422543D

 28 34  0  0  1  0  0  0  0  0999 V2000
  161.6650  203.9740  147.6530 C   0  0  2  0  0  3  0  0  0  0  0  0
  161.9730  202.9390  148.7560 C   0  0  1  0  0  3  0  0  0  0  0  0
  161.3170  204.4600  150.5070 C   0  0  2  0  0  3  0  0  0  0  0  0
  160.9360  208.5320  151.9730 C   0  0  0  0  0  2  0  0  0  0  0  0
  160.1400  205.7440  145.2390 C   0  0  0  0  0  1  0  0  0  0  0  0
  160.7210  200.6390  148.6330 C   0  0  1  0  0  3  0  0  0  0  0  0
  161.1380  203.1080  149.9520 N   0  0  1  0  0  0  0  0  0  0  0  0
  160.8470  201.2050  147.2360 C   0  0  0  0  0  2  0  0  0  0  0  0
  161.4290  205.9330  153.6630 C   0  0  0  0  0  2  0  0  0  0  0  0
  160.8380  206.9710  149.9900 C   0  0  2  0  0  3  0  0  0  0  0  0
  161.9580  201.4760  148.2470 C   0  0  1  0  0  3  0  0  0  0  0  0
  161.1640  208.2980  154.4530 C   0  0  0  0  0  0  0  0  0  0  0  0
  161.2600  207.1300  151.4580 C   0  0  2  0  0  3  0  0  0  0  0  0
  160.4400  204.6850  151.7420 C   0  0  0  0  0  2  0  0  0  0  0  0
  161.0200  206.9810  154.6580 C   0  0  0  0  0  3  0  0  0  0  0  0
  161.3570  206.4330  147.2420 N   0  0  0  0  0  0  0  0  0  0  0  0
  161.1330  205.5690  149.4940 C   0  0  0  0  0  0  0  0  0  0  0  0
  160.6230  206.0680  152.3790 C   0  0  1  0  0  3  0  0  0  0  0  0
  162.5280  205.0550  145.5160 C   0  0  0  0  0  2  0  0  0  0  0  0
  161.1250  207.8130  147.6640 C   0  0  0  0  0  2  0  0  0  0  0  0
  161.4860  206.1540  145.8110 C   0  0  1  0  0  3  0  0  0  0  0  0
  159.5760  201.3380  149.3940 C   0  0  0  0  0  2  0  0  0  0  0  0
  160.7650  209.1580  155.4250 F   0  0  0  0  0  0  0  0  0  0  0  0
  161.7740  208.8610  153.2020 C   0  0  0  0  0  2  0  0  0  0  0  0
  161.5520  208.0030  149.1130 C   0  0  0  0  0  2  0  0  0  0  0  0
  162.8360  204.1040  146.6850 C   0  0  0  0  0  2  0  0  0  0  0  0
  161.3510  205.3440  148.1850 C   0  0  0  0  0  0  0  0  0  0  0  0
  159.7500  202.8380  149.5880 C   0  0  0  0  0  2  0  0  0  0  0  0
  1 26  1  6  0  0  0
  1 27  1  0  0  0  0
  1  2  1  0  0  0  0
  2  7  1  0  0  0  0
  3 14  1  0  0  0  0
  4 24  1  0  0  0  0
  5 21  1  0  0  0  0
  6 22  1  0  0  0  0
  7  3  1  0  0  0  0
  8 11  1  0  0  0  0
  8  6  1  0  0  0  0
  9 15  1  0  0  0  0
 10 13  1  0  0  0  0
 11  6  1  0  0  0  0
 11  2  1  0  0  0  0
 12 15  2  0  0  0  0
 12 23  1  0  0  0  0
 13  4  1  0  0  0  0
 13 18  1  0  0  0  0
 14 18  1  0  0  0  0
 16 20  1  0  0  0  0
 16 27  1  0  0  0  0
 17 10  1  0  0  0  0
 17  3  1  0  0  0  0
 18  9  1  0  0  0  0
 19 21  1  0  0  0  0
 19 26  1  0  0  0  0
 20 25  1  0  0  0  0
 21 16  1  0  0  0  0
 22 28  1  0  0  0  0
 24 12  1  0  0  0  0
 25 10  1  0  0  0  0
 27 17  2  0  0  0  0
 28  7  1  0  0  0  0
M  END
>  <MODEL>
1

>  <REMARK>
 VINA RESULT:      -8.7      0.000      0.000
  Name = 
  0 active torsions:
  status: ('A' for Active; 'I' for Inactive)
                            x       y       z     vdW  Elec       q    Type
                         _______ _______ _______ _____ _____    ______ ____

>  <TORSDO>
F 0

$$$$
=
 OpenBabel11052422543D

 28 34  0  0  1  0  0  0  0  0999 V2000
  160.8730  203.4290  147.9430 C   0  0  2  0  0  3  0  0  0  0  0  0
  160.5930  204.7730  147.2380 C   0  0  1  0  0  3  0  0  0  0  0  0
  161.1890  206.0410  149.2000 C   0  0  2  0  0  3  0  0  0  0  0  0
  161.4280  206.3420  153.5270 C   0  0  0  0  0  2  0  0  0  0  0  0
  162.3550  200.6200  149.0390 C   0  0  0  0  0  1  0  0  0  0  0  0
  161.9210  205.2770  145.0350 C   0  0  1  0  0  3  0  0  0  0  0  0
  161.4150  205.8750  147.7540 N   0  0  1  0  0  0  0  0  0  0  0  0
  161.7840  203.7800  145.1940 C   0  0  0  0  0  2  0  0  0  0  0  0
  161.0090  208.6770  151.4720 C   0  0  0  0  0  2  0  0  0  0  0  0
  161.5880  204.8580  151.4890 C   0  0  2  0  0  3  0  0  0  0  0  0
  160.6590  204.6810  145.6930 C   0  0  1  0  0  3  0  0  0  0  0  0
  161.1920  208.7920  153.9690 C   0  0  0  0  0  0  0  0  0  0  0  0
  161.1520  206.2290  152.0280 C   0  0  2  0  0  3  0  0  0  0  0  0
  162.0500  207.1650  149.7810 C   0  0  0  0  0  2  0  0  0  0  0  0
  161.3770  209.3480  152.7640 C   0  0  0  0  0  3  0  0  0  0  0  0
  161.1040  202.3620  150.2060 N   0  0  0  0  0  0  0  0  0  0  0  0
  161.3430  204.7640  149.9960 C   0  0  0  0  0  0  0  0  0  0  0  0
  161.8180  207.4030  151.2790 C   0  0  1  0  0  3  0  0  0  0  0  0
  159.9890  201.0810  148.3730 C   0  0  0  0  0  2  0  0  0  0  0  0
  161.2880  202.3920  151.6560 C   0  0  0  0  0  2  0  0  0  0  0  0
  160.9930  201.0620  149.5430 C   0  0  1  0  0  3  0  0  0  0  0  0
  163.0370  205.8150  145.9520 C   0  0  0  0  0  2  0  0  0  0  0  0
  161.5570  209.4920  155.0740 F   0  0  0  0  0  0  0  0  0  0  0  0
  160.5710  207.4370  154.1500 C   0  0  0  0  0  2  0  0  0  0  0  0
  160.8460  203.7360  152.2190 C   0  0  0  0  0  2  0  0  0  0  0  0
  159.7050  202.4660  147.7660 C   0  0  0  0  0  2  0  0  0  0  0  0
  161.1390  203.5660  149.4160 C   0  0  0  0  0  0  0  0  0  0  0  0
  162.8130  205.5950  147.4410 C   0  0  0  0  0  2  0  0  0  0  0  0
  1 26  1  1  0  0  0
  1 27  1  0  0  0  0
  2  7  1  0  0  0  0
  2  1  1  0  0  0  0
  3 14  1  0  0  0  0
  3 17  1  0  0  0  0
  4 24  1  0  0  0  0
  5 21  1  0  0  0  0
  6  8  1  0  0  0  0
  6 11  1  0  0  0  0
  6 22  1  0  0  0  0
  7  3  1  0  0  0  0
  8 11  1  0  0  0  0
  9 15  1  0  0  0  0
 10 13  1  0  0  0  0
 10 25  1  0  0  0  0
 11  2  1  0  0  0  0
 12 24  1  0  0  0  0
 12 23  1  0  0  0  0
 13  4  1  0  0  0  0
 14 18  1  0  0  0  0
 15 12  2  0  0  0  0
 16 20  1  0  0  0  0
 17 10  1  0  0  0  0
 18  9  1  0  0  0  0
 18 13  1  0  0  0  0
 19 21  1  0  0  0  0
 20 25  1  0  0  0  0
 21 16  1  0  0  0  0
 22 28  1  0  0  0  0
 26 19  1  0  0  0  0
 27 17  2  0  0  0  0
 27 16  1  0  0  0  0
 28  7  1  0  0  0  0
M  END
>  <MODEL>
2

>  <REMARK>
 VINA RESULT:      -7.0      1.110      4.017
  Name = 
  0 active torsions:
  status: ('A' for Active; 'I' for Inactive)
                            x       y       z     vdW  Elec       q    Type
                         _______ _______ _______ _____ _____    ______ ____

>  <TORSDO>
F 0

$$$$
=
 OpenBabel11052422543D

 28 34  0  0  1  0  0  0  0  0999 V2000
  160.9170  205.0930  149.9780 C   0  0  2  0  0  3  0  0  0  0  0  0
  160.5330  206.2190  148.9950 C   0  0  1  0  0  3  0  0  0  0  0  0
  160.8750  207.9280  150.6610 C   0  0  2  0  0  3  0  0  0  0  0  0
  160.8330  209.1450  154.8310 C   0  0  0  0  0  2  0  0  0  0  0  0
  162.6300  202.7670  151.6940 C   0  0  0  0  0  1  0  0  0  0  0  0
  161.9220  206.4080  146.7800 C   0  0  1  0  0  3  0  0  0  0  0  0
  161.2000  207.4930  149.2920 N   0  0  1  0  0  0  0  0  0  0  0  0
  161.9400  204.9710  147.2490 C   0  0  0  0  0  2  0  0  0  0  0  0
  160.2820  210.9370  152.3140 C   0  0  0  0  0  2  0  0  0  0  0  0
  161.2690  207.3000  153.1620 C   0  0  2  0  0  3  0  0  0  0  0  0
  160.6970  205.8170  147.5080 C   0  0  1  0  0  3  0  0  0  0  0  0
  160.3080  211.5880  154.7350 C   0  0  0  0  0  0  0  0  0  0  0  0
  160.6570  208.6920  153.3820 C   0  0  2  0  0  3  0  0  0  0  0  0
  161.5750  209.2410  151.0180 C   0  0  0  0  0  2  0  0  0  0  0  0
  160.5010  211.9000  153.4460 C   0  0  0  0  0  3  0  0  0  0  0  0
  161.1320  204.5530  152.4230 N   0  0  0  0  0  0  0  0  0  0  0  0
  161.1210  206.8710  151.7150 C   0  0  0  0  0  0  0  0  0  0  0  0
  161.2340  209.7550  152.4230 C   0  0  1  0  0  3  0  0  0  0  0  0
  160.2700  202.7970  150.8680 C   0  0  0  0  0  2  0  0  0  0  0  0
  161.2290  204.9050  153.8390 C   0  0  0  0  0  2  0  0  0  0  0  0
  161.2010  203.1400  152.0480 C   0  0  1  0  0  3  0  0  0  0  0  0
  162.9190  207.2530  147.5980 C   0  0  0  0  0  2  0  0  0  0  0  0
  160.5310  212.5400  155.6770 F   0  0  0  0  0  0  0  0  0  0  0  0
  159.8290  210.2360  155.1790 C   0  0  0  0  0  2  0  0  0  0  0  0
  160.6130  206.2740  154.0880 C   0  0  0  0  0  2  0  0  0  0  0  0
  159.8720  203.9830  149.9720 C   0  0  0  0  0  2  0  0  0  0  0  0
  161.0820  205.5630  151.3960 C   0  0  0  0  0  0  0  0  0  0  0  0
  162.6360  207.3210  149.0920 C   0  0  0  0  0  2  0  0  0  0  0  0
  1 26  1  1  0  0  0
  1 27  1  0  0  0  0
  2  7  1  0  0  0  0
  2  1  1  0  0  0  0
  3 14  1  0  0  0  0
  3 17  1  0  0  0  0
  4 24  1  0  0  0  0
  5 21  1  0  0  0  0
  6  8  1  0  0  0  0
  6 11  1  0  0  0  0
  6 22  1  0  0  0  0
  7  3  1  0  0  0  0
  8 11  1  0  0  0  0
  9 18  1  0  0  0  0
  9 15  1  0  0  0  0
 10 13  1  0  0  0  0
 10 25  1  0  0  0  0
 11  2  1  0  0  0  0
 12 24  1  0  0  0  0
 12 23  1  0  0  0  0
 13  4  1  0  0  0  0
 14 18  1  0  0  0  0
 15 12  2  0  0  0  0
 16 20  1  0  0  0  0
 17 10  1  0  0  0  0
 18 13  1  0  0  0  0
 19 21  1  0  0  0  0
 20 25  1  0  0  0  0
 21 16  1  0  0  0  0
 22 28  1  0  0  0  0
 26 19  1  0  0  0  0
 27 17  2  0  0  0  0
 27 16  1  0  0  0  0
 28  7  1  0  0  0  0
M  END
>  <MODEL>
3

>  <REMARK>
 VINA RESULT:      -6.8      1.939      4.779
  Name = 
  0 active torsions:
  status: ('A' for Active; 'I' for Inactive)
                            x       y       z     vdW  Elec       q    Type
                         _______ _______ _______ _____ _____    ______ ____

>  <TORSDO>
F 0

$$$$
=
 OpenBabel11052422543D

 28 34  0  0  1  0  0  0  0  0999 V2000
  160.7910  208.8940  152.9860 C   0  0  2  0  0  3  0  0  0  0  0  0
  160.0560  207.9640  153.9750 C   0  0  1  0  0  3  0  0  0  0  0  0
  160.6600  205.9930  152.7250 C   0  0  2  0  0  3  0  0  0  0  0  0
  161.6010  204.1220  148.9190 C   0  0  0  0  0  2  0  0  0  0  0  0
  163.1080  210.8180  151.4970 C   0  0  0  0  0  1  0  0  0  0  0  0
  160.7880  208.0600  156.4900 C   0  0  1  0  0  3  0  0  0  0  0  0
  160.6530  206.6240  154.0550 N   0  0  1  0  0  0  0  0  0  0  0  0
  161.0660  209.4000  155.8460 C   0  0  0  0  0  2  0  0  0  0  0  0
  160.2390  202.7920  151.4140 C   0  0  0  0  0  2  0  0  0  0  0  0
  161.7570  206.1860  150.3670 C   0  0  2  0  0  3  0  0  0  0  0  0
  159.8600  208.5910  155.3770 C   0  0  1  0  0  3  0  0  0  0  0  0
  160.8390  201.7580  149.2100 C   0  0  0  0  0  0  0  0  0  0  0  0
  161.0940  204.8120  150.1850 C   0  0  2  0  0  3  0  0  0  0  0  0
  161.3010  204.6030  152.7630 C   0  0  0  0  0  2  0  0  0  0  0  0
  160.6550  201.6490  150.5340 C   0  0  0  0  0  3  0  0  0  0  0  0
  161.6920  209.0200  150.6440 N   0  0  0  0  0  0  0  0  0  0  0  0
  161.2740  206.8510  151.6410 C   0  0  0  0  0  0  0  0  0  0  0  0
  161.2940  203.8880  151.4050 C   0  0  1  0  0  3  0  0  0  0  0  0
  160.6220  211.0470  151.6390 C   0  0  0  0  0  2  0  0  0  0  0  0
  162.1240  208.4390  149.3740 C   0  0  0  0  0  2  0  0  0  0  0  0
  161.7940  210.4690  150.8200 C   0  0  1  0  0  3  0  0  0  0  0  0
  161.8800  207.0430  156.1050 C   0  0  0  0  0  2  0  0  0  0  0  0
  161.2110  200.6560  148.5090 F   0  0  0  0  0  0  0  0  0  0  0  0
  160.6250  203.0440  148.4660 C   0  0  0  0  0  2  0  0  0  0  0  0
  161.4680  207.0820  149.1600 C   0  0  0  0  0  2  0  0  0  0  0  0
  159.8920  210.0450  152.5490 C   0  0  0  0  0  2  0  0  0  0  0  0
  161.2780  208.1930  151.7490 C   0  0  0  0  0  0  0  0  0  0  0  0
  161.9960  206.7500  154.6150 C   0  0  0  0  0  2  0  0  0  0  0  0
  1 26  1  6  0  0  0
  1  2  1  0  0  0  0
  2  7  1  0  0  0  0
  2 11  1  0  0  0  0
  3 14  1  0  0  0  0
  3  7  1  0  0  0  0
  4 13  1  0  0  0  0
  7 28  1  0  0  0  0
  8  6  1  0  0  0  0
 10 17  1  0  0  0  0
 11  8  1  0  0  0  0
 11  6  1  0  0  0  0
 12 15  2  0  0  0  0
 13 10  1  0  0  0  0
 13 18  1  0  0  0  0
 15  9  1  0  0  0  0
 16 21  1  0  0  0  0
 16 27  1  0  0  0  0
 17 27  2  0  0  0  0
 17  3  1  0  0  0  0
 18  9  1  0  0  0  0
 18 14  1  0  0  0  0
 19 26  1  0  0  0  0
 20 16  1  0  0  0  0
 21  5  1  0  0  0  0
 21 19  1  0  0  0  0
 22  6  1  0  0  0  0
 23 12  1  0  0  0  0
 24  4  1  0  0  0  0
 24 12  1  0  0  0  0
 25 20  1  0  0  0  0
 25 10  1  0  0  0  0
 27  1  1  0  0  0  0
 28 22  1  0  0  0  0
M  END
>  <MODEL>
4

>  <REMARK>
 VINA RESULT:      -5.7      2.977      6.863
  Name = 
  0 active torsions:
  status: ('A' for Active; 'I' for Inactive)
                            x       y       z     vdW  Elec       q    Type
                         _______ _______ _______ _____ _____    ______ ____

>  <TORSDO>
F 0

$$$$
