=
 OpenBabel11062407423D

 34 39  0  0  1  0  0  0  0  0999 V2000
  159.9480  213.2580  150.0930 C   0  0  1  0  0  3  0  0  0  0  0  0
  161.9060  211.9400  149.6190 C   0  0  1  0  0  3  0  0  0  0  0  0
  160.3950  211.3420  151.6900 C   0  0  0  0  0  0  0  0  0  0  0  0
  160.5460  209.5400  153.3120 C   0  0  0  0  0  0  0  0  0  0  0  0
  160.8600  213.1920  147.8020 C   0  0  0  0  0  3  0  0  0  0  0  0
  161.8230  212.4250  148.2310 N   0  0  0  0  0  0  0  0  0  0  0  0
  161.0530  208.9330  151.2480 C   0  0  0  0  0  3  0  0  0  0  0  0
  160.4910  211.8360  150.2410 C   0  0  1  0  0  3  0  0  0  0  0  0
  160.8580  208.2010  153.3310 C   0  0  0  0  0  3  0  0  0  0  0  0
  159.8040  213.5880  148.6850 N   0  0  0  0  0  2  0  0  0  0  0  0
  159.7880  212.1440  152.7120 C   0  0  0  0  0  0  0  0  0  0  0  0
  158.6980  213.4980  150.8970 C   0  0  0  0  0  2  0  0  0  0  0  0
  162.7160  210.6620  149.6350 C   0  0  0  0  0  1  0  0  0  0  0  0
  160.0840  210.3380  154.3440 C   0  0  0  0  0  3  0  0  0  0  0  0
  159.7070  211.6630  154.0580 C   0  0  0  0  0  0  0  0  0  0  0  0
  161.1680  207.8590  152.0590 N   0  0  0  0  0  0  0  0  0  0  0  0
  160.6830  210.0090  152.0310 C   0  0  0  0  0  0  0  0  0  0  0  0
  159.1360  213.4600  152.3530 C   0  0  0  0  0  2  0  0  0  0  0  0
  157.3510  213.3990  156.4790 C   0  0  0  0  0  0  0  0  0  0  0  0
  158.2500  214.1280  157.2610 C   0  0  0  0  0  3  0  0  0  0  0  0
  159.1990  212.4940  155.1790 C   0  0  0  0  0  0  0  0  0  0  0  0
  159.6200  214.0510  157.0030 C   0  0  0  0  0  3  0  0  0  0  0  0
  157.8220  212.5910  155.4410 C   0  0  0  0  0  3  0  0  0  0  0  0
  160.0910  213.2420  155.9650 C   0  0  0  0  0  3  0  0  0  0  0  0
  156.0220  213.4790  156.7250 F   0  0  0  0  0  0  0  0  0  0  0  0
  160.8570  205.9390  150.7170 C   0  0  0  0  0  3  0  0  0  0  0  0
  161.5380  206.5790  151.6130 N   0  0  0  0  0  0  0  0  0  0  0  0
  160.7440  203.5950  152.3780 F   0  0  0  0  0  0  0  0  0  0  0  0
  161.2840  204.5820  150.2690 C   0  0  1  0  0  3  0  0  0  0  0  0
  160.4920  203.5090  151.0210 C   0  0  1  0  0  3  0  0  0  0  0  0
  160.6510  201.9950  149.0280 C   0  0  0  0  0  2  0  0  0  0  0  0
  161.4630  203.0530  148.2880 C   0  0  0  0  0  2  0  0  0  0  0  0
  161.0610  204.4460  148.7610 C   0  0  0  0  0  2  0  0  0  0  0  0
  160.8830  202.1160  150.5320 C   0  0  0  0  0  2  0  0  0  0  0  0
  1  8  1  0  0  0  0
  1 12  1  1  0  0  0
  2 13  1  6  0  0  0
  2  8  1  0  0  0  0
  3 17  1  0  0  0  0
  3 11  2  0  0  0  0
  4  9  2  0  0  0  0
  4 14  1  0  0  0  0
  5  6  2  0  0  0  0
  5 10  1  0  0  0  0
  6  2  1  0  0  0  0
  7 17  2  0  0  0  0
  7 16  1  0  0  0  0
  8  3  1  1  0  0  0
 10  1  1  0  0  0  0
 11 15  1  0  0  0  0
 12 18  1  0  0  0  0
 15 14  2  0  0  0  0
 15 21  1  0  0  0  0
 16  9  1  0  0  0  0
 17  4  1  0  0  0  0
 18 11  1  0  0  0  0
 19 25  1  0  0  0  0
 19 20  1  0  0  0  0
 21 23  1  0  0  0  0
 21 24  2  0  0  0  0
 22 20  2  0  0  0  0
 23 19  2  0  0  0  0
 24 22  1  0  0  0  0
 26 27  2  0  0  0  0
 27 16  1  0  0  0  0
 29 26  1  1  0  0  0
 29 30  1  0  0  0  0
 30 28  1  1  0  0  0
 31 34  1  0  0  0  0
 32 33  1  0  0  0  0
 32 31  1  0  0  0  0
 33 29  1  0  0  0  0
 34 30  1  0  0  0  0
M  END
>  <MODEL>
1

>  <REMARK>
 VINA RESULT:      -7.1      0.000      0.000
  Name = 
  3 active torsions:
  status: ('A' for Active; 'I' for Inactive)
    1  A    between atoms: C_3  and  C_13
    2  A    between atoms: C_12  and  C_28
    3  A    between atoms: N_17  and  N_29
                            x       y       z     vdW  Elec       q    Type
                         _______ _______ _______ _____ _____    ______ ____

>  <TORSDO>
F 3

$$$$
=
 OpenBabel11062407423D

 34 39  0  0  1  0  0  0  0  0999 V2000
  160.2620  213.5450  150.1440 C   0  0  1  0  0  3  0  0  0  0  0  0
  162.0820  212.7290  148.7970 C   0  0  1  0  0  3  0  0  0  0  0  0
  161.1070  211.2280  150.7280 C   0  0  0  0  0  0  0  0  0  0  0  0
  161.6680  208.9740  151.4390 C   0  0  0  0  0  0  0  0  0  0  0  0
  160.6170  214.4530  147.8790 C   0  0  0  0  0  3  0  0  0  0  0  0
  161.6690  213.6910  147.7620 N   0  0  0  0  0  0  0  0  0  0  0  0
  161.6930  209.2540  149.2470 C   0  0  0  0  0  3  0  0  0  0  0  0
  160.8540  212.2420  149.6050 C   0  0  1  0  0  3  0  0  0  0  0  0
  162.0030  207.7700  150.8640 C   0  0  0  0  0  3  0  0  0  0  0  0
  159.7880  214.3660  149.0440 N   0  0  0  0  0  2  0  0  0  0  0  0
  160.7380  211.5110  152.0840 C   0  0  0  0  0  0  0  0  0  0  0  0
  159.2290  213.3240  151.2170 C   0  0  0  0  0  2  0  0  0  0  0  0
  162.9000  211.6370  148.1400 C   0  0  0  0  0  1  0  0  0  0  0  0
  161.4430  209.2650  152.7730 C   0  0  0  0  0  3  0  0  0  0  0  0
  160.9830  210.5500  153.1170 C   0  0  0  0  0  0  0  0  0  0  0  0
  162.0150  207.9730  149.5260 N   0  0  0  0  0  0  0  0  0  0  0  0
  161.4940  209.9060  150.4480 C   0  0  0  0  0  0  0  0  0  0  0  0
  159.9940  212.7840  152.4160 C   0  0  0  0  0  2  0  0  0  0  0  0
  159.1980  211.2360  156.3990 C   0  0  0  0  0  0  0  0  0  0  0  0
  160.2780  211.4390  157.2610 C   0  0  0  0  0  3  0  0  0  0  0  0
  160.7330  210.8330  154.5530 C   0  0  0  0  0  0  0  0  0  0  0  0
  161.5840  211.3490  156.7750 C   0  0  0  0  0  3  0  0  0  0  0  0
  159.4240  210.9400  155.0520 C   0  0  0  0  0  3  0  0  0  0  0  0
  161.8100  211.0510  155.4280 C   0  0  0  0  0  3  0  0  0  0  0  0
  157.9310  211.3300  156.8680 F   0  0  0  0  0  0  0  0  0  0  0  0
  161.3610  206.3720  147.9160 C   0  0  0  0  0  3  0  0  0  0  0  0
  162.2970  207.0070  148.5460 N   0  0  0  0  0  0  0  0  0  0  0  0
  161.7860  203.5860  148.4880 F   0  0  0  0  0  0  0  0  0  0  0  0
  161.7020  205.3540  146.8810 C   0  0  1  0  0  3  0  0  0  0  0  0
  161.1820  203.9780  147.3080 C   0  0  1  0  0  3  0  0  0  0  0  0
  160.8560  203.3560  144.9000 C   0  0  0  0  0  2  0  0  0  0  0  0
  161.3990  204.7150  144.4730 C   0  0  0  0  0  2  0  0  0  0  0  0
  161.0870  205.7600  145.5400 C   0  0  0  0  0  2  0  0  0  0  0  0
  161.4790  202.9380  146.2290 C   0  0  0  0  0  2  0  0  0  0  0  0
  1 12  1  1  0  0  0
  2 13  1  6  0  0  0
  2  8  1  0  0  0  0
  3 11  2  0  0  0  0
  4 14  1  0  0  0  0
  5 10  1  0  0  0  0
  6  5  2  0  0  0  0
  6  2  1  0  0  0  0
  7 16  1  0  0  0  0
  7 17  2  0  0  0  0
  8  1  1  0  0  0  0
  8  3  1  1  0  0  0
  9  4  2  0  0  0  0
 10  1  1  0  0  0  0
 11 18  1  0  0  0  0
 11 15  1  0  0  0  0
 12 18  1  0  0  0  0
 14 15  2  0  0  0  0
 15 21  1  0  0  0  0
 16  9  1  0  0  0  0
 17  3  1  0  0  0  0
 17  4  1  0  0  0  0
 19 25  1  0  0  0  0
 19 20  1  0  0  0  0
 21 23  1  0  0  0  0
 21 24  2  0  0  0  0
 22 20  2  0  0  0  0
 23 19  2  0  0  0  0
 24 22  1  0  0  0  0
 26 27  2  0  0  0  0
 27 16  1  0  0  0  0
 29 30  1  0  0  0  0
 29 26  1  1  0  0  0
 30 28  1  1  0  0  0
 31 34  1  0  0  0  0
 32 31  1  0  0  0  0
 32 33  1  0  0  0  0
 33 29  1  0  0  0  0
 34 30  1  0  0  0  0
M  END
>  <MODEL>
2

>  <REMARK>
 VINA RESULT:      -7.1      2.084      2.648
  Name = 
  3 active torsions:
  status: ('A' for Active; 'I' for Inactive)
    1  A    between atoms: C_3  and  C_13
    2  A    between atoms: C_12  and  C_28
    3  A    between atoms: N_17  and  N_29
                            x       y       z     vdW  Elec       q    Type
                         _______ _______ _______ _____ _____    ______ ____

>  <TORSDO>
F 3

$$$$
=
 OpenBabel11062407423D

 34 39  0  0  1  0  0  0  0  0999 V2000
  161.0630  208.0910  154.5880 C   0  0  1  0  0  3  0  0  0  0  0  0
  162.6530  209.7500  153.8720 C   0  0  1  0  0  3  0  0  0  0  0  0
  161.5510  208.1420  152.1020 C   0  0  0  0  0  0  0  0  0  0  0  0
  161.7760  208.0290  149.6860 C   0  0  0  0  0  0  0  0  0  0  0  0
  161.4410  210.1050  155.9610 C   0  0  0  0  0  3  0  0  0  0  0  0
  162.3470  210.4910  155.1060 N   0  0  0  0  0  0  0  0  0  0  0  0
  161.7310  210.0890  150.4860 C   0  0  0  0  0  3  0  0  0  0  0  0
  161.4060  208.9700  153.3850 C   0  0  1  0  0  3  0  0  0  0  0  0
  161.8810  208.8960  148.6240 C   0  0  0  0  0  3  0  0  0  0  0  0
  160.6710  208.9230  155.7130 N   0  0  0  0  0  2  0  0  0  0  0  0
  161.3050  206.7300  152.0950 C   0  0  0  0  0  0  0  0  0  0  0  0
  160.0660  207.0110  154.2640 C   0  0  0  0  0  2  0  0  0  0  0  0
  163.2470  210.7140  152.8660 C   0  0  0  0  0  1  0  0  0  0  0  0
  161.6720  206.6490  149.6720 C   0  0  0  0  0  3  0  0  0  0  0  0
  161.4440  205.9760  150.8860 C   0  0  0  0  0  0  0  0  0  0  0  0
  161.8550  210.1460  149.1430 N   0  0  0  0  0  0  0  0  0  0  0  0
  161.7030  208.7550  150.8470 C   0  0  0  0  0  0  0  0  0  0  0  0
  160.7950  206.0450  153.3430 C   0  0  0  0  0  2  0  0  0  0  0  0
  160.6190  202.4600  149.7080 C   0  0  0  0  0  0  0  0  0  0  0  0
  161.0260  201.7000  150.8070 C   0  0  0  0  0  3  0  0  0  0  0  0
  161.3200  204.4960  150.8430 C   0  0  0  0  0  0  0  0  0  0  0  0
  161.5710  202.3310  151.9280 C   0  0  0  0  0  3  0  0  0  0  0  0
  160.7610  203.8500  149.7280 C   0  0  0  0  0  3  0  0  0  0  0  0
  161.7130  203.7210  151.9470 C   0  0  0  0  0  3  0  0  0  0  0  0
  160.0850  201.8500  148.6240 F   0  0  0  0  0  0  0  0  0  0  0  0
  160.9670  211.7340  147.6350 C   0  0  0  0  0  3  0  0  0  0  0  0
  161.9240  211.3450  148.4150 N   0  0  0  0  0  0  0  0  0  0  0  0
  163.4290  213.1760  147.2850 F   0  0  0  0  0  0  0  0  0  0  0  0
  161.0790  213.0150  146.8800 C   0  0  1  0  0  3  0  0  0  0  0  0
  162.4810  213.1480  146.2790 C   0  0  1  0  0  3  0  0  0  0  0  0
  161.5320  214.4530  144.3590 C   0  0  0  0  0  2  0  0  0  0  0  0
  160.1400  214.3450  144.9710 C   0  0  0  0  0  2  0  0  0  0  0  0
  160.0220  213.0540  145.7750 C   0  0  0  0  0  2  0  0  0  0  0  0
  162.5890  214.4320  145.4590 C   0  0  0  0  0  2  0  0  0  0  0  0
  1 12  1  6  0  0  0
  1 10  1  0  0  0  0
  2 13  1  6  0  0  0
  2  6  1  0  0  0  0
  4 17  1  0  0  0  0
  6  5  2  0  0  0  0
  7 17  2  0  0  0  0
  8  3  1  6  0  0  0
  8  2  1  0  0  0  0
  8  1  1  0  0  0  0
  9 16  1  0  0  0  0
  9  4  2  0  0  0  0
 10  5  1  0  0  0  0
 11  3  2  0  0  0  0
 11 18  1  0  0  0  0
 14  4  1  0  0  0  0
 14 15  2  0  0  0  0
 15 11  1  0  0  0  0
 16  7  1  0  0  0  0
 17  3  1  0  0  0  0
 18 12  1  0  0  0  0
 19 23  2  0  0  0  0
 19 20  1  0  0  0  0
 20 22  2  0  0  0  0
 21 15  1  0  0  0  0
 21 24  2  0  0  0  0
 22 24  1  0  0  0  0
 23 21  1  0  0  0  0
 25 19  1  0  0  0  0
 26 27  2  0  0  0  0
 27 16  1  0  0  0  0
 29 26  1  6  0  0  0
 30 29  1  0  0  0  0
 30 28  1  1  0  0  0
 31 32  1  0  0  0  0
 31 34  1  0  0  0  0
 32 33  1  0  0  0  0
 33 29  1  0  0  0  0
 34 30  1  0  0  0  0
M  END
>  <MODEL>
3

>  <REMARK>
 VINA RESULT:      -6.9      3.560      8.857
  Name = 
  3 active torsions:
  status: ('A' for Active; 'I' for Inactive)
    1  A    between atoms: C_3  and  C_13
    2  A    between atoms: C_12  and  C_28
    3  A    between atoms: N_17  and  N_29
                            x       y       z     vdW  Elec       q    Type
                         _______ _______ _______ _____ _____    ______ ____

>  <TORSDO>
F 3

$$$$
=
 OpenBabel11062407423D

 34 39  0  0  1  0  0  0  0  0999 V2000
  160.8690  204.2040  152.1360 C   0  0  1  0  0  3  0  0  0  0  0  0
  162.4070  206.0560  152.1820 C   0  0  1  0  0  3  0  0  0  0  0  0
  161.3310  205.3040  149.9000 C   0  0  0  0  0  0  0  0  0  0  0  0
  161.5340  206.2180  147.6580 C   0  0  0  0  0  0  0  0  0  0  0  0
  161.2060  205.4700  154.2260 C   0  0  0  0  0  3  0  0  0  0  0  0
  162.0930  206.2030  153.6120 N   0  0  0  0  0  0  0  0  0  0  0  0
  161.4420  207.7520  149.2460 C   0  0  0  0  0  3  0  0  0  0  0  0
  161.1760  205.5160  151.4110 C   0  0  1  0  0  3  0  0  0  0  0  0
  161.6050  207.4520  147.0560 C   0  0  0  0  0  3  0  0  0  0  0  0
  160.4660  204.4780  153.5040 N   0  0  0  0  0  2  0  0  0  0  0  0
  161.1220  204.0170  149.3030 C   0  0  0  0  0  0  0  0  0  0  0  0
  159.8980  203.3310  151.3870 C   0  0  0  0  0  2  0  0  0  0  0  0
  162.9650  207.3680  151.6730 C   0  0  0  0  0  1  0  0  0  0  0  0
  161.4670  204.9680  147.0680 C   0  0  0  0  0  3  0  0  0  0  0  0
  161.2700  203.8420  147.8900 C   0  0  0  0  0  0  0  0  0  0  0  0
  161.5510  208.3690  148.0500 N   0  0  0  0  0  0  0  0  0  0  0  0
  161.4540  206.3900  149.0160 C   0  0  0  0  0  0  0  0  0  0  0  0
  160.6440  202.8590  150.1490 C   0  0  0  0  0  2  0  0  0  0  0  0
  160.4560  201.1050  145.3830 C   0  0  0  0  0  0  0  0  0  0  0  0
  160.9690  199.9790  146.0320 C   0  0  0  0  0  3  0  0  0  0  0  0
  161.1850  202.5130  147.2310 C   0  0  0  0  0  0  0  0  0  0  0  0
  161.5810  200.1110  147.2800 C   0  0  0  0  0  3  0  0  0  0  0  0
  160.5590  202.3640  145.9830 C   0  0  0  0  0  3  0  0  0  0  0  0
  161.6840  201.3710  147.8780 C   0  0  0  0  0  3  0  0  0  0  0  0
  159.8570  200.9770  144.1770 F   0  0  0  0  0  0  0  0  0  0  0  0
  161.9560  210.5580  148.8420 C   0  0  0  0  0  3  0  0  0  0  0  0
  161.5810  209.7640  147.8910 N   0  0  0  0  0  0  0  0  0  0  0  0
  164.0840  211.9590  147.5100 F   0  0  0  0  0  0  0  0  0  0  0  0
  161.9750  212.0350  148.6320 C   0  0  1  0  0  3  0  0  0  0  0  0
  162.7720  212.3740  147.3700 C   0  0  1  0  0  3  0  0  0  0  0  0
  161.3170  214.3800  146.9900 C   0  0  0  0  0  2  0  0  0  0  0  0
  160.5400  214.0590  148.2630 C   0  0  0  0  0  2  0  0  0  0  0  0
  160.5410  212.5540  148.5090 C   0  0  0  0  0  2  0  0  0  0  0  0
  162.7530  213.8800  147.1150 C   0  0  0  0  0  2  0  0  0  0  0  0
  1 12  1  6  0  0  0
  1 10  1  0  0  0  0
  2 13  1  6  0  0  0
  2  6  1  0  0  0  0
  4 17  1  0  0  0  0
  6  5  2  0  0  0  0
  8  3  1  6  0  0  0
  8  1  1  0  0  0  0
  8  2  1  0  0  0  0
  9  4  2  0  0  0  0
  9 16  1  0  0  0  0
 10  5  1  0  0  0  0
 11  3  2  0  0  0  0
 11 18  1  0  0  0  0
 14  4  1  0  0  0  0
 14 15  2  0  0  0  0
 15 11  1  0  0  0  0
 16  7  1  0  0  0  0
 17  7  2  0  0  0  0
 17  3  1  0  0  0  0
 18 12  1  0  0  0  0
 19 23  2  0  0  0  0
 19 20  1  0  0  0  0
 20 22  2  0  0  0  0
 21 24  2  0  0  0  0
 21 15  1  0  0  0  0
 22 24  1  0  0  0  0
 23 21  1  0  0  0  0
 25 19  1  0  0  0  0
 27 16  1  0  0  0  0
 27 26  2  0  0  0  0
 29 26  1  6  0  0  0
 30 28  1  1  0  0  0
 30 29  1  0  0  0  0
 31 34  1  0  0  0  0
 31 32  1  0  0  0  0
 32 33  1  0  0  0  0
 33 29  1  0  0  0  0
 34 30  1  0  0  0  0
M  END
>  <MODEL>
4

>  <REMARK>
 VINA RESULT:      -6.5      4.922     10.496
  Name = 
  3 active torsions:
  status: ('A' for Active; 'I' for Inactive)
    1  A    between atoms: C_3  and  C_13
    2  A    between atoms: C_12  and  C_28
    3  A    between atoms: N_17  and  N_29
                            x       y       z     vdW  Elec       q    Type
                         _______ _______ _______ _____ _____    ______ ____

>  <TORSDO>
F 3

$$$$
=
 OpenBabel11062407423D

 34 39  0  0  1  0  0  0  0  0999 V2000
  160.8380  212.6390  150.1610 C   0  0  1  0  0  3  0  0  0  0  0  0
  162.5810  211.5430  148.9140 C   0  0  1  0  0  3  0  0  0  0  0  0
  161.2750  210.2200  150.7780 C   0  0  0  0  0  0  0  0  0  0  0  0
  161.4330  207.9090  151.5070 C   0  0  0  0  0  0  0  0  0  0  0  0
  161.4590  213.4730  147.9240 C   0  0  0  0  0  3  0  0  0  0  0  0
  162.3830  212.5540  147.8630 N   0  0  0  0  0  0  0  0  0  0  0  0
  161.6270  208.1740  149.3220 C   0  0  0  0  0  3  0  0  0  0  0  0
  161.2470  211.2570  149.6480 C   0  0  1  0  0  3  0  0  0  0  0  0
  161.6080  206.6650  150.9450 C   0  0  0  0  0  3  0  0  0  0  0  0
  160.5620  213.5210  149.0400 N   0  0  0  0  0  2  0  0  0  0  0  0
  160.8780  210.5620  152.1130 C   0  0  0  0  0  0  0  0  0  0  0  0
  159.7240  212.5860  151.1720 C   0  0  0  0  0  2  0  0  0  0  0  0
  163.2530  210.3340  148.2990 C   0  0  0  0  0  1  0  0  0  0  0  0
  161.1820  208.2360  152.8280 C   0  0  0  0  0  3  0  0  0  0  0  0
  160.9100  209.5780  153.1520 C   0  0  0  0  0  0  0  0  0  0  0  0
  161.7270  206.8590  149.6120 N   0  0  0  0  0  0  0  0  0  0  0  0
  161.4640  208.8530  150.5140 C   0  0  0  0  0  0  0  0  0  0  0  0
  160.3250  211.9380  152.4090 C   0  0  0  0  0  2  0  0  0  0  0  0
  159.1930  210.8810  156.2810 C   0  0  0  0  0  0  0  0  0  0  0  0
  160.1380  210.5700  157.2610 C   0  0  0  0  0  3  0  0  0  0  0  0
  160.6260  209.9010  154.5740 C   0  0  0  0  0  0  0  0  0  0  0  0
  161.3290  209.9340  156.9050 C   0  0  0  0  0  3  0  0  0  0  0  0
  159.4390  210.5530  154.9440 C   0  0  0  0  0  3  0  0  0  0  0  0
  161.5740  209.6050  155.5680 C   0  0  0  0  0  3  0  0  0  0  0  0
  158.0410  211.5040  156.6240 F   0  0  0  0  0  0  0  0  0  0  0  0
  161.3490  204.6940  148.7420 C   0  0  0  0  0  3  0  0  0  0  0  0
  161.9090  205.8570  148.6430 N   0  0  0  0  0  0  0  0  0  0  0  0
  161.2540  201.8640  149.2410 F   0  0  0  0  0  0  0  0  0  0  0  0
  161.5660  203.6580  147.6910 C   0  0  1  0  0  3  0  0  0  0  0  0
  160.7930  202.3840  148.0450 C   0  0  1  0  0  3  0  0  0  0  0  0
  160.4980  201.8870  145.6050 C   0  0  0  0  0  2  0  0  0  0  0  0
  161.2910  203.1410  145.2520 C   0  0  0  0  0  2  0  0  0  0  0  0
  161.1060  204.1980  146.3360 C   0  0  0  0  0  2  0  0  0  0  0  0
  160.9650  201.3350  146.9490 C   0  0  0  0  0  2  0  0  0  0  0  0
  1 12  1  1  0  0  0
  2 13  1  6  0  0  0
  2  8  1  0  0  0  0
  3 11  2  0  0  0  0
  4 14  1  0  0  0  0
  5 10  1  0  0  0  0
  6  5  2  0  0  0  0
  6  2  1  0  0  0  0
  7 16  1  0  0  0  0
  7 17  2  0  0  0  0
  8  1  1  0  0  0  0
  8  3  1  1  0  0  0
  9  4  2  0  0  0  0
 10  1  1  0  0  0  0
 11 18  1  0  0  0  0
 11 15  1  0  0  0  0
 12 18  1  0  0  0  0
 14 15  2  0  0  0  0
 15 21  1  0  0  0  0
 16  9  1  0  0  0  0
 17  3  1  0  0  0  0
 17  4  1  0  0  0  0
 19 25  1  0  0  0  0
 19 20  1  0  0  0  0
 21 23  1  0  0  0  0
 21 24  2  0  0  0  0
 22 20  2  0  0  0  0
 23 19  2  0  0  0  0
 24 22  1  0  0  0  0
 27 26  2  0  0  0  0
 27 16  1  0  0  0  0
 29 30  1  0  0  0  0
 29 26  1  1  0  0  0
 30 28  1  1  0  0  0
 31 34  1  0  0  0  0
 32 31  1  0  0  0  0
 32 33  1  0  0  0  0
 33 29  1  0  0  0  0
 34 30  1  0  0  0  0
M  END
>  <MODEL>
5

>  <REMARK>
 VINA RESULT:      -6.2      1.848      2.646
  Name = 
  3 active torsions:
  status: ('A' for Active; 'I' for Inactive)
    1  A    between atoms: C_3  and  C_13
    2  A    between atoms: C_12  and  C_28
    3  A    between atoms: N_17  and  N_29
                            x       y       z     vdW  Elec       q    Type
                         _______ _______ _______ _____ _____    ______ ____

>  <TORSDO>
F 3

$$$$
=
 OpenBabel11062407423D

 34 39  0  0  1  0  0  0  0  0999 V2000
  161.5620  204.8820  150.7660 C   0  0  1  0  0  3  0  0  0  0  0  0
  160.4170  205.8570  148.8860 C   0  0  1  0  0  3  0  0  0  0  0  0
  161.3880  207.4110  150.7760 C   0  0  0  0  0  0  0  0  0  0  0  0
  161.4310  209.8300  150.9920 C   0  0  0  0  0  0  0  0  0  0  0  0
  161.4220  203.6450  148.6370 C   0  0  0  0  0  3  0  0  0  0  0  0
  160.7140  204.6220  148.1420 N   0  0  0  0  0  0  0  0  0  0  0  0
  161.7780  209.1080  148.9320 C   0  0  0  0  0  3  0  0  0  0  0  0
  161.5390  206.1520  149.9130 C   0  0  1  0  0  3  0  0  0  0  0  0
  161.6200  210.9290  150.1870 C   0  0  0  0  0  3  0  0  0  0  0  0
  161.9730  203.7490  149.9550 N   0  0  0  0  0  2  0  0  0  0  0  0
  161.3560  207.3330  152.2070 C   0  0  0  0  0  0  0  0  0  0  0  0
  162.3630  205.0370  152.0310 C   0  0  0  0  0  2  0  0  0  0  0  0
  160.1420  206.9640  147.8910 C   0  0  0  0  0  1  0  0  0  0  0  0
  161.2670  209.7790  152.3650 C   0  0  0  0  0  3  0  0  0  0  0  0
  161.2160  208.5210  152.9940 C   0  0  0  0  0  0  0  0  0  0  0  0
  161.8260  210.4580  148.9350 N   0  0  0  0  0  0  0  0  0  0  0  0
  161.5050  208.6970  150.2230 C   0  0  0  0  0  0  0  0  0  0  0  0
  161.5740  206.0060  152.8980 C   0  0  0  0  0  2  0  0  0  0  0  0
  160.0940  207.5150  156.4810 C   0  0  0  0  0  0  0  0  0  0  0  0
  160.7090  208.4970  157.2600 C   0  0  0  0  0  3  0  0  0  0  0  0
  161.0570  208.4930  154.4710 C   0  0  0  0  0  0  0  0  0  0  0  0
  161.4910  209.4820  156.6530 C   0  0  0  0  0  3  0  0  0  0  0  0
  160.2630  207.5160  155.0940 C   0  0  0  0  0  3  0  0  0  0  0  0
  161.6600  209.4820  155.2650 C   0  0  0  0  0  3  0  0  0  0  0  0
  159.3300  206.5640  157.0690 F   0  0  0  0  0  0  0  0  0  0  0  0
  161.2560  212.1500  147.3880 C   0  0  0  0  0  3  0  0  0  0  0  0
  162.0750  211.2330  147.7900 N   0  0  0  0  0  0  0  0  0  0  0  0
  163.7360  213.5400  146.9600 F   0  0  0  0  0  0  0  0  0  0  0  0
  161.5580  212.9530  146.1680 C   0  0  1  0  0  3  0  0  0  0  0  0
  163.0660  212.9530  145.9020 C   0  0  1  0  0  3  0  0  0  0  0  0
  162.6310  213.1280  143.4380 C   0  0  0  0  0  2  0  0  0  0  0  0
  161.1300  213.1560  143.7040 C   0  0  0  0  0  2  0  0  0  0  0  0
  160.8090  212.3670  144.9690 C   0  0  0  0  0  2  0  0  0  0  0  0
  163.3820  213.7280  144.6240 C   0  0  0  0  0  2  0  0  0  0  0  0
  1 12  1  1  0  0  0
  2 13  1  6  0  0  0
  2  8  1  0  0  0  0
  3 11  2  0  0  0  0
  4 14  1  0  0  0  0
  5 10  1  0  0  0  0
  6  5  2  0  0  0  0
  6  2  1  0  0  0  0
  7 16  1  0  0  0  0
  7 17  2  0  0  0  0
  8  1  1  0  0  0  0
  8  3  1  1  0  0  0
  9  4  2  0  0  0  0
 10  1  1  0  0  0  0
 11 18  1  0  0  0  0
 11 15  1  0  0  0  0
 12 18  1  0  0  0  0
 14 15  2  0  0  0  0
 15 21  1  0  0  0  0
 16  9  1  0  0  0  0
 17  3  1  0  0  0  0
 17  4  1  0  0  0  0
 19 25  1  0  0  0  0
 19 20  1  0  0  0  0
 21 23  1  0  0  0  0
 21 24  2  0  0  0  0
 22 20  2  0  0  0  0
 23 19  2  0  0  0  0
 24 22  1  0  0  0  0
 26 27  2  0  0  0  0
 27 16  1  0  0  0  0
 29 26  1  1  0  0  0
 30 29  1  0  0  0  0
 30 28  1  1  0  0  0
 31 32  1  0  0  0  0
 31 34  1  0  0  0  0
 32 33  1  0  0  0  0
 33 29  1  0  0  0  0
 34 30  1  0  0  0  0
M  END
>  <MODEL>
6

>  <REMARK>
 VINA RESULT:      -6.1      3.296      7.456
  Name = 
  3 active torsions:
  status: ('A' for Active; 'I' for Inactive)
    1  A    between atoms: C_3  and  C_13
    2  A    between atoms: C_12  and  C_28
    3  A    between atoms: N_17  and  N_29
                            x       y       z     vdW  Elec       q    Type
                         _______ _______ _______ _____ _____    ______ ____

>  <TORSDO>
F 3

$$$$
=
 OpenBabel11062407423D

 34 39  0  0  1  0  0  0  0  0999 V2000
  161.5710  211.0290  150.2300 C   0  0  1  0  0  3  0  0  0  0  0  0
  162.8480  209.6240  148.7510 C   0  0  1  0  0  3  0  0  0  0  0  0
  161.4050  208.5380  150.6670 C   0  0  0  0  0  0  0  0  0  0  0  0
  161.0110  206.2130  151.2490 C   0  0  0  0  0  0  0  0  0  0  0  0
  162.1940  211.8500  147.9890 C   0  0  0  0  0  3  0  0  0  0  0  0
  162.8330  210.7320  147.7820 N   0  0  0  0  0  0  0  0  0  0  0  0
  161.0780  206.5920  149.0730 C   0  0  0  0  0  3  0  0  0  0  0  0
  161.5550  209.6330  149.6040 C   0  0  1  0  0  3  0  0  0  0  0  0
  160.8020  205.0150  150.6060 C   0  0  0  0  0  3  0  0  0  0  0  0
  161.4410  212.0380  149.1930 N   0  0  0  0  0  2  0  0  0  0  0  0
  161.2300  208.8630  152.0520 C   0  0  0  0  0  0  0  0  0  0  0  0
  160.5740  211.1840  151.3480 C   0  0  0  0  0  2  0  0  0  0  0  0
  163.1210  208.3350  148.0040 C   0  0  0  0  0  1  0  0  0  0  0  0
  160.9700  206.4870  152.6050 C   0  0  0  0  0  3  0  0  0  0  0  0
  161.0910  207.8240  153.0280 C   0  0  0  0  0  0  0  0  0  0  0  0
  160.8530  205.2770  149.2790 N   0  0  0  0  0  0  0  0  0  0  0  0
  161.2040  207.1930  150.3100 C   0  0  0  0  0  0  0  0  0  0  0  0
  161.0880  210.3060  152.4780 C   0  0  0  0  0  2  0  0  0  0  0  0
  161.8600  209.2360  156.4700 C   0  0  0  0  0  0  0  0  0  0  0  0
  160.9400  208.5440  157.2610 C   0  0  0  0  0  3  0  0  0  0  0  0
  161.0270  208.0960  154.4870 C   0  0  0  0  0  0  0  0  0  0  0  0
  160.0690  207.6230  156.6740 C   0  0  0  0  0  3  0  0  0  0  0  0
  161.9060  209.0090  155.0910 C   0  0  0  0  0  3  0  0  0  0  0  0
  160.1150  207.3970  155.2960 C   0  0  0  0  0  3  0  0  0  0  0  0
  162.7090  210.1240  157.0390 F   0  0  0  0  0  0  0  0  0  0  0  0
  161.6810  203.7690  147.6600 C   0  0  0  0  0  3  0  0  0  0  0  0
  160.6790  204.3430  148.2440 N   0  0  0  0  0  0  0  0  0  0  0  0
  161.9170  200.9230  147.9980 F   0  0  0  0  0  0  0  0  0  0  0  0
  161.4540  202.7800  146.5660 C   0  0  1  0  0  3  0  0  0  0  0  0
  160.9610  201.4550  147.1520 C   0  0  1  0  0  3  0  0  0  0  0  0
  159.6470  201.0200  145.0610 C   0  0  0  0  0  2  0  0  0  0  0  0
  160.1590  202.3270  144.4650 C   0  0  0  0  0  2  0  0  0  0  0  0
  160.4290  203.3370  145.5760 C   0  0  0  0  0  2  0  0  0  0  0  0
  160.6740  200.4520  146.0360 C   0  0  0  0  0  2  0  0  0  0  0  0
  1 12  1  1  0  0  0
  2 13  1  6  0  0  0
  2  8  1  0  0  0  0
  3 11  2  0  0  0  0
  4 14  1  0  0  0  0
  5 10  1  0  0  0  0
  6  5  2  0  0  0  0
  6  2  1  0  0  0  0
  7 16  1  0  0  0  0
  7 17  2  0  0  0  0
  8  1  1  0  0  0  0
  8  3  1  1  0  0  0
  9  4  2  0  0  0  0
 10  1  1  0  0  0  0
 11 18  1  0  0  0  0
 11 15  1  0  0  0  0
 12 18  1  0  0  0  0
 14 15  2  0  0  0  0
 15 21  1  0  0  0  0
 16  9  1  0  0  0  0
 17  3  1  0  0  0  0
 17  4  1  0  0  0  0
 19 25  1  0  0  0  0
 19 20  1  0  0  0  0
 21 23  1  0  0  0  0
 21 24  2  0  0  0  0
 22 20  2  0  0  0  0
 23 19  2  0  0  0  0
 24 22  1  0  0  0  0
 26 27  2  0  0  0  0
 27 16  1  0  0  0  0
 29 30  1  0  0  0  0
 29 26  1  1  0  0  0
 30 28  1  1  0  0  0
 31 34  1  0  0  0  0
 32 31  1  0  0  0  0
 32 33  1  0  0  0  0
 33 29  1  0  0  0  0
 34 30  1  0  0  0  0
M  END
>  <MODEL>
7

>  <REMARK>
 VINA RESULT:      -4.7      3.178      4.271
  Name = 
  3 active torsions:
  status: ('A' for Active; 'I' for Inactive)
    1  A    between atoms: C_3  and  C_13
    2  A    between atoms: C_12  and  C_28
    3  A    between atoms: N_17  and  N_29
                            x       y       z     vdW  Elec       q    Type
                         _______ _______ _______ _____ _____    ______ ____

>  <TORSDO>
F 3

$$$$
