=
 OpenBabel11052423193D

 27 31  0  0  1  0  0  0  0  0999 V2000
  160.8290  207.1020  152.0090 C   0  0  2  0  0  3  0  0  0  0  0  0
  160.4050  205.8370  151.2250 C   0  0  2  0  0  3  0  0  0  0  0  0
  161.4480  207.2940  149.7570 C   0  0  0  0  0  0  0  0  0  0  0  0
  161.1960  202.5730  148.1480 S   0  0  0  0  0  0  0  0  0  0  0  0
  162.0190  203.5940  145.6620 C   0  0  0  0  0  1  0  0  0  0  0  0
  160.8030  204.4600  151.7880 C   0  0  0  0  0  2  0  0  0  0  0  0
  161.5560  205.0320  147.6530 N   0  0  0  0  0  0  0  0  0  0  0  0
  162.0670  210.0820  149.8640 C   0  0  2  0  0  3  0  0  0  0  0  0
  163.4670  207.7140  148.6000 O   0  0  0  0  0  1  0  0  0  0  0  0
  161.7890  211.4450  149.7570 O   0  0  0  0  0  1  0  0  0  0  0  0
  161.1570  204.9350  148.9480 C   0  0  0  0  0  0  0  0  0  0  0  0
  161.6210  203.8090  147.0780 C   0  0  0  0  0  0  0  0  0  0  0  0
  160.9320  203.6480  149.4100 C   0  0  0  0  0  0  0  0  0  0  0  0
  161.3530  208.0050  150.9830 N   0  0  0  0  0  0  0  0  0  0  0  0
  161.0070  206.0570  149.8770 C   0  0  0  0  0  0  0  0  0  0  0  0
  161.7660  209.4010  148.5220 C   0  0  0  0  0  2  0  0  0  0  0  0
  160.4500  203.3280  150.8000 C   0  0  0  0  0  2  0  0  0  0  0  0
  161.7170  210.0180  152.3340 C   0  0  0  0  0  1  0  0  0  0  0  0
  161.2380  209.4650  151.0020 C   0  0  1  0  0  3  0  0  0  0  0  0
  162.0850  207.9050  148.5530 C   0  0  2  0  0  3  0  0  0  0  0  0
  161.8660  206.8570  153.1260 C   0  0  0  0  0  2  0  0  0  0  0  0
  160.9000  207.4970  157.2610 C   0  0  0  0  0  2  0  0  0  0  0  0
  161.4080  207.2380  154.5060 C   0  0  0  0  0  0  0  0  0  0  0  0
  160.1690  206.5700  155.0610 C   0  0  0  0  0  2  0  0  0  0  0  0
  159.7030  207.1680  156.3860 C   0  0  0  0  0  2  0  0  0  0  0  0
  161.7310  208.5380  156.5260 C   0  0  0  0  0  2  0  0  0  0  0  0
  162.1040  208.0780  155.2030 N   0  0  0  0  0  0  0  0  0  0  0  0
  1 21  1  1  0  0  0
  2  6  1  1  0  0  0
  2  1  1  0  0  0  0
  3 15  2  0  0  0  0
  3 14  1  0  0  0  0
  4 13  1  0  0  0  0
  5 12  1  0  0  0  0
  7 11  1  0  0  0  0
  8 10  1  6  0  0  0
  8 19  1  0  0  0  0
 11 13  2  0  0  0  0
 11 15  1  0  0  0  0
 12  7  2  0  0  0  0
 12  4  1  0  0  0  0
 13 17  1  0  0  0  0
 14 19  1  0  0  0  0
 14  1  1  0  0  0  0
 15  2  1  0  0  0  0
 16 20  1  0  0  0  0
 16  8  1  0  0  0  0
 17  6  1  0  0  0  0
 19 18  1  1  0  0  0
 20  9  1  1  0  0  0
 20  3  1  0  0  0  0
 21 23  1  0  0  0  0
 23 24  1  0  0  0  0
 23 27  2  0  0  0  0
 24 25  1  0  0  0  0
 25 22  1  0  0  0  0
 26 22  1  0  0  0  0
 27 26  1  0  0  0  0
M  END
>  <MODEL>
1

>  <REMARK>
 VINA RESULT:      -7.5      0.000      0.000
  Name = 
  2 active torsions:
  status: ('A' for Active; 'I' for Inactive)
    1  A    between atoms: C_1  and  C_15
    2  A    between atoms: C_9  and  C_15
                            x       y       z     vdW  Elec       q    Type
                         _______ _______ _______ _____ _____    ______ ____

>  <TORSDO>
F 2

$$$$
=
 OpenBabel11052423193D

 27 31  0  0  1  0  0  0  0  0999 V2000
  161.6940  206.7250  150.8310 C   0  0  2  0  0  3  0  0  0  0  0  0
  161.8140  206.6340  152.3710 C   0  0  2  0  0  3  0  0  0  0  0  0
  161.5160  208.8560  151.7890 C   0  0  0  0  0  0  0  0  0  0  0  0
  160.5130  207.8250  156.5710 S   0  0  0  0  0  0  0  0  0  0  0  0
  160.4390  210.6100  156.9410 C   0  0  0  0  0  1  0  0  0  0  0  0
  160.9230  205.6220  153.1150 C   0  0  0  0  0  2  0  0  0  0  0  0
  161.0230  209.5280  154.7660 N   0  0  0  0  0  0  0  0  0  0  0  0
  161.7940  210.2990  149.3380 C   0  0  2  0  0  3  0  0  0  0  0  0
  159.9300  210.6080  151.7030 O   0  0  0  0  0  1  0  0  0  0  0  0
  162.4990  210.9640  148.3340 O   0  0  0  0  0  1  0  0  0  0  0  0
  161.1710  208.2960  154.2120 C   0  0  0  0  0  0  0  0  0  0  0  0
  160.6650  209.4290  156.0670 C   0  0  0  0  0  0  0  0  0  0  0  0
  160.9070  207.2260  155.0530 C   0  0  0  0  0  0  0  0  0  0  0  0
  161.6420  208.1620  150.5560 N   0  0  0  0  0  0  0  0  0  0  0  0
  161.5220  208.0280  152.8160 C   0  0  0  0  0  0  0  0  0  0  0  0
  162.0660  210.9870  150.6820 C   0  0  0  0  0  2  0  0  0  0  0  0
  161.0480  205.7840  154.6450 C   0  0  0  0  0  2  0  0  0  0  0  0
  161.7280  208.1300  148.1060 C   0  0  0  0  0  1  0  0  0  0  0  0
  162.2050  208.8180  149.3750 C   0  0  1  0  0  3  0  0  0  0  0  0
  161.2930  210.3320  151.8290 C   0  0  2  0  0  3  0  0  0  0  0  0
  160.4760  205.9920  150.2290 C   0  0  0  0  0  2  0  0  0  0  0  0
  160.7990  202.1910  148.2580 C   0  0  0  0  0  2  0  0  0  0  0  0
  160.7880  204.6600  149.6070 C   0  0  0  0  0  0  0  0  0  0  0  0
  160.5320  203.4100  150.4200 C   0  0  0  0  0  2  0  0  0  0  0  0
  161.0530  202.1390  149.7540 C   0  0  0  0  0  2  0  0  0  0  0  0
  161.5710  203.3780  147.7040 C   0  0  0  0  0  2  0  0  0  0  0  0
  161.2090  204.6070  148.3850 N   0  0  0  0  0  0  0  0  0  0  0  0
  1 21  1  1  0  0  0
  1  2  1  0  0  0  0
  2 15  1  0  0  0  0
  2  6  1  1  0  0  0
  3 20  1  0  0  0  0
  3 15  2  0  0  0  0
  6 17  1  0  0  0  0
  7 12  2  0  0  0  0
  8 10  1  6  0  0  0
  8 19  1  0  0  0  0
  8 16  1  0  0  0  0
 11  7  1  0  0  0  0
 11 13  2  0  0  0  0
 12  4  1  0  0  0  0
 12  5  1  0  0  0  0
 13  4  1  0  0  0  0
 14  1  1  0  0  0  0
 14  3  1  0  0  0  0
 15 11  1  0  0  0  0
 16 20  1  0  0  0  0
 17 13  1  0  0  0  0
 19 18  1  6  0  0  0
 19 14  1  0  0  0  0
 20  9  1  6  0  0  0
 22 25  1  0  0  0  0
 23 21  1  0  0  0  0
 23 24  1  0  0  0  0
 25 24  1  0  0  0  0
 26 22  1  0  0  0  0
 26 27  1  0  0  0  0
 27 23  2  0  0  0  0
M  END
>  <MODEL>
2

>  <REMARK>
 VINA RESULT:      -7.4      2.343      6.376
  Name = 
  2 active torsions:
  status: ('A' for Active; 'I' for Inactive)
    1  A    between atoms: C_1  and  C_15
    2  A    between atoms: C_9  and  C_15
                            x       y       z     vdW  Elec       q    Type
                         _______ _______ _______ _____ _____    ______ ____

>  <TORSDO>
F 2

$$$$
=
 OpenBabel11052423193D

 27 31  0  0  1  0  0  0  0  0999 V2000
  161.0160  206.5250  149.1840 C   0  0  2  0  0  3  0  0  0  0  0  0
  160.7790  207.7740  150.0660 C   0  0  2  0  0  3  0  0  0  0  0  0
  161.1140  205.9500  151.4540 C   0  0  0  0  0  0  0  0  0  0  0  0
  161.7490  210.3770  153.6760 S   0  0  0  0  0  0  0  0  0  0  0  0
  161.7870  208.9300  156.0850 C   0  0  0  0  0  1  0  0  0  0  0  0
  161.6130  209.0370  149.7840 C   0  0  0  0  0  2  0  0  0  0  0  0
  161.3750  207.8770  153.8560 N   0  0  0  0  0  0  0  0  0  0  0  0
  161.0190  203.1240  151.0410 C   0  0  2  0  0  3  0  0  0  0  0  0
  162.6950  204.8810  152.8480 O   0  0  0  0  0  1  0  0  0  0  0  0
  160.3910  201.8860  150.8990 O   0  0  0  0  0  1  0  0  0  0  0  0
  161.2740  208.2070  152.5420 C   0  0  0  0  0  0  0  0  0  0  0  0
  161.6320  208.9730  154.6070 C   0  0  0  0  0  0  0  0  0  0  0  0
  161.4750  209.5450  152.2440 C   0  0  0  0  0  0  0  0  0  0  0  0
  161.0840  205.4170  150.1380 N   0  0  0  0  0  0  0  0  0  0  0  0
  161.0310  207.2660  151.4460 C   0  0  0  0  0  0  0  0  0  0  0  0
  160.6430  203.7260  152.4010 C   0  0  0  0  0  2  0  0  0  0  0  0
  161.3700  210.1210  150.8560 C   0  0  0  0  0  2  0  0  0  0  0  0
  161.1860  203.5230  148.5830 C   0  0  0  0  0  1  0  0  0  0  0  0
  160.6110  204.0540  149.8860 C   0  0  1  0  0  3  0  0  0  0  0  0
  161.3280  205.0730  152.6420 C   0  0  2  0  0  3  0  0  0  0  0  0
  162.2790  206.5840  148.2980 C   0  0  0  0  0  2  0  0  0  0  0  0
  161.4730  204.5530  144.6010 C   0  0  0  0  0  2  0  0  0  0  0  0
  162.1020  206.0290  146.9120 C   0  0  0  0  0  0  0  0  0  0  0  0
  163.1390  205.0600  146.3900 C   0  0  0  0  0  2  0  0  0  0  0  0
  162.9500  204.7090  144.9160 C   0  0  0  0  0  2  0  0  0  0  0  0
  160.8040  205.8930  144.8700 C   0  0  0  0  0  2  0  0  0  0  0  0
  161.0520  206.3440  146.2260 N   0  0  0  0  0  0  0  0  0  0  0  0
  1 21  1  1  0  0  0
  1  2  1  0  0  0  0
  1 14  1  0  0  0  0
  2  6  1  6  0  0  0
  2 15  1  0  0  0  0
  3 20  1  0  0  0  0
  4 12  1  0  0  0  0
  6 17  1  0  0  0  0
  7 12  2  0  0  0  0
  8 10  1  6  0  0  0
  8 16  1  0  0  0  0
 11  7  1  0  0  0  0
 12  5  1  0  0  0  0
 13 11  2  0  0  0  0
 13  4  1  0  0  0  0
 14  3  1  0  0  0  0
 15  3  2  0  0  0  0
 15 11  1  0  0  0  0
 16 20  1  0  0  0  0
 17 13  1  0  0  0  0
 19 18  1  6  0  0  0
 19 14  1  0  0  0  0
 19  8  1  0  0  0  0
 20  9  1  6  0  0  0
 22 26  1  0  0  0  0
 22 25  1  0  0  0  0
 23 21  1  0  0  0  0
 24 23  1  0  0  0  0
 25 24  1  0  0  0  0
 26 27  1  0  0  0  0
 27 23  2  0  0  0  0
M  END
>  <MODEL>
3

>  <REMARK>
 VINA RESULT:      -6.8      2.908      7.642
  Name = 
  2 active torsions:
  status: ('A' for Active; 'I' for Inactive)
    1  A    between atoms: C_1  and  C_15
    2  A    between atoms: C_9  and  C_15
                            x       y       z     vdW  Elec       q    Type
                         _______ _______ _______ _____ _____    ______ ____

>  <TORSDO>
F 2

$$$$
=
 OpenBabel11052423193D

 27 31  0  0  1  0  0  0  0  0999 V2000
  160.8310  206.9310  151.8930 C   0  0  2  0  0  3  0  0  0  0  0  0
  160.3250  205.5300  151.4750 C   0  0  2  0  0  3  0  0  0  0  0  0
  161.2990  206.5370  149.6310 C   0  0  0  0  0  0  0  0  0  0  0  0
  160.8270  201.5790  149.2640 S   0  0  0  0  0  0  0  0  0  0  0  0
  161.5020  201.9220  146.5580 C   0  0  0  0  0  1  0  0  0  0  0  0
  160.7290  204.3190  152.3380 C   0  0  0  0  0  2  0  0  0  0  0  0
  161.2100  203.8240  148.1530 N   0  0  0  0  0  0  0  0  0  0  0  0
  161.9890  209.2380  149.0040 C   0  0  2  0  0  3  0  0  0  0  0  0
  163.2430  206.5780  148.2860 O   0  0  0  0  0  1  0  0  0  0  0  0
  161.7360  210.5430  148.5790 O   0  0  0  0  0  1  0  0  0  0  0  0
  160.8980  204.0640  149.4530 C   0  0  0  0  0  0  0  0  0  0  0  0
  161.2060  202.4950  147.8970 C   0  0  0  0  0  0  0  0  0  0  0  0
  160.6750  202.9410  150.2330 C   0  0  0  0  0  0  0  0  0  0  0  0
  161.3050  207.5310  150.6460 N   0  0  0  0  0  0  0  0  0  0  0  0
  160.8380  205.3860  150.0820 C   0  0  0  0  0  0  0  0  0  0  0  0
  161.5810  208.2600  147.8940 C   0  0  0  0  0  2  0  0  0  0  0  0
  160.2820  202.9930  151.6860 C   0  0  0  0  0  2  0  0  0  0  0  0
  161.8070  209.8000  151.4290 C   0  0  0  0  0  1  0  0  0  0  0  0
  161.2260  208.9540  150.3080 C   0  0  1  0  0  3  0  0  0  0  0  0
  161.8660  206.8070  148.2770 C   0  0  2  0  0  3  0  0  0  0  0  0
  161.9370  206.9280  152.9710 C   0  0  0  0  0  2  0  0  0  0  0  0
  161.1910  208.1260  157.0270 C   0  0  0  0  0  2  0  0  0  0  0  0
  161.5060  207.4440  154.3160 C   0  0  0  0  0  0  0  0  0  0  0  0
  160.5970  206.5780  155.1600 C   0  0  0  0  0  2  0  0  0  0  0  0
  160.0870  207.2830  156.4150 C   0  0  0  0  0  2  0  0  0  0  0  0
  161.5810  209.1820  156.0040 C   0  0  0  0  0  2  0  0  0  0  0  0
  161.9600  208.5780  154.7410 N   0  0  0  0  0  0  0  0  0  0  0  0
  1 21  1  1  0  0  0
  2  1  1  0  0  0  0
  2  6  1  1  0  0  0
  3 15  2  0  0  0  0
  3 14  1  0  0  0  0
  4 13  1  0  0  0  0
  5 12  1  0  0  0  0
  7 11  1  0  0  0  0
  8 10  1  6  0  0  0
  8 19  1  0  0  0  0
 11 15  1  0  0  0  0
 11 13  2  0  0  0  0
 12  7  2  0  0  0  0
 12  4  1  0  0  0  0
 13 17  1  0  0  0  0
 14  1  1  0  0  0  0
 15  2  1  0  0  0  0
 16 20  1  0  0  0  0
 16  8  1  0  0  0  0
 17  6  1  0  0  0  0
 19 14  1  0  0  0  0
 19 18  1  1  0  0  0
 20  9  1  1  0  0  0
 20  3  1  0  0  0  0
 21 23  1  0  0  0  0
 23 27  2  0  0  0  0
 23 24  1  0  0  0  0
 24 25  1  0  0  0  0
 25 22  1  0  0  0  0
 26 22  1  0  0  0  0
 27 26  1  0  0  0  0
M  END
>  <MODEL>
4

>  <REMARK>
 VINA RESULT:      -6.4      0.947      1.016
  Name = 
  2 active torsions:
  status: ('A' for Active; 'I' for Inactive)
    1  A    between atoms: C_1  and  C_15
    2  A    between atoms: C_9  and  C_15
                            x       y       z     vdW  Elec       q    Type
                         _______ _______ _______ _____ _____    ______ ____

>  <TORSDO>
F 2

$$$$
=
 OpenBabel11052423193D

 27 31  0  0  1  0  0  0  0  0999 V2000
  161.0740  209.5790  150.5550 C   0  0  2  0  0  3  0  0  0  0  0  0
  160.5440  209.8480  151.9840 C   0  0  2  0  0  3  0  0  0  0  0  0
  161.0830  207.6020  151.8130 C   0  0  0  0  0  0  0  0  0  0  0  0
  160.7280  209.2870  156.5000 S   0  0  0  0  0  0  0  0  0  0  0  0
  160.8240  206.5830  157.2600 C   0  0  0  0  0  1  0  0  0  0  0  0
  161.1590  211.0110  152.7850 C   0  0  0  0  0  2  0  0  0  0  0  0
  160.7940  207.3410  154.8790 N   0  0  0  0  0  0  0  0  0  0  0  0
  161.5320  205.8520  149.5980 C   0  0  2  0  0  3  0  0  0  0  0  0
  162.7090  205.9830  152.3840 O   0  0  0  0  0  1  0  0  0  0  0  0
  161.1500  205.0160  148.5480 O   0  0  0  0  0  1  0  0  0  0  0  0
  160.7450  208.4800  154.1410 C   0  0  0  0  0  0  0  0  0  0  0  0
  160.7870  207.6260  156.2020 C   0  0  0  0  0  0  0  0  0  0  0  0
  160.7280  209.6620  154.8640 C   0  0  0  0  0  0  0  0  0  0  0  0
  161.2600  208.1280  150.5060 N   0  0  0  0  0  0  0  0  0  0  0  0
  160.7670  208.5460  152.6780 C   0  0  0  0  0  0  0  0  0  0  0  0
  160.9420  205.3150  150.9090 C   0  0  0  0  0  2  0  0  0  0  0  0
  160.6380  211.0280  154.2380 C   0  0  0  0  0  2  0  0  0  0  0  0
  161.8280  207.8530  148.1360 C   0  0  0  0  0  1  0  0  0  0  0  0
  161.0610  207.2900  149.3210 C   0  0  1  0  0  3  0  0  0  0  0  0
  161.3510  206.1650  152.1130 C   0  0  2  0  0  3  0  0  0  0  0  0
  162.3750  210.3260  150.1920 C   0  0  0  0  0  2  0  0  0  0  0  0
  162.2340  213.8860  147.7950 C   0  0  0  0  0  2  0  0  0  0  0  0
  162.1990  211.4640  149.2260 C   0  0  0  0  0  0  0  0  0  0  0  0
  161.0700  212.4420  149.4650 C   0  0  0  0  0  2  0  0  0  0  0  0
  160.8830  213.4400  148.3250 C   0  0  0  0  0  2  0  0  0  0  0  0
  162.9400  212.6550  147.2490 C   0  0  0  0  0  2  0  0  0  0  0  0
  163.0400  211.6150  148.2540 N   0  0  0  0  0  0  0  0  0  0  0  0
  1 21  1  1  0  0  0
  1  2  1  0  0  0  0
  2 15  1  0  0  0  0
  2  6  1  1  0  0  0
  3 20  1  0  0  0  0
  3 15  2  0  0  0  0
  6 17  1  0  0  0  0
  7 12  2  0  0  0  0
  8 10  1  6  0  0  0
  8 16  1  0  0  0  0
 11 13  2  0  0  0  0
 11  7  1  0  0  0  0
 12  4  1  0  0  0  0
 12  5  1  0  0  0  0
 13  4  1  0  0  0  0
 14  1  1  0  0  0  0
 14  3  1  0  0  0  0
 15 11  1  0  0  0  0
 16 20  1  0  0  0  0
 17 13  1  0  0  0  0
 19 18  1  6  0  0  0
 19  8  1  0  0  0  0
 19 14  1  0  0  0  0
 20  9  1  6  0  0  0
 22 25  1  0  0  0  0
 23 24  1  0  0  0  0
 23 21  1  0  0  0  0
 25 24  1  0  0  0  0
 26 22  1  0  0  0  0
 26 27  1  0  0  0  0
 27 23  2  0  0  0  0
M  END
>  <MODEL>
5

>  <REMARK>
 VINA RESULT:      -6.4      3.056      7.117
  Name = 
  2 active torsions:
  status: ('A' for Active; 'I' for Inactive)
    1  A    between atoms: C_1  and  C_15
    2  A    between atoms: C_9  and  C_15
                            x       y       z     vdW  Elec       q    Type
                         _______ _______ _______ _____ _____    ______ ____

>  <TORSDO>
F 2

$$$$
=
 OpenBabel11052423193D

 27 31  0  0  1  0  0  0  0  0999 V2000
  161.4680  210.0630  152.2750 C   0  0  2  0  0  3  0  0  0  0  0  0
  161.8850  208.8660  151.3870 C   0  0  2  0  0  3  0  0  0  0  0  0
  161.3650  208.0670  153.4980 C   0  0  0  0  0  0  0  0  0  0  0  0
  161.3520  204.5890  149.9150 S   0  0  0  0  0  0  0  0  0  0  0  0
  161.2050  202.7240  152.0120 C   0  0  0  0  0  1  0  0  0  0  0  0
  161.2070  208.7040  150.0140 C   0  0  0  0  0  2  0  0  0  0  0  0
  161.4170  205.1870  152.3760 N   0  0  0  0  0  0  0  0  0  0  0  0
  161.0940  209.3090  156.0570 C   0  0  2  0  0  3  0  0  0  0  0  0
  159.7040  206.9540  154.7590 O   0  0  0  0  0  1  0  0  0  0  0  0
  161.5580  209.8540  157.2550 O   0  0  0  0  0  1  0  0  0  0  0  0
  161.5200  206.3470  151.6750 C   0  0  0  0  0  0  0  0  0  0  0  0
  161.3210  204.1280  151.5390 C   0  0  0  0  0  0  0  0  0  0  0  0
  161.4790  206.2190  150.2960 C   0  0  0  0  0  0  0  0  0  0  0  0
  161.2890  209.4810  153.6060 N   0  0  0  0  0  0  0  0  0  0  0  0
  161.6120  207.6870  152.2590 C   0  0  0  0  0  0  0  0  0  0  0  0
  161.5810  207.8590  155.9430 C   0  0  0  0  0  2  0  0  0  0  0  0
  161.6140  207.3750  149.3420 C   0  0  0  0  0  2  0  0  0  0  0  0
  160.9070  211.5190  154.9140 C   0  0  0  0  0  1  0  0  0  0  0  0
  161.5810  210.1580  154.8720 C   0  0  1  0  0  3  0  0  0  0  0  0
  161.0780  207.1830  154.6660 C   0  0  2  0  0  3  0  0  0  0  0  0
  160.1970  210.8060  151.8100 C   0  0  0  0  0  2  0  0  0  0  0  0
  160.4150  214.2380  149.2380 C   0  0  0  0  0  2  0  0  0  0  0  0
  160.4540  212.0510  151.0070 C   0  0  0  0  0  0  0  0  0  0  0  0
  161.2230  211.9230  149.7110 C   0  0  0  0  0  2  0  0  0  0  0  0
  161.5740  213.2700  149.0830 C   0  0  0  0  0  2  0  0  0  0  0  0
  160.1880  214.4440  150.7280 C   0  0  0  0  0  2  0  0  0  0  0  0
  159.9690  213.1820  151.4080 N   0  0  0  0  0  0  0  0  0  0  0  0
  1 21  1  6  0  0  0
  1 14  1  0  0  0  0
  2  6  1  6  0  0  0
  2 15  1  0  0  0  0
  2  1  1  0  0  0  0
  3 14  1  0  0  0  0
  3 20  1  0  0  0  0
  4 13  1  0  0  0  0
  4 12  1  0  0  0  0
  8 10  1  1  0  0  0
 11 15  1  0  0  0  0
 11  7  1  0  0  0  0
 12  5  1  0  0  0  0
 12  7  2  0  0  0  0
 13 11  2  0  0  0  0
 14 19  1  0  0  0  0
 15  3  2  0  0  0  0
 16  8  1  0  0  0  0
 17  6  1  0  0  0  0
 17 13  1  0  0  0  0
 19 18  1  6  0  0  0
 19  8  1  0  0  0  0
 20  9  1  1  0  0  0
 20 16  1  0  0  0  0
 22 26  1  0  0  0  0
 23 27  2  0  0  0  0
 23 21  1  0  0  0  0
 24 23  1  0  0  0  0
 25 22  1  0  0  0  0
 25 24  1  0  0  0  0
 26 27  1  0  0  0  0
M  END
>  <MODEL>
6

>  <REMARK>
 VINA RESULT:      -5.2      3.079      5.807
  Name = 
  2 active torsions:
  status: ('A' for Active; 'I' for Inactive)
    1  A    between atoms: C_1  and  C_15
    2  A    between atoms: C_9  and  C_15
                            x       y       z     vdW  Elec       q    Type
                         _______ _______ _______ _____ _____    ______ ____

>  <TORSDO>
F 2

$$$$
=
 OpenBabel11052423193D

 27 31  0  0  1  0  0  0  0  0999 V2000
  162.2280  208.1550  149.1240 C   0  0  2  0  0  3  0  0  0  0  0  0
  162.5410  206.9900  148.1560 C   0  0  2  0  0  3  0  0  0  0  0  0
  161.6630  206.1050  150.1080 C   0  0  0  0  0  0  0  0  0  0  0  0
  161.4860  203.0210  146.1840 S   0  0  0  0  0  0  0  0  0  0  0  0
  160.8000  201.0280  148.0430 C   0  0  0  0  0  1  0  0  0  0  0  0
  162.0050  207.0730  146.7150 C   0  0  0  0  0  2  0  0  0  0  0  0
  161.3690  203.3740  148.6910 N   0  0  0  0  0  0  0  0  0  0  0  0
  161.3100  207.1390  152.7490 C   0  0  2  0  0  3  0  0  0  0  0  0
  159.7100  205.1890  151.0760 O   0  0  0  0  0  1  0  0  0  0  0  0
  161.7190  207.4840  154.0380 O   0  0  0  0  0  1  0  0  0  0  0  0
  161.7390  204.5560  148.1330 C   0  0  0  0  0  0  0  0  0  0  0  0
  161.1970  202.4280  147.7390 C   0  0  0  0  0  0  0  0  0  0  0  0
  161.8340  204.5630  146.7510 C   0  0  0  0  0  0  0  0  0  0  0  0
  161.8070  207.4950  150.3610 N   0  0  0  0  0  0  0  0  0  0  0  0
  161.9820  205.8020  148.8650 C   0  0  0  0  0  0  0  0  0  0  0  0
  161.5640  205.6420  152.5250 C   0  0  0  0  0  2  0  0  0  0  0  0
  162.2630  205.7600  145.9450 C   0  0  0  0  0  2  0  0  0  0  0  0
  161.6170  209.4420  151.8400 C   0  0  0  0  0  1  0  0  0  0  0  0
  162.0600  207.9940  151.7150 C   0  0  1  0  0  3  0  0  0  0  0  0
  161.1040  205.1830  151.1410 C   0  0  2  0  0  3  0  0  0  0  0  0
  161.1560  209.1470  148.6230 C   0  0  0  0  0  2  0  0  0  0  0  0
  162.4420  213.2070  148.0720 C   0  0  0  0  0  2  0  0  0  0  0  0
  161.6820  210.5040  148.2460 C   0  0  0  0  0  0  0  0  0  0  0  0
  160.7610  211.4500  147.5070 C   0  0  0  0  0  2  0  0  0  0  0  0
  161.4610  212.7180  147.0220 C   0  0  0  0  0  2  0  0  0  0  0  0
  163.4890  212.1200  148.2630 C   0  0  0  0  0  2  0  0  0  0  0  0
  162.8750  210.8510  148.6050 N   0  0  0  0  0  0  0  0  0  0  0  0
  1 21  1  6  0  0  0
  1 14  1  0  0  0  0
  2  6  1  6  0  0  0
  2 15  1  0  0  0  0
  2  1  1  0  0  0  0
  3 14  1  0  0  0  0
  3 20  1  0  0  0  0
  4 13  1  0  0  0  0
  4 12  1  0  0  0  0
  8 10  1  1  0  0  0
 11  7  1  0  0  0  0
 11 15  1  0  0  0  0
 12  5  1  0  0  0  0
 12  7  2  0  0  0  0
 13 11  2  0  0  0  0
 14 19  1  0  0  0  0
 15  3  2  0  0  0  0
 16  8  1  0  0  0  0
 17  6  1  0  0  0  0
 17 13  1  0  0  0  0
 19 18  1  6  0  0  0
 19  8  1  0  0  0  0
 20  9  1  1  0  0  0
 20 16  1  0  0  0  0
 22 26  1  0  0  0  0
 23 27  2  0  0  0  0
 23 21  1  0  0  0  0
 24 23  1  0  0  0  0
 25 24  1  0  0  0  0
 25 22  1  0  0  0  0
 26 27  1  0  0  0  0
M  END
>  <MODEL>
7

>  <REMARK>
 VINA RESULT:      -4.7      2.567      5.422
  Name = 
  2 active torsions:
  status: ('A' for Active; 'I' for Inactive)
    1  A    between atoms: C_1  and  C_15
    2  A    between atoms: C_9  and  C_15
                            x       y       z     vdW  Elec       q    Type
                         _______ _______ _______ _____ _____    ______ ____

>  <TORSDO>
F 2

$$$$
=
 OpenBabel11052423193D

 27 31  0  0  1  0  0  0  0  0999 V2000
  161.6720  202.9010  148.4450 C   0  0  2  0  0  3  0  0  0  0  0  0
  161.8580  203.2510  149.9410 C   0  0  2  0  0  3  0  0  0  0  0  0
  161.6090  205.2240  148.7520 C   0  0  0  0  0  0  0  0  0  0  0  0
  160.7910  205.6560  153.6590 S   0  0  0  0  0  0  0  0  0  0  0  0
  160.8280  208.4300  153.2120 C   0  0  0  0  0  1  0  0  0  0  0  0
  160.9680  202.5370  150.9750 C   0  0  0  0  0  2  0  0  0  0  0  0
  161.2750  206.7440  151.4230 N   0  0  0  0  0  0  0  0  0  0  0  0
  161.8240  205.8880  145.9810 C   0  0  2  0  0  3  0  0  0  0  0  0
  160.0820  206.9480  148.2180 O   0  0  0  0  0  1  0  0  0  0  0  0
  162.5050  206.2030  144.8040 O   0  0  0  0  0  1  0  0  0  0  0  0
  161.3560  205.3990  151.2440 C   0  0  0  0  0  0  0  0  0  0  0  0
  160.9740  207.0390  152.7080 C   0  0  0  0  0  0  0  0  0  0  0  0
  161.0950  204.6290  152.3660 C   0  0  0  0  0  0  0  0  0  0  0  0
  161.6550  204.1990  147.7690 N   0  0  0  0  0  0  0  0  0  0  0  0
  161.6340  204.7260  149.9730 C   0  0  0  0  0  0  0  0  0  0  0  0
  162.1800  206.9190  147.0590 C   0  0  0  0  0  2  0  0  0  0  0  0
  161.1680  203.1260  152.3880 C   0  0  0  0  0  2  0  0  0  0  0  0
  161.6290  203.4620  145.4310 C   0  0  0  0  0  1  0  0  0  0  0  0
  162.1860  204.4630  146.4300 C   0  0  1  0  0  3  0  0  0  0  0  0
  161.4390  206.6570  148.3720 C   0  0  2  0  0  3  0  0  0  0  0  0
  160.4030  202.0830  148.1220 C   0  0  0  0  0  2  0  0  0  0  0  0
  160.4270  198.8810  145.2600 C   0  0  0  0  0  2  0  0  0  0  0  0
  160.5740  201.0610  147.0320 C   0  0  0  0  0  0  0  0  0  0  0  0
  161.4800  199.8790  147.2920 C   0  0  0  0  0  2  0  0  0  0  0  0
  161.7140  199.0140  146.0560 C   0  0  0  0  0  2  0  0  0  0  0  0
  160.0250  200.2760  144.8050 C   0  0  0  0  0  2  0  0  0  0  0  0
  159.9070  201.1840  145.9300 N   0  0  0  0  0  0  0  0  0  0  0  0
  1 21  1  1  0  0  0
  1  2  1  0  0  0  0
  2 15  1  0  0  0  0
  2  6  1  1  0  0  0
  3 15  2  0  0  0  0
  6 17  1  0  0  0  0
  7 12  2  0  0  0  0
  8 10  1  6  0  0  0
  8 19  1  0  0  0  0
  8 16  1  0  0  0  0
 11  7  1  0  0  0  0
 11 13  2  0  0  0  0
 12  5  1  0  0  0  0
 12  4  1  0  0  0  0
 13 17  1  0  0  0  0
 13  4  1  0  0  0  0
 14  1  1  0  0  0  0
 14  3  1  0  0  0  0
 15 11  1  0  0  0  0
 16 20  1  0  0  0  0
 19 18  1  6  0  0  0
 19 14  1  0  0  0  0
 20  9  1  6  0  0  0
 20  3  1  0  0  0  0
 22 25  1  0  0  0  0
 23 24  1  0  0  0  0
 23 21  1  0  0  0  0
 25 24  1  0  0  0  0
 26 22  1  0  0  0  0
 26 27  1  0  0  0  0
 27 23  2  0  0  0  0
M  END
>  <MODEL>
8

>  <REMARK>
 VINA RESULT:      -4.5      2.780      7.498
  Name = 
  2 active torsions:
  status: ('A' for Active; 'I' for Inactive)
    1  A    between atoms: C_1  and  C_15
    2  A    between atoms: C_9  and  C_15
                            x       y       z     vdW  Elec       q    Type
                         _______ _______ _______ _____ _____    ______ ____

>  <TORSDO>
F 2

$$$$
