=
 OpenBabel11052422093D

 25 27  0  0  1  0  0  0  0  0999 V2000
  161.5690  206.8840  148.1580 C   0  0  0  0  0  0  0  0  0  0  0  0
  161.3750  206.2270  149.3930 C   0  0  0  0  0  0  0  0  0  0  0  0
  162.1680  208.8950  149.3690 C   0  0  0  0  0  3  0  0  0  0  0  0
  161.9740  208.2490  150.5480 N   0  0  0  0  0  0  0  0  0  0  0  0
  161.3860  206.3150  151.8330 C   0  0  0  0  0  0  0  0  0  0  0  0
  161.5940  207.0070  153.0190 O   0  0  0  0  0  1  0  0  0  0  0  0
  160.9550  204.8910  149.4600 C   0  0  0  0  0  3  0  0  0  0  0  0
  161.9690  208.2260  148.1610 C   0  0  0  0  0  3  0  0  0  0  0  0
  160.9710  204.9810  151.8770 C   0  0  0  0  0  3  0  0  0  0  0  0
  160.7520  204.2690  150.6950 C   0  0  0  0  0  0  0  0  0  0  0  0
  161.5860  206.9460  150.5950 C   0  0  0  0  0  0  0  0  0  0  0  0
  161.3880  206.1960  146.8570 C   0  0  0  0  0  0  0  0  0  0  0  0
  160.9300  204.9290  144.4180 C   0  0  0  0  0  3  0  0  0  0  0  0
  162.3310  205.2740  146.3510 C   0  0  0  0  0  0  0  0  0  0  0  0
  162.0970  204.6440  145.1280 C   0  0  0  0  0  3  0  0  0  0  0  0
  160.0290  205.8160  144.9160 N   0  0  0  0  0  0  0  0  0  0  0  0
  163.6060  204.9740  147.0670 C   0  0  0  0  0  1  0  0  0  0  0  0
  160.2310  206.4450  146.1040 C   0  0  0  0  0  3  0  0  0  0  0  0
  160.3000  202.8450  150.7440 C   0  0  0  0  0  2  0  0  0  0  0  0
  161.1940  201.8900  149.9440 C   0  0  1  0  0  3  0  0  0  0  0  0
  161.4870  200.7390  150.6810 O   0  0  0  0  0  1  0  0  0  0  0  0
  161.0550  202.4480  147.6150 F   0  0  0  0  0  0  0  0  0  0  0  0
  161.0710  200.2660  148.1940 F   0  0  0  0  0  0  0  0  0  0  0  0
  159.2610  201.5320  148.6140 F   0  0  0  0  0  0  0  0  0  0  0  0
  160.6430  201.5290  148.5630 C   0  0  0  0  0  0  0  0  0  0  0  0
  1  8  2  0  0  0  0
  1  2  1  0  0  0  0
  2  7  2  0  0  0  0
  2 11  1  0  0  0  0
  3  4  2  0  0  0  0
  4 11  1  0  0  0  0
  5  9  1  0  0  0  0
  5  6  1  0  0  0  0
  7 10  1  0  0  0  0
  8  3  1  0  0  0  0
 10 19  1  0  0  0  0
 10  9  2  0  0  0  0
 11  5  2  0  0  0  0
 12  1  1  0  0  0  0
 13 16  2  0  0  0  0
 13 15  1  0  0  0  0
 14 12  1  0  0  0  0
 14 17  1  0  0  0  0
 15 14  2  0  0  0  0
 16 18  1  0  0  0  0
 18 12  2  0  0  0  0
 20 21  1  1  0  0  0
 20 19  1  0  0  0  0
 22 25  1  0  0  0  0
 23 25  1  0  0  0  0
 25 24  1  0  0  0  0
 25 20  1  0  0  0  0
M  END
>  <MODEL>
1

>  <REMARK>
 VINA RESULT:      -8.5      0.000      0.000
  Name = 
  4 active torsions:
  status: ('A' for Active; 'I' for Inactive)
    1  A    between atoms: C_1  and  C_5
    2  A    between atoms: C_6  and  C_15
    3  A    between atoms: C_6  and  C_23
    4  A    between atoms: C_15  and  C_21
                            x       y       z     vdW  Elec       q    Type
                         _______ _______ _______ _____ _____    ______ ____

>  <TORSDO>
F 4

$$$$
=
 OpenBabel11052422093D

 25 27  0  0  1  0  0  0  0  0999 V2000
  161.3220  205.8380  148.3050 C   0  0  0  0  0  0  0  0  0  0  0  0
  161.1470  204.6590  149.0640 C   0  0  0  0  0  0  0  0  0  0  0  0
  161.4810  207.0930  150.3710 C   0  0  0  0  0  3  0  0  0  0  0  0
  161.3080  205.9510  151.0860 N   0  0  0  0  0  0  0  0  0  0  0  0
  160.9550  203.5880  151.2500 C   0  0  0  0  0  0  0  0  0  0  0  0
  160.9530  203.6580  152.6370 O   0  0  0  0  0  1  0  0  0  0  0  0
  160.9520  203.4120  148.4550 C   0  0  0  0  0  3  0  0  0  0  0  0
  161.4910  207.0550  148.9770 C   0  0  0  0  0  3  0  0  0  0  0  0
  160.7670  202.3540  150.6230 C   0  0  0  0  0  3  0  0  0  0  0  0
  160.7620  202.2630  149.2280 C   0  0  0  0  0  0  0  0  0  0  0  0
  161.1410  204.7460  150.4780 C   0  0  0  0  0  0  0  0  0  0  0  0
  161.3600  205.8280  146.8230 C   0  0  0  0  0  0  0  0  0  0  0  0
  161.3090  205.8210  144.0380 C   0  0  0  0  0  3  0  0  0  0  0  0
  162.4640  205.3290  146.0980 C   0  0  0  0  0  0  0  0  0  0  0  0
  162.4330  205.3300  144.7030 C   0  0  0  0  0  3  0  0  0  0  0  0
  160.2520  206.2970  144.7470 N   0  0  0  0  0  0  0  0  0  0  0  0
  163.6960  204.8300  146.7770 C   0  0  0  0  0  1  0  0  0  0  0  0
  160.2540  206.3090  146.1060 C   0  0  0  0  0  3  0  0  0  0  0  0
  160.5520  200.9430  148.5580 C   0  0  0  0  0  2  0  0  0  0  0  0
  161.3060  200.8030  147.2300 C   0  0  1  0  0  3  0  0  0  0  0  0
  161.7830  199.5010  147.0580 O   0  0  0  0  0  1  0  0  0  0  0  0
  160.4570  200.2580  145.0530 F   0  0  0  0  0  0  0  0  0  0  0  0
  159.2170  201.5980  146.3820 F   0  0  0  0  0  0  0  0  0  0  0  0
  161.1150  202.3700  145.4560 F   0  0  0  0  0  0  0  0  0  0  0  0
  160.5050  201.2580  146.0080 C   0  0  0  0  0  0  0  0  0  0  0  0
  1  8  2  0  0  0  0
  1  2  1  0  0  0  0
  2 11  1  0  0  0  0
  3  4  2  0  0  0  0
  5  6  1  0  0  0  0
  7  2  2  0  0  0  0
  7 10  1  0  0  0  0
  8  3  1  0  0  0  0
  9  5  1  0  0  0  0
 10  9  2  0  0  0  0
 11  4  1  0  0  0  0
 11  5  2  0  0  0  0
 12  1  1  0  0  0  0
 13 15  2  0  0  0  0
 13 16  1  0  0  0  0
 14 17  1  0  0  0  0
 14 12  2  0  0  0  0
 15 14  1  0  0  0  0
 16 18  2  0  0  0  0
 18 12  1  0  0  0  0
 19 10  1  0  0  0  0
 20 21  1  6  0  0  0
 20 19  1  0  0  0  0
 22 25  1  0  0  0  0
 24 25  1  0  0  0  0
 25 23  1  0  0  0  0
 25 20  1  0  0  0  0
M  END
>  <MODEL>
2

>  <REMARK>
 VINA RESULT:      -8.5      1.704      2.321
  Name = 
  4 active torsions:
  status: ('A' for Active; 'I' for Inactive)
    1  A    between atoms: C_1  and  C_5
    2  A    between atoms: C_6  and  C_15
    3  A    between atoms: C_6  and  C_23
    4  A    between atoms: C_15  and  C_21
                            x       y       z     vdW  Elec       q    Type
                         _______ _______ _______ _____ _____    ______ ____

>  <TORSDO>
F 4

$$$$
=
 OpenBabel11052422093D

 25 27  0  0  1  0  0  0  0  0999 V2000
  161.2570  205.3810  150.7370 C   0  0  0  0  0  0  0  0  0  0  0  0
  161.2140  204.2550  149.8860 C   0  0  0  0  0  0  0  0  0  0  0  0
  160.8470  203.9180  152.6240 C   0  0  0  0  0  3  0  0  0  0  0  0
  160.8050  202.8460  151.7910 N   0  0  0  0  0  0  0  0  0  0  0  0
  160.9200  201.8460  149.6190 C   0  0  0  0  0  0  0  0  0  0  0  0
  160.6960  200.5850  150.1580 O   0  0  0  0  0  1  0  0  0  0  0  0
  161.3710  204.3720  148.4980 C   0  0  0  0  0  3  0  0  0  0  0  0
  161.0720  205.1960  152.1130 C   0  0  0  0  0  3  0  0  0  0  0  0
  161.0830  201.9840  148.2380 C   0  0  0  0  0  3  0  0  0  0  0  0
  161.3050  203.2440  147.6760 C   0  0  0  0  0  0  0  0  0  0  0  0
  160.9790  202.9760  150.4490 C   0  0  0  0  0  0  0  0  0  0  0  0
  161.5170  206.7500  150.2290 C   0  0  0  0  0  0  0  0  0  0  0  0
  162.0440  209.2710  149.1680 C   0  0  0  0  0  3  0  0  0  0  0  0
  161.6510  207.8630  151.0870 C   0  0  0  0  0  0  0  0  0  0  0  0
  161.9130  209.1240  150.5490 C   0  0  0  0  0  3  0  0  0  0  0  0
  161.9150  208.1920  148.3530 N   0  0  0  0  0  0  0  0  0  0  0  0
  161.4810  207.7470  152.5650 C   0  0  0  0  0  1  0  0  0  0  0  0
  161.6590  206.9520  148.8480 C   0  0  0  0  0  3  0  0  0  0  0  0
  161.4710  203.3920  146.1970 C   0  0  0  0  0  2  0  0  0  0  0  0
  161.7170  204.8390  145.7490 C   0  0  1  0  0  3  0  0  0  0  0  0
  163.0550  205.0350  145.3980 O   0  0  0  0  0  1  0  0  0  0  0  0
  159.9590  206.3290  145.0860 F   0  0  0  0  0  0  0  0  0  0  0  0
  161.5220  205.7680  143.5560 F   0  0  0  0  0  0  0  0  0  0  0  0
  159.9980  204.2540  144.2190 F   0  0  0  0  0  0  0  0  0  0  0  0
  160.7840  205.3140  144.6340 C   0  0  0  0  0  0  0  0  0  0  0  0
  1  8  1  0  0  0  0
  2 11  1  0  0  0  0
  2  1  2  0  0  0  0
  4  3  1  0  0  0  0
  5  6  1  0  0  0  0
  5 11  1  0  0  0  0
  7  2  1  0  0  0  0
  8  3  2  0  0  0  0
  9  5  2  0  0  0  0
 10  9  1  0  0  0  0
 10  7  2  0  0  0  0
 11  4  2  0  0  0  0
 12  1  1  0  0  0  0
 12 14  1  0  0  0  0
 13 15  1  0  0  0  0
 14 17  1  0  0  0  0
 15 14  2  0  0  0  0
 16 18  1  0  0  0  0
 16 13  2  0  0  0  0
 18 12  2  0  0  0  0
 19 10  1  0  0  0  0
 20 21  1  6  0  0  0
 20 19  1  0  0  0  0
 23 25  1  0  0  0  0
 24 25  1  0  0  0  0
 25 22  1  0  0  0  0
 25 20  1  0  0  0  0
M  END
>  <MODEL>
3

>  <REMARK>
 VINA RESULT:      -8.4      2.647      5.176
  Name = 
  4 active torsions:
  status: ('A' for Active; 'I' for Inactive)
    1  A    between atoms: C_1  and  C_5
    2  A    between atoms: C_6  and  C_15
    3  A    between atoms: C_6  and  C_23
    4  A    between atoms: C_15  and  C_21
                            x       y       z     vdW  Elec       q    Type
                         _______ _______ _______ _____ _____    ______ ____

>  <TORSDO>
F 4

$$$$
=
 OpenBabel11052422093D

 25 27  0  0  1  0  0  0  0  0999 V2000
  161.2810  205.7770  151.8020 C   0  0  0  0  0  0  0  0  0  0  0  0
  161.2670  205.1660  150.5280 C   0  0  0  0  0  0  0  0  0  0  0  0
  160.9190  203.6000  152.8030 C   0  0  0  0  0  3  0  0  0  0  0  0
  160.9040  203.0300  151.5700 N   0  0  0  0  0  0  0  0  0  0  0  0
  161.0390  203.1420  149.1820 C   0  0  0  0  0  0  0  0  0  0  0  0
  160.8530  201.7700  149.0800 O   0  0  0  0  0  1  0  0  0  0  0  0
  161.4150  205.9120  149.3510 C   0  0  0  0  0  3  0  0  0  0  0  0
  161.1060  204.9760  152.9380 C   0  0  0  0  0  3  0  0  0  0  0  0
  161.1940  203.9040  148.0210 C   0  0  0  0  0  3  0  0  0  0  0  0
  161.3790  205.2870  148.1020 C   0  0  0  0  0  0  0  0  0  0  0  0
  161.0700  203.7660  150.4390 C   0  0  0  0  0  0  0  0  0  0  0  0
  161.5010  207.2320  151.9820 C   0  0  0  0  0  0  0  0  0  0  0  0
  161.9950  209.9620  152.2270 C   0  0  0  0  0  3  0  0  0  0  0  0
  161.1450  207.9100  153.1680 C   0  0  0  0  0  0  0  0  0  0  0  0
  161.3940  209.2790  153.2840 C   0  0  0  0  0  3  0  0  0  0  0  0
  162.3350  209.2990  151.0920 N   0  0  0  0  0  0  0  0  0  0  0  0
  160.4680  207.2170  154.3030 C   0  0  0  0  0  1  0  0  0  0  0  0
  162.1050  207.9660  150.9500 C   0  0  0  0  0  3  0  0  0  0  0  0
  161.5350  206.1020  146.8580 C   0  0  0  0  0  2  0  0  0  0  0  0
  160.7170  205.5750  145.6730 C   0  0  1  0  0  3  0  0  0  0  0  0
  160.1400  206.6260  144.9540 O   0  0  0  0  0  1  0  0  0  0  0  0
  162.8060  204.5110  145.1650 F   0  0  0  0  0  0  0  0  0  0  0  0
  160.8970  203.3920  144.7160 F   0  0  0  0  0  0  0  0  0  0  0  0
  161.4870  205.1650  143.4650 F   0  0  0  0  0  0  0  0  0  0  0  0
  161.4940  204.6400  144.7440 C   0  0  0  0  0  0  0  0  0  0  0  0
  1 12  1  0  0  0  0
  1  8  1  0  0  0  0
  2  1  2  0  0  0  0
  3  8  2  0  0  0  0
  4  3  1  0  0  0  0
  5 11  1  0  0  0  0
  6  5  1  0  0  0  0
  7  2  1  0  0  0  0
  9 10  1  0  0  0  0
  9  5  2  0  0  0  0
 10  7  2  0  0  0  0
 11  2  1  0  0  0  0
 11  4  2  0  0  0  0
 12 14  1  0  0  0  0
 13 15  1  0  0  0  0
 14 15  2  0  0  0  0
 14 17  1  0  0  0  0
 16 13  2  0  0  0  0
 18 16  1  0  0  0  0
 18 12  2  0  0  0  0
 19 10  1  0  0  0  0
 20 21  1  6  0  0  0
 20 19  1  0  0  0  0
 23 25  1  0  0  0  0
 24 25  1  0  0  0  0
 25 22  1  0  0  0  0
 25 20  1  0  0  0  0
M  END
>  <MODEL>
4

>  <REMARK>
 VINA RESULT:      -8.0      2.824      5.873
  Name = 
  4 active torsions:
  status: ('A' for Active; 'I' for Inactive)
    1  A    between atoms: C_1  and  C_5
    2  A    between atoms: C_6  and  C_15
    3  A    between atoms: C_6  and  C_23
    4  A    between atoms: C_15  and  C_21
                            x       y       z     vdW  Elec       q    Type
                         _______ _______ _______ _____ _____    ______ ____

>  <TORSDO>
F 4

$$$$
=
 OpenBabel11052422093D

 25 27  0  0  1  0  0  0  0  0999 V2000
  161.2620  203.1760  147.5100 C   0  0  0  0  0  0  0  0  0  0  0  0
  161.0920  203.7830  148.7750 C   0  0  0  0  0  0  0  0  0  0  0  0
  161.2050  201.0080  148.5890 C   0  0  0  0  0  3  0  0  0  0  0  0
  161.0460  201.6080  149.7980 N   0  0  0  0  0  0  0  0  0  0  0  0
  160.8320  203.5440  151.1910 C   0  0  0  0  0  0  0  0  0  0  0  0
  160.7230  202.7490  152.3250 O   0  0  0  0  0  1  0  0  0  0  0  0
  161.0510  205.1760  148.9250 C   0  0  0  0  0  3  0  0  0  0  0  0
  161.3160  201.7790  147.4320 C   0  0  0  0  0  3  0  0  0  0  0  0
  160.7890  204.9350  151.3180 C   0  0  0  0  0  3  0  0  0  0  0  0
  160.9010  205.7510  150.1900 C   0  0  0  0  0  0  0  0  0  0  0  0
  160.9880  202.9600  149.9240 C   0  0  0  0  0  0  0  0  0  0  0  0
  161.3590  203.9660  146.2590 C   0  0  0  0  0  0  0  0  0  0  0  0
  161.4440  205.3910  143.8670 C   0  0  0  0  0  3  0  0  0  0  0  0
  162.5450  204.6280  145.8730 C   0  0  0  0  0  0  0  0  0  0  0  0
  162.5800  205.3420  144.6740 C   0  0  0  0  0  3  0  0  0  0  0  0
  160.3090  204.7480  144.2480 N   0  0  0  0  0  0  0  0  0  0  0  0
  163.7670  204.6260  146.7300 C   0  0  0  0  0  1  0  0  0  0  0  0
  160.2450  204.0460  145.4100 C   0  0  0  0  0  3  0  0  0  0  0  0
  160.8640  207.2400  150.3290 C   0  0  0  0  0  2  0  0  0  0  0  0
  161.7700  207.7750  151.4450 C   0  0  1  0  0  3  0  0  0  0  0  0
  162.6930  208.6970  150.9440 O   0  0  0  0  0  1  0  0  0  0  0  0
  160.4320  207.3440  153.3890 F   0  0  0  0  0  0  0  0  0  0  0  0
  161.8720  209.0830  153.4430 F   0  0  0  0  0  0  0  0  0  0  0  0
  160.0150  209.1940  152.1800 F   0  0  0  0  0  0  0  0  0  0  0  0
  161.0120  208.3540  152.6410 C   0  0  0  0  0  0  0  0  0  0  0  0
  1  2  1  0  0  0  0
  2  7  2  0  0  0  0
  2 11  1  0  0  0  0
  3  4  2  0  0  0  0
  4 11  1  0  0  0  0
  5  9  1  0  0  0  0
  5  6  1  0  0  0  0
  7 10  1  0  0  0  0
  8  1  2  0  0  0  0
  8  3  1  0  0  0  0
 10 19  1  0  0  0  0
 10  9  2  0  0  0  0
 11  5  2  0  0  0  0
 12  1  1  0  0  0  0
 13 16  2  0  0  0  0
 13 15  1  0  0  0  0
 14 12  1  0  0  0  0
 14 17  1  0  0  0  0
 15 14  2  0  0  0  0
 16 18  1  0  0  0  0
 18 12  2  0  0  0  0
 19 20  1  0  0  0  0
 20 21  1  6  0  0  0
 20 25  1  0  0  0  0
 24 25  1  0  0  0  0
 25 22  1  0  0  0  0
 25 23  1  0  0  0  0
M  END
>  <MODEL>
5

>  <REMARK>
 VINA RESULT:      -7.9      3.429      5.126
  Name = 
  4 active torsions:
  status: ('A' for Active; 'I' for Inactive)
    1  A    between atoms: C_1  and  C_5
    2  A    between atoms: C_6  and  C_15
    3  A    between atoms: C_6  and  C_23
    4  A    between atoms: C_15  and  C_21
                            x       y       z     vdW  Elec       q    Type
                         _______ _______ _______ _____ _____    ______ ____

>  <TORSDO>
F 4

$$$$
=
 OpenBabel11052422093D

 25 27  0  0  1  0  0  0  0  0999 V2000
  161.2950  203.1470  147.8050 C   0  0  0  0  0  0  0  0  0  0  0  0
  161.1080  203.7780  149.0550 C   0  0  0  0  0  0  0  0  0  0  0  0
  161.2060  201.0000  148.9240 C   0  0  0  0  0  3  0  0  0  0  0  0
  161.0300  201.6230  150.1180 N   0  0  0  0  0  0  0  0  0  0  0  0
  160.8060  203.5860  151.4700 C   0  0  0  0  0  0  0  0  0  0  0  0
  160.6720  202.8140  152.6170 O   0  0  0  0  0  1  0  0  0  0  0  0
  161.0740  205.1740  149.1790 C   0  0  0  0  0  3  0  0  0  0  0  0
  161.3410  201.7480  147.7550 C   0  0  0  0  0  3  0  0  0  0  0  0
  160.7700  204.9800  151.5710 C   0  0  0  0  0  3  0  0  0  0  0  0
  160.9070  205.7740  150.4300 C   0  0  0  0  0  0  0  0  0  0  0  0
  160.9790  202.9780  150.2180 C   0  0  0  0  0  0  0  0  0  0  0  0
  161.4190  203.9130  146.5410 C   0  0  0  0  0  0  0  0  0  0  0  0
  161.6860  205.4480  144.2320 C   0  0  0  0  0  3  0  0  0  0  0  0
  160.7840  203.5070  145.3470 C   0  0  0  0  0  0  0  0  0  0  0  0
  160.9240  204.2800  144.1930 C   0  0  0  0  0  3  0  0  0  0  0  0
  162.2900  205.8280  145.3880 N   0  0  0  0  0  0  0  0  0  0  0  0
  159.9920  202.2450  145.2600 C   0  0  0  0  0  1  0  0  0  0  0  0
  162.1720  205.0960  146.5270 C   0  0  0  0  0  3  0  0  0  0  0  0
  160.8770  207.2650  150.5400 C   0  0  0  0  0  2  0  0  0  0  0  0
  161.7970  207.8180  151.6360 C   0  0  1  0  0  3  0  0  0  0  0  0
  162.7060  208.7400  151.1110 O   0  0  0  0  0  1  0  0  0  0  0  0
  160.4560  207.4040  153.5820 F   0  0  0  0  0  0  0  0  0  0  0  0
  161.9310  209.1120  153.6410 F   0  0  0  0  0  0  0  0  0  0  0  0
  160.0730  209.2690  152.3840 F   0  0  0  0  0  0  0  0  0  0  0  0
  161.0540  208.4050  152.8370 C   0  0  0  0  0  0  0  0  0  0  0  0
  1  2  1  0  0  0  0
  2  7  2  0  0  0  0
  2 11  1  0  0  0  0
  3  4  2  0  0  0  0
  4 11  1  0  0  0  0
  5  9  1  0  0  0  0
  5  6  1  0  0  0  0
  7 10  1  0  0  0  0
  8  1  2  0  0  0  0
  8  3  1  0  0  0  0
 10 19  1  0  0  0  0
 10  9  2  0  0  0  0
 11  5  2  0  0  0  0
 12  1  1  0  0  0  0
 13 16  1  0  0  0  0
 14 12  2  0  0  0  0
 15 13  2  0  0  0  0
 15 14  1  0  0  0  0
 16 18  2  0  0  0  0
 17 14  1  0  0  0  0
 18 12  1  0  0  0  0
 19 20  1  0  0  0  0
 20 21  1  6  0  0  0
 20 25  1  0  0  0  0
 24 25  1  0  0  0  0
 25 22  1  0  0  0  0
 25 23  1  0  0  0  0
M  END
>  <MODEL>
6

>  <REMARK>
 VINA RESULT:      -7.8      3.542      5.293
  Name = 
  4 active torsions:
  status: ('A' for Active; 'I' for Inactive)
    1  A    between atoms: C_1  and  C_5
    2  A    between atoms: C_6  and  C_15
    3  A    between atoms: C_6  and  C_23
    4  A    between atoms: C_15  and  C_21
                            x       y       z     vdW  Elec       q    Type
                         _______ _______ _______ _____ _____    ______ ____

>  <TORSDO>
F 4

$$$$
=
 OpenBabel11052422093D

 25 27  0  0  1  0  0  0  0  0999 V2000
  161.2070  203.1470  147.5740 C   0  0  0  0  0  0  0  0  0  0  0  0
  161.0330  203.7140  148.8560 C   0  0  0  0  0  0  0  0  0  0  0  0
  161.2790  200.9530  148.6000 C   0  0  0  0  0  3  0  0  0  0  0  0
  161.1140  201.5150  149.8260 N   0  0  0  0  0  0  0  0  0  0  0  0
  160.8320  203.4050  151.2690 C   0  0  0  0  0  0  0  0  0  0  0  0
  160.7840  202.5790  152.3860 O   0  0  0  0  0  1  0  0  0  0  0  0
  160.9250  205.0990  149.0410 C   0  0  0  0  0  3  0  0  0  0  0  0
  161.3280  201.7560  147.4610 C   0  0  0  0  0  3  0  0  0  0  0  0
  160.7230  204.7880  151.4320 C   0  0  0  0  0  3  0  0  0  0  0  0
  160.7720  205.6360  150.3220 C   0  0  0  0  0  0  0  0  0  0  0  0
  160.9910  202.8600  149.9860 C   0  0  0  0  0  0  0  0  0  0  0  0
  161.2410  203.9700  146.3410 C   0  0  0  0  0  0  0  0  0  0  0  0
  161.2070  205.4540  143.9840 C   0  0  0  0  0  3  0  0  0  0  0  0
  162.3910  204.6820  145.9390 C   0  0  0  0  0  0  0  0  0  0  0  0
  162.3670  205.4260  144.7580 C   0  0  0  0  0  3  0  0  0  0  0  0
  160.1070  204.7620  144.3800 N   0  0  0  0  0  0  0  0  0  0  0  0
  163.6370  204.7030  146.7610 C   0  0  0  0  0  1  0  0  0  0  0  0
  160.1010  204.0300  145.5260 C   0  0  0  0  0  3  0  0  0  0  0  0
  160.6640  207.1170  150.4990 C   0  0  0  0  0  2  0  0  0  0  0  0
  161.9530  207.8720  150.1520 C   0  0  1  0  0  3  0  0  0  0  0  0
  163.0810  207.1470  150.5460 O   0  0  0  0  0  1  0  0  0  0  0  0
  160.8760  208.0180  148.0130 F   0  0  0  0  0  0  0  0  0  0  0  0
  162.3380  209.6400  148.5900 F   0  0  0  0  0  0  0  0  0  0  0  0
  163.0810  207.5790  148.0830 F   0  0  0  0  0  0  0  0  0  0  0  0
  162.0570  208.2880  148.6830 C   0  0  0  0  0  0  0  0  0  0  0  0
  1  2  1  0  0  0  0
  2  7  2  0  0  0  0
  2 11  1  0  0  0  0
  3  4  2  0  0  0  0
  4 11  1  0  0  0  0
  5  9  1  0  0  0  0
  5  6  1  0  0  0  0
  7 10  1  0  0  0  0
  8  1  2  0  0  0  0
  8  3  1  0  0  0  0
 10 19  1  0  0  0  0
 10  9  2  0  0  0  0
 11  5  2  0  0  0  0
 12  1  1  0  0  0  0
 13 16  2  0  0  0  0
 13 15  1  0  0  0  0
 14 12  1  0  0  0  0
 14 17  1  0  0  0  0
 15 14  2  0  0  0  0
 16 18  1  0  0  0  0
 18 12  2  0  0  0  0
 20 19  1  0  0  0  0
 20 21  1  6  0  0  0
 22 25  1  0  0  0  0
 23 25  1  0  0  0  0
 24 25  1  0  0  0  0
 25 20  1  0  0  0  0
M  END
>  <MODEL>
7

>  <REMARK>
 VINA RESULT:      -7.7      2.977      4.724
  Name = 
  4 active torsions:
  status: ('A' for Active; 'I' for Inactive)
    1  A    between atoms: C_1  and  C_5
    2  A    between atoms: C_6  and  C_15
    3  A    between atoms: C_6  and  C_23
    4  A    between atoms: C_15  and  C_21
                            x       y       z     vdW  Elec       q    Type
                         _______ _______ _______ _____ _____    ______ ____

>  <TORSDO>
F 4

$$$$
=
 OpenBabel11052422093D

 25 27  0  0  1  0  0  0  0  0999 V2000
  161.4720  208.6290  151.3330 C   0  0  0  0  0  0  0  0  0  0  0  0
  161.3060  207.5370  150.4520 C   0  0  0  0  0  0  0  0  0  0  0  0
  162.2690  209.9570  149.4710 C   0  0  0  0  0  3  0  0  0  0  0  0
  162.1070  208.8970  148.6370 N   0  0  0  0  0  0  0  0  0  0  0  0
  161.4950  206.6240  148.1960 C   0  0  0  0  0  0  0  0  0  0  0  0
  161.8120  206.7710  146.8520 O   0  0  0  0  0  1  0  0  0  0  0  0
  160.8460  206.2920  150.9000 C   0  0  0  0  0  3  0  0  0  0  0  0
  161.9560  209.8410  150.8250 C   0  0  0  0  0  3  0  0  0  0  0  0
  161.0300  205.3920  148.6620 C   0  0  0  0  0  3  0  0  0  0  0  0
  160.7090  205.2220  150.0110 C   0  0  0  0  0  0  0  0  0  0  0  0
  161.6400  207.7000  149.0850 C   0  0  0  0  0  0  0  0  0  0  0  0
  161.1270  208.5450  152.7730 C   0  0  0  0  0  0  0  0  0  0  0  0
  160.5000  208.2670  155.4730 C   0  0  0  0  0  3  0  0  0  0  0  0
  160.3910  209.5520  153.4340 C   0  0  0  0  0  0  0  0  0  0  0  0
  160.0810  209.4080  154.7880 C   0  0  0  0  0  3  0  0  0  0  0  0
  161.2060  207.3040  154.8250 N   0  0  0  0  0  0  0  0  0  0  0  0
  159.9590  210.8010  152.7400 C   0  0  0  0  0  1  0  0  0  0  0  0
  161.5220  207.4180  153.5080 C   0  0  0  0  0  3  0  0  0  0  0  0
  160.2200  203.8990  150.5100 C   0  0  0  0  0  2  0  0  0  0  0  0
  161.1820  202.7410  150.2200 C   0  0  1  0  0  3  0  0  0  0  0  0
  161.5430  202.0810  151.3970 O   0  0  0  0  0  1  0  0  0  0  0  0
  159.3300  201.4630  149.3860 F   0  0  0  0  0  0  0  0  0  0  0  0
  160.8270  202.2740  147.9020 F   0  0  0  0  0  0  0  0  0  0  0  0
  161.3940  200.5770  149.2640 F   0  0  0  0  0  0  0  0  0  0  0  0
  160.6670  201.7500  149.1730 C   0  0  0  0  0  0  0  0  0  0  0  0
  1 12  1  0  0  0  0
  2  7  1  0  0  0  0
  2  1  2  0  0  0  0
  3  8  2  0  0  0  0
  4 11  2  0  0  0  0
  4  3  1  0  0  0  0
  5  9  2  0  0  0  0
  5 11  1  0  0  0  0
  6  5  1  0  0  0  0
  8  1  1  0  0  0  0
  9 10  1  0  0  0  0
 10 19  1  0  0  0  0
 10  7  2  0  0  0  0
 11  2  1  0  0  0  0
 12 14  2  0  0  0  0
 12 18  1  0  0  0  0
 14 15  1  0  0  0  0
 15 13  2  0  0  0  0
 16 13  1  0  0  0  0
 17 14  1  0  0  0  0
 18 16  2  0  0  0  0
 20 19  1  0  0  0  0
 20 21  1  1  0  0  0
 23 25  1  0  0  0  0
 25 24  1  0  0  0  0
 25 22  1  0  0  0  0
 25 20  1  0  0  0  0
M  END
>  <MODEL>
8

>  <REMARK>
 VINA RESULT:      -7.6      2.543      5.397
  Name = 
  4 active torsions:
  status: ('A' for Active; 'I' for Inactive)
    1  A    between atoms: C_1  and  C_5
    2  A    between atoms: C_6  and  C_15
    3  A    between atoms: C_6  and  C_23
    4  A    between atoms: C_15  and  C_21
                            x       y       z     vdW  Elec       q    Type
                         _______ _______ _______ _____ _____    ______ ____

>  <TORSDO>
F 4

$$$$
=
 OpenBabel11052422093D

 25 27  0  0  1  0  0  0  0  0999 V2000
  161.2660  205.6030  149.3300 C   0  0  0  0  0  0  0  0  0  0  0  0
  161.3720  206.5540  150.3700 C   0  0  0  0  0  0  0  0  0  0  0  0
  161.5790  207.3870  147.7220 C   0  0  0  0  0  3  0  0  0  0  0  0
  161.6760  208.2890  148.7340 N   0  0  0  0  0  0  0  0  0  0  0  0
  161.6730  208.8780  151.0550 C   0  0  0  0  0  0  0  0  0  0  0  0
  161.8810  210.2150  150.7440 O   0  0  0  0  0  1  0  0  0  0  0  0
  161.2530  206.1890  151.7180 C   0  0  0  0  0  3  0  0  0  0  0  0
  161.3730  206.0370  148.0030 C   0  0  0  0  0  3  0  0  0  0  0  0
  161.5560  208.4920  152.3930 C   0  0  0  0  0  3  0  0  0  0  0  0
  161.3430  207.1520  152.7270 C   0  0  0  0  0  0  0  0  0  0  0  0
  161.5780  207.9160  150.0380 C   0  0  0  0  0  0  0  0  0  0  0  0
  161.0690  204.1570  149.5960 C   0  0  0  0  0  0  0  0  0  0  0  0
  160.7220  201.4630  150.2120 C   0  0  0  0  0  3  0  0  0  0  0  0
  161.1660  203.1820  148.5790 C   0  0  0  0  0  0  0  0  0  0  0  0
  160.9880  201.8340  148.8940 C   0  0  0  0  0  3  0  0  0  0  0  0
  160.6340  202.4100  151.1820 N   0  0  0  0  0  0  0  0  0  0  0  0
  161.4140  203.5470  147.1530 C   0  0  0  0  0  1  0  0  0  0  0  0
  160.8010  203.7300  150.9050 C   0  0  0  0  0  3  0  0  0  0  0  0
  161.2090  206.7430  154.1590 C   0  0  0  0  0  2  0  0  0  0  0  0
  160.4410  207.7560  155.0170 C   0  0  1  0  0  3  0  0  0  0  0  0
  159.3830  207.1420  155.6920 O   0  0  0  0  0  1  0  0  0  0  0  0
  162.2850  207.7310  156.5520 F   0  0  0  0  0  0  0  0  0  0  0  0
  161.9410  209.5920  155.3210 F   0  0  0  0  0  0  0  0  0  0  0  0
  160.5320  209.0690  156.9930 F   0  0  0  0  0  0  0  0  0  0  0  0
  161.3220  208.5480  155.9850 C   0  0  0  0  0  0  0  0  0  0  0  0
  1 12  1  0  0  0  0
  1  2  1  0  0  0  0
  2  7  1  0  0  0  0
  3  8  1  0  0  0  0
  3  4  2  0  0  0  0
  4 11  1  0  0  0  0
  5  9  2  0  0  0  0
  6  5  1  0  0  0  0
  7 10  2  0  0  0  0
  8  1  2  0  0  0  0
  9 10  1  0  0  0  0
 10 19  1  0  0  0  0
 11  2  2  0  0  0  0
 11  5  1  0  0  0  0
 12 18  1  0  0  0  0
 13 16  1  0  0  0  0
 14 15  1  0  0  0  0
 14 12  2  0  0  0  0
 15 13  2  0  0  0  0
 17 14  1  0  0  0  0
 18 16  2  0  0  0  0
 19 20  1  0  0  0  0
 20 21  1  1  0  0  0
 20 25  1  0  0  0  0
 23 25  1  0  0  0  0
 25 22  1  0  0  0  0
 25 24  1  0  0  0  0
M  END
>  <MODEL>
9

>  <REMARK>
 VINA RESULT:      -7.4      4.461      5.984
  Name = 
  4 active torsions:
  status: ('A' for Active; 'I' for Inactive)
    1  A    between atoms: C_1  and  C_5
    2  A    between atoms: C_6  and  C_15
    3  A    between atoms: C_6  and  C_23
    4  A    between atoms: C_15  and  C_21
                            x       y       z     vdW  Elec       q    Type
                         _______ _______ _______ _____ _____    ______ ____

>  <TORSDO>
F 4

$$$$
