=
 OpenBabel11062410463D

 32 36  0  0  1  0  0  0  0  0999 V2000
  160.5880  209.8500  154.5840 C   0  0  1  0  0  3  0  0  0  0  0  0
  161.7830  207.1980  150.2900 C   0  0  0  0  0  0  0  0  0  0  0  0
  160.4870  202.6390  151.3990 C   0  0  0  0  0  3  0  0  0  0  0  0
  160.8900  202.2180  150.1310 C   0  0  0  0  0  3  0  0  0  0  0  0
  162.0040  208.9180  152.1160 C   0  0  2  0  0  3  0  0  0  0  0  0
  160.8630  206.7610  152.5570 C   0  0  0  0  0  3  0  0  0  0  0  0
  160.8570  208.3540  154.3930 C   0  0  0  0  0  2  0  0  0  0  0  0
  160.6030  203.9830  151.7590 C   0  0  0  0  0  3  0  0  0  0  0  0
  161.2500  206.2810  151.2140 C   0  0  0  0  0  0  0  0  0  0  0  0
  161.1220  204.9240  150.8560 C   0  0  0  0  0  0  0  0  0  0  0  0
  162.0600  205.4290  148.6530 C   0  0  0  0  0  0  0  0  0  0  0  0
  161.6540  210.6910  153.8820 C   0  0  0  0  0  2  0  0  0  0  0  0
  161.1380  208.0030  152.9630 C   0  0  0  0  0  0  0  0  0  0  0  0
  161.6910  210.3880  152.3860 C   0  0  0  0  0  2  0  0  0  0  0  0
  161.4090  203.1390  149.2200 C   0  0  0  0  0  3  0  0  0  0  0  0
  161.5330  204.4950  149.5660 C   0  0  0  0  0  0  0  0  0  0  0  0
  161.8280  208.6600  150.6160 C   0  0  0  0  0  2  0  0  0  0  0  0
  162.1720  206.7720  149.0200 C   0  0  0  0  0  3  0  0  0  0  0  0
  159.1880  210.2360  154.1190 C   0  0  0  0  0  2  0  0  0  0  0  0
  158.9150  211.7000  154.4130 C   0  0  0  0  0  2  0  0  0  0  0  0
  158.1870  212.3140  153.2710 C   0  0  0  0  0  0  0  0  0  0  0  0
  158.5790  212.1110  152.0920 O   0  0  0  0  0  0  0  0  0  0  0  0
  157.0960  213.1410  153.5050 O   0  0  0  0  0  1  0  0  0  0  0  0
  162.5420  205.0250  147.2940 C   0  0  0  0  0  2  0  0  0  0  0  0
  161.3620  203.6390  145.4600 C   0  0  1  0  0  3  0  0  0  0  0  0
  160.6290  205.7640  145.8230 C   0  0  0  0  0  0  0  0  0  0  0  0
  160.0460  205.2860  144.5950 C   0  0  0  0  0  3  0  0  0  0  0  0
  160.4550  204.0760  144.3910 N   0  0  0  0  0  0  0  0  0  0  0  0
  160.4870  206.9210  146.2990 O   0  0  0  0  0  0  0  0  0  0  0  0
  161.4150  204.7490  146.4120 N   0  0  0  0  0  0  0  0  0  0  0  0
  160.8520  202.3570  146.1190 C   0  0  0  0  0  2  0  0  0  0  0  0
  160.0800  201.4750  145.1500 C   0  0  0  0  0  1  0  0  0  0  0  0
  1 19  1  6  0  0  0
  2 17  1  0  0  0  0
  2  9  1  0  0  0  0
  3  8  2  0  0  0  0
  4  3  1  0  0  0  0
  5 17  1  6  0  0  0
  5 14  1  0  0  0  0
  5 13  1  0  0  0  0
  6 13  2  0  0  0  0
  7  1  1  0  0  0  0
  9  6  1  0  0  0  0
 10  9  2  0  0  0  0
 10  8  1  0  0  0  0
 11 18  1  0  0  0  0
 11 16  2  0  0  0  0
 12  1  1  0  0  0  0
 13  7  1  0  0  0  0
 14 12  1  0  0  0  0
 15 16  1  0  0  0  0
 15  4  2  0  0  0  0
 16 10  1  0  0  0  0
 18  2  2  0  0  0  0
 19 20  1  0  0  0  0
 21 23  1  0  0  0  0
 21 20  1  0  0  0  0
 22 21  2  0  0  0  0
 24 11  1  0  0  0  0
 25 31  1  1  0  0  0
 25 30  1  0  0  0  0
 26 29  2  0  0  0  0
 26 30  1  0  0  0  0
 27 26  1  0  0  0  0
 28 27  2  0  0  0  0
 28 25  1  0  0  0  0
 30 24  1  0  0  0  0
 32 31  1  0  0  0  0
M  END
>  <MODEL>
1

>  <REMARK>
 VINA RESULT:      -8.5      0.000      0.000
  Name = 
  6 active torsions:
  status: ('A' for Active; 'I' for Inactive)
    1  A    between atoms: C_1  and  C_10
    2  A    between atoms: C_2  and  C_24
    3  A    between atoms: C_6  and  C_7
    4  A    between atoms: C_10  and  C_24
    5  A    between atoms: C_16  and  C_27
    6  A    between atoms: C_27  and  N_32
                            x       y       z     vdW  Elec       q    Type
                         _______ _______ _______ _____ _____    ______ ____

>  <TORSDO>
F 6

$$$$
=
 OpenBabel11062410463D

 32 36  0  0  1  0  0  0  0  0999 V2000
  162.2580  205.5600  151.9560 C   0  0  1  0  0  3  0  0  0  0  0  0
  160.4730  210.4290  151.9080 C   0  0  0  0  0  0  0  0  0  0  0  0
  162.5210  212.3270  147.9210 C   0  0  0  0  0  3  0  0  0  0  0  0
  161.8760  213.5390  148.1690 C   0  0  0  0  0  3  0  0  0  0  0  0
  161.3450  208.2650  152.8560 C   0  0  2  0  0  3  0  0  0  0  0  0
  161.9980  208.9880  150.5760 C   0  0  0  0  0  3  0  0  0  0  0  0
  162.8210  206.8080  151.2690 C   0  0  0  0  0  2  0  0  0  0  0  0
  162.3340  211.2450  148.7840 C   0  0  0  0  0  3  0  0  0  0  0  0
  161.3090  210.2780  150.7870 C   0  0  0  0  0  0  0  0  0  0  0  0
  161.4980  211.3620  149.9060 C   0  0  0  0  0  0  0  0  0  0  0  0
  160.0060  212.7260  151.2840 C   0  0  0  0  0  0  0  0  0  0  0  0
  161.8790  205.8580  153.4070 C   0  0  0  0  0  2  0  0  0  0  0  0
  161.9630  208.0170  151.4920 C   0  0  0  0  0  0  0  0  0  0  0  0
  160.8350  206.9690  153.4810 C   0  0  0  0  0  2  0  0  0  0  0  0
  161.0420  213.6740  149.2800 C   0  0  0  0  0  3  0  0  0  0  0  0
  160.8430  212.5960  150.1590 C   0  0  0  0  0  0  0  0  0  0  0  0
  160.1790  209.2580  152.7950 C   0  0  0  0  0  2  0  0  0  0  0  0
  159.8230  211.6400  152.1420 C   0  0  0  0  0  3  0  0  0  0  0  0
  161.0770  204.9760  151.1880 C   0  0  0  0  0  2  0  0  0  0  0  0
  160.9590  203.4850  151.4470 C   0  0  0  0  0  2  0  0  0  0  0  0
  160.8460  202.7580  150.1550 C   0  0  0  0  0  0  0  0  0  0  0  0
  160.8840  203.3940  149.0690 O   0  0  0  0  0  0  0  0  0  0  0  0
  160.6620  201.3810  150.1450 O   0  0  0  0  0  1  0  0  0  0  0  0
  159.3200  214.0150  151.6170 C   0  0  0  0  0  2  0  0  0  0  0  0
  156.9860  214.1500  150.5180 C   0  0  1  0  0  3  0  0  0  0  0  0
  157.0850  214.0460  152.7910 C   0  0  0  0  0  0  0  0  0  0  0  0
  155.7420  214.4010  152.4110 C   0  0  0  0  0  3  0  0  0  0  0  0
  155.6810  214.4530  151.1200 N   0  0  0  0  0  0  0  0  0  0  0  0
  157.5130  213.9570  153.9710 O   0  0  0  0  0  0  0  0  0  0  0  0
  157.8730  213.8350  151.6370 N   0  0  0  0  0  0  0  0  0  0  0  0
  156.8770  212.9800  149.5400 C   0  0  0  0  0  2  0  0  0  0  0  0
  157.4880  213.2990  148.1840 C   0  0  0  0  0  1  0  0  0  0  0  0
  1 19  1  6  0  0  0
  1 12  1  0  0  0  0
  2 18  1  0  0  0  0
  2 17  1  0  0  0  0
  3  4  2  0  0  0  0
  3  8  1  0  0  0  0
  4 15  1  0  0  0  0
  5 17  1  6  0  0  0
  5 14  1  0  0  0  0
  6  9  1  0  0  0  0
  6 13  2  0  0  0  0
  7 13  1  0  0  0  0
  7  1  1  0  0  0  0
  8 10  2  0  0  0  0
  9  2  2  0  0  0  0
 10 16  1  0  0  0  0
 10  9  1  0  0  0  0
 11 24  1  0  0  0  0
 11 18  2  0  0  0  0
 12 14  1  0  0  0  0
 13  5  1  0  0  0  0
 15 16  2  0  0  0  0
 16 11  1  0  0  0  0
 19 20  1  0  0  0  0
 21 20  1  0  0  0  0
 22 21  2  0  0  0  0
 23 21  1  0  0  0  0
 24 30  1  0  0  0  0
 25 31  1  6  0  0  0
 25 28  1  0  0  0  0
 25 30  1  0  0  0  0
 26 29  2  0  0  0  0
 27 26  1  0  0  0  0
 28 27  2  0  0  0  0
 30 26  1  0  0  0  0
 32 31  1  0  0  0  0
M  END
>  <MODEL>
2

>  <REMARK>
 VINA RESULT:      -7.8      4.121      8.867
  Name = 
  6 active torsions:
  status: ('A' for Active; 'I' for Inactive)
    1  A    between atoms: C_1  and  C_10
    2  A    between atoms: C_2  and  C_24
    3  A    between atoms: C_6  and  C_7
    4  A    between atoms: C_10  and  C_24
    5  A    between atoms: C_16  and  C_27
    6  A    between atoms: C_27  and  N_32
                            x       y       z     vdW  Elec       q    Type
                         _______ _______ _______ _____ _____    ______ ____

>  <TORSDO>
F 6

$$$$
=
 OpenBabel11062410463D

 32 36  0  0  1  0  0  0  0  0999 V2000
  161.2140  202.3860  149.9740 C   0  0  1  0  0  3  0  0  0  0  0  0
  161.1730  206.9990  152.3430 C   0  0  0  0  0  0  0  0  0  0  0  0
  162.0990  210.1190  148.7240 C   0  0  0  0  0  3  0  0  0  0  0  0
  162.0090  211.1840  149.6210 C   0  0  0  0  0  3  0  0  0  0  0  0
  161.6010  204.5390  152.0180 C   0  0  2  0  0  3  0  0  0  0  0  0
  161.5620  206.0730  150.0700 C   0  0  0  0  0  3  0  0  0  0  0  0
  161.8480  203.7150  149.5520 C   0  0  0  0  0  2  0  0  0  0  0  0
  161.9100  208.8100  149.1710 C   0  0  0  0  0  3  0  0  0  0  0  0
  161.4450  207.2300  150.9830 C   0  0  0  0  0  0  0  0  0  0  0  0
  161.6290  208.5480  150.5210 C   0  0  0  0  0  0  0  0  0  0  0  0
  161.2610  209.3820  152.7920 C   0  0  0  0  0  0  0  0  0  0  0  0
  161.5100  202.0800  151.4430 C   0  0  0  0  0  2  0  0  0  0  0  0
  161.5610  204.8180  150.5270 C   0  0  0  0  0  0  0  0  0  0  0  0
  160.9740  203.1860  152.3490 C   0  0  0  0  0  2  0  0  0  0  0  0
  161.7300  210.9430  150.9670 C   0  0  0  0  0  3  0  0  0  0  0  0
  161.5380  209.6320  151.4340 C   0  0  0  0  0  0  0  0  0  0  0  0
  160.8720  205.6140  152.8310 C   0  0  0  0  0  2  0  0  0  0  0  0
  161.0730  208.0700  153.2320 C   0  0  0  0  0  3  0  0  0  0  0  0
  159.7140  202.3630  149.6990 C   0  0  0  0  0  2  0  0  0  0  0  0
  159.3840  201.3260  148.6400 C   0  0  0  0  0  2  0  0  0  0  0  0
  160.5390  201.1650  147.7170 C   0  0  0  0  0  0  0  0  0  0  0  0
  160.6550  201.9200  146.7160 O   0  0  0  0  0  0  0  0  0  0  0  0
  161.4720  200.1600  147.9390 O   0  0  0  0  0  1  0  0  0  0  0  0
  161.1900  210.4840  153.8030 C   0  0  0  0  0  2  0  0  0  0  0  0
  159.0770  211.9700  153.8170 C   0  0  1  0  0  3  0  0  0  0  0  0
  159.2410  210.3420  155.4000 C   0  0  0  0  0  0  0  0  0  0  0  0
  158.1540  211.2180  155.7600 C   0  0  0  0  0  3  0  0  0  0  0  0
  158.0550  212.1390  154.8570 N   0  0  0  0  0  0  0  0  0  0  0  0
  159.6520  209.3670  156.0830 O   0  0  0  0  0  0  0  0  0  0  0  0
  159.8060  210.7530  154.1720 N   0  0  0  0  0  0  0  0  0  0  0  0
  158.4350  211.8570  152.4330 C   0  0  0  0  0  2  0  0  0  0  0  0
  158.7710  213.0420  151.5400 C   0  0  0  0  0  1  0  0  0  0  0  0
  1 19  1  1  0  0  0
  1 12  1  0  0  0  0
  2 17  1  0  0  0  0
  2 18  1  0  0  0  0
  3  8  2  0  0  0  0
  3  4  1  0  0  0  0
  4 15  2  0  0  0  0
  5 14  1  6  0  0  0
  5 17  1  0  0  0  0
  6 13  2  0  0  0  0
  6  9  1  0  0  0  0
  7  1  1  0  0  0  0
  7 13  1  0  0  0  0
  8 10  1  0  0  0  0
  9  2  2  0  0  0  0
 10  9  1  0  0  0  0
 10 16  2  0  0  0  0
 11 18  2  0  0  0  0
 11 24  1  0  0  0  0
 12 14  1  0  0  0  0
 13  5  1  0  0  0  0
 15 16  1  0  0  0  0
 16 11  1  0  0  0  0
 20 19  1  0  0  0  0
 21 23  1  0  0  0  0
 21 20  1  0  0  0  0
 22 21  2  0  0  0  0
 24 30  1  0  0  0  0
 25 31  1  6  0  0  0
 25 30  1  0  0  0  0
 25 28  1  0  0  0  0
 26 27  1  0  0  0  0
 26 29  2  0  0  0  0
 28 27  2  0  0  0  0
 30 26  1  0  0  0  0
 32 31  1  0  0  0  0
M  END
>  <MODEL>
3

>  <REMARK>
 VINA RESULT:      -7.6      3.590      8.996
  Name = 
  6 active torsions:
  status: ('A' for Active; 'I' for Inactive)
    1  A    between atoms: C_1  and  C_10
    2  A    between atoms: C_2  and  C_24
    3  A    between atoms: C_6  and  C_7
    4  A    between atoms: C_10  and  C_24
    5  A    between atoms: C_16  and  C_27
    6  A    between atoms: C_27  and  N_32
                            x       y       z     vdW  Elec       q    Type
                         _______ _______ _______ _____ _____    ______ ____

>  <TORSDO>
F 6

$$$$
=
 OpenBabel11062410463D

 32 36  0  0  1  0  0  0  0  0999 V2000
  161.0660  205.2320  147.7730 C   0  0  1  0  0  3  0  0  0  0  0  0
  161.5410  208.7390  151.5640 C   0  0  0  0  0  0  0  0  0  0  0  0
  160.4190  206.2100  155.5690 C   0  0  0  0  0  3  0  0  0  0  0  0
  160.6420  207.3470  156.3470 C   0  0  0  0  0  3  0  0  0  0  0  0
  160.9730  207.8090  149.2940 C   0  0  2  0  0  3  0  0  0  0  0  0
  160.8960  206.3540  151.3000 C   0  0  0  0  0  3  0  0  0  0  0  0
  160.4560  205.2520  149.1780 C   0  0  0  0  0  2  0  0  0  0  0  0
  160.5890  206.2660  154.1840 C   0  0  0  0  0  3  0  0  0  0  0  0
  161.1520  207.5270  152.1620 C   0  0  0  0  0  0  0  0  0  0  0  0
  160.9850  207.4600  153.5600 C   0  0  0  0  0  0  0  0  0  0  0  0
  161.6050  209.8200  153.7350 C   0  0  0  0  0  0  0  0  0  0  0  0
  160.8970  206.5860  147.0840 C   0  0  0  0  0  2  0  0  0  0  0  0
  160.8840  206.4530  149.9690 C   0  0  0  0  0  0  0  0  0  0  0  0
  161.5660  207.6970  147.8910 C   0  0  0  0  0  2  0  0  0  0  0  0
  161.0360  208.5420  155.7430 C   0  0  0  0  0  3  0  0  0  0  0  0
  161.2110  208.6160  154.3520 C   0  0  0  0  0  0  0  0  0  0  0  0
  161.8240  208.8020  150.0940 C   0  0  0  0  0  2  0  0  0  0  0  0
  161.7740  209.8680  152.3500 C   0  0  0  0  0  3  0  0  0  0  0  0
  162.5300  204.8070  147.8000 C   0  0  0  0  0  2  0  0  0  0  0  0
  163.0660  204.6590  146.3860 C   0  0  0  0  0  2  0  0  0  0  0  0
  162.0290  204.0370  145.5190 C   0  0  0  0  0  0  0  0  0  0  0  0
  161.5820  202.8930  145.7940 O   0  0  0  0  0  1  0  0  0  0  0  0
  161.5810  204.7030  144.3860 O   0  0  0  0  0  0  0  0  0  0  0  0
  161.8210  211.0780  154.5190 C   0  0  0  0  0  2  0  0  0  0  0  0
  159.7130  212.4970  154.0540 C   0  0  1  0  0  3  0  0  0  0  0  0
  160.2810  212.1200  156.2260 C   0  0  0  0  0  0  0  0  0  0  0  0
  159.2720  213.1480  156.1930 C   0  0  0  0  0  3  0  0  0  0  0  0
  158.9420  213.3580  154.9600 N   0  0  0  0  0  0  0  0  0  0  0  0
  160.8670  211.7030  157.2590 O   0  0  0  0  0  0  0  0  0  0  0  0
  160.5450  211.6590  154.9170 N   0  0  0  0  0  0  0  0  0  0  0  0
  158.7840  211.6560  153.1780 C   0  0  0  0  0  2  0  0  0  0  0  0
  158.5810  212.2620  151.7980 C   0  0  0  0  0  1  0  0  0  0  0  0
  1 19  1  1  0  0  0
  1  7  1  0  0  0  0
  2  9  2  0  0  0  0
  2 18  1  0  0  0  0
  3  4  1  0  0  0  0
  5 14  1  6  0  0  0
  5 13  1  0  0  0  0
  5 17  1  0  0  0  0
  6  9  1  0  0  0  0
  7 13  1  0  0  0  0
  8  3  2  0  0  0  0
  9 10  1  0  0  0  0
 10  8  1  0  0  0  0
 10 16  2  0  0  0  0
 11 16  1  0  0  0  0
 11 24  1  0  0  0  0
 12  1  1  0  0  0  0
 12 14  1  0  0  0  0
 13  6  2  0  0  0  0
 15  4  2  0  0  0  0
 16 15  1  0  0  0  0
 17  2  1  0  0  0  0
 18 11  2  0  0  0  0
 20 19  1  0  0  0  0
 21 22  1  0  0  0  0
 21 20  1  0  0  0  0
 23 21  2  0  0  0  0
 24 30  1  0  0  0  0
 25 31  1  1  0  0  0
 25 30  1  0  0  0  0
 25 28  1  0  0  0  0
 26 29  2  0  0  0  0
 27 26  1  0  0  0  0
 28 27  2  0  0  0  0
 30 26  1  0  0  0  0
 32 31  1  0  0  0  0
M  END
>  <MODEL>
4

>  <REMARK>
 VINA RESULT:      -7.2      3.706      8.918
  Name = 
  6 active torsions:
  status: ('A' for Active; 'I' for Inactive)
    1  A    between atoms: C_1  and  C_10
    2  A    between atoms: C_2  and  C_24
    3  A    between atoms: C_6  and  C_7
    4  A    between atoms: C_10  and  C_24
    5  A    between atoms: C_16  and  C_27
    6  A    between atoms: C_27  and  N_32
                            x       y       z     vdW  Elec       q    Type
                         _______ _______ _______ _____ _____    ______ ____

>  <TORSDO>
F 6

$$$$
=
 OpenBabel11062410463D

 32 36  0  0  1  0  0  0  0  0999 V2000
  161.3370  202.9650  150.4990 C   0  0  1  0  0  3  0  0  0  0  0  0
  161.0090  207.8010  152.3450 C   0  0  0  0  0  0  0  0  0  0  0  0
  162.1490  210.5450  148.4900 C   0  0  0  0  0  3  0  0  0  0  0  0
  161.9650  211.6960  149.2570 C   0  0  0  0  0  3  0  0  0  0  0  0
  161.5150  205.3340  152.3220 C   0  0  2  0  0  3  0  0  0  0  0  0
  161.5970  206.6500  150.2220 C   0  0  0  0  0  3  0  0  0  0  0  0
  161.9730  204.2600  149.9860 C   0  0  0  0  0  2  0  0  0  0  0  0
  161.9540  209.2850  149.0600 C   0  0  0  0  0  3  0  0  0  0  0  0
  161.3820  207.8930  150.9920 C   0  0  0  0  0  0  0  0  0  0  0  0
  161.5730  209.1610  150.4060 C   0  0  0  0  0  0  0  0  0  0  0  0
  161.0090  210.2190  152.5390 C   0  0  0  0  0  0  0  0  0  0  0  0
  161.5230  202.8260  152.0100 C   0  0  0  0  0  2  0  0  0  0  0  0
  161.5870  205.4520  150.8100 C   0  0  0  0  0  0  0  0  0  0  0  0
  160.8940  204.0060  152.7490 C   0  0  0  0  0  2  0  0  0  0  0  0
  161.5860  211.5910  150.5970 C   0  0  0  0  0  3  0  0  0  0  0  0
  161.3870  210.3320  151.1860 C   0  0  0  0  0  0  0  0  0  0  0  0
  160.7010  206.4670  152.9560 C   0  0  0  0  0  2  0  0  0  0  0  0
  160.8160  208.9560  153.1020 C   0  0  0  0  0  3  0  0  0  0  0  0
  159.8650  202.8680  150.1150 C   0  0  0  0  0  2  0  0  0  0  0  0
  159.6170  201.6310  149.2700 C   0  0  0  0  0  2  0  0  0  0  0  0
  160.7270  201.4590  148.2940 C   0  0  0  0  0  0  0  0  0  0  0  0
  161.5810  200.5500  148.4650 O   0  0  0  0  0  1  0  0  0  0  0  0
  160.8420  202.3230  147.2130 O   0  0  0  0  0  0  0  0  0  0  0  0
  160.8350  211.4200  153.4160 C   0  0  0  0  0  2  0  0  0  0  0  0
  159.5040  211.3710  155.6300 C   0  0  1  0  0  3  0  0  0  0  0  0
  161.7330  210.9110  155.7200 C   0  0  0  0  0  0  0  0  0  0  0  0
  161.2560  211.1120  157.0650 C   0  0  0  0  0  3  0  0  0  0  0  0
  159.9880  211.3650  157.0170 N   0  0  0  0  0  0  0  0  0  0  0  0
  162.9290  210.6980  155.3920 O   0  0  0  0  0  0  0  0  0  0  0  0
  160.6600  211.0170  154.8070 N   0  0  0  0  0  0  0  0  0  0  0  0
  158.3590  210.3740  155.4480 C   0  0  0  0  0  2  0  0  0  0  0  0
  157.0010  211.0570  155.3880 C   0  0  0  0  0  1  0  0  0  0  0  0
  1 19  1  1  0  0  0
  1 12  1  0  0  0  0
  2 17  1  0  0  0  0
  2 18  1  0  0  0  0
  3  8  2  0  0  0  0
  3  4  1  0  0  0  0
  4 15  2  0  0  0  0
  5 14  1  6  0  0  0
  5 17  1  0  0  0  0
  6 13  2  0  0  0  0
  6  9  1  0  0  0  0
  7  1  1  0  0  0  0
  7 13  1  0  0  0  0
  8 10  1  0  0  0  0
  9  2  2  0  0  0  0
 10  9  1  0  0  0  0
 10 16  2  0  0  0  0
 11 18  2  0  0  0  0
 11 24  1  0  0  0  0
 12 14  1  0  0  0  0
 13  5  1  0  0  0  0
 15 16  1  0  0  0  0
 16 11  1  0  0  0  0
 20 19  1  0  0  0  0
 21 22  1  0  0  0  0
 21 20  1  0  0  0  0
 23 21  2  0  0  0  0
 24 30  1  0  0  0  0
 25 31  1  1  0  0  0
 25 28  1  0  0  0  0
 26 27  1  0  0  0  0
 28 27  2  0  0  0  0
 29 26  2  0  0  0  0
 30 25  1  0  0  0  0
 30 26  1  0  0  0  0
 32 31  1  0  0  0  0
M  END
>  <MODEL>
5

>  <REMARK>
 VINA RESULT:      -7.0      3.898      9.154
  Name = 
  6 active torsions:
  status: ('A' for Active; 'I' for Inactive)
    1  A    between atoms: C_1  and  C_10
    2  A    between atoms: C_2  and  C_24
    3  A    between atoms: C_6  and  C_7
    4  A    between atoms: C_10  and  C_24
    5  A    between atoms: C_16  and  C_27
    6  A    between atoms: C_27  and  N_32
                            x       y       z     vdW  Elec       q    Type
                         _______ _______ _______ _____ _____    ______ ____

>  <TORSDO>
F 6

$$$$
=
 OpenBabel11062410463D

 32 36  0  0  1  0  0  0  0  0999 V2000
  162.0950  205.8270  151.6230 C   0  0  1  0  0  3  0  0  0  0  0  0
  160.1210  210.4620  152.8570 C   0  0  0  0  0  0  0  0  0  0  0  0
  161.2710  213.2220  149.0170 C   0  0  0  0  0  3  0  0  0  0  0  0
  160.6340  214.3110  149.6110 C   0  0  0  0  0  3  0  0  0  0  0  0
  161.2550  208.2380  153.1880 C   0  0  2  0  0  3  0  0  0  0  0  0
  161.4210  209.4190  151.0140 C   0  0  0  0  0  3  0  0  0  0  0  0
  162.4580  207.2220  151.1050 C   0  0  0  0  0  2  0  0  0  0  0  0
  161.3030  211.9880  149.6700 C   0  0  0  0  0  3  0  0  0  0  0  0
  160.7300  210.5890  151.5960 C   0  0  0  0  0  0  0  0  0  0  0  0
  160.6960  211.8280  150.9260 C   0  0  0  0  0  0  0  0  0  0  0  0
  159.4400  212.7890  152.7920 C   0  0  0  0  0  0  0  0  0  0  0  0
  161.9910  205.8210  153.1490 C   0  0  0  0  0  2  0  0  0  0  0  0
  161.6070  208.2970  151.7120 C   0  0  0  0  0  0  0  0  0  0  0  0
  160.9330  206.8120  153.6280 C   0  0  0  0  0  2  0  0  0  0  0  0
  160.0250  214.1710  150.8590 C   0  0  0  0  0  3  0  0  0  0  0  0
  160.0480  212.9370  151.5300 C   0  0  0  0  0  0  0  0  0  0  0  0
  160.0560  209.1270  153.5360 C   0  0  0  0  0  2  0  0  0  0  0  0
  159.4750  211.5530  153.4390 C   0  0  0  0  0  3  0  0  0  0  0  0
  160.8150  205.3020  150.9820 C   0  0  0  0  0  2  0  0  0  0  0  0
  160.8560  205.4960  149.4770 C   0  0  0  0  0  2  0  0  0  0  0  0
  161.1980  204.2080  148.8150 C   0  0  0  0  0  0  0  0  0  0  0  0
  160.8330  203.1190  149.3290 O   0  0  0  0  0  1  0  0  0  0  0  0
  161.9520  204.2050  147.6480 O   0  0  0  0  0  0  0  0  0  0  0  0
  158.7750  213.9350  153.4910 C   0  0  0  0  0  2  0  0  0  0  0  0
  156.7430  213.5480  155.0390 C   0  0  1  0  0  3  0  0  0  0  0  0
  158.8060  213.6440  155.9980 C   0  0  0  0  0  0  0  0  0  0  0  0
  157.8160  213.7130  157.0420 C   0  0  0  0  0  3  0  0  0  0  0  0
  156.6430  213.6510  156.5000 N   0  0  0  0  0  0  0  0  0  0  0  0
  160.0510  213.7300  156.1630 O   0  0  0  0  0  0  0  0  0  0  0  0
  158.1750  213.4930  154.7430 N   0  0  0  0  0  0  0  0  0  0  0  0
  156.0150  212.3040  154.5280 C   0  0  0  0  0  2  0  0  0  0  0  0
  156.2720  211.0840  155.3990 C   0  0  0  0  0  1  0  0  0  0  0  0
  1 19  1  6  0  0  0
  1 12  1  0  0  0  0
  2 18  1  0  0  0  0
  2 17  1  0  0  0  0
  3  4  2  0  0  0  0
  3  8  1  0  0  0  0
  4 15  1  0  0  0  0
  5 17  1  6  0  0  0
  5 14  1  0  0  0  0
  6  9  1  0  0  0  0
  6 13  2  0  0  0  0
  7  1  1  0  0  0  0
  7 13  1  0  0  0  0
  8 10  2  0  0  0  0
  9  2  2  0  0  0  0
 10 16  1  0  0  0  0
 10  9  1  0  0  0  0
 11 18  2  0  0  0  0
 11 24  1  0  0  0  0
 12 14  1  0  0  0  0
 13  5  1  0  0  0  0
 15 16  2  0  0  0  0
 16 11  1  0  0  0  0
 20 19  1  0  0  0  0
 21 22  1  0  0  0  0
 21 20  1  0  0  0  0
 23 21  2  0  0  0  0
 24 30  1  0  0  0  0
 25 31  1  1  0  0  0
 25 28  1  0  0  0  0
 26 29  2  0  0  0  0
 26 27  1  0  0  0  0
 28 27  2  0  0  0  0
 30 25  1  0  0  0  0
 30 26  1  0  0  0  0
 31 32  1  0  0  0  0
M  END
>  <MODEL>
6

>  <REMARK>
 VINA RESULT:      -7.0      4.151      9.665
  Name = 
  6 active torsions:
  status: ('A' for Active; 'I' for Inactive)
    1  A    between atoms: C_1  and  C_10
    2  A    between atoms: C_2  and  C_24
    3  A    between atoms: C_6  and  C_7
    4  A    between atoms: C_10  and  C_24
    5  A    between atoms: C_16  and  C_27
    6  A    between atoms: C_27  and  N_32
                            x       y       z     vdW  Elec       q    Type
                         _______ _______ _______ _____ _____    ______ ____

>  <TORSDO>
F 6

$$$$
=
 OpenBabel11062410463D

 32 36  0  0  1  0  0  0  0  0999 V2000
  161.2470  209.0380  154.0050 C   0  0  1  0  0  3  0  0  0  0  0  0
  161.2730  205.9420  149.8440 C   0  0  0  0  0  0  0  0  0  0  0  0
  160.8190  201.4920  151.7630 C   0  0  0  0  0  3  0  0  0  0  0  0
  160.8400  200.9400  150.4810 C   0  0  0  0  0  3  0  0  0  0  0  0
  161.8960  207.8860  151.3190 C   0  0  2  0  0  3  0  0  0  0  0  0
  161.1560  205.7400  152.3180 C   0  0  0  0  0  3  0  0  0  0  0  0
  161.5800  207.5470  153.8890 C   0  0  0  0  0  2  0  0  0  0  0  0
  160.9170  202.8750  151.9300 C   0  0  0  0  0  3  0  0  0  0  0  0
  161.1440  205.1190  150.9770 C   0  0  0  0  0  0  0  0  0  0  0  0
  161.0370  203.7230  150.8170 C   0  0  0  0  0  0  0  0  0  0  0  0
  161.1840  204.0010  148.3910 C   0  0  0  0  0  0  0  0  0  0  0  0
  161.9570  209.8430  152.9160 C   0  0  0  0  0  2  0  0  0  0  0  0
  161.4290  207.0360  152.4870 C   0  0  0  0  0  0  0  0  0  0  0  0
  161.5500  209.3580  151.5260 C   0  0  0  0  0  2  0  0  0  0  0  0
  160.9590  201.7670  149.3640 C   0  0  0  0  0  3  0  0  0  0  0  0
  161.0600  203.1600  149.5140 C   0  0  0  0  0  0  0  0  0  0  0  0
  161.2830  207.4340  149.9890 C   0  0  0  0  0  2  0  0  0  0  0  0
  161.2810  205.3830  148.5660 C   0  0  0  0  0  3  0  0  0  0  0  0
  159.7430  209.2840  153.9800 C   0  0  0  0  0  2  0  0  0  0  0  0
  159.3230  210.1260  155.1720 C   0  0  0  0  0  2  0  0  0  0  0  0
  159.8400  211.5120  155.0150 C   0  0  0  0  0  0  0  0  0  0  0  0
  160.6200  211.9940  155.8770 O   0  0  0  0  0  1  0  0  0  0  0  0
  159.4350  212.2870  153.9360 O   0  0  0  0  0  0  0  0  0  0  0  0
  161.2500  203.4580  146.9970 C   0  0  0  0  0  2  0  0  0  0  0  0
  160.7290  204.8540  144.8870 C   0  0  1  0  0  3  0  0  0  0  0  0
  162.8720  204.8530  145.6570 C   0  0  0  0  0  0  0  0  0  0  0  0
  162.8630  205.4410  144.3420 C   0  0  0  0  0  3  0  0  0  0  0  0
  161.6450  205.4500  143.9060 N   0  0  0  0  0  0  0  0  0  0  0  0
  163.8970  204.6380  146.3560 O   0  0  0  0  0  0  0  0  0  0  0  0
  161.5560  204.5200  146.0470 N   0  0  0  0  0  0  0  0  0  0  0  0
  159.6130  205.8320  145.2550 C   0  0  0  0  0  2  0  0  0  0  0  0
  160.0800  206.9090  146.2220 C   0  0  0  0  0  1  0  0  0  0  0  0
  1 19  1  6  0  0  0
  2 17  1  0  0  0  0
  2  9  1  0  0  0  0
  3  8  2  0  0  0  0
  4  3  1  0  0  0  0
  5 17  1  6  0  0  0
  5 14  1  0  0  0  0
  5 13  1  0  0  0  0
  6 13  2  0  0  0  0
  7  1  1  0  0  0  0
  9  6  1  0  0  0  0
 10  9  2  0  0  0  0
 10  8  1  0  0  0  0
 11 18  1  0  0  0  0
 11 16  2  0  0  0  0
 12  1  1  0  0  0  0
 13  7  1  0  0  0  0
 14 12  1  0  0  0  0
 15 16  1  0  0  0  0
 15  4  2  0  0  0  0
 16 10  1  0  0  0  0
 18  2  2  0  0  0  0
 19 20  1  0  0  0  0
 21 20  1  0  0  0  0
 21 22  1  0  0  0  0
 23 21  2  0  0  0  0
 24 11  1  0  0  0  0
 25 31  1  1  0  0  0
 25 30  1  0  0  0  0
 26 30  1  0  0  0  0
 26 29  2  0  0  0  0
 27 26  1  0  0  0  0
 28 27  2  0  0  0  0
 28 25  1  0  0  0  0
 30 24  1  0  0  0  0
 31 32  1  0  0  0  0
M  END
>  <MODEL>
7

>  <REMARK>
 VINA RESULT:      -6.9      1.568      2.194
  Name = 
  6 active torsions:
  status: ('A' for Active; 'I' for Inactive)
    1  A    between atoms: C_1  and  C_10
    2  A    between atoms: C_2  and  C_24
    3  A    between atoms: C_6  and  C_7
    4  A    between atoms: C_10  and  C_24
    5  A    between atoms: C_16  and  C_27
    6  A    between atoms: C_27  and  N_32
                            x       y       z     vdW  Elec       q    Type
                         _______ _______ _______ _____ _____    ______ ____

>  <TORSDO>
F 6

$$$$
=
 OpenBabel11062410463D

 32 36  0  0  1  0  0  0  0  0999 V2000
  161.2010  204.9180  147.5680 C   0  0  1  0  0  3  0  0  0  0  0  0
  161.3810  208.6190  151.1970 C   0  0  0  0  0  0  0  0  0  0  0  0
  160.8240  206.1390  155.3470 C   0  0  0  0  0  3  0  0  0  0  0  0
  160.9280  207.3290  156.0700 C   0  0  0  0  0  3  0  0  0  0  0  0
  160.8310  207.5220  148.9970 C   0  0  2  0  0  3  0  0  0  0  0  0
  161.0580  206.1590  151.0560 C   0  0  0  0  0  3  0  0  0  0  0  0
  160.6660  204.9160  149.0040 C   0  0  0  0  0  2  0  0  0  0  0  0
  160.9140  206.1570  153.9540 C   0  0  0  0  0  3  0  0  0  0  0  0
  161.1940  207.3930  151.8590 C   0  0  0  0  0  0  0  0  0  0  0  0
  161.1100  207.3650  153.2650 C   0  0  0  0  0  0  0  0  0  0  0  0
  161.4060  209.7930  153.3200 C   0  0  0  0  0  0  0  0  0  0  0  0
  160.8120  206.2050  146.8410 C   0  0  0  0  0  2  0  0  0  0  0  0
  160.9640  206.1970  149.7250 C   0  0  0  0  0  0  0  0  0  0  0  0
  161.3610  207.4300  147.5680 C   0  0  0  0  0  2  0  0  0  0  0  0
  161.1220  208.5390  155.4020 C   0  0  0  0  0  3  0  0  0  0  0  0
  161.2140  208.5740  154.0010 C   0  0  0  0  0  0  0  0  0  0  0  0
  161.5770  208.6550  149.7110 C   0  0  0  0  0  2  0  0  0  0  0  0
  161.4950  209.8030  151.9260 C   0  0  0  0  0  3  0  0  0  0  0  0
  162.7090  204.6970  147.5270 C   0  0  0  0  0  2  0  0  0  0  0  0
  163.1830  204.5340  146.0940 C   0  0  0  0  0  2  0  0  0  0  0  0
  162.0800  203.9880  145.2590 C   0  0  0  0  0  0  0  0  0  0  0  0
  161.5820  202.8640  145.5290 O   0  0  0  0  0  1  0  0  0  0  0  0
  161.6210  204.7030  144.1600 O   0  0  0  0  0  0  0  0  0  0  0  0
  161.4860  211.1010  154.0430 C   0  0  0  0  0  2  0  0  0  0  0  0
  159.0840  211.1160  154.9960 C   0  0  1  0  0  3  0  0  0  0  0  0
  159.4980  212.3680  153.1400 C   0  0  0  0  0  0  0  0  0  0  0  0
  158.0720  212.2890  153.3250 C   0  0  0  0  0  3  0  0  0  0  0  0
  157.8340  211.5850  154.3840 N   0  0  0  0  0  0  0  0  0  0  0  0
  160.0810  212.9320  152.1770 O   0  0  0  0  0  0  0  0  0  0  0  0
  160.1600  211.6890  154.1870 N   0  0  0  0  0  0  0  0  0  0  0  0
  159.1790  211.5620  156.4560 C   0  0  0  0  0  2  0  0  0  0  0  0
  157.8880  212.1970  156.9520 C   0  0  0  0  0  1  0  0  0  0  0  0
  1 19  1  1  0  0  0
  1  7  1  0  0  0  0
  2  9  2  0  0  0  0
  2 18  1  0  0  0  0
  3  4  1  0  0  0  0
  5 14  1  6  0  0  0
  5 17  1  0  0  0  0
  5 13  1  0  0  0  0
  6  9  1  0  0  0  0
  7 13  1  0  0  0  0
  8  3  2  0  0  0  0
  9 10  1  0  0  0  0
 10  8  1  0  0  0  0
 10 16  2  0  0  0  0
 11 16  1  0  0  0  0
 11 24  1  0  0  0  0
 12  1  1  0  0  0  0
 12 14  1  0  0  0  0
 13  6  2  0  0  0  0
 15  4  2  0  0  0  0
 16 15  1  0  0  0  0
 17  2  1  0  0  0  0
 18 11  2  0  0  0  0
 20 19  1  0  0  0  0
 21 22  1  0  0  0  0
 21 20  1  0  0  0  0
 23 21  2  0  0  0  0
 24 30  1  0  0  0  0
 25 31  1  1  0  0  0
 26 27  1  0  0  0  0
 26 30  1  0  0  0  0
 27 28  2  0  0  0  0
 28 25  1  0  0  0  0
 29 26  2  0  0  0  0
 30 25  1  0  0  0  0
 31 32  1  0  0  0  0
M  END
>  <MODEL>
8

>  <REMARK>
 VINA RESULT:      -6.8      3.350      8.799
  Name = 
  6 active torsions:
  status: ('A' for Active; 'I' for Inactive)
    1  A    between atoms: C_1  and  C_10
    2  A    between atoms: C_2  and  C_24
    3  A    between atoms: C_6  and  C_7
    4  A    between atoms: C_10  and  C_24
    5  A    between atoms: C_16  and  C_27
    6  A    between atoms: C_27  and  N_32
                            x       y       z     vdW  Elec       q    Type
                         _______ _______ _______ _____ _____    ______ ____

>  <TORSDO>
F 6

$$$$
=
 OpenBabel11062410463D

 32 36  0  0  1  0  0  0  0  0999 V2000
  162.2020  205.7420  151.4230 C   0  0  1  0  0  3  0  0  0  0  0  0
  160.5830  210.6460  151.8960 C   0  0  0  0  0  0  0  0  0  0  0  0
  162.0340  212.7060  147.7310 C   0  0  0  0  0  3  0  0  0  0  0  0
  161.4730  213.9180  148.1380 C   0  0  0  0  0  3  0  0  0  0  0  0
  161.5260  208.4160  152.5870 C   0  0  2  0  0  3  0  0  0  0  0  0
  161.8330  209.2440  150.2700 C   0  0  0  0  0  3  0  0  0  0  0  0
  162.6870  207.0120  150.7170 C   0  0  0  0  0  2  0  0  0  0  0  0
  161.9510  211.5850  148.5590 C   0  0  0  0  0  3  0  0  0  0  0  0
  161.2260  210.5370  150.6510 C   0  0  0  0  0  0  0  0  0  0  0  0
  161.3070  211.6610  149.8050 C   0  0  0  0  0  0  0  0  0  0  0  0
  160.0940  212.9840  151.4670 C   0  0  0  0  0  0  0  0  0  0  0  0
  162.0660  205.9720  152.9280 C   0  0  0  0  0  2  0  0  0  0  0  0
  161.9130  208.2270  151.1320 C   0  0  0  0  0  0  0  0  0  0  0  0
  161.0810  207.1010  153.2220 C   0  0  0  0  0  2  0  0  0  0  0  0
  160.8290  214.0120  149.3720 C   0  0  0  0  0  3  0  0  0  0  0  0
  160.7380  212.8950  150.2180 C   0  0  0  0  0  0  0  0  0  0  0  0
  160.3960  209.4370  152.7610 C   0  0  0  0  0  2  0  0  0  0  0  0
  160.0150  211.8580  152.2900 C   0  0  0  0  0  3  0  0  0  0  0  0
  160.8970  205.2270  150.8240 C   0  0  0  0  0  2  0  0  0  0  0  0
  161.1510  203.9870  149.9850 C   0  0  0  0  0  2  0  0  0  0  0  0
  161.3040  204.3710  148.5560 C   0  0  0  0  0  0  0  0  0  0  0  0
  160.8310  205.4620  148.1430 O   0  0  0  0  0  1  0  0  0  0  0  0
  161.9370  203.5110  147.6690 O   0  0  0  0  0  0  0  0  0  0  0  0
  159.5090  214.2680  151.9670 C   0  0  0  0  0  2  0  0  0  0  0  0
  158.6170  213.1630  154.1250 C   0  0  1  0  0  3  0  0  0  0  0  0
  157.0940  213.8780  152.5920 C   0  0  0  0  0  0  0  0  0  0  0  0
  156.4130  213.0520  153.5560 C   0  0  0  0  0  3  0  0  0  0  0  0
  157.2760  212.6510  154.4340 N   0  0  0  0  0  0  0  0  0  0  0  0
  156.5700  214.3930  151.5690 O   0  0  0  0  0  0  0  0  0  0  0  0
  158.4560  214.0070  152.9420 N   0  0  0  0  0  0  0  0  0  0  0  0
  159.1850  213.9510  155.3060 C   0  0  0  0  0  2  0  0  0  0  0  0
  160.0960  213.1060  156.1840 C   0  0  0  0  0  1  0  0  0  0  0  0
  1 19  1  6  0  0  0
  1 12  1  0  0  0  0
  2 18  1  0  0  0  0
  2 17  1  0  0  0  0
  3  4  2  0  0  0  0
  3  8  1  0  0  0  0
  4 15  1  0  0  0  0
  5 17  1  6  0  0  0
  5 14  1  0  0  0  0
  6  9  1  0  0  0  0
  6 13  2  0  0  0  0
  7 13  1  0  0  0  0
  7  1  1  0  0  0  0
  8 10  2  0  0  0  0
  9  2  2  0  0  0  0
 10 16  1  0  0  0  0
 10  9  1  0  0  0  0
 11 24  1  0  0  0  0
 11 18  2  0  0  0  0
 12 14  1  0  0  0  0
 13  5  1  0  0  0  0
 15 16  2  0  0  0  0
 16 11  1  0  0  0  0
 20 19  1  0  0  0  0
 21 20  1  0  0  0  0
 22 21  1  0  0  0  0
 23 21  2  0  0  0  0
 24 30  1  0  0  0  0
 25 28  1  0  0  0  0
 25 31  1  1  0  0  0
 26 30  1  0  0  0  0
 26 27  1  0  0  0  0
 27 28  2  0  0  0  0
 29 26  2  0  0  0  0
 30 25  1  0  0  0  0
 31 32  1  0  0  0  0
M  END
>  <MODEL>
9

>  <REMARK>
 VINA RESULT:      -6.3      3.857      9.214
  Name = 
  6 active torsions:
  status: ('A' for Active; 'I' for Inactive)
    1  A    between atoms: C_1  and  C_10
    2  A    between atoms: C_2  and  C_24
    3  A    between atoms: C_6  and  C_7
    4  A    between atoms: C_10  and  C_24
    5  A    between atoms: C_16  and  C_27
    6  A    between atoms: C_27  and  N_32
                            x       y       z     vdW  Elec       q    Type
                         _______ _______ _______ _____ _____    ______ ____

>  <TORSDO>
F 6

$$$$
