=
 OpenBabel11062408163D

 32 36  0  0  1  0  0  0  0  0999 V2000
  161.0200  210.3800  152.4200 N   0  0  0  0  0  0  0  0  0  0  0  0
  159.9470  209.8210  154.5540 C   0  0  0  0  0  0  0  0  0  0  0  0
  161.3210  211.5340  151.5550 C   0  0  0  0  0  2  0  0  0  0  0  0
  159.9170  210.4410  153.3550 C   0  0  0  0  0  0  0  0  0  0  0  0
  158.7870  209.9030  155.5210 C   0  0  1  0  0  3  0  0  0  0  0  0
  161.7320  210.5810  156.3930 C   0  0  1  0  0  3  0  0  0  0  0  0
  160.4790  211.3990  156.7900 C   0  0  2  0  0  3  0  0  0  0  0  0
  158.7800  211.3140  153.0060 C   0  0  0  0  0  0  0  0  0  0  0  0
  159.2110  210.5310  156.8630 C   0  0  0  0  0  2  0  0  0  0  0  0
  157.6940  211.3660  153.7680 C   0  0  0  0  0  3  0  0  0  0  0  0
  158.8960  212.1810  151.7990 C   0  0  0  0  0  2  0  0  0  0  0  0
  162.7000  209.1040  151.4110 O   0  0  0  0  0  0  0  0  0  0  0  0
  161.6020  209.1200  152.0340 C   0  0  0  0  0  0  0  0  0  0  0  0
  161.4680  209.1690  155.2420 S   0  0  0  0  0  0  0  0  0  0  0  0
  157.6110  210.5840  154.9640 N   0  0  0  0  0  0  0  0  0  0  0  0
  160.3300  212.6940  151.7120 C   0  0  0  0  0  2  0  0  0  0  0  0
  162.7600  211.3890  155.9410 F   0  0  0  0  0  0  0  0  0  0  0  0
  160.2710  212.6320  155.9110 C   0  0  0  0  0  3  0  0  0  0  0  0
  159.0470  213.3980  156.3750 C   0  0  0  0  0  2  0  0  0  0  0  0
  160.4290  213.8850  156.7510 C   0  0  0  0  0  2  0  0  0  0  0  0
  156.3520  210.5350  155.6910 C   0  0  0  0  0  2  0  0  0  0  0  0
  155.7550  211.9260  155.8000 C   0  0  0  0  0  1  0  0  0  0  0  0
  160.8520  207.8350  152.2610 C   0  0  2  0  0  3  0  0  0  0  0  0
  162.8940  206.6510  152.6040 O   0  0  0  0  0  0  0  0  0  0  0  0
  161.6850  206.7770  152.9220 C   0  0  0  0  0  0  0  0  0  0  0  0
  161.1150  205.9060  153.8960 N   0  0  0  0  0  1  0  0  0  0  0  0
  160.2340  207.3440  150.9600 C   0  0  0  0  0  2  0  0  0  0  0  0
  162.4900  207.3550  149.8620 F   0  0  0  0  0  0  0  0  0  0  0  0
  160.7620  205.9820  148.8510 C   0  0  0  0  0  2  0  0  0  0  0  0
  161.2940  206.6930  150.0730 C   0  0  2  0  0  0  0  0  0  0  0  0
  160.2760  204.4640  150.7540 C   0  0  0  0  0  1  0  0  0  0  0  0
  161.3800  205.1750  149.9870 C   0  0  1  0  0  3  0  0  0  0  0  0
  1  4  1  0  0  0  0
  2 14  1  0  0  0  0
  2  5  1  0  0  0  0
  3 16  1  0  0  0  0
  3  1  1  0  0  0  0
  4  2  2  0  0  0  0
  5  9  1  1  0  0  0
  6 17  1  6  0  0  0
  6  7  1  0  0  0  0
  7 18  1  6  0  0  0
  7  9  1  0  0  0  0
  8  4  1  0  0  0  0
  8 10  2  0  0  0  0
 10 15  1  0  0  0  0
 11  8  1  0  0  0  0
 12 13  2  0  0  0  0
 13 23  1  0  0  0  0
 13  1  1  0  0  0  0
 14  6  1  0  0  0  0
 15  5  1  0  0  0  0
 15 21  1  0  0  0  0
 16 11  1  0  0  0  0
 18 19  1  0  0  0  0
 18 20  1  0  0  0  0
 19 20  1  0  0  0  0
 21 22  1  0  0  0  0
 23 27  1  6  0  0  0
 23 25  1  0  0  0  0
 24 25  2  0  0  0  0
 25 26  1  0  0  0  0
 29 32  1  0  0  0  0
 29 30  1  0  0  0  0
 30 28  1  6  0  0  0
 30 27  1  0  0  0  0
 32 30  1  0  0  0  0
 32 31  1  1  0  0  0
M  END
>  <MODEL>
1

>  <REMARK>
 VINA RESULT:      -3.7      0.000      0.000
  Name = 
  6 active torsions:
  status: ('A' for Active; 'I' for Inactive)
    1  A    between atoms: C_9  and  C_12
    2  A    between atoms: C_13  and  N_29
    3  A    between atoms: C_15  and  C_20
    4  A    between atoms: C_16  and  C_20
    5  A    between atoms: C_16  and  C_22
    6  A    between atoms: C_16  and  C_27
                            x       y       z     vdW  Elec       q    Type
                         _______ _______ _______ _____ _____    ______ ____

>  <TORSDO>
F 6

$$$$
=
 OpenBabel11062408163D

 32 36  0  0  1  0  0  0  0  0999 V2000
  159.5820  211.3960  156.1900 N   0  0  0  0  0  0  0  0  0  0  0  0
  157.8120  211.3490  154.4920 C   0  0  0  0  0  0  0  0  0  0  0  0
  160.1210  212.2520  157.2610 C   0  0  0  0  0  2  0  0  0  0  0  0
  158.8400  211.9830  155.0960 C   0  0  0  0  0  0  0  0  0  0  0  0
  157.0440  211.9830  153.3540 C   0  0  1  0  0  3  0  0  0  0  0  0
  155.5960  210.7990  155.8830 C   0  0  1  0  0  3  0  0  0  0  0  0
  155.2350  212.1410  155.2020 C   0  0  2  0  0  3  0  0  0  0  0  0
  159.1670  213.3730  154.7230 C   0  0  0  0  0  0  0  0  0  0  0  0
  155.5490  212.1370  153.6950 C   0  0  0  0  0  2  0  0  0  0  0  0
  158.5920  213.9590  153.6790 C   0  0  0  0  0  3  0  0  0  0  0  0
  160.1270  214.1280  155.5760 C   0  0  0  0  0  2  0  0  0  0  0  0
  160.5640  209.4920  157.1280 O   0  0  0  0  0  0  0  0  0  0  0  0
  160.1320  210.0680  156.0910 C   0  0  0  0  0  0  0  0  0  0  0  0
  157.0490  209.8930  155.2080 S   0  0  0  0  0  0  0  0  0  0  0  0
  157.6190  213.2550  152.9000 N   0  0  0  0  0  0  0  0  0  0  0  0
  159.8760  213.7490  157.0320 C   0  0  0  0  0  2  0  0  0  0  0  0
  155.6980  210.9230  157.2580 F   0  0  0  0  0  0  0  0  0  0  0  0
  155.8500  213.3500  155.9050 C   0  0  0  0  0  3  0  0  0  0  0  0
  154.8180  214.4530  156.0370 C   0  0  0  0  0  2  0  0  0  0  0  0
  155.1450  213.5790  157.2280 C   0  0  0  0  0  2  0  0  0  0  0  0
  157.1250  213.8600  151.6720 C   0  0  0  0  0  2  0  0  0  0  0  0
  157.9840  213.4340  150.4960 C   0  0  0  0  0  1  0  0  0  0  0  0
  160.3060  209.4160  154.7450 C   0  0  2  0  0  3  0  0  0  0  0  0
  161.2650  207.2990  154.2070 O   0  0  0  0  0  0  0  0  0  0  0  0
  160.3590  207.9190  154.8200 C   0  0  0  0  0  0  0  0  0  0  0  0
  159.3860  207.1930  155.5670 N   0  0  0  0  0  1  0  0  0  0  0  0
  161.5170  209.9950  154.0280 C   0  0  0  0  0  2  0  0  0  0  0  0
  160.8610  212.0800  152.7970 F   0  0  0  0  0  0  0  0  0  0  0  0
  160.1240  209.9590  151.8750 C   0  0  0  0  0  2  0  0  0  0  0  0
  161.0930  210.7170  152.7510 C   0  0  2  0  0  0  0  0  0  0  0  0
  162.3300  208.8890  151.4870 C   0  0  0  0  0  1  0  0  0  0  0  0
  161.5530  210.1930  151.3970 C   0  0  1  0  0  3  0  0  0  0  0  0
  1  3  1  0  0  0  0
  2  4  2  0  0  0  0
  2 14  1  0  0  0  0
  4  1  1  0  0  0  0
  5  9  1  1  0  0  0
  5  2  1  0  0  0  0
  6 17  1  1  0  0  0
  7  6  1  0  0  0  0
  7 18  1  1  0  0  0
  8  4  1  0  0  0  0
  8 11  1  0  0  0  0
  9  7  1  0  0  0  0
 10  8  2  0  0  0  0
 11 16  1  0  0  0  0
 13  1  1  0  0  0  0
 13 12  2  0  0  0  0
 14  6  1  0  0  0  0
 15  5  1  0  0  0  0
 15 10  1  0  0  0  0
 16  3  1  0  0  0  0
 18 19  1  0  0  0  0
 18 20  1  0  0  0  0
 19 20  1  0  0  0  0
 21 15  1  0  0  0  0
 22 21  1  0  0  0  0
 23 27  1  1  0  0  0
 23 25  1  0  0  0  0
 23 13  1  0  0  0  0
 24 25  2  0  0  0  0
 25 26  1  0  0  0  0
 29 30  1  0  0  0  0
 30 28  1  1  0  0  0
 30 27  1  0  0  0  0
 32 31  1  1  0  0  0
 32 29  1  0  0  0  0
 32 30  1  0  0  0  0
M  END
>  <MODEL>
2

>  <REMARK>
 VINA RESULT:      -1.8      2.698      4.635
  Name = 
  6 active torsions:
  status: ('A' for Active; 'I' for Inactive)
    1  A    between atoms: C_9  and  C_12
    2  A    between atoms: C_13  and  N_29
    3  A    between atoms: C_15  and  C_20
    4  A    between atoms: C_16  and  C_20
    5  A    between atoms: C_16  and  C_22
    6  A    between atoms: C_16  and  C_27
                            x       y       z     vdW  Elec       q    Type
                         _______ _______ _______ _____ _____    ______ ____

>  <TORSDO>
F 6

$$$$
=
 OpenBabel11062408163D

 32 36  0  0  1  0  0  0  0  0999 V2000
  161.8390  208.7390  152.3870 N   0  0  0  0  0  0  0  0  0  0  0  0
  160.1390  208.6910  154.1550 C   0  0  0  0  0  0  0  0  0  0  0  0
  162.7890  209.6560  151.7340 C   0  0  0  0  0  2  0  0  0  0  0  0
  160.6640  209.2620  153.0500 C   0  0  0  0  0  0  0  0  0  0  0  0
  158.9140  209.2560  154.8380 C   0  0  1  0  0  3  0  0  0  0  0  0
  161.5620  208.6340  156.4170 C   0  0  1  0  0  3  0  0  0  0  0  0
  160.6980  209.9050  156.6020 C   0  0  2  0  0  3  0  0  0  0  0  0
  160.1080  210.5310  152.5430 C   0  0  0  0  0  0  0  0  0  0  0  0
  159.2110  209.6510  156.2980 C   0  0  0  0  0  2  0  0  0  0  0  0
  158.9850  211.0370  153.0410 C   0  0  0  0  0  3  0  0  0  0  0  0
  160.8620  211.2640  151.4880 C   0  0  0  0  0  2  0  0  0  0  0  0
  163.0440  206.8710  151.6600 O   0  0  0  0  0  0  0  0  0  0  0  0
  161.9310  207.3490  152.0170 C   0  0  0  0  0  0  0  0  0  0  0  0
  161.0390  207.4600  155.1000 S   0  0  0  0  0  0  0  0  0  0  0  0
  158.2980  210.3670  154.1020 N   0  0  0  0  0  0  0  0  0  0  0  0
  162.3530  211.1260  151.7800 C   0  0  0  0  0  2  0  0  0  0  0  0
  162.9080  208.9330  156.2930 F   0  0  0  0  0  0  0  0  0  0  0  0
  161.2360  211.1080  155.8280 C   0  0  0  0  0  3  0  0  0  0  0  0
  160.4220  212.3440  156.1610 C   0  0  0  0  0  2  0  0  0  0  0  0
  161.7760  212.1360  156.8040 C   0  0  0  0  0  2  0  0  0  0  0  0
  156.9920  210.8550  154.5170 C   0  0  0  0  0  2  0  0  0  0  0  0
  157.0030  212.3690  154.6140 C   0  0  0  0  0  1  0  0  0  0  0  0
  160.6910  206.5010  151.9370 C   0  0  2  0  0  3  0  0  0  0  0  0
  161.5690  204.8870  153.4590 O   0  0  0  0  0  0  0  0  0  0  0  0
  160.9110  205.0940  152.4080 C   0  0  0  0  0  0  0  0  0  0  0  0
  160.3950  203.9900  151.6690 N   0  0  0  0  0  1  0  0  0  0  0  0
  160.1060  206.5470  150.5330 C   0  0  0  0  0  2  0  0  0  0  0  0
  162.1170  207.7950  149.7040 F   0  0  0  0  0  0  0  0  0  0  0  0
  160.7780  206.6150  148.0590 C   0  0  0  0  0  2  0  0  0  0  0  0
  161.2050  206.7760  149.4980 C   0  0  2  0  0  0  0  0  0  0  0  0
  160.9850  204.3040  148.9410 C   0  0  0  0  0  1  0  0  0  0  0  0
  161.7330  205.6020  148.6820 C   0  0  1  0  0  3  0  0  0  0  0  0
  1  4  1  0  0  0  0
  2  5  1  0  0  0  0
  2 14  1  0  0  0  0
  3 16  1  0  0  0  0
  3  1  1  0  0  0  0
  4  2  2  0  0  0  0
  5  9  1  1  0  0  0
  6 17  1  6  0  0  0
  6  7  1  0  0  0  0
  7 18  1  6  0  0  0
  8 10  2  0  0  0  0
  8  4  1  0  0  0  0
  9  7  1  0  0  0  0
 10 15  1  0  0  0  0
 11 16  1  0  0  0  0
 11  8  1  0  0  0  0
 12 13  2  0  0  0  0
 13  1  1  0  0  0  0
 14  6  1  0  0  0  0
 15 21  1  0  0  0  0
 15  5  1  0  0  0  0
 18 19  1  0  0  0  0
 18 20  1  0  0  0  0
 19 20  1  0  0  0  0
 21 22  1  0  0  0  0
 23 27  1  6  0  0  0
 23 13  1  0  0  0  0
 23 25  1  0  0  0  0
 25 24  2  0  0  0  0
 26 25  1  0  0  0  0
 29 32  1  0  0  0  0
 29 30  1  0  0  0  0
 30 28  1  1  0  0  0
 30 27  1  0  0  0  0
 32 31  1  1  0  0  0
 32 30  1  0  0  0  0
M  END
>  <MODEL>
3

>  <REMARK>
 VINA RESULT:      -0.8      1.436      1.776
  Name = 
  6 active torsions:
  status: ('A' for Active; 'I' for Inactive)
    1  A    between atoms: C_9  and  C_12
    2  A    between atoms: C_13  and  N_29
    3  A    between atoms: C_15  and  C_20
    4  A    between atoms: C_16  and  C_20
    5  A    between atoms: C_16  and  C_22
    6  A    between atoms: C_16  and  C_27
                            x       y       z     vdW  Elec       q    Type
                         _______ _______ _______ _____ _____    ______ ____

>  <TORSDO>
F 6

$$$$
