=
 OpenBabel11052423053D

 28 30  0  0  1  0  0  0  0  0999 V2000
  161.4560  212.2590  150.4260 O   0  0  0  0  0  0  0  0  0  0  0  0
  160.4620  209.0920  151.7090 C   0  0  1  0  0  3  0  0  0  0  0  0
  162.8740  209.8720  151.9650 C   0  0  0  0  0  1  0  0  0  0  0  0
  160.2700  211.8880  152.4440 C   0  0  2  0  0  3  0  0  0  0  0  0
  159.6940  209.5860  152.9520 C   0  0  0  0  0  2  0  0  0  0  0  0
  161.1130  211.4520  151.2750 C   0  0  0  0  0  0  0  0  0  0  0  0
  161.5730  210.0270  151.1890 C   0  0  2  0  0  3  0  0  0  0  0  0
  160.2500  210.8400  153.4890 N   0  0  2  0  0  0  0  0  0  0  0  0
  159.5030  211.2730  154.6850 C   0  0  1  0  0  3  0  0  0  0  0  0
  159.0650  210.0680  155.5730 C   0  0  1  0  0  3  0  0  0  0  0  0
  160.0910  209.3880  156.3920 N   0  0  0  0  0  0  0  0  0  0  0  0
  161.4470  209.6320  155.9050 C   0  0  0  0  0  2  0  0  0  0  0  0
  161.9880  210.9530  156.4540 C   0  0  0  0  0  2  0  0  0  0  0  0
  160.9400  211.7580  156.9180 O   0  0  0  0  0  0  0  0  0  0  0  0
  160.3770  212.6580  155.5610 S   0  0  0  0  0  0  0  0  0  0  0  0
  159.8620  207.9600  156.2540 C   0  0  0  0  0  1  0  0  0  0  0  0
  157.7790  210.3350  156.3550 C   0  0  0  0  0  2  0  0  0  0  0  0
  156.7120  211.0070  155.5090 C   0  0  0  0  0  1  0  0  0  0  0  0
  160.9510  207.0010  153.0260 C   0  0  0  0  0  3  0  0  0  0  0  0
  161.1160  206.9130  150.6050 C   0  0  0  0  0  0  0  0  0  0  0  0
  161.5800  204.9370  151.9340 C   0  0  0  0  0  0  0  0  0  0  0  0
  160.8430  207.6400  151.7800 C   0  0  0  0  0  0  0  0  0  0  0  0
  161.4820  205.5660  150.6890 C   0  0  0  0  0  3  0  0  0  0  0  0
  161.0120  207.6600  149.0180 Cl  0  0  0  0  0  0  0  0  0  0  0  0
  161.9690  203.5050  152.0130 C   0  0  0  0  0  1  0  0  0  0  0  0
  161.3160  205.6560  153.1010 C   0  0  0  0  0  3  0  0  0  0  0  0
  158.8750  212.3780  152.0120 C   0  0  0  0  0  2  0  0  0  0  0  0
  158.7140  213.7450  152.2480 O   0  0  0  0  0  1  0  0  0  0  0  0
  1  6  2  0  0  0  0
  2 22  1  1  0  0  0
  2  5  1  0  0  0  0
  4 27  1  6  0  0  0
  4  8  1  0  0  0  0
  6  4  1  0  0  0  0
  7  6  1  0  0  0  0
  7  2  1  0  0  0  0
  7  3  1  1  0  0  0
  8  5  1  6  0  0  0
  8  9  1  0  0  0  0
  9 15  1  1  0  0  0
  9 10  1  0  0  0  0
 10 17  1  1  0  0  0
 10 11  1  0  0  0  0
 12 11  1  0  0  0  0
 12 13  1  0  0  0  0
 13 14  1  0  0  0  0
 15 14  1  0  0  0  0
 16 11  1  0  0  0  0
 18 17  1  0  0  0  0
 19 26  1  0  0  0  0
 20 23  2  0  0  0  0
 20 22  1  0  0  0  0
 21 25  1  0  0  0  0
 21 26  2  0  0  0  0
 22 19  2  0  0  0  0
 23 21  1  0  0  0  0
 24 20  1  0  0  0  0
 27 28  1  0  0  0  0
M  END
>  <MODEL>
1

>  <REMARK>
 VINA RESULT:      -3.7      0.000      0.000
  Name = 
  4 active torsions:
  status: ('A' for Active; 'I' for Inactive)
    1  A    between atoms: C_1  and  N_27
    2  A    between atoms: C_2  and  C_7
    3  A    between atoms: C_10  and  C_13
    4  A    between atoms: C_16  and  C_19
                            x       y       z     vdW  Elec       q    Type
                         _______ _______ _______ _____ _____    ______ ____

>  <TORSDO>
F 4

$$$$
=
 OpenBabel11052423053D

 28 30  0  0  1  0  0  0  0  0999 V2000
  161.8080  208.4440  157.2610 O   0  0  0  0  0  0  0  0  0  0  0  0
  161.5760  208.6420  153.7150 C   0  0  1  0  0  3  0  0  0  0  0  0
  159.8460  207.3170  155.0340 C   0  0  0  0  0  1  0  0  0  0  0  0
  160.9760  210.2870  156.0240 C   0  0  2  0  0  3  0  0  0  0  0  0
  161.0500  210.0870  153.6070 C   0  0  0  0  0  2  0  0  0  0  0  0
  161.3950  208.8490  156.1860 C   0  0  0  0  0  0  0  0  0  0  0  0
  161.2500  207.9040  155.0300 C   0  0  2  0  0  3  0  0  0  0  0  0
  160.2210  210.4680  154.7640 N   0  0  2  0  0  0  0  0  0  0  0  0
  159.7230  211.8480  154.6190 C   0  0  1  0  0  3  0  0  0  0  0  0
  158.2560  211.8910  154.0900 C   0  0  1  0  0  3  0  0  0  0  0  0
  157.1620  211.5340  155.0190 N   0  0  0  0  0  0  0  0  0  0  0  0
  157.6300  210.7440  156.1550 C   0  0  0  0  0  2  0  0  0  0  0  0
  158.1730  211.6530  157.2590 C   0  0  0  0  0  2  0  0  0  0  0  0
  158.4610  212.9250  156.7480 O   0  0  0  0  0  0  0  0  0  0  0  0
  160.0720  212.8550  156.1390 S   0  0  0  0  0  0  0  0  0  0  0  0
  156.2450  210.6810  154.2830 C   0  0  0  0  0  1  0  0  0  0  0  0
  157.9450  213.1510  153.2810 C   0  0  0  0  0  2  0  0  0  0  0  0
  158.4180  213.0500  151.8410 C   0  0  0  0  0  1  0  0  0  0  0  0
  161.0320  206.4700  152.5620 C   0  0  0  0  0  3  0  0  0  0  0  0
  161.5010  208.4210  151.1970 C   0  0  0  0  0  0  0  0  0  0  0  0
  160.9770  206.2970  150.1500 C   0  0  0  0  0  0  0  0  0  0  0  0
  161.3590  207.8320  152.4680 C   0  0  0  0  0  0  0  0  0  0  0  0
  161.3090  207.6510  150.0450 C   0  0  0  0  0  3  0  0  0  0  0  0
  161.9220  210.1180  151.0130 Cl  0  0  0  0  0  0  0  0  0  0  0  0
  160.7740  205.4860  148.9220 C   0  0  0  0  0  1  0  0  0  0  0  0
  160.8400  205.7070  151.4080 C   0  0  0  0  0  3  0  0  0  0  0  0
  162.1520  211.2640  156.2040 C   0  0  0  0  0  2  0  0  0  0  0  0
  163.3790  210.6440  155.9560 O   0  0  0  0  0  1  0  0  0  0  0  0
  2 22  1  6  0  0  0
  2  7  1  0  0  0  0
  4  6  1  0  0  0  0
  4 27  1  6  0  0  0
  5  2  1  0  0  0  0
  6  1  2  0  0  0  0
  7  3  1  6  0  0  0
  7  6  1  0  0  0  0
  8  5  1  6  0  0  0
  8  4  1  0  0  0  0
  9  8  1  0  0  0  0
  9 15  1  1  0  0  0
 10 17  1  1  0  0  0
 10  9  1  0  0  0  0
 10 11  1  0  0  0  0
 11 12  1  0  0  0  0
 12 13  1  0  0  0  0
 14 13  1  0  0  0  0
 15 14  1  0  0  0  0
 16 11  1  0  0  0  0
 18 17  1  0  0  0  0
 20 22  2  0  0  0  0
 21 26  1  0  0  0  0
 22 19  1  0  0  0  0
 23 21  2  0  0  0  0
 23 20  1  0  0  0  0
 24 20  1  0  0  0  0
 25 21  1  0  0  0  0
 26 19  2  0  0  0  0
 28 27  1  0  0  0  0
M  END
>  <MODEL>
2

>  <REMARK>
 VINA RESULT:      -3.3      2.123      3.797
  Name = 
  4 active torsions:
  status: ('A' for Active; 'I' for Inactive)
    1  A    between atoms: C_1  and  N_27
    2  A    between atoms: C_2  and  C_7
    3  A    between atoms: C_10  and  C_13
    4  A    between atoms: C_16  and  C_19
                            x       y       z     vdW  Elec       q    Type
                         _______ _______ _______ _____ _____    ______ ____

>  <TORSDO>
F 4

$$$$
=
 OpenBabel11052423053D

 28 30  0  0  1  0  0  0  0  0999 V2000
  161.7260  208.1900  157.2600 O   0  0  0  0  0  0  0  0  0  0  0  0
  161.6910  208.7880  153.7520 C   0  0  1  0  0  3  0  0  0  0  0  0
  159.7680  207.5290  154.8500 C   0  0  0  0  0  1  0  0  0  0  0  0
  161.1540  210.2340  156.2040 C   0  0  2  0  0  3  0  0  0  0  0  0
  161.3260  210.2850  153.7840 C   0  0  0  0  0  2  0  0  0  0  0  0
  161.4110  208.7500  156.2220 C   0  0  0  0  0  0  0  0  0  0  0  0
  161.2250  207.9550  154.9640 C   0  0  2  0  0  3  0  0  0  0  0  0
  160.4860  210.6300  154.9440 N   0  0  2  0  0  0  0  0  0  0  0  0
  160.1430  212.0640  154.9340 C   0  0  1  0  0  3  0  0  0  0  0  0
  158.8350  212.3500  154.1340 C   0  0  1  0  0  3  0  0  0  0  0  0
  157.5410  211.9890  154.7510 N   0  0  0  0  0  0  0  0  0  0  0  0
  157.6850  210.9920  155.8100 C   0  0  0  0  0  2  0  0  0  0  0  0
  158.0470  211.6630  157.1360 C   0  0  0  0  0  2  0  0  0  0  0  0
  158.5390  212.9550  156.9140 O   0  0  0  0  0  0  0  0  0  0  0  0
  160.2330  212.7920  156.6400 S   0  0  0  0  0  0  0  0  0  0  0  0
  156.7400  211.3620  153.7130 C   0  0  0  0  0  1  0  0  0  0  0  0
  158.8090  213.7420  153.5020 C   0  0  0  0  0  2  0  0  0  0  0  0
  159.4670  213.7710  152.1330 C   0  0  0  0  0  1  0  0  0  0  0  0
  161.1870  208.9370  151.2890 C   0  0  0  0  0  3  0  0  0  0  0  0
  161.4670  206.7410  152.2830 C   0  0  0  0  0  0  0  0  0  0  0  0
  160.9740  206.9560  149.9180 C   0  0  0  0  0  0  0  0  0  0  0  0
  161.4520  208.1430  152.4150 C   0  0  0  0  0  0  0  0  0  0  0  0
  161.2290  206.1550  151.0360 C   0  0  0  0  0  3  0  0  0  0  0  0
  161.7780  205.6920  153.6590 Cl  0  0  0  0  0  0  0  0  0  0  0  0
  160.7230  206.3260  148.5960 C   0  0  0  0  0  1  0  0  0  0  0  0
  160.9520  208.3460  150.0460 C   0  0  0  0  0  3  0  0  0  0  0  0
  162.4160  211.0520  156.5360 C   0  0  0  0  0  2  0  0  0  0  0  0
  163.4980  210.6760  155.7360 O   0  0  0  0  0  1  0  0  0  0  0  0
  2 22  1  6  0  0  0
  2  5  1  0  0  0  0
  2  7  1  0  0  0  0
  4  6  1  0  0  0  0
  4 27  1  6  0  0  0
  6  1  2  0  0  0  0
  7  3  1  6  0  0  0
  7  6  1  0  0  0  0
  8  5  1  6  0  0  0
  8  4  1  0  0  0  0
  9  8  1  0  0  0  0
  9 15  1  1  0  0  0
 10 17  1  1  0  0  0
 10 11  1  0  0  0  0
 10  9  1  0  0  0  0
 11 12  1  0  0  0  0
 12 13  1  0  0  0  0
 14 13  1  0  0  0  0
 15 14  1  0  0  0  0
 16 11  1  0  0  0  0
 18 17  1  0  0  0  0
 19 22  1  0  0  0  0
 20 22  2  0  0  0  0
 20 24  1  0  0  0  0
 21 26  1  0  0  0  0
 21 23  2  0  0  0  0
 23 20  1  0  0  0  0
 25 21  1  0  0  0  0
 26 19  2  0  0  0  0
 28 27  1  0  0  0  0
M  END
>  <MODEL>
3

>  <REMARK>
 VINA RESULT:      -2.3      2.276      4.098
  Name = 
  4 active torsions:
  status: ('A' for Active; 'I' for Inactive)
    1  A    between atoms: C_1  and  N_27
    2  A    between atoms: C_2  and  C_7
    3  A    between atoms: C_10  and  C_13
    4  A    between atoms: C_16  and  C_19
                            x       y       z     vdW  Elec       q    Type
                         _______ _______ _______ _____ _____    ______ ____

>  <TORSDO>
F 4

$$$$
=
 OpenBabel11052423053D

 28 30  0  0  1  0  0  0  0  0999 V2000
  161.5910  207.6010  156.9920 O   0  0  0  0  0  0  0  0  0  0  0  0
  161.8350  209.2650  153.8560 C   0  0  1  0  0  3  0  0  0  0  0  0
  160.0610  207.4710  154.2130 C   0  0  0  0  0  1  0  0  0  0  0  0
  160.7790  209.7740  156.5060 C   0  0  2  0  0  3  0  0  0  0  0  0
  161.2040  210.6100  154.2680 C   0  0  0  0  0  2  0  0  0  0  0  0
  161.2960  208.4100  156.1280 C   0  0  0  0  0  0  0  0  0  0  0  0
  161.3960  208.0370  154.6780 C   0  0  2  0  0  3  0  0  0  0  0  0
  160.1930  210.4510  155.3270 N   0  0  2  0  0  0  0  0  0  0  0  0
  159.6000  211.7540  155.6840 C   0  0  1  0  0  3  0  0  0  0  0  0
  159.2400  212.6000  154.4250 C   0  0  1  0  0  3  0  0  0  0  0  0
  158.0520  212.2140  153.6340 N   0  0  0  0  0  0  0  0  0  0  0  0
  157.6550  210.8270  153.8630 C   0  0  0  0  0  2  0  0  0  0  0  0
  156.7720  210.7160  155.1070 C   0  0  0  0  0  2  0  0  0  0  0  0
  156.9120  211.8550  155.9100 O   0  0  0  0  0  0  0  0  0  0  0  0
  158.2550  211.5590  156.9490 S   0  0  0  0  0  0  0  0  0  0  0  0
  158.4320  212.3000  152.2340 C   0  0  0  0  0  1  0  0  0  0  0  0
  159.3070  214.1080  154.6750 C   0  0  0  0  0  2  0  0  0  0  0  0
  159.3930  214.4490  156.1520 C   0  0  0  0  0  1  0  0  0  0  0  0
  161.6790  210.1340  151.4960 C   0  0  0  0  0  3  0  0  0  0  0  0
  162.0520  207.7600  151.8350 C   0  0  0  0  0  0  0  0  0  0  0  0
  161.8860  208.6610  149.5900 C   0  0  0  0  0  0  0  0  0  0  0  0
  161.8640  209.0490  152.3680 C   0  0  0  0  0  0  0  0  0  0  0  0
  162.0640  207.5730  150.4490 C   0  0  0  0  0  3  0  0  0  0  0  0
  162.2740  206.3600  152.8740 Cl  0  0  0  0  0  0  0  0  0  0  0  0
  161.9000  208.4540  148.1180 C   0  0  0  0  0  1  0  0  0  0  0  0
  161.6930  209.9400  150.1140 C   0  0  0  0  0  3  0  0  0  0  0  0
  161.8290  210.6100  157.2610 C   0  0  0  0  0  2  0  0  0  0  0  0
  163.1190  210.1080  157.0730 O   0  0  0  0  0  1  0  0  0  0  0  0
  2 22  1  6  0  0  0
  2  5  1  0  0  0  0
  2  7  1  0  0  0  0
  4 27  1  6  0  0  0
  6  4  1  0  0  0  0
  6  1  2  0  0  0  0
  7  3  1  6  0  0  0
  7  6  1  0  0  0  0
  8  5  1  6  0  0  0
  8  9  1  0  0  0  0
  8  4  1  0  0  0  0
  9 15  1  6  0  0  0
 10 17  1  1  0  0  0
 10  9  1  0  0  0  0
 11 12  1  0  0  0  0
 11 10  1  0  0  0  0
 12 13  1  0  0  0  0
 13 14  1  0  0  0  0
 14 15  1  0  0  0  0
 16 11  1  0  0  0  0
 17 18  1  0  0  0  0
 19 22  1  0  0  0  0
 20 22  2  0  0  0  0
 20 24  1  0  0  0  0
 21 26  1  0  0  0  0
 21 23  2  0  0  0  0
 23 20  1  0  0  0  0
 25 21  1  0  0  0  0
 26 19  2  0  0  0  0
 28 27  1  0  0  0  0
M  END
>  <MODEL>
4

>  <REMARK>
 VINA RESULT:      -2.0      2.527      4.516
  Name = 
  4 active torsions:
  status: ('A' for Active; 'I' for Inactive)
    1  A    between atoms: C_1  and  N_27
    2  A    between atoms: C_2  and  C_7
    3  A    between atoms: C_10  and  C_13
    4  A    between atoms: C_16  and  C_19
                            x       y       z     vdW  Elec       q    Type
                         _______ _______ _______ _____ _____    ______ ____

>  <TORSDO>
F 4

$$$$
