=
 OpenBabel11052422293D

 31 34  0  0  1  0  0  0  0  0999 V2000
  160.8360  207.4020  154.2910 C   0  0  0  0  0  0  0  0  0  0  0  0
  161.4180  207.1610  150.5670 C   0  0  0  0  0  0  0  0  0  0  0  0
  161.2690  205.7710  150.2200 C   0  0  0  0  0  0  0  0  0  0  0  0
  161.4920  203.4480  151.2180 C   0  0  0  0  0  2  0  0  0  0  0  0
  161.2590  207.6820  151.8960 C   0  0  0  0  0  0  0  0  0  0  0  0
  160.9520  208.7750  154.4880 C   0  0  0  0  0  3  0  0  0  0  0  0
  160.7530  204.7770  151.2380 C   0  0  0  0  0  2  0  0  0  0  0  0
  161.8820  209.4630  149.7900 C   0  0  0  0  0  0  0  0  0  0  0  0
  160.5760  206.5860  155.3410 F   0  0  0  0  0  0  0  0  0  0  0  0
  161.8230  206.2990  147.9020 C   0  0  0  0  0  3  0  0  0  0  0  0
  160.7910  202.4610  150.2890 C   0  0  0  0  0  2  0  0  0  0  0  0
  161.6980  209.9380  151.0850 C   0  0  0  0  0  3  0  0  0  0  0  0
  161.7490  208.0870  149.5300 C   0  0  0  0  0  0  0  0  0  0  0  0
  160.9900  206.8670  153.0110 C   0  0  0  0  0  3  0  0  0  0  0  0
  160.3520  203.0930  148.9690 C   0  0  0  0  0  2  0  0  0  0  0  0
  161.3920  209.0750  152.1260 C   0  0  0  0  0  0  0  0  0  0  0  0
  161.2320  209.6100  153.4070 C   0  0  0  0  0  3  0  0  0  0  0  0
  161.9450  207.6380  148.2240 C   0  0  0  0  0  3  0  0  0  0  0  0
  161.4780  205.3620  148.8660 C   0  0  0  0  0  0  0  0  0  0  0  0
  161.4730  203.9340  148.3790 C   0  0  0  0  0  2  0  0  0  0  0  0
  161.1590  212.3120  149.4800 O   0  0  0  0  0  0  0  0  0  0  0  0
  161.9020  211.7590  148.6290 C   0  0  0  0  0  0  0  0  0  0  0  0
  162.2240  210.3640  148.7210 N   0  0  0  0  0  2  0  0  0  0  0  0
  162.8230  213.8430  147.9760 O   0  0  0  0  0  1  0  0  0  0  0  0
  162.4610  212.5770  147.5120 C   0  0  2  0  0  3  0  0  0  0  0  0
  159.0120  212.5430  145.7010 C   0  0  0  0  0  0  0  0  0  0  0  0
  161.8830  212.9640  145.2390 O   0  0  0  0  0  0  0  0  0  0  0  0
  159.2660  212.7730  144.2500 C   0  0  0  0  0  1  0  0  0  0  0  0
  157.8280  212.3710  146.0880 O   0  0  0  0  0  0  0  0  0  0  0  0
  161.4710  212.6990  146.4000 C   0  0  0  0  0  0  0  0  0  0  0  0
  160.0730  212.5090  146.6640 N   0  0  0  0  0  2  0  0  0  0  0  0
  1  6  1  0  0  0  0
  1  9  1  0  0  0  0
  2  5  1  0  0  0  0
  3  2  1  0  0  0  0
  3  7  1  0  0  0  0
  4  7  1  0  0  0  0
  5 16  2  0  0  0  0
  5 14  1  0  0  0  0
  8 12  2  0  0  0  0
 10 18  2  0  0  0  0
 10 19  1  0  0  0  0
 11  4  1  0  0  0  0
 12 16  1  0  0  0  0
 13  8  1  0  0  0  0
 13  2  2  0  0  0  0
 14  1  2  0  0  0  0
 15 11  1  0  0  0  0
 16 17  1  0  0  0  0
 17  6  2  0  0  0  0
 18 13  1  0  0  0  0
 19  3  2  0  0  0  0
 20 19  1  0  0  0  0
 20 15  1  0  0  0  0
 22 23  1  0  0  0  0
 22 21  2  0  0  0  0
 23  8  1  0  0  0  0
 25 24  1  1  0  0  0
 25 22  1  0  0  0  0
 26 29  2  0  0  0  0
 26 31  1  0  0  0  0
 27 30  2  0  0  0  0
 28 26  1  0  0  0  0
 30 31  1  0  0  0  0
 30 25  1  0  0  0  0
M  END
>  <MODEL>
1

>  <REMARK>
 VINA RESULT:     -11.2      0.000      0.000
  Name = 
  3 active torsions:
  status: ('A' for Active; 'I' for Inactive)
    1  A    between atoms: C_9  and  C_22
    2  A    between atoms: C_15  and  N_23
    3  A    between atoms: C_19  and  C_22
                            x       y       z     vdW  Elec       q    Type
                         _______ _______ _______ _____ _____    ______ ____

>  <TORSDO>
F 3

$$$$
=
 OpenBabel11052422293D

 31 34  0  0  1  0  0  0  0  0999 V2000
  160.9850  204.0270  152.2950 C   0  0  0  0  0  0  0  0  0  0  0  0
  161.2890  205.2870  148.7480 C   0  0  0  0  0  0  0  0  0  0  0  0
  161.2050  204.1290  147.8950 C   0  0  0  0  0  0  0  0  0  0  0  0
  161.6600  201.6320  147.9010 C   0  0  0  0  0  2  0  0  0  0  0  0
  161.2000  205.2420  150.1800 C   0  0  0  0  0  0  0  0  0  0  0  0
  161.0240  205.2240  153.0050 C   0  0  0  0  0  3  0  0  0  0  0  0
  160.8370  202.7780  148.4690 C   0  0  0  0  0  2  0  0  0  0  0  0
  161.5350  207.7440  148.9060 C   0  0  0  0  0  0  0  0  0  0  0  0
  160.8620  202.8510  152.9560 F   0  0  0  0  0  0  0  0  0  0  0  0
  161.5390  205.5550  145.9410 C   0  0  0  0  0  3  0  0  0  0  0  0
  160.9550  201.0170  146.6950 C   0  0  0  0  0  2  0  0  0  0  0  0
  161.4220  207.6660  150.2910 C   0  0  0  0  0  3  0  0  0  0  0  0
  161.4740  206.5670  148.1380 C   0  0  0  0  0  0  0  0  0  0  0  0
  161.0730  204.0410  150.9020 C   0  0  0  0  0  3  0  0  0  0  0  0
  160.3730  202.0640  145.7460 C   0  0  0  0  0  2  0  0  0  0  0  0
  161.2570  206.4460  150.9280 C   0  0  0  0  0  0  0  0  0  0  0  0
  161.1630  206.4310  152.3220 C   0  0  0  0  0  3  0  0  0  0  0  0
  161.5970  206.6720  146.7530 C   0  0  0  0  0  3  0  0  0  0  0  0
  161.3340  204.2920  146.4800 C   0  0  0  0  0  0  0  0  0  0  0  0
  161.3860  203.1660  145.4780 C   0  0  0  0  0  2  0  0  0  0  0  0
  161.9450  210.3980  150.1380 O   0  0  0  0  0  0  0  0  0  0  0  0
  161.9840  210.2770  148.8860 C   0  0  0  0  0  0  0  0  0  0  0  0
  161.7320  209.0130  148.2570 N   0  0  0  0  0  2  0  0  0  0  0  0
  163.3220  212.2180  148.6480 O   0  0  0  0  0  1  0  0  0  0  0  0
  162.3040  211.4710  148.0500 C   0  0  2  0  0  3  0  0  0  0  0  0
  159.0380  212.8060  146.4000 C   0  0  0  0  0  0  0  0  0  0  0  0
  160.8650  213.2630  148.6560 O   0  0  0  0  0  0  0  0  0  0  0  0
  158.6080  214.0090  147.1690 C   0  0  0  0  0  1  0  0  0  0  0  0
  158.3530  212.4430  145.4110 O   0  0  0  0  0  0  0  0  0  0  0  0
  161.0910  212.3200  147.8520 C   0  0  0  0  0  0  0  0  0  0  0  0
  160.2070  212.0560  146.7520 N   0  0  0  0  0  2  0  0  0  0  0  0
  1  9  1  0  0  0  0
  1  6  1  0  0  0  0
  2  5  1  0  0  0  0
  3  7  1  0  0  0  0
  3  2  1  0  0  0  0
  4  7  1  0  0  0  0
  5 14  1  0  0  0  0
  5 16  2  0  0  0  0
  8 12  2  0  0  0  0
 10 19  1  0  0  0  0
 10 18  2  0  0  0  0
 11  4  1  0  0  0  0
 12 16  1  0  0  0  0
 13  2  2  0  0  0  0
 13  8  1  0  0  0  0
 14  1  2  0  0  0  0
 15 11  1  0  0  0  0
 16 17  1  0  0  0  0
 17  6  2  0  0  0  0
 18 13  1  0  0  0  0
 19  3  2  0  0  0  0
 20 15  1  0  0  0  0
 20 19  1  0  0  0  0
 22 21  2  0  0  0  0
 23 22  1  0  0  0  0
 23  8  1  0  0  0  0
 25 24  1  1  0  0  0
 25 22  1  0  0  0  0
 26 31  1  0  0  0  0
 26 28  1  0  0  0  0
 29 26  2  0  0  0  0
 30 25  1  0  0  0  0
 30 27  2  0  0  0  0
 31 30  1  0  0  0  0
M  END
>  <MODEL>
2

>  <REMARK>
 VINA RESULT:     -11.1      1.784      2.767
  Name = 
  3 active torsions:
  status: ('A' for Active; 'I' for Inactive)
    1  A    between atoms: C_9  and  C_22
    2  A    between atoms: C_15  and  N_23
    3  A    between atoms: C_19  and  C_22
                            x       y       z     vdW  Elec       q    Type
                         _______ _______ _______ _____ _____    ______ ____

>  <TORSDO>
F 3

$$$$
=
 OpenBabel11052422293D

 31 34  0  0  1  0  0  0  0  0999 V2000
  161.0960  201.4610  150.1370 C   0  0  0  0  0  0  0  0  0  0  0  0
  161.1890  205.1580  149.3690 C   0  0  0  0  0  0  0  0  0  0  0  0
  161.1460  205.2780  147.9350 C   0  0  0  0  0  0  0  0  0  0  0  0
  161.7560  204.0050  145.8250 C   0  0  0  0  0  2  0  0  0  0  0  0
  161.1560  203.9080  150.0750 C   0  0  0  0  0  0  0  0  0  0  0  0
  161.0860  201.4810  151.5290 C   0  0  0  0  0  3  0  0  0  0  0  0
  160.8850  204.0630  147.0700 C   0  0  0  0  0  2  0  0  0  0  0  0
  161.2870  206.3160  151.5540 C   0  0  0  0  0  0  0  0  0  0  0  0
  161.0710  200.2790  149.4750 F   0  0  0  0  0  0  0  0  0  0  0  0
  161.3180  207.7050  148.1410 C   0  0  0  0  0  3  0  0  0  0  0  0
  161.0470  204.6680  144.6470 C   0  0  0  0  0  2  0  0  0  0  0  0
  161.2300  205.0870  152.2070 C   0  0  0  0  0  3  0  0  0  0  0  0
  161.2710  206.3540  150.1480 C   0  0  0  0  0  0  0  0  0  0  0  0
  161.1310  202.6610  149.4240 C   0  0  0  0  0  3  0  0  0  0  0  0
  160.3670  205.9830  145.0240 C   0  0  0  0  0  2  0  0  0  0  0  0
  161.1650  203.9010  151.4940 C   0  0  0  0  0  0  0  0  0  0  0  0
  161.1230  202.6990  152.2060 C   0  0  0  0  0  3  0  0  0  0  0  0
  161.3360  207.5970  149.5190 C   0  0  0  0  0  3  0  0  0  0  0  0
  161.2130  206.5760  147.3390 C   0  0  0  0  0  0  0  0  0  0  0  0
  161.2980  206.8490  145.8580 C   0  0  0  0  0  2  0  0  0  0  0  0
  160.4390  206.8420  154.3350 O   0  0  0  0  0  0  0  0  0  0  0  0
  161.0080  207.7470  153.6730 C   0  0  0  0  0  0  0  0  0  0  0  0
  161.3800  207.5400  152.3030 N   0  0  0  0  0  2  0  0  0  0  0  0
  161.7300  208.8420  155.6470 O   0  0  0  0  0  1  0  0  0  0  0  0
  161.3050  209.0520  154.3340 C   0  0  2  0  0  3  0  0  0  0  0  0
  158.6920  211.6010  152.9730 C   0  0  0  0  0  0  0  0  0  0  0  0
  159.3950  210.0310  155.3550 O   0  0  0  0  0  0  0  0  0  0  0  0
  157.7570  211.9220  154.0890 C   0  0  0  0  0  1  0  0  0  0  0  0
  158.5230  212.1620  151.8610 O   0  0  0  0  0  0  0  0  0  0  0  0
  160.1030  209.9390  154.3170 C   0  0  0  0  0  0  0  0  0  0  0  0
  159.7750  210.6750  153.1300 N   0  0  0  0  0  2  0  0  0  0  0  0
  1  6  1  0  0  0  0
  2  5  2  0  0  0  0
  2 13  1  0  0  0  0
  3  2  1  0  0  0  0
  4  7  1  0  0  0  0
  5 16  1  0  0  0  0
  6 17  2  0  0  0  0
  7  3  1  0  0  0  0
  8 12  1  0  0  0  0
  8 23  1  0  0  0  0
  9  1  1  0  0  0  0
 10 18  2  0  0  0  0
 11 15  1  0  0  0  0
 11  4  1  0  0  0  0
 13  8  2  0  0  0  0
 14  5  1  0  0  0  0
 14  1  2  0  0  0  0
 15 20  1  0  0  0  0
 16 17  1  0  0  0  0
 16 12  2  0  0  0  0
 18 13  1  0  0  0  0
 19  3  2  0  0  0  0
 19 10  1  0  0  0  0
 20 19  1  0  0  0  0
 22 25  1  0  0  0  0
 22 21  2  0  0  0  0
 23 22  1  0  0  0  0
 25 24  1  1  0  0  0
 26 31  1  0  0  0  0
 26 28  1  0  0  0  0
 29 26  2  0  0  0  0
 30 25  1  0  0  0  0
 30 27  2  0  0  0  0
 31 30  1  0  0  0  0
M  END
>  <MODEL>
3

>  <REMARK>
 VINA RESULT:     -10.3      3.838      6.178
  Name = 
  3 active torsions:
  status: ('A' for Active; 'I' for Inactive)
    1  A    between atoms: C_9  and  C_22
    2  A    between atoms: C_15  and  N_23
    3  A    between atoms: C_19  and  C_22
                            x       y       z     vdW  Elec       q    Type
                         _______ _______ _______ _____ _____    ______ ____

>  <TORSDO>
F 3

$$$$
=
 OpenBabel11052422293D

 31 34  0  0  1  0  0  0  0  0999 V2000
  161.8170  207.0510  147.2640 C   0  0  0  0  0  0  0  0  0  0  0  0
  161.2400  204.8040  150.2440 C   0  0  0  0  0  0  0  0  0  0  0  0
  161.1440  203.4620  149.7300 C   0  0  0  0  0  0  0  0  0  0  0  0
  160.4990  202.1900  147.6300 C   0  0  0  0  0  2  0  0  0  0  0  0
  161.4760  205.9630  149.4310 C   0  0  0  0  0  0  0  0  0  0  0  0
  161.9460  208.2890  147.8870 C   0  0  0  0  0  3  0  0  0  0  0  0
  161.4640  203.1690  148.2800 C   0  0  0  0  0  2  0  0  0  0  0  0
  161.2030  206.2820  152.2270 C   0  0  0  0  0  0  0  0  0  0  0  0
  161.9180  206.9570  145.9160 F   0  0  0  0  0  0  0  0  0  0  0  0
  160.7170  202.6370  151.9880 C   0  0  0  0  0  3  0  0  0  0  0  0
  161.0230  200.7610  147.7590 C   0  0  0  0  0  2  0  0  0  0  0  0
  161.4550  207.3820  151.4120 C   0  0  0  0  0  3  0  0  0  0  0  0
  161.0910  205.0040  151.6520 C   0  0  0  0  0  0  0  0  0  0  0  0
  161.5850  205.9060  148.0290 C   0  0  0  0  0  3  0  0  0  0  0  0
  161.5810  200.4540  149.1480 C   0  0  0  0  0  2  0  0  0  0  0  0
  161.5910  207.2390  150.0400 C   0  0  0  0  0  0  0  0  0  0  0  0
  161.8310  208.3820  149.2730 C   0  0  0  0  0  3  0  0  0  0  0  0
  160.8320  203.9200  152.4900 C   0  0  0  0  0  3  0  0  0  0  0  0
  160.8790  202.3840  150.6330 C   0  0  0  0  0  0  0  0  0  0  0  0
  160.6350  200.9520  150.2280 C   0  0  0  0  0  2  0  0  0  0  0  0
  161.2100  208.7790  153.8070 O   0  0  0  0  0  0  0  0  0  0  0  0
  160.9910  207.6790  154.3770 C   0  0  0  0  0  0  0  0  0  0  0  0
  161.0380  206.4450  153.6470 N   0  0  0  0  0  2  0  0  0  0  0  0
  159.4940  206.9540  156.0640 O   0  0  0  0  0  1  0  0  0  0  0  0
  160.6720  207.6680  155.8350 C   0  0  2  0  0  3  0  0  0  0  0  0
  159.0720  211.1510  156.5270 C   0  0  0  0  0  0  0  0  0  0  0  0
  161.5050  209.5700  156.9890 O   0  0  0  0  0  0  0  0  0  0  0  0
  160.0930  211.9810  157.2290 C   0  0  0  0  0  1  0  0  0  0  0  0
  157.9510  211.6590  156.2700 O   0  0  0  0  0  0  0  0  0  0  0  0
  160.5410  209.0600  156.3590 C   0  0  0  0  0  0  0  0  0  0  0  0
  159.3300  209.7970  156.1350 N   0  0  0  0  0  2  0  0  0  0  0  0
  1  6  2  0  0  0  0
  1 14  1  0  0  0  0
  2 13  1  0  0  0  0
  3  2  2  0  0  0  0
  3 19  1  0  0  0  0
  4 11  1  0  0  0  0
  4  7  1  0  0  0  0
  5 16  1  0  0  0  0
  5  2  1  0  0  0  0
  6 17  1  0  0  0  0
  7  3  1  0  0  0  0
  8 23  1  0  0  0  0
  9  1  1  0  0  0  0
 10 18  1  0  0  0  0
 11 15  1  0  0  0  0
 12  8  2  0  0  0  0
 13  8  1  0  0  0  0
 13 18  2  0  0  0  0
 14  5  2  0  0  0  0
 15 20  1  0  0  0  0
 16 12  1  0  0  0  0
 17 16  2  0  0  0  0
 19 10  2  0  0  0  0
 20 19  1  0  0  0  0
 21 22  2  0  0  0  0
 22 25  1  0  0  0  0
 23 22  1  0  0  0  0
 25 24  1  6  0  0  0
 25 30  1  0  0  0  0
 26 28  1  0  0  0  0
 29 26  2  0  0  0  0
 30 27  2  0  0  0  0
 31 30  1  0  0  0  0
 31 26  1  0  0  0  0
M  END
>  <MODEL>
4

>  <REMARK>
 VINA RESULT:      -9.8      4.531      7.023
  Name = 
  3 active torsions:
  status: ('A' for Active; 'I' for Inactive)
    1  A    between atoms: C_9  and  C_22
    2  A    between atoms: C_15  and  N_23
    3  A    between atoms: C_19  and  C_22
                            x       y       z     vdW  Elec       q    Type
                         _______ _______ _______ _____ _____    ______ ____

>  <TORSDO>
F 3

$$$$
=
 OpenBabel11052422293D

 31 34  0  0  1  0  0  0  0  0999 V2000
  161.8880  210.9970  149.7440 C   0  0  0  0  0  0  0  0  0  0  0  0
  161.2770  208.3230  152.3410 C   0  0  0  0  0  0  0  0  0  0  0  0
  160.9110  209.0090  153.5540 C   0  0  0  0  0  0  0  0  0  0  0  0
  161.2330  211.2260  154.7470 C   0  0  0  0  0  2  0  0  0  0  0  0
  161.5780  208.9830  151.1020 C   0  0  0  0  0  0  0  0  0  0  0  0
  162.1740  210.2190  148.6260 C   0  0  0  0  0  3  0  0  0  0  0  0
  160.6500  210.4990  153.5450 C   0  0  0  0  0  2  0  0  0  0  0  0
  161.6720  206.1580  151.2100 C   0  0  0  0  0  0  0  0  0  0  0  0
  161.8940  212.3480  149.6500 F   0  0  0  0  0  0  0  0  0  0  0  0
  160.7700  206.8640  154.7130 C   0  0  0  0  0  3  0  0  0  0  0  0
  160.1990  211.3190  155.8660 C   0  0  0  0  0  2  0  0  0  0  0  0
  161.9350  206.8290  150.0190 C   0  0  0  0  0  3  0  0  0  0  0  0
  161.3500  206.8960  152.3640 C   0  0  0  0  0  0  0  0  0  0  0  0
  161.5950  210.3830  150.9640 C   0  0  0  0  0  3  0  0  0  0  0  0
  159.4320  210.0150  156.0790 C   0  0  0  0  0  2  0  0  0  0  0  0
  161.8930  208.2130  149.9530 C   0  0  0  0  0  0  0  0  0  0  0  0
  162.1790  208.8290  148.7310 C   0  0  0  0  0  3  0  0  0  0  0  0
  161.0980  206.2000  153.5460 C   0  0  0  0  0  3  0  0  0  0  0  0
  160.6600  208.2480  154.7380 C   0  0  0  0  0  0  0  0  0  0  0  0
  160.3850  208.8300  156.1020 C   0  0  0  0  0  2  0  0  0  0  0  0
  159.5310  204.1820  150.7200 O   0  0  0  0  0  0  0  0  0  0  0  0
  160.6980  203.7890  150.9760 C   0  0  0  0  0  0  0  0  0  0  0  0
  161.7450  204.7230  151.2750 N   0  0  0  0  0  2  0  0  0  0  0  0
  162.2250  202.0750  151.5650 O   0  0  0  0  0  1  0  0  0  0  0  0
  160.9920  202.3250  150.9610 C   0  0  2  0  0  3  0  0  0  0  0  0
  161.1750  202.3560  147.0700 C   0  0  0  0  0  0  0  0  0  0  0  0
  160.7880  200.5710  149.3710 O   0  0  0  0  0  0  0  0  0  0  0  0
  160.8920  200.9710  146.5970 C   0  0  0  0  0  1  0  0  0  0  0  0
  161.3970  203.2530  146.2170 O   0  0  0  0  0  0  0  0  0  0  0  0
  160.9870  201.8000  149.5620 C   0  0  0  0  0  0  0  0  0  0  0  0
  161.2020  202.6960  148.4620 N   0  0  0  0  0  2  0  0  0  0  0  0
  1 14  1  0  0  0  0
  2 13  2  0  0  0  0
  2  3  1  0  0  0  0
  3 19  2  0  0  0  0
  4 11  1  0  0  0  0
  5  2  1  0  0  0  0
  6 17  1  0  0  0  0
  6  1  2  0  0  0  0
  7  3  1  0  0  0  0
  7  4  1  0  0  0  0
  8 23  1  0  0  0  0
  8 13  1  0  0  0  0
  9  1  1  0  0  0  0
 10 19  1  0  0  0  0
 11 15  1  0  0  0  0
 12  8  2  0  0  0  0
 13 18  1  0  0  0  0
 14  5  2  0  0  0  0
 15 20  1  0  0  0  0
 16 12  1  0  0  0  0
 16  5  1  0  0  0  0
 17 16  2  0  0  0  0
 18 10  2  0  0  0  0
 19 20  1  0  0  0  0
 21 22  2  0  0  0  0
 22 23  1  0  0  0  0
 25 22  1  0  0  0  0
 25 24  1  6  0  0  0
 26 31  1  0  0  0  0
 27 30  2  0  0  0  0
 28 26  1  0  0  0  0
 29 26  2  0  0  0  0
 30 25  1  0  0  0  0
 31 30  1  0  0  0  0
M  END
>  <MODEL>
5

>  <REMARK>
 VINA RESULT:      -9.3      4.629      7.994
  Name = 
  3 active torsions:
  status: ('A' for Active; 'I' for Inactive)
    1  A    between atoms: C_9  and  C_22
    2  A    between atoms: C_15  and  N_23
    3  A    between atoms: C_19  and  C_22
                            x       y       z     vdW  Elec       q    Type
                         _______ _______ _______ _____ _____    ______ ____

>  <TORSDO>
F 3

$$$$
=
 OpenBabel11052422293D

 31 34  0  0  1  0  0  0  0  0999 V2000
  160.7690  201.9010  150.6530 C   0  0  0  0  0  0  0  0  0  0  0  0
  161.4040  205.3370  149.2190 C   0  0  0  0  0  0  0  0  0  0  0  0
  161.3240  205.2020  147.7870 C   0  0  0  0  0  0  0  0  0  0  0  0
  161.6480  203.4920  145.9410 C   0  0  0  0  0  2  0  0  0  0  0  0
  161.2050  204.2560  150.1420 C   0  0  0  0  0  0  0  0  0  0  0  0
  160.8160  202.1710  152.0170 C   0  0  0  0  0  3  0  0  0  0  0  0
  160.8450  203.9100  147.1630 C   0  0  0  0  0  2  0  0  0  0  0  0
  161.7650  206.8370  151.1530 C   0  0  0  0  0  0  0  0  0  0  0  0
  160.5360  200.6390  150.2190 F   0  0  0  0  0  0  0  0  0  0  0  0
  161.8780  207.5680  147.5430 C   0  0  0  0  0  3  0  0  0  0  0  0
  161.0040  204.0370  144.6680 C   0  0  0  0  0  2  0  0  0  0  0  0
  161.5440  205.7710  152.0210 C   0  0  0  0  0  3  0  0  0  0  0  0
  161.7010  206.6250  149.7640 C   0  0  0  0  0  0  0  0  0  0  0  0
  160.9620  202.9320  149.7310 C   0  0  0  0  0  3  0  0  0  0  0  0
  160.5510  205.4900  144.8050 C   0  0  0  0  0  2  0  0  0  0  0  0
  161.2680  204.5010  151.5380 C   0  0  0  0  0  0  0  0  0  0  0  0
  161.0680  203.4690  152.4590 C   0  0  0  0  0  3  0  0  0  0  0  0
  161.9330  207.7080  148.9170 C   0  0  0  0  0  3  0  0  0  0  0  0
  161.5680  206.3450  146.9630 C   0  0  0  0  0  0  0  0  0  0  0  0
  161.6360  206.3310  145.4570 C   0  0  0  0  0  2  0  0  0  0  0  0
  159.9670  208.7690  152.4840 O   0  0  0  0  0  0  0  0  0  0  0  0
  161.1900  209.0370  152.3560 C   0  0  0  0  0  0  0  0  0  0  0  0
  162.0760  208.1450  151.6650 N   0  0  0  0  0  2  0  0  0  0  0  0
  163.1100  210.3490  152.8120 O   0  0  0  0  0  1  0  0  0  0  0  0
  161.7210  210.3030  152.9420 C   0  0  2  0  0  3  0  0  0  0  0  0
  159.4530  210.8890  156.0540 C   0  0  0  0  0  0  0  0  0  0  0  0
  162.2190  210.2890  155.2660 O   0  0  0  0  0  0  0  0  0  0  0  0
  160.3280  210.8420  157.2610 C   0  0  0  0  0  1  0  0  0  0  0  0
  158.2240  211.1080  156.2060 O   0  0  0  0  0  0  0  0  0  0  0  0
  161.3330  210.4240  154.3800 C   0  0  0  0  0  0  0  0  0  0  0  0
  159.9690  210.6960  154.7310 N   0  0  0  0  0  2  0  0  0  0  0  0
  1  6  1  0  0  0  0
  2 13  2  0  0  0  0
  2  5  1  0  0  0  0
  3  2  1  0  0  0  0
  4  7  1  0  0  0  0
  5 16  2  0  0  0  0
  6 17  2  0  0  0  0
  7  3  1  0  0  0  0
  8 23  1  0  0  0  0
  8 12  2  0  0  0  0
  9  1  1  0  0  0  0
 10 18  2  0  0  0  0
 11 15  1  0  0  0  0
 11  4  1  0  0  0  0
 13  8  1  0  0  0  0
 14  5  1  0  0  0  0
 14  1  2  0  0  0  0
 15 20  1  0  0  0  0
 16 12  1  0  0  0  0
 16 17  1  0  0  0  0
 18 13  1  0  0  0  0
 19 10  1  0  0  0  0
 19  3  2  0  0  0  0
 20 19  1  0  0  0  0
 22 21  2  0  0  0  0
 22 25  1  0  0  0  0
 23 22  1  0  0  0  0
 25 24  1  1  0  0  0
 25 30  1  0  0  0  0
 26 29  2  0  0  0  0
 26 28  1  0  0  0  0
 30 31  1  0  0  0  0
 30 27  2  0  0  0  0
 31 26  1  0  0  0  0
M  END
>  <MODEL>
6

>  <REMARK>
 VINA RESULT:      -9.1      3.945      6.177
  Name = 
  3 active torsions:
  status: ('A' for Active; 'I' for Inactive)
    1  A    between atoms: C_9  and  C_22
    2  A    between atoms: C_15  and  N_23
    3  A    between atoms: C_19  and  C_22
                            x       y       z     vdW  Elec       q    Type
                         _______ _______ _______ _____ _____    ______ ____

>  <TORSDO>
F 3

$$$$
=
 OpenBabel11052422293D

 31 34  0  0  1  0  0  0  0  0999 V2000
  160.8590  201.8810  150.6910 C   0  0  0  0  0  0  0  0  0  0  0  0
  161.2030  205.2470  149.0130 C   0  0  0  0  0  0  0  0  0  0  0  0
  161.1770  204.9990  147.5940 C   0  0  0  0  0  0  0  0  0  0  0  0
  161.7150  203.1960  145.8910 C   0  0  0  0  0  2  0  0  0  0  0  0
  161.0820  204.2220  150.0120 C   0  0  0  0  0  0  0  0  0  0  0  0
  160.8420  202.2550  152.0320 C   0  0  0  0  0  3  0  0  0  0  0  0
  160.8420  203.6240  147.0600 C   0  0  0  0  0  2  0  0  0  0  0  0
  161.3650  206.9140  150.8340 C   0  0  0  0  0  0  0  0  0  0  0  0
  160.7600  200.5730  150.3510 F   0  0  0  0  0  0  0  0  0  0  0  0
  161.5100  207.3830  147.1820 C   0  0  0  0  0  3  0  0  0  0  0  0
  161.0580  203.5800  144.5670 C   0  0  0  0  0  2  0  0  0  0  0  0
  161.2220  205.8980  151.7760 C   0  0  0  0  0  3  0  0  0  0  0  0
  161.3610  206.5940  149.4640 C   0  0  0  0  0  0  0  0  0  0  0  0
  160.9780  202.8550  149.6980 C   0  0  0  0  0  3  0  0  0  0  0  0
  160.4650  204.9880  144.5830 C   0  0  0  0  0  2  0  0  0  0  0  0
  161.0830  204.5760  151.3860 C   0  0  0  0  0  0  0  0  0  0  0  0
  160.9560  203.6000  152.3780 C   0  0  0  0  0  3  0  0  0  0  0  0
  161.5120  207.6290  148.5420 C   0  0  0  0  0  3  0  0  0  0  0  0
  161.3340  206.0960  146.6900 C   0  0  0  0  0  0  0  0  0  0  0  0
  161.4460  205.9770  145.1910 C   0  0  0  0  0  2  0  0  0  0  0  0
  160.4580  208.2040  153.3330 O   0  0  0  0  0  0  0  0  0  0  0  0
  161.1290  208.8620  152.4970 C   0  0  0  0  0  0  0  0  0  0  0  0
  161.5350  208.2800  151.2500 N   0  0  0  0  0  2  0  0  0  0  0  0
  160.8460  210.6980  153.9690 O   0  0  0  0  0  1  0  0  0  0  0  0
  161.5130  210.2690  152.8190 C   0  0  2  0  0  3  0  0  0  0  0  0
  161.7820  211.8670  149.2770 C   0  0  0  0  0  0  0  0  0  0  0  0
  160.3100  212.0540  151.8130 O   0  0  0  0  0  0  0  0  0  0  0  0
  160.8300  213.0140  149.2300 C   0  0  0  0  0  1  0  0  0  0  0  0
  162.4800  211.6170  148.2610 O   0  0  0  0  0  0  0  0  0  0  0  0
  161.2030  211.1770  151.6740 C   0  0  0  0  0  0  0  0  0  0  0  0
  161.9260  211.0440  150.4410 N   0  0  0  0  0  2  0  0  0  0  0  0
  1  6  1  0  0  0  0
  2 13  2  0  0  0  0
  2  5  1  0  0  0  0
  3  2  1  0  0  0  0
  4  7  1  0  0  0  0
  5 16  2  0  0  0  0
  6 17  2  0  0  0  0
  7  3  1  0  0  0  0
  8 23  1  0  0  0  0
  8 12  2  0  0  0  0
  9  1  1  0  0  0  0
 10 18  2  0  0  0  0
 11 15  1  0  0  0  0
 11  4  1  0  0  0  0
 13  8  1  0  0  0  0
 14  5  1  0  0  0  0
 14  1  2  0  0  0  0
 15 20  1  0  0  0  0
 16 12  1  0  0  0  0
 16 17  1  0  0  0  0
 18 13  1  0  0  0  0
 19 10  1  0  0  0  0
 19  3  2  0  0  0  0
 20 19  1  0  0  0  0
 22 25  1  0  0  0  0
 22 21  2  0  0  0  0
 23 22  1  0  0  0  0
 25 24  1  1  0  0  0
 26 31  1  0  0  0  0
 28 26  1  0  0  0  0
 29 26  2  0  0  0  0
 30 27  2  0  0  0  0
 30 25  1  0  0  0  0
 31 30  1  0  0  0  0
M  END
>  <MODEL>
7

>  <REMARK>
 VINA RESULT:      -9.1      2.662      4.898
  Name = 
  3 active torsions:
  status: ('A' for Active; 'I' for Inactive)
    1  A    between atoms: C_9  and  C_22
    2  A    between atoms: C_15  and  N_23
    3  A    between atoms: C_19  and  C_22
                            x       y       z     vdW  Elec       q    Type
                         _______ _______ _______ _____ _____    ______ ____

>  <TORSDO>
F 3

$$$$
=
 OpenBabel11052422293D

 31 34  0  0  1  0  0  0  0  0999 V2000
  160.6900  212.8200  150.9640 C   0  0  0  0  0  0  0  0  0  0  0  0
  161.3430  209.1320  151.4480 C   0  0  0  0  0  0  0  0  0  0  0  0
  161.0310  208.8400  152.8240 C   0  0  0  0  0  0  0  0  0  0  0  0
  160.9350  209.9430  155.1070 C   0  0  0  0  0  2  0  0  0  0  0  0
  161.2120  210.4310  150.8510 C   0  0  0  0  0  0  0  0  0  0  0  0
  160.9710  212.9630  149.6080 C   0  0  0  0  0  3  0  0  0  0  0  0
  160.3660  209.8810  153.6980 C   0  0  0  0  0  2  0  0  0  0  0  0
  162.1120  208.2730  149.2590 C   0  0  0  0  0  0  0  0  0  0  0  0
  160.3000  213.8940  151.6920 F   0  0  0  0  0  0  0  0  0  0  0  0
  161.7120  206.5210  152.4760 C   0  0  0  0  0  3  0  0  0  0  0  0
  160.1420  209.0340  156.0430 C   0  0  0  0  0  2  0  0  0  0  0  0
  161.9520  209.5400  148.7060 C   0  0  0  0  0  3  0  0  0  0  0  0
  161.8160  208.0680  150.6190 C   0  0  0  0  0  0  0  0  0  0  0  0
  160.8120  211.5700  151.5730 C   0  0  0  0  0  3  0  0  0  0  0  0
  159.8230  207.6740  155.4230 C   0  0  0  0  0  2  0  0  0  0  0  0
  161.5120  210.6060  149.4750 C   0  0  0  0  0  0  0  0  0  0  0  0
  161.3830  211.8570  148.8660 C   0  0  0  0  0  3  0  0  0  0  0  0
  161.9910  206.7900  151.1490 C   0  0  0  0  0  3  0  0  0  0  0  0
  161.2260  207.5120  153.3180 C   0  0  0  0  0  0  0  0  0  0  0  0
  161.0560  207.0870  154.7550 C   0  0  0  0  0  2  0  0  0  0  0  0
  160.6580  206.7010  147.2220 O   0  0  0  0  0  0  0  0  0  0  0  0
  161.8760  206.4720  147.4370 C   0  0  0  0  0  0  0  0  0  0  0  0
  162.5940  207.1800  148.4580 N   0  0  0  0  0  2  0  0  0  0  0  0
  162.5640  205.8310  145.2620 O   0  0  0  0  0  1  0  0  0  0  0  0
  162.5810  205.4520  146.6060 C   0  0  2  0  0  3  0  0  0  0  0  0
  161.0260  202.3670  148.4050 C   0  0  0  0  0  0  0  0  0  0  0  0
  161.7500  203.3970  145.7500 O   0  0  0  0  0  0  0  0  0  0  0  0
  160.7610  201.3300  147.3670 C   0  0  0  0  0  1  0  0  0  0  0  0
  160.7480  202.1090  149.6030 O   0  0  0  0  0  0  0  0  0  0  0  0
  161.9500  204.1080  146.7700 C   0  0  0  0  0  0  0  0  0  0  0  0
  161.5880  203.6440  148.0790 N   0  0  0  0  0  2  0  0  0  0  0  0
  1 14  1  0  0  0  0
  1  9  1  0  0  0  0
  2  3  1  0  0  0  0
  3 19  2  0  0  0  0
  3  7  1  0  0  0  0
  4 11  1  0  0  0  0
  5  2  1  0  0  0  0
  5 14  2  0  0  0  0
  6  1  2  0  0  0  0
  7  4  1  0  0  0  0
  8 13  1  0  0  0  0
 10 19  1  0  0  0  0
 12  8  2  0  0  0  0
 12 16  1  0  0  0  0
 13 18  1  0  0  0  0
 13  2  2  0  0  0  0
 15 11  1  0  0  0  0
 16  5  1  0  0  0  0
 17 16  2  0  0  0  0
 17  6  1  0  0  0  0
 18 10  2  0  0  0  0
 19 20  1  0  0  0  0
 20 15  1  0  0  0  0
 21 22  2  0  0  0  0
 22 23  1  0  0  0  0
 23  8  1  0  0  0  0
 25 24  1  6  0  0  0
 25 30  1  0  0  0  0
 25 22  1  0  0  0  0
 26 29  2  0  0  0  0
 27 30  2  0  0  0  0
 28 26  1  0  0  0  0
 30 31  1  0  0  0  0
 31 26  1  0  0  0  0
M  END
>  <MODEL>
8

>  <REMARK>
 VINA RESULT:      -9.1      3.820      6.754
  Name = 
  3 active torsions:
  status: ('A' for Active; 'I' for Inactive)
    1  A    between atoms: C_9  and  C_22
    2  A    between atoms: C_15  and  N_23
    3  A    between atoms: C_19  and  C_22
                            x       y       z     vdW  Elec       q    Type
                         _______ _______ _______ _____ _____    ______ ____

>  <TORSDO>
F 3

$$$$
=
 OpenBabel11052422293D

 31 34  0  0  1  0  0  0  0  0999 V2000
  160.7840  209.6750  155.0610 C   0  0  0  0  0  0  0  0  0  0  0  0
  161.4720  208.0680  151.7130 C   0  0  0  0  0  0  0  0  0  0  0  0
  161.6430  209.1440  150.7720 C   0  0  0  0  0  0  0  0  0  0  0  0
  160.9550  211.5550  150.3770 C   0  0  0  0  0  2  0  0  0  0  0  0
  161.2080  208.2550  153.1120 C   0  0  0  0  0  0  0  0  0  0  0  0
  160.6940  208.5530  155.8800 C   0  0  0  0  0  3  0  0  0  0  0  0
  161.7260  210.5780  151.2500 C   0  0  0  0  0  2  0  0  0  0  0  0
  161.4390  205.6250  152.1000 C   0  0  0  0  0  0  0  0  0  0  0  0
  160.6270  210.9130  155.5880 F   0  0  0  0  0  0  0  0  0  0  0  0
  161.9330  207.5150  148.9760 C   0  0  0  0  0  3  0  0  0  0  0  0
  161.8660  212.1410  149.3010 C   0  0  0  0  0  2  0  0  0  0  0  0
  161.2060  205.8420  153.4550 C   0  0  0  0  0  3  0  0  0  0  0  0
  161.5660  206.7250  151.2330 C   0  0  0  0  0  0  0  0  0  0  0  0
  161.0370  209.5240  153.6960 C   0  0  0  0  0  3  0  0  0  0  0  0
  162.7600  211.0910  148.6410 C   0  0  0  0  0  2  0  0  0  0  0  0
  161.0910  207.1270  153.9640 C   0  0  0  0  0  0  0  0  0  0  0  0
  160.8450  207.2810  155.3310 C   0  0  0  0  0  3  0  0  0  0  0  0
  161.7920  206.4780  149.8790 C   0  0  0  0  0  3  0  0  0  0  0  0
  161.8760  208.8380  149.3940 C   0  0  0  0  0  0  0  0  0  0  0  0
  161.9560  209.8520  148.2810 C   0  0  0  0  0  2  0  0  0  0  0  0
  159.3430  204.0170  150.7750 O   0  0  0  0  0  0  0  0  0  0  0  0
  160.5070  203.5540  150.8900 C   0  0  0  0  0  0  0  0  0  0  0  0
  161.5310  204.2870  151.5780 N   0  0  0  0  0  2  0  0  0  0  0  0
  161.9950  201.7100  150.8500 O   0  0  0  0  0  1  0  0  0  0  0  0
  160.8220  202.2230  150.2920 C   0  0  2  0  0  3  0  0  0  0  0  0
  161.5820  203.8220  146.8220 C   0  0  0  0  0  0  0  0  0  0  0  0
  160.6450  201.3430  148.0910 O   0  0  0  0  0  0  0  0  0  0  0  0
  161.2060  202.8260  145.7780 C   0  0  0  0  0  1  0  0  0  0  0  0
  162.0330  204.9380  146.4590 O   0  0  0  0  0  0  0  0  0  0  0  0
  160.9610  202.3300  148.8080 C   0  0  0  0  0  0  0  0  0  0  0  0
  161.4430  203.5480  148.2210 N   0  0  0  0  0  2  0  0  0  0  0  0
  1  9  1  0  0  0  0
  1  6  1  0  0  0  0
  2  5  1  0  0  0  0
  3  7  1  0  0  0  0
  3  2  1  0  0  0  0
  4  7  1  0  0  0  0
  5 14  1  0  0  0  0
  5 16  2  0  0  0  0
  8 12  2  0  0  0  0
 10 19  1  0  0  0  0
 10 18  2  0  0  0  0
 11  4  1  0  0  0  0
 12 16  1  0  0  0  0
 13  2  2  0  0  0  0
 13  8  1  0  0  0  0
 14  1  2  0  0  0  0
 15 11  1  0  0  0  0
 16 17  1  0  0  0  0
 17  6  2  0  0  0  0
 18 13  1  0  0  0  0
 19  3  2  0  0  0  0
 20 15  1  0  0  0  0
 20 19  1  0  0  0  0
 21 22  2  0  0  0  0
 22 23  1  0  0  0  0
 23  8  1  0  0  0  0
 25 24  1  1  0  0  0
 25 22  1  0  0  0  0
 26 31  1  0  0  0  0
 27 30  2  0  0  0  0
 28 26  1  0  0  0  0
 29 26  2  0  0  0  0
 30 25  1  0  0  0  0
 31 30  1  0  0  0  0
M  END
>  <MODEL>
9

>  <REMARK>
 VINA RESULT:      -8.3      4.101      6.975
  Name = 
  3 active torsions:
  status: ('A' for Active; 'I' for Inactive)
    1  A    between atoms: C_9  and  C_22
    2  A    between atoms: C_15  and  N_23
    3  A    between atoms: C_19  and  C_22
                            x       y       z     vdW  Elec       q    Type
                         _______ _______ _______ _____ _____    ______ ____

>  <TORSDO>
F 3

$$$$
