=
 OpenBabel11062410513D

 32 36  0  0  1  0  0  0  0  0999 V2000
  161.1100  205.1090  149.0510 C   0  0  0  0  0  3  0  0  0  0  0  0
  161.7660  208.6110  152.3400 C   0  0  0  0  0  0  0  0  0  0  0  0
  161.9680  212.6780  148.5870 C   0  0  0  0  0  2  0  0  0  0  0  0
  160.7400  213.1020  149.3390 C   0  0  0  0  0  3  0  0  0  0  0  0
  161.1340  205.9540  151.6940 C   0  0  0  0  0  0  0  0  0  0  0  0
  161.7410  208.2230  150.9870 C   0  0  0  0  0  0  0  0  0  0  0  0
  161.4210  206.4370  149.3380 C   0  0  0  0  0  3  0  0  0  0  0  0
  162.0800  211.1540  148.5210 C   0  0  0  0  0  2  0  0  0  0  0  0
  162.0480  209.1790  149.8910 C   0  0  0  0  0  3  0  0  0  0  0  0
  161.8590  210.5050  149.8620 C   0  0  0  0  0  0  0  0  0  0  0  0
  161.2110  211.0020  152.2380 C   0  0  0  0  0  0  0  0  0  0  0  0
  160.5420  203.7940  152.2700 O   0  0  0  0  0  0  0  0  0  0  0  0
  160.8230  204.6240  151.3600 C   0  0  0  0  0  0  0  0  0  0  0  0
  161.4400  206.8770  150.6670 C   0  0  0  0  0  0  0  0  0  0  0  0
  161.1480  206.3750  153.0290 C   0  0  0  0  0  3  0  0  0  0  0  0
  160.8210  204.2300  150.0490 N   0  0  0  0  0  0  0  0  0  0  0  0
  160.3890  212.4740  150.4620 C   0  0  0  0  0  3  0  0  0  0  0  0
  161.1390  211.2840  150.9210 C   0  0  0  0  0  0  0  0  0  0  0  0
  161.4680  207.6910  153.3470 C   0  0  0  0  0  3  0  0  0  0  0  0
  162.1810  209.9800  152.7420 C   0  0  0  0  0  2  0  0  0  0  0  0
  160.0760  212.5090  155.6460 C   0  0  2  0  0  3  0  0  0  0  0  0
  158.8230  213.1700  155.0520 C   0  0  0  0  0  2  0  0  0  0  0  0
  158.8690  211.6620  153.0010 C   0  0  2  0  0  3  0  0  0  0  0  0
  156.8870  212.8150  153.6960 O   0  0  0  0  0  1  0  0  0  0  0  0
  158.0380  212.1930  154.1770 C   0  0  2  0  0  3  0  0  0  0  0  0
  160.7580  211.5110  154.7000 C   0  0  0  0  0  2  0  0  0  0  0  0
  159.7510  211.8680  156.8400 O   0  0  0  0  0  1  0  0  0  0  0  0
  158.5040  210.3370  152.7540 O   0  0  0  0  0  1  0  0  0  0  0  0
  160.3890  211.7820  153.2390 C   0  0  1  0  0  3  0  0  0  0  0  0
  160.5050  202.8530  149.6830 C   0  0  0  0  0  2  0  0  0  0  0  0
  161.1660  202.4730  148.3640 C   0  0  0  0  0  2  0  0  0  0  0  0
  161.2130  200.9650  148.2060 C   0  0  0  0  0  1  0  0  0  0  0  0
  1  7  2  0  0  0  0
  1 16  1  0  0  0  0
  2 20  1  0  0  0  0
  2 19  1  0  0  0  0
  3  4  1  0  0  0  0
  4 17  2  0  0  0  0
  5 15  1  0  0  0  0
  6  2  2  0  0  0  0
  7 14  1  0  0  0  0
  8  3  1  0  0  0  0
  8 10  1  0  0  0  0
  9  6  1  0  0  0  0
 10  9  2  0  0  0  0
 10 18  1  0  0  0  0
 11 20  1  0  0  0  0
 13  5  1  0  0  0  0
 13 12  2  0  0  0  0
 14  6  1  0  0  0  0
 14  5  2  0  0  0  0
 15 19  2  0  0  0  0
 16 13  1  0  0  0  0
 17 18  1  0  0  0  0
 18 11  2  0  0  0  0
 21 27  1  1  0  0  0
 22 21  1  0  0  0  0
 23 28  1  1  0  0  0
 23 29  1  0  0  0  0
 23 25  1  0  0  0  0
 25 24  1  6  0  0  0
 25 22  1  0  0  0  0
 26 21  1  0  0  0  0
 29 11  1  6  0  0  0
 29 26  1  0  0  0  0
 30 16  1  0  0  0  0
 31 30  1  0  0  0  0
 32 31  1  0  0  0  0
M  END
>  <MODEL>
1

>  <REMARK>
 VINA RESULT:      -8.3      0.000      0.000
  Name = 
  3 active torsions:
  status: ('A' for Active; 'I' for Inactive)
    1  A    between atoms: C_1  and  C_10
    2  A    between atoms: C_10  and  N_24
    3  A    between atoms: C_16  and  C_32
                            x       y       z     vdW  Elec       q    Type
                         _______ _______ _______ _____ _____    ______ ____

>  <TORSDO>
F 3

$$$$
=
 OpenBabel11062410513D

 32 36  0  0  1  0  0  0  0  0999 V2000
  160.8250  208.9790  153.5730 C   0  0  0  0  0  3  0  0  0  0  0  0
  162.2170  206.8520  149.4430 C   0  0  0  0  0  0  0  0  0  0  0  0
  161.3210  201.7110  151.2980 C   0  0  0  0  0  2  0  0  0  0  0  0
  160.3200  201.7440  150.1800 C   0  0  0  0  0  3  0  0  0  0  0  0
  161.5130  209.1510  150.8900 C   0  0  0  0  0  0  0  0  0  0  0  0
  161.8520  206.7240  150.7970 C   0  0  0  0  0  0  0  0  0  0  0  0
  161.1630  207.8180  152.8800 C   0  0  0  0  0  3  0  0  0  0  0  0
  161.4540  203.0810  151.9640 C   0  0  0  0  0  2  0  0  0  0  0  0
  161.8360  205.4060  151.4840 C   0  0  0  0  0  3  0  0  0  0  0  0
  161.6090  204.1940  150.9600 C   0  0  0  0  0  0  0  0  0  0  0  0
  161.5880  204.6750  148.4950 C   0  0  0  0  0  0  0  0  0  0  0  0
  161.1520  211.4290  151.0620 O   0  0  0  0  0  0  0  0  0  0  0  0
  161.1630  210.2980  151.6240 C   0  0  0  0  0  0  0  0  0  0  0  0
  161.5150  207.8890  151.5280 C   0  0  0  0  0  0  0  0  0  0  0  0
  161.8620  209.2440  149.5370 C   0  0  0  0  0  3  0  0  0  0  0  0
  160.8310  210.1880  152.9480 N   0  0  0  0  0  0  0  0  0  0  0  0
  160.2910  202.7740  149.3340 C   0  0  0  0  0  3  0  0  0  0  0  0
  161.1680  203.9460  149.5490 C   0  0  0  0  0  0  0  0  0  0  0  0
  162.2180  208.1030  148.8240 C   0  0  0  0  0  3  0  0  0  0  0  0
  162.6840  205.6810  148.6560 C   0  0  0  0  0  2  0  0  0  0  0  0
  160.0310  202.7550  145.4840 C   0  0  2  0  0  3  0  0  0  0  0  0
  160.0810  203.9730  144.5500 C   0  0  0  0  0  2  0  0  0  0  0  0
  161.8150  205.1470  145.9990 C   0  0  2  0  0  3  0  0  0  0  0  0
  161.4690  205.7220  143.6990 O   0  0  0  0  0  1  0  0  0  0  0  0
  161.4490  204.6520  144.5920 C   0  0  2  0  0  3  0  0  0  0  0  0
  160.8270  202.9370  146.7840 C   0  0  0  0  0  2  0  0  0  0  0  0
  160.4940  201.6240  144.8130 O   0  0  0  0  0  1  0  0  0  0  0  0
  163.1930  205.0070  146.1810 O   0  0  0  0  0  1  0  0  0  0  0  0
  161.0330  204.4180  147.1120 C   0  0  1  0  0  3  0  0  0  0  0  0
  160.4690  211.3680  153.7280 C   0  0  0  0  0  2  0  0  0  0  0  0
  158.9950  211.3340  154.1140 C   0  0  0  0  0  2  0  0  0  0  0  0
  158.1540  212.0370  153.0670 C   0  0  0  0  0  1  0  0  0  0  0  0
  2  6  1  0  0  0  0
  3  8  1  0  0  0  0
  4  3  1  0  0  0  0
  5 14  1  0  0  0  0
  5 13  1  0  0  0  0
  6  9  1  0  0  0  0
  6 14  2  0  0  0  0
  7  1  2  0  0  0  0
 10  9  2  0  0  0  0
 10  8  1  0  0  0  0
 11 20  1  0  0  0  0
 11 18  2  0  0  0  0
 12 13  2  0  0  0  0
 13 16  1  0  0  0  0
 14  7  1  0  0  0  0
 15  5  2  0  0  0  0
 16  1  1  0  0  0  0
 16 30  1  0  0  0  0
 17 18  1  0  0  0  0
 17  4  2  0  0  0  0
 18 10  1  0  0  0  0
 19  2  2  0  0  0  0
 19 15  1  0  0  0  0
 20  2  1  0  0  0  0
 21 27  1  6  0  0  0
 21 26  1  0  0  0  0
 22 25  1  0  0  0  0
 22 21  1  0  0  0  0
 23 28  1  1  0  0  0
 23 29  1  0  0  0  0
 25 24  1  6  0  0  0
 25 23  1  0  0  0  0
 26 29  1  0  0  0  0
 29 11  1  1  0  0  0
 30 31  1  0  0  0  0
 32 31  1  0  0  0  0
M  END
>  <MODEL>
2

>  <REMARK>
 VINA RESULT:      -7.4      3.208      9.098
  Name = 
  3 active torsions:
  status: ('A' for Active; 'I' for Inactive)
    1  A    between atoms: C_1  and  C_10
    2  A    between atoms: C_10  and  N_24
    3  A    between atoms: C_16  and  C_32
                            x       y       z     vdW  Elec       q    Type
                         _______ _______ _______ _____ _____    ______ ____

>  <TORSDO>
F 3

$$$$
=
 OpenBabel11062410513D

 32 36  0  0  1  0  0  0  0  0999 V2000
  160.0570  208.9460  154.4510 C   0  0  0  0  0  3  0  0  0  0  0  0
  162.2360  207.2850  150.4500 C   0  0  0  0  0  0  0  0  0  0  0  0
  161.2670  201.9610  151.6250 C   0  0  0  0  0  2  0  0  0  0  0  0
  160.4730  202.0790  150.3560 C   0  0  0  0  0  3  0  0  0  0  0  0
  161.1900  209.4070  151.9600 C   0  0  0  0  0  0  0  0  0  0  0  0
  161.6480  207.0110  151.7000 C   0  0  0  0  0  0  0  0  0  0  0  0
  160.5610  207.8700  153.7230 C   0  0  0  0  0  3  0  0  0  0  0  0
  161.2210  203.2600  152.4300 C   0  0  0  0  0  2  0  0  0  0  0  0
  161.5740  205.6320  152.2460 C   0  0  0  0  0  3  0  0  0  0  0  0
  161.4960  204.4720  151.5790 C   0  0  0  0  0  0  0  0  0  0  0  0
  161.8800  205.1980  149.2040 C   0  0  0  0  0  0  0  0  0  0  0  0
  160.7020  211.6450  152.2790 O   0  0  0  0  0  0  0  0  0  0  0  0
  160.6660  210.4640  152.7260 C   0  0  0  0  0  0  0  0  0  0  0  0
  161.1390  208.0870  152.4660 C   0  0  0  0  0  0  0  0  0  0  0  0
  161.7630  209.6450  150.7050 C   0  0  0  0  0  3  0  0  0  0  0  0
  160.1160  210.2120  153.9540 N   0  0  0  0  0  0  0  0  0  0  0  0
  160.5450  203.1870  149.6190 C   0  0  0  0  0  3  0  0  0  0  0  0
  161.3170  204.3560  150.0950 C   0  0  0  0  0  0  0  0  0  0  0  0
  162.2870  208.5920  149.9610 C   0  0  0  0  0  3  0  0  0  0  0  0
  162.8850  206.2130  149.6510 C   0  0  0  0  0  2  0  0  0  0  0  0
  162.4990  204.8230  145.3770 C   0  0  2  0  0  3  0  0  0  0  0  0
  161.0060  204.8900  145.0250 C   0  0  0  0  0  2  0  0  0  0  0  0
  160.4190  205.9630  147.2590 C   0  0  2  0  0  3  0  0  0  0  0  0
  158.9790  206.1150  145.3500 O   0  0  0  0  0  1  0  0  0  0  0  0
  160.3190  206.0590  145.7300 C   0  0  2  0  0  3  0  0  0  0  0  0
  162.8140  205.2170  146.8270 C   0  0  0  0  0  2  0  0  0  0  0  0
  163.2270  205.6340  144.5080 O   0  0  0  0  0  1  0  0  0  0  0  0
  160.5360  207.2510  147.7850 O   0  0  0  0  0  1  0  0  0  0  0  0
  161.5850  205.0670  147.7270 C   0  0  1  0  0  3  0  0  0  0  0  0
  159.5710  211.2960  154.7650 C   0  0  0  0  0  2  0  0  0  0  0  0
  158.2780  210.8700  155.4480 C   0  0  0  0  0  2  0  0  0  0  0  0
  157.0770  211.4410  154.7190 C   0  0  0  0  0  1  0  0  0  0  0  0
  2  6  1  0  0  0  0
  3  8  1  0  0  0  0
  4  3  1  0  0  0  0
  5 14  1  0  0  0  0
  5 13  1  0  0  0  0
  6  9  1  0  0  0  0
  6 14  2  0  0  0  0
  7  1  2  0  0  0  0
 10  9  2  0  0  0  0
 10  8  1  0  0  0  0
 11 20  1  0  0  0  0
 11 18  2  0  0  0  0
 12 13  2  0  0  0  0
 13 16  1  0  0  0  0
 14  7  1  0  0  0  0
 15  5  2  0  0  0  0
 16  1  1  0  0  0  0
 16 30  1  0  0  0  0
 17 18  1  0  0  0  0
 17  4  2  0  0  0  0
 18 10  1  0  0  0  0
 19  2  2  0  0  0  0
 19 15  1  0  0  0  0
 20  2  1  0  0  0  0
 21 27  1  6  0  0  0
 21 26  1  0  0  0  0
 22 21  1  0  0  0  0
 22 25  1  0  0  0  0
 23 29  1  0  0  0  0
 23 28  1  1  0  0  0
 25 24  1  1  0  0  0
 25 23  1  0  0  0  0
 26 29  1  0  0  0  0
 29 11  1  1  0  0  0
 30 31  1  0  0  0  0
 32 31  1  0  0  0  0
M  END
>  <MODEL>
3

>  <REMARK>
 VINA RESULT:      -7.3      3.108      8.519
  Name = 
  3 active torsions:
  status: ('A' for Active; 'I' for Inactive)
    1  A    between atoms: C_1  and  C_10
    2  A    between atoms: C_10  and  N_24
    3  A    between atoms: C_16  and  C_32
                            x       y       z     vdW  Elec       q    Type
                         _______ _______ _______ _____ _____    ______ ____

>  <TORSDO>
F 3

$$$$
=
 OpenBabel11062410513D

 32 36  0  0  1  0  0  0  0  0999 V2000
  161.8020  205.8590  147.2270 C   0  0  0  0  0  3  0  0  0  0  0  0
  161.6650  208.5160  151.2810 C   0  0  0  0  0  0  0  0  0  0  0  0
  162.0740  213.3570  148.6220 C   0  0  0  0  0  2  0  0  0  0  0  0
  160.7160  213.5320  149.2390 C   0  0  0  0  0  3  0  0  0  0  0  0
  161.3630  206.0580  149.9600 C   0  0  0  0  0  0  0  0  0  0  0  0
  161.8740  208.4570  149.8900 C   0  0  0  0  0  0  0  0  0  0  0  0
  161.9530  207.0950  147.8530 C   0  0  0  0  0  3  0  0  0  0  0  0
  162.3230  211.8990  148.2350 C   0  0  0  0  0  2  0  0  0  0  0  0
  162.2570  209.6570  149.1020 C   0  0  0  0  0  3  0  0  0  0  0  0
  161.9620  210.9420  149.3410 C   0  0  0  0  0  0  0  0  0  0  0  0
  160.9310  210.8350  151.6300 C   0  0  0  0  0  0  0  0  0  0  0  0
  160.8770  203.7970  149.9320 O   0  0  0  0  0  0  0  0  0  0  0  0
  161.2190  204.8310  149.2900 C   0  0  0  0  0  0  0  0  0  0  0  0
  161.7380  207.2110  149.2310 C   0  0  0  0  0  0  0  0  0  0  0  0
  161.1440  206.1540  151.3400 C   0  0  0  0  0  3  0  0  0  0  0  0
  161.4440  204.7570  147.9420 N   0  0  0  0  0  0  0  0  0  0  0  0
  160.2580  212.6420  150.1190 C   0  0  0  0  0  3  0  0  0  0  0  0
  161.0310  211.4150  150.4160 C   0  0  0  0  0  0  0  0  0  0  0  0
  161.3010  207.3730  151.9930 C   0  0  0  0  0  3  0  0  0  0  0  0
  161.8980  209.7700  152.0430 C   0  0  0  0  0  2  0  0  0  0  0  0
  158.4700  213.2290  153.4700 C   0  0  2  0  0  3  0  0  0  0  0  0
  158.0760  212.1810  154.5220 C   0  0  0  0  0  2  0  0  0  0  0  0
  160.1500  210.7790  154.0560 C   0  0  2  0  0  3  0  0  0  0  0  0
  158.9110  210.5900  156.0990 O   0  0  0  0  0  1  0  0  0  0  0  0
  159.3070  211.4990  155.1180 C   0  0  2  0  0  3  0  0  0  0  0  0
  159.6900  212.8320  152.6260 C   0  0  0  0  0  2  0  0  0  0  0  0
  158.7150  214.4530  154.0910 O   0  0  0  0  0  1  0  0  0  0  0  0
  161.4990  210.8820  154.4060 O   0  0  0  0  0  1  0  0  0  0  0  0
  159.9060  211.3170  152.6320 C   0  0  1  0  0  3  0  0  0  0  0  0
  161.3030  203.4910  147.2290 C   0  0  0  0  0  2  0  0  0  0  0  0
  161.7210  203.6360  145.7710 C   0  0  0  0  0  2  0  0  0  0  0  0
  160.5080  203.5890  144.8620 C   0  0  0  0  0  1  0  0  0  0  0  0
  1  7  2  0  0  0  0
  1 16  1  0  0  0  0
  2 19  1  0  0  0  0
  2 20  1  0  0  0  0
  3  4  1  0  0  0  0
  4 17  2  0  0  0  0
  5 15  1  0  0  0  0
  6  2  2  0  0  0  0
  7 14  1  0  0  0  0
  8  3  1  0  0  0  0
  8 10  1  0  0  0  0
  9 10  2  0  0  0  0
  9  6  1  0  0  0  0
 10 18  1  0  0  0  0
 11 20  1  0  0  0  0
 13 12  2  0  0  0  0
 13  5  1  0  0  0  0
 14  6  1  0  0  0  0
 14  5  2  0  0  0  0
 15 19  2  0  0  0  0
 16 13  1  0  0  0  0
 17 18  1  0  0  0  0
 18 11  2  0  0  0  0
 21 27  1  1  0  0  0
 21 22  1  0  0  0  0
 22 25  1  0  0  0  0
 23 28  1  1  0  0  0
 23 25  1  0  0  0  0
 25 24  1  1  0  0  0
 26 29  1  0  0  0  0
 26 21  1  0  0  0  0
 29 11  1  6  0  0  0
 29 23  1  0  0  0  0
 30 16  1  0  0  0  0
 31 30  1  0  0  0  0
 32 31  1  0  0  0  0
M  END
>  <MODEL>
4

>  <REMARK>
 VINA RESULT:      -7.1      1.561      2.089
  Name = 
  3 active torsions:
  status: ('A' for Active; 'I' for Inactive)
    1  A    between atoms: C_1  and  C_10
    2  A    between atoms: C_10  and  N_24
    3  A    between atoms: C_16  and  C_32
                            x       y       z     vdW  Elec       q    Type
                         _______ _______ _______ _____ _____    ______ ____

>  <TORSDO>
F 3

$$$$
=
 OpenBabel11062410513D

 32 36  0  0  1  0  0  0  0  0999 V2000
  161.1830  203.8140  147.3640 C   0  0  0  0  0  3  0  0  0  0  0  0
  161.9090  205.8530  151.7040 C   0  0  0  0  0  0  0  0  0  0  0  0
  162.3210  210.9940  149.6880 C   0  0  0  0  0  2  0  0  0  0  0  0
  161.0970  211.1640  150.5400 C   0  0  0  0  0  3  0  0  0  0  0  0
  161.1920  203.6390  150.1340 C   0  0  0  0  0  0  0  0  0  0  0  0
  161.8930  205.9840  150.3020 C   0  0  0  0  0  0  0  0  0  0  0  0
  161.5360  204.9330  148.1160 C   0  0  0  0  0  3  0  0  0  0  0  0
  162.3790  209.5950  149.0730 C   0  0  0  0  0  2  0  0  0  0  0  0
  162.2520  207.2600  149.6300 C   0  0  0  0  0  3  0  0  0  0  0  0
  162.1120  208.5120  150.0850 C   0  0  0  0  0  0  0  0  0  0  0  0
  161.4420  208.1370  152.4770 C   0  0  0  0  0  0  0  0  0  0  0  0
  160.5130  201.4430  149.8830 O   0  0  0  0  0  0  0  0  0  0  0  0
  160.8390  202.5350  149.3380 C   0  0  0  0  0  0  0  0  0  0  0  0
  161.5490  204.8600  149.5140 C   0  0  0  0  0  0  0  0  0  0  0  0
  161.1990  203.5450  151.5310 C   0  0  0  0  0  3  0  0  0  0  0  0
  160.8460  202.6450  147.9740 N   0  0  0  0  0  0  0  0  0  0  0  0
  160.7050  210.1850  151.3560 C   0  0  0  0  0  3  0  0  0  0  0  0
  161.4030  208.8810  151.3530 C   0  0  0  0  0  0  0  0  0  0  0  0
  161.5610  204.6420  152.3070 C   0  0  0  0  0  3  0  0  0  0  0  0
  162.3660  206.9640  152.5780 C   0  0  0  0  0  2  0  0  0  0  0  0
  159.9610  210.3610  155.3120 C   0  0  2  0  0  3  0  0  0  0  0  0
  159.1810  209.2030  155.9530 C   0  0  0  0  0  2  0  0  0  0  0  0
  160.6200  207.4510  154.7910 C   0  0  2  0  0  3  0  0  0  0  0  0
  159.3330  206.9550  156.7510 O   0  0  0  0  0  1  0  0  0  0  0  0
  160.0620  207.9660  156.1260 C   0  0  2  0  0  3  0  0  0  0  0  0
  160.9800  209.9120  154.2550 C   0  0  0  0  0  2  0  0  0  0  0  0
  160.6140  211.0960  156.3010 O   0  0  0  0  0  1  0  0  0  0  0  0
  161.9020  206.9410  155.0060 O   0  0  0  0  0  1  0  0  0  0  0  0
  160.6320  208.5320  153.6910 C   0  0  1  0  0  3  0  0  0  0  0  0
  160.4850  201.5090  147.1310 C   0  0  0  0  0  2  0  0  0  0  0  0
  160.4530  201.9080  145.6610 C   0  0  0  0  0  2  0  0  0  0  0  0
  159.7250  200.8620  144.8400 C   0  0  0  0  0  1  0  0  0  0  0  0
  1 16  1  0  0  0  0
  1  7  2  0  0  0  0
  2 19  1  0  0  0  0
  2 20  1  0  0  0  0
  3  4  1  0  0  0  0
  4 17  2  0  0  0  0
  5 15  1  0  0  0  0
  6  2  2  0  0  0  0
  7 14  1  0  0  0  0
  8  3  1  0  0  0  0
  8 10  1  0  0  0  0
  9 10  2  0  0  0  0
  9  6  1  0  0  0  0
 10 18  1  0  0  0  0
 11 20  1  0  0  0  0
 13 12  2  0  0  0  0
 13  5  1  0  0  0  0
 14  5  2  0  0  0  0
 14  6  1  0  0  0  0
 15 19  2  0  0  0  0
 16 13  1  0  0  0  0
 18 17  1  0  0  0  0
 18 11  2  0  0  0  0
 21 22  1  0  0  0  0
 21 27  1  1  0  0  0
 22 25  1  0  0  0  0
 23 28  1  1  0  0  0
 23 25  1  0  0  0  0
 25 24  1  6  0  0  0
 26 21  1  0  0  0  0
 29 11  1  6  0  0  0
 29 26  1  0  0  0  0
 29 23  1  0  0  0  0
 30 16  1  0  0  0  0
 31 30  1  0  0  0  0
 32 31  1  0  0  0  0
M  END
>  <MODEL>
5

>  <REMARK>
 VINA RESULT:      -7.0      2.046      3.193
  Name = 
  3 active torsions:
  status: ('A' for Active; 'I' for Inactive)
    1  A    between atoms: C_1  and  C_10
    2  A    between atoms: C_10  and  N_24
    3  A    between atoms: C_16  and  C_32
                            x       y       z     vdW  Elec       q    Type
                         _______ _______ _______ _____ _____    ______ ____

>  <TORSDO>
F 3

$$$$
=
 OpenBabel11062410513D

 32 36  0  0  1  0  0  0  0  0999 V2000
  159.7240  208.8570  155.0250 C   0  0  0  0  0  3  0  0  0  0  0  0
  162.2350  207.7370  151.0320 C   0  0  0  0  0  0  0  0  0  0  0  0
  161.0630  202.3310  151.3020 C   0  0  0  0  0  2  0  0  0  0  0  0
  160.3940  202.6600  149.9990 C   0  0  0  0  0  3  0  0  0  0  0  0
  161.0920  209.6450  152.7430 C   0  0  0  0  0  0  0  0  0  0  0  0
  161.5290  207.3000  152.1680 C   0  0  0  0  0  0  0  0  0  0  0  0
  160.2740  207.8850  154.1920 C   0  0  0  0  0  3  0  0  0  0  0  0
  160.9670  203.4980  152.2860 C   0  0  0  0  0  2  0  0  0  0  0  0
  161.3780  205.8580  152.4920 C   0  0  0  0  0  3  0  0  0  0  0  0
  161.3420  204.8130  151.6540 C   0  0  0  0  0  0  0  0  0  0  0  0
  161.9590  205.8690  149.4600 C   0  0  0  0  0  0  0  0  0  0  0  0
  160.6170  211.8250  153.3490 O   0  0  0  0  0  0  0  0  0  0  0  0
  160.5190  210.5930  153.6090 C   0  0  0  0  0  0  0  0  0  0  0  0
  160.9700  208.2660  153.0390 C   0  0  0  0  0  0  0  0  0  0  0  0
  161.7840  210.0470  151.5940 C   0  0  0  0  0  3  0  0  0  0  0  0
  159.8520  210.1800  154.7310 N   0  0  0  0  0  0  0  0  0  0  0  0
  160.5540  203.8630  149.4470 C   0  0  0  0  0  3  0  0  0  0  0  0
  161.3000  204.9230  150.1600 C   0  0  0  0  0  0  0  0  0  0  0  0
  162.3560  209.0990  150.7510 C   0  0  0  0  0  3  0  0  0  0  0  0
  162.9360  206.7740  150.1420 C   0  0  0  0  0  2  0  0  0  0  0  0
  160.2700  206.4480  145.9980 C   0  0  2  0  0  3  0  0  0  0  0  0
  161.5310  206.0750  145.2050 C   0  0  0  0  0  2  0  0  0  0  0  0
  162.5500  204.8560  147.1960 C   0  0  2  0  0  3  0  0  0  0  0  0
  163.2590  204.4440  144.9440 O   0  0  0  0  0  1  0  0  0  0  0  0
  162.1460  204.7730  145.7160 C   0  0  2  0  0  3  0  0  0  0  0  0
  160.3480  206.0980  147.4900 C   0  0  0  0  0  2  0  0  0  0  0  0
  159.1560  205.8270  145.4340 O   0  0  0  0  0  1  0  0  0  0  0  0
  162.3390  203.6100  147.7900 O   0  0  0  0  0  1  0  0  0  0  0  0
  161.8000  205.9670  147.9590 C   0  0  1  0  0  3  0  0  0  0  0  0
  159.2540  211.1490  155.6440 C   0  0  0  0  0  2  0  0  0  0  0  0
  157.7410  211.1990  155.4720 C   0  0  0  0  0  2  0  0  0  0  0  0
  157.3240  212.4860  154.7880 C   0  0  0  0  0  1  0  0  0  0  0  0
  2  6  1  0  0  0  0
  3  8  1  0  0  0  0
  4  3  1  0  0  0  0
  5 14  1  0  0  0  0
  5 13  1  0  0  0  0
  6  9  1  0  0  0  0
  6 14  2  0  0  0  0
  7  1  2  0  0  0  0
 10  8  1  0  0  0  0
 10  9  2  0  0  0  0
 11 20  1  0  0  0  0
 11 18  2  0  0  0  0
 12 13  2  0  0  0  0
 13 16  1  0  0  0  0
 14  7  1  0  0  0  0
 15  5  2  0  0  0  0
 16  1  1  0  0  0  0
 16 30  1  0  0  0  0
 17  4  2  0  0  0  0
 17 18  1  0  0  0  0
 18 10  1  0  0  0  0
 19  2  2  0  0  0  0
 19 15  1  0  0  0  0
 20  2  1  0  0  0  0
 21 27  1  6  0  0  0
 21 26  1  0  0  0  0
 22 25  1  0  0  0  0
 22 21  1  0  0  0  0
 23 28  1  1  0  0  0
 23 29  1  0  0  0  0
 25 24  1  6  0  0  0
 25 23  1  0  0  0  0
 26 29  1  0  0  0  0
 29 11  1  1  0  0  0
 31 30  1  0  0  0  0
 32 31  1  0  0  0  0
M  END
>  <MODEL>
6

>  <REMARK>
 VINA RESULT:      -6.8      3.012      8.586
  Name = 
  3 active torsions:
  status: ('A' for Active; 'I' for Inactive)
    1  A    between atoms: C_1  and  C_10
    2  A    between atoms: C_10  and  N_24
    3  A    between atoms: C_16  and  C_32
                            x       y       z     vdW  Elec       q    Type
                         _______ _______ _______ _____ _____    ______ ____

>  <TORSDO>
F 3

$$$$
=
 OpenBabel11062410513D

 32 36  0  0  1  0  0  0  0  0999 V2000
  161.2080  204.6290  147.9960 C   0  0  0  0  0  3  0  0  0  0  0  0
  161.7500  207.3300  151.9870 C   0  0  0  0  0  0  0  0  0  0  0  0
  162.0900  212.1110  149.2120 C   0  0  0  0  0  2  0  0  0  0  0  0
  160.8360  212.3730  149.9960 C   0  0  0  0  0  3  0  0  0  0  0  0
  161.1380  204.8820  150.7590 C   0  0  0  0  0  0  0  0  0  0  0  0
  161.7730  207.2440  150.5810 C   0  0  0  0  0  0  0  0  0  0  0  0
  161.5100  205.8600  148.5750 C   0  0  0  0  0  3  0  0  0  0  0  0
  162.2030  210.6370  148.8220 C   0  0  0  0  0  2  0  0  0  0  0  0
  162.1200  208.4120  149.7300 C   0  0  0  0  0  3  0  0  0  0  0  0
  161.9340  209.7150  149.9820 C   0  0  0  0  0  0  0  0  0  0  0  0
  161.2010  209.6910  152.3860 C   0  0  0  0  0  0  0  0  0  0  0  0
  160.5230  202.6530  150.8330 O   0  0  0  0  0  0  0  0  0  0  0  0
  160.8380  203.6580  150.1340 C   0  0  0  0  0  0  0  0  0  0  0  0
  161.4820  206.0030  149.9670 C   0  0  0  0  0  0  0  0  0  0  0  0
  161.1050  205.0040  152.1530 C   0  0  0  0  0  3  0  0  0  0  0  0
  160.8830  203.5570  148.7700 N   0  0  0  0  0  0  0  0  0  0  0  0
  160.4450  211.5200  150.9430 C   0  0  0  0  0  3  0  0  0  0  0  0
  161.1770  210.2530  151.1590 C   0  0  0  0  0  0  0  0  0  0  0  0
  161.4150  206.2170  152.7600 C   0  0  0  0  0  3  0  0  0  0  0  0
  162.1510  208.5760  152.6900 C   0  0  0  0  0  2  0  0  0  0  0  0
  158.6730  211.9960  154.2480 C   0  0  2  0  0  3  0  0  0  0  0  0
  158.8360  211.2630  155.5880 C   0  0  0  0  0  2  0  0  0  0  0  0
  161.0500  210.2270  154.8740 C   0  0  2  0  0  3  0  0  0  0  0  0
  160.4170  210.4300  157.1760 O   0  0  0  0  0  1  0  0  0  0  0  0
  160.3100  211.0550  155.9350 C   0  0  2  0  0  3  0  0  0  0  0  0
  159.7250  211.6110  153.1990 C   0  0  0  0  0  2  0  0  0  0  0  0
  158.7090  213.3750  154.4550 O   0  0  0  0  0  1  0  0  0  0  0  0
  162.3600  210.6980  154.7690 O   0  0  0  0  0  1  0  0  0  0  0  0
  160.3440  210.2440  153.5020 C   0  0  1  0  0  3  0  0  0  0  0  0
  160.5780  202.2950  148.1040 C   0  0  0  0  0  2  0  0  0  0  0  0
  161.1990  202.2480  146.7130 C   0  0  0  0  0  2  0  0  0  0  0  0
  160.3990  201.3350  145.8030 C   0  0  0  0  0  1  0  0  0  0  0  0
  1  7  2  0  0  0  0
  1 16  1  0  0  0  0
  2 20  1  0  0  0  0
  2 19  1  0  0  0  0
  3  4  1  0  0  0  0
  4 17  2  0  0  0  0
  5 15  1  0  0  0  0
  6  2  2  0  0  0  0
  7 14  1  0  0  0  0
  8  3  1  0  0  0  0
  8 10  1  0  0  0  0
  9 10  2  0  0  0  0
  9  6  1  0  0  0  0
 10 18  1  0  0  0  0
 11 20  1  0  0  0  0
 13  5  1  0  0  0  0
 13 12  2  0  0  0  0
 14  6  1  0  0  0  0
 14  5  2  0  0  0  0
 15 19  2  0  0  0  0
 16 13  1  0  0  0  0
 17 18  1  0  0  0  0
 18 11  2  0  0  0  0
 21 27  1  1  0  0  0
 21 22  1  0  0  0  0
 22 25  1  0  0  0  0
 23 28  1  6  0  0  0
 23 25  1  0  0  0  0
 25 24  1  1  0  0  0
 26 29  1  0  0  0  0
 26 21  1  0  0  0  0
 29 11  1  6  0  0  0
 29 23  1  0  0  0  0
 30 16  1  0  0  0  0
 31 30  1  0  0  0  0
 32 31  1  0  0  0  0
M  END
>  <MODEL>
7

>  <REMARK>
 VINA RESULT:      -6.6      1.342      2.055
  Name = 
  3 active torsions:
  status: ('A' for Active; 'I' for Inactive)
    1  A    between atoms: C_1  and  C_10
    2  A    between atoms: C_10  and  N_24
    3  A    between atoms: C_16  and  C_32
                            x       y       z     vdW  Elec       q    Type
                         _______ _______ _______ _____ _____    ______ ____

>  <TORSDO>
F 3

$$$$
