=
 OpenBabel11062410153D

 43 47  0  0  1  0  0  0  0  0999 V2000
  160.8250  203.6690  149.1220 C   0  0  2  0  0  3  0  0  0  0  0  0
  161.8780  208.5900  149.7160 C   0  0  2  0  0  3  0  0  0  0  0  0
  161.2030  209.2760  152.3320 C   0  0  2  0  0  3  0  0  0  0  0  0
  162.2870  205.7730  148.8580 C   0  0  1  0  0  3  0  0  0  0  0  0
  159.6920  204.5060  149.7360 C   0  0  0  0  0  2  0  0  0  0  0  0
  161.5850  203.0790  150.1330 O   0  0  0  0  0  1  0  0  0  0  0  0
  161.6090  206.0970  150.2070 C   0  0  2  0  0  3  0  0  0  0  0  0
  161.7250  204.5000  148.2020 C   0  0  0  0  0  2  0  0  0  0  0  0
  160.0910  205.9470  150.0900 C   0  0  0  0  0  2  0  0  0  0  0  0
  161.3600  207.7740  152.0860 C   0  0  0  0  0  2  0  0  0  0  0  0
  162.0500  207.4630  150.7550 C   0  0  2  0  0  3  0  0  0  0  0  0
  162.6580  208.2300  148.4560 C   0  0  0  0  0  2  0  0  0  0  0  0
  162.3240  209.9120  150.2040 N   0  0  0  0  0  0  0  0  0  0  0  0
  162.3440  210.0450  151.6700 C   0  0  0  0  0  2  0  0  0  0  0  0
  162.1370  206.9260  147.8650 C   0  0  0  0  0  2  0  0  0  0  0  0
  161.1290  209.5900  153.8210 C   0  0  2  0  0  3  0  0  0  0  0  0
  160.2890  208.6960  154.4670 F   0  0  0  0  0  0  0  0  0  0  0  0
  160.6460  210.9490  154.0110 N   0  0  0  0  0  2  0  0  0  0  0  0
  160.4570  211.5340  155.3000 C   0  0  0  0  0  0  0  0  0  0  0  0
  160.7880  210.9120  156.3430 O   0  0  0  0  0  0  0  0  0  0  0  0
  159.7410  213.1710  155.4250 S   0  0  0  0  0  0  0  0  0  0  0  0
  158.2570  212.7880  154.4240 C   0  0  1  0  0  3  0  0  0  0  0  0
  156.9740  212.8080  155.2500 C   0  0  0  0  0  2  0  0  0  0  0  0
  155.6170  210.7330  155.0160 C   0  0  0  0  0  1  0  0  0  0  0  0
  155.8290  212.1450  154.5060 C   0  0  0  0  0  2  0  0  0  0  0  0
  158.1520  213.6870  153.3590 O   0  0  0  0  0  0  0  0  0  0  0  0
  158.5400  212.9590  152.2310 C   0  0  2  0  0  3  0  0  0  0  0  0
  159.9070  213.1360  152.0030 O   0  0  0  0  0  1  0  0  0  0  0  0
  157.7590  213.4030  151.0380 C   0  0  0  0  0  0  0  0  0  0  0  0
  155.6610  214.1420  150.0760 C   0  0  0  0  0  3  0  0  0  0  0  0
  157.6250  213.9350  148.6740 C   0  0  0  0  0  3  0  0  0  0  0  0
  156.2700  214.2500  148.8230 C   0  0  0  0  0  3  0  0  0  0  0  0
  158.3690  213.5130  149.7800 C   0  0  0  0  0  3  0  0  0  0  0  0
  156.4050  213.7200  151.1830 C   0  0  0  0  0  3  0  0  0  0  0  0
  161.4070  210.8620  149.7230 N   0  0  0  0  0  2  0  0  0  0  0  0
  160.9230  212.5900  146.4430 C   0  0  0  0  0  3  0  0  0  0  0  0
  162.1950  213.1500  146.2450 C   0  0  0  0  0  0  0  0  0  0  0  0
  162.9260  212.1870  148.3480 C   0  0  0  0  0  3  0  0  0  0  0  0
  160.6560  211.8350  147.5880 C   0  0  0  0  0  3  0  0  0  0  0  0
  161.6580  211.6340  148.5480 C   0  0  0  0  0  0  0  0  0  0  0  0
  163.1930  212.9420  147.2030 C   0  0  0  0  0  3  0  0  0  0  0  0
  162.4930  213.9120  145.1120 O   0  0  0  0  0  0  0  0  0  0  0  0
  161.4880  214.4490  144.2630 C   0  0  0  0  0  1  0  0  0  0  0  0
  1  5  1  0  0  0  0
  1  6  1  1  0  0  0
  2 12  1  6  0  0  0
  2 13  1  0  0  0  0
  2 11  1  0  0  0  0
  3 16  1  1  0  0  0
  4 15  1  6  0  0  0
  4  7  1  0  0  0  0
  5  9  1  0  0  0  0
  7  9  1  6  0  0  0
  7 11  1  0  0  0  0
  8  4  1  0  0  0  0
  8  1  1  0  0  0  0
 10  3  1  0  0  0  0
 11 10  1  1  0  0  0
 13 14  1  0  0  0  0
 14  3  1  0  0  0  0
 15 12  1  0  0  0  0
 16 18  1  0  0  0  0
 16 17  1  1  0  0  0
 18 19  1  0  0  0  0
 19 21  1  0  0  0  0
 19 20  2  0  0  0  0
 22 23  1  1  0  0  0
 22 21  1  0  0  0  0
 25 24  1  0  0  0  0
 25 23  1  0  0  0  0
 26 22  1  0  0  0  0
 27 28  1  6  0  0  0
 27 26  1  0  0  0  0
 29 34  1  0  0  0  0
 29 27  1  0  0  0  0
 30 34  2  0  0  0  0
 31 32  2  0  0  0  0
 31 33  1  0  0  0  0
 32 30  1  0  0  0  0
 33 29  2  0  0  0  0
 35 13  1  0  0  0  0
 36 39  1  0  0  0  0
 37 36  2  0  0  0  0
 37 41  1  0  0  0  0
 38 40  1  0  0  0  0
 39 40  2  0  0  0  0
 40 35  1  0  0  0  0
 41 38  2  0  0  0  0
 42 37  1  0  0  0  0
 43 42  1  0  0  0  0
M  END
>  <MODEL>
1

>  <REMARK>
 VINA RESULT:      -5.5      0.000      0.000
  Name = 
  12 active torsions:
  status: ('A' for Active; 'I' for Inactive)
    1  A    between atoms: N_1  and  N_34
    2  A    between atoms: N_1  and  C_35
    3  A    between atoms: C_2  and  N_6
    4  A    between atoms: C_2  and  C_13
    5  A    between atoms: S_3  and  C_4
    6  A    between atoms: S_3  and  C_12
    7  A    between atoms: C_4  and  C_15
    8  A    between atoms: C_4  and  O_22
    9  A    between atoms: C_11  and  C_14
   10  A    between atoms: C_14  and  O_22
   11  A    between atoms: C_15  and  C_42
   12  A    between atoms: C_19  and  O_25
                            x       y       z     vdW  Elec       q    Type
                         _______ _______ _______ _____ _____    ______ ____

>  <TORSDO>
F 12

$$$$
=
 OpenBabel11062410153D

 43 47  0  0  1  0  0  0  0  0999 V2000
  160.4230  208.3730  156.4870 C   0  0  2  0  0  3  0  0  0  0  0  0
  161.5110  206.7390  151.8150 C   0  0  2  0  0  3  0  0  0  0  0  0
  161.8080  208.9880  150.1950 C   0  0  2  0  0  3  0  0  0  0  0  0
  161.6450  206.8790  154.7820 C   0  0  1  0  0  3  0  0  0  0  0  0
  159.5690  208.9890  155.3680 C   0  0  0  0  0  2  0  0  0  0  0  0
  161.5090  209.2020  156.7710 O   0  0  0  0  0  1  0  0  0  0  0  0
  161.4920  208.1620  153.9370 C   0  0  2  0  0  3  0  0  0  0  0  0
  160.9130  206.9660  156.1310 C   0  0  0  0  0  2  0  0  0  0  0  0
  160.0360  208.6360  153.9470 C   0  0  0  0  0  2  0  0  0  0  0  0
  161.8990  209.2670  151.6960 C   0  0  0  0  0  2  0  0  0  0  0  0
  162.0700  207.9900  152.5250 C   0  0  2  0  0  3  0  0  0  0  0  0
  161.7920  205.5110  152.6740 C   0  0  0  0  0  2  0  0  0  0  0  0
  162.0730  206.5290  150.4640 N   0  0  0  0  0  0  0  0  0  0  0  0
  162.6170  207.7440  149.8350 C   0  0  0  0  0  2  0  0  0  0  0  0
  161.1220  205.6510  154.0350 C   0  0  0  0  0  2  0  0  0  0  0  0
  162.2690  210.1890  149.3780 C   0  0  2  0  0  3  0  0  0  0  0  0
  162.3080  211.3280  150.1670 F   0  0  0  0  0  0  0  0  0  0  0  0
  161.3650  210.3940  148.2570 N   0  0  0  0  0  2  0  0  0  0  0  0
  161.0870  211.6820  147.7080 C   0  0  0  0  0  0  0  0  0  0  0  0
  161.6920  212.7040  148.1260 O   0  0  0  0  0  0  0  0  0  0  0  0
  159.8650  211.8390  146.4090 S   0  0  0  0  0  0  0  0  0  0  0  0
  160.3470  213.5360  145.9210 C   0  0  1  0  0  3  0  0  0  0  0  0
  160.5700  213.6700  144.4180 C   0  0  0  0  0  2  0  0  0  0  0  0
  163.0500  213.5570  144.6110 C   0  0  0  0  0  1  0  0  0  0  0  0
  161.8220  212.9320  143.9780 C   0  0  0  0  0  2  0  0  0  0  0  0
  159.3770  214.4500  146.3410 O   0  0  0  0  0  0  0  0  0  0  0  0
  158.2140  213.6920  146.5080 C   0  0  2  0  0  3  0  0  0  0  0  0
  157.2780  214.0450  145.5330 O   0  0  0  0  0  1  0  0  0  0  0  0
  157.6450  213.9160  147.8710 C   0  0  0  0  0  0  0  0  0  0  0  0
  157.9870  214.2040  150.2520 C   0  0  0  0  0  3  0  0  0  0  0  0
  155.7460  214.2750  149.3380 C   0  0  0  0  0  3  0  0  0  0  0  0
  156.6100  214.3460  150.4360 C   0  0  0  0  0  3  0  0  0  0  0  0
  156.2630  214.0610  148.0570 C   0  0  0  0  0  3  0  0  0  0  0  0
  158.5050  213.9900  148.9710 C   0  0  0  0  0  3  0  0  0  0  0  0
  161.0240  206.0820  149.6440 N   0  0  0  0  0  2  0  0  0  0  0  0
  160.5420  202.3870  149.3320 C   0  0  0  0  0  3  0  0  0  0  0  0
  160.9520  202.1740  148.0060 C   0  0  0  0  0  0  0  0  0  0  0  0
  161.4050  204.5480  147.7850 C   0  0  0  0  0  3  0  0  0  0  0  0
  160.5630  203.6730  149.8780 C   0  0  0  0  0  3  0  0  0  0  0  0
  160.9920  204.7600  149.1030 C   0  0  0  0  0  0  0  0  0  0  0  0
  161.3830  203.2620  147.2390 C   0  0  0  0  0  3  0  0  0  0  0  0
  160.9400  200.9020  147.4300 O   0  0  0  0  0  0  0  0  0  0  0  0
  160.9080  200.6960  146.0240 C   0  0  0  0  0  1  0  0  0  0  0  0
  1  6  1  6  0  0  0
  2 11  1  0  0  0  0
  2 12  1  1  0  0  0
  3 16  1  6  0  0  0
  3 10  1  0  0  0  0
  4 15  1  6  0  0  0
  4  8  1  0  0  0  0
  5  1  1  0  0  0  0
  7  9  1  6  0  0  0
  7  4  1  0  0  0  0
  8  1  1  0  0  0  0
  9  5  1  0  0  0  0
 11 10  1  6  0  0  0
 11  7  1  0  0  0  0
 12 15  1  0  0  0  0
 13  2  1  0  0  0  0
 14  3  1  0  0  0  0
 14 13  1  0  0  0  0
 16 17  1  1  0  0  0
 18 16  1  0  0  0  0
 19 20  2  0  0  0  0
 19 18  1  0  0  0  0
 21 19  1  0  0  0  0
 22 23  1  6  0  0  0
 22 26  1  0  0  0  0
 22 21  1  0  0  0  0
 25 23  1  0  0  0  0
 25 24  1  0  0  0  0
 26 27  1  0  0  0  0
 27 28  1  6  0  0  0
 27 29  1  0  0  0  0
 29 33  2  0  0  0  0
 29 34  1  0  0  0  0
 30 32  1  0  0  0  0
 31 32  2  0  0  0  0
 33 31  1  0  0  0  0
 34 30  2  0  0  0  0
 35 13  1  0  0  0  0
 36 39  1  0  0  0  0
 37 36  2  0  0  0  0
 38 40  1  0  0  0  0
 40 35  1  0  0  0  0
 40 39  2  0  0  0  0
 41 38  2  0  0  0  0
 41 37  1  0  0  0  0
 42 37  1  0  0  0  0
 43 42  1  0  0  0  0
M  END
>  <MODEL>
2

>  <REMARK>
 VINA RESULT:      -5.5      2.973      7.423
  Name = 
  12 active torsions:
  status: ('A' for Active; 'I' for Inactive)
    1  A    between atoms: N_1  and  N_34
    2  A    between atoms: N_1  and  C_35
    3  A    between atoms: C_2  and  N_6
    4  A    between atoms: C_2  and  C_13
    5  A    between atoms: S_3  and  C_4
    6  A    between atoms: S_3  and  C_12
    7  A    between atoms: C_4  and  C_15
    8  A    between atoms: C_4  and  O_22
    9  A    between atoms: C_11  and  C_14
   10  A    between atoms: C_14  and  O_22
   11  A    between atoms: C_15  and  C_42
   12  A    between atoms: C_19  and  O_25
                            x       y       z     vdW  Elec       q    Type
                         _______ _______ _______ _____ _____    ______ ____

>  <TORSDO>
F 12

$$$$
=
 OpenBabel11062410153D

 43 47  0  0  1  0  0  0  0  0999 V2000
  160.1240  209.0070  156.4570 C   0  0  2  0  0  3  0  0  0  0  0  0
  161.4250  207.8460  151.6980 C   0  0  2  0  0  3  0  0  0  0  0  0
  161.4880  210.2260  150.2480 C   0  0  2  0  0  3  0  0  0  0  0  0
  161.5180  207.7830  154.6690 C   0  0  1  0  0  3  0  0  0  0  0  0
  159.2170  209.6060  155.3700 C   0  0  0  0  0  2  0  0  0  0  0  0
  161.1100  209.9260  156.8170 O   0  0  0  0  0  1  0  0  0  0  0  0
  161.2310  209.1000  153.9160 C   0  0  2  0  0  3  0  0  0  0  0  0
  160.7690  207.6900  156.0090 C   0  0  0  0  0  2  0  0  0  0  0  0
  159.7330  209.4100  153.9360 C   0  0  0  0  0  2  0  0  0  0  0  0
  161.5350  210.4030  151.7670 C   0  0  0  0  0  2  0  0  0  0  0  0
  161.8380  209.0950  152.5050 C   0  0  2  0  0  3  0  0  0  0  0  0
  161.8320  206.5960  152.4720 C   0  0  0  0  0  2  0  0  0  0  0  0
  162.0180  207.7970  150.3460 N   0  0  0  0  0  0  0  0  0  0  0  0
  162.4310  209.1070  149.8140 C   0  0  0  0  0  2  0  0  0  0  0  0
  161.1390  206.5630  153.8280 C   0  0  0  0  0  2  0  0  0  0  0  0
  161.8210  211.5270  149.5270 C   0  0  2  0  0  3  0  0  0  0  0  0
  161.2330  212.6040  150.1710 F   0  0  0  0  0  0  0  0  0  0  0  0
  161.3540  211.4560  148.1510 N   0  0  0  0  0  2  0  0  0  0  0  0
  160.8220  212.5820  147.4530 C   0  0  0  0  0  0  0  0  0  0  0  0
  160.8140  213.7240  147.9830 O   0  0  0  0  0  0  0  0  0  0  0  0
  160.1610  212.3600  145.8030 S   0  0  0  0  0  0  0  0  0  0  0  0
  160.7310  213.9810  145.1690 C   0  0  1  0  0  3  0  0  0  0  0  0
  162.2330  214.1820  145.3490 C   0  0  0  0  0  2  0  0  0  0  0  0
  163.3500  213.8200  143.1530 C   0  0  0  0  0  1  0  0  0  0  0  0
  163.0250  213.2040  144.5000 C   0  0  0  0  0  2  0  0  0  0  0  0
  160.3910  214.1150  143.8210 O   0  0  0  0  0  0  0  0  0  0  0  0
  159.4480  213.1110  143.5840 C   0  0  2  0  0  3  0  0  0  0  0  0
  160.0740  211.8630  143.5950 O   0  0  0  0  0  1  0  0  0  0  0  0
  158.7750  213.3360  142.2700 C   0  0  0  0  0  0  0  0  0  0  0  0
  158.5740  212.8110  139.9130 C   0  0  0  0  0  3  0  0  0  0  0  0
  157.0990  214.4500  140.9140 C   0  0  0  0  0  3  0  0  0  0  0  0
  157.5260  213.7270  139.7940 C   0  0  0  0  0  3  0  0  0  0  0  0
  157.7220  214.2550  142.1500 C   0  0  0  0  0  3  0  0  0  0  0  0
  159.1980  212.6140  141.1490 C   0  0  0  0  0  3  0  0  0  0  0  0
  161.0330  207.3000  149.4780 N   0  0  0  0  0  2  0  0  0  0  0  0
  161.5360  204.3890  147.1840 C   0  0  0  0  0  3  0  0  0  0  0  0
  161.1190  203.3280  148.0030 C   0  0  0  0  0  0  0  0  0  0  0  0
  160.6490  204.9100  149.7830 C   0  0  0  0  0  3  0  0  0  0  0  0
  161.5100  205.7020  147.6650 C   0  0  0  0  0  3  0  0  0  0  0  0
  161.0700  205.9660  148.9690 C   0  0  0  0  0  0  0  0  0  0  0  0
  160.6750  203.5980  149.3030 C   0  0  0  0  0  3  0  0  0  0  0  0
  161.1340  202.0050  147.5540 O   0  0  0  0  0  0  0  0  0  0  0  0
  161.3400  200.9010  148.4250 C   0  0  0  0  0  1  0  0  0  0  0  0
  1  6  1  6  0  0  0
  2 12  1  1  0  0  0
  2 11  1  0  0  0  0
  3 16  1  6  0  0  0
  3 10  1  0  0  0  0
  4 15  1  6  0  0  0
  4  8  1  0  0  0  0
  5  1  1  0  0  0  0
  7  9  1  6  0  0  0
  7  4  1  0  0  0  0
  8  1  1  0  0  0  0
  9  5  1  0  0  0  0
 11 10  1  6  0  0  0
 11  7  1  0  0  0  0
 12 15  1  0  0  0  0
 13  2  1  0  0  0  0
 14  3  1  0  0  0  0
 14 13  1  0  0  0  0
 16 17  1  1  0  0  0
 18 16  1  0  0  0  0
 19 20  2  0  0  0  0
 19 18  1  0  0  0  0
 21 19  1  0  0  0  0
 22 23  1  6  0  0  0
 22 21  1  0  0  0  0
 24 25  1  0  0  0  0
 25 23  1  0  0  0  0
 26 22  1  0  0  0  0
 27 28  1  6  0  0  0
 27 26  1  0  0  0  0
 29 27  1  0  0  0  0
 30 34  1  0  0  0  0
 31 33  2  0  0  0  0
 32 30  2  0  0  0  0
 32 31  1  0  0  0  0
 33 29  1  0  0  0  0
 34 29  2  0  0  0  0
 35 13  1  0  0  0  0
 36 39  2  0  0  0  0
 36 37  1  0  0  0  0
 37 41  2  0  0  0  0
 39 40  1  0  0  0  0
 40 35  1  0  0  0  0
 40 38  2  0  0  0  0
 41 38  1  0  0  0  0
 42 37  1  0  0  0  0
 42 43  1  0  0  0  0
M  END
>  <MODEL>
3

>  <REMARK>
 VINA RESULT:      -5.0      3.355      8.214
  Name = 
  12 active torsions:
  status: ('A' for Active; 'I' for Inactive)
    1  A    between atoms: N_1  and  N_34
    2  A    between atoms: N_1  and  C_35
    3  A    between atoms: C_2  and  N_6
    4  A    between atoms: C_2  and  C_13
    5  A    between atoms: S_3  and  C_4
    6  A    between atoms: S_3  and  C_12
    7  A    between atoms: C_4  and  C_15
    8  A    between atoms: C_4  and  O_22
    9  A    between atoms: C_11  and  C_14
   10  A    between atoms: C_14  and  O_22
   11  A    between atoms: C_15  and  C_42
   12  A    between atoms: C_19  and  O_25
                            x       y       z     vdW  Elec       q    Type
                         _______ _______ _______ _____ _____    ______ ____

>  <TORSDO>
F 12

$$$$
=
 OpenBabel11062410153D

 43 47  0  0  1  0  0  0  0  0999 V2000
  161.0740  201.3890  147.6400 C   0  0  2  0  0  3  0  0  0  0  0  0
  160.9640  205.4900  150.6140 C   0  0  2  0  0  3  0  0  0  0  0  0
  161.8420  207.6500  149.0870 C   0  0  2  0  0  3  0  0  0  0  0  0
  160.0150  202.9510  149.3940 C   0  0  1  0  0  3  0  0  0  0  0  0
  162.3620  202.2270  147.6390 C   0  0  0  0  0  2  0  0  0  0  0  0
  160.2530  201.7710  146.5780 O   0  0  0  0  0  1  0  0  0  0  0  0
  160.7870  203.9910  148.5530 C   0  0  2  0  0  3  0  0  0  0  0  0
  160.3110  201.5040  148.9640 C   0  0  0  0  0  2  0  0  0  0  0  0
  162.2470  203.5650  148.3860 C   0  0  0  0  0  2  0  0  0  0  0  0
  161.4030  206.4300  148.2740 C   0  0  0  0  0  2  0  0  0  0  0  0
  160.6230  205.4130  149.1110 C   0  0  2  0  0  3  0  0  0  0  0  0
  160.0890  204.5000  151.3760 C   0  0  0  0  0  2  0  0  0  0  0  0
  160.7860  206.8400  151.1880 N   0  0  0  0  0  0  0  0  0  0  0  0
  160.8400  207.9330  150.2040 C   0  0  0  0  0  2  0  0  0  0  0  0
  160.3410  203.0810  150.8820 C   0  0  0  0  0  2  0  0  0  0  0  0
  162.0230  208.8740  148.1970 C   0  0  2  0  0  3  0  0  0  0  0  0
  163.3650  209.0810  147.9190 F   0  0  0  0  0  0  0  0  0  0  0  0
  161.4670  210.0450  148.8570 N   0  0  0  0  0  2  0  0  0  0  0  0
  161.9660  211.3660  148.6450 C   0  0  0  0  0  0  0  0  0  0  0  0
  162.8700  211.5850  147.7960 O   0  0  0  0  0  0  0  0  0  0  0  0
  161.2930  212.7230  149.6010 S   0  0  0  0  0  0  0  0  0  0  0  0
  160.0650  213.2300  148.3410 C   0  0  1  0  0  3  0  0  0  0  0  0
  159.0790  214.2660  148.8710 C   0  0  0  0  0  2  0  0  0  0  0  0
  156.8460  213.2010  149.1450 C   0  0  0  0  0  1  0  0  0  0  0  0
  158.1070  213.6470  149.8580 C   0  0  0  0  0  2  0  0  0  0  0  0
  160.7170  213.7280  147.2100 O   0  0  0  0  0  0  0  0  0  0  0  0
  159.9560  213.2810  146.1260 C   0  0  2  0  0  3  0  0  0  0  0  0
  159.2760  212.1120  146.4780 O   0  0  0  0  0  1  0  0  0  0  0  0
  160.8380  213.0270  144.9470 C   0  0  0  0  0  0  0  0  0  0  0  0
  163.0190  213.1810  143.9030 C   0  0  0  0  0  3  0  0  0  0  0  0
  161.1760  212.1620  142.7060 C   0  0  0  0  0  3  0  0  0  0  0  0
  162.5180  212.5540  142.7580 C   0  0  0  0  0  3  0  0  0  0  0  0
  160.3370  212.3970  143.7990 C   0  0  0  0  0  3  0  0  0  0  0  0
  162.1800  213.4160  144.9970 C   0  0  0  0  0  3  0  0  0  0  0  0
  161.8440  207.0520  152.0870 N   0  0  0  0  0  2  0  0  0  0  0  0
  161.2030  207.8210  155.6900 C   0  0  0  0  0  3  0  0  0  0  0  0
  161.3310  209.2200  155.6920 C   0  0  0  0  0  0  0  0  0  0  0  0
  161.7950  209.1620  153.3110 C   0  0  0  0  0  3  0  0  0  0  0  0
  161.3710  207.1000  154.5050 C   0  0  0  0  0  3  0  0  0  0  0  0
  161.6720  207.7700  153.3100 C   0  0  0  0  0  0  0  0  0  0  0  0
  161.6260  209.8830  154.4960 C   0  0  0  0  0  3  0  0  0  0  0  0
  161.1710  209.9690  156.8600 O   0  0  0  0  0  0  0  0  0  0  0  0
  161.8220  211.2150  157.0680 C   0  0  0  0  0  1  0  0  0  0  0  0
  1  6  1  6  0  0  0
  1  8  1  0  0  0  0
  2 13  1  0  0  0  0
  2 12  1  1  0  0  0
  3 16  1  6  0  0  0
  3 14  1  0  0  0  0
  4  8  1  6  0  0  0
  4 15  1  0  0  0  0
  5  1  1  0  0  0  0
  5  9  1  0  0  0  0
  7  9  1  1  0  0  0
  7 11  1  0  0  0  0
  7  4  1  0  0  0  0
 10  3  1  0  0  0  0
 11 10  1  6  0  0  0
 11  2  1  0  0  0  0
 13 35  1  0  0  0  0
 14 13  1  0  0  0  0
 15 12  1  0  0  0  0
 16 17  1  1  0  0  0
 16 18  1  0  0  0  0
 19 18  1  0  0  0  0
 19 21  1  0  0  0  0
 20 19  2  0  0  0  0
 22 23  1  1  0  0  0
 22 21  1  0  0  0  0
 23 25  1  0  0  0  0
 24 25  1  0  0  0  0
 26 22  1  0  0  0  0
 27 28  1  1  0  0  0
 27 26  1  0  0  0  0
 29 34  1  0  0  0  0
 29 27  1  0  0  0  0
 30 34  2  0  0  0  0
 31 32  2  0  0  0  0
 31 33  1  0  0  0  0
 32 30  1  0  0  0  0
 33 29  2  0  0  0  0
 35 40  1  0  0  0  0
 36 37  1  0  0  0  0
 37 42  1  0  0  0  0
 38 41  1  0  0  0  0
 39 36  2  0  0  0  0
 40 38  2  0  0  0  0
 40 39  1  0  0  0  0
 41 37  2  0  0  0  0
 42 43  1  0  0  0  0
M  END
>  <MODEL>
4

>  <REMARK>
 VINA RESULT:      -4.4      2.935      6.679
  Name = 
  12 active torsions:
  status: ('A' for Active; 'I' for Inactive)
    1  A    between atoms: N_1  and  N_34
    2  A    between atoms: N_1  and  C_35
    3  A    between atoms: C_2  and  N_6
    4  A    between atoms: C_2  and  C_13
    5  A    between atoms: S_3  and  C_4
    6  A    between atoms: S_3  and  C_12
    7  A    between atoms: C_4  and  C_15
    8  A    between atoms: C_4  and  O_22
    9  A    between atoms: C_11  and  C_14
   10  A    between atoms: C_14  and  O_22
   11  A    between atoms: C_15  and  C_42
   12  A    between atoms: C_19  and  O_25
                            x       y       z     vdW  Elec       q    Type
                         _______ _______ _______ _____ _____    ______ ____

>  <TORSDO>
F 12

$$$$
=
 OpenBabel11062410153D

 43 47  0  0  1  0  0  0  0  0999 V2000
  160.6510  201.5160  147.8550 C   0  0  2  0  0  3  0  0  0  0  0  0
  161.7550  206.4160  148.5300 C   0  0  2  0  0  3  0  0  0  0  0  0
  161.5790  206.9410  151.2610 C   0  0  2  0  0  3  0  0  0  0  0  0
  162.0190  203.6600  147.4460 C   0  0  1  0  0  3  0  0  0  0  0  0
  159.6470  202.2960  148.7190 C   0  0  0  0  0  2  0  0  0  0  0  0
  161.5940  200.8860  148.6690 O   0  0  0  0  0  1  0  0  0  0  0  0
  161.6050  203.8950  148.9150 C   0  0  2  0  0  3  0  0  0  0  0  0
  161.3550  202.4160  146.8330 C   0  0  0  0  0  2  0  0  0  0  0  0
  160.0930  203.7220  149.0760 C   0  0  0  0  0  2  0  0  0  0  0  0
  161.7000  205.4580  150.9030 C   0  0  0  0  0  2  0  0  0  0  0  0
  162.1290  205.2360  149.4500 C   0  0  2  0  0  3  0  0  0  0  0  0
  162.2850  206.1430  147.1260 C   0  0  0  0  0  2  0  0  0  0  0  0
  162.2720  207.7170  149.0020 N   0  0  0  0  0  0  0  0  0  0  0  0
  162.5680  207.7680  150.4430 C   0  0  0  0  0  2  0  0  0  0  0  0
  161.6740  204.8640  146.5670 C   0  0  0  0  0  2  0  0  0  0  0  0
  161.7850  207.1690  152.7540 C   0  0  2  0  0  3  0  0  0  0  0  0
  161.5910  205.9910  153.4590 F   0  0  0  0  0  0  0  0  0  0  0  0
  160.8580  208.1870  153.2250 N   0  0  0  0  0  2  0  0  0  0  0  0
  161.1980  209.5710  153.3060 C   0  0  0  0  0  0  0  0  0  0  0  0
  162.3090  209.9860  152.8830 O   0  0  0  0  0  0  0  0  0  0  0  0
  160.0270  210.7240  154.0160 S   0  0  0  0  0  0  0  0  0  0  0  0
  159.9290  209.8910  155.6440 C   0  0  1  0  0  3  0  0  0  0  0  0
  161.3040  209.5340  156.1990 C   0  0  0  0  0  2  0  0  0  0  0  0
  160.1120  207.3580  156.4090 C   0  0  0  0  0  1  0  0  0  0  0  0
  161.2830  208.1870  156.8990 C   0  0  0  0  0  2  0  0  0  0  0  0
  159.2420  210.6980  156.5540 O   0  0  0  0  0  0  0  0  0  0  0  0
  159.1950  211.9600  155.9570 C   0  0  2  0  0  3  0  0  0  0  0  0
  160.0380  212.8380  156.6420 O   0  0  0  0  0  1  0  0  0  0  0  0
  157.7960  212.4820  155.9630 C   0  0  0  0  0  0  0  0  0  0  0  0
  155.8900  213.3220  157.2010 C   0  0  0  0  0  3  0  0  0  0  0  0
  155.7740  213.1320  154.7900 C   0  0  0  0  0  3  0  0  0  0  0  0
  155.1780  213.4750  156.0080 C   0  0  0  0  0  3  0  0  0  0  0  0
  157.0810  212.6370  154.7670 C   0  0  0  0  0  3  0  0  0  0  0  0
  157.1970  212.8270  157.1790 C   0  0  0  0  0  3  0  0  0  0  0  0
  161.2730  208.6740  148.7590 N   0  0  0  0  0  2  0  0  0  0  0  0
  162.9680  212.0070  148.6620 C   0  0  0  0  0  3  0  0  0  0  0  0
  162.1500  212.6960  147.7520 C   0  0  0  0  0  0  0  0  0  0  0  0
  160.7650  210.7160  147.5240 C   0  0  0  0  0  3  0  0  0  0  0  0
  162.6840  210.6800  148.9980 C   0  0  0  0  0  3  0  0  0  0  0  0
  161.5830  210.0290  148.4260 C   0  0  0  0  0  0  0  0  0  0  0  0
  161.0490  212.0430  147.1880 C   0  0  0  0  0  3  0  0  0  0  0  0
  162.4080  214.0220  147.3940 O   0  0  0  0  0  0  0  0  0  0  0  0
  162.6800  214.4160  146.0570 C   0  0  0  0  0  1  0  0  0  0  0  0
  1  6  1  1  0  0  0
  1  5  1  0  0  0  0
  2 12  1  6  0  0  0
  2 13  1  0  0  0  0
  2 11  1  0  0  0  0
  3 16  1  1  0  0  0
  4 15  1  6  0  0  0
  4  7  1  0  0  0  0
  5  9  1  0  0  0  0
  7  9  1  6  0  0  0
  7 11  1  0  0  0  0
  8  4  1  0  0  0  0
  8  1  1  0  0  0  0
 10  3  1  0  0  0  0
 11 10  1  1  0  0  0
 13 14  1  0  0  0  0
 14  3  1  0  0  0  0
 15 12  1  0  0  0  0
 16 18  1  0  0  0  0
 16 17  1  1  0  0  0
 18 19  1  0  0  0  0
 19 21  1  0  0  0  0
 20 19  2  0  0  0  0
 21 22  1  0  0  0  0
 22 23  1  1  0  0  0
 22 26  1  0  0  0  0
 23 25  1  0  0  0  0
 24 25  1  0  0  0  0
 27 29  1  0  0  0  0
 27 26  1  0  0  0  0
 27 28  1  1  0  0  0
 29 34  1  0  0  0  0
 31 32  2  0  0  0  0
 32 30  1  0  0  0  0
 33 31  1  0  0  0  0
 33 29  2  0  0  0  0
 34 30  2  0  0  0  0
 35 13  1  0  0  0  0
 36 39  1  0  0  0  0
 37 36  2  0  0  0  0
 38 40  1  0  0  0  0
 40 35  1  0  0  0  0
 40 39  2  0  0  0  0
 41 38  2  0  0  0  0
 41 37  1  0  0  0  0
 42 37  1  0  0  0  0
 43 42  1  0  0  0  0
M  END
>  <MODEL>
5

>  <REMARK>
 VINA RESULT:      -3.9      2.416      3.814
  Name = 
  12 active torsions:
  status: ('A' for Active; 'I' for Inactive)
    1  A    between atoms: N_1  and  N_34
    2  A    between atoms: N_1  and  C_35
    3  A    between atoms: C_2  and  N_6
    4  A    between atoms: C_2  and  C_13
    5  A    between atoms: S_3  and  C_4
    6  A    between atoms: S_3  and  C_12
    7  A    between atoms: C_4  and  C_15
    8  A    between atoms: C_4  and  O_22
    9  A    between atoms: C_11  and  C_14
   10  A    between atoms: C_14  and  O_22
   11  A    between atoms: C_15  and  C_42
   12  A    between atoms: C_19  and  O_25
                            x       y       z     vdW  Elec       q    Type
                         _______ _______ _______ _____ _____    ______ ____

>  <TORSDO>
F 12

$$$$
=
 OpenBabel11062410153D

 43 47  0  0  1  0  0  0  0  0999 V2000
  160.3910  207.6630  155.5400 C   0  0  2  0  0  3  0  0  0  0  0  0
  161.4810  207.0030  150.6350 C   0  0  2  0  0  3  0  0  0  0  0  0
  162.0410  209.5140  149.5620 C   0  0  2  0  0  3  0  0  0  0  0  0
  161.5260  206.4700  153.5590 C   0  0  1  0  0  3  0  0  0  0  0  0
  159.6360  208.5920  154.5760 C   0  0  0  0  0  2  0  0  0  0  0  0
  161.5390  208.2980  156.0160 O   0  0  0  0  0  1  0  0  0  0  0  0
  161.5210  207.9170  153.0210 C   0  0  2  0  0  3  0  0  0  0  0  0
  160.7600  206.3270  154.8850 C   0  0  0  0  0  2  0  0  0  0  0  0
  160.1170  208.5170  153.1190 C   0  0  0  0  0  2  0  0  0  0  0  0
  162.1060  209.4440  151.0890 C   0  0  0  0  0  2  0  0  0  0  0  0
  162.1290  208.0050  151.6130 C   0  0  2  0  0  3  0  0  0  0  0  0
  161.6170  205.5940  151.2020 C   0  0  0  0  0  2  0  0  0  0  0  0
  162.0660  207.0430  149.2790 N   0  0  0  0  0  0  0  0  0  0  0  0
  162.7420  208.3070  148.9440 C   0  0  0  0  0  2  0  0  0  0  0  0
  160.9170  205.4940  152.5510 C   0  0  0  0  0  2  0  0  0  0  0  0
  162.6380  210.8150  149.0400 C   0  0  2  0  0  3  0  0  0  0  0  0
  162.0900  211.9030  149.7010 F   0  0  0  0  0  0  0  0  0  0  0  0
  162.3910  210.9280  147.6110 N   0  0  0  0  0  2  0  0  0  0  0  0
  162.0110  212.1520  146.9820 C   0  0  0  0  0  0  0  0  0  0  0  0
  161.9570  213.2240  147.6410 O   0  0  0  0  0  0  0  0  0  0  0  0
  161.6100  212.1570  145.2370 S   0  0  0  0  0  0  0  0  0  0  0  0
  161.6180  213.9790  145.0620 C   0  0  1  0  0  3  0  0  0  0  0  0
  162.5300  214.4530  143.9340 C   0  0  0  0  0  2  0  0  0  0  0  0
  161.6170  214.0140  141.6600 C   0  0  0  0  0  1  0  0  0  0  0  0
  162.5090  213.4850  142.7650 C   0  0  0  0  0  2  0  0  0  0  0  0
  160.3190  214.4470  144.8520 O   0  0  0  0  0  0  0  0  0  0  0  0
  159.5050  213.3140  144.9560 C   0  0  2  0  0  3  0  0  0  0  0  0
  158.9260  213.0350  143.7160 O   0  0  0  0  0  1  0  0  0  0  0  0
  158.4420  213.5360  145.9810 C   0  0  0  0  0  0  0  0  0  0  0  0
  156.1140  213.9380  146.5170 C   0  0  0  0  0  3  0  0  0  0  0  0
  157.7450  213.7410  148.2960 C   0  0  0  0  0  3  0  0  0  0  0  0
  156.4250  213.9410  147.8790 C   0  0  0  0  0  3  0  0  0  0  0  0
  158.7530  213.5380  147.3480 C   0  0  0  0  0  3  0  0  0  0  0  0
  157.1210  213.7350  145.5690 C   0  0  0  0  0  3  0  0  0  0  0  0
  161.0090  206.8930  148.3660 N   0  0  0  0  0  2  0  0  0  0  0  0
  160.6310  204.8570  145.2520 C   0  0  0  0  0  3  0  0  0  0  0  0
  160.7480  203.5560  145.7680 C   0  0  0  0  0  0  0  0  0  0  0  0
  161.0340  204.4820  147.9920 C   0  0  0  0  0  3  0  0  0  0  0  0
  160.7170  205.9620  146.1040 C   0  0  0  0  0  3  0  0  0  0  0  0
  160.9230  205.7770  147.4780 C   0  0  0  0  0  0  0  0  0  0  0  0
  160.9490  203.3770  147.1410 C   0  0  0  0  0  3  0  0  0  0  0  0
  160.6700  202.4310  144.9430 O   0  0  0  0  0  0  0  0  0  0  0  0
  159.6930  201.4150  145.1210 C   0  0  0  0  0  1  0  0  0  0  0  0
  1  6  1  6  0  0  0
  2 12  1  1  0  0  0
  2 11  1  0  0  0  0
  3 16  1  6  0  0  0
  3 10  1  0  0  0  0
  4 15  1  6  0  0  0
  4  8  1  0  0  0  0
  5  1  1  0  0  0  0
  7  9  1  6  0  0  0
  7  4  1  0  0  0  0
  8  1  1  0  0  0  0
  9  5  1  0  0  0  0
 11 10  1  6  0  0  0
 11  7  1  0  0  0  0
 12 15  1  0  0  0  0
 13  2  1  0  0  0  0
 14 13  1  0  0  0  0
 14  3  1  0  0  0  0
 16 17  1  1  0  0  0
 18 16  1  0  0  0  0
 19 18  1  0  0  0  0
 19 20  2  0  0  0  0
 21 19  1  0  0  0  0
 22 23  1  6  0  0  0
 22 21  1  0  0  0  0
 24 25  1  0  0  0  0
 25 23  1  0  0  0  0
 26 27  1  0  0  0  0
 26 22  1  0  0  0  0
 27 28  1  6  0  0  0
 27 29  1  0  0  0  0
 29 33  1  0  0  0  0
 30 32  2  0  0  0  0
 32 31  1  0  0  0  0
 33 31  2  0  0  0  0
 34 29  2  0  0  0  0
 34 30  1  0  0  0  0
 35 13  1  0  0  0  0
 36 37  2  0  0  0  0
 36 39  1  0  0  0  0
 37 41  1  0  0  0  0
 39 40  2  0  0  0  0
 40 38  1  0  0  0  0
 40 35  1  0  0  0  0
 41 38  2  0  0  0  0
 42 43  1  0  0  0  0
 42 37  1  0  0  0  0
M  END
>  <MODEL>
6

>  <REMARK>
 VINA RESULT:      -3.2      3.393      7.427
  Name = 
  12 active torsions:
  status: ('A' for Active; 'I' for Inactive)
    1  A    between atoms: N_1  and  N_34
    2  A    between atoms: N_1  and  C_35
    3  A    between atoms: C_2  and  N_6
    4  A    between atoms: C_2  and  C_13
    5  A    between atoms: S_3  and  C_4
    6  A    between atoms: S_3  and  C_12
    7  A    between atoms: C_4  and  C_15
    8  A    between atoms: C_4  and  O_22
    9  A    between atoms: C_11  and  C_14
   10  A    between atoms: C_14  and  O_22
   11  A    between atoms: C_15  and  C_42
   12  A    between atoms: C_19  and  O_25
                            x       y       z     vdW  Elec       q    Type
                         _______ _______ _______ _____ _____    ______ ____

>  <TORSDO>
F 12

$$$$
=
 OpenBabel11062410153D

 43 47  0  0  1  0  0  0  0  0999 V2000
  162.3210  212.4260  147.0250 C   0  0  2  0  0  3  0  0  0  0  0  0
  159.6420  213.0430  151.2820 C   0  0  2  0  0  3  0  0  0  0  0  0
  160.0800  210.7970  152.8740 C   0  0  2  0  0  3  0  0  0  0  0  0
  161.4380  213.7800  149.0310 C   0  0  1  0  0  3  0  0  0  0  0  0
  161.4470  211.2260  147.4220 C   0  0  0  0  0  2  0  0  0  0  0  0
  163.6170  212.2560  147.5130 O   0  0  0  0  0  1  0  0  0  0  0  0
  161.5170  212.3800  149.6780 C   0  0  2  0  0  3  0  0  0  0  0  0
  161.7400  213.7540  147.5230 C   0  0  0  0  0  2  0  0  0  0  0  0
  160.7960  211.3490  148.8080 C   0  0  0  0  0  2  0  0  0  0  0  0
  161.1100  211.0000  151.7600 C   0  0  0  0  0  2  0  0  0  0  0  0
  161.0360  212.3970  151.1370 C   0  0  2  0  0  3  0  0  0  0  0  0
  159.6830  214.4530  150.7040 C   0  0  0  0  0  2  0  0  0  0  0  0
  159.1650  213.1010  152.6790 N   0  0  0  0  0  0  0  0  0  0  0  0
  159.7910  212.1200  153.5790 C   0  0  0  0  0  2  0  0  0  0  0  0
  160.0600  214.4120  149.2290 C   0  0  0  0  0  2  0  0  0  0  0  0
  160.5410  209.7390  153.8700 C   0  0  2  0  0  3  0  0  0  0  0  0
  161.6000  210.2130  154.6280 F   0  0  0  0  0  0  0  0  0  0  0  0
  160.9420  208.5370  153.1560 N   0  0  0  0  0  2  0  0  0  0  0  0
  161.2920  207.3210  153.8170 C   0  0  0  0  0  0  0  0  0  0  0  0
  161.1840  207.2140  155.0680 O   0  0  0  0  0  0  0  0  0  0  0  0
  161.8900  205.9360  152.8520 S   0  0  0  0  0  0  0  0  0  0  0  0
  161.0530  206.4320  151.3010 C   0  0  1  0  0  3  0  0  0  0  0  0
  161.4550  207.8300  150.8420 C   0  0  0  0  0  2  0  0  0  0  0  0
  162.0930  207.4560  148.4640 C   0  0  0  0  0  1  0  0  0  0  0  0
  162.6070  207.7750  149.8540 C   0  0  0  0  0  2  0  0  0  0  0  0
  161.3220  205.5030  150.2930 O   0  0  0  0  0  0  0  0  0  0  0  0
  160.4270  204.4540  150.5180 C   0  0  2  0  0  3  0  0  0  0  0  0
  160.5390  204.0130  151.8390 O   0  0  0  0  0  1  0  0  0  0  0  0
  160.7060  203.3290  149.5760 C   0  0  0  0  0  0  0  0  0  0  0  0
  161.7890  202.5080  147.5700 C   0  0  0  0  0  3  0  0  0  0  0  0
  160.4470  201.0080  148.9160 C   0  0  0  0  0  3  0  0  0  0  0  0
  161.2560  201.2370  147.7980 C   0  0  0  0  0  3  0  0  0  0  0  0
  160.1720  202.0520  149.8040 C   0  0  0  0  0  3  0  0  0  0  0  0
  161.5150  203.5530  148.4580 C   0  0  0  0  0  3  0  0  0  0  0  0
  157.7900  212.8140  152.6600 N   0  0  0  0  0  2  0  0  0  0  0  0
  156.1810  212.6760  156.0340 C   0  0  0  0  0  3  0  0  0  0  0  0
  155.2320  213.7050  155.9200 C   0  0  0  0  0  0  0  0  0  0  0  0
  155.9880  214.1260  153.6530 C   0  0  0  0  0  3  0  0  0  0  0  0
  157.0280  212.3770  154.9620 C   0  0  0  0  0  3  0  0  0  0  0  0
  156.9360  213.1060  153.7680 C   0  0  0  0  0  0  0  0  0  0  0  0
  155.1410  214.4250  154.7240 C   0  0  0  0  0  3  0  0  0  0  0  0
  154.3730  214.0290  156.9730 O   0  0  0  0  0  0  0  0  0  0  0  0
  152.9640  213.8650  156.8920 C   0  0  0  0  0  1  0  0  0  0  0  0
  1  5  1  0  0  0  0
  1  6  1  1  0  0  0
  1  8  1  0  0  0  0
  2 12  1  1  0  0  0
  2 13  1  0  0  0  0
  3 14  1  0  0  0  0
  3 16  1  1  0  0  0
  4  8  1  6  0  0  0
  4 15  1  0  0  0  0
  4  7  1  0  0  0  0
  5  9  1  0  0  0  0
  7  9  1  6  0  0  0
  7 11  1  0  0  0  0
 10  3  1  0  0  0  0
 11  2  1  0  0  0  0
 11 10  1  6  0  0  0
 13 14  1  0  0  0  0
 15 12  1  0  0  0  0
 16 17  1  6  0  0  0
 18 19  1  0  0  0  0
 18 16  1  0  0  0  0
 19 20  2  0  0  0  0
 21 19  1  0  0  0  0
 22 23  1  6  0  0  0
 22 21  1  0  0  0  0
 24 25  1  0  0  0  0
 25 23  1  0  0  0  0
 26 27  1  0  0  0  0
 26 22  1  0  0  0  0
 27 28  1  1  0  0  0
 29 33  1  0  0  0  0
 29 27  1  0  0  0  0
 30 32  2  0  0  0  0
 30 34  1  0  0  0  0
 31 33  2  0  0  0  0
 32 31  1  0  0  0  0
 34 29  2  0  0  0  0
 35 13  1  0  0  0  0
 35 40  1  0  0  0  0
 37 36  1  0  0  0  0
 37 42  1  0  0  0  0
 38 40  2  0  0  0  0
 38 41  1  0  0  0  0
 39 36  2  0  0  0  0
 40 39  1  0  0  0  0
 41 37  2  0  0  0  0
 43 42  1  0  0  0  0
M  END
>  <MODEL>
7

>  <REMARK>
 VINA RESULT:      -3.2      2.635      8.786
  Name = 
  12 active torsions:
  status: ('A' for Active; 'I' for Inactive)
    1  A    between atoms: N_1  and  N_34
    2  A    between atoms: N_1  and  C_35
    3  A    between atoms: C_2  and  N_6
    4  A    between atoms: C_2  and  C_13
    5  A    between atoms: S_3  and  C_4
    6  A    between atoms: S_3  and  C_12
    7  A    between atoms: C_4  and  C_15
    8  A    between atoms: C_4  and  O_22
    9  A    between atoms: C_11  and  C_14
   10  A    between atoms: C_14  and  O_22
   11  A    between atoms: C_15  and  C_42
   12  A    between atoms: C_19  and  O_25
                            x       y       z     vdW  Elec       q    Type
                         _______ _______ _______ _____ _____    ______ ____

>  <TORSDO>
F 12

$$$$
=
 OpenBabel11062410153D

 43 47  0  0  1  0  0  0  0  0999 V2000
  160.6780  202.2950  148.7150 C   0  0  2  0  0  3  0  0  0  0  0  0
  161.7250  207.2360  149.1240 C   0  0  2  0  0  3  0  0  0  0  0  0
  161.3000  207.9600  151.7820 C   0  0  2  0  0  3  0  0  0  0  0  0
  162.0820  204.4090  148.2760 C   0  0  1  0  0  3  0  0  0  0  0  0
  159.6000  203.1310  149.4220 C   0  0  0  0  0  2  0  0  0  0  0  0
  161.5390  201.7310  149.6560 O   0  0  0  0  0  1  0  0  0  0  0  0
  161.5350  204.7490  149.6790 C   0  0  2  0  0  3  0  0  0  0  0  0
  161.4740  203.1200  147.6980 C   0  0  0  0  0  2  0  0  0  0  0  0
  160.0140  204.5820  149.7130 C   0  0  0  0  0  2  0  0  0  0  0  0
  161.4500  206.4550  151.5470 C   0  0  0  0  0  2  0  0  0  0  0  0
  162.0110  206.1280  150.1600 C   0  0  2  0  0  3  0  0  0  0  0  0
  162.3820  206.8620  147.8000 C   0  0  0  0  0  2  0  0  0  0  0  0
  162.2000  208.5710  149.5450 N   0  0  0  0  0  0  0  0  0  0  0  0
  162.3620  208.7290  151.0000 C   0  0  0  0  0  2  0  0  0  0  0  0
  161.8230  205.5440  147.2830 C   0  0  0  0  0  2  0  0  0  0  0  0
  161.3670  208.2990  153.2670 C   0  0  2  0  0  3  0  0  0  0  0  0
  160.6630  207.3660  154.0120 F   0  0  0  0  0  0  0  0  0  0  0  0
  160.8200  209.6280  153.4900 N   0  0  0  0  0  2  0  0  0  0  0  0
  161.5720  210.6880  154.0810 C   0  0  0  0  0  0  0  0  0  0  0  0
  162.7900  210.5360  154.3590 O   0  0  0  0  0  0  0  0  0  0  0  0
  160.7660  212.2500  154.4250 S   0  0  0  0  0  0  0  0  0  0  0  0
  159.4940  211.5470  155.5380 C   0  0  1  0  0  3  0  0  0  0  0  0
  160.0480  211.2100  156.9190 C   0  0  0  0  0  2  0  0  0  0  0  0
  159.5860  208.7630  156.9420 C   0  0  0  0  0  1  0  0  0  0  0  0
  160.6680  209.8240  156.9410 C   0  0  0  0  0  2  0  0  0  0  0  0
  158.4200  212.4330  155.6590 O   0  0  0  0  0  0  0  0  0  0  0  0
  157.4130  211.8950  154.8540 C   0  0  2  0  0  3  0  0  0  0  0  0
  157.7030  210.5590  154.5660 O   0  0  0  0  0  1  0  0  0  0  0  0
  157.2910  212.6780  153.5880 C   0  0  0  0  0  0  0  0  0  0  0  0
  158.0710  213.1460  151.3420 C   0  0  0  0  0  3  0  0  0  0  0  0
  156.1930  214.3780  152.2490 C   0  0  0  0  0  3  0  0  0  0  0  0
  157.0810  214.1220  151.1990 C   0  0  0  0  0  3  0  0  0  0  0  0
  156.2970  213.6570  153.4420 C   0  0  0  0  0  3  0  0  0  0  0  0
  158.1750  212.4240  152.5350 C   0  0  0  0  0  3  0  0  0  0  0  0
  161.2300  209.5030  149.1410 N   0  0  0  0  0  2  0  0  0  0  0  0
  163.1310  212.4980  147.9590 C   0  0  0  0  0  3  0  0  0  0  0  0
  162.2020  213.0750  147.0790 C   0  0  0  0  0  0  0  0  0  0  0  0
  160.6450  211.2820  147.5770 C   0  0  0  0  0  3  0  0  0  0  0  0
  162.8170  211.3200  148.6420 C   0  0  0  0  0  3  0  0  0  0  0  0
  161.5720  210.7050  148.4500 C   0  0  0  0  0  0  0  0  0  0  0  0
  160.9590  212.4600  146.8940 C   0  0  0  0  0  3  0  0  0  0  0  0
  162.4860  214.2510  146.3790 O   0  0  0  0  0  0  0  0  0  0  0  0
  162.1010  214.4500  145.0260 C   0  0  0  0  0  1  0  0  0  0  0  0
  1  5  1  0  0  0  0
  1  6  1  1  0  0  0
  2 12  1  6  0  0  0
  2 13  1  0  0  0  0
  2 11  1  0  0  0  0
  3 16  1  1  0  0  0
  4 15  1  6  0  0  0
  4  7  1  0  0  0  0
  5  9  1  0  0  0  0
  7  9  1  6  0  0  0
  7 11  1  0  0  0  0
  8  4  1  0  0  0  0
  8  1  1  0  0  0  0
 10  3  1  0  0  0  0
 11 10  1  1  0  0  0
 13 14  1  0  0  0  0
 14  3  1  0  0  0  0
 15 12  1  0  0  0  0
 16 18  1  0  0  0  0
 16 17  1  1  0  0  0
 18 19  1  0  0  0  0
 19 20  2  0  0  0  0
 19 21  1  0  0  0  0
 21 22  1  0  0  0  0
 22 26  1  0  0  0  0
 22 23  1  1  0  0  0
 23 25  1  0  0  0  0
 25 24  1  0  0  0  0
 27 28  1  6  0  0  0
 27 26  1  0  0  0  0
 29 27  1  0  0  0  0
 30 34  1  0  0  0  0
 31 33  2  0  0  0  0
 32 30  2  0  0  0  0
 32 31  1  0  0  0  0
 33 29  1  0  0  0  0
 34 29  2  0  0  0  0
 35 13  1  0  0  0  0
 36 39  1  0  0  0  0
 37 36  2  0  0  0  0
 38 40  1  0  0  0  0
 40 39  2  0  0  0  0
 40 35  1  0  0  0  0
 41 37  1  0  0  0  0
 41 38  2  0  0  0  0
 42 37  1  0  0  0  0
 43 42  1  0  0  0  0
M  END
>  <MODEL>
8

>  <REMARK>
 VINA RESULT:      -2.9      1.524      2.447
  Name = 
  12 active torsions:
  status: ('A' for Active; 'I' for Inactive)
    1  A    between atoms: N_1  and  N_34
    2  A    between atoms: N_1  and  C_35
    3  A    between atoms: C_2  and  N_6
    4  A    between atoms: C_2  and  C_13
    5  A    between atoms: S_3  and  C_4
    6  A    between atoms: S_3  and  C_12
    7  A    between atoms: C_4  and  C_15
    8  A    between atoms: C_4  and  O_22
    9  A    between atoms: C_11  and  C_14
   10  A    between atoms: C_14  and  O_22
   11  A    between atoms: C_15  and  C_42
   12  A    between atoms: C_19  and  O_25
                            x       y       z     vdW  Elec       q    Type
                         _______ _______ _______ _____ _____    ______ ____

>  <TORSDO>
F 12

$$$$
=
 OpenBabel11062410153D

 43 47  0  0  1  0  0  0  0  0999 V2000
  162.6390  212.1800  148.7060 C   0  0  2  0  0  3  0  0  0  0  0  0
  161.3460  207.6760  150.6340 C   0  0  2  0  0  3  0  0  0  0  0  0
  161.4380  207.9020  153.4110 C   0  0  2  0  0  3  0  0  0  0  0  0
  161.2060  210.0440  148.8420 C   0  0  1  0  0  3  0  0  0  0  0  0
  163.5930  211.6350  149.7790 C   0  0  0  0  0  2  0  0  0  0  0  0
  161.7000  213.0320  149.2890 O   0  0  0  0  0  1  0  0  0  0  0  0
  161.5760  210.2020  150.3330 C   0  0  2  0  0  3  0  0  0  0  0  0
  161.9290  211.0580  147.9400 C   0  0  0  0  0  2  0  0  0  0  0  0
  163.0890  210.3700  150.4910 C   0  0  0  0  0  2  0  0  0  0  0  0
  161.3780  209.2360  152.6640 C   0  0  0  0  0  2  0  0  0  0  0  0
  160.9920  209.0700  151.1910 C   0  0  2  0  0  3  0  0  0  0  0  0
  160.8590  207.5760  149.1930 C   0  0  0  0  0  2  0  0  0  0  0  0
  160.7720  206.5650  151.4220 N   0  0  0  0  0  0  0  0  0  0  0  0
  160.4400  206.9120  152.8130 C   0  0  0  0  0  2  0  0  0  0  0  0
  161.5290  208.6390  148.3310 C   0  0  0  0  0  2  0  0  0  0  0  0
  161.1880  208.0900  154.9030 C   0  0  2  0  0  3  0  0  0  0  0  0
  160.1520  207.2740  155.3300 F   0  0  0  0  0  0  0  0  0  0  0  0
  160.8670  209.4820  155.1730 N   0  0  0  0  0  2  0  0  0  0  0  0
  161.5100  210.2440  156.1960 C   0  0  0  0  0  0  0  0  0  0  0  0
  162.4600  209.7540  156.8610 O   0  0  0  0  0  0  0  0  0  0  0  0
  160.9540  211.9130  156.5290 S   0  0  0  0  0  0  0  0  0  0  0  0
  159.3650  211.7480  155.6350 C   0  0  1  0  0  3  0  0  0  0  0  0
  158.1680  211.6860  156.5780 C   0  0  0  0  0  2  0  0  0  0  0  0
  155.9590  211.3460  155.4800 C   0  0  0  0  0  1  0  0  0  0  0  0
  157.1520  210.6580  156.1130 C   0  0  0  0  0  2  0  0  0  0  0  0
  159.2080  212.8070  154.7360 O   0  0  0  0  0  0  0  0  0  0  0  0
  159.1700  212.2090  153.4740 C   0  0  2  0  0  3  0  0  0  0  0  0
  160.4590  212.1550  152.9380 O   0  0  0  0  0  1  0  0  0  0  0  0
  158.2690  212.9790  152.5660 C   0  0  0  0  0  0  0  0  0  0  0  0
  156.2920  214.3460  152.2580 C   0  0  0  0  0  3  0  0  0  0  0  0
  157.6920  213.8040  150.3580 C   0  0  0  0  0  3  0  0  0  0  0  0
  156.5660  214.4400  150.8910 C   0  0  0  0  0  3  0  0  0  0  0  0
  158.5430  213.0750  151.1940 C   0  0  0  0  0  3  0  0  0  0  0  0
  157.1430  213.6170  153.0950 C   0  0  0  0  0  3  0  0  0  0  0  0
  161.7410  205.5500  151.4770 N   0  0  0  0  0  2  0  0  0  0  0  0
  161.3670  201.8590  151.0090 C   0  0  0  0  0  3  0  0  0  0  0  0
  161.1600  201.7850  149.6230 C   0  0  0  0  0  0  0  0  0  0  0  0
  161.3420  204.2010  149.4840 C   0  0  0  0  0  3  0  0  0  0  0  0
  161.5590  203.0980  151.6270 C   0  0  0  0  0  3  0  0  0  0  0  0
  161.5430  204.2740  150.8650 C   0  0  0  0  0  0  0  0  0  0  0  0
  161.1500  202.9620  148.8660 C   0  0  0  0  0  3  0  0  0  0  0  0
  160.9620  200.5620  148.9750 O   0  0  0  0  0  0  0  0  0  0  0  0
  161.5730  200.2450  147.7320 C   0  0  0  0  0  1  0  0  0  0  0  0
  1  6  1  1  0  0  0
  1  5  1  0  0  0  0
  2 12  1  6  0  0  0
  2 11  1  0  0  0  0
  2 13  1  0  0  0  0
  3 16  1  1  0  0  0
  4  8  1  6  0  0  0
  4  7  1  0  0  0  0
  5  9  1  0  0  0  0
  7  9  1  6  0  0  0
  7 11  1  0  0  0  0
  8  1  1  0  0  0  0
 10  3  1  0  0  0  0
 11 10  1  1  0  0  0
 13 35  1  0  0  0  0
 13 14  1  0  0  0  0
 14  3  1  0  0  0  0
 15  4  1  0  0  0  0
 15 12  1  0  0  0  0
 16 18  1  0  0  0  0
 16 17  1  6  0  0  0
 18 19  1  0  0  0  0
 19 21  1  0  0  0  0
 19 20  2  0  0  0  0
 22 21  1  0  0  0  0
 22 23  1  1  0  0  0
 24 25  1  0  0  0  0
 25 23  1  0  0  0  0
 26 22  1  0  0  0  0
 27 28  1  6  0  0  0
 27 26  1  0  0  0  0
 29 34  1  0  0  0  0
 29 27  1  0  0  0  0
 30 34  2  0  0  0  0
 31 32  2  0  0  0  0
 31 33  1  0  0  0  0
 32 30  1  0  0  0  0
 33 29  2  0  0  0  0
 36 39  1  0  0  0  0
 37 36  2  0  0  0  0
 38 40  1  0  0  0  0
 40 35  1  0  0  0  0
 40 39  2  0  0  0  0
 41 38  2  0  0  0  0
 41 37  1  0  0  0  0
 42 37  1  0  0  0  0
 43 42  1  0  0  0  0
M  END
>  <MODEL>
9

>  <REMARK>
 VINA RESULT:      -2.5      2.036      5.930
  Name = 
  12 active torsions:
  status: ('A' for Active; 'I' for Inactive)
    1  A    between atoms: N_1  and  N_34
    2  A    between atoms: N_1  and  C_35
    3  A    between atoms: C_2  and  N_6
    4  A    between atoms: C_2  and  C_13
    5  A    between atoms: S_3  and  C_4
    6  A    between atoms: S_3  and  C_12
    7  A    between atoms: C_4  and  C_15
    8  A    between atoms: C_4  and  O_22
    9  A    between atoms: C_11  and  C_14
   10  A    between atoms: C_14  and  O_22
   11  A    between atoms: C_15  and  C_42
   12  A    between atoms: C_19  and  O_25
                            x       y       z     vdW  Elec       q    Type
                         _______ _______ _______ _____ _____    ______ ____

>  <TORSDO>
F 12

$$$$
