=
 OpenBabel11052422103D

 25 28  0  0  1  0  0  0  0  0999 V2000
  161.9300  207.2520  152.0310 C   0  0  1  0  0  3  0  0  0  0  0  0
  160.9660  206.3960  151.2070 C   0  0  2  0  0  3  0  0  0  0  0  0
  162.2420  208.8560  148.6540 C   0  0  0  0  0  1  0  0  0  0  0  0
  161.8860  208.0130  149.8300 C   0  0  0  0  0  0  0  0  0  0  0  0
  160.4660  206.1910  148.6740 C   0  0  1  0  0  3  0  0  0  0  0  0
  160.8510  206.6850  147.2900 C   0  0  0  0  0  1  0  0  0  0  0  0
  161.3620  204.9240  151.2300 C   0  0  0  0  0  2  0  0  0  0  0  0
  162.3830  208.3000  151.1250 N   0  0  0  0  0  2  0  0  0  0  0  0
  160.7960  204.7000  148.7770 C   0  0  0  0  0  2  0  0  0  0  0  0
  160.5370  204.1500  150.1940 C   0  0  1  0  0  3  0  0  0  0  0  0
  161.1210  206.9260  149.8220 C   0  0  0  0  0  0  0  0  0  0  0  0
  161.2470  207.8380  153.2290 C   0  0  0  0  0  0  0  0  0  0  0  0
  159.9380  208.9110  155.4650 C   0  0  0  0  0  3  0  0  0  0  0  0
  160.9100  207.0130  154.3140 C   0  0  0  0  0  0  0  0  0  0  0  0
  160.2590  207.5520  155.4280 C   0  0  0  0  0  3  0  0  0  0  0  0
  160.2660  209.7370  154.3860 C   0  0  0  0  0  3  0  0  0  0  0  0
  161.2090  205.6910  154.2940 F   0  0  0  0  0  0  0  0  0  0  0  0
  160.9170  209.2020  153.2710 C   0  0  0  0  0  3  0  0  0  0  0  0
  160.7860  202.6390  150.3280 C   0  0  1  0  0  0  0  0  0  0  0  0
  162.0030  202.1370  151.0040 C   0  0  0  0  0  2  0  0  0  0  0  0
  160.7550  202.2020  151.6640 O   0  0  0  0  0  0  0  0  0  0  0  0
  160.0680  201.6660  149.4050 C   0  0  0  0  0  2  0  0  0  0  0  0
  161.6500  200.2520  148.3220 O   0  0  0  0  0  1  0  0  0  0  0  0
  160.9360  202.0560  147.1000 O   0  0  0  0  0  0  0  0  0  0  0  0
  160.9380  201.2880  148.2570 C   0  0  0  0  0  0  0  0  0  0  0  0
  1 12  1  1  0  0  0
  2  7  1  6  0  0  0
  2  1  1  0  0  0  0
  3  4  1  0  0  0  0
  4  8  1  0  0  0  0
  5  6  1  6  0  0  0
  5  9  1  0  0  0  0
  5 11  1  0  0  0  0
  8  1  1  0  0  0  0
 10  9  1  6  0  0  0
 10 19  1  0  0  0  0
 10  7  1  0  0  0  0
 11  4  2  0  0  0  0
 11  2  1  0  0  0  0
 12 18  2  0  0  0  0
 12 14  1  0  0  0  0
 14 15  2  0  0  0  0
 15 13  1  0  0  0  0
 16 13  2  0  0  0  0
 17 14  1  0  0  0  0
 18 16  1  0  0  0  0
 19 22  1  6  0  0  0
 19 20  1  0  0  0  0
 19 21  1  0  0  0  0
 20 21  1  0  0  0  0
 24 25  2  0  0  0  0
 25 23  1  0  0  0  0
 25 22  1  0  0  0  0
M  END
>  <MODEL>
1

>  <REMARK>
 VINA RESULT:      -9.2      0.000      0.000
  Name = 
  4 active torsions:
  status: ('A' for Active; 'I' for Inactive)
    1  A    between atoms: C_1  and  C_5
    2  A    between atoms: C_2  and  C_6
    3  A    between atoms: C_2  and  C_21
    4  A    between atoms: C_6  and  C_23
                            x       y       z     vdW  Elec       q    Type
                         _______ _______ _______ _____ _____    ______ ____

>  <TORSDO>
F 4

$$$$
=
 OpenBabel11052422103D

 25 28  0  0  1  0  0  0  0  0999 V2000
  160.3080  205.5930  150.4110 C   0  0  1  0  0  3  0  0  0  0  0  0
  161.2470  206.3700  151.3370 C   0  0  2  0  0  3  0  0  0  0  0  0
  161.4320  208.3620  148.1430 C   0  0  0  0  0  1  0  0  0  0  0  0
  161.2020  207.4190  149.2730 C   0  0  0  0  0  0  0  0  0  0  0  0
  162.4340  208.6660  151.1690 C   0  0  1  0  0  3  0  0  0  0  0  0
  162.6200  209.9070  150.3140 C   0  0  0  0  0  1  0  0  0  0  0  0
  160.5270  206.8530  152.5900 C   0  0  0  0  0  2  0  0  0  0  0  0
  160.4150  206.2510  149.1150 N   0  0  0  0  0  0  0  0  0  0  0  0
  161.7460  209.0640  152.4780 C   0  0  0  0  0  2  0  0  0  0  0  0
  161.4220  207.8370  153.3540 C   0  0  1  0  0  3  0  0  0  0  0  0
  161.6530  207.5470  150.5170 C   0  0  1  0  0  3  0  0  0  0  0  0
  160.7100  204.1530  150.3160 C   0  0  0  0  0  0  0  0  0  0  0  0
  161.4930  201.4650  150.1560 C   0  0  0  0  0  3  0  0  0  0  0  0
  160.8900  203.3990  151.4860 C   0  0  0  0  0  0  0  0  0  0  0  0
  161.2800  202.0580  151.4030 C   0  0  0  0  0  3  0  0  0  0  0  0
  161.3200  202.2110  148.9870 C   0  0  0  0  0  3  0  0  0  0  0  0
  160.6920  203.9590  152.7050 F   0  0  0  0  0  0  0  0  0  0  0  0
  160.9310  203.5510  149.0670 C   0  0  0  0  0  3  0  0  0  0  0  0
  160.7940  208.1940  154.7110 C   0  0  1  0  0  0  0  0  0  0  0  0
  160.3800  207.1260  155.6490 C   0  0  0  0  0  2  0  0  0  0  0  0
  161.6030  207.8180  155.7970 O   0  0  0  0  0  0  0  0  0  0  0  0
  160.1750  209.5670  154.9240 C   0  0  0  0  0  2  0  0  0  0  0  0
  162.0580  210.9650  155.3390 O   0  0  0  0  0  0  0  0  0  0  0  0
  160.6880  210.5930  157.1380 O   0  0  0  0  0  1  0  0  0  0  0  0
  161.0350  210.4030  155.8070 C   0  0  0  0  0  0  0  0  0  0  0  0
  1 12  1  6  0  0  0
  1  2  1  0  0  0  0
  2  7  1  1  0  0  0
  3  4  1  0  0  0  0
  5  6  1  6  0  0  0
  5  9  1  0  0  0  0
  7 10  1  0  0  0  0
  8  4  2  0  0  0  0
  8  1  1  0  0  0  0
 10  9  1  6  0  0  0
 10 19  1  0  0  0  0
 11  4  1  1  0  0  0
 11  5  1  0  0  0  0
 11  2  1  0  0  0  0
 12 14  1  0  0  0  0
 13 15  1  0  0  0  0
 14 17  1  0  0  0  0
 15 14  2  0  0  0  0
 16 18  1  0  0  0  0
 16 13  2  0  0  0  0
 18 12  2  0  0  0  0
 19 22  1  1  0  0  0
 19 20  1  0  0  0  0
 19 21  1  0  0  0  0
 20 21  1  0  0  0  0
 22 25  1  0  0  0  0
 23 25  2  0  0  0  0
 25 24  1  0  0  0  0
M  END
>  <MODEL>
2

>  <REMARK>
 VINA RESULT:      -7.6      3.543      6.828
  Name = 
  4 active torsions:
  status: ('A' for Active; 'I' for Inactive)
    1  A    between atoms: C_1  and  C_5
    2  A    between atoms: C_2  and  C_6
    3  A    between atoms: C_2  and  C_21
    4  A    between atoms: C_6  and  C_23
                            x       y       z     vdW  Elec       q    Type
                         _______ _______ _______ _____ _____    ______ ____

>  <TORSDO>
F 4

$$$$
=
 OpenBabel11052422103D

 25 28  0  0  1  0  0  0  0  0999 V2000
  161.9910  204.0160  147.8720 C   0  0  1  0  0  3  0  0  0  0  0  0
  161.0940  204.6400  148.9430 C   0  0  2  0  0  3  0  0  0  0  0  0
  161.2010  201.0210  149.9860 C   0  0  0  0  0  1  0  0  0  0  0  0
  161.3060  202.3760  149.3760 C   0  0  0  0  0  0  0  0  0  0  0  0
  160.1250  203.7870  151.1880 C   0  0  1  0  0  3  0  0  0  0  0  0
  160.0820  202.6170  152.1570 C   0  0  0  0  0  1  0  0  0  0  0  0
  161.8100  205.7550  149.6960 C   0  0  0  0  0  2  0  0  0  0  0  0
  161.9890  202.5870  148.1530 N   0  0  0  0  0  0  0  0  0  0  0  0
  160.8010  204.9760  151.8770 C   0  0  0  0  0  2  0  0  0  0  0  0
  160.9820  206.1690  150.9180 C   0  0  1  0  0  3  0  0  0  0  0  0
  160.8250  203.5090  149.8770 C   0  0  1  0  0  3  0  0  0  0  0  0
  161.4640  204.2930  146.4960 C   0  0  0  0  0  0  0  0  0  0  0  0
  160.4560  204.8360  143.9360 C   0  0  0  0  0  3  0  0  0  0  0  0
  161.6570  205.5560  145.9140 C   0  0  0  0  0  0  0  0  0  0  0  0
  161.1540  205.8230  144.6370 C   0  0  0  0  0  3  0  0  0  0  0  0
  160.2560  203.5780  144.5110 C   0  0  0  0  0  3  0  0  0  0  0  0
  162.3280  206.5270  146.5810 F   0  0  0  0  0  0  0  0  0  0  0  0
  160.7580  203.3070  145.7880 C   0  0  0  0  0  3  0  0  0  0  0  0
  161.5920  207.4130  151.5850 C   0  0  1  0  0  0  0  0  0  0  0  0
  160.8530  208.1340  152.6450 C   0  0  0  0  0  2  0  0  0  0  0  0
  161.8800  207.2110  152.9460 O   0  0  0  0  0  0  0  0  0  0  0  0
  162.7040  208.1800  150.8860 C   0  0  0  0  0  2  0  0  0  0  0  0
  161.9560  210.3970  150.4340 O   0  0  0  0  0  1  0  0  0  0  0  0
  161.8540  208.9390  148.6680 O   0  0  0  0  0  0  0  0  0  0  0  0
  162.1410  209.2320  149.9940 C   0  0  0  0  0  0  0  0  0  0  0  0
  1 12  1  6  0  0  0
  1  8  1  0  0  0  0
  1  2  1  0  0  0  0
  2  7  1  1  0  0  0
  2 11  1  0  0  0  0
  4  3  1  0  0  0  0
  5  9  1  0  0  0  0
  5  6  1  1  0  0  0
  8  4  2  0  0  0  0
 10  7  1  6  0  0  0
 10 19  1  0  0  0  0
 10  9  1  0  0  0  0
 11  4  1  1  0  0  0
 11  5  1  0  0  0  0
 13 16  2  0  0  0  0
 13 15  1  0  0  0  0
 14 12  1  0  0  0  0
 14 17  1  0  0  0  0
 15 14  2  0  0  0  0
 16 18  1  0  0  0  0
 18 12  2  0  0  0  0
 19 22  1  6  0  0  0
 19 20  1  0  0  0  0
 19 21  1  0  0  0  0
 20 21  1  0  0  0  0
 24 25  2  0  0  0  0
 25 23  1  0  0  0  0
 25 22  1  0  0  0  0
M  END
>  <MODEL>
3

>  <REMARK>
 VINA RESULT:      -7.2      3.639      7.255
  Name = 
  4 active torsions:
  status: ('A' for Active; 'I' for Inactive)
    1  A    between atoms: C_1  and  C_5
    2  A    between atoms: C_2  and  C_6
    3  A    between atoms: C_2  and  C_21
    4  A    between atoms: C_6  and  C_23
                            x       y       z     vdW  Elec       q    Type
                         _______ _______ _______ _____ _____    ______ ____

>  <TORSDO>
F 4

$$$$
=
 OpenBabel11052422103D

 25 28  0  0  1  0  0  0  0  0999 V2000
  161.2690  209.7280  153.5210 C   0  0  1  0  0  3  0  0  0  0  0  0
  159.8930  210.3020  153.1750 C   0  0  2  0  0  3  0  0  0  0  0  0
  159.9050  210.4480  156.9400 C   0  0  0  0  0  1  0  0  0  0  0  0
  160.1340  210.2830  155.4770 C   0  0  0  0  0  0  0  0  0  0  0  0
  158.0530  211.5010  154.5500 C   0  0  1  0  0  3  0  0  0  0  0  0
  157.6800  212.0350  155.9210 C   0  0  0  0  0  1  0  0  0  0  0  0
  160.0050  211.5330  152.2840 C   0  0  0  0  0  2  0  0  0  0  0  0
  161.3000  209.6550  154.9760 N   0  0  0  0  0  2  0  0  0  0  0  0
  158.1530  212.6740  153.5710 C   0  0  0  0  0  2  0  0  0  0  0  0
  158.6390  212.2220  152.1790 C   0  0  1  0  0  3  0  0  0  0  0  0
  159.3360  210.7010  154.4990 C   0  0  0  0  0  0  0  0  0  0  0  0
  161.4590  208.3730  152.9110 C   0  0  0  0  0  0  0  0  0  0  0  0
  161.7910  205.8450  151.7440 C   0  0  0  0  0  3  0  0  0  0  0  0
  161.9700  208.2580  151.6080 C   0  0  0  0  0  0  0  0  0  0  0  0
  162.1350  206.9950  151.0300 C   0  0  0  0  0  3  0  0  0  0  0  0
  161.2780  205.9520  153.0390 C   0  0  0  0  0  3  0  0  0  0  0  0
  162.3050  209.3630  150.8990 F   0  0  0  0  0  0  0  0  0  0  0  0
  161.1110  207.2120  153.6210 C   0  0  0  0  0  3  0  0  0  0  0  0
  158.6860  213.3560  151.1410 C   0  0  1  0  0  0  0  0  0  0  0  0
  157.6050  213.5020  150.1410 C   0  0  0  0  0  2  0  0  0  0  0  0
  157.6510  214.2910  151.3130 O   0  0  0  0  0  0  0  0  0  0  0  0
  160.0080  214.0370  150.8220 C   0  0  0  0  0  2  0  0  0  0  0  0
  161.1220  212.5710  149.3100 O   0  0  0  0  0  1  0  0  0  0  0  0
  160.2100  214.4530  148.3720 O   0  0  0  0  0  0  0  0  0  0  0  0
  160.4900  213.6480  149.4670 C   0  0  0  0  0  0  0  0  0  0  0  0
  1 12  1  6  0  0  0
  1  8  1  0  0  0  0
  2  7  1  6  0  0  0
  2  1  1  0  0  0  0
  2 11  1  0  0  0  0
  4  3  1  0  0  0  0
  5  6  1  1  0  0  0
  8  4  1  0  0  0  0
  9  5  1  0  0  0  0
 10  7  1  1  0  0  0
 10  9  1  0  0  0  0
 11  5  1  0  0  0  0
 11  4  2  0  0  0  0
 12 18  1  0  0  0  0
 13 16  1  0  0  0  0
 14 12  2  0  0  0  0
 15 14  1  0  0  0  0
 15 13  2  0  0  0  0
 16 18  2  0  0  0  0
 17 14  1  0  0  0  0
 19 22  1  6  0  0  0
 19 21  1  0  0  0  0
 19 10  1  0  0  0  0
 20 19  1  0  0  0  0
 20 21  1  0  0  0  0
 23 25  1  0  0  0  0
 24 25  2  0  0  0  0
 25 22  1  0  0  0  0
M  END
>  <MODEL>
4

>  <REMARK>
 VINA RESULT:      -7.1      5.161      8.364
  Name = 
  4 active torsions:
  status: ('A' for Active; 'I' for Inactive)
    1  A    between atoms: C_1  and  C_5
    2  A    between atoms: C_2  and  C_6
    3  A    between atoms: C_2  and  C_21
    4  A    between atoms: C_6  and  C_23
                            x       y       z     vdW  Elec       q    Type
                         _______ _______ _______ _____ _____    ______ ____

>  <TORSDO>
F 4

$$$$
=
 OpenBabel11052422103D

 25 28  0  0  1  0  0  0  0  0999 V2000
  161.7000  203.1920  147.6750 C   0  0  1  0  0  3  0  0  0  0  0  0
  161.0130  204.2430  148.5500 C   0  0  2  0  0  3  0  0  0  0  0  0
  161.2060  201.2720  150.8590 C   0  0  0  0  0  1  0  0  0  0  0  0
  161.2390  202.2910  149.7730 C   0  0  0  0  0  0  0  0  0  0  0  0
  160.4170  204.3680  151.0670 C   0  0  1  0  0  3  0  0  0  0  0  0
  160.5100  203.6490  152.4010 C   0  0  0  0  0  1  0  0  0  0  0  0
  161.8730  205.4910  148.7090 C   0  0  0  0  0  2  0  0  0  0  0  0
  161.7110  201.9740  148.4750 N   0  0  0  0  0  0  0  0  0  0  0  0
  161.2280  205.6650  151.1460 C   0  0  0  0  0  2  0  0  0  0  0  0
  161.2740  206.3980  149.7910 C   0  0  1  0  0  3  0  0  0  0  0  0
  160.8780  203.5660  149.8710 C   0  0  1  0  0  3  0  0  0  0  0  0
  160.9560  202.9840  146.3910 C   0  0  0  0  0  0  0  0  0  0  0  0
  159.5370  202.6200  144.0010 C   0  0  0  0  0  3  0  0  0  0  0  0
  160.7870  204.0560  145.5000 C   0  0  0  0  0  0  0  0  0  0  0  0
  160.0800  203.8700  144.3080 C   0  0  0  0  0  3  0  0  0  0  0  0
  159.6960  201.5510  144.8860 C   0  0  0  0  0  3  0  0  0  0  0  0
  161.3030  205.2770  145.7830 F   0  0  0  0  0  0  0  0  0  0  0  0
  160.4030  201.7320  146.0780 C   0  0  0  0  0  3  0  0  0  0  0  0
  162.0180  207.7430  149.8380 C   0  0  1  0  0  0  0  0  0  0  0  0
  162.7060  208.2620  148.6350 C   0  0  0  0  0  2  0  0  0  0  0  0
  161.4250  208.7190  149.0190 O   0  0  0  0  0  0  0  0  0  0  0  0
  162.4510  208.3240  151.1760 C   0  0  0  0  0  2  0  0  0  0  0  0
  160.4550  208.8260  152.3750 O   0  0  0  0  0  1  0  0  0  0  0  0
  161.5510  210.6290  151.4790 O   0  0  0  0  0  0  0  0  0  0  0  0
  161.4230  209.2650  151.7010 C   0  0  0  0  0  0  0  0  0  0  0  0
  1 12  1  6  0  0  0
  1  8  1  0  0  0  0
  1  2  1  0  0  0  0
  2  7  1  1  0  0  0
  2 11  1  0  0  0  0
  4  3  1  0  0  0  0
  5  9  1  0  0  0  0
  5  6  1  1  0  0  0
  8  4  2  0  0  0  0
 10  7  1  6  0  0  0
 10 19  1  0  0  0  0
 10  9  1  0  0  0  0
 11  4  1  1  0  0  0
 11  5  1  0  0  0  0
 13 15  2  0  0  0  0
 13 16  1  0  0  0  0
 14 17  1  0  0  0  0
 14 12  2  0  0  0  0
 15 14  1  0  0  0  0
 16 18  2  0  0  0  0
 18 12  1  0  0  0  0
 19 22  1  1  0  0  0
 20 21  1  0  0  0  0
 20 19  1  0  0  0  0
 21 19  1  0  0  0  0
 22 25  1  0  0  0  0
 24 25  2  0  0  0  0
 25 23  1  0  0  0  0
M  END
>  <MODEL>
5

>  <REMARK>
 VINA RESULT:      -7.1      3.891      7.758
  Name = 
  4 active torsions:
  status: ('A' for Active; 'I' for Inactive)
    1  A    between atoms: C_1  and  C_5
    2  A    between atoms: C_2  and  C_6
    3  A    between atoms: C_2  and  C_21
    4  A    between atoms: C_6  and  C_23
                            x       y       z     vdW  Elec       q    Type
                         _______ _______ _______ _____ _____    ______ ____

>  <TORSDO>
F 4

$$$$
=
 OpenBabel11052422103D

 25 28  0  0  1  0  0  0  0  0999 V2000
  160.3770  205.6710  150.5390 C   0  0  1  0  0  3  0  0  0  0  0  0
  161.2520  206.4840  151.4950 C   0  0  2  0  0  3  0  0  0  0  0  0
  161.5820  208.4030  148.2690 C   0  0  0  0  0  1  0  0  0  0  0  0
  161.3040  207.4830  149.4070 C   0  0  0  0  0  0  0  0  0  0  0  0
  162.4130  208.7940  151.3360 C   0  0  1  0  0  3  0  0  0  0  0  0
  162.6260  210.0180  150.4630 C   0  0  0  0  0  1  0  0  0  0  0  0
  160.4580  206.9840  152.6950 C   0  0  0  0  0  2  0  0  0  0  0  0
  160.5440  206.2990  149.2350 N   0  0  0  0  0  0  0  0  0  0  0  0
  161.6480  209.2120  152.5950 C   0  0  0  0  0  2  0  0  0  0  0  0
  161.2950  208.0010  153.4820 C   0  0  1  0  0  3  0  0  0  0  0  0
  161.6850  207.6480  150.6700 C   0  0  1  0  0  3  0  0  0  0  0  0
  160.8050  204.2350  150.5010 C   0  0  0  0  0  0  0  0  0  0  0  0
  161.5720  201.5390  150.4180 C   0  0  0  0  0  3  0  0  0  0  0  0
  160.8290  203.5450  149.2780 C   0  0  0  0  0  0  0  0  0  0  0  0
  161.2130  202.2000  149.2410 C   0  0  0  0  0  3  0  0  0  0  0  0
  161.5450  202.2190  151.6390 C   0  0  0  0  0  3  0  0  0  0  0  0
  160.4800  204.1690  148.1270 F   0  0  0  0  0  0  0  0  0  0  0  0
  161.1620  203.5620  151.6800 C   0  0  0  0  0  3  0  0  0  0  0  0
  160.5880  208.3780  154.7950 C   0  0  1  0  0  0  0  0  0  0  0  0
  160.0990  207.3260  155.7120 C   0  0  0  0  0  2  0  0  0  0  0  0
  161.3210  207.9990  155.9320 O   0  0  0  0  0  0  0  0  0  0  0  0
  159.9800  209.7630  154.9580 C   0  0  0  0  0  2  0  0  0  0  0  0
  161.9200  211.0470  155.4690 O   0  0  0  0  0  0  0  0  0  0  0  0
  160.3480  210.9250  157.1330 O   0  0  0  0  0  1  0  0  0  0  0  0
  160.8120  210.6020  155.8650 C   0  0  0  0  0  0  0  0  0  0  0  0
  1 12  1  6  0  0  0
  1  2  1  0  0  0  0
  2  7  1  1  0  0  0
  3  4  1  0  0  0  0
  5  6  1  6  0  0  0
  5  9  1  0  0  0  0
  7 10  1  0  0  0  0
  8  4  2  0  0  0  0
  8  1  1  0  0  0  0
 10  9  1  6  0  0  0
 10 19  1  0  0  0  0
 11  4  1  1  0  0  0
 11  5  1  0  0  0  0
 11  2  1  0  0  0  0
 12 18  1  0  0  0  0
 13 16  1  0  0  0  0
 14 12  2  0  0  0  0
 15 14  1  0  0  0  0
 15 13  2  0  0  0  0
 16 18  2  0  0  0  0
 17 14  1  0  0  0  0
 19 22  1  1  0  0  0
 19 20  1  0  0  0  0
 19 21  1  0  0  0  0
 20 21  1  0  0  0  0
 22 25  1  0  0  0  0
 23 25  2  0  0  0  0
 25 24  1  0  0  0  0
M  END
>  <MODEL>
6

>  <REMARK>
 VINA RESULT:      -7.1      3.793      7.009
  Name = 
  4 active torsions:
  status: ('A' for Active; 'I' for Inactive)
    1  A    between atoms: C_1  and  C_5
    2  A    between atoms: C_2  and  C_6
    3  A    between atoms: C_2  and  C_21
    4  A    between atoms: C_6  and  C_23
                            x       y       z     vdW  Elec       q    Type
                         _______ _______ _______ _____ _____    ______ ____

>  <TORSDO>
F 4

$$$$
=
 OpenBabel11052422103D

 25 28  0  0  1  0  0  0  0  0999 V2000
  160.2710  205.6760  150.1530 C   0  0  1  0  0  3  0  0  0  0  0  0
  161.2650  206.6670  150.7610 C   0  0  2  0  0  3  0  0  0  0  0  0
  161.2070  207.7010  147.1380 C   0  0  0  0  0  1  0  0  0  0  0  0
  161.0650  207.1080  148.4970 C   0  0  0  0  0  0  0  0  0  0  0  0
  162.4180  208.8150  149.8850 C   0  0  1  0  0  3  0  0  0  0  0  0
  162.5310  209.7710  148.7110 C   0  0  0  0  0  1  0  0  0  0  0  0
  160.6320  207.4840  151.8810 C   0  0  0  0  0  2  0  0  0  0  0  0
  160.2800  205.9510  148.7220 N   0  0  0  0  0  0  0  0  0  0  0  0
  161.8200  209.5650  151.0790 C   0  0  0  0  0  2  0  0  0  0  0  0
  161.5700  208.6300  152.2790 C   0  0  1  0  0  3  0  0  0  0  0  0
  161.6020  207.5690  149.6230 C   0  0  1  0  0  3  0  0  0  0  0  0
  160.6780  204.2600  150.4300 C   0  0  0  0  0  0  0  0  0  0  0  0
  161.4720  201.6240  150.9610 C   0  0  0  0  0  3  0  0  0  0  0  0
  160.9240  203.8490  151.7500 C   0  0  0  0  0  0  0  0  0  0  0  0
  161.3190  202.5330  152.0110 C   0  0  0  0  0  3  0  0  0  0  0  0
  161.2320  202.0280  149.6450 C   0  0  0  0  0  3  0  0  0  0  0  0
  160.7860  204.7190  152.7800 F   0  0  0  0  0  0  0  0  0  0  0  0
  160.8380  203.3420  149.3800 C   0  0  0  0  0  3  0  0  0  0  0  0
  161.0360  209.3530  153.5270 C   0  0  1  0  0  0  0  0  0  0  0  0
  161.5290  208.9860  154.8730 C   0  0  0  0  0  2  0  0  0  0  0  0
  162.0250  210.1120  154.1770 O   0  0  0  0  0  0  0  0  0  0  0  0
  159.7110  210.0970  153.4640 C   0  0  0  0  0  2  0  0  0  0  0  0
  160.1480  212.2120  152.4580 O   0  0  0  0  0  0  0  0  0  0  0  0
  159.8550  212.2400  154.7310 O   0  0  0  0  0  1  0  0  0  0  0  0
  159.9290  211.5700  153.5180 C   0  0  0  0  0  0  0  0  0  0  0  0
  1 12  1  6  0  0  0
  1  2  1  0  0  0  0
  2  7  1  1  0  0  0
  3  4  1  0  0  0  0
  4  8  2  0  0  0  0
  5  6  1  6  0  0  0
  5  9  1  0  0  0  0
  7 10  1  0  0  0  0
  8  1  1  0  0  0  0
 10  9  1  6  0  0  0
 10 19  1  0  0  0  0
 11  4  1  1  0  0  0
 11  5  1  0  0  0  0
 11  2  1  0  0  0  0
 12 14  1  0  0  0  0
 13 15  1  0  0  0  0
 14 15  2  0  0  0  0
 14 17  1  0  0  0  0
 16 13  2  0  0  0  0
 18 16  1  0  0  0  0
 18 12  2  0  0  0  0
 19 22  1  6  0  0  0
 19 21  1  0  0  0  0
 19 20  1  0  0  0  0
 21 20  1  0  0  0  0
 22 25  1  0  0  0  0
 23 25  2  0  0  0  0
 25 24  1  0  0  0  0
M  END
>  <MODEL>
7

>  <REMARK>
 VINA RESULT:      -6.9      3.836      6.770
  Name = 
  4 active torsions:
  status: ('A' for Active; 'I' for Inactive)
    1  A    between atoms: C_1  and  C_5
    2  A    between atoms: C_2  and  C_6
    3  A    between atoms: C_2  and  C_21
    4  A    between atoms: C_6  and  C_23
                            x       y       z     vdW  Elec       q    Type
                         _______ _______ _______ _____ _____    ______ ____

>  <TORSDO>
F 4

$$$$
=
 OpenBabel11052422103D

 25 28  0  0  1  0  0  0  0  0999 V2000
  161.9990  204.0950  147.9060 C   0  0  1  0  0  3  0  0  0  0  0  0
  161.1060  204.6950  148.9940 C   0  0  2  0  0  3  0  0  0  0  0  0
  161.2240  201.0560  149.9630 C   0  0  0  0  0  1  0  0  0  0  0  0
  161.3230  202.4230  149.3800 C   0  0  0  0  0  0  0  0  0  0  0  0
  160.1480  203.7950  151.2260 C   0  0  1  0  0  3  0  0  0  0  0  0
  160.1110  202.6060  152.1700 C   0  0  0  0  0  1  0  0  0  0  0  0
  161.8230  205.7960  149.7660 C   0  0  0  0  0  2  0  0  0  0  0  0
  162.0010  202.6600  148.1580 N   0  0  0  0  0  0  0  0  0  0  0  0
  160.8240  204.9710  151.9350 C   0  0  0  0  0  2  0  0  0  0  0  0
  160.9990  206.1840  151.0000 C   0  0  1  0  0  3  0  0  0  0  0  0
  160.8420  203.5450  149.9060 C   0  0  1  0  0  3  0  0  0  0  0  0
  161.4660  204.3980  146.5390 C   0  0  0  0  0  0  0  0  0  0  0  0
  160.4440  204.9890  143.9950 C   0  0  0  0  0  3  0  0  0  0  0  0
  161.5810  205.6960  146.0150 C   0  0  0  0  0  0  0  0  0  0  0  0
  161.0710  205.9870  144.7460 C   0  0  0  0  0  3  0  0  0  0  0  0
  160.3220  203.6960  144.5120 C   0  0  0  0  0  3  0  0  0  0  0  0
  162.1810  206.6770  146.7320 F   0  0  0  0  0  0  0  0  0  0  0  0
  160.8300  203.4020  145.7800 C   0  0  0  0  0  3  0  0  0  0  0  0
  161.6090  207.4150  151.6890 C   0  0  1  0  0  0  0  0  0  0  0  0
  162.1070  208.5540  150.8860 C   0  0  0  0  0  2  0  0  0  0  0  0
  160.8370  208.5760  151.5070 O   0  0  0  0  0  0  0  0  0  0  0  0
  162.1280  207.3080  153.1150 C   0  0  0  0  0  2  0  0  0  0  0  0
  160.2530  207.0390  154.5610 O   0  0  0  0  0  1  0  0  0  0  0  0
  161.1550  209.1450  154.4910 O   0  0  0  0  0  0  0  0  0  0  0  0
  161.1180  207.8190  154.0840 C   0  0  0  0  0  0  0  0  0  0  0  0
  1 12  1  6  0  0  0
  1  8  1  0  0  0  0
  1  2  1  0  0  0  0
  2  7  1  1  0  0  0
  2 11  1  0  0  0  0
  4  3  1  0  0  0  0
  5  9  1  0  0  0  0
  5  6  1  1  0  0  0
  8  4  2  0  0  0  0
 10  7  1  6  0  0  0
 10 19  1  0  0  0  0
 10  9  1  0  0  0  0
 11  4  1  1  0  0  0
 11  5  1  0  0  0  0
 13 16  2  0  0  0  0
 13 15  1  0  0  0  0
 14 12  1  0  0  0  0
 14 17  1  0  0  0  0
 15 14  2  0  0  0  0
 16 18  1  0  0  0  0
 18 12  2  0  0  0  0
 19 22  1  1  0  0  0
 20 21  1  0  0  0  0
 20 19  1  0  0  0  0
 21 19  1  0  0  0  0
 22 25  1  0  0  0  0
 25 24  2  0  0  0  0
 25 23  1  0  0  0  0
M  END
>  <MODEL>
8

>  <REMARK>
 VINA RESULT:      -6.9      3.545      7.361
  Name = 
  4 active torsions:
  status: ('A' for Active; 'I' for Inactive)
    1  A    between atoms: C_1  and  C_5
    2  A    between atoms: C_2  and  C_6
    3  A    between atoms: C_2  and  C_21
    4  A    between atoms: C_6  and  C_23
                            x       y       z     vdW  Elec       q    Type
                         _______ _______ _______ _____ _____    ______ ____

>  <TORSDO>
F 4

$$$$
=
 OpenBabel11052422103D

 25 28  0  0  1  0  0  0  0  0999 V2000
  162.0350  206.9170  151.5210 C   0  0  1  0  0  3  0  0  0  0  0  0
  161.0420  206.1930  150.6100 C   0  0  2  0  0  3  0  0  0  0  0  0
  162.3580  208.9200  148.3660 C   0  0  0  0  0  1  0  0  0  0  0  0
  161.9910  207.9460  149.4330 C   0  0  0  0  0  0  0  0  0  0  0  0
  160.5150  206.3170  148.0760 C   0  0  1  0  0  3  0  0  0  0  0  0
  160.9000  206.9690  146.7600 C   0  0  0  0  0  1  0  0  0  0  0  0
  161.4010  204.7210  150.4460 C   0  0  0  0  0  2  0  0  0  0  0  0
  162.5060  208.0580  150.7480 N   0  0  0  0  0  2  0  0  0  0  0  0
  160.8090  204.8160  147.9900 C   0  0  0  0  0  2  0  0  0  0  0  0
  160.5480  204.1010  149.3310 C   0  0  1  0  0  3  0  0  0  0  0  0
  161.1980  206.8870  149.3000 C   0  0  0  0  0  0  0  0  0  0  0  0
  161.3770  207.3650  152.7910 C   0  0  0  0  0  0  0  0  0  0  0  0
  160.1750  208.2260  155.1740 C   0  0  0  0  0  3  0  0  0  0  0  0
  161.0050  208.7100  152.9490 C   0  0  0  0  0  0  0  0  0  0  0  0
  160.4050  209.1350  154.1380 C   0  0  0  0  0  3  0  0  0  0  0  0
  160.5470  206.8870  155.0250 C   0  0  0  0  0  3  0  0  0  0  0  0
  161.2240  209.6070  151.9570 F   0  0  0  0  0  0  0  0  0  0  0  0
  161.1480  206.4580  153.8380 C   0  0  0  0  0  3  0  0  0  0  0  0
  160.7600  202.5790  149.2740 C   0  0  1  0  0  0  0  0  0  0  0  0
  160.8180  201.8790  147.9720 C   0  0  0  0  0  2  0  0  0  0  0  0
  161.9870  202.2260  148.6860 O   0  0  0  0  0  0  0  0  0  0  0  0
  160.4590  201.7250  150.4970 C   0  0  0  0  0  2  0  0  0  0  0  0
  162.4350  201.8620  151.8210 O   0  0  0  0  0  0  0  0  0  0  0  0
  160.6370  203.0520  152.6000 O   0  0  0  0  0  1  0  0  0  0  0  0
  161.2310  202.2020  151.6770 C   0  0  0  0  0  0  0  0  0  0  0  0
  1 12  1  1  0  0  0
  2  7  1  6  0  0  0
  2  1  1  0  0  0  0
  3  4  1  0  0  0  0
  4  8  1  0  0  0  0
  5  6  1  6  0  0  0
  5 11  1  0  0  0  0
  8  1  1  0  0  0  0
  9  5  1  0  0  0  0
 10  9  1  6  0  0  0
 10  7  1  0  0  0  0
 11  4  2  0  0  0  0
 11  2  1  0  0  0  0
 12 14  2  0  0  0  0
 12 18  1  0  0  0  0
 14 15  1  0  0  0  0
 15 13  2  0  0  0  0
 16 13  1  0  0  0  0
 17 14  1  0  0  0  0
 18 16  2  0  0  0  0
 19 10  1  0  0  0  0
 19 22  1  1  0  0  0
 20 21  1  0  0  0  0
 20 19  1  0  0  0  0
 21 19  1  0  0  0  0
 22 25  1  0  0  0  0
 25 23  2  0  0  0  0
 25 24  1  0  0  0  0
M  END
>  <MODEL>
9

>  <REMARK>
 VINA RESULT:      -6.8      1.285      2.320
  Name = 
  4 active torsions:
  status: ('A' for Active; 'I' for Inactive)
    1  A    between atoms: C_1  and  C_5
    2  A    between atoms: C_2  and  C_6
    3  A    between atoms: C_2  and  C_21
    4  A    between atoms: C_6  and  C_23
                            x       y       z     vdW  Elec       q    Type
                         _______ _______ _______ _____ _____    ______ ____

>  <TORSDO>
F 4

$$$$
