=
 OpenBabel11052422203D

 25 29  0  0  1  0  0  0  0  0999 V2000
  161.4650  205.6160  151.7830 C   0  0  0  0  0  0  0  0  0  0  0  0
  161.5940  204.7630  150.6790 C   0  0  0  0  0  0  0  0  0  0  0  0
  160.4670  203.8880  153.1360 C   0  0  0  0  0  3  0  0  0  0  0  0
  161.9320  207.0160  151.9780 C   0  0  2  0  0  3  0  0  0  0  0  0
  161.3310  205.2060  148.2270 C   0  0  1  0  0  0  0  0  0  0  0  0
  161.0410  209.5700  152.9700 C   0  0  0  0  0  3  0  0  0  0  0  0
  160.5580  203.0160  152.0440 C   0  0  0  0  0  3  0  0  0  0  0  0
  161.4550  207.2440  153.3880 C   0  0  0  0  0  0  0  0  0  0  0  0
  161.2600  208.6110  153.8800 C   0  0  0  0  0  3  0  0  0  0  0  0
  161.1630  202.4570  149.7200 N   0  0  0  0  0  0  0  0  0  0  0  0
  160.6650  201.1030  149.9170 C   0  0  0  0  0  1  0  0  0  0  0  0
  160.1920  206.2140  148.2230 C   0  0  0  0  0  2  0  0  0  0  0  0
  162.2520  205.3010  149.4430 C   0  0  0  0  0  2  0  0  0  0  0  0
  160.9480  209.2410  151.5220 C   0  0  0  0  0  3  0  0  0  0  0  0
  160.9450  205.1810  152.9760 C   0  0  0  0  0  0  0  0  0  0  0  0
  160.9070  206.2130  153.9500 N   0  0  0  0  0  0  0  0  0  0  0  0
  161.7150  202.7360  148.3980 C   0  0  0  0  0  2  0  0  0  0  0  0
  162.2000  207.5890  147.5470 C   0  0  0  0  0  1  0  0  0  0  0  0
  161.3000  208.0310  151.0590 C   0  0  0  0  0  3  0  0  0  0  0  0
  160.9200  203.8320  147.7050 C   0  0  0  0  0  2  0  0  0  0  0  0
  161.1180  203.4200  150.8050 C   0  0  0  0  0  0  0  0  0  0  0  0
  161.3410  206.3740  147.2410 C   0  0  1  0  0  0  0  0  0  0  0  0
  160.9450  206.1330  145.8180 C   0  0  0  0  0  0  0  0  0  0  0  0
  159.7430  206.2740  145.4680 O   0  0  0  0  0  1  0  0  0  0  0  0
  161.8880  205.7100  144.8900 O   0  0  0  0  0  0  0  0  0  0  0  0
  1  4  1  0  0  0  0
  1 15  1  0  0  0  0
  2 21  1  0  0  0  0
  2  1  2  0  0  0  0
  4 19  1  6  0  0  0
  4  8  1  0  0  0  0
  5 20  1  6  0  0  0
  5 13  1  0  0  0  0
  6  9  2  0  0  0  0
  7  3  1  0  0  0  0
  8  9  1  0  0  0  0
  8 16  2  0  0  0  0
 10 11  1  0  0  0  0
 10 21  1  0  0  0  0
 12  5  1  0  0  0  0
 13  2  1  0  0  0  0
 14  6  1  0  0  0  0
 15  3  2  0  0  0  0
 15 16  1  0  0  0  0
 17 10  1  0  0  0  0
 19 14  2  0  0  0  0
 20 17  1  0  0  0  0
 21  7  2  0  0  0  0
 22 18  1  1  0  0  0
 22 12  1  0  0  0  0
 22  5  1  0  0  0  0
 23 22  1  0  0  0  0
 24 23  1  0  0  0  0
 25 23  2  0  0  0  0
M  END
>  <MODEL>
1

>  <REMARK>
 VINA RESULT:      -7.6      0.000      0.000
  Name = 
  1 active torsions:
  status: ('A' for Active; 'I' for Inactive)
    1  A    between atoms: C_2  and  C_25
                            x       y       z     vdW  Elec       q    Type
                         _______ _______ _______ _____ _____    ______ ____

>  <TORSDO>
F 1

$$$$
=
 OpenBabel11052422203D

 25 29  0  0  1  0  0  0  0  0999 V2000
  161.1650  207.9780  150.7490 C   0  0  0  0  0  0  0  0  0  0  0  0
  161.0360  206.8980  149.8660 C   0  0  0  0  0  0  0  0  0  0  0  0
  162.3590  209.3010  149.1260 C   0  0  0  0  0  3  0  0  0  0  0  0
  160.6090  208.1760  152.1160 C   0  0  2  0  0  3  0  0  0  0  0  0
  161.1290  204.4280  150.2750 C   0  0  1  0  0  0  0  0  0  0  0  0
  161.3670  209.0710  154.7480 C   0  0  0  0  0  3  0  0  0  0  0  0
  162.2710  208.2310  148.2260 C   0  0  0  0  0  3  0  0  0  0  0  0
  161.1470  209.5520  152.4080 C   0  0  0  0  0  0  0  0  0  0  0  0
  161.2690  210.0090  153.7950 C   0  0  0  0  0  3  0  0  0  0  0  0
  161.5790  205.9550  147.5770 N   0  0  0  0  0  0  0  0  0  0  0  0
  162.1830  206.1470  146.2670 C   0  0  0  0  0  1  0  0  0  0  0  0
  162.1900  204.3420  151.3610 C   0  0  0  0  0  2  0  0  0  0  0  0
  160.2730  205.6930  150.3290 C   0  0  0  0  0  2  0  0  0  0  0  0
  161.4020  207.6270  154.3950 C   0  0  0  0  0  3  0  0  0  0  0  0
  161.7810  209.1470  150.3780 C   0  0  0  0  0  0  0  0  0  0  0  0
  161.7990  210.0990  151.4300 N   0  0  0  0  0  0  0  0  0  0  0  0
  160.9350  204.6630  147.7880 C   0  0  0  0  0  2  0  0  0  0  0  0
  160.0520  203.7580  152.5750 C   0  0  0  0  0  1  0  0  0  0  0  0
  161.1130  207.2050  153.1540 C   0  0  0  0  0  3  0  0  0  0  0  0
  161.6080  203.9070  148.9230 C   0  0  0  0  0  2  0  0  0  0  0  0
  161.6140  207.0200  148.5630 C   0  0  0  0  0  0  0  0  0  0  0  0
  160.9790  203.4240  151.4180 C   0  0  1  0  0  0  0  0  0  0  0  0
  161.3120  201.9860  151.1760 C   0  0  0  0  0  0  0  0  0  0  0  0
  162.3490  201.4860  151.6860 O   0  0  0  0  0  1  0  0  0  0  0  0
  160.5060  201.2090  150.3530 O   0  0  0  0  0  0  0  0  0  0  0  0
  1  4  1  0  0  0  0
  2 13  1  0  0  0  0
  2  1  2  0  0  0  0
  3 15  2  0  0  0  0
  4  8  1  0  0  0  0
  4 19  1  1  0  0  0
  5 20  1  6  0  0  0
  5 13  1  0  0  0  0
  5 12  1  0  0  0  0
  5 22  1  0  0  0  0
  7 21  2  0  0  0  0
  7  3  1  0  0  0  0
  8  9  1  0  0  0  0
  9  6  2  0  0  0  0
 10 17  1  0  0  0  0
 10 21  1  0  0  0  0
 11 10  1  0  0  0  0
 12 22  1  0  0  0  0
 14  6  1  0  0  0  0
 15  1  1  0  0  0  0
 15 16  1  0  0  0  0
 16  8  2  0  0  0  0
 17 20  1  0  0  0  0
 19 14  2  0  0  0  0
 21  2  1  0  0  0  0
 22 18  1  1  0  0  0
 23 22  1  0  0  0  0
 23 24  1  0  0  0  0
 25 23  2  0  0  0  0
M  END
>  <MODEL>
2

>  <REMARK>
 VINA RESULT:      -7.5      2.705      4.603
  Name = 
  1 active torsions:
  status: ('A' for Active; 'I' for Inactive)
    1  A    between atoms: C_2  and  C_25
                            x       y       z     vdW  Elec       q    Type
                         _______ _______ _______ _____ _____    ______ ____

>  <TORSDO>
F 1

$$$$
=
 OpenBabel11052422203D

 25 29  0  0  1  0  0  0  0  0999 V2000
  161.6670  205.9200  149.6130 C   0  0  0  0  0  0  0  0  0  0  0  0
  161.9760  207.1880  150.1230 C   0  0  0  0  0  0  0  0  0  0  0  0
  161.1290  206.8080  147.4370 C   0  0  0  0  0  3  0  0  0  0  0  0
  161.7920  204.5740  150.2370 C   0  0  2  0  0  3  0  0  0  0  0  0
  161.5740  208.1860  152.3860 C   0  0  1  0  0  0  0  0  0  0  0  0
  160.3390  202.1120  150.5940 C   0  0  0  0  0  3  0  0  0  0  0  0
  161.4060  208.0930  147.9210 C   0  0  0  0  0  3  0  0  0  0  0  0
  161.2990  203.7230  149.0970 C   0  0  0  0  0  0  0  0  0  0  0  0
  160.7940  202.3720  149.3610 C   0  0  0  0  0  3  0  0  0  0  0  0
  162.0870  209.6810  149.6810 N   0  0  0  0  0  0  0  0  0  0  0  0
  161.9270  210.7840  148.7440 C   0  0  0  0  0  1  0  0  0  0  0  0
  160.2300  207.5770  152.7490 C   0  0  0  0  0  2  0  0  0  0  0  0
  162.4670  207.2810  151.5370 C   0  0  0  0  0  2  0  0  0  0  0  0
  160.3030  203.1760  151.6330 C   0  0  0  0  0  3  0  0  0  0  0  0
  161.2840  205.7390  148.3080 C   0  0  0  0  0  0  0  0  0  0  0  0
  161.0200  204.3760  148.0130 N   0  0  0  0  0  0  0  0  0  0  0  0
  162.5350  210.0530  151.0180 C   0  0  0  0  0  2  0  0  0  0  0  0
  161.8430  206.4230  154.3140 C   0  0  0  0  0  1  0  0  0  0  0  0
  160.9240  204.3520  151.4490 C   0  0  0  0  0  3  0  0  0  0  0  0
  161.4920  209.6740  152.0580 C   0  0  0  0  0  2  0  0  0  0  0  0
  161.8330  208.3160  149.2550 C   0  0  0  0  0  0  0  0  0  0  0  0
  161.2910  207.7510  153.8230 C   0  0  1  0  0  0  0  0  0  0  0  0
  160.9390  208.7860  154.8440 C   0  0  0  0  0  0  0  0  0  0  0  0
  159.7320  209.0720  155.0600 O   0  0  0  0  0  0  0  0  0  0  0  0
  161.9400  209.4680  155.5250 O   0  0  0  0  0  1  0  0  0  0  0  0
  1  2  1  0  0  0  0
  1  4  1  0  0  0  0
  2 13  1  0  0  0  0
  3  7  2  0  0  0  0
  3 15  1  0  0  0  0
  4 19  1  1  0  0  0
  5 13  1  6  0  0  0
  5 12  1  0  0  0  0
  5 22  1  0  0  0  0
  6 14  1  0  0  0  0
  7 21  1  0  0  0  0
  8  9  1  0  0  0  0
  8  4  1  0  0  0  0
  9  6  2  0  0  0  0
 10 17  1  0  0  0  0
 11 10  1  0  0  0  0
 12 22  1  0  0  0  0
 15  1  2  0  0  0  0
 16 15  1  0  0  0  0
 16  8  2  0  0  0  0
 17 20  1  0  0  0  0
 19 14  2  0  0  0  0
 20  5  1  0  0  0  0
 21 10  1  0  0  0  0
 21  2  2  0  0  0  0
 22 18  1  1  0  0  0
 22 23  1  0  0  0  0
 23 24  2  0  0  0  0
 23 25  1  0  0  0  0
M  END
>  <MODEL>
3

>  <REMARK>
 VINA RESULT:      -7.1      3.417      6.709
  Name = 
  1 active torsions:
  status: ('A' for Active; 'I' for Inactive)
    1  A    between atoms: C_2  and  C_25
                            x       y       z     vdW  Elec       q    Type
                         _______ _______ _______ _____ _____    ______ ____

>  <TORSDO>
F 1

$$$$
=
 OpenBabel11052422203D

 25 29  0  0  1  0  0  0  0  0999 V2000
  161.7410  205.8730  150.3700 C   0  0  0  0  0  0  0  0  0  0  0  0
  161.6610  204.7280  149.5650 C   0  0  0  0  0  0  0  0  0  0  0  0
  160.5350  204.8200  152.1710 C   0  0  0  0  0  3  0  0  0  0  0  0
  162.4530  207.1610  150.1450 C   0  0  2  0  0  3  0  0  0  0  0  0
  161.3470  204.4850  147.0910 C   0  0  1  0  0  0  0  0  0  0  0  0
  162.0720  210.0100  150.3430 C   0  0  0  0  0  3  0  0  0  0  0  0
  160.4140  203.6680  151.3840 C   0  0  0  0  0  3  0  0  0  0  0  0
  162.0990  207.8690  151.4250 C   0  0  0  0  0  0  0  0  0  0  0  0
  162.1710  209.3310  151.4940 C   0  0  0  0  0  3  0  0  0  0  0  0
  160.7870  202.3620  149.3250 N   0  0  0  0  0  0  0  0  0  0  0  0
  160.0750  201.2360  149.9130 C   0  0  0  0  0  1  0  0  0  0  0  0
  160.4000  205.6370  146.7930 C   0  0  0  0  0  2  0  0  0  0  0  0
  162.3340  204.7590  148.2250 C   0  0  0  0  0  2  0  0  0  0  0  0
  161.8450  209.2990  149.0560 C   0  0  0  0  0  3  0  0  0  0  0  0
  161.2190  205.9030  151.6380 C   0  0  0  0  0  0  0  0  0  0  0  0
  161.4120  207.1610  152.2660 N   0  0  0  0  0  0  0  0  0  0  0  0
  161.3070  202.1420  147.9800 C   0  0  0  0  0  2  0  0  0  0  0  0
  162.5760  206.3720  145.7400 C   0  0  0  0  0  1  0  0  0  0  0  0
  161.9570  207.9640  148.9680 C   0  0  0  0  0  3  0  0  0  0  0  0
  160.6770  203.1170  146.9960 C   0  0  0  0  0  2  0  0  0  0  0  0
  160.9680  203.5890  150.0800 C   0  0  0  0  0  0  0  0  0  0  0  0
  161.5050  205.2960  145.8060 C   0  0  1  0  0  0  0  0  0  0  0  0
  160.9960  204.7310  144.5170 C   0  0  0  0  0  0  0  0  0  0  0  0
  161.3120  205.2720  143.4250 O   0  0  0  0  0  0  0  0  0  0  0  0
  160.1390  203.6380  144.5210 O   0  0  0  0  0  1  0  0  0  0  0  0
  1 15  1  0  0  0  0
  2 21  1  0  0  0  0
  2  1  2  0  0  0  0
  4 19  1  6  0  0  0
  4  1  1  0  0  0  0
  4  8  1  0  0  0  0
  5 12  1  1  0  0  0
  5 13  1  0  0  0  0
  6  9  2  0  0  0  0
  7  3  1  0  0  0  0
  8  9  1  0  0  0  0
  8 16  2  0  0  0  0
 10 11  1  0  0  0  0
 10 21  1  0  0  0  0
 13  2  1  0  0  0  0
 14  6  1  0  0  0  0
 15  3  2  0  0  0  0
 15 16  1  0  0  0  0
 17 10  1  0  0  0  0
 19 14  2  0  0  0  0
 20  5  1  0  0  0  0
 20 17  1  0  0  0  0
 21  7  2  0  0  0  0
 22 18  1  6  0  0  0
 22 12  1  0  0  0  0
 22  5  1  0  0  0  0
 23 25  1  0  0  0  0
 23 22  1  0  0  0  0
 24 23  2  0  0  0  0
M  END
>  <MODEL>
4

>  <REMARK>
 VINA RESULT:      -6.2      1.415      1.829
  Name = 
  1 active torsions:
  status: ('A' for Active; 'I' for Inactive)
    1  A    between atoms: C_2  and  C_25
                            x       y       z     vdW  Elec       q    Type
                         _______ _______ _______ _____ _____    ______ ____

>  <TORSDO>
F 1

$$$$
=
 OpenBabel11052422203D

 25 29  0  0  1  0  0  0  0  0999 V2000
  160.9040  204.1930  149.7450 C   0  0  0  0  0  0  0  0  0  0  0  0
  160.8430  205.3550  150.5270 C   0  0  0  0  0  0  0  0  0  0  0  0
  161.5020  202.8230  151.6360 C   0  0  0  0  0  3  0  0  0  0  0  0
  160.5690  203.9790  148.3110 C   0  0  2  0  0  3  0  0  0  0  0  0
  161.5030  207.7150  150.0070 C   0  0  1  0  0  0  0  0  0  0  0  0
  161.5810  202.7200  145.9250 C   0  0  0  0  0  3  0  0  0  0  0  0
  161.4740  203.9690  152.4430 C   0  0  0  0  0  3  0  0  0  0  0  0
  160.8600  202.5060  148.2030 C   0  0  0  0  0  0  0  0  0  0  0  0
  161.1300  201.9090  146.8920 C   0  0  0  0  0  3  0  0  0  0  0  0
  161.1530  206.3840  152.8210 N   0  0  0  0  0  0  0  0  0  0  0  0
  161.4670  206.2020  154.2320 C   0  0  0  0  0  1  0  0  0  0  0  0
  162.7340  207.5000  149.1400 C   0  0  0  0  0  2  0  0  0  0  0  0
  160.4320  206.6340  149.8610 C   0  0  0  0  0  2  0  0  0  0  0  0
  161.8450  204.1580  146.1970 C   0  0  0  0  0  3  0  0  0  0  0  0
  161.1960  202.9680  150.2910 C   0  0  0  0  0  0  0  0  0  0  0  0
  161.2060  201.9380  149.3150 N   0  0  0  0  0  0  0  0  0  0  0  0
  160.8310  207.7500  152.4210 C   0  0  0  0  0  2  0  0  0  0  0  0
  161.0060  208.3620  147.5110 C   0  0  0  0  0  1  0  0  0  0  0  0
  161.4330  204.7380  147.3360 C   0  0  0  0  0  3  0  0  0  0  0  0
  161.8320  208.2580  151.3950 C   0  0  0  0  0  2  0  0  0  0  0  0
  161.1460  205.2460  151.9200 C   0  0  0  0  0  0  0  0  0  0  0  0
  161.7630  208.6200  148.8030 C   0  0  1  0  0  0  0  0  0  0  0  0
  162.3310  209.9860  149.0240 C   0  0  0  0  0  0  0  0  0  0  0  0
  163.1610  210.4610  148.2060 O   0  0  0  0  0  0  0  0  0  0  0  0
  161.9820  210.7160  150.1540 O   0  0  0  0  0  1  0  0  0  0  0  0
  1 15  2  0  0  0  0
  1  2  1  0  0  0  0
  2 21  2  0  0  0  0
  3  7  2  0  0  0  0
  4 19  1  6  0  0  0
  4  1  1  0  0  0  0
  5 12  1  6  0  0  0
  5 20  1  0  0  0  0
  6 14  1  0  0  0  0
  6  9  2  0  0  0  0
  8  4  1  0  0  0  0
  8 16  2  0  0  0  0
  9  8  1  0  0  0  0
 10 11  1  0  0  0  0
 13  5  1  0  0  0  0
 13  2  1  0  0  0  0
 14 19  2  0  0  0  0
 15  3  1  0  0  0  0
 16 15  1  0  0  0  0
 17 10  1  0  0  0  0
 20 17  1  0  0  0  0
 21  7  1  0  0  0  0
 21 10  1  0  0  0  0
 22 18  1  6  0  0  0
 22 23  1  0  0  0  0
 22 12  1  0  0  0  0
 22  5  1  0  0  0  0
 23 25  1  0  0  0  0
 24 23  2  0  0  0  0
M  END
>  <MODEL>
5

>  <REMARK>
 VINA RESULT:      -6.1      2.254      5.334
  Name = 
  1 active torsions:
  status: ('A' for Active; 'I' for Inactive)
    1  A    between atoms: C_2  and  C_25
                            x       y       z     vdW  Elec       q    Type
                         _______ _______ _______ _____ _____    ______ ____

>  <TORSDO>
F 1

$$$$
=
 OpenBabel11052422203D

 25 29  0  0  1  0  0  0  0  0999 V2000
  161.2140  206.0730  149.4310 C   0  0  0  0  0  0  0  0  0  0  0  0
  161.1080  205.4550  148.1770 C   0  0  0  0  0  0  0  0  0  0  0  0
  162.5610  207.8680  148.5510 C   0  0  0  0  0  3  0  0  0  0  0  0
  160.5740  205.7300  150.7310 C   0  0  2  0  0  3  0  0  0  0  0  0
  161.0870  203.0310  147.5420 C   0  0  1  0  0  0  0  0  0  0  0  0
  161.1820  205.4300  153.5310 C   0  0  0  0  0  3  0  0  0  0  0  0
  162.4960  207.2640  147.2890 C   0  0  0  0  0  3  0  0  0  0  0  0
  161.1380  206.8330  151.5860 C   0  0  0  0  0  0  0  0  0  0  0  0
  161.1820  206.6780  153.0420 C   0  0  0  0  0  3  0  0  0  0  0  0
  161.7710  205.4950  145.7320 N   0  0  0  0  0  0  0  0  0  0  0  0
  162.4690  206.1670  144.6460 C   0  0  0  0  0  1  0  0  0  0  0  0
  162.0680  202.4480  148.5470 C   0  0  0  0  0  2  0  0  0  0  0  0
  160.2740  204.2130  148.0700 C   0  0  0  0  0  2  0  0  0  0  0  0
  161.1910  204.2540  152.6190 C   0  0  0  0  0  3  0  0  0  0  0  0
  161.8940  207.2520  149.6010 C   0  0  0  0  0  0  0  0  0  0  0  0
  161.8730  207.6910  150.9500 N   0  0  0  0  0  0  0  0  0  0  0  0
  161.0700  204.2690  145.3630 C   0  0  0  0  0  2  0  0  0  0  0  0
  159.8350  201.5490  149.3120 C   0  0  0  0  0  1  0  0  0  0  0  0
  160.9730  204.3920  151.3020 C   0  0  0  0  0  3  0  0  0  0  0  0
  161.6380  203.0780  146.1200 C   0  0  0  0  0  2  0  0  0  0  0  0
  161.7770  206.0620  147.0680 C   0  0  0  0  0  0  0  0  0  0  0  0
  160.8260  201.6610  148.1650 C   0  0  1  0  0  0  0  0  0  0  0  0
  161.1240  200.4280  147.3710 C   0  0  0  0  0  0  0  0  0  0  0  0
  161.9020  199.5540  147.8350 O   0  0  0  0  0  1  0  0  0  0  0  0
  160.5820  200.2630  146.1020 O   0  0  0  0  0  0  0  0  0  0  0  0
  1 15  1  0  0  0  0
  1  4  1  0  0  0  0
  2  1  2  0  0  0  0
  3 15  2  0  0  0  0
  4 19  1  1  0  0  0
  4  8  1  0  0  0  0
  5 20  1  6  0  0  0
  5 13  1  0  0  0  0
  5 22  1  0  0  0  0
  5 12  1  0  0  0  0
  7  3  1  0  0  0  0
  8  9  1  0  0  0  0
  9  6  2  0  0  0  0
 10 21  1  0  0  0  0
 11 10  1  0  0  0  0
 13  2  1  0  0  0  0
 14  6  1  0  0  0  0
 15 16  1  0  0  0  0
 16  8  2  0  0  0  0
 17 10  1  0  0  0  0
 17 20  1  0  0  0  0
 19 14  2  0  0  0  0
 21  7  2  0  0  0  0
 21  2  1  0  0  0  0
 22 12  1  0  0  0  0
 22 18  1  1  0  0  0
 23 24  1  0  0  0  0
 23 22  1  0  0  0  0
 25 23  2  0  0  0  0
M  END
>  <MODEL>
6

>  <REMARK>
 VINA RESULT:      -5.7      2.464      4.640
  Name = 
  1 active torsions:
  status: ('A' for Active; 'I' for Inactive)
    1  A    between atoms: C_2  and  C_25
                            x       y       z     vdW  Elec       q    Type
                         _______ _______ _______ _____ _____    ______ ____

>  <TORSDO>
F 1

$$$$
=
 OpenBabel11052422203D

 25 29  0  0  1  0  0  0  0  0999 V2000
  161.8910  207.3790  150.7200 C   0  0  0  0  0  0  0  0  0  0  0  0
  161.8460  206.0190  150.3850 C   0  0  0  0  0  0  0  0  0  0  0  0
  160.8310  207.0000  152.8510 C   0  0  0  0  0  3  0  0  0  0  0  0
  162.5110  208.5270  150.0030 C   0  0  2  0  0  3  0  0  0  0  0  0
  161.4380  204.8850  148.1880 C   0  0  1  0  0  0  0  0  0  0  0  0
  161.9660  211.2370  149.1900 C   0  0  0  0  0  3  0  0  0  0  0  0
  160.7470  205.6370  152.5390 C   0  0  0  0  0  3  0  0  0  0  0  0
  162.1720  209.6350  150.9640 C   0  0  0  0  0  0  0  0  0  0  0  0
  162.1570  211.0250  150.4990 C   0  0  0  0  0  3  0  0  0  0  0  0
  161.1090  203.6930  151.0660 N   0  0  0  0  0  0  0  0  0  0  0  0
  160.4930  202.8270  152.0620 C   0  0  0  0  0  1  0  0  0  0  0  0
  160.4110  205.8120  147.5570 C   0  0  0  0  0  2  0  0  0  0  0  0
  162.4560  205.5910  149.0840 C   0  0  0  0  0  2  0  0  0  0  0  0
  161.7270  210.1000  148.2610 C   0  0  0  0  0  3  0  0  0  0  0  0
  161.4240  207.8440  151.9230 C   0  0  0  0  0  0  0  0  0  0  0  0
  161.5670  209.2510  152.0440 N   0  0  0  0  0  0  0  0  0  0  0  0
  161.5810  203.0230  149.8590 C   0  0  0  0  0  2  0  0  0  0  0  0
  162.4900  206.2050  146.1760 C   0  0  0  0  0  1  0  0  0  0  0  0
  161.9170  208.8290  148.6510 C   0  0  0  0  0  3  0  0  0  0  0  0
  160.8500  203.5490  148.6330 C   0  0  0  0  0  2  0  0  0  0  0  0
  161.2470  205.1150  151.3180 C   0  0  0  0  0  0  0  0  0  0  0  0
  161.4900  205.1830  146.6910 C   0  0  1  0  0  0  0  0  0  0  0  0
  160.9610  204.1690  145.7250 C   0  0  0  0  0  0  0  0  0  0  0  0
  161.5050  203.0360  145.6420 O   0  0  0  0  0  1  0  0  0  0  0  0
  159.9010  204.4870  144.8860 O   0  0  0  0  0  0  0  0  0  0  0  0
  1 15  1  0  0  0  0
  2  1  2  0  0  0  0
  2 21  1  0  0  0  0
  4 19  1  6  0  0  0
  4  1  1  0  0  0  0
  4  8  1  0  0  0  0
  5 12  1  1  0  0  0
  5 20  1  0  0  0  0
  5 13  1  0  0  0  0
  6  9  2  0  0  0  0
  7  3  1  0  0  0  0
  8 16  2  0  0  0  0
  9  8  1  0  0  0  0
 10 21  1  0  0  0  0
 10 11  1  0  0  0  0
 13  2  1  0  0  0  0
 14 19  2  0  0  0  0
 14  6  1  0  0  0  0
 15 16  1  0  0  0  0
 15  3  2  0  0  0  0
 17 10  1  0  0  0  0
 20 17  1  0  0  0  0
 21  7  2  0  0  0  0
 22 18  1  6  0  0  0
 22 12  1  0  0  0  0
 22  5  1  0  0  0  0
 23 22  1  0  0  0  0
 24 23  1  0  0  0  0
 25 23  2  0  0  0  0
M  END
>  <MODEL>
7

>  <REMARK>
 VINA RESULT:      -5.7      1.734      2.571
  Name = 
  1 active torsions:
  status: ('A' for Active; 'I' for Inactive)
    1  A    between atoms: C_2  and  C_25
                            x       y       z     vdW  Elec       q    Type
                         _______ _______ _______ _____ _____    ______ ____

>  <TORSDO>
F 1

$$$$
=
 OpenBabel11052422203D

 25 29  0  0  1  0  0  0  0  0999 V2000
  161.4150  207.6080  152.8490 C   0  0  0  0  0  0  0  0  0  0  0  0
  161.6450  206.4730  152.0610 C   0  0  0  0  0  0  0  0  0  0  0  0
  160.3870  206.3140  154.6030 C   0  0  0  0  0  3  0  0  0  0  0  0
  161.8210  209.0250  152.6390 C   0  0  2  0  0  3  0  0  0  0  0  0
  161.5310  206.1520  149.5780 C   0  0  1  0  0  0  0  0  0  0  0  0
  160.7830  211.7100  152.7680 C   0  0  0  0  0  3  0  0  0  0  0  0
  160.5790  205.1610  153.8300 C   0  0  0  0  0  3  0  0  0  0  0  0
  161.2440  209.6380  153.8870 C   0  0  0  0  0  0  0  0  0  0  0  0
  160.9730  211.0780  153.9340 C   0  0  0  0  0  3  0  0  0  0  0  0
  161.3550  203.9680  151.8170 N   0  0  0  0  0  0  0  0  0  0  0  0
  160.8900  202.7100  152.3860 C   0  0  0  0  0  1  0  0  0  0  0  0
  160.3620  207.0530  149.2120 C   0  0  0  0  0  2  0  0  0  0  0  0
  162.3650  206.6520  150.7570 C   0  0  0  0  0  2  0  0  0  0  0  0
  160.7970  210.9600  151.4840 C   0  0  0  0  0  3  0  0  0  0  0  0
  160.8310  207.5230  154.0880 C   0  0  0  0  0  0  0  0  0  0  0  0
  160.6950  208.7950  154.7030 N   0  0  0  0  0  0  0  0  0  0  0  0
  161.9840  203.8680  150.5040 C   0  0  0  0  0  2  0  0  0  0  0  0
  162.3640  208.2650  148.2610 C   0  0  0  0  0  1  0  0  0  0  0  0
  161.2190  209.6860  151.4250 C   0  0  0  0  0  3  0  0  0  0  0  0
  161.2010  204.6650  149.4730 C   0  0  0  0  0  2  0  0  0  0  0  0
  161.2060  205.2060  152.5590 C   0  0  0  0  0  0  0  0  0  0  0  0
  161.5670  206.9710  148.2890 C   0  0  1  0  0  0  0  0  0  0  0  0
  161.2740  206.2980  146.9860 C   0  0  0  0  0  0  0  0  0  0  0  0
  160.0860  206.2080  146.5770 O   0  0  0  0  0  1  0  0  0  0  0  0
  162.3020  205.7290  146.2440 O   0  0  0  0  0  0  0  0  0  0  0  0
  1 15  1  0  0  0  0
  2 21  1  0  0  0  0
  2  1  2  0  0  0  0
  4 19  1  6  0  0  0
  4  1  1  0  0  0  0
  4  8  1  0  0  0  0
  5 12  1  1  0  0  0
  5 13  1  0  0  0  0
  6  9  2  0  0  0  0
  7  3  1  0  0  0  0
  8  9  1  0  0  0  0
  8 16  2  0  0  0  0
 10 11  1  0  0  0  0
 10 21  1  0  0  0  0
 13  2  1  0  0  0  0
 14  6  1  0  0  0  0
 15  3  2  0  0  0  0
 15 16  1  0  0  0  0
 17 10  1  0  0  0  0
 19 14  2  0  0  0  0
 20  5  1  0  0  0  0
 20 17  1  0  0  0  0
 21  7  2  0  0  0  0
 22 18  1  6  0  0  0
 22 12  1  0  0  0  0
 22  5  1  0  0  0  0
 23 22  1  0  0  0  0
 24 23  1  0  0  0  0
 25 23  2  0  0  0  0
M  END
>  <MODEL>
8

>  <REMARK>
 VINA RESULT:      -5.7      1.469      2.134
  Name = 
  1 active torsions:
  status: ('A' for Active; 'I' for Inactive)
    1  A    between atoms: C_2  and  C_25
                            x       y       z     vdW  Elec       q    Type
                         _______ _______ _______ _____ _____    ______ ____

>  <TORSDO>
F 1

$$$$
=
 OpenBabel11052422203D

 25 29  0  0  1  0  0  0  0  0999 V2000
  161.8400  209.1820  151.0530 C   0  0  0  0  0  0  0  0  0  0  0  0
  161.5480  210.5510  150.9770 C   0  0  0  0  0  0  0  0  0  0  0  0
  161.9980  208.9750  148.6560 C   0  0  0  0  0  3  0  0  0  0  0  0
  162.0760  208.3120  152.2370 C   0  0  2  0  0  3  0  0  0  0  0  0
  160.0070  211.9750  152.3470 C   0  0  1  0  0  0  0  0  0  0  0  0
  161.3570  205.7420  153.3230 C   0  0  0  0  0  3  0  0  0  0  0  0
  161.6830  210.3350  148.5430 C   0  0  0  0  0  3  0  0  0  0  0  0
  162.3430  207.0050  151.5380 C   0  0  0  0  0  0  0  0  0  0  0  0
  162.1770  205.7430  152.2630 C   0  0  0  0  0  3  0  0  0  0  0  0
  161.1230  212.5480  149.4770 N   0  0  0  0  0  0  0  0  0  0  0  0
  161.0510  213.0960  148.1290 C   0  0  0  0  0  1  0  0  0  0  0  0
  158.8600  211.0110  152.6090 C   0  0  0  0  0  2  0  0  0  0  0  0
  161.3810  211.3100  152.2600 C   0  0  0  0  0  2  0  0  0  0  0  0
  160.6090  206.9680  153.7090 C   0  0  0  0  0  3  0  0  0  0  0  0
  162.0830  208.4320  149.9300 C   0  0  0  0  0  0  0  0  0  0  0  0
  162.3530  207.0740  150.2440 N   0  0  0  0  0  0  0  0  0  0  0  0
  160.8700  213.4980  150.5540 C   0  0  0  0  0  2  0  0  0  0  0  0
  159.9610  211.2490  154.8710 C   0  0  0  0  0  1  0  0  0  0  0  0
  160.8940  208.1600  153.1600 C   0  0  0  0  0  3  0  0  0  0  0  0
  159.6490  213.0830  151.3610 C   0  0  0  0  0  2  0  0  0  0  0  0
  161.4560  211.1500  149.6820 C   0  0  0  0  0  0  0  0  0  0  0  0
  159.3040  211.9680  153.7040 C   0  0  1  0  0  0  0  0  0  0  0  0
  158.2960  213.0300  154.0100 C   0  0  0  0  0  0  0  0  0  0  0  0
  158.6490  214.0750  154.6180 O   0  0  0  0  0  1  0  0  0  0  0  0
  156.9620  212.8500  153.6690 O   0  0  0  0  0  0  0  0  0  0  0  0
  1  4  1  0  0  0  0
  2  1  1  0  0  0  0
  2 13  1  0  0  0  0
  3 15  1  0  0  0  0
  4 19  1  1  0  0  0
  5 20  1  6  0  0  0
  5 12  1  0  0  0  0
  5 22  1  0  0  0  0
  6 14  1  0  0  0  0
  7  3  2  0  0  0  0
  7 21  1  0  0  0  0
  8  4  1  0  0  0  0
  8  9  1  0  0  0  0
  9  6  2  0  0  0  0
 10 21  1  0  0  0  0
 10 17  1  0  0  0  0
 11 10  1  0  0  0  0
 12 22  1  0  0  0  0
 13  5  1  0  0  0  0
 15 16  1  0  0  0  0
 15  1  2  0  0  0  0
 16  8  2  0  0  0  0
 17 20  1  0  0  0  0
 19 14  2  0  0  0  0
 21  2  2  0  0  0  0
 22 23  1  0  0  0  0
 22 18  1  1  0  0  0
 23 24  1  0  0  0  0
 25 23  2  0  0  0  0
M  END
>  <MODEL>
9

>  <REMARK>
 VINA RESULT:      -5.4      4.418      7.750
  Name = 
  1 active torsions:
  status: ('A' for Active; 'I' for Inactive)
    1  A    between atoms: C_2  and  C_25
                            x       y       z     vdW  Elec       q    Type
                         _______ _______ _______ _____ _____    ______ ____

>  <TORSDO>
F 1

$$$$
