=
 OpenBabel11052421443D

 30 34  0  0  1  0  0  0  0  0999 V2000
  160.5920  210.2150  153.0200 C   0  0  0  0  0  0  0  0  0  0  0  0
  160.3720  210.6000  154.3860 C   0  0  0  0  0  0  0  0  0  0  0  0
  160.1680  211.0650  151.9850 C   0  0  0  0  0  3  0  0  0  0  0  0
  158.6880  213.9860  153.6140 C   0  0  0  0  0  2  0  0  0  0  0  0
  159.3740  212.6630  153.5920 C   0  0  0  0  0  0  0  0  0  0  0  0
  159.0800  213.2030  151.4130 O   0  0  0  0  0  0  0  0  0  0  0  0
  159.5620  212.2710  152.3040 C   0  0  0  0  0  0  0  0  0  0  0  0
  159.7650  211.8560  154.6650 C   0  0  0  0  0  0  0  0  0  0  0  0
  157.0570  214.4510  151.7770 C   0  0  0  0  0  1  0  0  0  0  0  0
  158.5280  214.3140  152.1160 C   0  0  1  0  0  3  0  0  0  0  0  0
  162.2210  209.1290  151.3750 C   0  0  1  0  0  3  0  0  0  0  0  0
  162.9150  207.8000  151.0880 C   0  0  0  0  0  2  0  0  0  0  0  0
  161.5380  209.5630  150.2380 O   0  0  0  0  0  1  0  0  0  0  0  0
  160.4090  207.6900  152.4760 C   0  0  0  0  0  2  0  0  0  0  0  0
  162.1000  205.8990  153.1120 C   0  0  0  0  0  1  0  0  0  0  0  0
  161.2730  208.9470  152.5640 C   0  0  2  0  0  3  0  0  0  0  0  0
  161.9730  206.7800  150.8240 O   0  0  0  0  0  0  0  0  0  0  0  0
  161.2380  206.4930  152.0010 C   0  0  2  0  0  3  0  0  0  0  0  0
  160.3740  213.3160  156.6030 C   0  0  0  0  0  1  0  0  0  0  0  0
  159.5300  212.2890  156.0130 N   0  0  0  0  0  0  0  0  0  0  0  0
  158.2920  211.9250  156.6820 C   0  0  0  0  0  2  0  0  0  0  0  0
  157.5020  211.1670  155.8370 F   0  0  0  0  0  0  0  0  0  0  0  0
  160.8270  209.7790  155.4850 N   0  0  0  0  0  0  0  0  0  0  0  0
  160.6570  208.1510  157.1550 C   0  0  0  0  0  2  0  0  0  0  0  0
  160.2600  207.5470  155.8930 C   0  0  1  0  0  3  0  0  0  0  0  0
  159.0380  206.6810  156.1110 C   0  0  0  0  0  1  0  0  0  0  0  0
  159.9080  208.9530  156.1700 N   0  0  0  0  0  0  0  0  0  0  0  0
  162.2640  209.6210  155.7370 C   0  0  1  0  0  3  0  0  0  0  0  0
  162.9460  210.7850  155.3290 O   0  0  0  0  0  0  0  0  0  0  0  0
  162.7520  210.6260  156.7120 C   0  0  0  0  0  2  0  0  0  0  0  0
  1  2  1  0  0  0  0
  2  8  2  0  0  0  0
  2 23  1  0  0  0  0
  3  7  1  0  0  0  0
  3  1  2  0  0  0  0
  5  4  1  0  0  0  0
  5  8  1  0  0  0  0
  6 10  1  0  0  0  0
  6  7  1  0  0  0  0
  7  5  2  0  0  0  0
  8 20  1  0  0  0  0
 10  9  1  6  0  0  0
 10  4  1  0  0  0  0
 11 13  1  6  0  0  0
 11 16  1  0  0  0  0
 12 11  1  0  0  0  0
 14 16  1  0  0  0  0
 16  1  1  6  0  0  0
 17 12  1  0  0  0  0
 17 18  1  0  0  0  0
 18 14  1  0  0  0  0
 18 15  1  1  0  0  0
 20 19  1  0  0  0  0
 20 21  1  0  0  0  0
 22 21  1  0  0  0  0
 23 27  1  0  0  0  0
 25 26  1  1  0  0  0
 25 27  1  0  0  0  0
 25 24  1  0  0  0  0
 27 24  1  0  0  0  0
 28 23  1  6  0  0  0
 28 30  1  0  0  0  0
 29 28  1  0  0  0  0
 29 30  1  0  0  0  0
M  END
>  <MODEL>
1

>  <REMARK>
 VINA RESULT:      -4.4      0.000      0.000
  Name = 
  6 active torsions:
  status: ('A' for Active; 'I' for Inactive)
    1  A    between atoms: C_1  and  C_22
    2  A    between atoms: C_4  and  N_23
    3  A    between atoms: C_7  and  N_30
    4  A    between atoms: C_10  and  N_23
    5  A    between atoms: C_13  and  N_30
    6  A    between atoms: N_23  and  N_25
                            x       y       z     vdW  Elec       q    Type
                         _______ _______ _______ _____ _____    ______ ____

>  <TORSDO>
F 6

$$$$
=
 OpenBabel11052421443D

 30 34  0  0  1  0  0  0  0  0999 V2000
  160.5710  210.0820  153.1420 C   0  0  0  0  0  0  0  0  0  0  0  0
  160.3940  210.4020  154.5310 C   0  0  0  0  0  0  0  0  0  0  0  0
  160.0600  210.9480  152.1620 C   0  0  0  0  0  3  0  0  0  0  0  0
  158.5110  213.7240  153.9690 C   0  0  0  0  0  2  0  0  0  0  0  0
  159.2590  212.4410  153.8640 C   0  0  0  0  0  0  0  0  0  0  0  0
  158.8420  213.0480  151.7230 O   0  0  0  0  0  0  0  0  0  0  0  0
  159.4100  212.1080  152.5540 C   0  0  0  0  0  0  0  0  0  0  0  0
  159.7380  211.6140  154.8860 C   0  0  0  0  0  0  0  0  0  0  0  0
  156.7770  214.1740  152.2230 C   0  0  0  0  0  1  0  0  0  0  0  0
  158.2670  214.1010  152.4930 C   0  0  1  0  0  3  0  0  0  0  0  0
  162.1840  209.1460  151.3910 C   0  0  1  0  0  3  0  0  0  0  0  0
  162.9290  207.8670  151.0220 C   0  0  0  0  0  2  0  0  0  0  0  0
  161.4350  209.5920  150.3010 O   0  0  0  0  0  1  0  0  0  0  0  0
  160.4890  207.5750  152.4990 C   0  0  0  0  0  2  0  0  0  0  0  0
  162.2890  205.8470  152.9930 C   0  0  0  0  0  1  0  0  0  0  0  0
  161.2950  208.8700  152.6070 C   0  0  2  0  0  3  0  0  0  0  0  0
  162.0270  206.8120  150.7510 O   0  0  0  0  0  0  0  0  0  0  0  0
  161.3550  206.4410  151.9420 C   0  0  2  0  0  3  0  0  0  0  0  0
  160.4090  212.9750  156.8750 C   0  0  0  0  0  1  0  0  0  0  0  0
  159.5420  211.9830  156.2590 N   0  0  0  0  0  0  0  0  0  0  0  0
  158.3190  211.5940  156.9430 C   0  0  0  0  0  2  0  0  0  0  0  0
  157.4610  210.9680  156.0580 F   0  0  0  0  0  0  0  0  0  0  0  0
  160.9380  209.5650  155.5760 N   0  0  0  0  0  0  0  0  0  0  0  0
  162.4890  209.0920  157.2590 C   0  0  0  0  0  2  0  0  0  0  0  0
  162.4170  210.5360  157.1050 C   0  0  1  0  0  3  0  0  0  0  0  0
  163.8120  211.1200  157.1600 C   0  0  0  0  0  1  0  0  0  0  0  0
  162.3050  209.6700  155.9150 N   0  0  0  0  0  0  0  0  0  0  0  0
  160.0400  208.7860  156.4350 C   0  0  1  0  0  3  0  0  0  0  0  0
  159.0380  208.1820  155.6480 O   0  0  0  0  0  0  0  0  0  0  0  0
  160.0790  207.3450  156.0870 C   0  0  0  0  0  2  0  0  0  0  0  0
  1  2  1  0  0  0  0
  2  8  2  0  0  0  0
  2 23  1  0  0  0  0
  3  7  1  0  0  0  0
  3  1  2  0  0  0  0
  5  4  1  0  0  0  0
  5  8  1  0  0  0  0
  6 10  1  0  0  0  0
  6  7  1  0  0  0  0
  7  5  2  0  0  0  0
  8 20  1  0  0  0  0
 10  9  1  1  0  0  0
 10  4  1  0  0  0  0
 11 13  1  6  0  0  0
 11 16  1  0  0  0  0
 12 11  1  0  0  0  0
 14 16  1  0  0  0  0
 16  1  1  6  0  0  0
 17 12  1  0  0  0  0
 17 18  1  0  0  0  0
 18 14  1  0  0  0  0
 18 15  1  1  0  0  0
 20 19  1  0  0  0  0
 20 21  1  0  0  0  0
 22 21  1  0  0  0  0
 23 27  1  0  0  0  0
 25 26  1  6  0  0  0
 25 24  1  0  0  0  0
 27 25  1  0  0  0  0
 27 24  1  0  0  0  0
 28 23  1  6  0  0  0
 29 30  1  0  0  0  0
 29 28  1  0  0  0  0
 30 28  1  0  0  0  0
M  END
>  <MODEL>
2

>  <REMARK>
 VINA RESULT:      -4.0      1.045      1.985
  Name = 
  6 active torsions:
  status: ('A' for Active; 'I' for Inactive)
    1  A    between atoms: C_1  and  C_22
    2  A    between atoms: C_4  and  N_23
    3  A    between atoms: C_7  and  N_30
    4  A    between atoms: C_10  and  N_23
    5  A    between atoms: C_13  and  N_30
    6  A    between atoms: N_23  and  N_25
                            x       y       z     vdW  Elec       q    Type
                         _______ _______ _______ _____ _____    ______ ____

>  <TORSDO>
F 6

$$$$
=
 OpenBabel11052421443D

 30 34  0  0  1  0  0  0  0  0999 V2000
  160.4450  210.3520  153.5180 C   0  0  0  0  0  0  0  0  0  0  0  0
  159.4360  211.3510  153.2960 C   0  0  0  0  0  0  0  0  0  0  0  0
  161.4250  210.1300  152.5370 C   0  0  0  0  0  3  0  0  0  0  0  0
  160.7180  212.4960  149.8400 C   0  0  0  0  0  2  0  0  0  0  0  0
  160.4840  211.8640  151.1690 C   0  0  0  0  0  0  0  0  0  0  0  0
  162.2900  210.7920  150.3240 O   0  0  0  0  0  0  0  0  0  0  0  0
  161.4140  210.8950  151.3810 C   0  0  0  0  0  0  0  0  0  0  0  0
  159.4760  212.1260  152.1030 C   0  0  0  0  0  0  0  0  0  0  0  0
  161.6190  211.0290  148.0270 C   0  0  0  0  0  1  0  0  0  0  0  0
  161.9610  211.7460  149.3180 C   0  0  1  0  0  3  0  0  0  0  0  0
  161.3740  210.1330  155.8910 C   0  0  1  0  0  3  0  0  0  0  0  0
  161.3350  209.2080  157.1040 C   0  0  0  0  0  2  0  0  0  0  0  0
  162.6970  210.3700  155.5150 O   0  0  0  0  0  1  0  0  0  0  0  0
  160.8850  208.0130  154.5370 C   0  0  0  0  0  2  0  0  0  0  0  0
  159.6160  206.9660  156.4770 C   0  0  0  0  0  1  0  0  0  0  0  0
  160.5730  209.4940  154.7530 C   0  0  2  0  0  3  0  0  0  0  0  0
  161.8520  207.9310  156.7870 O   0  0  0  0  0  0  0  0  0  0  0  0
  160.9850  207.2770  155.8770 C   0  0  2  0  0  3  0  0  0  0  0  0
  158.6280  214.4530  152.4490 C   0  0  0  0  0  1  0  0  0  0  0  0
  158.4960  213.1400  151.8380 N   0  0  0  0  0  0  0  0  0  0  0  0
  157.5480  212.9610  150.7510 C   0  0  0  0  0  2  0  0  0  0  0  0
  156.6280  213.9930  150.7510 F   0  0  0  0  0  0  0  0  0  0  0  0
  158.4320  211.6450  154.2930 N   0  0  0  0  0  0  0  0  0  0  0  0
  156.1940  212.2560  154.5770 C   0  0  0  0  0  2  0  0  0  0  0  0
  156.4580  211.1050  155.4250 C   0  0  1  0  0  3  0  0  0  0  0  0
  155.2990  210.1370  155.3390 C   0  0  0  0  0  1  0  0  0  0  0  0
  157.1060  211.2000  154.1020 N   0  0  0  0  0  0  0  0  0  0  0  0
  158.8280  212.1910  155.5960 C   0  0  1  0  0  3  0  0  0  0  0  0
  159.9960  212.9660  155.4480 O   0  0  0  0  0  0  0  0  0  0  0  0
  158.7900  213.6740  155.5910 C   0  0  0  0  0  2  0  0  0  0  0  0
  2  1  1  0  0  0  0
  2 23  1  0  0  0  0
  3  1  2  0  0  0  0
  4  5  1  0  0  0  0
  5  7  2  0  0  0  0
  5  8  1  0  0  0  0
  6  7  1  0  0  0  0
  7  3  1  0  0  0  0
  8  2  2  0  0  0  0
 10  9  1  6  0  0  0
 10  4  1  0  0  0  0
 10  6  1  0  0  0  0
 11 13  1  6  0  0  0
 11 12  1  0  0  0  0
 14 16  1  0  0  0  0
 14 18  1  0  0  0  0
 16  1  1  6  0  0  0
 16 11  1  0  0  0  0
 17 12  1  0  0  0  0
 18 15  1  1  0  0  0
 18 17  1  0  0  0  0
 20  8  1  0  0  0  0
 20 19  1  0  0  0  0
 21 22  1  0  0  0  0
 21 20  1  0  0  0  0
 24 25  1  0  0  0  0
 25 26  1  6  0  0  0
 27 23  1  0  0  0  0
 27 24  1  0  0  0  0
 27 25  1  0  0  0  0
 28 23  1  6  0  0  0
 29 30  1  0  0  0  0
 29 28  1  0  0  0  0
 30 28  1  0  0  0  0
M  END
>  <MODEL>
3

>  <REMARK>
 VINA RESULT:      -3.3      2.455      4.496
  Name = 
  6 active torsions:
  status: ('A' for Active; 'I' for Inactive)
    1  A    between atoms: C_1  and  C_22
    2  A    between atoms: C_4  and  N_23
    3  A    between atoms: C_7  and  N_30
    4  A    between atoms: C_10  and  N_23
    5  A    between atoms: C_13  and  N_30
    6  A    between atoms: N_23  and  N_25
                            x       y       z     vdW  Elec       q    Type
                         _______ _______ _______ _____ _____    ______ ____

>  <TORSDO>
F 6

$$$$
=
 OpenBabel11052421443D

 30 34  0  0  1  0  0  0  0  0999 V2000
  158.7350  212.3080  153.7990 C   0  0  0  0  0  0  0  0  0  0  0  0
  159.8250  211.3740  153.8480 C   0  0  0  0  0  0  0  0  0  0  0  0
  158.5220  213.0610  152.6320 C   0  0  0  0  0  3  0  0  0  0  0  0
  161.0970  212.0090  150.2600 C   0  0  0  0  0  2  0  0  0  0  0  0
  160.3730  211.9710  151.5610 C   0  0  0  0  0  0  0  0  0  0  0  0
  159.2900  213.5370  150.3380 O   0  0  0  0  0  0  0  0  0  0  0  0
  159.3560  212.8730  151.5410 C   0  0  0  0  0  0  0  0  0  0  0  0
  160.6430  211.1990  152.6960 C   0  0  0  0  0  0  0  0  0  0  0  0
  161.2350  214.2200  149.1000 C   0  0  0  0  0  1  0  0  0  0  0  0
  160.3140  213.0720  149.4620 C   0  0  1  0  0  3  0  0  0  0  0  0
  156.9630  211.3260  155.3590 C   0  0  1  0  0  3  0  0  0  0  0  0
  156.0840  211.7020  156.5490 C   0  0  0  0  0  2  0  0  0  0  0  0
  156.1740  210.8180  154.3260 O   0  0  0  0  0  1  0  0  0  0  0  0
  156.8940  213.8260  154.8030 C   0  0  0  0  0  2  0  0  0  0  0  0
  156.6460  214.4510  157.2560 C   0  0  0  0  0  1  0  0  0  0  0  0
  157.7460  212.5620  154.9110 C   0  0  2  0  0  3  0  0  0  0  0  0
  155.2030  212.7570  156.2180 O   0  0  0  0  0  0  0  0  0  0  0  0
  155.9440  213.9450  155.9980 C   0  0  2  0  0  3  0  0  0  0  0  0
  162.8670  210.4800  153.5860 C   0  0  0  0  0  1  0  0  0  0  0  0
  161.7390  210.2740  152.6920 N   0  0  0  0  0  0  0  0  0  0  0  0
  161.5980  208.9910  152.0210 C   0  0  0  0  0  2  0  0  0  0  0  0
  160.2680  208.6150  151.9960 F   0  0  0  0  0  0  0  0  0  0  0  0
  160.0600  210.5460  155.0090 N   0  0  0  0  0  0  0  0  0  0  0  0
  159.7810  208.6740  156.3800 C   0  0  0  0  0  2  0  0  0  0  0  0
  160.7620  208.3430  155.3590 C   0  0  1  0  0  3  0  0  0  0  0  0
  160.5010  206.9460  154.8410 C   0  0  0  0  0  1  0  0  0  0  0  0
  159.6150  209.2060  155.0150 N   0  0  0  0  0  0  0  0  0  0  0  0
  160.9540  211.0140  156.0740 C   0  0  1  0  0  3  0  0  0  0  0  0
  160.9130  212.4210  156.1430 O   0  0  0  0  0  0  0  0  0  0  0  0
  160.2000  211.7260  157.1350 C   0  0  0  0  0  2  0  0  0  0  0  0
  1  2  1  0  0  0  0
  2 23  1  0  0  0  0
  3  1  2  0  0  0  0
  4  5  1  0  0  0  0
  5  8  1  0  0  0  0
  6  7  1  0  0  0  0
  7  5  2  0  0  0  0
  7  3  1  0  0  0  0
  8  2  2  0  0  0  0
 10  9  1  1  0  0  0
 10  4  1  0  0  0  0
 10  6  1  0  0  0  0
 11 13  1  6  0  0  0
 11 12  1  0  0  0  0
 14 16  1  0  0  0  0
 14 18  1  0  0  0  0
 16  1  1  6  0  0  0
 16 11  1  0  0  0  0
 17 12  1  0  0  0  0
 18 17  1  0  0  0  0
 18 15  1  1  0  0  0
 20  8  1  0  0  0  0
 20 19  1  0  0  0  0
 21 20  1  0  0  0  0
 22 21  1  0  0  0  0
 23 27  1  0  0  0  0
 25 26  1  6  0  0  0
 25 24  1  0  0  0  0
 27 25  1  0  0  0  0
 27 24  1  0  0  0  0
 28 23  1  6  0  0  0
 28 29  1  0  0  0  0
 28 30  1  0  0  0  0
 29 30  1  0  0  0  0
M  END
>  <MODEL>
4

>  <REMARK>
 VINA RESULT:      -3.0      2.583      5.270
  Name = 
  6 active torsions:
  status: ('A' for Active; 'I' for Inactive)
    1  A    between atoms: C_1  and  C_22
    2  A    between atoms: C_4  and  N_23
    3  A    between atoms: C_7  and  N_30
    4  A    between atoms: C_10  and  N_23
    5  A    between atoms: C_13  and  N_30
    6  A    between atoms: N_23  and  N_25
                            x       y       z     vdW  Elec       q    Type
                         _______ _______ _______ _____ _____    ______ ____

>  <TORSDO>
F 6

$$$$
=
 OpenBabel11052421443D

 30 34  0  0  1  0  0  0  0  0999 V2000
  160.2330  210.4030  152.9610 C   0  0  0  0  0  0  0  0  0  0  0  0
  160.2990  210.0270  154.3460 C   0  0  0  0  0  0  0  0  0  0  0  0
  160.5020  209.4430  151.9710 C   0  0  0  0  0  3  0  0  0  0  0  0
  161.2110  206.3250  153.7450 C   0  0  0  0  0  2  0  0  0  0  0  0
  160.8420  207.7660  153.6550 C   0  0  0  0  0  0  0  0  0  0  0  0
  161.1050  207.0970  151.5080 O   0  0  0  0  0  0  0  0  0  0  0  0
  160.8050  208.1440  152.3500 C   0  0  0  0  0  0  0  0  0  0  0  0
  160.5940  208.6770  154.6870 C   0  0  0  0  0  0  0  0  0  0  0  0
  162.7780  205.4420  152.0070 C   0  0  0  0  0  1  0  0  0  0  0  0
  161.3610  205.9170  152.2650 C   0  0  1  0  0  3  0  0  0  0  0  0
  158.5860  212.3580  153.0220 C   0  0  1  0  0  3  0  0  0  0  0  0
  158.4020  213.7770  152.4910 C   0  0  0  0  0  2  0  0  0  0  0  0
  157.4760  211.5790  152.6900 O   0  0  0  0  0  1  0  0  0  0  0  0
  160.0330  212.0040  150.9370 C   0  0  0  0  0  2  0  0  0  0  0  0
  160.7200  214.4530  150.8960 C   0  0  0  0  0  1  0  0  0  0  0  0
  159.8760  211.7740  152.4390 C   0  0  2  0  0  3  0  0  0  0  0  0
  158.3630  213.7920  151.0780 O   0  0  0  0  0  0  0  0  0  0  0  0
  159.6330  213.4350  150.5610 C   0  0  2  0  0  3  0  0  0  0  0  0
  159.6680  207.3300  156.5800 C   0  0  0  0  0  1  0  0  0  0  0  0
  160.6640  208.2510  156.0550 N   0  0  0  0  0  0  0  0  0  0  0  0
  161.8710  208.4980  156.8270 C   0  0  0  0  0  2  0  0  0  0  0  0
  162.6850  209.3940  156.1580 F   0  0  0  0  0  0  0  0  0  0  0  0
  159.9900  210.9670  155.3990 N   0  0  0  0  0  0  0  0  0  0  0  0
  157.7380  210.3430  155.4510 C   0  0  0  0  0  2  0  0  0  0  0  0
  157.8440  211.6930  155.9780 C   0  0  1  0  0  3  0  0  0  0  0  0
  156.9540  211.8320  157.1940 C   0  0  0  0  0  1  0  0  0  0  0  0
  158.9070  210.7130  156.2690 N   0  0  0  0  0  0  0  0  0  0  0  0
  160.9280  212.0510  155.7140 C   0  0  1  0  0  3  0  0  0  0  0  0
  160.3030  212.9850  156.5640 O   0  0  0  0  0  0  0  0  0  0  0  0
  161.2180  212.1050  157.1670 C   0  0  0  0  0  2  0  0  0  0  0  0
  1  2  1  0  0  0  0
  2  8  2  0  0  0  0
  2 23  1  0  0  0  0
  3  7  1  0  0  0  0
  3  1  2  0  0  0  0
  5  4  1  0  0  0  0
  5  8  1  0  0  0  0
  6 10  1  0  0  0  0
  6  7  1  0  0  0  0
  7  5  2  0  0  0  0
  8 20  1  0  0  0  0
 10  9  1  1  0  0  0
 10  4  1  0  0  0  0
 11 13  1  6  0  0  0
 12 11  1  0  0  0  0
 14 16  1  0  0  0  0
 16  1  1  6  0  0  0
 16 11  1  0  0  0  0
 17 12  1  0  0  0  0
 18 15  1  1  0  0  0
 18 14  1  0  0  0  0
 18 17  1  0  0  0  0
 20 19  1  0  0  0  0
 20 21  1  0  0  0  0
 22 21  1  0  0  0  0
 23 27  1  0  0  0  0
 24 25  1  0  0  0  0
 24 27  1  0  0  0  0
 25 27  1  0  0  0  0
 25 26  1  1  0  0  0
 28 23  1  1  0  0  0
 28 29  1  0  0  0  0
 28 30  1  0  0  0  0
 29 30  1  0  0  0  0
M  END
>  <MODEL>
5

>  <REMARK>
 VINA RESULT:      -2.8      1.809      5.498
  Name = 
  6 active torsions:
  status: ('A' for Active; 'I' for Inactive)
    1  A    between atoms: C_1  and  C_22
    2  A    between atoms: C_4  and  N_23
    3  A    between atoms: C_7  and  N_30
    4  A    between atoms: C_10  and  N_23
    5  A    between atoms: C_13  and  N_30
    6  A    between atoms: N_23  and  N_25
                            x       y       z     vdW  Elec       q    Type
                         _______ _______ _______ _____ _____    ______ ____

>  <TORSDO>
F 6

$$$$
=
 OpenBabel11052421443D

 30 34  0  0  1  0  0  0  0  0999 V2000
  159.7850  210.4830  153.2800 C   0  0  0  0  0  0  0  0  0  0  0  0
  160.1150  210.0790  154.6180 C   0  0  0  0  0  0  0  0  0  0  0  0
  160.0760  209.6250  152.2060 C   0  0  0  0  0  3  0  0  0  0  0  0
  161.5800  206.6340  153.6780 C   0  0  0  0  0  2  0  0  0  0  0  0
  160.9500  207.9830  153.7250 C   0  0  0  0  0  0  0  0  0  0  0  0
  161.0180  207.4490  151.5270 O   0  0  0  0  0  0  0  0  0  0  0  0
  160.6590  208.3930  152.4620 C   0  0  0  0  0  0  0  0  0  0  0  0
  160.6940  208.7970  154.8340 C   0  0  0  0  0  0  0  0  0  0  0  0
  163.0140  206.1180  151.6950 C   0  0  0  0  0  1  0  0  0  0  0  0
  161.5870  206.3120  152.1700 C   0  0  1  0  0  3  0  0  0  0  0  0
  159.1560  212.0960  151.3970 C   0  0  1  0  0  3  0  0  0  0  0  0
  158.3590  213.3710  151.1380 C   0  0  0  0  0  2  0  0  0  0  0  0
  160.4670  212.2540  150.9430 O   0  0  0  0  0  1  0  0  0  0  0  0
  159.3880  212.9910  153.7870 C   0  0  0  0  0  2  0  0  0  0  0  0
  157.1610  214.2110  153.6340 C   0  0  0  0  0  1  0  0  0  0  0  0
  159.1150  211.7800  152.8940 C   0  0  2  0  0  3  0  0  0  0  0  0
  158.8710  214.4530  151.8900 O   0  0  0  0  0  0  0  0  0  0  0  0
  158.6430  214.2260  153.2700 C   0  0  2  0  0  3  0  0  0  0  0  0
  162.1440  208.9560  156.8660 C   0  0  0  0  0  1  0  0  0  0  0  0
  161.0340  208.3440  156.1520 N   0  0  0  0  0  0  0  0  0  0  0  0
  160.1100  207.4930  156.8840 C   0  0  0  0  0  2  0  0  0  0  0  0
  158.9740  207.2690  156.1280 F   0  0  0  0  0  0  0  0  0  0  0  0
  159.7970  210.9080  155.7580 N   0  0  0  0  0  0  0  0  0  0  0  0
  161.3040  211.9210  157.2300 C   0  0  0  0  0  2  0  0  0  0  0  0
  160.0660  212.6820  157.2580 C   0  0  1  0  0  3  0  0  0  0  0  0
  160.3820  214.1620  157.2610 C   0  0  0  0  0  1  0  0  0  0  0  0
  160.5300  212.0930  155.9870 N   0  0  0  0  0  0  0  0  0  0  0  0
  158.5780  210.6540  156.5340 C   0  0  1  0  0  3  0  0  0  0  0  0
  157.7380  211.7840  156.4810 O   0  0  0  0  0  0  0  0  0  0  0  0
  157.3730  210.6940  155.6720 C   0  0  0  0  0  2  0  0  0  0  0  0
  1  2  1  0  0  0  0
  2  8  2  0  0  0  0
  2 23  1  0  0  0  0
  3  7  1  0  0  0  0
  3  1  2  0  0  0  0
  4  5  1  0  0  0  0
  5  8  1  0  0  0  0
  6 10  1  0  0  0  0
  6  7  1  0  0  0  0
  7  5  2  0  0  0  0
  8 20  1  0  0  0  0
 10  9  1  6  0  0  0
 10  4  1  0  0  0  0
 11 13  1  1  0  0  0
 11 16  1  0  0  0  0
 12 11  1  0  0  0  0
 12 17  1  0  0  0  0
 16  1  1  6  0  0  0
 16 14  1  0  0  0  0
 17 18  1  0  0  0  0
 18 15  1  6  0  0  0
 18 14  1  0  0  0  0
 20 19  1  0  0  0  0
 20 21  1  0  0  0  0
 22 21  1  0  0  0  0
 23 27  1  0  0  0  0
 24 25  1  0  0  0  0
 25 26  1  6  0  0  0
 27 24  1  0  0  0  0
 27 25  1  0  0  0  0
 28 23  1  6  0  0  0
 29 28  1  0  0  0  0
 30 29  1  0  0  0  0
 30 28  1  0  0  0  0
M  END
>  <MODEL>
6

>  <REMARK>
 VINA RESULT:      -2.5      1.762      5.645
  Name = 
  6 active torsions:
  status: ('A' for Active; 'I' for Inactive)
    1  A    between atoms: C_1  and  C_22
    2  A    between atoms: C_4  and  N_23
    3  A    between atoms: C_7  and  N_30
    4  A    between atoms: C_10  and  N_23
    5  A    between atoms: C_13  and  N_30
    6  A    between atoms: N_23  and  N_25
                            x       y       z     vdW  Elec       q    Type
                         _______ _______ _______ _____ _____    ______ ____

>  <TORSDO>
F 6

$$$$
=
 OpenBabel11052421443D

 30 34  0  0  1  0  0  0  0  0999 V2000
  159.5750  212.8160  141.3960 C   0  0  0  0  0  0  0  0  0  0  0  0
  160.0510  212.1650  140.2070 C   0  0  0  0  0  0  0  0  0  0  0  0
  158.2590  213.3060  141.4370 C   0  0  0  0  0  3  0  0  0  0  0  0
  156.7700  212.4810  138.2010 C   0  0  0  0  0  2  0  0  0  0  0  0
  157.8630  212.4940  139.2120 C   0  0  0  0  0  0  0  0  0  0  0  0
  156.1360  213.5660  140.2090 O   0  0  0  0  0  0  0  0  0  0  0  0
  157.4370  213.1340  140.3330 C   0  0  0  0  0  0  0  0  0  0  0  0
  159.1650  211.9930  139.1070 C   0  0  0  0  0  0  0  0  0  0  0  0
  155.2320  214.4530  138.1640 C   0  0  0  0  0  1  0  0  0  0  0  0
  155.6190  213.2030  138.9310 C   0  0  1  0  0  3  0  0  0  0  0  0
  159.6060  212.7040  143.9510 C   0  0  1  0  0  3  0  0  0  0  0  0
  160.5530  212.8530  145.1380 C   0  0  0  0  0  2  0  0  0  0  0  0
  158.5050  213.5470  144.1130 O   0  0  0  0  0  1  0  0  0  0  0  0
  161.2220  214.2870  142.7480 C   0  0  0  0  0  2  0  0  0  0  0  0
  163.1950  213.4490  144.1180 C   0  0  0  0  0  1  0  0  0  0  0  0
  160.3700  213.0210  142.6630 C   0  0  2  0  0  3  0  0  0  0  0  0
  161.1030  214.1540  145.1920 O   0  0  0  0  0  0  0  0  0  0  0  0
  161.9660  214.3540  144.0850 C   0  0  2  0  0  3  0  0  0  0  0  0
  160.5300  212.0080  137.0110 C   0  0  0  0  0  1  0  0  0  0  0  0
  159.5910  211.3440  137.9000 N   0  0  0  0  0  0  0  0  0  0  0  0
  159.3200  209.9280  137.7090 C   0  0  0  0  0  2  0  0  0  0  0  0
  158.6570  209.4210  138.8120 F   0  0  0  0  0  0  0  0  0  0  0  0
  161.3830  211.6080  140.1320 N   0  0  0  0  0  0  0  0  0  0  0  0
  162.0990  213.7440  139.5100 C   0  0  0  0  0  2  0  0  0  0  0  0
  162.8430  212.7730  138.7260 C   0  0  1  0  0  3  0  0  0  0  0  0
  164.2960  213.1910  138.6500 C   0  0  0  0  0  1  0  0  0  0  0  0
  162.5020  212.4690  140.1290 N   0  0  0  0  0  0  0  0  0  0  0  0
  161.5840  210.1640  140.2970 C   0  0  1  0  0  3  0  0  0  0  0  0
  162.2970  209.6570  139.1920 O   0  0  0  0  0  0  0  0  0  0  0  0
  163.0260  209.8290  140.3810 C   0  0  0  0  0  2  0  0  0  0  0  0
  1  3  1  0  0  0  0
  2  1  2  0  0  0  0
  4 10  1  0  0  0  0
  4  5  1  0  0  0  0
  5  7  1  0  0  0  0
  6  7  1  0  0  0  0
  7  3  2  0  0  0  0
  8  5  2  0  0  0  0
  8  2  1  0  0  0  0
 10  9  1  6  0  0  0
 10  6  1  0  0  0  0
 11 13  1  1  0  0  0
 11 12  1  0  0  0  0
 12 17  1  0  0  0  0
 14 18  1  0  0  0  0
 16  1  1  6  0  0  0
 16 14  1  0  0  0  0
 16 11  1  0  0  0  0
 18 15  1  6  0  0  0
 18 17  1  0  0  0  0
 19 20  1  0  0  0  0
 20  8  1  0  0  0  0
 21 20  1  0  0  0  0
 21 22  1  0  0  0  0
 23  2  1  0  0  0  0
 24 27  1  0  0  0  0
 25 26  1  1  0  0  0
 25 24  1  0  0  0  0
 25 27  1  0  0  0  0
 27 23  1  0  0  0  0
 28 23  1  6  0  0  0
 28 30  1  0  0  0  0
 29 28  1  0  0  0  0
 29 30  1  0  0  0  0
M  END
>  <MODEL>
7

>  <REMARK>
 VINA RESULT:      -2.4     12.174     14.528
  Name = 
  6 active torsions:
  status: ('A' for Active; 'I' for Inactive)
    1  A    between atoms: C_1  and  C_22
    2  A    between atoms: C_4  and  N_23
    3  A    between atoms: C_7  and  N_30
    4  A    between atoms: C_10  and  N_23
    5  A    between atoms: C_13  and  N_30
    6  A    between atoms: N_23  and  N_25
                            x       y       z     vdW  Elec       q    Type
                         _______ _______ _______ _____ _____    ______ ____

>  <TORSDO>
F 6

$$$$
