=
 OpenBabel11052422143D

 25 28  0  0  1  0  0  0  0  0999 V2000
  161.1360  204.7810  149.0440 C   0  0  0  0  0  0  0  0  0  0  0  0
  161.2540  205.6000  150.1690 C   0  0  0  0  0  0  0  0  0  0  0  0
  160.9920  202.7850  150.3950 C   0  0  0  0  0  3  0  0  0  0  0  0
  161.3660  205.0350  147.5990 C   0  0  1  0  0  3  0  0  0  0  0  0
  161.7650  204.9320  144.9050 C   0  0  0  0  0  2  0  0  0  0  0  0
  161.0570  203.5830  151.5500 C   0  0  0  0  0  3  0  0  0  0  0  0
  160.8670  203.8340  146.9250 N   0  0  1  0  0  0  0  0  0  0  0  0
  161.6990  203.6280  145.7460 C   0  0  0  0  0  2  0  0  0  0  0  0
  161.2880  205.7860  152.6010 C   0  0  0  0  0  0  0  0  0  0  0  0
  161.2240  205.2180  153.8690 O   0  0  0  0  0  1  0  0  0  0  0  0
  161.4310  206.9820  150.0610 C   0  0  0  0  0  3  0  0  0  0  0  0
  160.7770  206.0320  145.3870 C   0  0  0  0  0  2  0  0  0  0  0  0
  161.0410  203.4220  149.1580 C   0  0  0  0  0  0  0  0  0  0  0  0
  161.0300  202.8130  147.8790 N   0  0  0  0  0  2  0  0  0  0  0  0
  161.4560  207.1680  152.4780 C   0  0  0  0  0  3  0  0  0  0  0  0
  160.7830  206.2610  146.9190 C   0  0  0  0  0  2  0  0  0  0  0  0
  161.5280  207.7650  151.2140 C   0  0  0  0  0  0  0  0  0  0  0  0
  161.1900  204.9870  151.4510 C   0  0  0  0  0  0  0  0  0  0  0  0
  161.7570  209.5320  151.0740 S   0  0  0  0  0  0  0  0  0  0  0  0
  160.5570  209.8730  152.3990 C   0  0  0  0  0  2  0  0  0  0  0  0
  161.1270  210.8820  153.3830 C   0  0  0  0  0  2  0  0  0  0  0  0
  161.5030  210.2120  154.6950 C   0  0  0  0  0  2  0  0  0  0  0  0
  160.4090  209.3780  155.1620 N   0  0  0  0  0  2  0  0  0  0  0  0
  161.0020  208.3110  155.9460 C   0  0  0  0  0  2  0  0  0  0  0  0
  159.9310  207.3100  156.3260 C   0  0  0  0  0  1  0  0  0  0  0  0
  1 13  2  0  0  0  0
  1  2  1  0  0  0  0
  2 18  1  0  0  0  0
  3  6  2  0  0  0  0
  4 16  1  6  0  0  0
  4  1  1  0  0  0  0
  5 12  1  0  0  0  0
  5  8  1  0  0  0  0
  7  8  1  6  0  0  0
  7  4  1  0  0  0  0
  7 14  1  0  0  0  0
  9 10  1  0  0  0  0
 11  2  2  0  0  0  0
 11 17  1  0  0  0  0
 12 16  1  0  0  0  0
 13  3  1  0  0  0  0
 14 13  1  0  0  0  0
 15  9  1  0  0  0  0
 17 15  2  0  0  0  0
 18  6  1  0  0  0  0
 18  9  2  0  0  0  0
 19 17  1  0  0  0  0
 19 20  1  0  0  0  0
 20 21  1  0  0  0  0
 21 22  1  0  0  0  0
 22 23  1  0  0  0  0
 23 24  1  0  0  0  0
 24 25  1  0  0  0  0
M  END
>  <MODEL>
1

>  <REMARK>
 VINA RESULT:      -8.6      0.000      0.000
  Name = 
  6 active torsions:
  status: ('A' for Active; 'I' for Inactive)
    1  A    between atoms: C_2  and  N_12
    2  A    between atoms: S_6  and  C_15
    3  A    between atoms: S_6  and  C_23
    4  A    between atoms: N_12  and  C_25
    5  A    between atoms: C_15  and  C_21
    6  A    between atoms: C_21  and  C_25
                            x       y       z     vdW  Elec       q    Type
                         _______ _______ _______ _____ _____    ______ ____

>  <TORSDO>
F 6

$$$$
=
 OpenBabel11052422143D

 25 28  0  0  1  0  0  0  0  0999 V2000
  161.0870  206.8830  151.9890 C   0  0  0  0  0  0  0  0  0  0  0  0
  161.0370  206.0540  150.8660 C   0  0  0  0  0  0  0  0  0  0  0  0
  161.0570  204.9990  153.4990 C   0  0  0  0  0  3  0  0  0  0  0  0
  160.8820  208.3440  152.1580 C   0  0  1  0  0  3  0  0  0  0  0  0
  160.4800  210.8980  153.0230 C   0  0  0  0  0  2  0  0  0  0  0  0
  161.0590  204.1330  152.3920 C   0  0  0  0  0  3  0  0  0  0  0  0
  161.2780  208.6190  153.5410 N   0  0  1  0  0  0  0  0  0  0  0  0
  160.4330  209.7070  154.0190 C   0  0  0  0  0  2  0  0  0  0  0  0
  161.0160  203.7870  149.9650 C   0  0  0  0  0  0  0  0  0  0  0  0
  161.0290  202.4070  150.1350 O   0  0  0  0  0  1  0  0  0  0  0  0
  160.9790  206.5700  149.5690 C   0  0  0  0  0  3  0  0  0  0  0  0
  161.5580  210.7360  151.9130 C   0  0  0  0  0  2  0  0  0  0  0  0
  161.0660  206.3700  153.2560 C   0  0  0  0  0  0  0  0  0  0  0  0
  161.0270  207.4110  154.2160 N   0  0  0  0  0  2  0  0  0  0  0  0
  160.9660  204.3180  148.6730 C   0  0  0  0  0  3  0  0  0  0  0  0
  161.5680  209.3410  151.2400 C   0  0  0  0  0  2  0  0  0  0  0  0
  160.9470  205.7030  148.4740 C   0  0  0  0  0  0  0  0  0  0  0  0
  161.0470  204.6470  151.0750 C   0  0  0  0  0  0  0  0  0  0  0  0
  160.8710  206.3650  146.8160 S   0  0  0  0  0  0  0  0  0  0  0  0
  162.4790  205.6420  146.3670 C   0  0  0  0  0  2  0  0  0  0  0  0
  162.3020  204.5890  145.2840 C   0  0  0  0  0  2  0  0  0  0  0  0
  161.0510  204.8540  144.4630 C   0  0  0  0  0  2  0  0  0  0  0  0
  160.1650  203.7030  144.5170 N   0  0  0  0  0  2  0  0  0  0  0  0
  160.8320  202.6990  145.3260 C   0  0  0  0  0  2  0  0  0  0  0  0
  160.0970  201.3820  145.2000 C   0  0  0  0  0  1  0  0  0  0  0  0
  1  4  1  0  0  0  0
  1 13  1  0  0  0  0
  2 18  1  0  0  0  0
  2  1  2  0  0  0  0
  4 16  1  6  0  0  0
  4  7  1  0  0  0  0
  5  8  1  0  0  0  0
  6  3  1  0  0  0  0
  7  8  1  1  0  0  0
  7 14  1  0  0  0  0
  9 10  1  0  0  0  0
  9 18  1  0  0  0  0
 11  2  1  0  0  0  0
 12  5  1  0  0  0  0
 13  3  2  0  0  0  0
 13 14  1  0  0  0  0
 15  9  2  0  0  0  0
 16 12  1  0  0  0  0
 17 15  1  0  0  0  0
 17 11  2  0  0  0  0
 18  6  2  0  0  0  0
 19 17  1  0  0  0  0
 20 19  1  0  0  0  0
 21 20  1  0  0  0  0
 22 23  1  0  0  0  0
 22 21  1  0  0  0  0
 23 24  1  0  0  0  0
 25 24  1  0  0  0  0
M  END
>  <MODEL>
2

>  <REMARK>
 VINA RESULT:      -8.5      2.112      7.386
  Name = 
  6 active torsions:
  status: ('A' for Active; 'I' for Inactive)
    1  A    between atoms: C_2  and  N_12
    2  A    between atoms: S_6  and  C_15
    3  A    between atoms: S_6  and  C_23
    4  A    between atoms: N_12  and  C_25
    5  A    between atoms: C_15  and  C_21
    6  A    between atoms: C_21  and  C_25
                            x       y       z     vdW  Elec       q    Type
                         _______ _______ _______ _____ _____    ______ ____

>  <TORSDO>
F 6

$$$$
=
 OpenBabel11052422143D

 25 28  0  0  1  0  0  0  0  0999 V2000
  161.1540  204.9190  149.1510 C   0  0  0  0  0  0  0  0  0  0  0  0
  161.2910  205.8230  150.2060 C   0  0  0  0  0  0  0  0  0  0  0  0
  160.9300  203.0460  150.6590 C   0  0  0  0  0  3  0  0  0  0  0  0
  161.4050  205.0440  147.6920 C   0  0  1  0  0  3  0  0  0  0  0  0
  161.8220  204.7060  145.0200 C   0  0  0  0  0  2  0  0  0  0  0  0
  161.0130  203.9340  151.7460 C   0  0  0  0  0  3  0  0  0  0  0  0
  160.8700  203.8100  147.1140 N   0  0  1  0  0  0  0  0  0  0  0  0
  161.7040  203.4800  145.9650 C   0  0  0  0  0  2  0  0  0  0  0  0
  161.3110  206.2070  152.6150 C   0  0  0  0  0  0  0  0  0  0  0  0
  161.2170  205.7480  153.9240 O   0  0  0  0  0  1  0  0  0  0  0  0
  161.5170  207.1850  149.9870 C   0  0  0  0  0  3  0  0  0  0  0  0
  160.8690  205.8750  145.3990 C   0  0  0  0  0  2  0  0  0  0  0  0
  161.0110  203.5780  149.3750 C   0  0  0  0  0  0  0  0  0  0  0  0
  160.9890  202.8660  148.1500 N   0  0  0  0  0  2  0  0  0  0  0  0
  161.5270  207.5690  152.3800 C   0  0  0  0  0  3  0  0  0  0  0  0
  160.8700  206.2290  146.9070 C   0  0  0  0  0  2  0  0  0  0  0  0
  161.6310  208.0560  151.0730 C   0  0  0  0  0  0  0  0  0  0  0  0
  161.1950  205.3200  151.5330 C   0  0  0  0  0  0  0  0  0  0  0  0
  161.9220  209.7970  150.7910 S   0  0  0  0  0  0  0  0  0  0  0  0
  162.0740  209.5620  148.9930 C   0  0  0  0  0  2  0  0  0  0  0  0
  161.6310  210.8160  148.2560 C   0  0  0  0  0  2  0  0  0  0  0  0
  162.5720  211.9770  148.5370 C   0  0  0  0  0  2  0  0  0  0  0  0
  162.0240  213.2070  147.9910 N   0  0  0  0  0  2  0  0  0  0  0  0
  161.5160  212.8880  146.6690 C   0  0  0  0  0  2  0  0  0  0  0  0
  162.4960  213.3740  145.6230 C   0  0  0  0  0  1  0  0  0  0  0  0
  1 13  2  0  0  0  0
  1  2  1  0  0  0  0
  2 18  1  0  0  0  0
  3  6  2  0  0  0  0
  4 16  1  6  0  0  0
  4  1  1  0  0  0  0
  5 12  1  0  0  0  0
  5  8  1  0  0  0  0
  7  8  1  6  0  0  0
  7  4  1  0  0  0  0
  7 14  1  0  0  0  0
  9 10  1  0  0  0  0
 11  2  2  0  0  0  0
 11 17  1  0  0  0  0
 12 16  1  0  0  0  0
 13  3  1  0  0  0  0
 14 13  1  0  0  0  0
 15  9  1  0  0  0  0
 17 15  2  0  0  0  0
 18  6  1  0  0  0  0
 18  9  2  0  0  0  0
 19 17  1  0  0  0  0
 20 19  1  0  0  0  0
 21 22  1  0  0  0  0
 21 20  1  0  0  0  0
 23 22  1  0  0  0  0
 24 23  1  0  0  0  0
 25 24  1  0  0  0  0
M  END
>  <MODEL>
3

>  <REMARK>
 VINA RESULT:      -8.3      2.955      4.091
  Name = 
  6 active torsions:
  status: ('A' for Active; 'I' for Inactive)
    1  A    between atoms: C_2  and  N_12
    2  A    between atoms: S_6  and  C_15
    3  A    between atoms: S_6  and  C_23
    4  A    between atoms: N_12  and  C_25
    5  A    between atoms: C_15  and  C_21
    6  A    between atoms: C_21  and  C_25
                            x       y       z     vdW  Elec       q    Type
                         _______ _______ _______ _____ _____    ______ ____

>  <TORSDO>
F 6

$$$$
=
 OpenBabel11052422143D

 25 28  0  0  1  0  0  0  0  0999 V2000
  161.3620  205.3880  149.6190 C   0  0  0  0  0  0  0  0  0  0  0  0
  161.3740  206.4510  150.5240 C   0  0  0  0  0  0  0  0  0  0  0  0
  161.8590  206.8420  147.7560 C   0  0  0  0  0  3  0  0  0  0  0  0
  160.8830  203.9870  149.7340 C   0  0  1  0  0  3  0  0  0  0  0  0
  160.0580  201.4130  149.3790 C   0  0  0  0  0  2  0  0  0  0  0  0
  161.9290  207.9290  148.6460 C   0  0  0  0  0  3  0  0  0  0  0  0
  161.3450  203.3320  148.5090 N   0  0  1  0  0  0  0  0  0  0  0  0
  160.3480  202.3280  148.1580 C   0  0  0  0  0  2  0  0  0  0  0  0
  161.7260  208.8330  150.9150 C   0  0  0  0  0  0  0  0  0  0  0  0
  162.0340  210.1120  150.4630 O   0  0  0  0  0  1  0  0  0  0  0  0
  161.0890  206.2700  151.8800 C   0  0  0  0  0  3  0  0  0  0  0  0
  161.0350  201.6380  150.5680 C   0  0  0  0  0  2  0  0  0  0  0  0
  161.5660  205.5870  148.2820 C   0  0  0  0  0  0  0  0  0  0  0  0
  161.4090  204.3740  147.5660 N   0  0  0  0  0  2  0  0  0  0  0  0
  161.4470  208.6350  152.2710 C   0  0  0  0  0  3  0  0  0  0  0  0
  161.2630  203.1270  150.9270 C   0  0  0  0  0  2  0  0  0  0  0  0
  161.1290  207.3610  152.7520 C   0  0  0  0  0  0  0  0  0  0  0  0
  161.6880  207.7460  150.0270 C   0  0  0  0  0  0  0  0  0  0  0  0
  160.7630  207.1280  154.4860 S   0  0  0  0  0  0  0  0  0  0  0  0
  161.0800  208.8780  154.8700 C   0  0  0  0  0  2  0  0  0  0  0  0
  159.8850  209.4870  155.5870 C   0  0  0  0  0  2  0  0  0  0  0  0
  159.4250  210.7610  154.8970 C   0  0  0  0  0  2  0  0  0  0  0  0
  160.5670  211.4650  154.3370 N   0  0  0  0  0  2  0  0  0  0  0  0
  160.1420  211.9980  153.0560 C   0  0  0  0  0  2  0  0  0  0  0  0
  158.7740  211.4500  152.7110 C   0  0  0  0  0  1  0  0  0  0  0  0
  1  4  1  0  0  0  0
  1  2  1  0  0  0  0
  2 11  1  0  0  0  0
  3 13  1  0  0  0  0
  3  6  2  0  0  0  0
  4 16  1  1  0  0  0
  5 12  1  0  0  0  0
  6 18  1  0  0  0  0
  7  8  1  6  0  0  0
  7  4  1  0  0  0  0
  8  5  1  0  0  0  0
  9 15  2  0  0  0  0
 10  9  1  0  0  0  0
 11 17  2  0  0  0  0
 12 16  1  0  0  0  0
 13  1  2  0  0  0  0
 14 13  1  0  0  0  0
 14  7  1  0  0  0  0
 15 17  1  0  0  0  0
 17 19  1  0  0  0  0
 18  2  2  0  0  0  0
 18  9  1  0  0  0  0
 19 20  1  0  0  0  0
 20 21  1  0  0  0  0
 22 21  1  0  0  0  0
 23 22  1  0  0  0  0
 24 23  1  0  0  0  0
 25 24  1  0  0  0  0
M  END
>  <MODEL>
4

>  <REMARK>
 VINA RESULT:      -8.3      2.135      3.760
  Name = 
  6 active torsions:
  status: ('A' for Active; 'I' for Inactive)
    1  A    between atoms: C_2  and  N_12
    2  A    between atoms: S_6  and  C_15
    3  A    between atoms: S_6  and  C_23
    4  A    between atoms: N_12  and  C_25
    5  A    between atoms: C_15  and  C_21
    6  A    between atoms: C_21  and  C_25
                            x       y       z     vdW  Elec       q    Type
                         _______ _______ _______ _____ _____    ______ ____

>  <TORSDO>
F 6

$$$$
=
 OpenBabel11052422143D

 25 28  0  0  1  0  0  0  0  0999 V2000
  161.1520  204.8300  149.0790 C   0  0  0  0  0  0  0  0  0  0  0  0
  161.3000  205.6970  150.1630 C   0  0  0  0  0  0  0  0  0  0  0  0
  160.9540  202.9050  150.5230 C   0  0  0  0  0  3  0  0  0  0  0  0
  161.3830  205.0070  147.6220 C   0  0  1  0  0  3  0  0  0  0  0  0
  161.7650  204.7640  144.9340 C   0  0  0  0  0  2  0  0  0  0  0  0
  161.0490  203.7540  151.6390 C   0  0  0  0  0  3  0  0  0  0  0  0
  160.8440  203.7920  147.0080 N   0  0  1  0  0  0  0  0  0  0  0  0
  161.6640  203.5050  145.8370 C   0  0  0  0  0  2  0  0  0  0  0  0
  161.3510  205.9960  152.5840 C   0  0  0  0  0  0  0  0  0  0  0  0
  161.2760  205.4910  153.8770 O   0  0  0  0  0  1  0  0  0  0  0  0
  161.5190  207.0660  149.9890 C   0  0  0  0  0  3  0  0  0  0  0  0
  160.8140  205.9160  145.3670 C   0  0  0  0  0  2  0  0  0  0  0  0
  161.0160  203.4810  149.2570 C   0  0  0  0  0  0  0  0  0  0  0  0
  160.9800  202.8130  148.0090 N   0  0  0  0  0  2  0  0  0  0  0  0
  161.5600  207.3660  152.3940 C   0  0  0  0  0  3  0  0  0  0  0  0
  160.8340  206.2170  146.8860 C   0  0  0  0  0  2  0  0  0  0  0  0
  161.6450  207.8990  151.1030 C   0  0  0  0  0  0  0  0  0  0  0  0
  161.2230  205.1470  151.4720 C   0  0  0  0  0  0  0  0  0  0  0  0
  161.9260  209.6500  150.8790 S   0  0  0  0  0  0  0  0  0  0  0  0
  161.4420  210.0290  152.5910 C   0  0  0  0  0  2  0  0  0  0  0  0
  160.1200  210.7800  152.6130 C   0  0  0  0  0  2  0  0  0  0  0  0
  160.0870  211.7960  153.7430 C   0  0  0  0  0  2  0  0  0  0  0  0
  159.1280  211.3870  154.7550 N   0  0  0  0  0  2  0  0  0  0  0  0
  159.8940  210.9910  155.9220 C   0  0  0  0  0  2  0  0  0  0  0  0
  159.8270  209.4870  156.0820 C   0  0  0  0  0  1  0  0  0  0  0  0
  1 13  2  0  0  0  0
  1  2  1  0  0  0  0
  2 18  1  0  0  0  0
  3  6  2  0  0  0  0
  4 16  1  6  0  0  0
  4  1  1  0  0  0  0
  5 12  1  0  0  0  0
  5  8  1  0  0  0  0
  7  8  1  6  0  0  0
  7  4  1  0  0  0  0
  7 14  1  0  0  0  0
  9 10  1  0  0  0  0
 11  2  2  0  0  0  0
 11 17  1  0  0  0  0
 12 16  1  0  0  0  0
 13  3  1  0  0  0  0
 14 13  1  0  0  0  0
 15  9  1  0  0  0  0
 17 15  2  0  0  0  0
 18  6  1  0  0  0  0
 18  9  2  0  0  0  0
 19 17  1  0  0  0  0
 19 20  1  0  0  0  0
 20 21  1  0  0  0  0
 21 22  1  0  0  0  0
 22 23  1  0  0  0  0
 23 24  1  0  0  0  0
 24 25  1  0  0  0  0
M  END
>  <MODEL>
5

>  <REMARK>
 VINA RESULT:      -8.2      0.911      1.049
  Name = 
  6 active torsions:
  status: ('A' for Active; 'I' for Inactive)
    1  A    between atoms: C_2  and  N_12
    2  A    between atoms: S_6  and  C_15
    3  A    between atoms: S_6  and  C_23
    4  A    between atoms: N_12  and  C_25
    5  A    between atoms: C_15  and  C_21
    6  A    between atoms: C_21  and  C_25
                            x       y       z     vdW  Elec       q    Type
                         _______ _______ _______ _____ _____    ______ ____

>  <TORSDO>
F 6

$$$$
=
 OpenBabel11052422143D

 25 28  0  0  1  0  0  0  0  0999 V2000
  161.2930  208.0410  152.9430 C   0  0  0  0  0  0  0  0  0  0  0  0
  161.3290  207.0500  151.9590 C   0  0  0  0  0  0  0  0  0  0  0  0
  161.7450  209.7870  151.3380 C   0  0  0  0  0  3  0  0  0  0  0  0
  161.3160  207.9720  154.4270 C   0  0  1  0  0  3  0  0  0  0  0  0
  161.4610  208.4060  157.1140 C   0  0  0  0  0  2  0  0  0  0  0  0
  161.7380  208.8230  150.3140 C   0  0  0  0  0  3  0  0  0  0  0  0
  161.0420  209.3410  154.8680 N   0  0  1  0  0  0  0  0  0  0  0  0
  161.7800  209.5460  156.1090 C   0  0  0  0  0  2  0  0  0  0  0  0
  161.5570  206.4860  149.5970 C   0  0  0  0  0  0  0  0  0  0  0  0
  161.7500  206.8500  148.2690 O   0  0  0  0  0  1  0  0  0  0  0  0
  161.1720  205.6960  152.2680 C   0  0  0  0  0  3  0  0  0  0  0  0
  160.2990  207.4800  156.6540 C   0  0  0  0  0  2  0  0  0  0  0  0
  161.5240  209.3540  152.6430 C   0  0  0  0  0  0  0  0  0  0  0  0
  161.5290  210.1430  153.8190 N   0  0  0  0  0  2  0  0  0  0  0  0
  161.3890  205.1360  149.9200 C   0  0  0  0  0  3  0  0  0  0  0  0
  160.4020  207.0200  155.1790 C   0  0  0  0  0  2  0  0  0  0  0  0
  161.1990  204.7420  151.2490 C   0  0  0  0  0  0  0  0  0  0  0  0
  161.5330  207.4560  150.6120 C   0  0  0  0  0  0  0  0  0  0  0  0
  161.0000  203.0100  151.6460 S   0  0  0  0  0  0  0  0  0  0  0  0
  160.4140  202.6110  149.9700 C   0  0  0  0  0  2  0  0  0  0  0  0
  160.6460  201.1400  149.6640 C   0  0  0  0  0  2  0  0  0  0  0  0
  161.2150  200.9550  148.2670 C   0  0  0  0  0  2  0  0  0  0  0  0
  161.1750  202.2130  147.5410 N   0  0  0  0  0  2  0  0  0  0  0  0
  160.8390  201.8930  146.1660 C   0  0  0  0  0  2  0  0  0  0  0  0
  161.0030  203.1280  145.3070 C   0  0  0  0  0  1  0  0  0  0  0  0
  1  4  1  0  0  0  0
  2 11  1  0  0  0  0
  2  1  2  0  0  0  0
  3 13  2  0  0  0  0
  4  7  1  0  0  0  0
  4 16  1  1  0  0  0
  6 18  2  0  0  0  0
  6  3  1  0  0  0  0
  7  8  1  1  0  0  0
  8  5  1  0  0  0  0
  9 15  2  0  0  0  0
  9 18  1  0  0  0  0
 10  9  1  0  0  0  0
 12  5  1  0  0  0  0
 13  1  1  0  0  0  0
 13 14  1  0  0  0  0
 14  7  1  0  0  0  0
 15 17  1  0  0  0  0
 16 12  1  0  0  0  0
 17 19  1  0  0  0  0
 17 11  2  0  0  0  0
 18  2  1  0  0  0  0
 20 19  1  0  0  0  0
 21 20  1  0  0  0  0
 22 21  1  0  0  0  0
 23 22  1  0  0  0  0
 24 23  1  0  0  0  0
 25 24  1  0  0  0  0
M  END
>  <MODEL>
6

>  <REMARK>
 VINA RESULT:      -8.0      2.223      8.248
  Name = 
  6 active torsions:
  status: ('A' for Active; 'I' for Inactive)
    1  A    between atoms: C_2  and  N_12
    2  A    between atoms: S_6  and  C_15
    3  A    between atoms: S_6  and  C_23
    4  A    between atoms: N_12  and  C_25
    5  A    between atoms: C_15  and  C_21
    6  A    between atoms: C_21  and  C_25
                            x       y       z     vdW  Elec       q    Type
                         _______ _______ _______ _____ _____    ______ ____

>  <TORSDO>
F 6

$$$$
=
 OpenBabel11052422143D

 25 28  0  0  1  0  0  0  0  0999 V2000
  161.3500  205.2740  149.4380 C   0  0  0  0  0  0  0  0  0  0  0  0
  161.3560  206.3350  150.3460 C   0  0  0  0  0  0  0  0  0  0  0  0
  161.8200  206.7390  147.5770 C   0  0  0  0  0  3  0  0  0  0  0  0
  160.8880  203.8670  149.5520 C   0  0  1  0  0  3  0  0  0  0  0  0
  160.0900  201.2850  149.1940 C   0  0  0  0  0  2  0  0  0  0  0  0
  161.8830  207.8240  148.4700 C   0  0  0  0  0  3  0  0  0  0  0  0
  161.3510  203.2210  148.3220 N   0  0  1  0  0  0  0  0  0  0  0  0
  160.3630  202.2070  147.9740 C   0  0  0  0  0  2  0  0  0  0  0  0
  161.6820  208.7190  150.7430 C   0  0  0  0  0  0  0  0  0  0  0  0
  161.9730  210.0030  150.2930 O   0  0  0  0  0  1  0  0  0  0  0  0
  161.0810  206.1460  151.7030 C   0  0  0  0  0  3  0  0  0  0  0  0
  161.0710  201.5170  150.3780 C   0  0  0  0  0  2  0  0  0  0  0  0
  161.5440  205.4790  148.1000 C   0  0  0  0  0  0  0  0  0  0  0  0
  161.3970  204.2670  147.3820 N   0  0  0  0  0  2  0  0  0  0  0  0
  161.4140  208.5140  152.1000 C   0  0  0  0  0  3  0  0  0  0  0  0
  161.2850  203.0080  150.7400 C   0  0  0  0  0  2  0  0  0  0  0  0
  161.1130  207.2340  152.5790 C   0  0  0  0  0  0  0  0  0  0  0  0
  161.6520  207.6350  149.8520 C   0  0  0  0  0  0  0  0  0  0  0  0
  160.7590  206.9920  154.3140 S   0  0  0  0  0  0  0  0  0  0  0  0
  160.9530  208.7630  154.6830 C   0  0  0  0  0  2  0  0  0  0  0  0
  160.1150  209.1460  155.8930 C   0  0  0  0  0  2  0  0  0  0  0  0
  159.9220  210.6520  155.9690 C   0  0  0  0  0  2  0  0  0  0  0  0
  161.1970  211.3280  155.7950 N   0  0  0  0  0  2  0  0  0  0  0  0
  161.8760  211.2780  157.0760 C   0  0  0  0  0  2  0  0  0  0  0  0
  163.3040  210.8180  156.8720 C   0  0  0  0  0  1  0  0  0  0  0  0
  1  4  1  0  0  0  0
  1  2  1  0  0  0  0
  2 11  1  0  0  0  0
  3 13  1  0  0  0  0
  3  6  2  0  0  0  0
  4 16  1  1  0  0  0
  5 12  1  0  0  0  0
  6 18  1  0  0  0  0
  7  8  1  6  0  0  0
  7  4  1  0  0  0  0
  8  5  1  0  0  0  0
  9 15  2  0  0  0  0
 10  9  1  0  0  0  0
 11 17  2  0  0  0  0
 12 16  1  0  0  0  0
 13  1  2  0  0  0  0
 14 13  1  0  0  0  0
 14  7  1  0  0  0  0
 15 17  1  0  0  0  0
 17 19  1  0  0  0  0
 18  2  2  0  0  0  0
 18  9  1  0  0  0  0
 19 20  1  0  0  0  0
 20 21  1  0  0  0  0
 21 22  1  0  0  0  0
 23 22  1  0  0  0  0
 23 24  1  0  0  0  0
 25 24  1  0  0  0  0
M  END
>  <MODEL>
7

>  <REMARK>
 VINA RESULT:      -7.9      2.109      3.625
  Name = 
  6 active torsions:
  status: ('A' for Active; 'I' for Inactive)
    1  A    between atoms: C_2  and  N_12
    2  A    between atoms: S_6  and  C_15
    3  A    between atoms: S_6  and  C_23
    4  A    between atoms: N_12  and  C_25
    5  A    between atoms: C_15  and  C_21
    6  A    between atoms: C_21  and  C_25
                            x       y       z     vdW  Elec       q    Type
                         _______ _______ _______ _____ _____    ______ ____

>  <TORSDO>
F 6

$$$$
=
 OpenBabel11052422143D

 25 28  0  0  1  0  0  0  0  0999 V2000
  161.1760  205.4750  150.0920 C   0  0  0  0  0  0  0  0  0  0  0  0
  161.1980  206.4420  151.0990 C   0  0  0  0  0  0  0  0  0  0  0  0
  161.0920  203.6700  151.6940 C   0  0  0  0  0  3  0  0  0  0  0  0
  161.4520  205.5480  148.6340 C   0  0  1  0  0  3  0  0  0  0  0  0
  161.9710  205.1140  145.9940 C   0  0  0  0  0  2  0  0  0  0  0  0
  161.0610  204.6170  152.7330 C   0  0  0  0  0  3  0  0  0  0  0  0
  161.0540  204.2390  148.1120 N   0  0  1  0  0  0  0  0  0  0  0  0
  161.9460  203.9320  147.0010 C   0  0  0  0  0  2  0  0  0  0  0  0
  161.1160  206.9500  153.4830 C   0  0  0  0  0  0  0  0  0  0  0  0
  161.0310  206.5530  154.8140 O   0  0  0  0  0  1  0  0  0  0  0  0
  161.2980  207.8060  150.8110 C   0  0  0  0  0  3  0  0  0  0  0  0
  160.9010  206.2030  146.2880 C   0  0  0  0  0  2  0  0  0  0  0  0
  161.1560  204.1400  150.3850 C   0  0  0  0  0  0  0  0  0  0  0  0
  161.2350  203.3670  149.2000 N   0  0  0  0  0  2  0  0  0  0  0  0
  161.2080  208.3120  153.1800 C   0  0  0  0  0  3  0  0  0  0  0  0
  160.8280  206.6340  147.7750 C   0  0  0  0  0  2  0  0  0  0  0  0
  161.2990  208.7390  151.8510 C   0  0  0  0  0  0  0  0  0  0  0  0
  161.1150  206.0010  152.4480 C   0  0  0  0  0  0  0  0  0  0  0  0
  161.4290  210.4830  151.4810 S   0  0  0  0  0  0  0  0  0  0  0  0
  160.0990  210.9110  152.6460 C   0  0  0  0  0  2  0  0  0  0  0  0
  159.8010  212.4010  152.5850 C   0  0  0  0  0  2  0  0  0  0  0  0
  158.6130  212.6840  151.6800 C   0  0  0  0  0  2  0  0  0  0  0  0
  158.8230  213.9260  150.9550 N   0  0  0  0  0  2  0  0  0  0  0  0
  158.5440  213.6460  149.5580 C   0  0  0  0  0  2  0  0  0  0  0  0
  157.0740  213.3280  149.3920 C   0  0  0  0  0  1  0  0  0  0  0  0
  1 13  2  0  0  0  0
  1  2  1  0  0  0  0
  2 18  1  0  0  0  0
  3  6  2  0  0  0  0
  4 16  1  6  0  0  0
  4  1  1  0  0  0  0
  5 12  1  0  0  0  0
  5  8  1  0  0  0  0
  7  8  1  6  0  0  0
  7  4  1  0  0  0  0
  7 14  1  0  0  0  0
  9 10  1  0  0  0  0
 11  2  2  0  0  0  0
 11 17  1  0  0  0  0
 12 16  1  0  0  0  0
 13  3  1  0  0  0  0
 14 13  1  0  0  0  0
 15  9  1  0  0  0  0
 17 15  2  0  0  0  0
 18  6  1  0  0  0  0
 18  9  2  0  0  0  0
 19 17  1  0  0  0  0
 19 20  1  0  0  0  0
 21 20  1  0  0  0  0
 22 21  1  0  0  0  0
 23 22  1  0  0  0  0
 24 23  1  0  0  0  0
 25 24  1  0  0  0  0
M  END
>  <MODEL>
8

>  <REMARK>
 VINA RESULT:      -7.7      2.372      3.291
  Name = 
  6 active torsions:
  status: ('A' for Active; 'I' for Inactive)
    1  A    between atoms: C_2  and  N_12
    2  A    between atoms: S_6  and  C_15
    3  A    between atoms: S_6  and  C_23
    4  A    between atoms: N_12  and  C_25
    5  A    between atoms: C_15  and  C_21
    6  A    between atoms: C_21  and  C_25
                            x       y       z     vdW  Elec       q    Type
                         _______ _______ _______ _____ _____    ______ ____

>  <TORSDO>
F 6

$$$$
=
 OpenBabel11052422143D

 25 28  0  0  1  0  0  0  0  0999 V2000
  161.3710  206.4470  149.4680 C   0  0  0  0  0  0  0  0  0  0  0  0
  161.5730  207.7530  149.9190 C   0  0  0  0  0  0  0  0  0  0  0  0
  161.1830  205.5980  151.7210 C   0  0  0  0  0  3  0  0  0  0  0  0
  161.5560  205.8120  148.1390 C   0  0  1  0  0  3  0  0  0  0  0  0
  161.8430  204.1590  145.9910 C   0  0  0  0  0  2  0  0  0  0  0  0
  161.3320  206.9090  152.2090 C   0  0  0  0  0  3  0  0  0  0  0  0
  160.9730  204.4760  148.2790 N   0  0  1  0  0  0  0  0  0  0  0  0
  161.7470  203.5800  147.4280 C   0  0  0  0  0  2  0  0  0  0  0  0
  161.7110  209.2970  151.8030 C   0  0  0  0  0  0  0  0  0  0  0  0
  161.6690  209.5630  153.1670 O   0  0  0  0  0  1  0  0  0  0  0  0
  161.8130  208.8100  149.0360 C   0  0  0  0  0  3  0  0  0  0  0  0
  160.9300  205.3960  145.7570 C   0  0  0  0  0  2  0  0  0  0  0  0
  161.2140  205.4080  150.3420 C   0  0  0  0  0  0  0  0  0  0  0  0
  161.1240  204.1780  149.6450 N   0  0  0  0  0  2  0  0  0  0  0  0
  161.9410  210.3450  150.9070 C   0  0  0  0  0  3  0  0  0  0  0  0
  161.0070  206.4600  146.8800 C   0  0  0  0  0  2  0  0  0  0  0  0
  161.9930  210.1040  149.5300 C   0  0  0  0  0  0  0  0  0  0  0  0
  161.5290  207.9910  151.3200 C   0  0  0  0  0  0  0  0  0  0  0  0
  162.3010  211.4530  148.3990 S   0  0  0  0  0  0  0  0  0  0  0  0
  161.1630  212.5620  149.2860 C   0  0  0  0  0  2  0  0  0  0  0  0
  160.8110  213.7620  148.4200 C   0  0  0  0  0  2  0  0  0  0  0  0
  159.6560  213.4420  147.4850 C   0  0  0  0  0  2  0  0  0  0  0  0
  160.1380  213.3230  146.1190 N   0  0  0  0  0  2  0  0  0  0  0  0
  159.2510  212.3940  145.4430 C   0  0  0  0  0  2  0  0  0  0  0  0
  157.8290  212.6260  145.9080 C   0  0  0  0  0  1  0  0  0  0  0  0
  1  2  2  0  0  0  0
  1 13  1  0  0  0  0
  2 18  1  0  0  0  0
  3  6  1  0  0  0  0
  4 16  1  6  0  0  0
  4  7  1  0  0  0  0
  4  1  1  0  0  0  0
  5  8  1  0  0  0  0
  7  8  1  6  0  0  0
  7 14  1  0  0  0  0
  9 10  1  0  0  0  0
 11 17  2  0  0  0  0
 11  2  1  0  0  0  0
 12  5  1  0  0  0  0
 12 16  1  0  0  0  0
 13  3  2  0  0  0  0
 14 13  1  0  0  0  0
 15  9  2  0  0  0  0
 17 15  1  0  0  0  0
 18  9  1  0  0  0  0
 18  6  2  0  0  0  0
 19 20  1  0  0  0  0
 19 17  1  0  0  0  0
 21 20  1  0  0  0  0
 22 21  1  0  0  0  0
 23 22  1  0  0  0  0
 24 25  1  0  0  0  0
 24 23  1  0  0  0  0
M  END
>  <MODEL>
9

>  <REMARK>
 VINA RESULT:      -7.3      3.651      4.946
  Name = 
  6 active torsions:
  status: ('A' for Active; 'I' for Inactive)
    1  A    between atoms: C_2  and  N_12
    2  A    between atoms: S_6  and  C_15
    3  A    between atoms: S_6  and  C_23
    4  A    between atoms: N_12  and  C_25
    5  A    between atoms: C_15  and  C_21
    6  A    between atoms: C_21  and  C_25
                            x       y       z     vdW  Elec       q    Type
                         _______ _______ _______ _____ _____    ______ ____

>  <TORSDO>
F 6

$$$$
