=
 OpenBabel11062408263D

 32 37  0  0  1  0  0  0  0  0999 V2000
  161.6750  208.4060  151.2230 C   0  0  1  0  0  3  0  0  0  0  0  0
  161.7590  206.2370  149.8640 C   0  0  2  0  0  3  0  0  0  0  0  0
  162.1930  209.8420  151.3020 C   0  0  0  0  0  2  0  0  0  0  0  0
  162.2480  207.6960  149.9840 C   0  0  1  0  0  3  0  0  0  0  0  0
  160.7630  205.9830  148.7150 C   0  0  2  0  0  3  0  0  0  0  0  0
  160.9380  201.9330  151.7000 O   0  0  0  0  0  0  0  0  0  0  0  0
  161.1250  205.6920  151.1400 C   0  0  2  0  0  3  0  0  0  0  0  0
  160.5110  202.3210  149.3440 C   0  0  0  0  0  2  0  0  0  0  0  0
  160.9480  203.7670  149.5080 C   0  0  1  0  0  3  0  0  0  0  0  0
  162.0590  208.5270  148.7290 C   0  0  0  0  0  0  0  0  0  0  0  0
  160.3020  204.6310  148.5900 O   0  0  0  0  0  0  0  0  0  0  0  0
  161.6600  207.9920  147.5620 C   0  0  0  0  0  3  0  0  0  0  0  0
  162.3960  209.9860  148.7960 C   0  0  0  0  0  2  0  0  0  0  0  0
  161.9280  206.0900  152.3760 C   0  0  0  0  0  2  0  0  0  0  0  0
  161.9960  207.6260  152.5210 C   0  0  2  0  0  3  0  0  0  0  0  0
  160.7430  204.2100  150.9690 C   0  0  1  0  0  3  0  0  0  0  0  0
  161.3480  206.5250  147.4120 C   0  0  2  0  0  3  0  0  0  0  0  0
  161.7810  210.6130  150.0480 C   0  0  0  0  0  2  0  0  0  0  0  0
  161.2550  201.4890  150.3970 C   0  0  0  0  0  2  0  0  0  0  0  0
  161.4950  203.2200  151.8620 C   0  0  0  0  0  2  0  0  0  0  0  0
  159.9340  207.6430  155.7350 C   0  0  0  0  0  0  0  0  0  0  0  0
  159.6090  206.8270  156.6350 O   0  0  0  0  0  0  0  0  0  0  0  0
  161.1180  208.0820  153.6480 C   0  0  0  0  0  0  0  0  0  0  0  0
  159.4750  209.0320  155.8090 C   0  0  0  0  0  3  0  0  0  0  0  0
  160.6400  209.5220  153.6640 C   0  0  0  0  0  2  0  0  0  0  0  0
  160.7750  207.2130  154.6100 C   0  0  0  0  0  0  0  0  0  0  0  0
  161.2090  205.9280  154.5600 F   0  0  0  0  0  0  0  0  0  0  0  0
  159.7930  209.9060  154.8510 C   0  0  0  0  0  0  0  0  0  0  0  0
  160.1850  212.1650  154.2660 O   0  0  0  0  0  1  0  0  0  0  0  0
  159.3210  211.3160  154.9610 C   0  0  0  0  0  2  0  0  0  0  0  0
  160.4120  206.3030  146.2280 C   0  0  0  0  0  2  0  0  0  0  0  0
  161.1260  205.9100  145.0930 O   0  0  0  0  0  1  0  0  0  0  0  0
  1  3  1  1  0  0  0
  1 15  1  0  0  0  0
  2  4  1  0  0  0  0
  2  7  1  0  0  0  0
  4  1  1  0  0  0  0
  5  2  1  0  0  0  0
  6 20  1  0  0  0  0
  7 14  1  0  0  0  0
  8  9  1  0  0  0  0
  8 19  1  0  0  0  0
  9 16  1  0  0  0  0
 10 13  1  0  0  0  0
 10  4  1  0  0  0  0
 11  5  1  0  0  0  0
 11  9  1  0  0  0  0
 12 10  2  0  0  0  0
 13 18  1  0  0  0  0
 14 15  1  0  0  0  0
 15 23  1  0  0  0  0
 16  7  1  0  0  0  0
 16 20  1  0  0  0  0
 17 12  1  0  0  0  0
 17  5  1  0  0  0  0
 18  3  1  0  0  0  0
 19  6  1  0  0  0  0
 21 24  1  0  0  0  0
 21 22  2  0  0  0  0
 23 25  1  0  0  0  0
 23 26  2  0  0  0  0
 25 28  1  0  0  0  0
 26 21  1  0  0  0  0
 27 26  1  0  0  0  0
 28 30  1  0  0  0  0
 28 24  2  0  0  0  0
 29 30  1  0  0  0  0
 31 17  1  0  0  0  0
 32 31  1  0  0  0  0
M  END
>  <MODEL>
1

>  <REMARK>
 VINA RESULT:      -9.7      0.000      0.000
  Name = 
  3 active torsions:
  status: ('A' for Active; 'I' for Inactive)
    1  A    between atoms: C_13  and  C_29
    2  A    between atoms: C_15  and  C_26
    3  A    between atoms: C_16  and  C_27
                            x       y       z     vdW  Elec       q    Type
                         _______ _______ _______ _____ _____    ______ ____

>  <TORSDO>
F 3

$$$$
=
 OpenBabel11062408263D

 32 37  0  0  1  0  0  0  0  0999 V2000
  161.2120  208.0930  152.4790 C   0  0  1  0  0  3  0  0  0  0  0  0
  161.1480  210.6400  152.2230 C   0  0  2  0  0  3  0  0  0  0  0  0
  161.4790  206.9490  153.4580 C   0  0  0  0  0  2  0  0  0  0  0  0
  161.4000  209.4520  153.1760 C   0  0  1  0  0  3  0  0  0  0  0  0
  159.8560  211.4330  152.5090 C   0  0  2  0  0  3  0  0  0  0  0  0
  161.7760  212.9000  148.0920 O   0  0  0  0  0  0  0  0  0  0  0  0
  161.1240  210.2540  150.7480 C   0  0  2  0  0  3  0  0  0  0  0  0
  160.4580  213.9540  149.8340 C   0  0  0  0  0  2  0  0  0  0  0  0
  160.6810  212.7440  150.7270 C   0  0  1  0  0  3  0  0  0  0  0  0
  160.6300  209.5190  154.4810 C   0  0  0  0  0  0  0  0  0  0  0  0
  159.6110  212.5400  151.6330 O   0  0  0  0  0  0  0  0  0  0  0  0
  159.9250  210.6020  154.8480 C   0  0  0  0  0  3  0  0  0  0  0  0
  160.7240  208.3480  155.4120 C   0  0  0  0  0  2  0  0  0  0  0  0
  162.2470  209.2760  150.4080 C   0  0  0  0  0  2  0  0  0  0  0  0
  162.1100  207.9720  151.2240 C   0  0  2  0  0  3  0  0  0  0  0  0
  160.9550  211.5010  149.8610 C   0  0  1  0  0  3  0  0  0  0  0  0
  159.8260  211.8330  153.9820 C   0  0  2  0  0  3  0  0  0  0  0  0
  160.5160  207.0430  154.6410 C   0  0  0  0  0  2  0  0  0  0  0  0
  161.6610  214.0600  148.8880 C   0  0  0  0  0  2  0  0  0  0  0  0
  162.1330  211.8290  148.9400 C   0  0  0  0  0  2  0  0  0  0  0  0
  160.9620  206.0080  148.1560 C   0  0  0  0  0  0  0  0  0  0  0  0
  160.7280  206.2350  146.9410 O   0  0  0  0  0  0  0  0  0  0  0  0
  161.6430  206.8520  150.3400 C   0  0  0  0  0  0  0  0  0  0  0  0
  160.8010  204.6540  148.6890 C   0  0  0  0  0  3  0  0  0  0  0  0
  161.4600  205.4740  150.9460 C   0  0  0  0  0  2  0  0  0  0  0  0
  161.3980  207.0930  149.0440 C   0  0  0  0  0  0  0  0  0  0  0  0
  161.5600  208.3420  148.5360 F   0  0  0  0  0  0  0  0  0  0  0  0
  161.0240  204.4000  149.9810 C   0  0  0  0  0  0  0  0  0  0  0  0
  161.2410  202.9450  151.8340 O   0  0  0  0  0  1  0  0  0  0  0  0
  160.8640  203.0080  150.4910 C   0  0  0  0  0  2  0  0  0  0  0  0
  158.5720  212.6260  154.3350 C   0  0  0  0  0  2  0  0  0  0  0  0
  157.4270  211.8350  154.2060 O   0  0  0  0  0  1  0  0  0  0  0  0
  1  4  1  0  0  0  0
  1  3  1  1  0  0  0
  2  5  1  0  0  0  0
  2  4  1  0  0  0  0
  3 18  1  0  0  0  0
  4 10  1  0  0  0  0
  5 17  1  0  0  0  0
  6 19  1  0  0  0  0
  6 20  1  0  0  0  0
  7  2  1  0  0  0  0
  8  9  1  0  0  0  0
  9 11  1  0  0  0  0
 10 12  2  0  0  0  0
 10 13  1  0  0  0  0
 11  5  1  0  0  0  0
 14  7  1  0  0  0  0
 14 15  1  0  0  0  0
 15  1  1  0  0  0  0
 16  9  1  0  0  0  0
 16  7  1  0  0  0  0
 17 31  1  0  0  0  0
 17 12  1  0  0  0  0
 18 13  1  0  0  0  0
 19  8  1  0  0  0  0
 20 16  1  0  0  0  0
 21 24  1  0  0  0  0
 21 26  1  0  0  0  0
 22 21  2  0  0  0  0
 23 25  1  0  0  0  0
 23 15  1  0  0  0  0
 24 28  2  0  0  0  0
 26 23  2  0  0  0  0
 27 26  1  0  0  0  0
 28 30  1  0  0  0  0
 28 25  1  0  0  0  0
 30 29  1  0  0  0  0
 32 31  1  0  0  0  0
M  END
>  <MODEL>
2

>  <REMARK>
 VINA RESULT:      -8.4      2.284      7.776
  Name = 
  3 active torsions:
  status: ('A' for Active; 'I' for Inactive)
    1  A    between atoms: C_13  and  C_29
    2  A    between atoms: C_15  and  C_26
    3  A    between atoms: C_16  and  C_27
                            x       y       z     vdW  Elec       q    Type
                         _______ _______ _______ _____ _____    ______ ____

>  <TORSDO>
F 3

$$$$
=
 OpenBabel11062408263D

 32 37  0  0  1  0  0  0  0  0999 V2000
  160.8800  208.4980  153.2900 C   0  0  1  0  0  3  0  0  0  0  0  0
  160.7170  210.9850  152.7040 C   0  0  2  0  0  3  0  0  0  0  0  0
  161.0640  207.5010  154.4350 C   0  0  0  0  0  2  0  0  0  0  0  0
  160.8930  209.9400  153.8260 C   0  0  1  0  0  3  0  0  0  0  0  0
  159.3580  211.7130  152.7070 C   0  0  2  0  0  3  0  0  0  0  0  0
  161.8110  212.7740  148.4410 O   0  0  0  0  0  0  0  0  0  0  0  0
  160.9270  210.4250  151.3010 C   0  0  2  0  0  3  0  0  0  0  0  0
  160.2030  213.9330  149.8380 C   0  0  0  0  0  2  0  0  0  0  0  0
  160.3590  212.8570  150.9000 C   0  0  1  0  0  3  0  0  0  0  0  0
  159.9410  210.1080  154.9960 C   0  0  0  0  0  0  0  0  0  0  0  0
  159.1820  212.6880  151.6710 O   0  0  0  0  0  0  0  0  0  0  0  0
  159.1340  211.1750  155.1210 C   0  0  0  0  0  3  0  0  0  0  0  0
  159.9620  209.0660  156.0730 C   0  0  0  0  0  2  0  0  0  0  0  0
  162.1370  209.4950  151.2450 C   0  0  0  0  0  2  0  0  0  0  0  0
  161.9540  208.2910  152.1950 C   0  0  2  0  0  3  0  0  0  0  0  0
  160.8200  211.5420  150.2460 C   0  0  1  0  0  3  0  0  0  0  0  0
  159.0950  212.2830  154.0990 C   0  0  2  0  0  3  0  0  0  0  0  0
  159.9370  207.6670  155.4550 C   0  0  0  0  0  2  0  0  0  0  0  0
  161.5220  214.0100  149.0590 C   0  0  0  0  0  2  0  0  0  0  0  0
  162.0990  211.8410  149.4600 C   0  0  0  0  0  2  0  0  0  0  0  0
  161.6170  204.6130  151.2260 C   0  0  0  0  0  0  0  0  0  0  0  0
  161.8260  203.4900  151.7530 O   0  0  0  0  0  0  0  0  0  0  0  0
  161.6790  207.0440  151.4070 C   0  0  0  0  0  0  0  0  0  0  0  0
  161.0860  204.6920  149.8630 C   0  0  0  0  0  3  0  0  0  0  0  0
  161.1620  207.1770  149.9880 C   0  0  0  0  0  2  0  0  0  0  0  0
  161.8990  205.8470  151.9700 C   0  0  0  0  0  0  0  0  0  0  0  0
  162.3750  205.7620  153.2390 F   0  0  0  0  0  0  0  0  0  0  0  0
  160.8780  205.8750  149.2810 C   0  0  0  0  0  0  0  0  0  0  0  0
  161.1460  206.7020  147.0810 O   0  0  0  0  0  1  0  0  0  0  0  0
  160.3250  205.9230  147.8980 C   0  0  0  0  0  2  0  0  0  0  0  0
  157.7630  213.0210  154.1740 C   0  0  0  0  0  2  0  0  0  0  0  0
  156.6950  212.1230  154.2400 O   0  0  0  0  0  1  0  0  0  0  0  0
  1  4  1  0  0  0  0
  1  3  1  1  0  0  0
  2  5  1  0  0  0  0
  2  4  1  0  0  0  0
  3 18  1  0  0  0  0
  4 10  1  0  0  0  0
  5 17  1  0  0  0  0
  6 19  1  0  0  0  0
  6 20  1  0  0  0  0
  7  2  1  0  0  0  0
  8  9  1  0  0  0  0
  9 11  1  0  0  0  0
 10 12  2  0  0  0  0
 10 13  1  0  0  0  0
 11  5  1  0  0  0  0
 14  7  1  0  0  0  0
 14 15  1  0  0  0  0
 15  1  1  0  0  0  0
 16  9  1  0  0  0  0
 16  7  1  0  0  0  0
 17 31  1  0  0  0  0
 17 12  1  0  0  0  0
 18 13  1  0  0  0  0
 19  8  1  0  0  0  0
 20 16  1  0  0  0  0
 21 22  2  0  0  0  0
 21 26  1  0  0  0  0
 23 26  2  0  0  0  0
 23 15  1  0  0  0  0
 24 21  1  0  0  0  0
 25 23  1  0  0  0  0
 26 27  1  0  0  0  0
 28 24  2  0  0  0  0
 28 25  1  0  0  0  0
 29 30  1  0  0  0  0
 30 28  1  0  0  0  0
 31 32  1  0  0  0  0
M  END
>  <MODEL>
3

>  <REMARK>
 VINA RESULT:      -8.2      2.032      7.540
  Name = 
  3 active torsions:
  status: ('A' for Active; 'I' for Inactive)
    1  A    between atoms: C_13  and  C_29
    2  A    between atoms: C_15  and  C_26
    3  A    between atoms: C_16  and  C_27
                            x       y       z     vdW  Elec       q    Type
                         _______ _______ _______ _____ _____    ______ ____

>  <TORSDO>
F 3

$$$$
=
 OpenBabel11062408263D

 32 37  0  0  1  0  0  0  0  0999 V2000
  161.6870  209.0640  150.1810 C   0  0  1  0  0  3  0  0  0  0  0  0
  161.8590  207.7480  152.3700 C   0  0  2  0  0  3  0  0  0  0  0  0
  162.1060  209.0900  148.7100 C   0  0  0  0  0  2  0  0  0  0  0  0
  162.2500  207.8150  150.8780 C   0  0  1  0  0  3  0  0  0  0  0  0
  160.8310  206.6530  152.7190 C   0  0  2  0  0  3  0  0  0  0  0  0
  161.4250  209.7090  156.6750 O   0  0  0  0  0  0  0  0  0  0  0  0
  161.3240  209.0630  152.9260 C   0  0  2  0  0  3  0  0  0  0  0  0
  160.8640  207.3690  156.3740 C   0  0  0  0  0  2  0  0  0  0  0  0
  161.2060  207.4820  154.8980 C   0  0  1  0  0  3  0  0  0  0  0  0
  161.9460  206.5530  150.0920 C   0  0  0  0  0  0  0  0  0  0  0  0
  160.4600  206.5780  154.1020 O   0  0  0  0  0  0  0  0  0  0  0  0
  161.5320  205.4180  150.6810 C   0  0  0  0  0  3  0  0  0  0  0  0
  162.1830  206.5740  148.6130 C   0  0  0  0  0  2  0  0  0  0  0  0
  162.1520  210.2520  152.4460 C   0  0  0  0  0  2  0  0  0  0  0  0
  162.1200  210.3610  150.9050 C   0  0  2  0  0  3  0  0  0  0  0  0
  161.0380  208.9410  154.4350 C   0  0  1  0  0  3  0  0  0  0  0  0
  161.3160  205.3130  152.1700 C   0  0  2  0  0  3  0  0  0  0  0  0
  161.5840  207.8410  147.9990 C   0  0  0  0  0  2  0  0  0  0  0  0
  161.7110  208.4020  157.1270 C   0  0  0  0  0  2  0  0  0  0  0  0
  161.8970  209.8180  155.3490 C   0  0  0  0  0  2  0  0  0  0  0  0
  160.7470  213.3270  148.9300 C   0  0  0  0  0  0  0  0  0  0  0  0
  161.0450  213.9710  147.8910 O   0  0  0  0  0  0  0  0  0  0  0  0
  161.2650  211.5200  150.4830 C   0  0  0  0  0  0  0  0  0  0  0  0
  159.5570  213.6970  149.7010 C   0  0  0  0  0  3  0  0  0  0  0  0
  160.0630  211.8860  151.3320 C   0  0  0  0  0  2  0  0  0  0  0  0
  161.5810  212.2030  149.3740 C   0  0  0  0  0  0  0  0  0  0  0  0
  162.6720  211.8580  148.6420 F   0  0  0  0  0  0  0  0  0  0  0  0
  159.2380  213.0380  150.8180 C   0  0  0  0  0  0  0  0  0  0  0  0
  158.0470  212.8800  152.8560 O   0  0  0  0  0  1  0  0  0  0  0  0
  158.0140  213.4310  151.5730 C   0  0  0  0  0  2  0  0  0  0  0  0
  160.3450  204.1790  152.4830 C   0  0  0  0  0  2  0  0  0  0  0  0
  160.8330  202.9580  152.0110 O   0  0  0  0  0  1  0  0  0  0  0  0
  1  3  1  6  0  0  0
  1  4  1  0  0  0  0
  1 15  1  0  0  0  0
  2  5  1  0  0  0  0
  2  7  1  0  0  0  0
  4  2  1  0  0  0  0
  5 11  1  0  0  0  0
  6 19  1  0  0  0  0
  7 16  1  0  0  0  0
  8 19  1  0  0  0  0
  9  8  1  0  0  0  0
 10 12  2  0  0  0  0
 10  4  1  0  0  0  0
 11  9  1  0  0  0  0
 12 17  1  0  0  0  0
 13 10  1  0  0  0  0
 14  7  1  0  0  0  0
 15 14  1  0  0  0  0
 16  9  1  0  0  0  0
 16 20  1  0  0  0  0
 17 31  1  0  0  0  0
 17  5  1  0  0  0  0
 18 13  1  0  0  0  0
 18  3  1  0  0  0  0
 20  6  1  0  0  0  0
 21 26  1  0  0  0  0
 21 24  1  0  0  0  0
 22 21  2  0  0  0  0
 23 15  1  0  0  0  0
 23 25  1  0  0  0  0
 24 28  2  0  0  0  0
 26 23  2  0  0  0  0
 27 26  1  0  0  0  0
 28 25  1  0  0  0  0
 28 30  1  0  0  0  0
 30 29  1  0  0  0  0
 32 31  1  0  0  0  0
M  END
>  <MODEL>
4

>  <REMARK>
 VINA RESULT:      -7.9      2.716      5.983
  Name = 
  3 active torsions:
  status: ('A' for Active; 'I' for Inactive)
    1  A    between atoms: C_13  and  C_29
    2  A    between atoms: C_15  and  C_26
    3  A    between atoms: C_16  and  C_27
                            x       y       z     vdW  Elec       q    Type
                         _______ _______ _______ _____ _____    ______ ____

>  <TORSDO>
F 3

$$$$
=
 OpenBabel11062408263D

 32 37  0  0  1  0  0  0  0  0999 V2000
  161.7030  208.8290  151.0730 C   0  0  1  0  0  3  0  0  0  0  0  0
  161.7970  206.5480  149.9130 C   0  0  2  0  0  3  0  0  0  0  0  0
  162.2420  210.2590  151.0460 C   0  0  0  0  0  2  0  0  0  0  0  0
  162.3070  208.0050  149.9230 C   0  0  1  0  0  3  0  0  0  0  0  0
  160.8390  206.2080  148.7540 C   0  0  2  0  0  3  0  0  0  0  0  0
  160.8340  202.4350  152.0860 O   0  0  0  0  0  0  0  0  0  0  0  0
  161.1080  206.1270  151.2070 C   0  0  2  0  0  3  0  0  0  0  0  0
  160.5000  202.6200  149.6910 C   0  0  0  0  0  2  0  0  0  0  0  0
  160.9560  204.0680  149.7440 C   0  0  1  0  0  3  0  0  0  0  0  0
  162.1780  208.7250  148.5940 C   0  0  0  0  0  0  0  0  0  0  0  0
  160.3590  204.8580  148.7310 O   0  0  0  0  0  0  0  0  0  0  0  0
  161.8120  208.0950  147.4650 C   0  0  0  0  0  3  0  0  0  0  0  0
  162.5390  210.1790  148.5460 C   0  0  0  0  0  2  0  0  0  0  0  0
  161.8720  206.6200  152.4330 C   0  0  0  0  0  2  0  0  0  0  0  0
  161.9620  208.1620  152.4450 C   0  0  2  0  0  3  0  0  0  0  0  0
  160.7060  204.6410  151.1520 C   0  0  1  0  0  3  0  0  0  0  0  0
  161.4800  206.6250  147.4320 C   0  0  2  0  0  3  0  0  0  0  0  0
  161.8900  210.9230  149.7140 C   0  0  0  0  0  2  0  0  0  0  0  0
  161.1890  201.8730  150.8400 C   0  0  0  0  0  2  0  0  0  0  0  0
  161.4060  203.7230  152.1560 C   0  0  0  0  0  2  0  0  0  0  0  0
  159.3080  210.2900  154.1810 C   0  0  0  0  0  0  0  0  0  0  0  0
  158.5340  211.2350  153.8840 O   0  0  0  0  0  0  0  0  0  0  0  0
  161.0520  208.7280  153.4950 C   0  0  0  0  0  0  0  0  0  0  0  0
  159.2970  209.7360  155.5370 C   0  0  0  0  0  3  0  0  0  0  0  0
  161.1000  208.1450  154.8930 C   0  0  0  0  0  2  0  0  0  0  0  0
  160.2230  209.7330  153.1760 C   0  0  0  0  0  0  0  0  0  0  0  0
  160.2140  210.2430  151.9170 F   0  0  0  0  0  0  0  0  0  0  0  0
  160.1270  208.7470  155.8760 C   0  0  0  0  0  0  0  0  0  0  0  0
  160.1380  206.8020  157.2230 O   0  0  0  0  0  1  0  0  0  0  0  0
  160.0830  208.1970  157.2610 C   0  0  0  0  0  2  0  0  0  0  0  0
  160.5840  206.3140  146.2370 C   0  0  0  0  0  2  0  0  0  0  0  0
  161.2510  205.5110  145.3080 O   0  0  0  0  0  1  0  0  0  0  0  0
  1  3  1  1  0  0  0
  1 15  1  0  0  0  0
  2  4  1  0  0  0  0
  2  7  1  0  0  0  0
  4  1  1  0  0  0  0
  5  2  1  0  0  0  0
  6 20  1  0  0  0  0
  7 14  1  0  0  0  0
  8  9  1  0  0  0  0
  8 19  1  0  0  0  0
  9 16  1  0  0  0  0
 10  4  1  0  0  0  0
 11  5  1  0  0  0  0
 11  9  1  0  0  0  0
 12 10  2  0  0  0  0
 13 10  1  0  0  0  0
 13 18  1  0  0  0  0
 14 15  1  0  0  0  0
 15 23  1  0  0  0  0
 16  7  1  0  0  0  0
 16 20  1  0  0  0  0
 17 12  1  0  0  0  0
 17  5  1  0  0  0  0
 18  3  1  0  0  0  0
 19  6  1  0  0  0  0
 21 24  1  0  0  0  0
 22 21  2  0  0  0  0
 23 25  1  0  0  0  0
 24 28  2  0  0  0  0
 25 28  1  0  0  0  0
 26 23  2  0  0  0  0
 26 21  1  0  0  0  0
 27 26  1  0  0  0  0
 28 30  1  0  0  0  0
 29 30  1  0  0  0  0
 31 17  1  0  0  0  0
 32 31  1  0  0  0  0
M  END
>  <MODEL>
5

>  <REMARK>
 VINA RESULT:      -7.4      1.139      2.073
  Name = 
  3 active torsions:
  status: ('A' for Active; 'I' for Inactive)
    1  A    between atoms: C_13  and  C_29
    2  A    between atoms: C_15  and  C_26
    3  A    between atoms: C_16  and  C_27
                            x       y       z     vdW  Elec       q    Type
                         _______ _______ _______ _____ _____    ______ ____

>  <TORSDO>
F 3

$$$$
=
 OpenBabel11062408263D

 32 37  0  0  1  0  0  0  0  0999 V2000
  161.6440  209.0700  150.2980 C   0  0  1  0  0  3  0  0  0  0  0  0
  161.8360  207.7720  152.4960 C   0  0  2  0  0  3  0  0  0  0  0  0
  162.0700  209.0970  148.8290 C   0  0  0  0  0  2  0  0  0  0  0  0
  162.2340  207.8380  151.0060 C   0  0  1  0  0  3  0  0  0  0  0  0
  160.8330  206.6540  152.8460 C   0  0  2  0  0  3  0  0  0  0  0  0
  161.3330  209.7470  156.7870 O   0  0  0  0  0  0  0  0  0  0  0  0
  161.2670  209.0770  153.0410 C   0  0  2  0  0  3  0  0  0  0  0  0
  160.8300  207.3920  156.4970 C   0  0  0  0  0  2  0  0  0  0  0  0
  161.1770  207.5050  155.0220 C   0  0  1  0  0  3  0  0  0  0  0  0
  161.9630  206.5650  150.2260 C   0  0  0  0  0  0  0  0  0  0  0  0
  160.4560  206.5790  154.2270 O   0  0  0  0  0  0  0  0  0  0  0  0
  161.5720  205.4240  150.8190 C   0  0  0  0  0  3  0  0  0  0  0  0
  162.2080  206.5830  148.7480 C   0  0  0  0  0  2  0  0  0  0  0  0
  162.0700  210.2820  152.5580 C   0  0  0  0  0  2  0  0  0  0  0  0
  162.0440  210.3810  151.0160 C   0  0  2  0  0  3  0  0  0  0  0  0
  160.9770  208.9570  154.5490 C   0  0  1  0  0  3  0  0  0  0  0  0
  161.3520  205.3230  152.3080 C   0  0  2  0  0  3  0  0  0  0  0  0
  161.5820  207.8310  148.1230 C   0  0  0  0  0  2  0  0  0  0  0  0
  161.6480  208.4500  157.2480 C   0  0  0  0  0  2  0  0  0  0  0  0
  161.8100  209.8600  155.4630 C   0  0  0  0  0  2  0  0  0  0  0  0
  159.2180  212.9480  150.9190 C   0  0  0  0  0  0  0  0  0  0  0  0
  158.2000  213.2370  151.6000 O   0  0  0  0  0  0  0  0  0  0  0  0
  161.1640  211.5170  150.5830 C   0  0  0  0  0  0  0  0  0  0  0  0
  159.5470  213.7350  149.7280 C   0  0  0  0  0  3  0  0  0  0  0  0
  161.5270  212.2810  149.3250 C   0  0  0  0  0  2  0  0  0  0  0  0
  160.0820  211.8270  151.3120 C   0  0  0  0  0  0  0  0  0  0  0  0
  159.7770  211.1150  152.4270 F   0  0  0  0  0  0  0  0  0  0  0  0
  160.6110  213.4290  148.9820 C   0  0  0  0  0  0  0  0  0  0  0  0
  162.2650  214.0870  147.4240 O   0  0  0  0  0  1  0  0  0  0  0  0
  160.9260  214.2570  147.7840 C   0  0  0  0  0  2  0  0  0  0  0  0
  160.4060  204.1690  152.6220 C   0  0  0  0  0  2  0  0  0  0  0  0
  160.8350  202.9890  152.0080 O   0  0  0  0  0  1  0  0  0  0  0  0
  1  3  1  6  0  0  0
  1  4  1  0  0  0  0
  1 15  1  0  0  0  0
  2  5  1  0  0  0  0
  2  7  1  0  0  0  0
  4  2  1  0  0  0  0
  5 11  1  0  0  0  0
  6 19  1  0  0  0  0
  7 16  1  0  0  0  0
  8 19  1  0  0  0  0
  9  8  1  0  0  0  0
 10 12  2  0  0  0  0
 10  4  1  0  0  0  0
 11  9  1  0  0  0  0
 12 17  1  0  0  0  0
 13 10  1  0  0  0  0
 14  7  1  0  0  0  0
 15 14  1  0  0  0  0
 16  9  1  0  0  0  0
 16 20  1  0  0  0  0
 17 31  1  0  0  0  0
 17  5  1  0  0  0  0
 18 13  1  0  0  0  0
 18  3  1  0  0  0  0
 20  6  1  0  0  0  0
 21 26  1  0  0  0  0
 21 22  2  0  0  0  0
 23 15  1  0  0  0  0
 23 26  2  0  0  0  0
 24 21  1  0  0  0  0
 25 23  1  0  0  0  0
 26 27  1  0  0  0  0
 28 25  1  0  0  0  0
 28 24  2  0  0  0  0
 29 30  1  0  0  0  0
 30 28  1  0  0  0  0
 32 31  1  0  0  0  0
M  END
>  <MODEL>
6

>  <REMARK>
 VINA RESULT:      -7.0      2.590      5.977
  Name = 
  3 active torsions:
  status: ('A' for Active; 'I' for Inactive)
    1  A    between atoms: C_13  and  C_29
    2  A    between atoms: C_15  and  C_26
    3  A    between atoms: C_16  and  C_27
                            x       y       z     vdW  Elec       q    Type
                         _______ _______ _______ _____ _____    ______ ____

>  <TORSDO>
F 3

$$$$
