=
 OpenBabel11062409033D

 37 46  0  0  1  0  0  0  0  0999 V2000
  160.7210  211.8580  150.5530 C   0  0  2  0  0  3  0  0  0  0  0  0
  155.9140  213.4370  153.4420 O   0  0  0  0  0  0  0  0  0  0  0  0
  160.7770  205.6320  152.6900 C   0  0  0  0  0  2  0  0  0  0  0  0
  161.4590  210.5520  154.8390 C   0  0  1  0  0  3  0  0  0  0  0  0
  161.5530  213.0760  150.8760 C   0  0  0  0  0  2  0  0  0  0  0  0
  156.5850  212.1930  153.5830 C   0  0  1  0  0  3  0  0  0  0  0  0
  157.3330  211.7790  152.3140 C   0  0  0  0  0  2  0  0  0  0  0  0
  157.3150  211.9430  154.9320 C   0  0  2  0  0  3  0  0  0  0  0  0
  160.6500  208.2170  155.3480 C   0  0  0  0  0  2  0  0  0  0  0  0
  161.0430  211.3070  153.5570 C   0  0  2  0  0  3  0  0  0  0  0  0
  161.0960  209.2970  150.1310 C   0  0  2  0  0  3  0  0  0  0  0  0
  161.5810  209.0640  154.4830 C   0  0  1  0  0  3  0  0  0  0  0  0
  159.4890  211.4420  153.5190 C   0  0  2  0  0  3  0  0  0  0  0  0
  157.2000  212.6610  157.2610 F   0  0  0  0  0  0  0  0  0  0  0  0
  160.0830  207.0120  154.5940 C   0  0  0  0  0  2  0  0  0  0  0  0
  160.6270  214.2390  150.5620 C   0  0  0  0  0  2  0  0  0  0  0  0
  156.5810  214.2990  155.6020 C   0  0  0  0  0  2  0  0  0  0  0  0
  156.6460  212.8230  156.0050 C   0  0  1  0  0  3  0  0  0  0  0  0
  161.1730  208.9960  153.0350 C   0  0  2  0  0  3  0  0  0  0  0  0
  161.2780  207.9080  150.7990 C   0  0  0  0  0  2  0  0  0  0  0  0
  159.6670  212.4960  155.9640 C   0  0  0  0  0  2  0  0  0  0  0  0
  162.3930  210.0810  150.1830 C   0  0  0  0  0  2  0  0  0  0  0  0
  161.8530  207.9140  152.2250 C   0  0  2  0  0  3  0  0  0  0  0  0
  159.2100  213.6680  150.4430 C   0  0  2  0  0  3  0  0  0  0  0  0
  158.8060  212.1770  152.3380 C   0  0  1  0  0  3  0  0  0  0  0  0
  161.5700  210.3370  152.5150 C   0  0  1  0  0  3  0  0  0  0  0  0
  161.1760  206.0780  154.0810 C   0  0  2  0  0  3  0  0  0  0  0  0
  158.8580  212.0670  154.7920 C   0  0  2  0  0  0  0  0  0  0  0  0
  162.0120  206.5020  152.8520 C   0  0  1  0  0  3  0  0  0  0  0  0
  159.2910  212.2120  150.8780 C   0  0  2  0  0  3  0  0  0  0  0  0
  156.6510  214.4530  154.0770 C   0  0  0  0  0  2  0  0  0  0  0  0
  161.2250  210.5230  151.0530 C   0  0  1  0  0  0  0  0  0  0  0  0
  159.3020  213.3980  154.9500 O   0  0  0  0  0  0  0  0  0  0  0  0
  158.7220  213.7520  149.0040 C   0  0  0  0  0  2  0  0  0  0  0  0
  157.2630  213.3440  148.9180 C   0  0  0  0  0  1  0  0  0  0  0  0
  163.0980  210.5080  156.5760 O   0  0  0  0  0  1  0  0  0  0  0  0
  162.7920  211.0820  155.3420 C   0  0  0  0  0  2  0  0  0  0  0  0
  1  5  1  1  0  0  0
  1 30  1  0  0  0  0
  1 32  1  0  0  0  0
  2  6  1  0  0  0  0
  2 31  1  0  0  0  0
  3 29  1  0  0  0  0
  3 27  1  0  0  0  0
  4 37  1  6  0  0  0
  6  7  1  6  0  0  0
  6  8  1  0  0  0  0
  7 25  1  0  0  0  0
  8 18  1  0  0  0  0
 10  4  1  0  0  0  0
 11 22  1  0  0  0  0
 11 20  1  0  0  0  0
 11 32  1  0  0  0  0
 12  4  1  0  0  0  0
 12  9  1  0  0  0  0
 13 10  1  0  0  0  0
 13 28  1  0  0  0  0
 15  9  1  0  0  0  0
 16  5  1  0  0  0  0
 17 18  1  0  0  0  0
 18 14  1  0  0  0  0
 19 12  1  0  0  0  0
 20 23  1  0  0  0  0
 22 32  1  0  0  0  0
 23 29  1  0  0  0  0
 23 19  1  0  0  0  0
 24 16  1  0  0  0  0
 24 30  1  0  0  0  0
 25 13  1  0  0  0  0
 26 19  1  0  0  0  0
 26 10  1  0  0  0  0
 27 15  1  0  0  0  0
 28  8  1  0  0  0  0
 28 33  1  0  0  0  0
 28 21  1  0  0  0  0
 29 27  1  0  0  0  0
 30 25  1  0  0  0  0
 31 17  1  0  0  0  0
 32 26  1  0  0  0  0
 33 21  1  0  0  0  0
 34 24  1  0  0  0  0
 35 34  1  0  0  0  0
 37 36  1  0  0  0  0
M  END
>  <MODEL>
1

>  <REMARK>
 VINA RESULT:      -0.0      0.000      0.000
  Name = 
  2 active torsions:
  status: ('A' for Active; 'I' for Inactive)
    1  A    between atoms: C_4  and  C_28
    2  A    between atoms: C_11  and  C_26
                            x       y       z     vdW  Elec       q    Type
                         _______ _______ _______ _____ _____    ______ ____

>  <TORSDO>
F 2

$$$$
=
 OpenBabel11062409033D

 37 46  0  0  1  0  0  0  0  0999 V2000
  160.0470  211.4000  154.8010 C   0  0  2  0  0  3  0  0  0  0  0  0
  161.3670  206.6800  151.6510 O   0  0  0  0  0  0  0  0  0  0  0  0
  155.2120  213.5090  150.8620 C   0  0  0  0  0  2  0  0  0  0  0  0
  160.5870  212.9450  150.5650 C   0  0  1  0  0  3  0  0  0  0  0  0
  161.4590  211.8690  155.0550 C   0  0  0  0  0  2  0  0  0  0  0  0
  160.4550  207.6980  151.2630 C   0  0  1  0  0  3  0  0  0  0  0  0
  159.8030  208.3940  152.4590 C   0  0  0  0  0  2  0  0  0  0  0  0
  160.8890  208.6100  150.0810 C   0  0  2  0  0  3  0  0  0  0  0  0
  158.4710  212.9150  149.1910 C   0  0  0  0  0  2  0  0  0  0  0  0
  160.7070  212.1900  151.9070 C   0  0  2  0  0  3  0  0  0  0  0  0
  157.6740  212.4630  154.4580 C   0  0  2  0  0  3  0  0  0  0  0  0
  159.1450  213.4580  150.4490 C   0  0  1  0  0  3  0  0  0  0  0  0
  160.4460  210.6700  151.6710 C   0  0  2  0  0  3  0  0  0  0  0  0
  162.3470  208.5400  148.1260 F   0  0  0  0  0  0  0  0  0  0  0  0
  156.9770  212.6490  149.3940 C   0  0  0  0  0  2  0  0  0  0  0  0
  162.1760  210.6140  155.5270 C   0  0  0  0  0  2  0  0  0  0  0  0
  163.0810  207.2930  150.0570 C   0  0  0  0  0  2  0  0  0  0  0  0
  161.9100  207.8310  149.2290 C   0  0  1  0  0  3  0  0  0  0  0  0
  158.4660  212.9360  151.6870 C   0  0  2  0  0  3  0  0  0  0  0  0
  156.7040  213.1150  153.4360 C   0  0  0  0  0  2  0  0  0  0  0  0
  162.3190  210.7920  149.7750 C   0  0  0  0  0  2  0  0  0  0  0  0
  158.7080  213.4710  154.9200 C   0  0  0  0  0  2  0  0  0  0  0  0
  157.3600  213.8120  152.2330 C   0  0  2  0  0  3  0  0  0  0  0  0
  161.2800  209.4230  155.1710 C   0  0  2  0  0  3  0  0  0  0  0  0
  160.5210  209.6790  152.8600 C   0  0  1  0  0  3  0  0  0  0  0  0
  159.5820  212.8640  152.6730 C   0  0  1  0  0  3  0  0  0  0  0  0
  156.2100  213.9060  149.7950 C   0  0  2  0  0  3  0  0  0  0  0  0
  161.3180  210.0240  150.5620 C   0  0  2  0  0  0  0  0  0  0  0  0
  156.3490  214.4450  151.2370 C   0  0  1  0  0  3  0  0  0  0  0  0
  160.1430  209.9730  154.3230 C   0  0  2  0  0  3  0  0  0  0  0  0
  162.6880  207.1510  151.5330 C   0  0  0  0  0  2  0  0  0  0  0  0
  159.1430  212.3250  154.0180 C   0  0  1  0  0  0  0  0  0  0  0  0
  162.6810  210.0720  150.9270 O   0  0  0  0  0  0  0  0  0  0  0  0
  160.7220  208.7810  156.4310 C   0  0  0  0  0  2  0  0  0  0  0  0
  160.1350  207.4180  156.1130 C   0  0  0  0  0  1  0  0  0  0  0  0
  161.8590  214.4500  149.2160 O   0  0  0  0  0  1  0  0  0  0  0  0
  161.5630  214.1100  150.5360 C   0  0  0  0  0  2  0  0  0  0  0  0
  1  5  1  6  0  0  0
  3 29  1  0  0  0  0
  4 37  1  1  0  0  0
  4 10  1  0  0  0  0
  5 16  1  0  0  0  0
  6  2  1  0  0  0  0
  6  7  1  1  0  0  0
  7 25  1  0  0  0  0
  8 28  1  0  0  0  0
  8  6  1  0  0  0  0
  9 15  1  0  0  0  0
  9 12  1  0  0  0  0
 10 26  1  0  0  0  0
 11 22  1  0  0  0  0
 12  4  1  0  0  0  0
 12 19  1  0  0  0  0
 13 10  1  0  0  0  0
 13 25  1  0  0  0  0
 14 18  1  0  0  0  0
 15 27  1  0  0  0  0
 17 31  1  0  0  0  0
 18 17  1  0  0  0  0
 18  8  1  0  0  0  0
 19 23  1  0  0  0  0
 19 26  1  0  0  0  0
 20 11  1  0  0  0  0
 21 28  1  0  0  0  0
 21 33  1  0  0  0  0
 23 20  1  0  0  0  0
 24 16  1  0  0  0  0
 24 34  1  0  0  0  0
 25 30  1  0  0  0  0
 26 32  1  0  0  0  0
 27  3  1  0  0  0  0
 27 29  1  0  0  0  0
 28 33  1  0  0  0  0
 28 13  1  0  0  0  0
 29 23  1  0  0  0  0
 30  1  1  0  0  0  0
 30 24  1  0  0  0  0
 31  2  1  0  0  0  0
 32 11  1  0  0  0  0
 32  1  1  0  0  0  0
 32 22  1  0  0  0  0
 35 34  1  0  0  0  0
 36 37  1  0  0  0  0
M  END
>  <MODEL>
2

>  <REMARK>
 VINA RESULT:       1.6      2.905      7.227
  Name = 
  2 active torsions:
  status: ('A' for Active; 'I' for Inactive)
    1  A    between atoms: C_4  and  C_28
    2  A    between atoms: C_11  and  C_26
                            x       y       z     vdW  Elec       q    Type
                         _______ _______ _______ _____ _____    ______ ____

>  <TORSDO>
F 2

$$$$
