=
 OpenBabel11062410323D

 43 48  0  0  1  0  0  0  0  0999 V2000
  161.4380  204.0990  145.3700 O   0  0  0  0  0  0  0  0  0  0  0  0
  161.5070  206.4540  149.7200 C   0  0  2  0  0  3  0  0  0  0  0  0
  162.1950  208.5210  148.5090 C   0  0  0  0  0  2  0  0  0  0  0  0
  162.1870  205.1110  147.4350 C   0  0  2  0  0  3  0  0  0  0  0  0
  160.4180  206.2310  144.8770 C   0  0  0  0  0  2  0  0  0  0  0  0
  161.4420  205.1700  144.4710 C   0  0  0  0  0  2  0  0  0  0  0  0
  161.5680  206.4980  147.1440 C   0  0  1  0  0  3  0  0  0  0  0  0
  162.5570  204.3190  146.1810 C   0  0  0  0  0  2  0  0  0  0  0  0
  160.2410  206.3750  146.3910 C   0  0  0  0  0  2  0  0  0  0  0  0
  162.0420  209.2710  149.8130 C   0  0  0  0  0  0  0  0  0  0  0  0
  161.3130  207.2820  148.4410 C   0  0  1  0  0  3  0  0  0  0  0  0
  160.7840  205.1140  149.5810 C   0  0  0  0  0  2  0  0  0  0  0  0
  160.9940  207.2630  150.9100 C   0  0  2  0  0  3  0  0  0  0  0  0
  161.5690  208.6600  150.9120 C   0  0  0  0  0  3  0  0  0  0  0  0
  161.3530  204.2790  148.4220 C   0  0  0  0  0  2  0  0  0  0  0  0
  162.5960  210.6370  149.9240 C   0  0  0  0  0  0  0  0  0  0  0  0
  162.4630  211.5890  148.8610 N   0  0  0  0  0  2  0  0  0  0  0  0
  163.2450  210.9680  150.9540 O   0  0  0  0  0  0  0  0  0  0  0  0
  161.3080  211.7000  148.0240 C   0  0  0  0  0  0  0  0  0  0  0  0
  160.1950  211.2510  148.4050 O   0  0  0  0  0  0  0  0  0  0  0  0
  161.4240  212.3510  146.6890 C   0  0  0  0  0  2  0  0  0  0  0  0
  160.3690  211.8620  145.8080 N   0  0  0  0  0  2  0  0  0  0  0  0
  159.2440  212.8650  143.8710 C   0  0  0  0  0  3  0  0  0  0  0  0
  159.3410  212.6550  145.1880 C   0  0  0  0  0  0  0  0  0  0  0  0
  158.2980  213.2540  146.0600 C   0  0  0  0  0  1  0  0  0  0  0  0
  160.1580  212.2890  142.8430 C   0  0  0  0  0  2  0  0  0  0  0  0
  162.3060  212.7170  141.5660 C   0  0  2  0  0  0  0  0  0  0  0  0
  162.5830  212.8010  143.0480 C   0  0  0  0  0  2  0  0  0  0  0  0
  161.2480  213.2920  142.5000 C   0  0  2  0  0  3  0  0  0  0  0  0
  162.9860  213.4130  139.2650 C   0  0  0  0  0  3  0  0  0  0  0  0
  162.3640  211.0830  139.7460 C   0  0  0  0  0  3  0  0  0  0  0  0
  162.6830  212.1880  138.8180 C   0  0  0  0  0  3  0  0  0  0  0  0
  162.1990  211.3090  141.0490 C   0  0  0  0  0  3  0  0  0  0  0  0
  163.0990  213.7220  140.7350 C   0  0  0  0  0  2  0  0  0  0  0  0
  161.3300  206.5640  152.2220 C   0  0  0  0  0  2  0  0  0  0  0  0
  160.2090  207.5310  155.7100 C   0  0  0  0  0  3  0  0  0  0  0  0
  160.1390  208.9260  155.6100 C   0  0  0  0  0  0  0  0  0  0  0  0
  160.8410  208.7780  153.2880 C   0  0  0  0  0  3  0  0  0  0  0  0
  160.5920  206.7620  154.6060 C   0  0  0  0  0  3  0  0  0  0  0  0
  160.9050  207.3850  153.3940 C   0  0  0  0  0  0  0  0  0  0  0  0
  160.4590  209.5470  154.3910 C   0  0  0  0  0  3  0  0  0  0  0  0
  159.3380  211.0210  156.6500 C   0  0  0  0  0  1  0  0  0  0  0  0
  159.7540  209.6650  156.7310 O   0  0  0  0  0  0  0  0  0  0  0  0
  1  8  1  0  0  0  0
  2 12  1  6  0  0  0
  2 13  1  0  0  0  0
  3 10  1  0  0  0  0
  4  8  1  6  0  0  0
  4 15  1  0  0  0  0
  5  9  1  0  0  0  0
  6  5  1  0  0  0  0
  6  1  1  0  0  0  0
  7  9  1  1  0  0  0
  7  4  1  0  0  0  0
  7 11  1  0  0  0  0
 10 16  1  0  0  0  0
 10 14  2  0  0  0  0
 11  3  1  1  0  0  0
 11  2  1  0  0  0  0
 13 14  1  0  0  0  0
 13 35  1  1  0  0  0
 15 12  1  0  0  0  0
 16 18  2  0  0  0  0
 17 16  1  0  0  0  0
 19 20  2  0  0  0  0
 19 17  1  0  0  0  0
 21 19  1  0  0  0  0
 22 21  1  0  0  0  0
 23 24  2  0  0  0  0
 24 22  1  0  0  0  0
 24 25  1  0  0  0  0
 26 23  1  0  0  0  0
 27 34  1  6  0  0  0
 27 29  1  0  0  0  0
 27 28  1  0  0  0  0
 29 26  1  1  0  0  0
 29 28  1  0  0  0  0
 30 34  1  0  0  0  0
 31 33  2  0  0  0  0
 32 30  2  0  0  0  0
 32 31  1  0  0  0  0
 33 27  1  0  0  0  0
 35 40  1  0  0  0  0
 37 36  1  0  0  0  0
 37 43  1  0  0  0  0
 38 40  2  0  0  0  0
 38 41  1  0  0  0  0
 39 36  2  0  0  0  0
 40 39  1  0  0  0  0
 41 37  2  0  0  0  0
 42 43  1  0  0  0  0
M  END
>  <MODEL>
1

>  <REMARK>
 VINA RESULT:      -7.6      0.000      0.000
  Name = 
  9 active torsions:
  status: ('A' for Active; 'I' for Inactive)
    1  A    between atoms: C_1  and  C_34
    2  A    between atoms: C_1  and  C_35
    3  A    between atoms: C_2  and  C_27
    4  A    between atoms: C_3  and  N_4
    5  A    between atoms: C_3  and  C_12
    6  A    between atoms: N_4  and  C_15
    7  A    between atoms: C_10  and  C_41
    8  A    between atoms: C_19  and  O_37
    9  A    between atoms: C_22  and  C_41
                            x       y       z     vdW  Elec       q    Type
                         _______ _______ _______ _____ _____    ______ ____

>  <TORSDO>
F 9

$$$$
=
 OpenBabel11062410323D

 43 48  0  0  1  0  0  0  0  0999 V2000
  161.3870  204.1310  146.1960 O   0  0  0  0  0  0  0  0  0  0  0  0
  161.8370  207.5730  149.7210 C   0  0  2  0  0  3  0  0  0  0  0  0
  162.1610  209.2690  147.9230 C   0  0  0  0  0  2  0  0  0  0  0  0
  162.3170  205.7000  147.7850 C   0  0  2  0  0  3  0  0  0  0  0  0
  160.1190  205.9950  145.3330 C   0  0  0  0  0  2  0  0  0  0  0  0
  161.1710  204.9180  145.0610 C   0  0  0  0  0  2  0  0  0  0  0  0
  161.5400  206.9230  147.2450 C   0  0  1  0  0  3  0  0  0  0  0  0
  162.5820  204.6190  146.7370 C   0  0  0  0  0  2  0  0  0  0  0  0
  160.1400  206.5330  146.7670 C   0  0  0  0  0  2  0  0  0  0  0  0
  162.1210  210.3340  148.9950 C   0  0  0  0  0  0  0  0  0  0  0  0
  161.3950  208.0140  148.3180 C   0  0  1  0  0  3  0  0  0  0  0  0
  161.2280  206.2100  150.0490 C   0  0  0  0  0  2  0  0  0  0  0  0
  161.4200  208.6460  150.7260 C   0  0  2  0  0  3  0  0  0  0  0  0
  161.8610  210.0190  150.2760 C   0  0  0  0  0  3  0  0  0  0  0  0
  161.7060  205.1230  149.0720 C   0  0  0  0  0  2  0  0  0  0  0  0
  162.5580  211.7060  148.6610 C   0  0  0  0  0  0  0  0  0  0  0  0
  161.6190  212.7820  148.5380 N   0  0  0  0  0  2  0  0  0  0  0  0
  163.7760  211.9360  148.4290 O   0  0  0  0  0  0  0  0  0  0  0  0
  160.4550  212.9290  149.3560 C   0  0  0  0  0  0  0  0  0  0  0  0
  160.3830  212.3590  150.4770 O   0  0  0  0  0  0  0  0  0  0  0  0
  159.3160  213.7610  148.8770 C   0  0  0  0  0  2  0  0  0  0  0  0
  159.3930  213.9170  147.4290 N   0  0  0  0  0  2  0  0  0  0  0  0
  158.9830  212.5650  145.4230 C   0  0  0  0  0  3  0  0  0  0  0  0
  158.5400  213.2870  146.4580 C   0  0  0  0  0  0  0  0  0  0  0  0
  157.0690  213.4150  146.6280 C   0  0  0  0  0  1  0  0  0  0  0  0
  160.4170  212.2730  145.1340 C   0  0  0  0  0  2  0  0  0  0  0  0
  161.2080  213.0640  142.8580 C   0  0  2  0  0  0  0  0  0  0  0  0
  162.3890  212.9880  143.7970 C   0  0  0  0  0  2  0  0  0  0  0  0
  161.0250  213.4120  144.3310 C   0  0  2  0  0  3  0  0  0  0  0  0
  160.2210  214.1060  140.8130 C   0  0  0  0  0  3  0  0  0  0  0  0
  160.0450  211.6840  141.2050 C   0  0  0  0  0  3  0  0  0  0  0  0
  159.6880  212.9230  140.4830 C   0  0  0  0  0  3  0  0  0  0  0  0
  160.7760  211.7280  142.3200 C   0  0  0  0  0  3  0  0  0  0  0  0
  161.2720  214.2380  141.8850 C   0  0  0  0  0  2  0  0  0  0  0  0
  161.9950  208.3450  152.1050 C   0  0  0  0  0  2  0  0  0  0  0  0
  160.1700  208.7540  155.4000 C   0  0  0  0  0  3  0  0  0  0  0  0
  159.5440  209.9940  155.2260 C   0  0  0  0  0  0  0  0  0  0  0  0
  160.5150  210.1550  153.0050 C   0  0  0  0  0  3  0  0  0  0  0  0
  160.9640  208.2150  154.3820 C   0  0  0  0  0  3  0  0  0  0  0  0
  161.1350  208.9130  153.1830 C   0  0  0  0  0  0  0  0  0  0  0  0
  159.7220  210.6940  154.0210 C   0  0  0  0  0  3  0  0  0  0  0  0
  157.9940  211.6950  156.1310 C   0  0  0  0  0  1  0  0  0  0  0  0
  158.7580  210.5050  156.2620 O   0  0  0  0  0  0  0  0  0  0  0  0
  1  8  1  0  0  0  0
  2 12  1  1  0  0  0
  2 13  1  0  0  0  0
  3 10  1  0  0  0  0
  4  8  1  6  0  0  0
  4 15  1  0  0  0  0
  5  9  1  0  0  0  0
  6  5  1  0  0  0  0
  6  1  1  0  0  0  0
  7  9  1  1  0  0  0
  7  4  1  0  0  0  0
  7 11  1  0  0  0  0
 10 14  2  0  0  0  0
 11  3  1  6  0  0  0
 11  2  1  0  0  0  0
 13 35  1  1  0  0  0
 14 13  1  0  0  0  0
 15 12  1  0  0  0  0
 16 10  1  0  0  0  0
 17 16  1  0  0  0  0
 17 19  1  0  0  0  0
 18 16  2  0  0  0  0
 19 20  2  0  0  0  0
 21 19  1  0  0  0  0
 22 21  1  0  0  0  0
 23 24  2  0  0  0  0
 24 25  1  0  0  0  0
 24 22  1  0  0  0  0
 26 23  1  0  0  0  0
 27 34  1  6  0  0  0
 27 28  1  0  0  0  0
 27 29  1  0  0  0  0
 28 29  1  0  0  0  0
 29 26  1  1  0  0  0
 30 34  1  0  0  0  0
 31 33  2  0  0  0  0
 32 30  2  0  0  0  0
 32 31  1  0  0  0  0
 33 27  1  0  0  0  0
 35 40  1  0  0  0  0
 37 36  1  0  0  0  0
 37 43  1  0  0  0  0
 38 40  2  0  0  0  0
 38 41  1  0  0  0  0
 39 36  2  0  0  0  0
 40 39  1  0  0  0  0
 41 37  2  0  0  0  0
 42 43  1  0  0  0  0
M  END
>  <MODEL>
2

>  <REMARK>
 VINA RESULT:      -7.4      1.540      1.771
  Name = 
  9 active torsions:
  status: ('A' for Active; 'I' for Inactive)
    1  A    between atoms: C_1  and  C_34
    2  A    between atoms: C_1  and  C_35
    3  A    between atoms: C_2  and  C_27
    4  A    between atoms: C_3  and  N_4
    5  A    between atoms: C_3  and  C_12
    6  A    between atoms: N_4  and  C_15
    7  A    between atoms: C_10  and  C_41
    8  A    between atoms: C_19  and  O_37
    9  A    between atoms: C_22  and  C_41
                            x       y       z     vdW  Elec       q    Type
                         _______ _______ _______ _____ _____    ______ ____

>  <TORSDO>
F 9

$$$$
=
 OpenBabel11062410323D

 43 48  0  0  1  0  0  0  0  0999 V2000
  161.3930  204.1060  145.8930 O   0  0  0  0  0  0  0  0  0  0  0  0
  161.8340  207.1320  149.7820 C   0  0  2  0  0  3  0  0  0  0  0  0
  161.9840  209.0430  148.1870 C   0  0  0  0  0  2  0  0  0  0  0  0
  162.3160  205.5280  147.6180 C   0  0  2  0  0  3  0  0  0  0  0  0
  159.9920  205.9840  145.3120 C   0  0  0  0  0  2  0  0  0  0  0  0
  161.0820  205.0070  144.8700 C   0  0  0  0  0  2  0  0  0  0  0  0
  161.4530  206.7610  147.2600 C   0  0  1  0  0  3  0  0  0  0  0  0
  162.5860  204.5940  146.4390 C   0  0  0  0  0  2  0  0  0  0  0  0
  160.0530  206.3510  146.7980 C   0  0  0  0  0  2  0  0  0  0  0  0
  161.9410  209.9710  149.3800 C   0  0  0  0  0  0  0  0  0  0  0  0
  161.3030  207.7090  148.4610 C   0  0  1  0  0  3  0  0  0  0  0  0
  161.3110  205.7080  149.9690 C   0  0  0  0  0  2  0  0  0  0  0  0
  161.4110  208.0550  150.9240 C   0  0  2  0  0  3  0  0  0  0  0  0
  161.7590  209.4940  150.6230 C   0  0  0  0  0  3  0  0  0  0  0  0
  161.7970  204.7720  148.8510 C   0  0  0  0  0  2  0  0  0  0  0  0
  162.2910  211.3960  149.1940 C   0  0  0  0  0  0  0  0  0  0  0  0
  161.3450  212.4390  149.4580 N   0  0  0  0  0  2  0  0  0  0  0  0
  163.4270  211.7080  148.7460 O   0  0  0  0  0  0  0  0  0  0  0  0
  160.3890  212.4050  150.5210 C   0  0  0  0  0  0  0  0  0  0  0  0
  160.5660  211.6580  151.5200 O   0  0  0  0  0  0  0  0  0  0  0  0
  159.1700  213.2590  150.4460 C   0  0  0  0  0  2  0  0  0  0  0  0
  158.9710  213.7160  149.0760 N   0  0  0  0  0  2  0  0  0  0  0  0
  157.8220  213.3740  146.9350 C   0  0  0  0  0  3  0  0  0  0  0  0
  157.8030  213.4970  148.2660 C   0  0  0  0  0  0  0  0  0  0  0  0
  156.4910  213.3630  148.9520 C   0  0  0  0  0  1  0  0  0  0  0  0
  159.0490  213.4130  146.0890 C   0  0  0  0  0  2  0  0  0  0  0  0
  159.8000  213.3470  143.6670 C   0  0  2  0  0  0  0  0  0  0  0  0
  158.5610  214.2030  143.7820 C   0  0  0  0  0  2  0  0  0  0  0  0
  158.7150  212.9750  144.6720 C   0  0  2  0  0  3  0  0  0  0  0  0
  161.2190  211.9000  142.2070 C   0  0  0  0  0  3  0  0  0  0  0  0
  162.2360  213.5750  143.6930 C   0  0  0  0  0  3  0  0  0  0  0  0
  162.3130  212.4140  142.7820 C   0  0  0  0  0  3  0  0  0  0  0  0
  161.0580  214.0410  144.1100 C   0  0  0  0  0  3  0  0  0  0  0  0
  159.8550  212.5170  142.3880 C   0  0  0  0  0  2  0  0  0  0  0  0
  162.0660  207.6280  152.2330 C   0  0  0  0  0  2  0  0  0  0  0  0
  160.7110  210.1650  154.7000 C   0  0  0  0  0  3  0  0  0  0  0  0
  160.0080  209.3460  155.5920 C   0  0  0  0  0  0  0  0  0  0  0  0
  160.6560  207.3990  154.2910 C   0  0  0  0  0  3  0  0  0  0  0  0
  161.3850  209.6050  153.6090 C   0  0  0  0  0  3  0  0  0  0  0  0
  161.3610  208.2210  153.4060 C   0  0  0  0  0  0  0  0  0  0  0  0
  159.9830  207.9570  155.3800 C   0  0  0  0  0  3  0  0  0  0  0  0
  158.6320  211.1600  156.5590 C   0  0  0  0  0  1  0  0  0  0  0  0
  159.3450  209.9360  156.6710 O   0  0  0  0  0  0  0  0  0  0  0  0
  1  8  1  0  0  0  0
  2 12  1  1  0  0  0
  2 13  1  0  0  0  0
  3 10  1  0  0  0  0
  4  8  1  6  0  0  0
  4 15  1  0  0  0  0
  5  9  1  0  0  0  0
  6  5  1  0  0  0  0
  6  1  1  0  0  0  0
  7  9  1  1  0  0  0
  7  4  1  0  0  0  0
  7 11  1  0  0  0  0
 10 14  2  0  0  0  0
 11  3  1  6  0  0  0
 11  2  1  0  0  0  0
 13 35  1  1  0  0  0
 14 13  1  0  0  0  0
 15 12  1  0  0  0  0
 16 10  1  0  0  0  0
 16 17  1  0  0  0  0
 17 19  1  0  0  0  0
 18 16  2  0  0  0  0
 19 20  2  0  0  0  0
 21 19  1  0  0  0  0
 22 21  1  0  0  0  0
 23 24  2  0  0  0  0
 24 25  1  0  0  0  0
 24 22  1  0  0  0  0
 26 23  1  0  0  0  0
 27 34  1  6  0  0  0
 27 28  1  0  0  0  0
 27 33  1  0  0  0  0
 27 29  1  0  0  0  0
 28 29  1  0  0  0  0
 29 26  1  1  0  0  0
 30 34  1  0  0  0  0
 30 32  2  0  0  0  0
 31 33  2  0  0  0  0
 32 31  1  0  0  0  0
 35 40  1  0  0  0  0
 36 37  1  0  0  0  0
 37 43  1  0  0  0  0
 38 41  1  0  0  0  0
 39 36  2  0  0  0  0
 40 39  1  0  0  0  0
 40 38  2  0  0  0  0
 41 37  2  0  0  0  0
 42 43  1  0  0  0  0
M  END
>  <MODEL>
3

>  <REMARK>
 VINA RESULT:      -7.1      1.567      2.515
  Name = 
  9 active torsions:
  status: ('A' for Active; 'I' for Inactive)
    1  A    between atoms: C_1  and  C_34
    2  A    between atoms: C_1  and  C_35
    3  A    between atoms: C_2  and  C_27
    4  A    between atoms: C_3  and  N_4
    5  A    between atoms: C_3  and  C_12
    6  A    between atoms: N_4  and  C_15
    7  A    between atoms: C_10  and  C_41
    8  A    between atoms: C_19  and  O_37
    9  A    between atoms: C_22  and  C_41
                            x       y       z     vdW  Elec       q    Type
                         _______ _______ _______ _____ _____    ______ ____

>  <TORSDO>
F 9

$$$$
=
 OpenBabel11062410323D

 43 48  0  0  1  0  0  0  0  0999 V2000
  161.3630  204.0660  146.5610 O   0  0  0  0  0  0  0  0  0  0  0  0
  161.7880  207.8350  149.7390 C   0  0  2  0  0  3  0  0  0  0  0  0
  162.2880  209.3190  147.7990 C   0  0  0  0  0  2  0  0  0  0  0  0
  162.2810  205.7520  148.0340 C   0  0  2  0  0  3  0  0  0  0  0  0
  160.2340  205.8830  145.4410 C   0  0  0  0  0  2  0  0  0  0  0  0
  161.2450  204.7400  145.3410 C   0  0  0  0  0  2  0  0  0  0  0  0
  161.5930  206.9430  147.3280 C   0  0  1  0  0  3  0  0  0  0  0  0
  162.5490  204.5570  147.1180 C   0  0  0  0  0  2  0  0  0  0  0  0
  160.2030  206.5650  146.8120 C   0  0  0  0  0  2  0  0  0  0  0  0
  162.2420  210.4910  148.7540 C   0  0  0  0  0  0  0  0  0  0  0  0
  161.4430  208.1450  148.2740 C   0  0  1  0  0  3  0  0  0  0  0  0
  161.0970  206.5400  150.1670 C   0  0  0  0  0  2  0  0  0  0  0  0
  161.3700  209.0230  150.6030 C   0  0  2  0  0  3  0  0  0  0  0  0
  161.8990  210.3220  150.0420 C   0  0  0  0  0  3  0  0  0  0  0  0
  161.5740  205.3390  149.3350 C   0  0  0  0  0  2  0  0  0  0  0  0
  162.7620  211.8010  148.3080 C   0  0  0  0  0  0  0  0  0  0  0  0
  162.1520  212.5200  147.2290 N   0  0  0  0  0  2  0  0  0  0  0  0
  163.7930  212.2830  148.8500 O   0  0  0  0  0  0  0  0  0  0  0  0
  160.7440  212.5500  146.9780 C   0  0  0  0  0  0  0  0  0  0  0  0
  159.9240  212.2810  147.8950 O   0  0  0  0  0  0  0  0  0  0  0  0
  160.2430  212.9000  145.6190 C   0  0  0  0  0  2  0  0  0  0  0  0
  161.0470  212.2250  144.6070 N   0  0  0  0  0  2  0  0  0  0  0  0
  161.5350  213.0190  142.3370 C   0  0  0  0  0  3  0  0  0  0  0  0
  161.8790  212.8570  143.6190 C   0  0  0  0  0  0  0  0  0  0  0  0
  163.1940  213.3970  144.0530 C   0  0  0  0  0  1  0  0  0  0  0  0
  160.2320  212.6050  141.7410 C   0  0  0  0  0  2  0  0  0  0  0  0
  160.7380  211.6300  139.4550 C   0  0  2  0  0  0  0  0  0  0  0  0
  159.3300  211.2580  139.8550 C   0  0  0  0  0  2  0  0  0  0  0  0
  160.4200  211.3410  140.9180 C   0  0  2  0  0  3  0  0  0  0  0  0
  162.7500  211.0530  138.0920 C   0  0  0  0  0  3  0  0  0  0  0  0
  161.9290  213.3680  138.2120 C   0  0  0  0  0  3  0  0  0  0  0  0
  162.9400  212.3550  137.8430 C   0  0  0  0  0  3  0  0  0  0  0  0
  160.8740  213.0430  138.9590 C   0  0  0  0  0  3  0  0  0  0  0  0
  161.4690  210.5310  138.6880 C   0  0  0  0  0  2  0  0  0  0  0  0
  161.8550  208.8430  152.0370 C   0  0  0  0  0  2  0  0  0  0  0  0
  160.0200  209.6310  155.2570 C   0  0  0  0  0  3  0  0  0  0  0  0
  159.1480  210.6470  154.8460 C   0  0  0  0  0  0  0  0  0  0  0  0
  160.0400  210.4790  152.5920 C   0  0  0  0  0  3  0  0  0  0  0  0
  160.8970  209.0410  154.3410 C   0  0  0  0  0  3  0  0  0  0  0  0
  160.9060  209.4620  153.0080 C   0  0  0  0  0  0  0  0  0  0  0  0
  159.1640  211.0690  153.5060 C   0  0  0  0  0  3  0  0  0  0  0  0
  156.8870  211.3520  155.5600 C   0  0  0  0  0  1  0  0  0  0  0  0
  158.2830  211.2160  155.7840 O   0  0  0  0  0  0  0  0  0  0  0  0
  1  8  1  0  0  0  0
  2 12  1  1  0  0  0
  2 13  1  0  0  0  0
  3 10  1  0  0  0  0
  4  8  1  6  0  0  0
  4 15  1  0  0  0  0
  5  9  1  0  0  0  0
  6  5  1  0  0  0  0
  6  1  1  0  0  0  0
  7  9  1  1  0  0  0
  7  4  1  0  0  0  0
  7 11  1  0  0  0  0
 10 14  2  0  0  0  0
 11  3  1  6  0  0  0
 11  2  1  0  0  0  0
 13 35  1  1  0  0  0
 14 13  1  0  0  0  0
 15 12  1  0  0  0  0
 16 10  1  0  0  0  0
 16 18  2  0  0  0  0
 17 16  1  0  0  0  0
 19 17  1  0  0  0  0
 19 20  2  0  0  0  0
 21 19  1  0  0  0  0
 22 21  1  0  0  0  0
 23 24  2  0  0  0  0
 24 25  1  0  0  0  0
 24 22  1  0  0  0  0
 26 23  1  0  0  0  0
 27 34  1  6  0  0  0
 27 28  1  0  0  0  0
 27 29  1  0  0  0  0
 28 29  1  0  0  0  0
 29 26  1  1  0  0  0
 30 34  1  0  0  0  0
 31 33  2  0  0  0  0
 32 30  2  0  0  0  0
 32 31  1  0  0  0  0
 33 27  1  0  0  0  0
 35 40  1  0  0  0  0
 37 36  1  0  0  0  0
 37 43  1  0  0  0  0
 38 40  2  0  0  0  0
 38 41  1  0  0  0  0
 39 36  2  0  0  0  0
 40 39  1  0  0  0  0
 41 37  2  0  0  0  0
 42 43  1  0  0  0  0
M  END
>  <MODEL>
4

>  <REMARK>
 VINA RESULT:      -7.0      1.430      2.250
  Name = 
  9 active torsions:
  status: ('A' for Active; 'I' for Inactive)
    1  A    between atoms: C_1  and  C_34
    2  A    between atoms: C_1  and  C_35
    3  A    between atoms: C_2  and  C_27
    4  A    between atoms: C_3  and  N_4
    5  A    between atoms: C_3  and  C_12
    6  A    between atoms: N_4  and  C_15
    7  A    between atoms: C_10  and  C_41
    8  A    between atoms: C_19  and  O_37
    9  A    between atoms: C_22  and  C_41
                            x       y       z     vdW  Elec       q    Type
                         _______ _______ _______ _____ _____    ______ ____

>  <TORSDO>
F 9

$$$$
=
 OpenBabel11062410323D

 43 48  0  0  1  0  0  0  0  0999 V2000
  156.0490  212.9610  155.1690 O   0  0  0  0  0  0  0  0  0  0  0  0
  160.6290  211.1660  154.6390 C   0  0  2  0  0  3  0  0  0  0  0  0
  160.0710  210.6420  152.2660 C   0  0  0  0  0  2  0  0  0  0  0  0
  157.9340  211.4530  155.0160 C   0  0  2  0  0  3  0  0  0  0  0  0
  156.7380  213.7930  153.0100 C   0  0  0  0  0  2  0  0  0  0  0  0
  155.6490  213.1070  153.8370 C   0  0  0  0  0  2  0  0  0  0  0  0
  158.3910  211.9420  153.6220 C   0  0  1  0  0  3  0  0  0  0  0  0
  156.4360  211.6200  155.2730 C   0  0  0  0  0  2  0  0  0  0  0  0
  158.1620  213.4460  153.4510 C   0  0  0  0  0  2  0  0  0  0  0  0
  161.5200  210.2600  152.0670 C   0  0  0  0  0  0  0  0  0  0  0  0
  159.8830  211.6540  153.3880 C   0  0  1  0  0  3  0  0  0  0  0  0
  160.2870  212.0660  155.8260 C   0  0  0  0  0  2  0  0  0  0  0  0
  162.1270  211.1520  154.3410 C   0  0  2  0  0  3  0  0  0  0  0  0
  162.4220  210.4260  153.0490 C   0  0  0  0  0  3  0  0  0  0  0  0
  158.7870  212.0220  156.1600 C   0  0  0  0  0  2  0  0  0  0  0  0
  161.9070  209.5240  150.8450 C   0  0  0  0  0  0  0  0  0  0  0  0
  162.2260  208.1270  150.8820 N   0  0  0  0  0  2  0  0  0  0  0  0
  162.0100  210.1380  149.7490 O   0  0  0  0  0  0  0  0  0  0  0  0
  161.5670  207.1750  151.7220 C   0  0  0  0  0  0  0  0  0  0  0  0
  160.4210  207.4160  152.1870 O   0  0  0  0  0  0  0  0  0  0  0  0
  162.2420  205.8900  152.0540 C   0  0  0  0  0  2  0  0  0  0  0  0
  162.2540  205.0210  150.8830 N   0  0  0  0  0  2  0  0  0  0  0  0
  160.8030  204.9650  148.9040 C   0  0  0  0  0  3  0  0  0  0  0  0
  161.1040  204.5690  150.1460 C   0  0  0  0  0  0  0  0  0  0  0  0
  160.2080  203.5720  150.7870 C   0  0  0  0  0  1  0  0  0  0  0  0
  161.6210  205.9030  148.0830 C   0  0  0  0  0  2  0  0  0  0  0  0
  161.4530  204.6340  145.8940 C   0  0  2  0  0  0  0  0  0  0  0  0
  162.2960  205.8700  145.6890 C   0  0  0  0  0  2  0  0  0  0  0  0
  161.1130  205.9130  146.6500 C   0  0  2  0  0  3  0  0  0  0  0  0
  159.9600  202.9210  144.8560 C   0  0  0  0  0  3  0  0  0  0  0  0
  161.7160  202.2650  146.4480 C   0  0  0  0  0  3  0  0  0  0  0  0
  160.5160  201.9830  145.6340 C   0  0  0  0  0  3  0  0  0  0  0  0
  162.1840  203.5080  146.5700 C   0  0  0  0  0  3  0  0  0  0  0  0
  160.5640  204.2930  144.7010 C   0  0  0  0  0  2  0  0  0  0  0  0
  162.8970  210.5030  155.4860 C   0  0  0  0  0  2  0  0  0  0  0  0
  165.6710  212.3770  157.2600 C   0  0  0  0  0  3  0  0  0  0  0  0
  166.6140  212.5270  156.2360 C   0  0  0  0  0  0  0  0  0  0  0  0
  165.1230  211.3590  154.7150 C   0  0  0  0  0  3  0  0  0  0  0  0
  164.4600  211.7230  157.0150 C   0  0  0  0  0  3  0  0  0  0  0  0
  164.1830  211.2160  155.7410 C   0  0  0  0  0  0  0  0  0  0  0  0
  166.3330  212.0120  154.9590 C   0  0  0  0  0  3  0  0  0  0  0  0
  168.1920  214.3960  155.8720 C   0  0  0  0  0  1  0  0  0  0  0  0
  167.8140  213.1860  156.5140 O   0  0  0  0  0  0  0  0  0  0  0  0
  1  8  1  0  0  0  0
  2 12  1  1  0  0  0
  4  8  1  1  0  0  0
  4 15  1  0  0  0  0
  5  9  1  0  0  0  0
  5  6  1  0  0  0  0
  6  1  1  0  0  0  0
  7  9  1  1  0  0  0
  7  4  1  0  0  0  0
 10  3  1  0  0  0  0
 10 14  2  0  0  0  0
 11  3  1  6  0  0  0
 11  7  1  0  0  0  0
 11  2  1  0  0  0  0
 12 15  1  0  0  0  0
 13  2  1  0  0  0  0
 13 35  1  1  0  0  0
 14 13  1  0  0  0  0
 16 17  1  0  0  0  0
 16 10  1  0  0  0  0
 17 19  1  0  0  0  0
 18 16  2  0  0  0  0
 19 21  1  0  0  0  0
 19 20  2  0  0  0  0
 22 21  1  0  0  0  0
 23 24  2  0  0  0  0
 24 25  1  0  0  0  0
 24 22  1  0  0  0  0
 26 23  1  0  0  0  0
 27 34  1  6  0  0  0
 27 33  1  0  0  0  0
 27 29  1  0  0  0  0
 28 27  1  0  0  0  0
 28 29  1  0  0  0  0
 29 26  1  1  0  0  0
 30 32  2  0  0  0  0
 31 33  2  0  0  0  0
 32 31  1  0  0  0  0
 34 30  1  0  0  0  0
 35 40  1  0  0  0  0
 37 43  1  0  0  0  0
 37 36  2  0  0  0  0
 38 41  2  0  0  0  0
 38 40  1  0  0  0  0
 39 36  1  0  0  0  0
 40 39  2  0  0  0  0
 41 37  1  0  0  0  0
 42 43  1  0  0  0  0
M  END
>  <MODEL>
5

>  <REMARK>
 VINA RESULT:      -6.4      4.924      8.725
  Name = 
  9 active torsions:
  status: ('A' for Active; 'I' for Inactive)
    1  A    between atoms: C_1  and  C_34
    2  A    between atoms: C_1  and  C_35
    3  A    between atoms: C_2  and  C_27
    4  A    between atoms: C_3  and  N_4
    5  A    between atoms: C_3  and  C_12
    6  A    between atoms: N_4  and  C_15
    7  A    between atoms: C_10  and  C_41
    8  A    between atoms: C_19  and  O_37
    9  A    between atoms: C_22  and  C_41
                            x       y       z     vdW  Elec       q    Type
                         _______ _______ _______ _____ _____    ______ ____

>  <TORSDO>
F 9

$$$$
=
 OpenBabel11062410323D

 43 48  0  0  1  0  0  0  0  0999 V2000
  160.9770  201.4160  151.2750 O   0  0  0  0  0  0  0  0  0  0  0  0
  161.2920  206.3100  151.9330 C   0  0  2  0  0  3  0  0  0  0  0  0
  161.8700  206.5250  149.5170 C   0  0  0  0  0  2  0  0  0  0  0  0
  161.8430  203.6460  151.6370 C   0  0  2  0  0  3  0  0  0  0  0  0
  159.8960  202.3230  149.3150 C   0  0  0  0  0  2  0  0  0  0  0  0
  160.9080  201.3250  149.8810 C   0  0  0  0  0  2  0  0  0  0  0  0
  161.1860  204.2570  150.3780 C   0  0  1  0  0  3  0  0  0  0  0  0
  162.1430  202.1510  151.5190 C   0  0  0  0  0  2  0  0  0  0  0  0
  159.8160  203.6360  150.1000 C   0  0  0  0  0  2  0  0  0  0  0  0
  161.7910  208.0250  149.6880 C   0  0  0  0  0  0  0  0  0  0  0  0
  161.0040  205.7770  150.5210 C   0  0  1  0  0  3  0  0  0  0  0  0
  160.5810  205.4370  152.9680 C   0  0  0  0  0  2  0  0  0  0  0  0
  160.8450  207.7690  152.0060 C   0  0  2  0  0  3  0  0  0  0  0  0
  161.3990  208.5710  150.8520 C   0  0  0  0  0  3  0  0  0  0  0  0
  161.0860  203.9860  152.9310 C   0  0  0  0  0  2  0  0  0  0  0  0
  162.3310  208.8980  148.6240 C   0  0  0  0  0  0  0  0  0  0  0  0
  162.0430  210.3020  148.5890 N   0  0  0  0  0  2  0  0  0  0  0  0
  163.0210  208.3990  147.6950 O   0  0  0  0  0  0  0  0  0  0  0  0
  161.9260  211.1260  149.7520 C   0  0  0  0  0  0  0  0  0  0  0  0
  162.4460  210.7730  150.8440 O   0  0  0  0  0  0  0  0  0  0  0  0
  161.1790  212.4130  149.6730 C   0  0  0  0  0  2  0  0  0  0  0  0
  160.7890  212.6740  148.2930 N   0  0  0  0  0  2  0  0  0  0  0  0
  159.2540  213.5200  146.5760 C   0  0  0  0  0  3  0  0  0  0  0  0
  159.5600  213.2800  147.8550 C   0  0  0  0  0  0  0  0  0  0  0  0
  158.5480  213.6340  148.8840 C   0  0  0  0  0  1  0  0  0  0  0  0
  160.1140  213.1700  145.4090 C   0  0  0  0  0  2  0  0  0  0  0  0
  160.1370  213.1490  142.8730 C   0  0  2  0  0  0  0  0  0  0  0  0
  159.5470  214.4530  143.3540 C   0  0  0  0  0  2  0  0  0  0  0  0
  159.2830  213.1700  144.1350 C   0  0  2  0  0  3  0  0  0  0  0  0
  160.2690  211.4600  141.0360 C   0  0  0  0  0  3  0  0  0  0  0  0
  162.2960  212.2080  142.2110 C   0  0  0  0  0  3  0  0  0  0  0  0
  161.5750  211.3070  141.2880 C   0  0  0  0  0  3  0  0  0  0  0  0
  161.6370  213.0960  142.9560 C   0  0  0  0  0  3  0  0  0  0  0  0
  159.4730  212.6030  141.6120 C   0  0  0  0  0  2  0  0  0  0  0  0
  161.2750  208.3980  153.3260 C   0  0  0  0  0  2  0  0  0  0  0  0
  158.8710  211.3240  153.2000 C   0  0  0  0  0  3  0  0  0  0  0  0
  158.4910  211.4390  154.5430 C   0  0  0  0  0  0  0  0  0  0  0  0
  159.9390  209.5670  155.0950 C   0  0  0  0  0  3  0  0  0  0  0  0
  159.7800  210.3380  152.8050 C   0  0  0  0  0  3  0  0  0  0  0  0
  160.3180  209.4610  153.7530 C   0  0  0  0  0  0  0  0  0  0  0  0
  159.0310  210.5520  155.4900 C   0  0  0  0  0  3  0  0  0  0  0  0
  156.2160  212.4080  154.5120 C   0  0  0  0  0  1  0  0  0  0  0  0
  157.5810  212.4350  154.9050 O   0  0  0  0  0  0  0  0  0  0  0  0
  1  8  1  0  0  0  0
  2 13  1  0  0  0  0
  2 12  1  1  0  0  0
  3 10  1  0  0  0  0
  4  8  1  6  0  0  0
  4 15  1  0  0  0  0
  5  6  1  0  0  0  0
  5  9  1  0  0  0  0
  6  1  1  0  0  0  0
  7  9  1  1  0  0  0
  7 11  1  0  0  0  0
  7  4  1  0  0  0  0
 10 14  2  0  0  0  0
 11  3  1  6  0  0  0
 11  2  1  0  0  0  0
 13 35  1  1  0  0  0
 14 13  1  0  0  0  0
 15 12  1  0  0  0  0
 16 10  1  0  0  0  0
 17 16  1  0  0  0  0
 17 19  1  0  0  0  0
 18 16  2  0  0  0  0
 19 20  2  0  0  0  0
 21 19  1  0  0  0  0
 22 21  1  0  0  0  0
 23 24  2  0  0  0  0
 24 22  1  0  0  0  0
 24 25  1  0  0  0  0
 26 23  1  0  0  0  0
 27 34  1  6  0  0  0
 27 33  1  0  0  0  0
 27 28  1  0  0  0  0
 27 29  1  0  0  0  0
 28 29  1  0  0  0  0
 29 26  1  1  0  0  0
 30 32  2  0  0  0  0
 30 34  1  0  0  0  0
 31 33  2  0  0  0  0
 32 31  1  0  0  0  0
 35 40  1  0  0  0  0
 36 37  1  0  0  0  0
 37 43  1  0  0  0  0
 37 41  2  0  0  0  0
 38 41  1  0  0  0  0
 39 36  2  0  0  0  0
 39 40  1  0  0  0  0
 40 38  2  0  0  0  0
 42 43  1  0  0  0  0
M  END
>  <MODEL>
6

>  <REMARK>
 VINA RESULT:      -6.0      2.261      3.500
  Name = 
  9 active torsions:
  status: ('A' for Active; 'I' for Inactive)
    1  A    between atoms: C_1  and  C_34
    2  A    between atoms: C_1  and  C_35
    3  A    between atoms: C_2  and  C_27
    4  A    between atoms: C_3  and  N_4
    5  A    between atoms: C_3  and  C_12
    6  A    between atoms: N_4  and  C_15
    7  A    between atoms: C_10  and  C_41
    8  A    between atoms: C_19  and  O_37
    9  A    between atoms: C_22  and  C_41
                            x       y       z     vdW  Elec       q    Type
                         _______ _______ _______ _____ _____    ______ ____

>  <TORSDO>
F 9

$$$$
=
 OpenBabel11062410323D

 43 48  0  0  1  0  0  0  0  0999 V2000
  160.4170  213.7360  144.3200 O   0  0  0  0  0  0  0  0  0  0  0  0
  159.7020  212.9510  149.1530 C   0  0  2  0  0  3  0  0  0  0  0  0
  161.5590  211.2890  149.0840 C   0  0  0  0  0  2  0  0  0  0  0  0
  159.6950  212.7800  146.4220 C   0  0  2  0  0  3  0  0  0  0  0  0
  162.6570  213.6130  145.2120 C   0  0  0  0  0  2  0  0  0  0  0  0
  161.6780  213.1630  144.1260 C   0  0  0  0  0  2  0  0  0  0  0  0
  161.1170  212.6630  147.0180 C   0  0  1  0  0  3  0  0  0  0  0  0
  159.6530  212.7130  144.8950 C   0  0  0  0  0  2  0  0  0  0  0  0
  162.0070  213.8290  146.5820 C   0  0  0  0  0  2  0  0  0  0  0  0
  161.4510  211.1870  150.5880 C   0  0  0  0  0  0  0  0  0  0  0  0
  161.0810  212.6340  148.5540 C   0  0  1  0  0  3  0  0  0  0  0  0
  159.1230  214.1960  148.4800 C   0  0  0  0  0  2  0  0  0  0  0  0
  159.8530  213.1310  150.6630 C   0  0  2  0  0  3  0  0  0  0  0  0
  160.6120  211.9780  151.2780 C   0  0  0  0  0  3  0  0  0  0  0  0
  158.9130  213.9820  146.9730 C   0  0  0  0  0  2  0  0  0  0  0  0
  162.1370  210.0770  151.2840 C   0  0  0  0  0  0  0  0  0  0  0  0
  161.9590  208.7150  150.8750 N   0  0  0  0  0  2  0  0  0  0  0  0
  162.8570  210.3180  152.2900 O   0  0  0  0  0  0  0  0  0  0  0  0
  161.8150  208.2970  149.5150 C   0  0  0  0  0  0  0  0  0  0  0  0
  162.2200  209.0280  148.5730 O   0  0  0  0  0  0  0  0  0  0  0  0
  161.1750  206.9860  149.2090 C   0  0  0  0  0  2  0  0  0  0  0  0
  161.8880  206.3320  148.1180 N   0  0  0  0  0  2  0  0  0  0  0  0
  161.2420  204.0860  147.3700 C   0  0  0  0  0  3  0  0  0  0  0  0
  161.3290  205.4050  147.1700 C   0  0  0  0  0  0  0  0  0  0  0  0
  160.7810  205.9470  145.9000 C   0  0  0  0  0  1  0  0  0  0  0  0
  161.6750  203.3760  148.6080 C   0  0  0  0  0  2  0  0  0  0  0  0
  161.0360  203.6870  151.0420 C   0  0  2  0  0  0  0  0  0  0  0  0
  160.7650  202.2580  150.6350 C   0  0  0  0  0  2  0  0  0  0  0  0
  160.5490  203.3840  149.6300 C   0  0  2  0  0  3  0  0  0  0  0  0
  160.4660  205.5700  152.5810 C   0  0  0  0  0  3  0  0  0  0  0  0
  162.8080  205.0360  152.0550 C   0  0  0  0  0  3  0  0  0  0  0  0
  161.7610  205.9060  152.6310 C   0  0  0  0  0  3  0  0  0  0  0  0
  162.4860  203.9740  151.3150 C   0  0  0  0  0  3  0  0  0  0  0  0
  160.0010  204.2550  152.0100 C   0  0  0  0  0  2  0  0  0  0  0  0
  158.4890  213.2660  151.3280 C   0  0  0  0  0  2  0  0  0  0  0  0
  158.3130  211.2640  154.5400 C   0  0  0  0  0  3  0  0  0  0  0  0
  158.7170  212.2120  155.4880 C   0  0  0  0  0  0  0  0  0  0  0  0
  158.9650  213.8560  153.7160 C   0  0  0  0  0  3  0  0  0  0  0  0
  158.2340  211.6090  153.1870 C   0  0  0  0  0  3  0  0  0  0  0  0
  158.5570  212.9050  152.7740 C   0  0  0  0  0  0  0  0  0  0  0  0
  159.0440  213.5120  155.0680 C   0  0  0  0  0  3  0  0  0  0  0  0
  159.3810  210.6200  157.2610 C   0  0  0  0  0  1  0  0  0  0  0  0
  158.7850  211.8370  156.8320 O   0  0  0  0  0  0  0  0  0  0  0  0
  1  8  1  0  0  0  0
  2 12  1  6  0  0  0
  2 13  1  0  0  0  0
  3 10  1  0  0  0  0
  4  8  1  6  0  0  0
  4 15  1  0  0  0  0
  4  7  1  0  0  0  0
  5  9  1  0  0  0  0
  6  1  1  0  0  0  0
  6  5  1  0  0  0  0
  7  9  1  1  0  0  0
  7 11  1  0  0  0  0
 10 14  2  0  0  0  0
 10 16  1  0  0  0  0
 11  3  1  6  0  0  0
 11  2  1  0  0  0  0
 13 14  1  0  0  0  0
 13 35  1  1  0  0  0
 15 12  1  0  0  0  0
 16 18  2  0  0  0  0
 17 16  1  0  0  0  0
 19 17  1  0  0  0  0
 20 19  2  0  0  0  0
 21 19  1  0  0  0  0
 22 21  1  0  0  0  0
 23 26  1  0  0  0  0
 24 23  2  0  0  0  0
 24 22  1  0  0  0  0
 25 24  1  0  0  0  0
 27 28  1  1  0  0  0
 27 33  1  0  0  0  0
 27 34  1  0  0  0  0
 29 26  1  6  0  0  0
 29 28  1  0  0  0  0
 29 27  1  0  0  0  0
 30 32  2  0  0  0  0
 31 32  1  0  0  0  0
 33 31  2  0  0  0  0
 34 30  1  0  0  0  0
 35 40  1  0  0  0  0
 36 37  1  0  0  0  0
 37 43  1  0  0  0  0
 38 41  1  0  0  0  0
 39 36  2  0  0  0  0
 40 39  1  0  0  0  0
 40 38  2  0  0  0  0
 41 37  2  0  0  0  0
 43 42  1  0  0  0  0
M  END
>  <MODEL>
7

>  <REMARK>
 VINA RESULT:      -5.9      2.643      8.325
  Name = 
  9 active torsions:
  status: ('A' for Active; 'I' for Inactive)
    1  A    between atoms: C_1  and  C_34
    2  A    between atoms: C_1  and  C_35
    3  A    between atoms: C_2  and  C_27
    4  A    between atoms: C_3  and  N_4
    5  A    between atoms: C_3  and  C_12
    6  A    between atoms: N_4  and  C_15
    7  A    between atoms: C_10  and  C_41
    8  A    between atoms: C_19  and  O_37
    9  A    between atoms: C_22  and  C_41
                            x       y       z     vdW  Elec       q    Type
                         _______ _______ _______ _____ _____    ______ ____

>  <TORSDO>
F 9

$$$$
=
 OpenBabel11062410323D

 43 48  0  0  1  0  0  0  0  0999 V2000
  160.7320  213.3420  143.8150 O   0  0  0  0  0  0  0  0  0  0  0  0
  159.8990  212.7650  148.6570 C   0  0  2  0  0  3  0  0  0  0  0  0
  161.8260  211.1850  148.7270 C   0  0  0  0  0  2  0  0  0  0  0  0
  159.9850  212.4600  145.9390 C   0  0  2  0  0  3  0  0  0  0  0  0
  162.9460  213.3610  144.7770 C   0  0  0  0  0  2  0  0  0  0  0  0
  162.0220  212.8170  143.6870 C   0  0  0  0  0  2  0  0  0  0  0  0
  161.3920  212.4340  146.5820 C   0  0  1  0  0  3  0  0  0  0  0  0
  159.9950  212.3170  144.4170 C   0  0  0  0  0  2  0  0  0  0  0  0
  162.2450  213.6160  146.1150 C   0  0  0  0  0  2  0  0  0  0  0  0
  161.6750  211.1510  150.2310 C   0  0  0  0  0  0  0  0  0  0  0  0
  161.3080  212.4800  148.1160 C   0  0  1  0  0  3  0  0  0  0  0  0
  159.2900  213.9490  147.9060 C   0  0  0  0  0  2  0  0  0  0  0  0
  159.9950  213.0250  150.1600 C   0  0  2  0  0  3  0  0  0  0  0  0
  160.7810  211.9380  150.8550 C   0  0  0  0  0  3  0  0  0  0  0  0
  159.1360  213.6530  146.4060 C   0  0  0  0  0  2  0  0  0  0  0  0
  162.3840  210.1080  151.0010 C   0  0  0  0  0  0  0  0  0  0  0  0
  162.1430  208.7140  150.7710 N   0  0  0  0  0  2  0  0  0  0  0  0
  163.1840  210.4400  151.9170 O   0  0  0  0  0  0  0  0  0  0  0  0
  161.8860  208.1460  149.4830 C   0  0  0  0  0  0  0  0  0  0  0  0
  162.2370  208.7490  148.4350 O   0  0  0  0  0  0  0  0  0  0  0  0
  161.1950  206.8300  149.3810 C   0  0  0  0  0  2  0  0  0  0  0  0
  160.7070  206.4250  150.6940 N   0  0  0  0  0  2  0  0  0  0  0  0
  160.7780  203.9730  150.7340 C   0  0  0  0  0  3  0  0  0  0  0  0
  160.9350  205.1570  151.3340 C   0  0  0  0  0  0  0  0  0  0  0  0
  161.4080  205.1580  152.7430 C   0  0  0  0  0  1  0  0  0  0  0  0
  160.3780  203.7800  149.3100 C   0  0  0  0  0  2  0  0  0  0  0  0
  161.5530  203.7800  147.0630 C   0  0  2  0  0  0  0  0  0  0  0  0
  161.0700  202.3820  147.3730 C   0  0  0  0  0  2  0  0  0  0  0  0
  161.5640  203.2790  148.5020 C   0  0  2  0  0  3  0  0  0  0  0  0
  163.1940  205.2040  145.8300 C   0  0  0  0  0  3  0  0  0  0  0  0
  160.8070  205.7960  145.8940 C   0  0  0  0  0  3  0  0  0  0  0  0
  162.2220  206.0950  145.5920 C   0  0  0  0  0  3  0  0  0  0  0  0
  160.4690  204.6990  146.5730 C   0  0  0  0  0  3  0  0  0  0  0  0
  162.8990  203.8190  146.3450 C   0  0  0  0  0  2  0  0  0  0  0  0
  158.6050  213.1330  150.7770 C   0  0  0  0  0  2  0  0  0  0  0  0
  159.6560  213.1260  154.4170 C   0  0  0  0  0  3  0  0  0  0  0  0
  158.6910  212.2890  154.9900 C   0  0  0  0  0  0  0  0  0  0  0  0
  157.6710  211.9950  152.8050 C   0  0  0  0  0  3  0  0  0  0  0  0
  159.6310  213.3960  153.0450 C   0  0  0  0  0  3  0  0  0  0  0  0
  158.6400  212.8290  152.2370 C   0  0  0  0  0  0  0  0  0  0  0  0
  157.6950  211.7250  154.1750 C   0  0  0  0  0  3  0  0  0  0  0  0
  157.6920  212.3930  157.2500 C   0  0  0  0  0  1  0  0  0  0  0  0
  158.7440  212.0380  156.3640 O   0  0  0  0  0  0  0  0  0  0  0  0
  1  8  1  0  0  0  0
  2 12  1  6  0  0  0
  2 13  1  0  0  0  0
  3 10  1  0  0  0  0
  4  8  1  6  0  0  0
  4 15  1  0  0  0  0
  4  7  1  0  0  0  0
  5  9  1  0  0  0  0
  6  1  1  0  0  0  0
  6  5  1  0  0  0  0
  7  9  1  6  0  0  0
  7 11  1  0  0  0  0
 10 14  2  0  0  0  0
 10 16  1  0  0  0  0
 11  2  1  0  0  0  0
 11  3  1  1  0  0  0
 13 35  1  1  0  0  0
 13 14  1  0  0  0  0
 15 12  1  0  0  0  0
 16 18  2  0  0  0  0
 17 16  1  0  0  0  0
 19 17  1  0  0  0  0
 20 19  2  0  0  0  0
 21 19  1  0  0  0  0
 21 22  1  0  0  0  0
 22 24  1  0  0  0  0
 23 24  2  0  0  0  0
 24 25  1  0  0  0  0
 26 23  1  0  0  0  0
 27 34  1  6  0  0  0
 27 28  1  0  0  0  0
 27 29  1  0  0  0  0
 28 29  1  0  0  0  0
 29 26  1  1  0  0  0
 30 34  1  0  0  0  0
 31 33  2  0  0  0  0
 32 30  2  0  0  0  0
 32 31  1  0  0  0  0
 33 27  1  0  0  0  0
 35 40  1  0  0  0  0
 36 37  1  0  0  0  0
 37 43  1  0  0  0  0
 38 41  1  0  0  0  0
 39 36  2  0  0  0  0
 40 38  2  0  0  0  0
 40 39  1  0  0  0  0
 41 37  2  0  0  0  0
 43 42  1  0  0  0  0
M  END
>  <MODEL>
8

>  <REMARK>
 VINA RESULT:      -5.8      2.600      7.477
  Name = 
  9 active torsions:
  status: ('A' for Active; 'I' for Inactive)
    1  A    between atoms: C_1  and  C_34
    2  A    between atoms: C_1  and  C_35
    3  A    between atoms: C_2  and  C_27
    4  A    between atoms: C_3  and  N_4
    5  A    between atoms: C_3  and  C_12
    6  A    between atoms: N_4  and  C_15
    7  A    between atoms: C_10  and  C_41
    8  A    between atoms: C_19  and  O_37
    9  A    between atoms: C_22  and  C_41
                            x       y       z     vdW  Elec       q    Type
                         _______ _______ _______ _____ _____    ______ ____

>  <TORSDO>
F 9

$$$$
=
 OpenBabel11062410323D

 43 48  0  0  1  0  0  0  0  0999 V2000
  160.1460  213.1330  144.9890 O   0  0  0  0  0  0  0  0  0  0  0  0
  158.2180  213.5680  149.5250 C   0  0  2  0  0  3  0  0  0  0  0  0
  160.2390  212.4120  150.4160 C   0  0  0  0  0  2  0  0  0  0  0  0
  159.0060  212.6550  147.0690 C   0  0  2  0  0  3  0  0  0  0  0  0
  162.0360  213.7660  146.3510 C   0  0  0  0  0  2  0  0  0  0  0  0
  161.4790  212.8280  145.2790 C   0  0  0  0  0  2  0  0  0  0  0  0
  160.2040  213.0290  147.9730 C   0  0  1  0  0  3  0  0  0  0  0  0
  159.4070  212.1640  145.6780 C   0  0  0  0  0  2  0  0  0  0  0  0
  161.0020  214.1990  147.3940 C   0  0  0  0  0  2  0  0  0  0  0  0
  159.7260  212.7060  151.8080 C   0  0  0  0  0  0  0  0  0  0  0  0
  159.7400  213.4160  149.3860 C   0  0  1  0  0  3  0  0  0  0  0  0
  157.6780  214.4170  148.3740 C   0  0  0  0  0  2  0  0  0  0  0  0
  157.9090  214.1850  150.8880 C   0  0  2  0  0  3  0  0  0  0  0  0
  158.6210  213.4470  151.9980 C   0  0  0  0  0  3  0  0  0  0  0  0
  157.9350  213.7550  147.0100 C   0  0  0  0  0  2  0  0  0  0  0  0
  160.3410  212.0130  152.9610 C   0  0  0  0  0  0  0  0  0  0  0  0
  160.8800  210.6910  152.8390 N   0  0  0  0  0  2  0  0  0  0  0  0
  160.3520  212.5690  154.0920 O   0  0  0  0  0  0  0  0  0  0  0  0
  161.5630  210.2060  151.6790 C   0  0  0  0  0  0  0  0  0  0  0  0
  162.0780  211.0090  150.8560 O   0  0  0  0  0  0  0  0  0  0  0  0
  161.6640  208.7390  151.4400 C   0  0  0  0  0  2  0  0  0  0  0  0
  160.7040  208.0340  152.2820 N   0  0  0  0  0  2  0  0  0  0  0  0
  161.7050  205.9380  153.0710 C   0  0  0  0  0  3  0  0  0  0  0  0
  161.0120  207.0590  153.2930 C   0  0  0  0  0  0  0  0  0  0  0  0
  160.5630  207.3270  154.6840 C   0  0  0  0  0  1  0  0  0  0  0  0
  162.2920  205.5390  151.7590 C   0  0  0  0  0  2  0  0  0  0  0  0
  160.8810  204.4630  149.9470 C   0  0  2  0  0  0  0  0  0  0  0  0
  160.1150  204.4500  151.2480 C   0  0  0  0  0  2  0  0  0  0  0  0
  161.6280  204.2650  151.2610 C   0  0  2  0  0  3  0  0  0  0  0  0
  161.2310  203.4060  147.7110 C   0  0  0  0  0  3  0  0  0  0  0  0
  161.1470  205.8520  147.9500 C   0  0  0  0  0  3  0  0  0  0  0  0
  161.4170  204.6200  147.1790 C   0  0  0  0  0  3  0  0  0  0  0  0
  160.8760  205.7980  149.2550 C   0  0  0  0  0  3  0  0  0  0  0  0
  160.6640  203.2160  149.0940 C   0  0  0  0  0  2  0  0  0  0  0  0
  156.4070  214.1870  151.1500 C   0  0  0  0  0  2  0  0  0  0  0  0
  154.5300  214.1220  154.4410 C   0  0  0  0  0  3  0  0  0  0  0  0
  155.5540  213.8170  155.3460 C   0  0  0  0  0  0  0  0  0  0  0  0
  157.1410  213.7620  153.5080 C   0  0  0  0  0  3  0  0  0  0  0  0
  154.8090  214.2470  153.0760 C   0  0  0  0  0  3  0  0  0  0  0  0
  156.1150  214.0700  152.6080 C   0  0  0  0  0  0  0  0  0  0  0  0
  156.8640  213.6360  154.8710 C   0  0  0  0  0  3  0  0  0  0  0  0
  154.5710  212.5690  157.2410 C   0  0  0  0  0  1  0  0  0  0  0  0
  155.2430  213.6990  156.7030 O   0  0  0  0  0  0  0  0  0  0  0  0
  1  6  1  0  0  0  0
  1  8  1  0  0  0  0
  2 12  1  6  0  0  0
  2 13  1  0  0  0  0
  3 10  1  0  0  0  0
  4  8  1  6  0  0  0
  4  7  1  0  0  0  0
  5  9  1  0  0  0  0
  6  5  1  0  0  0  0
  7  9  1  6  0  0  0
  7 11  1  0  0  0  0
 10 14  2  0  0  0  0
 10 16  1  0  0  0  0
 11  2  1  0  0  0  0
 11  3  1  1  0  0  0
 13 35  1  1  0  0  0
 13 14  1  0  0  0  0
 15  4  1  0  0  0  0
 15 12  1  0  0  0  0
 16 18  2  0  0  0  0
 17 16  1  0  0  0  0
 19 17  1  0  0  0  0
 20 19  2  0  0  0  0
 21 19  1  0  0  0  0
 21 22  1  0  0  0  0
 22 24  1  0  0  0  0
 23 24  2  0  0  0  0
 24 25  1  0  0  0  0
 26 23  1  0  0  0  0
 27 34  1  6  0  0  0
 27 28  1  0  0  0  0
 27 29  1  0  0  0  0
 28 29  1  0  0  0  0
 29 26  1  1  0  0  0
 30 34  1  0  0  0  0
 31 33  2  0  0  0  0
 32 30  2  0  0  0  0
 32 31  1  0  0  0  0
 33 27  1  0  0  0  0
 35 40  1  0  0  0  0
 36 37  1  0  0  0  0
 37 43  1  0  0  0  0
 38 41  1  0  0  0  0
 39 36  2  0  0  0  0
 40 39  1  0  0  0  0
 40 38  2  0  0  0  0
 41 37  2  0  0  0  0
 43 42  1  0  0  0  0
M  END
>  <MODEL>
9

>  <REMARK>
 VINA RESULT:      -5.3      3.392      8.584
  Name = 
  9 active torsions:
  status: ('A' for Active; 'I' for Inactive)
    1  A    between atoms: C_1  and  C_34
    2  A    between atoms: C_1  and  C_35
    3  A    between atoms: C_2  and  C_27
    4  A    between atoms: C_3  and  N_4
    5  A    between atoms: C_3  and  C_12
    6  A    between atoms: N_4  and  C_15
    7  A    between atoms: C_10  and  C_41
    8  A    between atoms: C_19  and  O_37
    9  A    between atoms: C_22  and  C_41
                            x       y       z     vdW  Elec       q    Type
                         _______ _______ _______ _____ _____    ______ ____

>  <TORSDO>
F 9

$$$$
