=
 OpenBabel11062410333D

 43 47  0  0  1  0  0  0  0  0999 V2000
  161.2010  211.9830  149.8020 N   0  0  0  0  0  0  0  0  0  0  0  0
  160.4890  211.8970  151.0470 C   0  0  0  0  0  0  0  0  0  0  0  0
  160.9160  211.1530  151.9690 O   0  0  0  0  0  0  0  0  0  0  0  0
  159.7450  212.8690  144.7870 C   0  0  0  0  0  0  0  0  0  0  0  0
  161.5510  212.7550  146.5640 C   0  0  1  0  0  3  0  0  0  0  0  0
  158.8060  212.8480  145.6830 N   0  0  0  0  0  0  0  0  0  0  0  0
  159.3950  212.7260  143.3480 C   0  0  0  0  0  1  0  0  0  0  0  0
  160.4120  212.4020  147.5100 C   0  0  2  0  0  3  0  0  0  0  0  0
  161.1180  212.9590  145.1800 N   0  0  0  0  0  2  0  0  0  0  0  0
  159.0990  213.0720  147.0940 C   0  0  0  0  0  2  0  0  0  0  0  0
  160.8450  213.0170  148.8280 C   0  0  2  0  0  3  0  0  0  0  0  0
  161.9720  213.9220  148.5950 N   0  0  0  0  0  2  0  0  0  0  0  0
  162.1410  214.0110  147.1480 C   0  0  0  0  0  2  0  0  0  0  0  0
  159.2630  212.7210  151.2870 C   0  0  0  0  0  2  0  0  0  0  0  0
  158.2980  211.8950  154.4530 C   0  0  1  0  0  3  0  0  0  0  0  0
  157.5440  213.0730  155.0880 C   0  0  2  0  0  3  0  0  0  0  0  0
  155.8040  212.6910  155.1630 Cl  0  0  0  0  0  0  0  0  0  0  0  0
  158.0140  214.1800  152.8640 C   0  0  0  0  0  2  0  0  0  0  0  0
  159.5810  212.3520  153.7610 C   0  0  0  0  0  2  0  0  0  0  0  0
  159.3080  213.3880  152.6540 C   0  0  1  0  0  3  0  0  0  0  0  0
  158.6230  210.8670  155.5160 C   0  0  0  0  0  1  0  0  0  0  0  0
  157.7480  214.4040  154.3500 C   0  0  0  0  0  2  0  0  0  0  0  0
  162.3390  211.0950  149.5590 C   0  0  0  0  0  2  0  0  0  0  0  0
  161.8930  209.7350  149.0210 C   0  0  0  0  0  2  0  0  0  0  0  0
  161.7150  208.8040  150.0520 O   0  0  0  0  0  0  0  0  0  0  0  0
  162.7560  207.8780  149.9160 C   0  0  0  0  0  2  0  0  0  0  0  0
  162.8790  207.0170  151.1670 C   0  0  0  0  0  2  0  0  0  0  0  0
  160.5580  206.0650  151.6120 N   0  0  0  0  0  2  0  0  0  0  0  0
  161.6030  206.9850  151.9490 C   0  0  0  0  0  0  0  0  0  0  0  0
  161.4190  207.8180  152.8720 O   0  0  0  0  0  0  0  0  0  0  0  0
  160.7530  204.8040  150.9570 C   0  0  0  0  0  0  0  0  0  0  0  0
  160.7580  203.4600  148.9310 C   0  0  0  0  0  3  0  0  0  0  0  0
  161.0300  203.6480  151.7030 C   0  0  0  0  0  3  0  0  0  0  0  0
  161.1750  202.4110  151.0710 C   0  0  0  0  0  3  0  0  0  0  0  0
  160.6100  204.7020  149.5610 C   0  0  0  0  0  0  0  0  0  0  0  0
  161.0380  202.3170  149.6850 C   0  0  0  0  0  3  0  0  0  0  0  0
  160.3960  205.9200  148.7190 C   0  0  0  0  0  2  0  0  0  0  0  0
  161.0000  205.7290  147.3660 C   0  0  0  0  0  0  0  0  0  0  0  0
  162.1050  205.3180  144.8260 C   0  0  0  0  0  3  0  0  0  0  0  0
  162.8460  205.0030  145.9700 C   0  0  0  0  0  3  0  0  0  0  0  0
  160.8130  205.8410  144.9510 C   0  0  0  0  0  3  0  0  0  0  0  0
  162.2940  205.2100  147.2380 C   0  0  0  0  0  3  0  0  0  0  0  0
  160.2600  206.0450  146.2190 C   0  0  0  0  0  3  0  0  0  0  0  0
  1  2  1  0  0  0  0
  2 14  1  0  0  0  0
  2  3  2  0  0  0  0
  4  9  1  0  0  0  0
  4  6  2  0  0  0  0
  5 13  1  1  0  0  0
  5  8  1  0  0  0  0
  6 10  1  0  0  0  0
  7  4  1  0  0  0  0
  8 10  1  6  0  0  0
  8 11  1  0  0  0  0
  9  5  1  0  0  0  0
 11  1  1  1  0  0  0
 12 11  1  0  0  0  0
 13 12  1  0  0  0  0
 15 16  1  0  0  0  0
 15 21  1  1  0  0  0
 16 17  1  6  0  0  0
 18 22  1  0  0  0  0
 19 15  1  0  0  0  0
 20 14  1  6  0  0  0
 20 18  1  0  0  0  0
 20 19  1  0  0  0  0
 22 16  1  0  0  0  0
 23  1  1  0  0  0  0
 24 23  1  0  0  0  0
 24 25  1  0  0  0  0
 26 25  1  0  0  0  0
 26 27  1  0  0  0  0
 27 29  1  0  0  0  0
 28 29  1  0  0  0  0
 29 30  2  0  0  0  0
 31 28  1  0  0  0  0
 31 33  1  0  0  0  0
 32 35  1  0  0  0  0
 32 36  2  0  0  0  0
 34 33  2  0  0  0  0
 35 31  2  0  0  0  0
 36 34  1  0  0  0  0
 37 35  1  0  0  0  0
 38 37  1  0  0  0  0
 39 41  2  0  0  0  0
 39 40  1  0  0  0  0
 40 42  2  0  0  0  0
 41 43  1  0  0  0  0
 42 38  1  0  0  0  0
 43 38  2  0  0  0  0
M  END
>  <MODEL>
1

>  <REMARK>
 VINA RESULT:      -7.7      0.000      0.000
  Name = 
  12 active torsions:
  status: ('A' for Active; 'I' for Inactive)
    1  A    between atoms: C_1  and  C_34
    2  A    between atoms: C_1  and  C_35
    3  A    between atoms: O_2  and  C_7
    4  A    between atoms: O_2  and  C_13
    5  A    between atoms: N_3  and  C_4
    6  A    between atoms: C_6  and  C_7
    7  A    between atoms: C_6  and  C_12
    8  A    between atoms: N_8  and  C_27
    9  A    between atoms: N_8  and  C_30
   10  A    between atoms: C_11  and  C_14
   11  A    between atoms: C_13  and  C_27
   12  A    between atoms: C_14  and  C_41
                            x       y       z     vdW  Elec       q    Type
                         _______ _______ _______ _____ _____    ______ ____

>  <TORSDO>
F 12

$$$$
=
 OpenBabel11062410333D

 43 47  0  0  1  0  0  0  0  0999 V2000
  161.7630  209.0960  151.0090 N   0  0  0  0  0  0  0  0  0  0  0  0
  162.0560  207.8310  150.3950 C   0  0  0  0  0  0  0  0  0  0  0  0
  163.0660  207.7090  149.6500 O   0  0  0  0  0  0  0  0  0  0  0  0
  159.8500  212.0760  154.9470 C   0  0  0  0  0  0  0  0  0  0  0  0
  161.3140  210.1650  154.1490 C   0  0  1  0  0  3  0  0  0  0  0  0
  159.2370  212.1370  153.8050 N   0  0  0  0  0  0  0  0  0  0  0  0
  159.6260  213.1400  155.9630 C   0  0  0  0  0  1  0  0  0  0  0  0
  160.7900  210.5190  152.7640 C   0  0  2  0  0  3  0  0  0  0  0  0
  160.7920  211.0300  155.2090 N   0  0  0  0  0  2  0  0  0  0  0  0
  159.3630  211.0700  152.8200 C   0  0  0  0  0  2  0  0  0  0  0  0
  160.7400  209.1790  152.0540 C   0  0  2  0  0  3  0  0  0  0  0  0
  160.9060  208.1040  153.0330 N   0  0  0  0  0  2  0  0  0  0  0  0
  160.8940  208.7340  154.3490 C   0  0  0  0  0  2  0  0  0  0  0  0
  161.2010  206.6320  150.6620 C   0  0  0  0  0  2  0  0  0  0  0  0
  161.5350  204.1530  148.3430 C   0  0  1  0  0  3  0  0  0  0  0  0
  161.3940  204.7410  146.9310 C   0  0  2  0  0  3  0  0  0  0  0  0
  162.9940  204.7900  146.1470 Cl  0  0  0  0  0  0  0  0  0  0  0  0
  161.0680  206.9070  148.1960 C   0  0  0  0  0  2  0  0  0  0  0  0
  160.4420  204.6640  149.2810 C   0  0  0  0  0  2  0  0  0  0  0  0
  160.4550  206.1990  149.4080 C   0  0  1  0  0  3  0  0  0  0  0  0
  161.4860  202.6410  148.2700 C   0  0  0  0  0  1  0  0  0  0  0  0
  160.7670  206.1430  146.9100 C   0  0  0  0  0  2  0  0  0  0  0  0
  162.5580  210.2730  150.6540 C   0  0  0  0  0  2  0  0  0  0  0  0
  161.9570  211.0260  149.4670 C   0  0  0  0  0  2  0  0  0  0  0  0
  161.3420  212.2180  149.8690 O   0  0  0  0  0  0  0  0  0  0  0  0
  160.7910  212.7760  148.7100 C   0  0  0  0  0  2  0  0  0  0  0  0
  161.7010  212.5340  147.5110 C   0  0  0  0  0  2  0  0  0  0  0  0
  162.1340  214.2640  145.6910 N   0  0  0  0  0  2  0  0  0  0  0  0
  162.3380  213.8010  147.0310 C   0  0  0  0  0  0  0  0  0  0  0  0
  163.1140  214.4330  147.7910 O   0  0  0  0  0  0  0  0  0  0  0  0
  160.9830  213.9680  144.8860 C   0  0  0  0  0  0  0  0  0  0  0  0
  160.0050  212.9890  142.8870 C   0  0  0  0  0  3  0  0  0  0  0  0
  159.7160  214.4520  145.2480 C   0  0  0  0  0  3  0  0  0  0  0  0
  158.6040  214.2030  144.4420 C   0  0  0  0  0  3  0  0  0  0  0  0
  161.1240  213.2380  143.6910 C   0  0  0  0  0  0  0  0  0  0  0  0
  158.7490  213.4730  143.2600 C   0  0  0  0  0  3  0  0  0  0  0  0
  162.4390  212.6350  143.3100 C   0  0  0  0  0  2  0  0  0  0  0  0
  162.5930  212.6240  141.8240 C   0  0  0  0  0  0  0  0  0  0  0  0
  162.9370  212.5800  139.0450 C   0  0  0  0  0  3  0  0  0  0  0  0
  163.1880  213.7550  139.7620 C   0  0  0  0  0  3  0  0  0  0  0  0
  162.5130  211.4280  139.7150 C   0  0  0  0  0  3  0  0  0  0  0  0
  163.0140  213.7770  141.1490 C   0  0  0  0  0  3  0  0  0  0  0  0
  162.3430  211.4490  141.1040 C   0  0  0  0  0  3  0  0  0  0  0  0
  2 14  1  0  0  0  0
  2  1  1  0  0  0  0
  3  2  2  0  0  0  0
  4  9  1  0  0  0  0
  4  7  1  0  0  0  0
  5 13  1  1  0  0  0
  5  9  1  0  0  0  0
  6  4  2  0  0  0  0
  8 10  1  1  0  0  0
  8  5  1  0  0  0  0
 10  6  1  0  0  0  0
 11  1  1  6  0  0  0
 11  8  1  0  0  0  0
 11 12  1  0  0  0  0
 12 13  1  0  0  0  0
 15 21  1  6  0  0  0
 15 19  1  0  0  0  0
 16 17  1  1  0  0  0
 16 15  1  0  0  0  0
 18 20  1  0  0  0  0
 19 20  1  0  0  0  0
 20 14  1  1  0  0  0
 22 16  1  0  0  0  0
 22 18  1  0  0  0  0
 23  1  1  0  0  0  0
 24 25  1  0  0  0  0
 24 23  1  0  0  0  0
 26 25  1  0  0  0  0
 27 26  1  0  0  0  0
 28 29  1  0  0  0  0
 29 27  1  0  0  0  0
 29 30  2  0  0  0  0
 31 33  1  0  0  0  0
 31 28  1  0  0  0  0
 32 36  2  0  0  0  0
 32 35  1  0  0  0  0
 34 33  2  0  0  0  0
 35 31  2  0  0  0  0
 36 34  1  0  0  0  0
 37 35  1  0  0  0  0
 38 37  1  0  0  0  0
 39 41  2  0  0  0  0
 39 40  1  0  0  0  0
 40 42  2  0  0  0  0
 41 43  1  0  0  0  0
 42 38  1  0  0  0  0
 43 38  2  0  0  0  0
M  END
>  <MODEL>
2

>  <REMARK>
 VINA RESULT:      -7.6      3.446      9.114
  Name = 
  12 active torsions:
  status: ('A' for Active; 'I' for Inactive)
    1  A    between atoms: C_1  and  C_34
    2  A    between atoms: C_1  and  C_35
    3  A    between atoms: O_2  and  C_7
    4  A    between atoms: O_2  and  C_13
    5  A    between atoms: N_3  and  C_4
    6  A    between atoms: C_6  and  C_7
    7  A    between atoms: C_6  and  C_12
    8  A    between atoms: N_8  and  C_27
    9  A    between atoms: N_8  and  C_30
   10  A    between atoms: C_11  and  C_14
   11  A    between atoms: C_13  and  C_27
   12  A    between atoms: C_14  and  C_41
                            x       y       z     vdW  Elec       q    Type
                         _______ _______ _______ _____ _____    ______ ____

>  <TORSDO>
F 12

$$$$
=
 OpenBabel11062410333D

 43 47  0  0  1  0  0  0  0  0999 V2000
  161.8410  208.8650  149.7590 N   0  0  0  0  0  0  0  0  0  0  0  0
  161.8460  207.7230  148.8880 C   0  0  0  0  0  0  0  0  0  0  0  0
  161.6310  207.8670  147.6540 O   0  0  0  0  0  0  0  0  0  0  0  0
  160.4510  207.5970  154.7100 C   0  0  0  0  0  0  0  0  0  0  0  0
  160.8660  209.3490  152.9230 C   0  0  1  0  0  3  0  0  0  0  0  0
  161.0470  206.6830  154.0080 N   0  0  0  0  0  0  0  0  0  0  0  0
  159.7000  207.2140  155.9350 C   0  0  0  0  0  1  0  0  0  0  0  0
  161.2410  208.1680  152.0400 C   0  0  2  0  0  3  0  0  0  0  0  0
  160.4530  208.9600  154.2740 N   0  0  0  0  0  2  0  0  0  0  0  0
  161.8640  207.0270  152.8510 C   0  0  0  0  0  2  0  0  0  0  0  0
  162.3210  208.7330  151.1360 C   0  0  2  0  0  3  0  0  0  0  0  0
  162.7630  210.0270  151.6590 N   0  0  0  0  0  2  0  0  0  0  0  0
  162.1060  210.2010  152.9500 C   0  0  0  0  0  2  0  0  0  0  0  0
  162.1500  206.3560  149.4170 C   0  0  0  0  0  2  0  0  0  0  0  0
  161.0020  203.5040  150.8950 C   0  0  1  0  0  3  0  0  0  0  0  0
  160.6450  202.4690  149.8180 C   0  0  2  0  0  3  0  0  0  0  0  0
  161.8790  201.1820  149.8010 Cl  0  0  0  0  0  0  0  0  0  0  0  0
  161.3950  204.3010  148.2420 C   0  0  0  0  0  2  0  0  0  0  0  0
  160.4470  204.8880  150.5570 C   0  0  0  0  0  2  0  0  0  0  0  0
  160.9740  205.4120  149.2090 C   0  0  1  0  0  3  0  0  0  0  0  0
  160.4650  203.0470  152.2360 C   0  0  0  0  0  1  0  0  0  0  0  0
  160.5090  203.0690  148.4100 C   0  0  0  0  0  2  0  0  0  0  0  0
  161.4450  210.1720  149.2330 C   0  0  0  0  0  2  0  0  0  0  0  0
  162.5920  210.8540  148.4860 C   0  0  0  0  0  2  0  0  0  0  0  0
  162.5940  212.2390  148.6950 O   0  0  0  0  0  0  0  0  0  0  0  0
  161.2570  212.6420  148.5980 C   0  0  0  0  0  2  0  0  0  0  0  0
  161.0430  213.5080  147.3620 C   0  0  0  0  0  2  0  0  0  0  0  0
  159.8890  213.2890  145.1010 N   0  0  0  0  0  2  0  0  0  0  0  0
  159.9370  212.9850  146.4990 C   0  0  0  0  0  0  0  0  0  0  0  0
  159.0030  212.3240  147.0200 O   0  0  0  0  0  0  0  0  0  0  0  0
  161.0320  213.5950  144.2870 C   0  0  0  0  0  0  0  0  0  0  0  0
  161.9770  214.3380  142.1740 C   0  0  0  0  0  3  0  0  0  0  0  0
  162.3300  213.3560  144.7640 C   0  0  0  0  0  3  0  0  0  0  0  0
  163.4410  213.6110  143.9570 C   0  0  0  0  0  3  0  0  0  0  0  0
  160.8590  214.0820  142.9790 C   0  0  0  0  0  0  0  0  0  0  0  0
  163.2640  214.1000  142.6610 C   0  0  0  0  0  3  0  0  0  0  0  0
  159.4980  214.4270  142.4600 C   0  0  0  0  0  2  0  0  0  0  0  0
  159.0710  213.4380  141.4260 C   0  0  0  0  0  0  0  0  0  0  0  0
  158.3080  211.6090  139.4470 C   0  0  0  0  0  3  0  0  0  0  0  0
  157.5370  212.7540  139.6760 C   0  0  0  0  0  3  0  0  0  0  0  0
  159.4590  211.3760  140.2080 C   0  0  0  0  0  3  0  0  0  0  0  0
  157.9180  213.6660  140.6660 C   0  0  0  0  0  3  0  0  0  0  0  0
  159.8420  212.2910  141.1960 C   0  0  0  0  0  3  0  0  0  0  0  0
  2 14  1  0  0  0  0
  2  1  1  0  0  0  0
  3  2  2  0  0  0  0
  4  7  1  0  0  0  0
  5 13  1  1  0  0  0
  5  9  1  0  0  0  0
  6  4  2  0  0  0  0
  8 10  1  1  0  0  0
  8  5  1  0  0  0  0
  9  4  1  0  0  0  0
 10  6  1  0  0  0  0
 11  1  1  6  0  0  0
 11 12  1  0  0  0  0
 11  8  1  0  0  0  0
 12 13  1  0  0  0  0
 15 21  1  1  0  0  0
 16 17  1  6  0  0  0
 16 15  1  0  0  0  0
 18 22  1  0  0  0  0
 18 20  1  0  0  0  0
 19 15  1  0  0  0  0
 20 14  1  1  0  0  0
 20 19  1  0  0  0  0
 22 16  1  0  0  0  0
 23  1  1  0  0  0  0
 24 25  1  0  0  0  0
 24 23  1  0  0  0  0
 26 25  1  0  0  0  0
 27 26  1  0  0  0  0
 28 29  1  0  0  0  0
 29 30  2  0  0  0  0
 29 27  1  0  0  0  0
 31 33  1  0  0  0  0
 31 28  1  0  0  0  0
 32 36  2  0  0  0  0
 32 35  1  0  0  0  0
 34 33  2  0  0  0  0
 35 31  2  0  0  0  0
 36 34  1  0  0  0  0
 37 35  1  0  0  0  0
 38 37  1  0  0  0  0
 39 40  2  0  0  0  0
 39 41  1  0  0  0  0
 40 42  1  0  0  0  0
 41 43  2  0  0  0  0
 42 38  2  0  0  0  0
 43 38  1  0  0  0  0
M  END
>  <MODEL>
3

>  <REMARK>
 VINA RESULT:      -7.2      3.515      9.416
  Name = 
  12 active torsions:
  status: ('A' for Active; 'I' for Inactive)
    1  A    between atoms: C_1  and  C_34
    2  A    between atoms: C_1  and  C_35
    3  A    between atoms: O_2  and  C_7
    4  A    between atoms: O_2  and  C_13
    5  A    between atoms: N_3  and  C_4
    6  A    between atoms: C_6  and  C_7
    7  A    between atoms: C_6  and  C_12
    8  A    between atoms: N_8  and  C_27
    9  A    between atoms: N_8  and  C_30
   10  A    between atoms: C_11  and  C_14
   11  A    between atoms: C_13  and  C_27
   12  A    between atoms: C_14  and  C_41
                            x       y       z     vdW  Elec       q    Type
                         _______ _______ _______ _____ _____    ______ ____

>  <TORSDO>
F 12

$$$$
=
 OpenBabel11062410333D

 43 47  0  0  1  0  0  0  0  0999 V2000
  161.6260  206.0470  151.4820 N   0  0  0  0  0  0  0  0  0  0  0  0
  161.5160  204.8020  150.7740 C   0  0  0  0  0  0  0  0  0  0  0  0
  161.9030  203.7320  151.3140 O   0  0  0  0  0  0  0  0  0  0  0  0
  162.3940  210.6810  149.0340 C   0  0  0  0  0  0  0  0  0  0  0  0
  162.0660  209.3500  151.1680 C   0  0  1  0  0  3  0  0  0  0  0  0
  162.0080  209.6800  148.3040 N   0  0  0  0  0  0  0  0  0  0  0  0
  162.9920  211.8800  148.3870 C   0  0  0  0  0  1  0  0  0  0  0  0
  161.9510  208.1470  150.2430 C   0  0  2  0  0  3  0  0  0  0  0  0
  162.3120  210.6090  150.4610 N   0  0  0  0  0  2  0  0  0  0  0  0
  161.3400  208.5260  148.8910 C   0  0  0  0  0  2  0  0  0  0  0  0
  160.9640  207.2450  150.9590 C   0  0  2  0  0  3  0  0  0  0  0  0
  160.3150  207.9930  152.0370 N   0  0  0  0  0  2  0  0  0  0  0  0
  160.7520  209.3790  151.9020 C   0  0  0  0  0  2  0  0  0  0  0  0
  160.9000  204.7470  149.4110 C   0  0  0  0  0  2  0  0  0  0  0  0
  161.2570  204.2940  146.0500 C   0  0  1  0  0  3  0  0  0  0  0  0
  161.0680  202.8100  145.7030 C   0  0  2  0  0  3  0  0  0  0  0  0
  159.4920  202.5840  144.9020 Cl  0  0  0  0  0  0  0  0  0  0  0  0
  160.7250  202.5850  148.1990 C   0  0  0  0  0  2  0  0  0  0  0  0
  162.1780  204.4820  147.2550 C   0  0  0  0  0  2  0  0  0  0  0  0
  161.6430  203.7710  148.5120 C   0  0  1  0  0  3  0  0  0  0  0  0
  161.8220  205.0280  144.8500 C   0  0  0  0  0  1  0  0  0  0  0  0
  161.1660  201.8780  146.9200 C   0  0  0  0  0  2  0  0  0  0  0  0
  162.3200  206.0860  152.7700 C   0  0  0  0  0  2  0  0  0  0  0  0
  161.3410  206.1880  153.9400 C   0  0  0  0  0  2  0  0  0  0  0  0
  161.5940  207.3170  154.7290 O   0  0  0  0  0  0  0  0  0  0  0  0
  160.5260  207.4030  155.6290 C   0  0  0  0  0  2  0  0  0  0  0  0
  159.8010  208.7340  155.4800 C   0  0  0  0  0  2  0  0  0  0  0  0
  160.3110  211.2270  155.6280 N   0  0  0  0  0  2  0  0  0  0  0  0
  160.6230  209.8770  155.9900 C   0  0  0  0  0  0  0  0  0  0  0  0
  161.6400  209.6460  156.6930 O   0  0  0  0  0  0  0  0  0  0  0  0
  159.0050  211.6980  155.2630 C   0  0  0  0  0  0  0  0  0  0  0  0
  157.5540  212.9200  153.7420 C   0  0  0  0  0  3  0  0  0  0  0  0
  157.9090  211.4920  156.1150 C   0  0  0  0  0  3  0  0  0  0  0  0
  156.6470  211.9890  155.7820 C   0  0  0  0  0  3  0  0  0  0  0  0
  158.8220  212.4250  154.0720 C   0  0  0  0  0  0  0  0  0  0  0  0
  156.4710  212.7040  154.5970 C   0  0  0  0  0  3  0  0  0  0  0  0
  159.9440  212.5970  153.0970 C   0  0  0  0  0  2  0  0  0  0  0  0
  159.4220  213.0910  151.7870 C   0  0  0  0  0  0  0  0  0  0  0  0
  158.4250  214.0660  149.3590 C   0  0  0  0  0  3  0  0  0  0  0  0
  157.6530  213.1910  150.1310 C   0  0  0  0  0  3  0  0  0  0  0  0
  159.6960  214.4520  149.7980 C   0  0  0  0  0  3  0  0  0  0  0  0
  158.1520  212.7030  151.3420 C   0  0  0  0  0  3  0  0  0  0  0  0
  160.1940  213.9670  151.0120 C   0  0  0  0  0  3  0  0  0  0  0  0
  1 23  1  0  0  0  0
  2  3  2  0  0  0  0
  2  1  1  0  0  0  0
  4  9  1  0  0  0  0
  5 13  1  6  0  0  0
  6 10  1  0  0  0  0
  6  4  2  0  0  0  0
  7  4  1  0  0  0  0
  8 10  1  6  0  0  0
  8 11  1  0  0  0  0
  8  5  1  0  0  0  0
  9  5  1  0  0  0  0
 11  1  1  1  0  0  0
 11 12  1  0  0  0  0
 13 12  1  0  0  0  0
 14  2  1  0  0  0  0
 15 21  1  6  0  0  0
 15 19  1  0  0  0  0
 16 17  1  1  0  0  0
 16 15  1  0  0  0  0
 16 22  1  0  0  0  0
 18 20  1  0  0  0  0
 19 20  1  0  0  0  0
 20 14  1  1  0  0  0
 22 18  1  0  0  0  0
 23 24  1  0  0  0  0
 24 25  1  0  0  0  0
 25 26  1  0  0  0  0
 27 26  1  0  0  0  0
 27 29  1  0  0  0  0
 28 29  1  0  0  0  0
 29 30  2  0  0  0  0
 31 28  1  0  0  0  0
 31 33  1  0  0  0  0
 32 35  1  0  0  0  0
 32 36  2  0  0  0  0
 34 33  2  0  0  0  0
 35 31  2  0  0  0  0
 36 34  1  0  0  0  0
 37 35  1  0  0  0  0
 38 37  1  0  0  0  0
 39 41  2  0  0  0  0
 39 40  1  0  0  0  0
 40 42  2  0  0  0  0
 41 43  1  0  0  0  0
 42 38  1  0  0  0  0
 43 38  2  0  0  0  0
M  END
>  <MODEL>
4

>  <REMARK>
 VINA RESULT:      -7.0      3.343      8.955
  Name = 
  12 active torsions:
  status: ('A' for Active; 'I' for Inactive)
    1  A    between atoms: C_1  and  C_34
    2  A    between atoms: C_1  and  C_35
    3  A    between atoms: O_2  and  C_7
    4  A    between atoms: O_2  and  C_13
    5  A    between atoms: N_3  and  C_4
    6  A    between atoms: C_6  and  C_7
    7  A    between atoms: C_6  and  C_12
    8  A    between atoms: N_8  and  C_27
    9  A    between atoms: N_8  and  C_30
   10  A    between atoms: C_11  and  C_14
   11  A    between atoms: C_13  and  C_27
   12  A    between atoms: C_14  and  C_41
                            x       y       z     vdW  Elec       q    Type
                         _______ _______ _______ _____ _____    ______ ____

>  <TORSDO>
F 12

$$$$
=
 OpenBabel11062410333D

 43 47  0  0  1  0  0  0  0  0999 V2000
  161.7130  211.1070  149.3520 N   0  0  0  0  0  0  0  0  0  0  0  0
  161.6440  210.9100  150.7730 C   0  0  0  0  0  0  0  0  0  0  0  0
  162.3110  209.9900  151.3170 O   0  0  0  0  0  0  0  0  0  0  0  0
  159.8220  213.2210  144.8790 C   0  0  0  0  0  0  0  0  0  0  0  0
  161.7310  212.8830  146.5150 C   0  0  1  0  0  3  0  0  0  0  0  0
  158.9580  212.7640  145.7310 N   0  0  0  0  0  0  0  0  0  0  0  0
  159.4120  213.4680  143.4710 C   0  0  0  0  0  1  0  0  0  0  0  0
  160.7250  212.0650  147.3130 C   0  0  2  0  0  3  0  0  0  0  0  0
  161.1850  213.4240  145.2680 N   0  0  0  0  0  2  0  0  0  0  0  0
  159.2970  212.5920  147.1380 C   0  0  0  0  0  2  0  0  0  0  0  0
  161.1340  212.3120  148.7530 C   0  0  2  0  0  3  0  0  0  0  0  0
  162.0830  213.4260  148.8050 N   0  0  0  0  0  2  0  0  0  0  0  0
  162.1450  213.9810  147.4570 C   0  0  0  0  0  2  0  0  0  0  0  0
  160.8220  211.8180  151.6340 C   0  0  0  0  0  2  0  0  0  0  0  0
  158.3790  212.5000  153.9140 C   0  0  1  0  0  3  0  0  0  0  0  0
  158.7640  211.9080  155.2780 C   0  0  2  0  0  3  0  0  0  0  0  0
  159.2470  213.2240  156.3800 Cl  0  0  0  0  0  0  0  0  0  0  0  0
  160.8190  211.1360  154.0230 C   0  0  0  0  0  2  0  0  0  0  0  0
  158.5990  211.5000  152.7800 C   0  0  0  0  0  2  0  0  0  0  0  0
  160.0640  211.0320  152.6940 C   0  0  1  0  0  3  0  0  0  0  0  0
  156.9290  212.9380  153.9410 C   0  0  0  0  0  1  0  0  0  0  0  0
  159.8870  210.8640  155.2000 C   0  0  0  0  0  2  0  0  0  0  0  0
  162.4450  210.1460  148.5250 C   0  0  0  0  0  2  0  0  0  0  0  0
  161.7820  208.7690  148.5320 C   0  0  0  0  0  2  0  0  0  0  0  0
  162.7050  207.7520  148.8050 O   0  0  0  0  0  0  0  0  0  0  0  0
  162.9830  207.1460  147.5740 C   0  0  0  0  0  2  0  0  0  0  0  0
  162.6400  205.6620  147.6140 C   0  0  0  0  0  2  0  0  0  0  0  0
  160.8390  204.0440  146.8210 N   0  0  0  0  0  2  0  0  0  0  0  0
  161.4330  205.3470  146.7870 C   0  0  0  0  0  0  0  0  0  0  0  0
  160.9720  206.2150  146.0040 O   0  0  0  0  0  0  0  0  0  0  0  0
  160.9160  203.1350  147.9290 C   0  0  0  0  0  0  0  0  0  0  0  0
  160.8640  202.7220  150.3240 C   0  0  0  0  0  3  0  0  0  0  0  0
  161.2200  201.7800  147.7200 C   0  0  0  0  0  3  0  0  0  0  0  0
  161.3390  200.9040  148.8010 C   0  0  0  0  0  3  0  0  0  0  0  0
  160.7450  203.6050  149.2440 C   0  0  0  0  0  0  0  0  0  0  0  0
  161.1630  201.3760  150.1030 C   0  0  0  0  0  3  0  0  0  0  0  0
  160.3400  205.0220  149.5070 C   0  0  0  0  0  2  0  0  0  0  0  0
  160.7200  205.4210  150.8950 C   0  0  0  0  0  0  0  0  0  0  0  0
  161.3740  206.1660  153.5140 C   0  0  0  0  0  3  0  0  0  0  0  0
  161.2150  207.1450  152.5280 C   0  0  0  0  0  3  0  0  0  0  0  0
  161.2080  204.8140  153.1930 C   0  0  0  0  0  3  0  0  0  0  0  0
  160.8910  206.7720  151.2200 C   0  0  0  0  0  3  0  0  0  0  0  0
  160.8800  204.4410  151.8850 C   0  0  0  0  0  3  0  0  0  0  0  0
  1  2  1  0  0  0  0
  2  3  2  0  0  0  0
  2 14  1  0  0  0  0
  4  9  1  0  0  0  0
  4  6  2  0  0  0  0
  5  8  1  0  0  0  0
  5 13  1  1  0  0  0
  6 10  1  0  0  0  0
  7  4  1  0  0  0  0
  8 10  1  1  0  0  0
  8 11  1  0  0  0  0
  9  5  1  0  0  0  0
 11 12  1  0  0  0  0
 11  1  1  6  0  0  0
 13 12  1  0  0  0  0
 15 21  1  1  0  0  0
 15 16  1  0  0  0  0
 16 17  1  1  0  0  0
 18 22  1  0  0  0  0
 19 15  1  0  0  0  0
 20 14  1  6  0  0  0
 20 19  1  0  0  0  0
 20 18  1  0  0  0  0
 22 16  1  0  0  0  0
 23 24  1  0  0  0  0
 23  1  1  0  0  0  0
 24 25  1  0  0  0  0
 26 27  1  0  0  0  0
 26 25  1  0  0  0  0
 28 31  1  0  0  0  0
 29 28  1  0  0  0  0
 29 27  1  0  0  0  0
 30 29  2  0  0  0  0
 31 35  1  0  0  0  0
 33 31  2  0  0  0  0
 33 34  1  0  0  0  0
 34 36  2  0  0  0  0
 35 37  1  0  0  0  0
 35 32  2  0  0  0  0
 36 32  1  0  0  0  0
 37 38  1  0  0  0  0
 38 42  2  0  0  0  0
 38 43  1  0  0  0  0
 40 39  2  0  0  0  0
 41 39  1  0  0  0  0
 42 40  1  0  0  0  0
 43 41  2  0  0  0  0
M  END
>  <MODEL>
5

>  <REMARK>
 VINA RESULT:      -6.7      1.659      3.505
  Name = 
  12 active torsions:
  status: ('A' for Active; 'I' for Inactive)
    1  A    between atoms: C_1  and  C_34
    2  A    between atoms: C_1  and  C_35
    3  A    between atoms: O_2  and  C_7
    4  A    between atoms: O_2  and  C_13
    5  A    between atoms: N_3  and  C_4
    6  A    between atoms: C_6  and  C_7
    7  A    between atoms: C_6  and  C_12
    8  A    between atoms: N_8  and  C_27
    9  A    between atoms: N_8  and  C_30
   10  A    between atoms: C_11  and  C_14
   11  A    between atoms: C_13  and  C_27
   12  A    between atoms: C_14  and  C_41
                            x       y       z     vdW  Elec       q    Type
                         _______ _______ _______ _____ _____    ______ ____

>  <TORSDO>
F 12

$$$$
=
 OpenBabel11062410333D

 43 47  0  0  1  0  0  0  0  0999 V2000
  161.4500  209.2140  151.0250 N   0  0  0  0  0  0  0  0  0  0  0  0
  161.4230  210.5210  150.4300 C   0  0  0  0  0  0  0  0  0  0  0  0
  160.8940  211.4850  151.0460 O   0  0  0  0  0  0  0  0  0  0  0  0
  161.5570  205.4170  147.3340 C   0  0  0  0  0  0  0  0  0  0  0  0
  161.2040  206.1330  149.7420 C   0  0  1  0  0  3  0  0  0  0  0  0
  162.1180  206.5480  147.0380 N   0  0  0  0  0  0  0  0  0  0  0  0
  161.2070  204.4600  146.2500 C   0  0  0  0  0  1  0  0  0  0  0  0
  161.5590  207.5250  149.2400 C   0  0  2  0  0  3  0  0  0  0  0  0
  161.2090  205.1140  148.6900 N   0  0  0  0  0  2  0  0  0  0  0  0
  162.5540  207.4740  148.0770 C   0  0  0  0  0  2  0  0  0  0  0  0
  162.2670  208.1570  150.4240 C   0  0  2  0  0  3  0  0  0  0  0  0
  162.5840  207.1210  151.4090 N   0  0  0  0  0  2  0  0  0  0  0  0
  162.2410  205.8430  150.7940 C   0  0  0  0  0  2  0  0  0  0  0  0
  162.0590  210.7720  149.0990 C   0  0  0  0  0  2  0  0  0  0  0  0
  160.8660  212.2860  146.2840 C   0  0  1  0  0  3  0  0  0  0  0  0
  161.7990  213.4370  145.8810 C   0  0  2  0  0  3  0  0  0  0  0  0
  162.7330  212.9650  144.4380 Cl  0  0  0  0  0  0  0  0  0  0  0  0
  163.0890  212.7070  147.9300 C   0  0  0  0  0  2  0  0  0  0  0  0
  160.5550  212.3070  147.7800 C   0  0  0  0  0  2  0  0  0  0  0  0
  161.8280  212.2050  148.6410 C   0  0  1  0  0  3  0  0  0  0  0  0
  159.5800  212.3710  145.4890 C   0  0  0  0  0  1  0  0  0  0  0  0
  162.7600  213.8700  146.9980 C   0  0  0  0  0  2  0  0  0  0  0  0
  160.7370  208.9770  152.2810 C   0  0  0  0  0  2  0  0  0  0  0  0
  161.5780  209.3750  153.4950 C   0  0  0  0  0  2  0  0  0  0  0  0
  161.4080  210.7260  153.8210 O   0  0  0  0  0  0  0  0  0  0  0  0
  161.6150  210.8150  155.2020 C   0  0  0  0  0  2  0  0  0  0  0  0
  160.2900  210.9770  155.9370 C   0  0  0  0  0  2  0  0  0  0  0  0
  158.8890  213.1010  155.8000 N   0  0  0  0  0  2  0  0  0  0  0  0
  160.0300  212.4030  156.3120 C   0  0  0  0  0  0  0  0  0  0  0  0
  160.8570  213.0160  157.0330 O   0  0  0  0  0  0  0  0  0  0  0  0
  157.6620  212.4790  155.3890 C   0  0  0  0  0  0  0  0  0  0  0  0
  155.6510  212.4860  154.0240 C   0  0  0  0  0  3  0  0  0  0  0  0
  157.2120  211.3070  156.0170 C   0  0  0  0  0  3  0  0  0  0  0  0
  155.9960  210.7270  155.6480 C   0  0  0  0  0  3  0  0  0  0  0  0
  156.8680  213.0730  154.3910 C   0  0  0  0  0  0  0  0  0  0  0  0
  155.2150  211.3170  154.6530 C   0  0  0  0  0  3  0  0  0  0  0  0
  157.3480  214.2750  153.6410 C   0  0  0  0  0  2  0  0  0  0  0  0
  157.1330  214.0910  152.1740 C   0  0  0  0  0  0  0  0  0  0  0  0
  156.7020  213.6950  149.4360 C   0  0  0  0  0  3  0  0  0  0  0  0
  157.9280  213.3410  150.0090 C   0  0  0  0  0  3  0  0  0  0  0  0
  155.6920  214.2490  150.2290 C   0  0  0  0  0  3  0  0  0  0  0  0
  158.1430  213.5410  151.3760 C   0  0  0  0  0  3  0  0  0  0  0  0
  155.9060  214.4460  151.5980 C   0  0  0  0  0  3  0  0  0  0  0  0
  1 23  1  0  0  0  0
  2  1  1  0  0  0  0
  2  3  2  0  0  0  0
  4  9  1  0  0  0  0
  5 13  1  1  0  0  0
  6  4  2  0  0  0  0
  6 10  1  0  0  0  0
  7  4  1  0  0  0  0
  8 10  1  6  0  0  0
  8  5  1  0  0  0  0
  8 11  1  0  0  0  0
  9  5  1  0  0  0  0
 11  1  1  1  0  0  0
 11 12  1  0  0  0  0
 13 12  1  0  0  0  0
 14  2  1  0  0  0  0
 15 21  1  6  0  0  0
 15 19  1  0  0  0  0
 16 17  1  6  0  0  0
 16 15  1  0  0  0  0
 16 22  1  0  0  0  0
 18 20  1  0  0  0  0
 19 20  1  0  0  0  0
 20 14  1  6  0  0  0
 22 18  1  0  0  0  0
 23 24  1  0  0  0  0
 24 25  1  0  0  0  0
 25 26  1  0  0  0  0
 26 27  1  0  0  0  0
 27 29  1  0  0  0  0
 28 29  1  0  0  0  0
 29 30  2  0  0  0  0
 31 28  1  0  0  0  0
 31 33  1  0  0  0  0
 32 35  1  0  0  0  0
 32 36  2  0  0  0  0
 34 33  2  0  0  0  0
 35 31  2  0  0  0  0
 36 34  1  0  0  0  0
 37 35  1  0  0  0  0
 38 37  1  0  0  0  0
 39 40  2  0  0  0  0
 39 41  1  0  0  0  0
 40 42  1  0  0  0  0
 41 43  2  0  0  0  0
 42 38  2  0  0  0  0
 43 38  1  0  0  0  0
M  END
>  <MODEL>
6

>  <REMARK>
 VINA RESULT:      -6.6      3.135      8.344
  Name = 
  12 active torsions:
  status: ('A' for Active; 'I' for Inactive)
    1  A    between atoms: C_1  and  C_34
    2  A    between atoms: C_1  and  C_35
    3  A    between atoms: O_2  and  C_7
    4  A    between atoms: O_2  and  C_13
    5  A    between atoms: N_3  and  C_4
    6  A    between atoms: C_6  and  C_7
    7  A    between atoms: C_6  and  C_12
    8  A    between atoms: N_8  and  C_27
    9  A    between atoms: N_8  and  C_30
   10  A    between atoms: C_11  and  C_14
   11  A    between atoms: C_13  and  C_27
   12  A    between atoms: C_14  and  C_41
                            x       y       z     vdW  Elec       q    Type
                         _______ _______ _______ _____ _____    ______ ____

>  <TORSDO>
F 12

$$$$
=
 OpenBabel11062410333D

 43 47  0  0  1  0  0  0  0  0999 V2000
  159.9650  212.7570  146.7940 N   0  0  0  0  0  0  0  0  0  0  0  0
  159.7260  212.6620  145.3810 C   0  0  0  0  0  0  0  0  0  0  0  0
  160.0480  211.6170  144.7540 O   0  0  0  0  0  0  0  0  0  0  0  0
  157.6810  214.0890  151.3830 C   0  0  0  0  0  0  0  0  0  0  0  0
  157.4880  213.4200  148.9440 C   0  0  1  0  0  3  0  0  0  0  0  0
  158.9470  214.3410  151.2550 N   0  0  0  0  0  0  0  0  0  0  0  0
  157.0640  214.0710  152.7370 C   0  0  0  0  0  1  0  0  0  0  0  0
  159.0090  213.4160  148.9630 C   0  0  2  0  0  3  0  0  0  0  0  0
  156.8890  213.7590  150.2370 N   0  0  0  0  0  2  0  0  0  0  0  0
  159.5690  214.4530  149.9420 C   0  0  0  0  0  2  0  0  0  0  0  0
  159.3800  213.8600  147.5600 C   0  0  2  0  0  3  0  0  0  0  0  0
  158.1920  214.3870  146.8870 N   0  0  0  0  0  2  0  0  0  0  0  0
  157.1330  214.4350  147.8900 C   0  0  0  0  0  2  0  0  0  0  0  0
  159.0510  213.7740  144.6410 C   0  0  0  0  0  2  0  0  0  0  0  0
  160.1370  213.2040  141.4580 C   0  0  1  0  0  3  0  0  0  0  0  0
  161.6660  213.3450  141.3990 C   0  0  2  0  0  3  0  0  0  0  0  0
  162.4040  211.7310  141.2380 Cl  0  0  0  0  0  0  0  0  0  0  0  0
  161.4100  213.8550  143.8630 C   0  0  0  0  0  2  0  0  0  0  0  0
  159.4920  214.3560  142.2280 C   0  0  0  0  0  2  0  0  0  0  0  0
  160.0110  214.4520  143.6740 C   0  0  1  0  0  3  0  0  0  0  0  0
  159.5780  213.1470  140.0510 C   0  0  0  0  0  1  0  0  0  0  0  0
  162.2640  214.0660  142.6160 C   0  0  0  0  0  2  0  0  0  0  0  0
  160.7130  211.6970  147.4730 C   0  0  0  0  0  2  0  0  0  0  0  0
  162.1110  212.1620  147.8830 C   0  0  0  0  0  2  0  0  0  0  0  0
  162.3510  211.9380  149.2440 O   0  0  0  0  0  0  0  0  0  0  0  0
  162.1970  210.5600  149.4390 C   0  0  0  0  0  2  0  0  0  0  0  0
  162.3350  210.2060  150.9140 C   0  0  0  0  0  2  0  0  0  0  0  0
  160.3020  209.1310  152.0110 N   0  0  0  0  0  2  0  0  0  0  0  0
  161.0280  210.3070  151.6370 C   0  0  0  0  0  0  0  0  0  0  0  0
  160.5280  211.4390  151.8620 O   0  0  0  0  0  0  0  0  0  0  0  0
  160.8910  207.8460  152.2580 C   0  0  0  0  0  0  0  0  0  0  0  0
  161.6250  205.6730  151.4530 C   0  0  0  0  0  3  0  0  0  0  0  0
  161.2190  207.4530  153.5650 C   0  0  0  0  0  3  0  0  0  0  0  0
  161.7500  206.1850  153.8130 C   0  0  0  0  0  3  0  0  0  0  0  0
  161.0900  206.9420  151.1990 C   0  0  0  0  0  0  0  0  0  0  0  0
  161.9520  205.2950  152.7570 C   0  0  0  0  0  3  0  0  0  0  0  0
  160.8310  207.3490  149.7820 C   0  0  0  0  0  2  0  0  0  0  0  0
  161.2590  206.2680  148.8450 C   0  0  0  0  0  0  0  0  0  0  0  0
  162.0170  204.2560  147.0500 C   0  0  0  0  0  3  0  0  0  0  0  0
  161.2050  203.9460  148.1460 C   0  0  0  0  0  3  0  0  0  0  0  0
  162.4530  205.5710  146.8520 C   0  0  0  0  0  3  0  0  0  0  0  0
  160.8290  204.9500  149.0430 C   0  0  0  0  0  3  0  0  0  0  0  0
  162.0730  206.5770  147.7470 C   0  0  0  0  0  3  0  0  0  0  0  0
  1 23  1  0  0  0  0
  2  1  1  0  0  0  0
  3  2  2  0  0  0  0
  4  7  1  0  0  0  0
  5 13  1  6  0  0  0
  5  8  1  0  0  0  0
  5  9  1  0  0  0  0
  6  4  2  0  0  0  0
  8 10  1  1  0  0  0
  9  4  1  0  0  0  0
 10  6  1  0  0  0  0
 11  1  1  6  0  0  0
 11  8  1  0  0  0  0
 12 11  1  0  0  0  0
 12 13  1  0  0  0  0
 14  2  1  0  0  0  0
 15 21  1  6  0  0  0
 15 19  1  0  0  0  0
 16 17  1  1  0  0  0
 16 15  1  0  0  0  0
 16 22  1  0  0  0  0
 19 20  1  0  0  0  0
 20 18  1  0  0  0  0
 20 14  1  1  0  0  0
 22 18  1  0  0  0  0
 23 24  1  0  0  0  0
 24 25  1  0  0  0  0
 25 26  1  0  0  0  0
 26 27  1  0  0  0  0
 27 29  1  0  0  0  0
 28 31  1  0  0  0  0
 29 30  2  0  0  0  0
 29 28  1  0  0  0  0
 31 33  1  0  0  0  0
 32 36  2  0  0  0  0
 33 34  2  0  0  0  0
 35 32  1  0  0  0  0
 35 31  2  0  0  0  0
 36 34  1  0  0  0  0
 37 35  1  0  0  0  0
 38 42  1  0  0  0  0
 38 37  1  0  0  0  0
 39 40  1  0  0  0  0
 40 42  2  0  0  0  0
 41 39  2  0  0  0  0
 41 43  1  0  0  0  0
 43 38  2  0  0  0  0
M  END
>  <MODEL>
7

>  <REMARK>
 VINA RESULT:      -6.6      3.219      6.804
  Name = 
  12 active torsions:
  status: ('A' for Active; 'I' for Inactive)
    1  A    between atoms: C_1  and  C_34
    2  A    between atoms: C_1  and  C_35
    3  A    between atoms: O_2  and  C_7
    4  A    between atoms: O_2  and  C_13
    5  A    between atoms: N_3  and  C_4
    6  A    between atoms: C_6  and  C_7
    7  A    between atoms: C_6  and  C_12
    8  A    between atoms: N_8  and  C_27
    9  A    between atoms: N_8  and  C_30
   10  A    between atoms: C_11  and  C_14
   11  A    between atoms: C_13  and  C_27
   12  A    between atoms: C_14  and  C_41
                            x       y       z     vdW  Elec       q    Type
                         _______ _______ _______ _____ _____    ______ ____

>  <TORSDO>
F 12

$$$$
=
 OpenBabel11062410333D

 43 47  0  0  1  0  0  0  0  0999 V2000
  160.3580  209.7670  154.3630 N   0  0  0  0  0  0  0  0  0  0  0  0
  160.1890  209.9580  155.7770 C   0  0  0  0  0  0  0  0  0  0  0  0
  159.6730  209.0480  156.4810 O   0  0  0  0  0  0  0  0  0  0  0  0
  161.1580  211.8360  149.5540 C   0  0  0  0  0  0  0  0  0  0  0  0
  161.7650  210.1520  151.3510 C   0  0  1  0  0  3  0  0  0  0  0  0
  160.4480  212.5310  150.3890 N   0  0  0  0  0  0  0  0  0  0  0  0
  161.1070  212.1510  148.1010 C   0  0  0  0  0  1  0  0  0  0  0  0
  160.6650  210.8220  152.1630 C   0  0  2  0  0  3  0  0  0  0  0  0
  161.9360  210.7260  150.0140 N   0  0  0  0  0  2  0  0  0  0  0  0
  160.5380  212.3110  151.8270 C   0  0  0  0  0  2  0  0  0  0  0  0
  161.1660  210.7140  153.5910 C   0  0  2  0  0  3  0  0  0  0  0  0
  162.5730  210.3110  153.5830 N   0  0  0  0  0  2  0  0  0  0  0  0
  163.0030  210.3280  152.1890 C   0  0  0  0  0  2  0  0  0  0  0  0
  160.6610  211.2120  156.4430 C   0  0  0  0  0  2  0  0  0  0  0  0
  157.5450  211.6490  155.1280 C   0  0  1  0  0  3  0  0  0  0  0  0
  157.3330  213.1300  154.7770 C   0  0  2  0  0  3  0  0  0  0  0  0
  157.3930  213.3340  153.0070 Cl  0  0  0  0  0  0  0  0  0  0  0  0
  159.6840  213.3650  155.6790 C   0  0  0  0  0  2  0  0  0  0  0  0
  158.1550  211.4780  156.5180 C   0  0  0  0  0  2  0  0  0  0  0  0
  159.5140  212.1910  156.6480 C   0  0  1  0  0  3  0  0  0  0  0  0
  156.2220  210.9150  155.0520 C   0  0  0  0  0  1  0  0  0  0  0  0
  158.3520  214.0700  155.4390 C   0  0  0  0  0  2  0  0  0  0  0  0
  159.8000  208.5750  153.7240 C   0  0  0  0  0  2  0  0  0  0  0  0
  160.7640  207.3900  153.7920 C   0  0  0  0  0  2  0  0  0  0  0  0
  161.1620  206.9730  152.5160 O   0  0  0  0  0  0  0  0  0  0  0  0
  162.3120  206.1990  152.7070 C   0  0  0  0  0  2  0  0  0  0  0  0
  162.4340  205.1370  151.6210 C   0  0  0  0  0  2  0  0  0  0  0  0
  160.3670  204.4640  150.2920 N   0  0  0  0  0  2  0  0  0  0  0  0
  161.1720  204.3460  151.4700 C   0  0  0  0  0  0  0  0  0  0  0  0
  160.7780  203.6180  152.4160 O   0  0  0  0  0  0  0  0  0  0  0  0
  160.8580  204.8410  148.9960 C   0  0  0  0  0  0  0  0  0  0  0  0
  162.0050  204.2720  146.9300 C   0  0  0  0  0  3  0  0  0  0  0  0
  160.7670  206.1720  148.5590 C   0  0  0  0  0  3  0  0  0  0  0  0
  161.2840  206.5490  147.3180 C   0  0  0  0  0  3  0  0  0  0  0  0
  161.4890  203.8900  148.1750 C   0  0  0  0  0  0  0  0  0  0  0  0
  161.9050  205.5990  146.5050 C   0  0  0  0  0  3  0  0  0  0  0  0
  161.5350  202.4460  148.5650 C   0  0  0  0  0  2  0  0  0  0  0  0
  161.1470  201.5830  147.4090 C   0  0  0  0  0  0  0  0  0  0  0  0
  160.4740  199.9750  145.2180 C   0  0  0  0  0  3  0  0  0  0  0  0
  160.0750  201.3150  145.2500 C   0  0  0  0  0  3  0  0  0  0  0  0
  161.2080  199.4370  146.2810 C   0  0  0  0  0  3  0  0  0  0  0  0
  160.4090  202.1170  146.3460 C   0  0  0  0  0  3  0  0  0  0  0  0
  161.5460  200.2400  147.3750 C   0  0  0  0  0  3  0  0  0  0  0  0
  1  2  1  0  0  0  0
  2 14  1  0  0  0  0
  2  3  2  0  0  0  0
  4  9  1  0  0  0  0
  4  6  2  0  0  0  0
  5  8  1  0  0  0  0
  5 13  1  1  0  0  0
  6 10  1  0  0  0  0
  7  4  1  0  0  0  0
  8 10  1  6  0  0  0
  8 11  1  0  0  0  0
  9  5  1  0  0  0  0
 11  1  1  1  0  0  0
 12 11  1  0  0  0  0
 13 12  1  0  0  0  0
 15 21  1  1  0  0  0
 15 19  1  0  0  0  0
 16 17  1  6  0  0  0
 16 15  1  0  0  0  0
 16 22  1  0  0  0  0
 18 20  1  0  0  0  0
 19 20  1  0  0  0  0
 20 14  1  6  0  0  0
 22 18  1  0  0  0  0
 23 24  1  0  0  0  0
 23  1  1  0  0  0  0
 25 26  1  0  0  0  0
 25 24  1  0  0  0  0
 27 26  1  0  0  0  0
 28 29  1  0  0  0  0
 29 27  1  0  0  0  0
 29 30  2  0  0  0  0
 31 28  1  0  0  0  0
 32 35  1  0  0  0  0
 33 31  1  0  0  0  0
 34 33  2  0  0  0  0
 35 37  1  0  0  0  0
 35 31  2  0  0  0  0
 36 32  2  0  0  0  0
 36 34  1  0  0  0  0
 38 37  1  0  0  0  0
 39 40  2  0  0  0  0
 39 41  1  0  0  0  0
 40 42  1  0  0  0  0
 41 43  2  0  0  0  0
 42 38  2  0  0  0  0
 43 38  1  0  0  0  0
M  END
>  <MODEL>
8

>  <REMARK>
 VINA RESULT:      -6.6      2.443      4.394
  Name = 
  12 active torsions:
  status: ('A' for Active; 'I' for Inactive)
    1  A    between atoms: C_1  and  C_34
    2  A    between atoms: C_1  and  C_35
    3  A    between atoms: O_2  and  C_7
    4  A    between atoms: O_2  and  C_13
    5  A    between atoms: N_3  and  C_4
    6  A    between atoms: C_6  and  C_7
    7  A    between atoms: C_6  and  C_12
    8  A    between atoms: N_8  and  C_27
    9  A    between atoms: N_8  and  C_30
   10  A    between atoms: C_11  and  C_14
   11  A    between atoms: C_13  and  C_27
   12  A    between atoms: C_14  and  C_41
                            x       y       z     vdW  Elec       q    Type
                         _______ _______ _______ _____ _____    ______ ____

>  <TORSDO>
F 12

$$$$
=
 OpenBabel11062410333D

 43 47  0  0  1  0  0  0  0  0999 V2000
  161.5560  207.8930  150.6120 N   0  0  0  0  0  0  0  0  0  0  0  0
  161.5350  206.7780  149.7060 C   0  0  0  0  0  0  0  0  0  0  0  0
  162.3740  206.7110  148.7670 O   0  0  0  0  0  0  0  0  0  0  0  0
  160.6240  210.2820  155.2460 C   0  0  0  0  0  0  0  0  0  0  0  0
  161.7660  208.4570  153.9040 C   0  0  1  0  0  3  0  0  0  0  0  0
  159.8220  210.5570  154.2640 N   0  0  0  0  0  0  0  0  0  0  0  0
  160.6710  211.1760  156.4340 C   0  0  0  0  0  1  0  0  0  0  0  0
  161.0300  209.0570  152.7140 C   0  0  2  0  0  3  0  0  0  0  0  0
  161.5130  209.1630  155.1630 N   0  0  0  0  0  2  0  0  0  0  0  0
  159.6830  209.6600  153.1230 C   0  0  0  0  0  2  0  0  0  0  0  0
  160.7470  207.8550  151.8330 C   0  0  2  0  0  3  0  0  0  0  0  0
  161.0040  206.6270  152.5890 N   0  0  0  0  0  2  0  0  0  0  0  0
  161.2780  207.0340  153.9630 C   0  0  0  0  0  2  0  0  0  0  0  0
  160.5560  205.6610  149.8860 C   0  0  0  0  0  2  0  0  0  0  0  0
  160.4560  202.6220  148.3420 C   0  0  1  0  0  3  0  0  0  0  0  0
  160.3990  201.5060  149.3960 C   0  0  2  0  0  3  0  0  0  0  0  0
  158.7590  200.8080  149.4310 Cl  0  0  0  0  0  0  0  0  0  0  0  0
  160.4640  203.4490  151.0140 C   0  0  0  0  0  2  0  0  0  0  0  0
  161.5180  203.6670  148.6800 C   0  0  0  0  0  2  0  0  0  0  0  0
  161.2690  204.3270  150.0500 C   0  0  1  0  0  3  0  0  0  0  0  0
  160.7410  202.0200  146.9810 C   0  0  0  0  0  1  0  0  0  0  0  0
  160.7900  201.9730  150.8060 C   0  0  0  0  0  2  0  0  0  0  0  0
  162.4580  209.0160  150.3550 C   0  0  0  0  0  2  0  0  0  0  0  0
  161.8650  210.0010  149.3470 C   0  0  0  0  0  2  0  0  0  0  0  0
  161.9170  211.3180  149.8200 O   0  0  0  0  0  0  0  0  0  0  0  0
  161.2920  212.1010  148.8430 C   0  0  0  0  0  2  0  0  0  0  0  0
  162.2260  212.3370  147.6630 C   0  0  0  0  0  2  0  0  0  0  0  0
  161.5410  214.4500  146.4130 N   0  0  0  0  0  2  0  0  0  0  0  0
  162.3890  213.7950  147.3640 C   0  0  0  0  0  0  0  0  0  0  0  0
  163.3220  214.4400  147.9050 O   0  0  0  0  0  0  0  0  0  0  0  0
  160.2080  214.0350  146.0790 C   0  0  0  0  0  0  0  0  0  0  0  0
  158.6450  213.0250  144.5150 C   0  0  0  0  0  3  0  0  0  0  0  0
  159.1360  214.3220  146.9380 C   0  0  0  0  0  3  0  0  0  0  0  0
  157.8320  213.9590  146.5930 C   0  0  0  0  0  3  0  0  0  0  0  0
  159.9540  213.3890  144.8550 C   0  0  0  0  0  0  0  0  0  0  0  0
  157.5870  213.3130  145.3810 C   0  0  0  0  0  3  0  0  0  0  0  0
  161.0750  212.9920  143.9480 C   0  0  0  0  0  2  0  0  0  0  0  0
  160.5460  212.6130  142.6040 C   0  0  0  0  0  0  0  0  0  0  0  0
  159.5110  211.8720  140.1100 C   0  0  0  0  0  3  0  0  0  0  0  0
  160.5920  211.1710  140.6540 C   0  0  0  0  0  3  0  0  0  0  0  0
  158.9480  212.9450  140.8090 C   0  0  0  0  0  3  0  0  0  0  0  0
  161.1100  211.5430  141.8980 C   0  0  0  0  0  3  0  0  0  0  0  0
  159.4630  213.3140  142.0560 C   0  0  0  0  0  3  0  0  0  0  0  0
  2 14  1  0  0  0  0
  2  1  1  0  0  0  0
  3  2  2  0  0  0  0
  4  7  1  0  0  0  0
  5 13  1  1  0  0  0
  5  9  1  0  0  0  0
  6  4  2  0  0  0  0
  8 10  1  1  0  0  0
  8  5  1  0  0  0  0
  9  4  1  0  0  0  0
 10  6  1  0  0  0  0
 11  1  1  6  0  0  0
 11 12  1  0  0  0  0
 11  8  1  0  0  0  0
 12 13  1  0  0  0  0
 15 21  1  6  0  0  0
 15 19  1  0  0  0  0
 15 16  1  0  0  0  0
 16 17  1  1  0  0  0
 16 22  1  0  0  0  0
 19 20  1  0  0  0  0
 20 14  1  6  0  0  0
 20 18  1  0  0  0  0
 22 18  1  0  0  0  0
 23  1  1  0  0  0  0
 24 25  1  0  0  0  0
 24 23  1  0  0  0  0
 26 25  1  0  0  0  0
 27 26  1  0  0  0  0
 28 29  1  0  0  0  0
 29 27  1  0  0  0  0
 29 30  2  0  0  0  0
 31 28  1  0  0  0  0
 31 33  1  0  0  0  0
 32 35  1  0  0  0  0
 32 36  2  0  0  0  0
 34 33  2  0  0  0  0
 35 31  2  0  0  0  0
 36 34  1  0  0  0  0
 37 35  1  0  0  0  0
 38 37  1  0  0  0  0
 39 40  2  0  0  0  0
 39 41  1  0  0  0  0
 40 42  1  0  0  0  0
 41 43  2  0  0  0  0
 42 38  2  0  0  0  0
 43 38  1  0  0  0  0
M  END
>  <MODEL>
9

>  <REMARK>
 VINA RESULT:      -6.5      3.277      9.287
  Name = 
  12 active torsions:
  status: ('A' for Active; 'I' for Inactive)
    1  A    between atoms: C_1  and  C_34
    2  A    between atoms: C_1  and  C_35
    3  A    between atoms: O_2  and  C_7
    4  A    between atoms: O_2  and  C_13
    5  A    between atoms: N_3  and  C_4
    6  A    between atoms: C_6  and  C_7
    7  A    between atoms: C_6  and  C_12
    8  A    between atoms: N_8  and  C_27
    9  A    between atoms: N_8  and  C_30
   10  A    between atoms: C_11  and  C_14
   11  A    between atoms: C_13  and  C_27
   12  A    between atoms: C_14  and  C_41
                            x       y       z     vdW  Elec       q    Type
                         _______ _______ _______ _____ _____    ______ ____

>  <TORSDO>
F 12

$$$$
