=
 OpenBabel11062409143D

 37 40  0  0  1  0  0  0  0  0999 V2000
  160.9140  210.4670  152.0180 C   0  0  1  0  0  3  0  0  0  0  0  0
  157.8550  211.6890  153.6350 O   0  0  0  0  0  0  0  0  0  0  0  0
  161.0180  211.5220  150.9070 C   0  0  1  0  0  3  0  0  0  0  0  0
  156.3690  213.3430  151.2840 C   0  0  0  0  0  2  0  0  0  0  0  0
  159.4290  210.4260  154.9850 C   0  0  1  0  0  3  0  0  0  0  0  0
  162.7920  210.0450  155.2730 O   0  0  0  0  0  1  0  0  0  0  0  0
  157.8310  213.0780  151.6590 C   0  0  1  0  0  3  0  0  0  0  0  0
  155.8630  214.4480  151.9890 O   0  0  0  0  0  0  0  0  0  0  0  0
  161.8610  210.7700  153.1940 C   0  0  0  0  0  2  0  0  0  0  0  0
  158.7650  214.1100  151.0520 C   0  0  0  0  0  2  0  0  0  0  0  0
  159.9640  213.4280  150.3990 C   0  0  2  0  0  3  0  0  0  0  0  0
  157.1280  213.9700  153.9590 C   0  0  0  0  0  2  0  0  0  0  0  0
  155.7430  214.0330  153.3240 C   0  0  0  0  0  2  0  0  0  0  0  0
  160.7790  212.8300  151.3710 O   0  0  0  0  0  0  0  0  0  0  0  0
  161.8770  209.6910  154.2830 C   0  0  2  0  0  3  0  0  0  0  0  0
  158.0260  213.0020  153.1830 C   0  0  1  0  0  3  0  0  0  0  0  0
  159.1550  211.1800  153.6750 C   0  0  1  0  0  3  0  0  0  0  0  0
  160.5240  209.3310  154.9310 C   0  0  2  0  0  3  0  0  0  0  0  0
  159.4480  210.3300  152.4420 C   0  0  0  0  0  2  0  0  0  0  0  0
  160.2340  212.6870  155.8040 C   0  0  0  0  0  1  0  0  0  0  0  0
  159.5860  211.3640  156.1810 C   0  0  0  0  0  2  0  0  0  0  0  0
  162.0540  210.7590  148.8680 C   0  0  0  0  0  1  0  0  0  0  0  0
  162.2700  211.4180  150.1500 N   0  0  0  0  0  2  0  0  0  0  0  0
  160.7770  214.4530  149.6210 C   0  0  0  0  0  2  0  0  0  0  0  0
  160.6760  214.2090  148.1240 C   0  0  0  0  0  2  0  0  0  0  0  0
  161.9350  213.9210  147.5960 O   0  0  0  0  0  1  0  0  0  0  0  0
  160.0160  208.1680  154.3460 O   0  0  0  0  0  0  0  0  0  0  0  0
  161.0810  207.2610  154.3570 C   0  0  0  0  0  2  0  0  0  0  0  0
  162.4730  207.0610  152.2850 C   0  0  0  0  0  2  0  0  0  0  0  0
  160.5420  204.3350  152.0300 C   0  0  0  0  0  2  0  0  0  0  0  0
  161.2470  204.5720  150.7810 N   0  0  0  0  0  2  0  0  0  0  0  0
  159.8040  206.0080  149.6470 O   0  0  0  0  0  0  0  0  0  0  0  0
  162.0690  206.7360  149.8080 C   0  0  0  0  0  2  0  0  0  0  0  0
  160.9780  205.7440  150.0180 C   0  0  0  0  0  0  0  0  0  0  0  0
  161.2440  205.0560  153.1790 C   0  0  0  0  0  2  0  0  0  0  0  0
  162.1120  207.7330  150.9650 C   0  0  0  0  0  2  0  0  0  0  0  0
  161.2190  206.5720  153.0060 C   0  0  1  0  0  3  0  0  0  0  0  0
  1 19  1  1  0  0  0
  1  9  1  0  0  0  0
  2 17  1  0  0  0  0
  3 23  1  1  0  0  0
  3 14  1  0  0  0  0
  3  1  1  0  0  0  0
  4  7  1  0  0  0  0
  4  8  1  0  0  0  0
  5 21  1  1  0  0  0
  7 10  1  1  0  0  0
  7 16  1  0  0  0  0
  8 13  1  0  0  0  0
  9 15  1  0  0  0  0
 11 24  1  1  0  0  0
 11 10  1  0  0  0  0
 11 14  1  0  0  0  0
 13 12  1  0  0  0  0
 15 18  1  0  0  0  0
 15  6  1  1  0  0  0
 16  2  1  0  0  0  0
 16 12  1  1  0  0  0
 17 19  1  6  0  0  0
 17  5  1  0  0  0  0
 18 27  1  6  0  0  0
 18  5  1  0  0  0  0
 20 21  1  0  0  0  0
 22 23  1  0  0  0  0
 25 24  1  0  0  0  0
 26 25  1  0  0  0  0
 27 28  1  0  0  0  0
 29 37  1  0  0  0  0
 30 35  1  0  0  0  0
 31 30  1  0  0  0  0
 32 34  2  0  0  0  0
 33 34  1  0  0  0  0
 33 36  1  0  0  0  0
 34 31  1  0  0  0  0
 36 29  1  0  0  0  0
 37 35  1  0  0  0  0
 37 28  1  1  0  0  0
M  END
>  <MODEL>
1

>  <REMARK>
 VINA RESULT:      -3.5      0.000      0.000
  Name = 
  7 active torsions:
  status: ('A' for Active; 'I' for Inactive)
    1  A    between atoms: C_3  and  C_32
    2  A    between atoms: C_5  and  N_23
    3  A    between atoms: C_10  and  C_14
    4  A    between atoms: C_21  and  C_32
    5  A    between atoms: C_27  and  O_33
    6  A    between atoms: C_27  and  C_37
    7  A    between atoms: O_33  and  C_34
                            x       y       z     vdW  Elec       q    Type
                         _______ _______ _______ _____ _____    ______ ____

>  <TORSDO>
F 7

$$$$
=
 OpenBabel11062409143D

 37 40  0  0  1  0  0  0  0  0999 V2000
  160.6950  203.9550  150.4080 C   0  0  1  0  0  3  0  0  0  0  0  0
  161.0440  206.1940  147.5220 O   0  0  0  0  0  0  0  0  0  0  0  0
  160.6530  202.6180  149.6520 C   0  0  1  0  0  3  0  0  0  0  0  0
  159.8130  204.4700  145.0770 C   0  0  0  0  0  2  0  0  0  0  0  0
  161.9020  206.9540  149.6640 C   0  0  1  0  0  3  0  0  0  0  0  0
  163.4340  205.6400  152.3950 O   0  0  0  0  0  1  0  0  0  0  0  0
  160.5820  204.1290  146.3580 C   0  0  1  0  0  3  0  0  0  0  0  0
  160.6960  204.7880  144.0310 O   0  0  0  0  0  0  0  0  0  0  0  0
  162.0830  204.2350  151.0120 C   0  0  0  0  0  2  0  0  0  0  0  0
  161.2440  202.7650  146.2730 C   0  0  0  0  0  2  0  0  0  0  0  0
  160.9720  201.9590  147.5390 C   0  0  2  0  0  3  0  0  0  0  0  0
  162.2820  205.8380  145.4790 C   0  0  0  0  0  2  0  0  0  0  0  0
  161.2580  206.0300  144.3640 C   0  0  0  0  0  2  0  0  0  0  0  0
  161.6270  202.5340  148.6380 O   0  0  0  0  0  0  0  0  0  0  0  0
  162.1510  205.5040  151.8690 C   0  0  2  0  0  3  0  0  0  0  0  0
  161.6180  205.2110  146.7080 C   0  0  1  0  0  3  0  0  0  0  0  0
  161.3740  205.7860  148.8170 C   0  0  1  0  0  3  0  0  0  0  0  0
  161.7230  206.8260  151.1970 C   0  0  2  0  0  3  0  0  0  0  0  0
  160.2010  205.0700  149.4800 C   0  0  0  0  0  2  0  0  0  0  0  0
  163.3170  208.5600  148.3060 C   0  0  0  0  0  1  0  0  0  0  0  0
  163.3130  207.3790  149.2640 C   0  0  0  0  0  2  0  0  0  0  0  0
  159.4730  200.6640  150.4260 C   0  0  0  0  0  1  0  0  0  0  0  0
  160.6860  201.4620  150.5550 N   0  0  0  0  0  2  0  0  0  0  0  0
  161.4610  200.5300  147.3530 C   0  0  0  0  0  2  0  0  0  0  0  0
  160.9970  199.9610  146.0220 C   0  0  0  0  0  2  0  0  0  0  0  0
  161.4950  198.6690  145.8490 O   0  0  0  0  0  1  0  0  0  0  0  0
  160.4080  207.1340  151.5580 O   0  0  0  0  0  0  0  0  0  0  0  0
  160.4070  208.5150  151.7840 C   0  0  0  0  0  2  0  0  0  0  0  0
  161.0090  207.5430  154.0120 C   0  0  0  0  0  2  0  0  0  0  0  0
  161.5280  210.8060  154.5690 C   0  0  0  0  0  2  0  0  0  0  0  0
  161.5510  210.0710  155.8220 N   0  0  0  0  0  2  0  0  0  0  0  0
  159.3070  210.0630  156.4500 O   0  0  0  0  0  0  0  0  0  0  0  0
  160.3800  207.9340  156.4320 C   0  0  0  0  0  2  0  0  0  0  0  0
  160.3760  209.4170  156.2910 C   0  0  0  0  0  0  0  0  0  0  0  0
  161.7730  209.8600  153.3960 C   0  0  0  0  0  2  0  0  0  0  0  0
  159.9870  207.2730  155.1120 C   0  0  0  0  0  2  0  0  0  0  0  0
  160.6630  208.8230  153.2530 C   0  0  1  0  0  3  0  0  0  0  0  0
  1 19  1  6  0  0  0
  1  9  1  0  0  0  0
  2 17  1  0  0  0  0
  3  1  1  0  0  0  0
  3 23  1  1  0  0  0
  5 21  1  1  0  0  0
  5 18  1  0  0  0  0
  7  4  1  6  0  0  0
  7 16  1  0  0  0  0
  8 13  1  0  0  0  0
  8  4  1  0  0  0  0
  9 15  1  0  0  0  0
 10  7  1  0  0  0  0
 10 11  1  0  0  0  0
 11 24  1  6  0  0  0
 11 14  1  0  0  0  0
 13 12  1  0  0  0  0
 14  3  1  0  0  0  0
 15  6  1  6  0  0  0
 16 12  1  6  0  0  0
 16  2  1  0  0  0  0
 17 19  1  1  0  0  0
 17  5  1  0  0  0  0
 18 27  1  6  0  0  0
 18 15  1  0  0  0  0
 20 21  1  0  0  0  0
 22 23  1  0  0  0  0
 25 24  1  0  0  0  0
 26 25  1  0  0  0  0
 27 28  1  0  0  0  0
 29 36  1  0  0  0  0
 30 31  1  0  0  0  0
 31 34  1  0  0  0  0
 34 33  1  0  0  0  0
 34 32  2  0  0  0  0
 35 30  1  0  0  0  0
 36 33  1  0  0  0  0
 37 28  1  6  0  0  0
 37 35  1  0  0  0  0
 37 29  1  0  0  0  0
M  END
>  <MODEL>
2

>  <REMARK>
 VINA RESULT:      -3.0      3.965      9.179
  Name = 
  7 active torsions:
  status: ('A' for Active; 'I' for Inactive)
    1  A    between atoms: C_3  and  C_32
    2  A    between atoms: C_5  and  N_23
    3  A    between atoms: C_10  and  C_14
    4  A    between atoms: C_21  and  C_32
    5  A    between atoms: C_27  and  O_33
    6  A    between atoms: C_27  and  C_37
    7  A    between atoms: O_33  and  C_34
                            x       y       z     vdW  Elec       q    Type
                         _______ _______ _______ _____ _____    ______ ____

>  <TORSDO>
F 7

$$$$
=
 OpenBabel11062409143D

 37 40  0  0  1  0  0  0  0  0999 V2000
  160.7030  204.1090  150.4410 C   0  0  1  0  0  3  0  0  0  0  0  0
  161.0880  206.2470  147.4840 O   0  0  0  0  0  0  0  0  0  0  0  0
  160.6480  202.7490  149.7300 C   0  0  1  0  0  3  0  0  0  0  0  0
  159.8440  204.4570  145.0930 C   0  0  0  0  0  2  0  0  0  0  0  0
  161.9470  207.0680  149.6020 C   0  0  1  0  0  3  0  0  0  0  0  0
  163.4560  205.8280  152.3800 O   0  0  0  0  0  1  0  0  0  0  0  0
  160.6050  204.1500  146.3870 C   0  0  1  0  0  3  0  0  0  0  0  0
  160.7330  204.7300  144.0400 O   0  0  0  0  0  0  0  0  0  0  0  0
  162.0920  204.3940  151.0400 C   0  0  0  0  0  2  0  0  0  0  0  0
  161.2500  202.7760  146.3500 C   0  0  0  0  0  2  0  0  0  0  0  0
  160.9650  202.0160  147.6410 C   0  0  2  0  0  3  0  0  0  0  0  0
  162.3270  205.8090  145.4570 C   0  0  0  0  0  2  0  0  0  0  0  0
  161.3090  205.9750  144.3330 C   0  0  0  0  0  2  0  0  0  0  0  0
  161.6230  202.6200  148.7230 O   0  0  0  0  0  0  0  0  0  0  0  0
  162.1730  205.6900  151.8550 C   0  0  2  0  0  3  0  0  0  0  0  0
  161.6520  205.2310  146.7050 C   0  0  1  0  0  3  0  0  0  0  0  0
  161.4080  205.8790  148.7920 C   0  0  1  0  0  3  0  0  0  0  0  0
  161.7620  206.9930  151.1380 C   0  0  2  0  0  3  0  0  0  0  0  0
  160.2250  205.1980  149.4750 C   0  0  0  0  0  2  0  0  0  0  0  0
  163.3900  208.6630  148.2600 C   0  0  0  0  0  1  0  0  0  0  0  0
  163.3650  207.4630  149.1930 C   0  0  0  0  0  2  0  0  0  0  0  0
  159.4780  200.7910  150.5110 C   0  0  0  0  0  1  0  0  0  0  0  0
  160.6640  201.6230  150.6710 N   0  0  0  0  0  2  0  0  0  0  0  0
  161.4380  200.5760  147.5050 C   0  0  0  0  0  2  0  0  0  0  0  0
  161.1690  200.0410  146.1070 C   0  0  0  0  0  2  0  0  0  0  0  0
  161.5810  198.7120  146.0110 O   0  0  0  0  0  1  0  0  0  0  0  0
  160.4500  207.3280  151.4840 O   0  0  0  0  0  0  0  0  0  0  0  0
  160.4580  208.7190  151.6370 C   0  0  0  0  0  2  0  0  0  0  0  0
  159.6990  210.2290  153.4840 C   0  0  0  0  0  2  0  0  0  0  0  0
  161.3930  207.9070  155.2050 C   0  0  0  0  0  2  0  0  0  0  0  0
  161.0930  209.0460  156.0560 N   0  0  0  0  0  2  0  0  0  0  0  0
  162.9100  210.4550  155.6800 O   0  0  0  0  0  0  0  0  0  0  0  0
  160.7610  211.4540  155.4270 C   0  0  0  0  0  2  0  0  0  0  0  0
  161.6620  210.3210  155.7740 C   0  0  0  0  0  0  0  0  0  0  0  0
  160.4560  207.8850  153.9990 C   0  0  0  0  0  2  0  0  0  0  0  0
  160.4740  211.4660  153.9270 C   0  0  0  0  0  2  0  0  0  0  0  0
  160.6530  209.1010  153.0980 C   0  0  1  0  0  3  0  0  0  0  0  0
  1 19  1  6  0  0  0
  1  9  1  0  0  0  0
  2 17  1  0  0  0  0
  3  1  1  0  0  0  0
  3 23  1  1  0  0  0
  5 21  1  1  0  0  0
  5 18  1  0  0  0  0
  7  4  1  6  0  0  0
  7 16  1  0  0  0  0
  8 13  1  0  0  0  0
  8  4  1  0  0  0  0
  9 15  1  0  0  0  0
 10  7  1  0  0  0  0
 10 11  1  0  0  0  0
 11 24  1  6  0  0  0
 11 14  1  0  0  0  0
 13 12  1  0  0  0  0
 14  3  1  0  0  0  0
 15  6  1  6  0  0  0
 16 12  1  6  0  0  0
 16  2  1  0  0  0  0
 17 19  1  1  0  0  0
 17  5  1  0  0  0  0
 18 27  1  6  0  0  0
 18 15  1  0  0  0  0
 20 21  1  0  0  0  0
 22 23  1  0  0  0  0
 25 24  1  0  0  0  0
 26 25  1  0  0  0  0
 27 28  1  0  0  0  0
 29 36  1  0  0  0  0
 30 31  1  0  0  0  0
 32 34  2  0  0  0  0
 33 34  1  0  0  0  0
 34 31  1  0  0  0  0
 35 30  1  0  0  0  0
 36 33  1  0  0  0  0
 37 28  1  6  0  0  0
 37 29  1  0  0  0  0
 37 35  1  0  0  0  0
M  END
>  <MODEL>
3

>  <REMARK>
 VINA RESULT:      -2.9      3.683      9.121
  Name = 
  7 active torsions:
  status: ('A' for Active; 'I' for Inactive)
    1  A    between atoms: C_3  and  C_32
    2  A    between atoms: C_5  and  N_23
    3  A    between atoms: C_10  and  C_14
    4  A    between atoms: C_21  and  C_32
    5  A    between atoms: C_27  and  O_33
    6  A    between atoms: C_27  and  C_37
    7  A    between atoms: O_33  and  C_34
                            x       y       z     vdW  Elec       q    Type
                         _______ _______ _______ _____ _____    ______ ____

>  <TORSDO>
F 7

$$$$
=
 OpenBabel11062409143D

 37 40  0  0  1  0  0  0  0  0999 V2000
  160.7180  204.0920  150.3620 C   0  0  1  0  0  3  0  0  0  0  0  0
  161.0240  206.2580  147.4160 O   0  0  0  0  0  0  0  0  0  0  0  0
  160.6760  202.7370  149.6410 C   0  0  1  0  0  3  0  0  0  0  0  0
  159.7760  204.4660  145.0300 C   0  0  0  0  0  2  0  0  0  0  0  0
  161.9010  207.0780  149.5280 C   0  0  1  0  0  3  0  0  0  0  0  0
  163.4700  205.8420  152.2750 O   0  0  0  0  0  1  0  0  0  0  0  0
  160.5610  204.1620  146.3110 C   0  0  1  0  0  3  0  0  0  0  0  0
  160.6460  204.7610  143.9660 O   0  0  0  0  0  0  0  0  0  0  0  0
  162.1110  204.3950  150.9440 C   0  0  0  0  0  2  0  0  0  0  0  0
  161.2290  202.8000  146.2530 C   0  0  0  0  0  2  0  0  0  0  0  0
  160.9750  202.0250  147.5430 C   0  0  2  0  0  3  0  0  0  0  0  0
  162.2410  205.8560  145.3690 C   0  0  0  0  0  2  0  0  0  0  0  0
  161.2040  206.0140  144.2610 C   0  0  0  0  0  2  0  0  0  0  0  0
  161.6380  202.6320  148.6190 O   0  0  0  0  0  0  0  0  0  0  0  0
  162.1820  205.6860  151.7670 C   0  0  2  0  0  3  0  0  0  0  0  0
  161.5940  205.2580  146.6210 C   0  0  1  0  0  3  0  0  0  0  0  0
  161.3700  205.8860  148.7170 C   0  0  1  0  0  3  0  0  0  0  0  0
  161.7390  206.9890  151.0660 C   0  0  2  0  0  3  0  0  0  0  0  0
  160.2080  205.1800  149.4120 C   0  0  0  0  0  2  0  0  0  0  0  0
  163.3040  208.7680  148.2640 C   0  0  0  0  0  1  0  0  0  0  0  0
  163.3060  207.5000  149.1020 C   0  0  0  0  0  2  0  0  0  0  0  0
  159.5320  200.7750  150.4510 C   0  0  0  0  0  1  0  0  0  0  0  0
  160.7250  201.6040  150.5730 N   0  0  0  0  0  2  0  0  0  0  0  0
  161.4700  200.5940  147.3880 C   0  0  0  0  0  2  0  0  0  0  0  0
  161.0680  200.0180  146.0400 C   0  0  0  0  0  2  0  0  0  0  0  0
  161.4950  198.6940  145.9330 O   0  0  0  0  0  1  0  0  0  0  0  0
  160.4270  207.2980  151.4330 O   0  0  0  0  0  0  0  0  0  0  0  0
  160.4530  207.3940  152.8290 C   0  0  0  0  0  2  0  0  0  0  0  0
  160.8750  209.0060  154.6980 C   0  0  0  0  0  2  0  0  0  0  0  0
  160.4000  211.1050  152.1310 C   0  0  0  0  0  2  0  0  0  0  0  0
  160.3880  211.8350  153.3870 N   0  0  0  0  0  2  0  0  0  0  0  0
  158.1510  211.7120  154.0270 O   0  0  0  0  0  0  0  0  0  0  0  0
  159.7350  211.0420  155.6780 C   0  0  0  0  0  2  0  0  0  0  0  0
  159.3630  211.5940  154.3460 C   0  0  0  0  0  0  0  0  0  0  0  0
  161.0970  209.7580  152.3070 C   0  0  0  0  0  2  0  0  0  0  0  0
  159.7780  209.5160  155.6280 C   0  0  0  0  0  2  0  0  0  0  0  0
  160.3470  208.8460  153.2740 C   0  0  1  0  0  3  0  0  0  0  0  0
  1 19  1  6  0  0  0
  1  9  1  0  0  0  0
  2 17  1  0  0  0  0
  3  1  1  0  0  0  0
  3 23  1  1  0  0  0
  5 21  1  1  0  0  0
  5 18  1  0  0  0  0
  7  4  1  6  0  0  0
  7 16  1  0  0  0  0
  8 13  1  0  0  0  0
  8  4  1  0  0  0  0
  9 15  1  0  0  0  0
 10  7  1  0  0  0  0
 10 11  1  0  0  0  0
 11 24  1  6  0  0  0
 11 14  1  0  0  0  0
 13 12  1  0  0  0  0
 14  3  1  0  0  0  0
 15  6  1  6  0  0  0
 16 12  1  6  0  0  0
 16  2  1  0  0  0  0
 17 19  1  1  0  0  0
 17  5  1  0  0  0  0
 18 27  1  6  0  0  0
 18 15  1  0  0  0  0
 20 21  1  0  0  0  0
 22 23  1  0  0  0  0
 25 24  1  0  0  0  0
 26 25  1  0  0  0  0
 27 28  1  0  0  0  0
 29 36  1  0  0  0  0
 30 35  1  0  0  0  0
 30 31  1  0  0  0  0
 31 34  1  0  0  0  0
 32 34  2  0  0  0  0
 34 33  1  0  0  0  0
 35 37  1  0  0  0  0
 36 33  1  0  0  0  0
 37 28  1  6  0  0  0
 37 29  1  0  0  0  0
M  END
>  <MODEL>
4

>  <REMARK>
 VINA RESULT:      -2.9      3.542      9.176
  Name = 
  7 active torsions:
  status: ('A' for Active; 'I' for Inactive)
    1  A    between atoms: C_3  and  C_32
    2  A    between atoms: C_5  and  N_23
    3  A    between atoms: C_10  and  C_14
    4  A    between atoms: C_21  and  C_32
    5  A    between atoms: C_27  and  O_33
    6  A    between atoms: C_27  and  C_37
    7  A    between atoms: O_33  and  C_34
                            x       y       z     vdW  Elec       q    Type
                         _______ _______ _______ _____ _____    ______ ____

>  <TORSDO>
F 7

$$$$
=
 OpenBabel11062409143D

 37 40  0  0  1  0  0  0  0  0999 V2000
  161.6030  207.6110  150.3450 C   0  0  1  0  0  3  0  0  0  0  0  0
  159.9630  209.2230  153.2050 O   0  0  0  0  0  0  0  0  0  0  0  0
  161.8790  208.8690  149.5070 C   0  0  1  0  0  3  0  0  0  0  0  0
  158.8310  211.9880  151.9650 C   0  0  0  0  0  2  0  0  0  0  0  0
  161.0870  207.1030  153.5830 C   0  0  1  0  0  3  0  0  0  0  0  0
  163.8600  205.4720  152.4950 O   0  0  0  0  0  1  0  0  0  0  0  0
  160.0570  211.1080  151.6980 C   0  0  1  0  0  3  0  0  0  0  0  0
  159.0810  212.8930  153.0110 O   0  0  0  0  0  0  0  0  0  0  0  0
  162.8540  207.1380  151.1090 C   0  0  0  0  0  2  0  0  0  0  0  0
  161.1630  211.8770  150.9980 C   0  0  0  0  0  2  0  0  0  0  0  0
  161.7090  211.0760  149.8200 C   0  0  2  0  0  3  0  0  0  0  0  0
  160.4570  211.3580  154.2200 C   0  0  0  0  0  2  0  0  0  0  0  0
  159.1370  212.1230  154.1830 C   0  0  0  0  0  2  0  0  0  0  0  0
  162.3870  209.9350  150.2730 O   0  0  0  0  0  0  0  0  0  0  0  0
  162.6630  205.8260  151.8760 C   0  0  2  0  0  3  0  0  0  0  0  0
  160.5850  210.4570  152.9880 C   0  0  1  0  0  3  0  0  0  0  0  0
  160.8530  208.3000  152.6500 C   0  0  1  0  0  3  0  0  0  0  0  0
  161.5130  205.7770  152.9050 C   0  0  2  0  0  3  0  0  0  0  0  0
  160.3990  207.8730  151.2560 C   0  0  0  0  0  2  0  0  0  0  0  0
  161.1310  207.7700  156.0280 C   0  0  0  0  0  1  0  0  0  0  0  0
  161.9550  207.4590  154.7890 C   0  0  0  0  0  2  0  0  0  0  0  0
  162.3110  207.3290  147.7020 C   0  0  0  0  0  1  0  0  0  0  0  0
  162.7050  208.5860  148.3280 N   0  0  0  0  0  2  0  0  0  0  0  0
  162.6630  211.9400  149.0090 C   0  0  0  0  0  2  0  0  0  0  0  0
  161.9480  212.5990  147.8410 C   0  0  0  0  0  2  0  0  0  0  0  0
  160.8520  211.8290  147.4490 O   0  0  0  0  0  1  0  0  0  0  0  0
  160.4020  205.1440  152.3400 O   0  0  0  0  0  0  0  0  0  0  0  0
  160.6320  203.7760  152.5220 C   0  0  0  0  0  2  0  0  0  0  0  0
  161.6380  203.9480  150.2350 C   0  0  0  0  0  2  0  0  0  0  0  0
  160.9470  200.6740  150.3900 C   0  0  0  0  0  2  0  0  0  0  0  0
  161.2880  201.0530  149.0290 N   0  0  0  0  0  2  0  0  0  0  0  0
  159.2300  201.7020  148.1500 O   0  0  0  0  0  0  0  0  0  0  0  0
  161.0070  203.2680  147.8800 C   0  0  0  0  0  2  0  0  0  0  0  0
  160.4540  201.9530  148.3050 C   0  0  0  0  0  0  0  0  0  0  0  0
  161.4750  201.7130  151.3770 C   0  0  0  0  0  2  0  0  0  0  0  0
  160.8320  204.3030  148.9890 C   0  0  0  0  0  2  0  0  0  0  0  0
  160.8170  203.0760  151.1820 C   0  0  1  0  0  3  0  0  0  0  0  0
  1  9  1  1  0  0  0
  1 19  1  0  0  0  0
  3 23  1  6  0  0  0
  3 14  1  0  0  0  0
  3  1  1  0  0  0  0
  4  8  1  0  0  0  0
  5 21  1  1  0  0  0
  7 10  1  1  0  0  0
  7  4  1  0  0  0  0
  7 16  1  0  0  0  0
  8 13  1  0  0  0  0
  9 15  1  0  0  0  0
 11 24  1  1  0  0  0
 11 14  1  0  0  0  0
 11 10  1  0  0  0  0
 13 12  1  0  0  0  0
 15  6  1  1  0  0  0
 15 18  1  0  0  0  0
 16  2  1  0  0  0  0
 16 12  1  1  0  0  0
 17 19  1  6  0  0  0
 17  2  1  0  0  0  0
 17  5  1  0  0  0  0
 18 27  1  6  0  0  0
 18  5  1  0  0  0  0
 21 20  1  0  0  0  0
 22 23  1  0  0  0  0
 25 24  1  0  0  0  0
 26 25  1  0  0  0  0
 27 28  1  0  0  0  0
 29 37  1  0  0  0  0
 30 35  1  0  0  0  0
 31 30  1  0  0  0  0
 32 34  2  0  0  0  0
 33 34  1  0  0  0  0
 33 36  1  0  0  0  0
 34 31  1  0  0  0  0
 36 29  1  0  0  0  0
 37 35  1  0  0  0  0
 37 28  1  1  0  0  0
M  END
>  <MODEL>
5

>  <REMARK>
 VINA RESULT:      -2.7      2.358      3.808
  Name = 
  7 active torsions:
  status: ('A' for Active; 'I' for Inactive)
    1  A    between atoms: C_3  and  C_32
    2  A    between atoms: C_5  and  N_23
    3  A    between atoms: C_10  and  C_14
    4  A    between atoms: C_21  and  C_32
    5  A    between atoms: C_27  and  O_33
    6  A    between atoms: C_27  and  C_37
    7  A    between atoms: O_33  and  C_34
                            x       y       z     vdW  Elec       q    Type
                         _______ _______ _______ _____ _____    ______ ____

>  <TORSDO>
F 7

$$$$
=
 OpenBabel11062409143D

 37 40  0  0  1  0  0  0  0  0999 V2000
  159.9410  210.5770  152.4050 C   0  0  1  0  0  3  0  0  0  0  0  0
  158.2380  210.1610  155.6280 O   0  0  0  0  0  0  0  0  0  0  0  0
  159.0940  211.7320  151.8510 C   0  0  1  0  0  3  0  0  0  0  0  0
  155.2900  211.3780  155.0860 C   0  0  0  0  0  2  0  0  0  0  0  0
  160.5650  209.4800  155.4740 C   0  0  1  0  0  3  0  0  0  0  0  0
  163.4070  210.4930  153.9140 O   0  0  0  0  0  1  0  0  0  0  0  0
  156.6990  211.6920  154.5710 C   0  0  1  0  0  3  0  0  0  0  0  0
  155.0350  212.0540  156.2910 O   0  0  0  0  0  0  0  0  0  0  0  0
  161.2820  211.0660  152.9810 C   0  0  0  0  0  2  0  0  0  0  0  0
  156.7920  213.0960  154.0010 C   0  0  0  0  0  2  0  0  0  0  0  0
  157.4990  213.0800  152.6500 C   0  0  2  0  0  3  0  0  0  0  0  0
  157.2880  211.8570  157.0620 C   0  0  0  0  0  2  0  0  0  0  0  0
  155.8360  211.4320  157.2610 C   0  0  0  0  0  2  0  0  0  0  0  0
  158.8500  212.7370  152.8060 O   0  0  0  0  0  0  0  0  0  0  0  0
  162.2130  209.9430  153.4500 C   0  0  2  0  0  3  0  0  0  0  0  0
  157.7660  211.4780  155.6570 C   0  0  1  0  0  3  0  0  0  0  0  0
  159.3880  210.2380  154.8400 C   0  0  1  0  0  3  0  0  0  0  0  0
  161.6510  208.9600  154.5000 C   0  0  2  0  0  3  0  0  0  0  0  0
  159.1030  209.7810  153.4110 C   0  0  0  0  0  2  0  0  0  0  0  0
  161.0420  211.7200  156.5610 C   0  0  0  0  0  1  0  0  0  0  0  0
  161.1490  210.2080  156.6830 C   0  0  0  0  0  2  0  0  0  0  0  0
  160.5160  213.4040  150.8530 C   0  0  0  0  0  1  0  0  0  0  0  0
  159.6340  212.2720  150.5980 N   0  0  0  0  0  2  0  0  0  0  0  0
  157.4000  214.4530  152.0010 C   0  0  0  0  0  2  0  0  0  0  0  0
  156.5920  214.3940  150.7150 C   0  0  0  0  0  2  0  0  0  0  0  0
  156.9750  213.2890  149.9540 O   0  0  0  0  0  1  0  0  0  0  0  0
  161.2160  207.7930  153.8670 O   0  0  0  0  0  0  0  0  0  0  0  0
  162.2120  207.4940  152.9310 C   0  0  0  0  0  2  0  0  0  0  0  0
  160.7480  205.5980  152.2000 C   0  0  0  0  0  2  0  0  0  0  0  0
  160.9660  207.3740  149.3680 C   0  0  0  0  0  2  0  0  0  0  0  0
  160.3830  206.0690  149.1010 N   0  0  0  0  0  2  0  0  0  0  0  0
  162.2590  204.7440  148.7100 O   0  0  0  0  0  0  0  0  0  0  0  0
  160.7180  203.9010  150.3230 C   0  0  0  0  0  2  0  0  0  0  0  0
  161.1530  204.8870  149.2950 C   0  0  0  0  0  0  0  0  0  0  0  0
  160.8360  207.7190  150.8500 C   0  0  0  0  0  2  0  0  0  0  0  0
  161.2930  204.2670  151.6890 C   0  0  0  0  0  2  0  0  0  0  0  0
  161.6260  206.7580  151.7340 C   0  0  1  0  0  3  0  0  0  0  0  0
  1  9  1  1  0  0  0
  1 19  1  0  0  0  0
  2 16  1  0  0  0  0
  3 23  1  6  0  0  0
  3  1  1  0  0  0  0
  3 14  1  0  0  0  0
  4  8  1  0  0  0  0
  5 21  1  1  0  0  0
  7 10  1  1  0  0  0
  7  4  1  0  0  0  0
  7 16  1  0  0  0  0
  8 13  1  0  0  0  0
  9 15  1  0  0  0  0
 11 24  1  1  0  0  0
 11 14  1  0  0  0  0
 11 10  1  0  0  0  0
 12 13  1  0  0  0  0
 15  6  1  1  0  0  0
 15 18  1  0  0  0  0
 16 12  1  1  0  0  0
 17 19  1  6  0  0  0
 17  5  1  0  0  0  0
 17  2  1  0  0  0  0
 18 27  1  6  0  0  0
 18  5  1  0  0  0  0
 20 21  1  0  0  0  0
 23 22  1  0  0  0  0
 25 24  1  0  0  0  0
 26 25  1  0  0  0  0
 28 27  1  0  0  0  0
 30 35  1  0  0  0  0
 31 34  1  0  0  0  0
 31 30  1  0  0  0  0
 32 34  2  0  0  0  0
 33 36  1  0  0  0  0
 34 33  1  0  0  0  0
 35 37  1  0  0  0  0
 36 29  1  0  0  0  0
 37 29  1  0  0  0  0
 37 28  1  1  0  0  0
M  END
>  <MODEL>
6

>  <REMARK>
 VINA RESULT:      -2.5      1.887      3.004
  Name = 
  7 active torsions:
  status: ('A' for Active; 'I' for Inactive)
    1  A    between atoms: C_3  and  C_32
    2  A    between atoms: C_5  and  N_23
    3  A    between atoms: C_10  and  C_14
    4  A    between atoms: C_21  and  C_32
    5  A    between atoms: C_27  and  O_33
    6  A    between atoms: C_27  and  C_37
    7  A    between atoms: O_33  and  C_34
                            x       y       z     vdW  Elec       q    Type
                         _______ _______ _______ _____ _____    ______ ____

>  <TORSDO>
F 7

$$$$
=
 OpenBabel11062409143D

 37 40  0  0  1  0  0  0  0  0999 V2000
  160.6240  207.8440  152.9810 C   0  0  1  0  0  3  0  0  0  0  0  0
  161.1250  208.4590  149.3990 O   0  0  0  0  0  0  0  0  0  0  0  0
  160.8400  206.3230  152.9810 C   0  0  1  0  0  3  0  0  0  0  0  0
  160.4540  205.6000  148.0420 C   0  0  0  0  0  2  0  0  0  0  0  0
  161.5800  210.2790  150.9410 C   0  0  1  0  0  3  0  0  0  0  0  0
  162.8480  210.7030  154.0630 O   0  0  0  0  0  1  0  0  0  0  0  0
  161.0670  206.0450  149.3740 C   0  0  1  0  0  3  0  0  0  0  0  0
  161.4350  205.5230  147.0390 O   0  0  0  0  0  0  0  0  0  0  0  0
  161.8720  208.6060  153.4630 C   0  0  0  0  0  2  0  0  0  0  0  0
  161.8830  204.9380  150.0170 C   0  0  0  0  0  2  0  0  0  0  0  0
  161.5270  204.8000  151.4950 C   0  0  2  0  0  3  0  0  0  0  0  0
  162.6710  207.3840  147.8860 C   0  0  0  0  0  2  0  0  0  0  0  0
  161.8010  206.8470  146.7540 C   0  0  0  0  0  2  0  0  0  0  0  0
  161.9510  205.9300  152.2090 O   0  0  0  0  0  0  0  0  0  0  0  0
  161.6760  210.1210  153.5850 C   0  0  2  0  0  3  0  0  0  0  0  0
  161.9150  207.3180  149.2160 C   0  0  1  0  0  3  0  0  0  0  0  0
  161.3120  208.7800  150.7460 C   0  0  1  0  0  3  0  0  0  0  0  0
  161.2010  210.8700  152.3220 C   0  0  2  0  0  3  0  0  0  0  0  0
  160.1440  208.2810  151.5930 C   0  0  0  0  0  2  0  0  0  0  0  0
  162.9670  211.3670  149.1200 C   0  0  0  0  0  1  0  0  0  0  0  0
  162.9770  210.6910  150.4820 C   0  0  0  0  0  2  0  0  0  0  0  0
  160.1650  206.6200  155.2760 C   0  0  0  0  0  1  0  0  0  0  0  0
  160.8750  205.7610  154.3360 N   0  0  0  0  0  2  0  0  0  0  0  0
  162.1950  203.5600  152.0710 C   0  0  0  0  0  2  0  0  0  0  0  0
  161.2770  202.3520  151.9800 C   0  0  0  0  0  2  0  0  0  0  0  0
  161.2050  201.8970  150.6630 O   0  0  0  0  0  1  0  0  0  0  0  0
  159.8220  211.0880  152.3940 O   0  0  0  0  0  0  0  0  0  0  0  0
  159.6850  212.3980  152.8640 C   0  0  0  0  0  2  0  0  0  0  0  0
  159.1250  212.6210  155.2950 C   0  0  0  0  0  2  0  0  0  0  0  0
  156.1770  213.3560  153.8840 C   0  0  0  0  0  2  0  0  0  0  0  0
  156.0140  213.1530  155.3130 N   0  0  0  0  0  2  0  0  0  0  0  0
  155.6550  210.8550  155.4640 O   0  0  0  0  0  0  0  0  0  0  0  0
  157.3650  211.7260  156.8780 C   0  0  0  0  0  2  0  0  0  0  0  0
  156.2620  211.8730  155.8880 C   0  0  0  0  0  0  0  0  0  0  0  0
  157.6360  213.6630  153.5550 C   0  0  0  0  0  2  0  0  0  0  0  0
  158.6860  211.4480  156.1650 C   0  0  0  0  0  2  0  0  0  0  0  0
  158.5570  212.4910  153.8830 C   0  0  1  0  0  3  0  0  0  0  0  0
  1 19  1  6  0  0  0
  1  3  1  0  0  0  0
  1  9  1  0  0  0  0
  2 17  1  0  0  0  0
  3 23  1  1  0  0  0
  5 21  1  1  0  0  0
  5 18  1  0  0  0  0
  7  4  1  6  0  0  0
  7 10  1  0  0  0  0
  8  4  1  0  0  0  0
  9 15  1  0  0  0  0
 10 11  1  0  0  0  0
 11 24  1  1  0  0  0
 11 14  1  0  0  0  0
 13  8  1  0  0  0  0
 13 12  1  0  0  0  0
 14  3  1  0  0  0  0
 15  6  1  6  0  0  0
 16 12  1  6  0  0  0
 16  7  1  0  0  0  0
 16  2  1  0  0  0  0
 17  5  1  0  0  0  0
 17 19  1  1  0  0  0
 18 27  1  6  0  0  0
 18 15  1  0  0  0  0
 20 21  1  0  0  0  0
 23 22  1  0  0  0  0
 25 24  1  0  0  0  0
 26 25  1  0  0  0  0
 27 28  1  0  0  0  0
 29 36  1  0  0  0  0
 30 31  1  0  0  0  0
 31 34  1  0  0  0  0
 32 34  2  0  0  0  0
 34 33  1  0  0  0  0
 35 37  1  0  0  0  0
 35 30  1  0  0  0  0
 36 33  1  0  0  0  0
 37 28  1  6  0  0  0
 37 29  1  0  0  0  0
M  END
>  <MODEL>
7

>  <REMARK>
 VINA RESULT:      -1.7      2.573      8.009
  Name = 
  7 active torsions:
  status: ('A' for Active; 'I' for Inactive)
    1  A    between atoms: C_3  and  C_32
    2  A    between atoms: C_5  and  N_23
    3  A    between atoms: C_10  and  C_14
    4  A    between atoms: C_21  and  C_32
    5  A    between atoms: C_27  and  O_33
    6  A    between atoms: C_27  and  C_37
    7  A    between atoms: O_33  and  C_34
                            x       y       z     vdW  Elec       q    Type
                         _______ _______ _______ _____ _____    ______ ____

>  <TORSDO>
F 7

$$$$
=
 OpenBabel11062409143D

 37 40  0  0  1  0  0  0  0  0999 V2000
  161.9160  209.0290  151.4500 C   0  0  1  0  0  3  0  0  0  0  0  0
  161.4120  205.9060  153.3090 O   0  0  0  0  0  0  0  0  0  0  0  0
  161.8910  208.4490  150.0270 C   0  0  1  0  0  3  0  0  0  0  0  0
  162.4610  203.6310  151.2620 C   0  0  0  0  0  2  0  0  0  0  0  0
  160.7030  207.9810  154.3550 C   0  0  1  0  0  3  0  0  0  0  0  0
  159.3320  210.9480  153.4330 O   0  0  0  0  0  1  0  0  0  0  0  0
  161.7710  204.9910  151.1040 C   0  0  1  0  0  3  0  0  0  0  0  0
  161.5170  202.6100  151.4630 O   0  0  0  0  0  0  0  0  0  0  0  0
  160.5730  209.6760  151.8350 C   0  0  0  0  0  2  0  0  0  0  0  0
  161.0870  205.1220  149.7550 C   0  0  0  0  0  2  0  0  0  0  0  0
  161.4290  206.4630  149.1110 C   0  0  2  0  0  3  0  0  0  0  0  0
  160.0420  204.0050  152.7220 C   0  0  0  0  0  2  0  0  0  0  0  0
  160.9940  202.8140  152.7490 C   0  0  0  0  0  2  0  0  0  0  0  0
  160.8540  207.5170  149.8350 O   0  0  0  0  0  0  0  0  0  0  0  0
  160.5770  210.3650  153.2040 C   0  0  2  0  0  3  0  0  0  0  0  0
  160.7740  205.2620  152.2430 C   0  0  1  0  0  3  0  0  0  0  0  0
  161.1600  207.2600  153.0780 C   0  0  1  0  0  3  0  0  0  0  0  0
  160.9780  209.5040  154.4200 C   0  0  2  0  0  3  0  0  0  0  0  0
  162.3640  207.9360  152.4270 C   0  0  0  0  0  2  0  0  0  0  0  0
  159.2040  206.9480  156.1180 C   0  0  0  0  0  1  0  0  0  0  0  0
  159.2750  207.6180  154.7550 C   0  0  0  0  0  2  0  0  0  0  0  0
  162.1930  210.7990  149.5770 C   0  0  0  0  0  1  0  0  0  0  0  0
  161.9010  209.4940  148.9970 N   0  0  0  0  0  2  0  0  0  0  0  0
  160.9100  206.4930  147.6800 C   0  0  0  0  0  2  0  0  0  0  0  0
  162.0030  206.1140  146.6940 C   0  0  0  0  0  2  0  0  0  0  0  0
  161.9000  204.7650  146.3540 O   0  0  0  0  0  1  0  0  0  0  0  0
  162.3180  209.7400  154.7430 O   0  0  0  0  0  0  0  0  0  0  0  0
  162.3170  210.0210  156.1130 C   0  0  0  0  0  2  0  0  0  0  0  0
  160.1190  210.3870  157.2560 C   0  0  0  0  0  2  0  0  0  0  0  0
  161.1740  213.5420  156.8620 C   0  0  0  0  0  2  0  0  0  0  0  0
  159.7760  213.5250  157.2610 N   0  0  0  0  0  2  0  0  0  0  0  0
  158.6650  213.3750  155.2180 O   0  0  0  0  0  0  0  0  0  0  0  0
  158.0320  211.7630  156.8570 C   0  0  0  0  0  2  0  0  0  0  0  0
  158.7920  212.9590  156.4000 C   0  0  0  0  0  0  0  0  0  0  0  0
  161.8440  212.2180  157.2210 C   0  0  0  0  0  2  0  0  0  0  0  0
  158.7920  210.4850  156.5090 C   0  0  0  0  0  2  0  0  0  0  0  0
  161.2410  211.0430  156.4550 C   0  0  1  0  0  3  0  0  0  0  0  0
  1  9  1  1  0  0  0
  1 19  1  0  0  0  0
  3 23  1  6  0  0  0
  3  1  1  0  0  0  0
  4  8  1  0  0  0  0
  5 18  1  0  0  0  0
  5 21  1  6  0  0  0
  7 10  1  6  0  0  0
  7  4  1  0  0  0  0
  7 16  1  0  0  0  0
  8 13  1  0  0  0  0
  9 15  1  0  0  0  0
 11 24  1  6  0  0  0
 11 10  1  0  0  0  0
 11 14  1  0  0  0  0
 12 13  1  0  0  0  0
 14  3  1  0  0  0  0
 15  6  1  1  0  0  0
 15 18  1  0  0  0  0
 16 12  1  1  0  0  0
 16  2  1  0  0  0  0
 17 19  1  1  0  0  0
 17  2  1  0  0  0  0
 17  5  1  0  0  0  0
 18 27  1  6  0  0  0
 21 20  1  0  0  0  0
 23 22  1  0  0  0  0
 25 24  1  0  0  0  0
 26 25  1  0  0  0  0
 27 28  1  0  0  0  0
 30 35  1  0  0  0  0
 30 31  1  0  0  0  0
 32 34  2  0  0  0  0
 34 33  1  0  0  0  0
 34 31  1  0  0  0  0
 36 33  1  0  0  0  0
 36 29  1  0  0  0  0
 37 28  1  1  0  0  0
 37 35  1  0  0  0  0
 37 29  1  0  0  0  0
M  END
>  <MODEL>
8

>  <REMARK>
 VINA RESULT:      -1.5      2.870      7.373
  Name = 
  7 active torsions:
  status: ('A' for Active; 'I' for Inactive)
    1  A    between atoms: C_3  and  C_32
    2  A    between atoms: C_5  and  N_23
    3  A    between atoms: C_10  and  C_14
    4  A    between atoms: C_21  and  C_32
    5  A    between atoms: C_27  and  O_33
    6  A    between atoms: C_27  and  C_37
    7  A    between atoms: O_33  and  C_34
                            x       y       z     vdW  Elec       q    Type
                         _______ _______ _______ _____ _____    ______ ____

>  <TORSDO>
F 7

$$$$
=
 OpenBabel11062409143D

 37 40  0  0  1  0  0  0  0  0999 V2000
  160.4950  207.2330  152.3660 C   0  0  1  0  0  3  0  0  0  0  0  0
  161.4100  210.6590  151.4250 O   0  0  0  0  0  0  0  0  0  0  0  0
  160.8540  206.5340  151.0460 C   0  0  1  0  0  3  0  0  0  0  0  0
  161.2020  210.6360  148.1970 C   0  0  0  0  0  2  0  0  0  0  0  0
  161.4780  210.0690  153.7800 C   0  0  1  0  0  3  0  0  0  0  0  0
  162.2710  207.3820  155.7000 O   0  0  0  0  0  1  0  0  0  0  0  0
  161.5870  209.6020  149.2610 C   0  0  1  0  0  3  0  0  0  0  0  0
  162.3120  211.4180  147.8340 O   0  0  0  0  0  0  0  0  0  0  0  0
  161.5890  207.0500  153.4340 C   0  0  0  0  0  2  0  0  0  0  0  0
  162.4110  208.4690  148.6760 C   0  0  0  0  0  2  0  0  0  0  0  0
  161.8750  207.1200  149.1460 C   0  0  2  0  0  3  0  0  0  0  0  0
  163.2400  211.4040  150.0360 C   0  0  0  0  0  2  0  0  0  0  0  0
  162.5840  212.2380  148.9390 C   0  0  0  0  0  2  0  0  0  0  0  0
  162.0890  206.9580  150.5220 O   0  0  0  0  0  0  0  0  0  0  0  0
  161.2340  207.6360  154.8050 C   0  0  2  0  0  3  0  0  0  0  0  0
  162.3220  210.2490  150.4470 C   0  0  1  0  0  3  0  0  0  0  0  0
  161.3830  209.5900  152.3230 C   0  0  1  0  0  3  0  0  0  0  0  0
  160.8630  209.1340  154.8510 C   0  0  2  0  0  3  0  0  0  0  0  0
  160.1660  208.7020  152.0810 C   0  0  0  0  0  2  0  0  0  0  0  0
  163.0430  210.7800  155.6430 C   0  0  0  0  0  1  0  0  0  0  0  0
  162.8790  210.5550  154.1490 C   0  0  0  0  0  2  0  0  0  0  0  0
  161.9980  204.5020  151.6580 C   0  0  0  0  0  1  0  0  0  0  0  0
  160.7600  205.0730  151.1420 N   0  0  0  0  0  2  0  0  0  0  0  0
  162.5750  205.9990  148.3920 C   0  0  0  0  0  2  0  0  0  0  0  0
  161.5810  205.1690  147.5960 C   0  0  0  0  0  2  0  0  0  0  0  0
  161.6030  203.8420  148.0290 O   0  0  0  0  0  1  0  0  0  0  0  0
  159.4730  209.2750  154.8760 O   0  0  0  0  0  0  0  0  0  0  0  0
  159.2130  210.1220  155.9580 C   0  0  0  0  0  2  0  0  0  0  0  0
  157.0610  211.4020  155.9880 C   0  0  0  0  0  2  0  0  0  0  0  0
  159.2020  213.7650  154.9620 C   0  0  0  0  0  2  0  0  0  0  0  0
  157.8320  214.2160  154.7850 N   0  0  0  0  0  2  0  0  0  0  0  0
  157.3030  213.4180  152.6610 O   0  0  0  0  0  0  0  0  0  0  0  0
  155.7540  212.8630  154.3870 C   0  0  0  0  0  2  0  0  0  0  0  0
  156.9710  213.5480  153.8680 C   0  0  0  0  0  0  0  0  0  0  0  0
  159.2580  212.6270  155.9780 C   0  0  0  0  0  2  0  0  0  0  0  0
  156.0890  211.4350  154.8120 C   0  0  0  0  0  2  0  0  0  0  0  0
  158.5060  211.3890  155.4960 C   0  0  1  0  0  3  0  0  0  0  0  0
  1 19  1  6  0  0  0
  1  9  1  0  0  0  0
  2 17  1  0  0  0  0
  3 23  1  1  0  0  0
  3  1  1  0  0  0  0
  5 21  1  1  0  0  0
  5 18  1  0  0  0  0
  7  4  1  6  0  0  0
  7 16  1  0  0  0  0
  8  4  1  0  0  0  0
  8 13  1  0  0  0  0
  9 15  1  0  0  0  0
 10 11  1  0  0  0  0
 10  7  1  0  0  0  0
 11 24  1  6  0  0  0
 11 14  1  0  0  0  0
 13 12  1  0  0  0  0
 14  3  1  0  0  0  0
 15 18  1  0  0  0  0
 15  6  1  1  0  0  0
 16 12  1  6  0  0  0
 16  2  1  0  0  0  0
 17 19  1  1  0  0  0
 17  5  1  0  0  0  0
 18 27  1  6  0  0  0
 21 20  1  0  0  0  0
 23 22  1  0  0  0  0
 25 26  1  0  0  0  0
 25 24  1  0  0  0  0
 27 28  1  0  0  0  0
 30 35  1  0  0  0  0
 31 30  1  0  0  0  0
 32 34  2  0  0  0  0
 33 36  1  0  0  0  0
 34 33  1  0  0  0  0
 34 31  1  0  0  0  0
 36 29  1  0  0  0  0
 37 28  1  1  0  0  0
 37 35  1  0  0  0  0
 37 29  1  0  0  0  0
M  END
>  <MODEL>
9

>  <REMARK>
 VINA RESULT:      -1.4      2.129      6.661
  Name = 
  7 active torsions:
  status: ('A' for Active; 'I' for Inactive)
    1  A    between atoms: C_3  and  C_32
    2  A    between atoms: C_5  and  N_23
    3  A    between atoms: C_10  and  C_14
    4  A    between atoms: C_21  and  C_32
    5  A    between atoms: C_27  and  O_33
    6  A    between atoms: C_27  and  C_37
    7  A    between atoms: O_33  and  C_34
                            x       y       z     vdW  Elec       q    Type
                         _______ _______ _______ _____ _____    ______ ____

>  <TORSDO>
F 7

$$$$
