=
 OpenBabel11062410573D

 32 36  0  0  1  0  0  0  0  0999 V2000
  160.0780  209.8180  154.9920 C   0  0  1  0  0  3  0  0  0  0  0  0
  161.3680  206.6380  151.2050 C   0  0  0  0  0  0  0  0  0  0  0  0
  162.1810  210.5290  149.3320 C   0  0  0  0  0  1  0  0  0  0  0  0
  161.2530  204.0910  150.9460 C   0  0  1  0  0  3  0  0  0  0  0  0
  161.0640  202.9770  149.9400 C   0  0  0  0  0  0  0  0  0  0  0  0
  160.8420  207.5730  153.3920 C   0  0  0  0  0  0  0  0  0  0  0  0
  161.0690  209.0350  151.4780 C   0  0  0  0  0  3  0  0  0  0  0  0
  160.7380  200.8920  148.0890 C   0  0  0  0  0  3  0  0  0  0  0  0
  160.5170  209.9660  153.6400 O   0  0  0  0  0  0  0  0  0  0  0  0
  162.0020  209.2560  148.6510 N   0  0  0  0  0  0  0  0  0  0  0  0
  161.3760  207.9410  150.6500 C   0  0  0  0  0  0  0  0  0  0  0  0
  161.6440  208.1210  149.1860 C   0  0  0  0  0  0  0  0  0  0  0  0
  161.0490  205.6660  148.9440 C   0  0  1  0  0  3  0  0  0  0  0  0
  160.6620  200.6280  149.4590 C   0  0  0  0  0  3  0  0  0  0  0  0
  160.7900  208.6410  155.6530 C   0  0  0  0  0  2  0  0  0  0  0  0
  160.7980  208.8580  152.8340 C   0  0  0  0  0  0  0  0  0  0  0  0
  160.8210  201.6660  150.3810 C   0  0  0  0  0  3  0  0  0  0  0  0
  160.5300  207.3690  154.8460 C   0  0  0  0  0  2  0  0  0  0  0  0
  161.6240  206.9160  148.2750 C   0  0  1  0  0  3  0  0  0  0  0  0
  161.2680  204.5430  148.0980 O   0  0  0  0  0  0  0  0  0  0  0  0
  161.1130  206.4750  152.5780 C   0  0  0  0  0  3  0  0  0  0  0  0
  162.2900  203.6780  151.9840 C   0  0  0  0  0  1  0  0  0  0  0  0
  160.9540  202.1970  147.6410 C   0  0  0  0  0  3  0  0  0  0  0  0
  161.6820  205.4440  150.3230 C   0  0  1  0  0  3  0  0  0  0  0  0
  161.0970  203.2410  148.5600 C   0  0  0  0  0  0  0  0  0  0  0  0
  161.3920  206.3260  146.1500 C   0  0  0  0  0  1  0  0  0  0  0  0
  160.8930  207.2020  147.1170 O   0  0  0  0  0  0  0  0  0  0  0  0
  160.3550  211.0880  155.7720 C   0  0  0  0  0  2  0  0  0  0  0  0
  159.7050  212.2760  155.0850 C   0  0  0  0  0  2  0  0  0  0  0  0
  157.6410  212.1010  156.2590 O   0  0  0  0  0  1  0  0  0  0  0  0
  157.4900  212.0330  153.9720 O   0  0  0  0  0  0  0  0  0  0  0  0
  158.2240  212.1430  155.1440 C   0  0  0  0  0  0  0  0  0  0  0  0
  1 15  1  0  0  0  0
  1 28  1  1  0  0  0
  2 21  1  0  0  0  0
  4 22  1  1  0  0  0
  5 17  1  0  0  0  0
  5  4  1  0  0  0  0
  6 18  1  0  0  0  0
  7 16  2  0  0  0  0
  8 14  1  0  0  0  0
  9  1  1  0  0  0  0
 10 12  2  0  0  0  0
 10  3  1  0  0  0  0
 11  2  2  0  0  0  0
 11  7  1  0  0  0  0
 12 11  1  0  0  0  0
 13 20  1  6  0  0  0
 13 24  1  0  0  0  0
 14 17  2  0  0  0  0
 16  6  1  0  0  0  0
 16  9  1  0  0  0  0
 18 15  1  0  0  0  0
 19 27  1  6  0  0  0
 19 13  1  0  0  0  0
 19 12  1  0  0  0  0
 20 25  1  0  0  0  0
 21  6  2  0  0  0  0
 23  8  2  0  0  0  0
 23 25  1  0  0  0  0
 24  4  1  0  0  0  0
 24  2  1  1  0  0  0
 25  5  2  0  0  0  0
 26 27  1  0  0  0  0
 29 32  1  0  0  0  0
 29 28  1  0  0  0  0
 31 32  2  0  0  0  0
 32 30  1  0  0  0  0
M  END
>  <MODEL>
1

>  <REMARK>
 VINA RESULT:      -9.9      0.000      0.000
  Name = 
  4 active torsions:
  status: ('A' for Active; 'I' for Inactive)
    1  A    between atoms: C_2  and  C_24
    2  A    between atoms: C_10  and  C_20
    3  A    between atoms: C_10  and  C_24
    4  A    between atoms: O_25  and  C_26
                            x       y       z     vdW  Elec       q    Type
                         _______ _______ _______ _____ _____    ______ ____

>  <TORSDO>
F 4

$$$$
=
 OpenBabel11062410573D

 32 36  0  0  1  0  0  0  0  0999 V2000
  161.5810  201.7950  149.5760 C   0  0  1  0  0  3  0  0  0  0  0  0
  161.1270  206.4130  151.7170 C   0  0  0  0  0  0  0  0  0  0  0  0
  161.0330  207.4660  147.4520 C   0  0  0  0  0  1  0  0  0  0  0  0
  161.1650  207.2240  154.1480 C   0  0  1  0  0  3  0  0  0  0  0  0
  161.5420  208.3880  155.0370 C   0  0  0  0  0  0  0  0  0  0  0  0
  161.1280  204.0080  151.3320 C   0  0  0  0  0  0  0  0  0  0  0  0
  161.4780  205.5270  149.4820 C   0  0  0  0  0  3  0  0  0  0  0  0
  162.2140  210.5430  156.7050 C   0  0  0  0  0  3  0  0  0  0  0  0
  161.5100  203.1400  149.0970 O   0  0  0  0  0  0  0  0  0  0  0  0
  161.3100  208.3630  148.5630 N   0  0  0  0  0  0  0  0  0  0  0  0
  161.3330  206.6350  150.3330 C   0  0  0  0  0  0  0  0  0  0  0  0
  161.4570  208.0380  149.8180 C   0  0  0  0  0  0  0  0  0  0  0  0
  161.9590  208.6980  152.2170 C   0  0  1  0  0  3  0  0  0  0  0  0
  161.9240  209.2940  157.2610 C   0  0  0  0  0  3  0  0  0  0  0  0
  160.6600  201.6140  150.7800 C   0  0  0  0  0  2  0  0  0  0  0  0
  161.3830  204.2250  149.9700 C   0  0  0  0  0  0  0  0  0  0  0  0
  161.5930  208.2200  156.4310 C   0  0  0  0  0  3  0  0  0  0  0  0
  161.0470  202.6110  151.8730 C   0  0  0  0  0  2  0  0  0  0  0  0
  161.6430  209.1730  150.7980 C   0  0  1  0  0  3  0  0  0  0  0  0
  161.9010  209.8100  153.1040 O   0  0  0  0  0  0  0  0  0  0  0  0
  161.0140  205.0960  152.1950 C   0  0  0  0  0  3  0  0  0  0  0  0
  159.8760  206.5860  154.6540 C   0  0  0  0  0  1  0  0  0  0  0  0
  162.1920  210.7130  155.3190 C   0  0  0  0  0  3  0  0  0  0  0  0
  160.9840  207.5980  152.6550 C   0  0  1  0  0  3  0  0  0  0  0  0
  161.8770  209.6360  154.4850 C   0  0  0  0  0  0  0  0  0  0  0  0
  161.9980  211.1670  149.8950 C   0  0  0  0  0  1  0  0  0  0  0  0
  162.6590  210.0270  150.3560 O   0  0  0  0  0  0  0  0  0  0  0  0
  161.1840  200.8290  148.4770 C   0  0  0  0  0  2  0  0  0  0  0  0
  160.8160  201.5920  147.2170 C   0  0  0  0  0  2  0  0  0  0  0  0
  161.3600  199.5510  146.1190 O   0  0  0  0  0  1  0  0  0  0  0  0
  160.0880  201.0220  144.9040 O   0  0  0  0  0  0  0  0  0  0  0  0
  160.7640  200.6580  146.0600 C   0  0  0  0  0  0  0  0  0  0  0  0
  1 28  1  6  0  0  0
  1 15  1  0  0  0  0
  2 21  1  0  0  0  0
  3 10  1  0  0  0  0
  4 22  1  1  0  0  0
  4  5  1  0  0  0  0
  5 17  1  0  0  0  0
  6 18  1  0  0  0  0
  6 21  2  0  0  0  0
  7 16  2  0  0  0  0
  7 11  1  0  0  0  0
  8 14  1  0  0  0  0
  9  1  1  0  0  0  0
  9 16  1  0  0  0  0
 10 12  2  0  0  0  0
 11  2  2  0  0  0  0
 12 11  1  0  0  0  0
 12 19  1  0  0  0  0
 13 24  1  0  0  0  0
 13 20  1  1  0  0  0
 15 18  1  0  0  0  0
 16  6  1  0  0  0  0
 17 14  2  0  0  0  0
 19 27  1  6  0  0  0
 19 13  1  0  0  0  0
 20 25  1  0  0  0  0
 23  8  2  0  0  0  0
 24  2  1  6  0  0  0
 24  4  1  0  0  0  0
 25  5  2  0  0  0  0
 25 23  1  0  0  0  0
 26 27  1  0  0  0  0
 29 28  1  0  0  0  0
 31 32  2  0  0  0  0
 32 30  1  0  0  0  0
 32 29  1  0  0  0  0
M  END
>  <MODEL>
2

>  <REMARK>
 VINA RESULT:      -8.7      2.110      8.373
  Name = 
  4 active torsions:
  status: ('A' for Active; 'I' for Inactive)
    1  A    between atoms: C_2  and  C_24
    2  A    between atoms: C_10  and  C_20
    3  A    between atoms: C_10  and  C_24
    4  A    between atoms: O_25  and  C_26
                            x       y       z     vdW  Elec       q    Type
                         _______ _______ _______ _____ _____    ______ ____

>  <TORSDO>
F 4

$$$$
=
 OpenBabel11062410573D

 32 36  0  0  1  0  0  0  0  0999 V2000
  161.0840  204.8450  146.5020 C   0  0  1  0  0  3  0  0  0  0  0  0
  161.2630  207.5530  150.8320 C   0  0  0  0  0  0  0  0  0  0  0  0
  161.9010  203.4880  152.3720 C   0  0  0  0  0  1  0  0  0  0  0  0
  160.9160  210.0380  151.3550 C   0  0  1  0  0  3  0  0  0  0  0  0
  160.4280  211.0020  152.4130 C   0  0  0  0  0  0  0  0  0  0  0  0
  161.3100  206.8920  148.4880 C   0  0  0  0  0  0  0  0  0  0  0  0
  161.2000  205.2030  150.2170 C   0  0  0  0  0  3  0  0  0  0  0  0
  159.5490  212.8130  154.3700 C   0  0  0  0  0  3  0  0  0  0  0  0
  161.2160  204.5400  147.8920 O   0  0  0  0  0  0  0  0  0  0  0  0
  161.4840  204.6520  153.1380 N   0  0  0  0  0  0  0  0  0  0  0  0
  161.2360  206.1900  151.2160 C   0  0  0  0  0  0  0  0  0  0  0  0
  161.1790  205.8320  152.6710 C   0  0  0  0  0  0  0  0  0  0  0  0
  160.3750  208.2080  153.0560 C   0  0  1  0  0  3  0  0  0  0  0  0
  159.7660  213.2500  153.0600 C   0  0  0  0  0  3  0  0  0  0  0  0
  161.8430  206.1260  146.1680 C   0  0  0  0  0  2  0  0  0  0  0  0
  161.2310  205.5440  148.8660 C   0  0  0  0  0  0  0  0  0  0  0  0
  160.2000  212.3490  152.0860 C   0  0  0  0  0  3  0  0  0  0  0  0
  161.3210  207.2710  147.0360 C   0  0  0  0  0  2  0  0  0  0  0  0
  160.8700  206.9060  153.6870 C   0  0  1  0  0  3  0  0  0  0  0  0
  160.3200  209.2200  154.0560 O   0  0  0  0  0  0  0  0  0  0  0  0
  161.3130  207.8840  149.4670 C   0  0  0  0  0  3  0  0  0  0  0  0
  162.1290  210.6250  150.6430 C   0  0  0  0  0  1  0  0  0  0  0  0
  159.7490  211.4710  154.6990 C   0  0  0  0  0  3  0  0  0  0  0  0
  161.2860  208.6340  151.8980 C   0  0  1  0  0  3  0  0  0  0  0  0
  160.1670  210.5630  153.7220 C   0  0  0  0  0  0  0  0  0  0  0  0
  160.3580  206.9020  155.8450 C   0  0  0  0  0  1  0  0  0  0  0  0
  159.9180  206.4420  154.6020 O   0  0  0  0  0  0  0  0  0  0  0  0
  161.6170  203.7000  145.6640 C   0  0  0  0  0  2  0  0  0  0  0  0
  160.4680  202.9340  145.0330 C   0  0  0  0  0  2  0  0  0  0  0  0
  160.0620  200.5980  144.8100 O   0  0  0  0  0  0  0  0  0  0  0  0
  160.8190  201.2820  146.8640 O   0  0  0  0  0  1  0  0  0  0  0  0
  160.4470  201.5400  145.5520 C   0  0  0  0  0  0  0  0  0  0  0  0
  1 28  1  6  0  0  0
  1  9  1  0  0  0  0
  2 11  1  0  0  0  0
  3 10  1  0  0  0  0
  4 22  1  1  0  0  0
  4 24  1  0  0  0  0
  4  5  1  0  0  0  0
  5 25  1  0  0  0  0
  6 16  2  0  0  0  0
  6 21  1  0  0  0  0
  7 11  2  0  0  0  0
  8 23  1  0  0  0  0
  9 16  1  0  0  0  0
 11 12  1  0  0  0  0
 12 10  2  0  0  0  0
 12 19  1  0  0  0  0
 13 19  1  0  0  0  0
 13 20  1  1  0  0  0
 14  8  2  0  0  0  0
 15  1  1  0  0  0  0
 15 18  1  0  0  0  0
 16  7  1  0  0  0  0
 17  5  2  0  0  0  0
 17 14  1  0  0  0  0
 18  6  1  0  0  0  0
 19 27  1  1  0  0  0
 21  2  2  0  0  0  0
 24  2  1  6  0  0  0
 24 13  1  0  0  0  0
 25 20  1  0  0  0  0
 25 23  2  0  0  0  0
 27 26  1  0  0  0  0
 29 32  1  0  0  0  0
 29 28  1  0  0  0  0
 30 32  2  0  0  0  0
 32 31  1  0  0  0  0
M  END
>  <MODEL>
3

>  <REMARK>
 VINA RESULT:      -7.1      2.184      9.102
  Name = 
  4 active torsions:
  status: ('A' for Active; 'I' for Inactive)
    1  A    between atoms: C_2  and  C_24
    2  A    between atoms: C_10  and  C_20
    3  A    between atoms: C_10  and  C_24
    4  A    between atoms: O_25  and  C_26
                            x       y       z     vdW  Elec       q    Type
                         _______ _______ _______ _____ _____    ______ ____

>  <TORSDO>
F 4

$$$$
