=
 OpenBabel11052422253D

 31 33  0  0  1  0  0  0  0  0999 V2000
  161.2030  201.5880  149.3850 N   0  0  0  0  0  0  0  0  0  0  0  0
  162.1490  205.1610  148.6250 C   0  0  2  0  0  3  0  0  0  0  0  0
  161.3370  204.0280  149.2350 C   0  0  0  0  0  0  0  0  0  0  0  0
  160.0580  201.7380  150.2760 C   0  0  0  0  0  2  0  0  0  0  0  0
  162.2200  206.1190  150.8820 N   0  0  0  0  0  0  0  0  0  0  0  0
  160.9520  200.4090  148.5760 C   0  0  0  0  0  1  0  0  0  0  0  0
  161.0150  205.3940  151.2920 C   0  0  0  0  0  2  0  0  0  0  0  0
  162.1260  206.4630  149.4530 C   0  0  2  0  0  3  0  0  0  0  0  0
  161.1940  202.7300  148.4750 C   0  0  0  0  0  2  0  0  0  0  0  0
  160.8680  204.1180  150.5060 C   0  0  0  0  0  0  0  0  0  0  0  0
  160.2860  202.9200  151.2180 C   0  0  0  0  0  2  0  0  0  0  0  0
  161.9810  205.3510  147.1390 C   0  0  0  0  0  0  0  0  0  0  0  0
  163.0300  205.0530  144.9060 N   0  0  0  0  0  0  0  0  0  0  0  0
  162.9810  204.9800  146.3320 C   0  0  0  0  0  3  0  0  0  0  0  0
  162.0740  205.5160  143.9530 C   0  0  0  0  0  3  0  0  0  0  0  0
  160.8670  205.9990  144.2170 C   0  0  0  0  0  3  0  0  0  0  0  0
  160.6860  205.9070  146.7280 C   0  0  0  0  0  2  0  0  0  0  0  0
  160.2180  206.1790  145.5150 C   0  0  0  0  0  3  0  0  0  0  0  0
  161.3770  208.7170  148.6680 C   0  0  0  0  0  1  0  0  0  0  0  0
  160.9100  207.3530  149.1380 C   0  0  0  0  0  2  0  0  0  0  0  0
  162.3210  207.3350  151.6780 C   0  0  0  0  0  2  0  0  0  0  0  0
  161.8520  206.5970  153.9060 O   0  0  0  0  0  1  0  0  0  0  0  0
  161.3200  207.3000  152.8220 C   0  0  1  0  0  3  0  0  0  0  0  0
  160.3750  209.4010  152.3740 O   0  0  0  0  0  0  0  0  0  0  0  0
  160.9310  208.7030  153.2070 C   0  0  0  0  0  0  0  0  0  0  0  0
  161.6550  210.6190  154.4470 O   0  0  0  0  0  1  0  0  0  0  0  0
  161.2130  209.3000  154.5650 C   0  0  1  0  0  3  0  0  0  0  0  0
  160.0440  209.1980  155.5540 C   0  0  0  0  0  0  0  0  0  0  0  0
  159.5360  207.9130  155.5840 F   0  0  0  0  0  0  0  0  0  0  0  0
  160.4900  209.5940  156.9510 C   0  0  0  0  0  1  0  0  0  0  0  0
  159.0410  210.0640  155.1570 F   0  0  0  0  0  0  0  0  0  0  0  0
  1  4  1  0  0  0  0
  2 12  1  6  0  0  0
  2  3  1  0  0  0  0
  2  8  1  0  0  0  0
  3 10  2  0  0  0  0
  4 11  1  0  0  0  0
  5  7  1  0  0  0  0
  5 21  1  0  0  0  0
  6  1  1  0  0  0  0
  8 20  1  1  0  0  0
  8  5  1  0  0  0  0
  9  3  1  0  0  0  0
  9  1  1  0  0  0  0
 10 11  1  0  0  0  0
 10  7  1  0  0  0  0
 13 14  1  0  0  0  0
 14 12  2  0  0  0  0
 15 16  1  0  0  0  0
 15 13  2  0  0  0  0
 16 18  2  0  0  0  0
 17 12  1  0  0  0  0
 18 17  1  0  0  0  0
 19 20  1  0  0  0  0
 21 23  1  0  0  0  0
 23 25  1  0  0  0  0
 23 22  1  1  0  0  0
 24 25  2  0  0  0  0
 25 27  1  0  0  0  0
 27 26  1  6  0  0  0
 27 28  1  0  0  0  0
 28 29  1  0  0  0  0
 28 30  1  0  0  0  0
 31 28  1  0  0  0  0
M  END
>  <MODEL>
1

>  <REMARK>
 VINA RESULT:      -6.2      0.000      0.000
  Name = 
  7 active torsions:
  status: ('A' for Active; 'I' for Inactive)
    1  A    between atoms: C_1  and  C_19
    2  A    between atoms: C_4  and  C_5
    3  A    between atoms: C_9  and  C_22
    4  A    between atoms: C_9  and  C_23
    5  A    between atoms: N_15  and  C_23
    6  A    between atoms: C_19  and  C_22
    7  A    between atoms: C_21  and  C_29
                            x       y       z     vdW  Elec       q    Type
                         _______ _______ _______ _____ _____    ______ ____

>  <TORSDO>
F 7

$$$$
=
 OpenBabel11052422253D

 31 33  0  0  1  0  0  0  0  0999 V2000
  161.4540  210.6530  148.9550 N   0  0  0  0  0  0  0  0  0  0  0  0
  161.0080  207.1320  150.2370 C   0  0  2  0  0  3  0  0  0  0  0  0
  161.6260  208.5190  150.1430 C   0  0  0  0  0  0  0  0  0  0  0  0
  162.5320  211.1680  149.7900 C   0  0  0  0  0  2  0  0  0  0  0  0
  160.8680  207.5260  152.6530 N   0  0  0  0  0  0  0  0  0  0  0  0
  161.6260  211.2410  147.6390 C   0  0  0  0  0  1  0  0  0  0  0  0
  161.9400  208.5230  152.6130 C   0  0  0  0  0  2  0  0  0  0  0  0
  161.1190  206.4900  151.6360 C   0  0  2  0  0  3  0  0  0  0  0  0
  161.6740  209.2170  148.8040 C   0  0  0  0  0  2  0  0  0  0  0  0
  161.9970  209.1900  151.2640 C   0  0  0  0  0  0  0  0  0  0  0  0
  162.3720  210.6520  151.2200 C   0  0  0  0  0  2  0  0  0  0  0  0
  161.3180  206.2060  149.0880 C   0  0  0  0  0  0  0  0  0  0  0  0
  162.4710  205.9750  146.8990 N   0  0  0  0  0  0  0  0  0  0  0  0
  162.0480  206.6750  148.0710 C   0  0  0  0  0  3  0  0  0  0  0  0
  162.2570  204.6290  146.4770 C   0  0  0  0  0  3  0  0  0  0  0  0
  161.5830  203.6940  147.1340 C   0  0  0  0  0  3  0  0  0  0  0  0
  160.7950  204.8420  149.2340 C   0  0  0  0  0  2  0  0  0  0  0  0
  160.9020  203.7940  148.4240 C   0  0  0  0  0  3  0  0  0  0  0  0
  162.2020  204.2750  152.0570 C   0  0  0  0  0  1  0  0  0  0  0  0
  162.4540  205.7560  151.8550 C   0  0  0  0  0  2  0  0  0  0  0  0
  160.8490  206.9210  153.9790 C   0  0  0  0  0  2  0  0  0  0  0  0
  159.2960  207.0740  155.7940 O   0  0  0  0  0  1  0  0  0  0  0  0
  160.1260  207.8290  154.9610 C   0  0  1  0  0  3  0  0  0  0  0  0
  161.9800  208.0310  156.3850 O   0  0  0  0  0  0  0  0  0  0  0  0
  161.1250  208.6300  155.7530 C   0  0  0  0  0  0  0  0  0  0  0  0
  162.2720  210.6740  155.2630 O   0  0  0  0  0  1  0  0  0  0  0  0
  161.1100  210.1380  155.8240 C   0  0  1  0  0  3  0  0  0  0  0  0
  159.8590  210.7860  155.2160 C   0  0  0  0  0  0  0  0  0  0  0  0
  158.7150  210.3290  155.8450 F   0  0  0  0  0  0  0  0  0  0  0  0
  159.9270  212.2980  155.3370 C   0  0  0  0  0  1  0  0  0  0  0  0
  159.7880  210.4600  153.8740 F   0  0  0  0  0  0  0  0  0  0  0  0
  1  4  1  0  0  0  0
  2 12  1  6  0  0  0
  2  8  1  0  0  0  0
  3  2  1  0  0  0  0
  3 10  2  0  0  0  0
  4 11  1  0  0  0  0
  5 21  1  0  0  0  0
  6  1  1  0  0  0  0
  7  5  1  0  0  0  0
  8 20  1  1  0  0  0
  8  5  1  0  0  0  0
  9  1  1  0  0  0  0
  9  3  1  0  0  0  0
 10  7  1  0  0  0  0
 11 10  1  0  0  0  0
 12 17  1  0  0  0  0
 13 14  1  0  0  0  0
 14 12  2  0  0  0  0
 15 13  2  0  0  0  0
 15 16  1  0  0  0  0
 16 18  2  0  0  0  0
 18 17  1  0  0  0  0
 20 19  1  0  0  0  0
 21 23  1  0  0  0  0
 23 25  1  0  0  0  0
 23 22  1  1  0  0  0
 25 27  1  0  0  0  0
 25 24  2  0  0  0  0
 27 26  1  6  0  0  0
 28 30  1  0  0  0  0
 28 27  1  0  0  0  0
 28 29  1  0  0  0  0
 31 28  1  0  0  0  0
M  END
>  <MODEL>
2

>  <REMARK>
 VINA RESULT:      -5.9      2.166      4.634
  Name = 
  7 active torsions:
  status: ('A' for Active; 'I' for Inactive)
    1  A    between atoms: C_1  and  C_19
    2  A    between atoms: C_4  and  C_5
    3  A    between atoms: C_9  and  C_22
    4  A    between atoms: C_9  and  C_23
    5  A    between atoms: N_15  and  C_23
    6  A    between atoms: C_19  and  C_22
    7  A    between atoms: C_21  and  C_29
                            x       y       z     vdW  Elec       q    Type
                         _______ _______ _______ _____ _____    ______ ____

>  <TORSDO>
F 7

$$$$
=
 OpenBabel11052422253D

 31 33  0  0  1  0  0  0  0  0999 V2000
  161.7360  213.0630  148.9150 N   0  0  0  0  0  0  0  0  0  0  0  0
  162.1050  209.9910  151.0740 C   0  0  2  0  0  3  0  0  0  0  0  0
  161.5870  210.8350  149.9200 C   0  0  0  0  0  0  0  0  0  0  0  0
  160.8420  212.6100  147.8560 C   0  0  0  0  0  2  0  0  0  0  0  0
  162.6460  208.2930  149.3890 N   0  0  0  0  0  0  0  0  0  0  0  0
  161.4080  214.4530  149.1740 C   0  0  0  0  0  1  0  0  0  0  0  0
  161.6590  208.8290  148.4470 C   0  0  0  0  0  2  0  0  0  0  0  0
  162.1630  208.4790  150.7680 C   0  0  2  0  0  3  0  0  0  0  0  0
  161.3870  212.3190  150.1220 C   0  0  0  0  0  2  0  0  0  0  0  0
  161.4460  210.3010  148.6790 C   0  0  0  0  0  0  0  0  0  0  0  0
  161.1810  211.1690  147.4730 C   0  0  0  0  0  2  0  0  0  0  0  0
  161.5530  210.3420  152.4320 C   0  0  0  0  0  0  0  0  0  0  0  0
  162.0770  210.6250  154.8450 N   0  0  0  0  0  0  0  0  0  0  0  0
  162.3800  210.3150  153.4830 C   0  0  0  0  0  2  0  0  0  0  0  0
  160.8630  211.0400  155.4690 C   0  0  0  0  0  3  0  0  0  0  0  0
  159.6960  211.2400  154.8710 C   0  0  0  0  0  3  0  0  0  0  0  0
  160.1340  210.7180  152.4450 C   0  0  0  0  0  3  0  0  0  0  0  0
  159.3570  211.0910  153.4560 C   0  0  0  0  0  3  0  0  0  0  0  0
  160.9800  206.7850  152.1760 C   0  0  0  0  0  1  0  0  0  0  0  0
  160.8260  207.7630  151.0290 C   0  0  0  0  0  2  0  0  0  0  0  0
  162.8230  206.8730  149.1140 C   0  0  0  0  0  2  0  0  0  0  0  0
  162.8340  206.4510  146.7590 O   0  0  0  0  0  1  0  0  0  0  0  0
  162.0160  206.4680  147.8910 C   0  0  1  0  0  3  0  0  0  0  0  0
  160.4260  205.0720  148.9050 O   0  0  0  0  0  0  0  0  0  0  0  0
  161.3620  205.1320  148.1250 C   0  0  0  0  0  0  0  0  0  0  0  0
  161.3480  202.7370  148.1490 O   0  0  0  0  0  1  0  0  0  0  0  0
  161.8210  203.8560  147.4600 C   0  0  1  0  0  3  0  0  0  0  0  0
  161.4820  203.7660  145.9670 C   0  0  0  0  0  0  0  0  0  0  0  0
  162.6120  203.9540  145.1930 F   0  0  0  0  0  0  0  0  0  0  0  0
  160.8680  202.4160  145.6380 C   0  0  0  0  0  1  0  0  0  0  0  0
  160.5610  204.7490  145.6530 F   0  0  0  0  0  0  0  0  0  0  0  0
  1  6  1  0  0  0  0
  1  9  1  0  0  0  0
  2 12  1  1  0  0  0
  3  9  1  0  0  0  0
  3  2  1  0  0  0  0
  4  1  1  0  0  0  0
  5  8  1  0  0  0  0
  7 10  1  0  0  0  0
  7  5  1  0  0  0  0
  8 20  1  6  0  0  0
  8  2  1  0  0  0  0
 10  3  2  0  0  0  0
 11  4  1  0  0  0  0
 11 10  1  0  0  0  0
 12 17  2  0  0  0  0
 12 14  1  0  0  0  0
 13 15  2  0  0  0  0
 14 13  1  0  0  0  0
 16 15  1  0  0  0  0
 17 18  1  0  0  0  0
 18 16  2  0  0  0  0
 20 19  1  0  0  0  0
 21  5  1  0  0  0  0
 23 22  1  6  0  0  0
 23 25  1  0  0  0  0
 23 21  1  0  0  0  0
 25 24  2  0  0  0  0
 27 25  1  0  0  0  0
 27 26  1  1  0  0  0
 28 27  1  0  0  0  0
 29 28  1  0  0  0  0
 30 28  1  0  0  0  0
 31 28  1  0  0  0  0
M  END
>  <MODEL>
3

>  <REMARK>
 VINA RESULT:      -5.3      4.411      8.821
  Name = 
  7 active torsions:
  status: ('A' for Active; 'I' for Inactive)
    1  A    between atoms: C_1  and  C_19
    2  A    between atoms: C_4  and  C_5
    3  A    between atoms: C_9  and  C_22
    4  A    between atoms: C_9  and  C_23
    5  A    between atoms: N_15  and  C_23
    6  A    between atoms: C_19  and  C_22
    7  A    between atoms: C_21  and  C_29
                            x       y       z     vdW  Elec       q    Type
                         _______ _______ _______ _____ _____    ______ ____

>  <TORSDO>
F 7

$$$$
=
 OpenBabel11052422253D

 31 33  0  0  1  0  0  0  0  0999 V2000
  159.7280  209.6850  156.3430 N   0  0  0  0  0  0  0  0  0  0  0  0
  160.0950  209.4590  152.5940 C   0  0  2  0  0  3  0  0  0  0  0  0
  160.5230  209.3580  154.0510 C   0  0  0  0  0  0  0  0  0  0  0  0
  161.0200  209.2110  156.8250 C   0  0  0  0  0  2  0  0  0  0  0  0
  160.9540  207.1760  152.3430 N   0  0  0  0  0  0  0  0  0  0  0  0
  159.2940  210.7230  157.2610 C   0  0  0  0  0  1  0  0  0  0  0  0
  161.8420  207.3190  153.4990 C   0  0  0  0  0  2  0  0  0  0  0  0
  160.8240  208.4730  151.6570 C   0  0  2  0  0  3  0  0  0  0  0  0
  159.9590  210.3340  155.0560 C   0  0  0  0  0  2  0  0  0  0  0  0
  161.2840  208.3170  154.4790 C   0  0  0  0  0  0  0  0  0  0  0  0
  161.5080  208.0570  155.9490 C   0  0  0  0  0  2  0  0  0  0  0  0
  159.9560  210.8600  152.0570 C   0  0  0  0  0  0  0  0  0  0  0  0
  160.9390  212.5860  150.5620 N   0  0  0  0  0  0  0  0  0  0  0  0
  160.8820  211.3100  151.2020 C   0  0  0  0  0  3  0  0  0  0  0  0
  160.0670  213.7140  150.6320 C   0  0  0  0  0  3  0  0  0  0  0  0
  158.9540  213.8090  151.3470 C   0  0  0  0  0  3  0  0  0  0  0  0
  158.7670  211.5860  152.5190 C   0  0  0  0  0  2  0  0  0  0  0  0
  158.3460  212.8120  152.2270 C   0  0  0  0  0  3  0  0  0  0  0  0
  162.2210  208.9480  149.6380 C   0  0  0  0  0  1  0  0  0  0  0  0
  162.1740  209.0130  151.1520 C   0  0  0  0  0  2  0  0  0  0  0  0
  161.5320  206.1930  151.4350 C   0  0  0  0  0  2  0  0  0  0  0  0
  160.2810  206.1370  149.3960 O   0  0  0  0  0  1  0  0  0  0  0  0
  160.4370  205.5080  150.6340 C   0  0  1  0  0  3  0  0  0  0  0  0
  161.0370  203.4010  151.4740 O   0  0  0  0  0  0  0  0  0  0  0  0
  160.7530  204.0440  150.4770 C   0  0  0  0  0  0  0  0  0  0  0  0
  161.9070  203.6560  148.4150 O   0  0  0  0  0  1  0  0  0  0  0  0
  160.7600  203.3340  149.1440 C   0  0  1  0  0  3  0  0  0  0  0  0
  160.5770  201.8140  149.2380 C   0  0  0  0  0  0  0  0  0  0  0  0
  159.2460  201.4890  149.4270 F   0  0  0  0  0  0  0  0  0  0  0  0
  161.0850  201.1350  147.9780 C   0  0  0  0  0  1  0  0  0  0  0  0
  161.3070  201.3370  150.3120 F   0  0  0  0  0  0  0  0  0  0  0  0
  1  4  1  0  0  0  0
  1  6  1  0  0  0  0
  2 12  1  6  0  0  0
  2  3  1  0  0  0  0
  3 10  2  0  0  0  0
  3  9  1  0  0  0  0
  5  7  1  0  0  0  0
  7 10  1  0  0  0  0
  8 20  1  1  0  0  0
  8  5  1  0  0  0  0
  8  2  1  0  0  0  0
  9  1  1  0  0  0  0
 10 11  1  0  0  0  0
 11  4  1  0  0  0  0
 12 17  1  0  0  0  0
 13 15  2  0  0  0  0
 13 14  1  0  0  0  0
 14 12  2  0  0  0  0
 15 16  1  0  0  0  0
 16 18  2  0  0  0  0
 18 17  1  0  0  0  0
 19 20  1  0  0  0  0
 21  5  1  0  0  0  0
 23 22  1  6  0  0  0
 23 21  1  0  0  0  0
 25 23  1  0  0  0  0
 25 24  2  0  0  0  0
 27 26  1  1  0  0  0
 27 28  1  0  0  0  0
 27 25  1  0  0  0  0
 28 29  1  0  0  0  0
 28 31  1  0  0  0  0
 30 28  1  0  0  0  0
M  END
>  <MODEL>
4

>  <REMARK>
 VINA RESULT:      -5.3      4.117      8.046
  Name = 
  7 active torsions:
  status: ('A' for Active; 'I' for Inactive)
    1  A    between atoms: C_1  and  C_19
    2  A    between atoms: C_4  and  C_5
    3  A    between atoms: C_9  and  C_22
    4  A    between atoms: C_9  and  C_23
    5  A    between atoms: N_15  and  C_23
    6  A    between atoms: C_19  and  C_22
    7  A    between atoms: C_21  and  C_29
                            x       y       z     vdW  Elec       q    Type
                         _______ _______ _______ _____ _____    ______ ____

>  <TORSDO>
F 7

$$$$
=
 OpenBabel11052422253D

 31 33  0  0  1  0  0  0  0  0999 V2000
  160.8120  206.7690  146.8900 N   0  0  0  0  0  0  0  0  0  0  0  0
  160.5570  205.6240  150.4770 C   0  0  2  0  0  3  0  0  0  0  0  0
  161.1440  206.3600  149.2810 C   0  0  0  0  0  0  0  0  0  0  0  0
  161.9720  207.6530  146.9130 C   0  0  0  0  0  2  0  0  0  0  0  0
  160.6870  207.7660  151.6640 N   0  0  0  0  0  0  0  0  0  0  0  0
  160.8270  206.0930  145.6060 C   0  0  0  0  0  1  0  0  0  0  0  0
  161.7360  208.2650  150.7710 C   0  0  0  0  0  2  0  0  0  0  0  0
  160.8330  206.3100  151.8310 C   0  0  2  0  0  3  0  0  0  0  0  0
  161.0310  205.7440  147.9060 C   0  0  0  0  0  2  0  0  0  0  0  0
  161.6310  207.6210  149.4150 C   0  0  0  0  0  0  0  0  0  0  0  0
  161.9810  208.4620  148.2100 C   0  0  0  0  0  2  0  0  0  0  0  0
  160.7460  204.1290  150.4720 C   0  0  0  0  0  0  0  0  0  0  0  0
  161.0000  202.0930  151.8750 N   0  0  0  0  0  0  0  0  0  0  0  0
  160.8370  203.4940  151.6460 C   0  0  0  0  0  2  0  0  0  0  0  0
  161.1050  200.9960  150.9680 C   0  0  0  0  0  3  0  0  0  0  0  0
  161.0650  201.0610  149.6440 C   0  0  0  0  0  3  0  0  0  0  0  0
  160.7760  203.5120  149.1400 C   0  0  0  0  0  3  0  0  0  0  0  0
  160.9090  202.2380  148.7900 C   0  0  0  0  0  3  0  0  0  0  0  0
  162.1600  206.0950  153.9400 C   0  0  0  0  0  1  0  0  0  0  0  0
  162.1930  205.9170  152.4360 C   0  0  0  0  0  2  0  0  0  0  0  0
  160.8250  208.4280  152.9550 C   0  0  0  0  0  2  0  0  0  0  0  0
  159.3890  210.2570  152.3920 O   0  0  0  0  0  1  0  0  0  0  0  0
  160.6870  209.9330  152.7930 C   0  0  1  0  0  3  0  0  0  0  0  0
  160.8300  211.8190  154.1820 O   0  0  0  0  0  0  0  0  0  0  0  0
  161.0620  210.6260  154.0770 C   0  0  0  0  0  0  0  0  0  0  0  0
  162.8300  210.6540  155.6910 O   0  0  0  0  0  1  0  0  0  0  0  0
  161.7310  209.9230  155.2340 C   0  0  1  0  0  3  0  0  0  0  0  0
  160.7850  209.5710  156.3900 C   0  0  0  0  0  0  0  0  0  0  0  0
  159.5450  209.1870  155.9120 F   0  0  0  0  0  0  0  0  0  0  0  0
  161.3660  208.4500  157.2340 C   0  0  0  0  0  1  0  0  0  0  0  0
  160.6250  210.6830  157.1970 F   0  0  0  0  0  0  0  0  0  0  0  0
  1  4  1  0  0  0  0
  1  9  1  0  0  0  0
  2 12  1  1  0  0  0
  2  8  1  0  0  0  0
  3 10  2  0  0  0  0
  3  2  1  0  0  0  0
  4 11  1  0  0  0  0
  5  8  1  0  0  0  0
  5 21  1  0  0  0  0
  6  1  1  0  0  0  0
  7  5  1  0  0  0  0
  8 20  1  6  0  0  0
  9  3  1  0  0  0  0
 10  7  1  0  0  0  0
 11 10  1  0  0  0  0
 12 14  1  0  0  0  0
 14 13  1  0  0  0  0
 15 13  2  0  0  0  0
 16 15  1  0  0  0  0
 17 12  2  0  0  0  0
 18 17  1  0  0  0  0
 18 16  2  0  0  0  0
 20 19  1  0  0  0  0
 23 22  1  1  0  0  0
 23 21  1  0  0  0  0
 23 25  1  0  0  0  0
 25 24  2  0  0  0  0
 25 27  1  0  0  0  0
 27 26  1  1  0  0  0
 27 28  1  0  0  0  0
 28 31  1  0  0  0  0
 28 30  1  0  0  0  0
 29 28  1  0  0  0  0
M  END
>  <MODEL>
5

>  <REMARK>
 VINA RESULT:      -5.1      1.659      4.442
  Name = 
  7 active torsions:
  status: ('A' for Active; 'I' for Inactive)
    1  A    between atoms: C_1  and  C_19
    2  A    between atoms: C_4  and  C_5
    3  A    between atoms: C_9  and  C_22
    4  A    between atoms: C_9  and  C_23
    5  A    between atoms: N_15  and  C_23
    6  A    between atoms: C_19  and  C_22
    7  A    between atoms: C_21  and  C_29
                            x       y       z     vdW  Elec       q    Type
                         _______ _______ _______ _____ _____    ______ ____

>  <TORSDO>
F 7

$$$$
=
 OpenBabel11052422253D

 31 33  0  0  1  0  0  0  0  0999 V2000
  162.2330  206.8100  148.4560 N   0  0  0  0  0  0  0  0  0  0  0  0
  162.1610  210.3020  149.8860 C   0  0  2  0  0  3  0  0  0  0  0  0
  161.6850  208.8760  149.6500 C   0  0  0  0  0  0  0  0  0  0  0  0
  161.0740  206.1810  149.0780 C   0  0  0  0  0  2  0  0  0  0  0  0
  161.9160  209.8240  152.2790 N   0  0  0  0  0  0  0  0  0  0  0  0
  162.3380  206.2630  147.1150 C   0  0  0  0  0  1  0  0  0  0  0  0
  160.9530  208.7500  152.0270 C   0  0  0  0  0  2  0  0  0  0  0  0
  161.7590  210.8770  151.2610 C   0  0  2  0  0  3  0  0  0  0  0  0
  161.9250  208.2300  148.3060 C   0  0  0  0  0  2  0  0  0  0  0  0
  161.1840  208.1350  150.6720 C   0  0  0  0  0  0  0  0  0  0  0  0
  160.9440  206.6510  150.5260 C   0  0  0  0  0  2  0  0  0  0  0  0
  161.9780  211.2450  148.7250 C   0  0  0  0  0  0  0  0  0  0  0  0
  160.4380  212.0060  146.9280 N   0  0  0  0  0  0  0  0  0  0  0  0
  160.8280  211.2000  148.0420 C   0  0  0  0  0  3  0  0  0  0  0  0
  161.1180  213.0550  146.2400 C   0  0  0  0  0  3  0  0  0  0  0  0
  162.3260  213.5280  146.5180 C   0  0  0  0  0  3  0  0  0  0  0  0
  163.1010  212.1590  148.4860 C   0  0  0  0  0  2  0  0  0  0  0  0
  163.2510  213.1090  147.5700 C   0  0  0  0  0  3  0  0  0  0  0  0
  160.4520  213.0090  151.2510 C   0  0  0  0  0  1  0  0  0  0  0  0
  160.3500  211.4970  151.2620 C   0  0  0  0  0  2  0  0  0  0  0  0
  161.6580  210.3760  153.6030 C   0  0  0  0  0  2  0  0  0  0  0  0
  161.6110  208.7010  155.3120 O   0  0  0  0  0  1  0  0  0  0  0  0
  160.8080  209.4130  154.4170 C   0  0  1  0  0  3  0  0  0  0  0  0
  159.3530  209.7670  156.2240 O   0  0  0  0  0  0  0  0  0  0  0  0
  159.7160  210.1670  155.1300 C   0  0  0  0  0  0  0  0  0  0  0  0
  157.6500  211.1880  154.4820 O   0  0  0  0  0  1  0  0  0  0  0  0
  159.0320  211.3810  154.5500 C   0  0  1  0  0  3  0  0  0  0  0  0
  159.3680  212.6960  155.2640 C   0  0  0  0  0  0  0  0  0  0  0  0
  159.4030  213.7480  154.3670 F   0  0  0  0  0  0  0  0  0  0  0  0
  158.3460  212.9940  156.3470 C   0  0  0  0  0  1  0  0  0  0  0  0
  160.6110  212.5810  155.8600 F   0  0  0  0  0  0  0  0  0  0  0  0
  1  4  1  0  0  0  0
  2 12  1  6  0  0  0
  2  8  1  0  0  0  0
  3  2  1  0  0  0  0
  3 10  2  0  0  0  0
  4 11  1  0  0  0  0
  5 21  1  0  0  0  0
  6  1  1  0  0  0  0
  7  5  1  0  0  0  0
  8 20  1  6  0  0  0
  8  5  1  0  0  0  0
  9  1  1  0  0  0  0
  9  3  1  0  0  0  0
 10  7  1  0  0  0  0
 11 10  1  0  0  0  0
 13 14  1  0  0  0  0
 14 12  2  0  0  0  0
 15 16  1  0  0  0  0
 15 13  2  0  0  0  0
 16 18  2  0  0  0  0
 17 12  1  0  0  0  0
 18 17  1  0  0  0  0
 19 20  1  0  0  0  0
 21 23  1  0  0  0  0
 23 25  1  0  0  0  0
 23 22  1  1  0  0  0
 25 24  2  0  0  0  0
 27 26  1  1  0  0  0
 27 25  1  0  0  0  0
 27 28  1  0  0  0  0
 28 31  1  0  0  0  0
 28 30  1  0  0  0  0
 29 28  1  0  0  0  0
M  END
>  <MODEL>
6

>  <REMARK>
 VINA RESULT:      -5.1      3.275      5.178
  Name = 
  7 active torsions:
  status: ('A' for Active; 'I' for Inactive)
    1  A    between atoms: C_1  and  C_19
    2  A    between atoms: C_4  and  C_5
    3  A    between atoms: C_9  and  C_22
    4  A    between atoms: C_9  and  C_23
    5  A    between atoms: N_15  and  C_23
    6  A    between atoms: C_19  and  C_22
    7  A    between atoms: C_21  and  C_29
                            x       y       z     vdW  Elec       q    Type
                         _______ _______ _______ _____ _____    ______ ____

>  <TORSDO>
F 7

$$$$
=
 OpenBabel11052422253D

 31 33  0  0  1  0  0  0  0  0999 V2000
  162.4310  210.3690  149.2300 N   0  0  0  0  0  0  0  0  0  0  0  0
  161.9490  208.8200  152.6380 C   0  0  2  0  0  3  0  0  0  0  0  0
  161.7190  209.0220  151.1470 C   0  0  0  0  0  0  0  0  0  0  0  0
  161.5420  209.5790  148.3870 C   0  0  0  0  0  2  0  0  0  0  0  0
  162.2270  206.4400  152.1160 N   0  0  0  0  0  0  0  0  0  0  0  0
  162.4000  211.7260  148.7180 C   0  0  0  0  0  1  0  0  0  0  0  0
  161.4570  206.5610  150.8750 C   0  0  0  0  0  2  0  0  0  0  0  0
  161.6950  207.3760  153.1200 C   0  0  2  0  0  3  0  0  0  0  0  0
  161.8370  210.4100  150.5640 C   0  0  0  0  0  2  0  0  0  0  0  0
  161.5570  207.9570  150.3200 C   0  0  0  0  0  0  0  0  0  0  0  0
  161.5820  208.1140  148.8190 C   0  0  0  0  0  2  0  0  0  0  0  0
  161.3870  209.8960  153.5310 C   0  0  0  0  0  0  0  0  0  0  0  0
  161.6890  211.1660  155.6460 N   0  0  0  0  0  0  0  0  0  0  0  0
  162.0310  210.1820  154.6670 C   0  0  0  0  0  2  0  0  0  0  0  0
  160.6130  212.1010  155.7050 C   0  0  0  0  0  3  0  0  0  0  0  0
  159.6530  212.2570  154.8030 C   0  0  0  0  0  3  0  0  0  0  0  0
  160.1760  210.5530  153.0230 C   0  0  0  0  0  3  0  0  0  0  0  0
  159.4520  211.5350  153.5480 C   0  0  0  0  0  3  0  0  0  0  0  0
  160.0410  206.9900  154.9560 C   0  0  0  0  0  1  0  0  0  0  0  0
  160.2170  207.1080  153.4550 C   0  0  0  0  0  2  0  0  0  0  0  0
  162.1070  205.0710  152.6030 C   0  0  0  0  0  2  0  0  0  0  0  0
  162.9180  202.9680  151.8000 O   0  0  0  0  0  1  0  0  0  0  0  0
  162.1700  204.0920  151.4420 C   0  0  1  0  0  3  0  0  0  0  0  0
  159.8840  203.7450  151.8400 O   0  0  0  0  0  0  0  0  0  0  0  0
  160.7760  203.7170  151.0090 C   0  0  0  0  0  0  0  0  0  0  0  0
  161.3290  203.8320  148.6820 O   0  0  0  0  0  1  0  0  0  0  0  0
  160.4320  203.2870  149.6040 C   0  0  1  0  0  3  0  0  0  0  0  0
  160.3110  201.7680  149.4210 C   0  0  0  0  0  0  0  0  0  0  0  0
  158.9900  201.3970  149.2490 F   0  0  0  0  0  0  0  0  0  0  0  0
  161.1210  201.3070  148.2220 C   0  0  0  0  0  1  0  0  0  0  0  0
  160.8060  201.1370  150.5480 F   0  0  0  0  0  0  0  0  0  0  0  0
  1  9  1  0  0  0  0
  2  8  1  0  0  0  0
  2 12  1  1  0  0  0
  3  2  1  0  0  0  0
  4 11  1  0  0  0  0
  4  1  1  0  0  0  0
  5 21  1  0  0  0  0
  5  8  1  0  0  0  0
  6  1  1  0  0  0  0
  7  5  1  0  0  0  0
  8 20  1  6  0  0  0
  9  3  1  0  0  0  0
 10  7  1  0  0  0  0
 10  3  2  0  0  0  0
 11 10  1  0  0  0  0
 12 14  1  0  0  0  0
 13 15  2  0  0  0  0
 14 13  1  0  0  0  0
 16 15  1  0  0  0  0
 17 12  2  0  0  0  0
 17 18  1  0  0  0  0
 18 16  2  0  0  0  0
 20 19  1  0  0  0  0
 23 22  1  1  0  0  0
 23 21  1  0  0  0  0
 25 23  1  0  0  0  0
 25 24  2  0  0  0  0
 27 26  1  6  0  0  0
 27 25  1  0  0  0  0
 28 27  1  0  0  0  0
 28 31  1  0  0  0  0
 29 28  1  0  0  0  0
 30 28  1  0  0  0  0
M  END
>  <MODEL>
7

>  <REMARK>
 VINA RESULT:      -5.1      4.071      8.033
  Name = 
  7 active torsions:
  status: ('A' for Active; 'I' for Inactive)
    1  A    between atoms: C_1  and  C_19
    2  A    between atoms: C_4  and  C_5
    3  A    between atoms: C_9  and  C_22
    4  A    between atoms: C_9  and  C_23
    5  A    between atoms: N_15  and  C_23
    6  A    between atoms: C_19  and  C_22
    7  A    between atoms: C_21  and  C_29
                            x       y       z     vdW  Elec       q    Type
                         _______ _______ _______ _____ _____    ______ ____

>  <TORSDO>
F 7

$$$$
=
 OpenBabel11052422253D

 31 33  0  0  1  0  0  0  0  0999 V2000
  160.1350  206.8730  155.3450 N   0  0  0  0  0  0  0  0  0  0  0  0
  160.2190  209.2090  152.3830 C   0  0  2  0  0  3  0  0  0  0  0  0
  160.7670  208.2190  153.4000 C   0  0  0  0  0  0  0  0  0  0  0  0
  161.4900  206.3350  155.3720 C   0  0  0  0  0  2  0  0  0  0  0  0
  161.2070  207.7600  150.6690 N   0  0  0  0  0  0  0  0  0  0  0  0
  159.7060  206.9980  156.7260 C   0  0  0  0  0  1  0  0  0  0  0  0
  162.1720  207.1970  151.6170 C   0  0  0  0  0  2  0  0  0  0  0  0
  160.9360  209.1650  151.0170 C   0  0  2  0  0  3  0  0  0  0  0  0
  160.2200  208.2280  154.8080 C   0  0  0  0  0  2  0  0  0  0  0  0
  161.6270  207.2390  153.0200 C   0  0  0  0  0  0  0  0  0  0  0  0
  161.9840  206.1000  153.9450 C   0  0  0  0  0  2  0  0  0  0  0  0
  159.9440  210.5940  152.9110 C   0  0  0  0  0  0  0  0  0  0  0  0
  160.3960  212.2140  154.7410 N   0  0  0  0  0  0  0  0  0  0  0  0
  160.5050  210.9570  154.0690 C   0  0  0  0  0  2  0  0  0  0  0  0
  159.6930  213.4070  154.3970 C   0  0  0  0  0  3  0  0  0  0  0  0
  158.9560  213.6050  153.3120 C   0  0  0  0  0  3  0  0  0  0  0  0
  159.0920  211.4260  152.0530 C   0  0  0  0  0  3  0  0  0  0  0  0
  158.6780  212.6780  152.2150 C   0  0  0  0  0  3  0  0  0  0  0  0
  162.0770  211.0780  149.8800 C   0  0  0  0  0  1  0  0  0  0  0  0
  162.2020  210.0390  150.9770 C   0  0  0  0  0  2  0  0  0  0  0  0
  161.7760  207.6830  149.3300 C   0  0  0  0  0  2  0  0  0  0  0  0
  160.8090  207.3280  147.1700 O   0  0  0  0  0  1  0  0  0  0  0  0
  160.9290  206.7790  148.4480 C   0  0  1  0  0  3  0  0  0  0  0  0
  162.6220  205.2550  147.8860 O   0  0  0  0  0  0  0  0  0  0  0  0
  161.5280  205.3970  148.4050 C   0  0  0  0  0  0  0  0  0  0  0  0
  161.2140  203.0280  148.2500 O   0  0  0  0  0  1  0  0  0  0  0  0
  160.8310  204.1740  148.9510 C   0  0  1  0  0  3  0  0  0  0  0  0
  161.0000  203.9750  150.4630 C   0  0  0  0  0  0  0  0  0  0  0  0
  160.0810  204.7320  151.1650 F   0  0  0  0  0  0  0  0  0  0  0  0
  160.8310  202.5110  150.8320 C   0  0  0  0  0  1  0  0  0  0  0  0
  162.2740  204.3700  150.8310 F   0  0  0  0  0  0  0  0  0  0  0  0
  1  4  1  0  0  0  0
  1  6  1  0  0  0  0
  2 12  1  1  0  0  0
  2  3  1  0  0  0  0
  3  9  1  0  0  0  0
  5  8  1  0  0  0  0
  5  7  1  0  0  0  0
  7 10  1  0  0  0  0
  8 20  1  1  0  0  0
  8  2  1  0  0  0  0
  9  1  1  0  0  0  0
 10  3  2  0  0  0  0
 10 11  1  0  0  0  0
 11  4  1  0  0  0  0
 12 14  1  0  0  0  0
 14 13  1  0  0  0  0
 15 13  2  0  0  0  0
 16 15  1  0  0  0  0
 17 18  1  0  0  0  0
 17 12  2  0  0  0  0
 18 16  2  0  0  0  0
 19 20  1  0  0  0  0
 21  5  1  0  0  0  0
 23 22  1  6  0  0  0
 23 21  1  0  0  0  0
 24 25  2  0  0  0  0
 25 23  1  0  0  0  0
 25 27  1  0  0  0  0
 27 26  1  6  0  0  0
 27 28  1  0  0  0  0
 28 31  1  0  0  0  0
 28 30  1  0  0  0  0
 28 29  1  0  0  0  0
M  END
>  <MODEL>
8

>  <REMARK>
 VINA RESULT:      -5.0      3.602      7.562
  Name = 
  7 active torsions:
  status: ('A' for Active; 'I' for Inactive)
    1  A    between atoms: C_1  and  C_19
    2  A    between atoms: C_4  and  C_5
    3  A    between atoms: C_9  and  C_22
    4  A    between atoms: C_9  and  C_23
    5  A    between atoms: N_15  and  C_23
    6  A    between atoms: C_19  and  C_22
    7  A    between atoms: C_21  and  C_29
                            x       y       z     vdW  Elec       q    Type
                         _______ _______ _______ _____ _____    ______ ____

>  <TORSDO>
F 7

$$$$
=
 OpenBabel11052422253D

 31 33  0  0  1  0  0  0  0  0999 V2000
  160.1030  206.9800  155.7130 N   0  0  0  0  0  0  0  0  0  0  0  0
  160.0930  209.3200  152.7520 C   0  0  2  0  0  3  0  0  0  0  0  0
  160.6750  208.3340  153.7550 C   0  0  0  0  0  0  0  0  0  0  0  0
  161.4640  206.4570  155.7080 C   0  0  0  0  0  2  0  0  0  0  0  0
  161.0550  207.8820  151.0140 N   0  0  0  0  0  0  0  0  0  0  0  0
  159.7060  207.1000  157.1040 C   0  0  0  0  0  1  0  0  0  0  0  0
  162.0480  207.3290  151.9380 C   0  0  0  0  0  2  0  0  0  0  0  0
  160.7780  209.2840  151.3700 C   0  0  2  0  0  3  0  0  0  0  0  0
  160.1610  208.3370  155.1760 C   0  0  0  0  0  2  0  0  0  0  0  0
  161.5360  207.3650  153.3540 C   0  0  0  0  0  0  0  0  0  0  0  0
  161.9270  206.2290  154.2690 C   0  0  0  0  0  2  0  0  0  0  0  0
  159.8160  210.7010  153.2880 C   0  0  0  0  0  0  0  0  0  0  0  0
  158.5630  212.8190  152.9390 N   0  0  0  0  0  0  0  0  0  0  0  0
  158.9770  211.4910  152.6090 C   0  0  0  0  0  3  0  0  0  0  0  0
  158.8950  213.6630  154.0400 C   0  0  0  0  0  3  0  0  0  0  0  0
  159.7060  213.3640  155.0470 C   0  0  0  0  0  3  0  0  0  0  0  0
  160.4920  211.0230  154.5510 C   0  0  0  0  0  2  0  0  0  0  0  0
  160.4500  212.1280  155.2860 C   0  0  0  0  0  3  0  0  0  0  0  0
  161.9470  211.0950  150.1010 C   0  0  0  0  0  1  0  0  0  0  0  0
  162.0340  210.1720  151.3000 C   0  0  0  0  0  2  0  0  0  0  0  0
  161.5940  207.8130  149.6610 C   0  0  0  0  0  2  0  0  0  0  0  0
  160.0950  205.9680  149.3840 O   0  0  0  0  0  1  0  0  0  0  0  0
  161.3800  206.4240  149.0800 C   0  0  1  0  0  3  0  0  0  0  0  0
  162.3310  207.3280  147.1350 O   0  0  0  0  0  0  0  0  0  0  0  0
  161.6250  206.4460  147.5940 C   0  0  0  0  0  0  0  0  0  0  0  0
  160.7550  206.0330  145.4010 O   0  0  0  0  0  1  0  0  0  0  0  0
  161.0220  205.4440  146.6390 C   0  0  1  0  0  3  0  0  0  0  0  0
  161.8450  204.1600  146.4700 C   0  0  0  0  0  0  0  0  0  0  0  0
  161.9560  203.4850  147.6720 F   0  0  0  0  0  0  0  0  0  0  0  0
  161.2060  203.2470  145.4390 C   0  0  0  0  0  1  0  0  0  0  0  0
  163.1130  204.4920  146.0290 F   0  0  0  0  0  0  0  0  0  0  0  0
  1  6  1  0  0  0  0
  2 12  1  1  0  0  0
  2  3  1  0  0  0  0
  3  9  1  0  0  0  0
  4  1  1  0  0  0  0
  5  8  1  0  0  0  0
  5  7  1  0  0  0  0
  7 10  1  0  0  0  0
  8 20  1  1  0  0  0
  8  2  1  0  0  0  0
  9  1  1  0  0  0  0
 10  3  2  0  0  0  0
 10 11  1  0  0  0  0
 11  4  1  0  0  0  0
 12 17  1  0  0  0  0
 13 15  2  0  0  0  0
 14 13  1  0  0  0  0
 14 12  2  0  0  0  0
 15 16  1  0  0  0  0
 16 18  2  0  0  0  0
 17 18  1  0  0  0  0
 19 20  1  0  0  0  0
 21  5  1  0  0  0  0
 23 22  1  6  0  0  0
 23 21  1  0  0  0  0
 24 25  2  0  0  0  0
 25 23  1  0  0  0  0
 27 26  1  6  0  0  0
 27 25  1  0  0  0  0
 28 27  1  0  0  0  0
 28 29  1  0  0  0  0
 30 28  1  0  0  0  0
 31 28  1  0  0  0  0
M  END
>  <MODEL>
9

>  <REMARK>
 VINA RESULT:      -5.0      4.176      8.366
  Name = 
  7 active torsions:
  status: ('A' for Active; 'I' for Inactive)
    1  A    between atoms: C_1  and  C_19
    2  A    between atoms: C_4  and  C_5
    3  A    between atoms: C_9  and  C_22
    4  A    between atoms: C_9  and  C_23
    5  A    between atoms: N_15  and  C_23
    6  A    between atoms: C_19  and  C_22
    7  A    between atoms: C_21  and  C_29
                            x       y       z     vdW  Elec       q    Type
                         _______ _______ _______ _____ _____    ______ ____

>  <TORSDO>
F 7

$$$$
