=
 OpenBabel11052422123D

 25 29  0  0  1  0  0  0  0  0999 V2000
  162.1440  205.8270  151.4920 C   0  0  2  0  0  3  0  0  0  0  0  0
  160.8780  205.4590  150.7330 C   0  0  1  0  0  3  0  0  0  0  0  0
  161.1550  204.3990  153.2860 N   0  0  0  0  0  2  0  0  0  0  0  0
  162.1090  208.3480  151.8490 N   0  0  2  0  0  0  0  0  0  0  0  0
  162.6790  204.7900  147.5840 C   0  0  0  0  0  2  0  0  0  0  0  0
  160.1230  209.4440  152.3570 C   0  0  0  0  0  2  0  0  0  0  0  0
  161.2150  203.4900  152.2150 N   0  0  0  0  0  2  0  0  0  0  0  0
  161.7520  208.1630  153.2550 C   0  0  1  0  0  3  0  0  0  0  0  0
  160.7760  209.1380  153.5760 O   0  0  0  0  0  0  0  0  0  0  0  0
  160.4330  203.0260  149.9890 C   0  0  0  0  0  0  0  0  0  0  0  0
  159.9880  201.8680  150.1950 O   0  0  0  0  0  0  0  0  0  0  0  0
  161.3360  204.9080  146.8720 C   0  0  1  0  0  3  0  0  0  0  0  0
  160.8980  205.8180  149.2510 C   0  0  0  0  0  2  0  0  0  0  0  0
  160.8710  208.7570  151.2300 C   0  0  0  0  0  2  0  0  0  0  0  0
  161.9300  205.6190  152.9960 C   0  0  2  0  0  3  0  0  0  0  0  0
  161.1460  206.7870  153.5620 C   0  0  0  0  0  2  0  0  0  0  0  0
  160.9810  203.3380  148.7160 N   0  0  0  0  0  2  0  0  0  0  0  0
  162.7270  207.2050  151.1580 C   0  0  0  0  0  2  0  0  0  0  0  0
  161.4020  204.6750  148.3730 C   0  0  2  0  0  0  0  0  0  0  0  0
  160.4140  204.0200  151.1060 C   0  0  2  0  0  3  0  0  0  0  0  0
  161.1280  206.3640  146.4460 C   0  0  0  0  0  2  0  0  0  0  0  0
  160.5440  206.4240  145.1500 O   0  0  0  0  0  0  0  0  0  0  0  0
  160.7870  205.4510  144.1820 C   0  0  0  0  0  0  0  0  0  0  0  0
  160.0750  204.1410  144.2630 C   0  0  0  0  0  1  0  0  0  0  0  0
  161.5790  205.6620  143.2210 O   0  0  0  0  0  0  0  0  0  0  0  0
  1 18  1  1  0  0  0
  1 15  1  0  0  0  0
  2 13  1  6  0  0  0
  2 20  1  0  0  0  0
  2  1  1  0  0  0  0
  4 18  1  6  0  0  0
  4  8  1  0  0  0  0
  6  9  1  0  0  0  0
  7  3  1  0  0  0  0
  8 16  1  6  0  0  0
  8  9  1  0  0  0  0
 10 11  2  0  0  0  0
 12 21  1  1  0  0  0
 12  5  1  0  0  0  0
 12 19  1  0  0  0  0
 14  4  1  0  0  0  0
 14  6  1  0  0  0  0
 15  3  1  0  0  0  0
 15 16  1  6  0  0  0
 17 10  1  0  0  0  0
 19  5  1  1  0  0  0
 19 17  1  0  0  0  0
 19 13  1  0  0  0  0
 20 10  1  6  0  0  0
 20  7  1  0  0  0  0
 22 21  1  0  0  0  0
 23 24  1  0  0  0  0
 23 22  1  0  0  0  0
 25 23  2  0  0  0  0
M  END
>  <MODEL>
1

>  <REMARK>
 VINA RESULT:      -7.0      0.000      0.000
  Name = 
  3 active torsions:
  status: ('A' for Active; 'I' for Inactive)
    1  A    between atoms: C_2  and  O_21
    2  A    between atoms: C_15  and  C_25
    3  A    between atoms: O_21  and  C_25
                            x       y       z     vdW  Elec       q    Type
                         _______ _______ _______ _____ _____    ______ ____

>  <TORSDO>
F 3

$$$$
=
 OpenBabel11052422123D

 25 29  0  0  1  0  0  0  0  0999 V2000
  160.5640  205.6430  149.6050 C   0  0  2  0  0  3  0  0  0  0  0  0
  161.8450  206.0510  150.3160 C   0  0  1  0  0  3  0  0  0  0  0  0
  160.8890  203.4960  150.8370 N   0  0  0  0  0  2  0  0  0  0  0  0
  161.0500  205.6450  147.1060 N   0  0  2  0  0  0  0  0  0  0  0  0
  160.5590  209.3890  151.2190 C   0  0  0  0  0  2  0  0  0  0  0  0
  163.0900  204.8800  146.2950 C   0  0  0  0  0  2  0  0  0  0  0  0
  160.8420  204.4150  151.8990 N   0  0  0  0  0  2  0  0  0  0  0  0
  161.0950  204.1840  147.0940 C   0  0  1  0  0  3  0  0  0  0  0  0
  162.1740  203.8000  146.2600 O   0  0  0  0  0  0  0  0  0  0  0  0
  161.9100  206.3310  152.8830 C   0  0  0  0  0  0  0  0  0  0  0  0
  162.0620  205.8740  154.0450 O   0  0  0  0  0  0  0  0  0  0  0  0
  162.0050  209.8030  151.4640 C   0  0  1  0  0  3  0  0  0  0  0  0
  162.1740  207.5380  150.2310 C   0  0  0  0  0  2  0  0  0  0  0  0
  162.4380  206.0340  147.0340 C   0  0  0  0  0  2  0  0  0  0  0  0
  160.4490  204.1140  149.5730 C   0  0  2  0  0  3  0  0  0  0  0  0
  161.3380  203.5630  148.4760 C   0  0  0  0  0  2  0  0  0  0  0  0
  161.6830  207.7240  152.7150 N   0  0  0  0  0  2  0  0  0  0  0  0
  160.3480  206.2860  148.2300 C   0  0  0  0  0  2  0  0  0  0  0  0
  161.6160  208.3350  151.4090 C   0  0  2  0  0  0  0  0  0  0  0  0
  161.9260  205.3880  151.7230 C   0  0  2  0  0  3  0  0  0  0  0  0
  162.5830  210.3750  150.1660 C   0  0  0  0  0  2  0  0  0  0  0  0
  161.8560  211.5300  149.7660 O   0  0  0  0  0  0  0  0  0  0  0  0
  161.8640  211.9930  148.4510 C   0  0  0  0  0  0  0  0  0  0  0  0
  163.0550  212.7380  147.9420 C   0  0  0  0  0  1  0  0  0  0  0  0
  160.8960  211.7740  147.6690 O   0  0  0  0  0  0  0  0  0  0  0  0
  1 18  1  6  0  0  0
  1  2  1  0  0  0  0
  2 13  1  1  0  0  0
  2 20  1  0  0  0  0
  3  7  1  0  0  0  0
  4 14  1  1  0  0  0
  4 18  1  0  0  0  0
  5 19  1  0  0  0  0
  5 12  1  0  0  0  0
  6 14  1  0  0  0  0
  8  4  1  0  0  0  0
  8 16  1  1  0  0  0
  9  6  1  0  0  0  0
  9  8  1  0  0  0  0
 10 11  2  0  0  0  0
 12 21  1  6  0  0  0
 15 16  1  6  0  0  0
 15  1  1  0  0  0  0
 15  3  1  0  0  0  0
 17 10  1  0  0  0  0
 19 13  1  6  0  0  0
 19 12  1  0  0  0  0
 19 17  1  0  0  0  0
 20  7  1  1  0  0  0
 20 10  1  0  0  0  0
 22 21  1  0  0  0  0
 23 22  1  0  0  0  0
 24 23  1  0  0  0  0
 25 23  2  0  0  0  0
M  END
>  <MODEL>
2

>  <REMARK>
 VINA RESULT:      -6.6      2.573      5.840
  Name = 
  3 active torsions:
  status: ('A' for Active; 'I' for Inactive)
    1  A    between atoms: C_2  and  O_21
    2  A    between atoms: C_15  and  C_25
    3  A    between atoms: O_21  and  C_25
                            x       y       z     vdW  Elec       q    Type
                         _______ _______ _______ _____ _____    ______ ____

>  <TORSDO>
F 3

$$$$
=
 OpenBabel11052422123D

 25 29  0  0  1  0  0  0  0  0999 V2000
  161.5170  209.4030  153.7480 C   0  0  2  0  0  3  0  0  0  0  0  0
  160.5960  208.3430  153.1640 C   0  0  1  0  0  3  0  0  0  0  0  0
  160.8170  208.4160  155.9320 N   0  0  0  0  0  2  0  0  0  0  0  0
  160.5500  211.6750  153.1250 N   0  0  2  0  0  0  0  0  0  0  0  0
  162.9910  207.3760  150.5300 C   0  0  0  0  0  2  0  0  0  0  0  0
  158.2530  212.0300  153.1500 C   0  0  0  0  0  2  0  0  0  0  0  0
  161.3590  207.2920  155.2860 N   0  0  0  0  0  2  0  0  0  0  0  0
  160.0620  211.8620  154.4910 C   0  0  1  0  0  3  0  0  0  0  0  0
  158.7700  212.4360  154.4040 O   0  0  0  0  0  0  0  0  0  0  0  0
  161.1500  205.8310  153.3870 C   0  0  0  0  0  0  0  0  0  0  0  0
  161.1100  204.7370  154.0080 O   0  0  0  0  0  0  0  0  0  0  0  0
  161.8220  206.7200  149.8050 C   0  0  1  0  0  3  0  0  0  0  0  0
  160.7230  208.1500  151.6560 C   0  0  0  0  0  2  0  0  0  0  0  0
  159.3610  211.3400  152.3780 C   0  0  0  0  0  2  0  0  0  0  0  0
  161.1530  209.6600  155.2150 C   0  0  2  0  0  3  0  0  0  0  0  0
  159.9330  210.5560  155.2850 C   0  0  0  0  0  2  0  0  0  0  0  0
  161.7500  205.8700  152.0990 N   0  0  0  0  0  2  0  0  0  0  0  0
  161.6290  210.6930  152.9280 C   0  0  0  0  0  2  0  0  0  0  0  0
  161.7270  207.0600  151.2830 C   0  0  2  0  0  0  0  0  0  0  0  0
  160.6100  207.0590  154.0460 C   0  0  2  0  0  3  0  0  0  0  0  0
  161.1900  207.7430  148.8570 C   0  0  0  0  0  2  0  0  0  0  0  0
  161.6830  207.5650  147.5350 O   0  0  0  0  0  0  0  0  0  0  0  0
  161.4180  206.4160  146.7930 C   0  0  0  0  0  0  0  0  0  0  0  0
  162.5030  205.4110  146.5820 C   0  0  0  0  0  1  0  0  0  0  0  0
  160.2710  206.1910  146.3130 O   0  0  0  0  0  0  0  0  0  0  0  0
  1 18  1  6  0  0  0
  1 15  1  0  0  0  0
  2 13  1  6  0  0  0
  2  1  1  0  0  0  0
  2 20  1  0  0  0  0
  4 14  1  6  0  0  0
  4  8  1  0  0  0  0
  6  9  1  0  0  0  0
  7  3  1  0  0  0  0
  8 16  1  6  0  0  0
  9  8  1  0  0  0  0
 10 11  2  0  0  0  0
 12 21  1  6  0  0  0
 12  5  1  0  0  0  0
 12 19  1  0  0  0  0
 14  6  1  0  0  0  0
 15 16  1  6  0  0  0
 15  3  1  0  0  0  0
 17 10  1  0  0  0  0
 18  4  1  0  0  0  0
 19  5  1  1  0  0  0
 19 13  1  0  0  0  0
 19 17  1  0  0  0  0
 20 10  1  6  0  0  0
 20  7  1  0  0  0  0
 22 21  1  0  0  0  0
 23 22  1  0  0  0  0
 24 23  1  0  0  0  0
 25 23  2  0  0  0  0
M  END
>  <MODEL>
3

>  <REMARK>
 VINA RESULT:      -5.9      2.489      3.943
  Name = 
  3 active torsions:
  status: ('A' for Active; 'I' for Inactive)
    1  A    between atoms: C_2  and  O_21
    2  A    between atoms: C_15  and  C_25
    3  A    between atoms: O_21  and  C_25
                            x       y       z     vdW  Elec       q    Type
                         _______ _______ _______ _____ _____    ______ ____

>  <TORSDO>
F 3

$$$$
=
 OpenBabel11052422123D

 25 29  0  0  1  0  0  0  0  0999 V2000
  160.1040  209.5930  153.3140 C   0  0  2  0  0  3  0  0  0  0  0  0
  161.4890  209.3890  152.7200 C   0  0  1  0  0  3  0  0  0  0  0  0
  160.5450  211.9990  152.8130 N   0  0  0  0  0  2  0  0  0  0  0  0
  160.2090  208.8660  155.7520 N   0  0  2  0  0  0  0  0  0  0  0  0
  160.4560  206.4690  150.7150 C   0  0  0  0  0  2  0  0  0  0  0  0
  162.0800  209.3380  157.0490 C   0  0  0  0  0  2  0  0  0  0  0  0
  160.6860  211.4250  151.5380 N   0  0  0  0  0  2  0  0  0  0  0  0
  160.2080  210.2620  156.1880 C   0  0  1  0  0  3  0  0  0  0  0  0
  161.1370  210.3750  157.2510 O   0  0  0  0  0  0  0  0  0  0  0  0
  161.9470  209.8570  150.2220 C   0  0  0  0  0  0  0  0  0  0  0  0
  162.2580  210.6270  149.2770 O   0  0  0  0  0  0  0  0  0  0  0  0
  161.9350  206.1230  150.5850 C   0  0  1  0  0  3  0  0  0  0  0  0
  161.8470  207.9350  152.4250 C   0  0  0  0  0  2  0  0  0  0  0  0
  161.5830  208.4540  155.9200 C   0  0  0  0  0  2  0  0  0  0  0  0
  159.9390  211.0500  153.7640 C   0  0  2  0  0  3  0  0  0  0  0  0
  160.6360  211.2500  155.0960 C   0  0  0  0  0  2  0  0  0  0  0  0
  161.7410  208.4780  149.9470 N   0  0  0  0  0  2  0  0  0  0  0  0
  159.7050  208.5860  154.3980 C   0  0  0  0  0  2  0  0  0  0  0  0
  161.4980  207.5190  150.9980 C   0  0  2  0  0  0  0  0  0  0  0  0
  161.7610  210.4270  151.5910 C   0  0  2  0  0  3  0  0  0  0  0  0
  162.3280  205.1950  151.7380 C   0  0  0  0  0  2  0  0  0  0  0  0
  162.3310  203.8390  151.3050 O   0  0  0  0  0  0  0  0  0  0  0  0
  161.1880  203.0430  151.3540 C   0  0  0  0  0  0  0  0  0  0  0  0
  160.8310  202.1960  150.1770 C   0  0  0  0  0  1  0  0  0  0  0  0
  160.4570  203.0020  152.3850 O   0  0  0  0  0  0  0  0  0  0  0  0
  1 15  1  0  0  0  0
  1 18  1  1  0  0  0
  2 13  1  6  0  0  0
  2  1  1  0  0  0  0
  3 15  1  0  0  0  0
  4 18  1  6  0  0  0
  4 14  1  0  0  0  0
  4  8  1  0  0  0  0
  6  9  1  0  0  0  0
  7 20  1  0  0  0  0
  7  3  1  0  0  0  0
  8 16  1  6  0  0  0
  8  9  1  0  0  0  0
 11 10  2  0  0  0  0
 12  5  1  0  0  0  0
 12 19  1  0  0  0  0
 12 21  1  1  0  0  0
 14  6  1  0  0  0  0
 15 16  1  1  0  0  0
 17 10  1  0  0  0  0
 17 19  1  0  0  0  0
 19  5  1  1  0  0  0
 19 13  1  0  0  0  0
 20 10  1  6  0  0  0
 20  2  1  0  0  0  0
 22 23  1  0  0  0  0
 22 21  1  0  0  0  0
 23 25  2  0  0  0  0
 24 23  1  0  0  0  0
M  END
>  <MODEL>
4

>  <REMARK>
 VINA RESULT:      -5.0      3.805      5.914
  Name = 
  3 active torsions:
  status: ('A' for Active; 'I' for Inactive)
    1  A    between atoms: C_2  and  O_21
    2  A    between atoms: C_15  and  C_25
    3  A    between atoms: O_21  and  C_25
                            x       y       z     vdW  Elec       q    Type
                         _______ _______ _______ _____ _____    ______ ____

>  <TORSDO>
F 3

$$$$
=
 OpenBabel11052422123D

 25 29  0  0  1  0  0  0  0  0999 V2000
  161.2730  209.5500  154.6490 C   0  0  2  0  0  3  0  0  0  0  0  0
  160.4790  209.1320  153.4210 C   0  0  1  0  0  3  0  0  0  0  0  0
  160.5800  207.3160  155.5200 N   0  0  0  0  0  2  0  0  0  0  0  0
  160.1250  211.6000  155.6320 N   0  0  2  0  0  0  0  0  0  0  0  0
  163.0580  210.3080  151.0610 C   0  0  0  0  0  2  0  0  0  0  0  0
  157.8060  211.7500  155.6770 C   0  0  0  0  0  2  0  0  0  0  0  0
  161.2500  206.9520  154.3400 N   0  0  0  0  0  2  0  0  0  0  0  0
  159.5670  210.7900  156.7150 C   0  0  1  0  0  3  0  0  0  0  0  0
  158.2320  211.2170  156.9180 O   0  0  0  0  0  0  0  0  0  0  0  0
  161.2540  207.1610  151.9440 C   0  0  0  0  0  0  0  0  0  0  0  0
  161.2910  205.9360  151.6590 O   0  0  0  0  0  0  0  0  0  0  0  0
  161.9860  210.2710  149.9780 C   0  0  1  0  0  3  0  0  0  0  0  0
  160.6850  210.0190  152.1970 C   0  0  0  0  0  2  0  0  0  0  0  0
  159.0050  211.8130  154.7480 C   0  0  0  0  0  2  0  0  0  0  0  0
  160.8280  208.7280  155.8640 C   0  0  2  0  0  3  0  0  0  0  0  0
  159.5280  209.2880  156.4060 C   0  0  0  0  0  2  0  0  0  0  0  0
  161.8990  208.0880  151.0810 N   0  0  0  0  0  2  0  0  0  0  0  0
  161.2980  211.0580  154.9270 C   0  0  0  0  0  2  0  0  0  0  0  0
  161.7990  209.5140  151.2830 C   0  0  2  0  0  0  0  0  0  0  0  0
  160.5760  207.5930  153.2040 C   0  0  2  0  0  3  0  0  0  0  0  0
  161.3000  211.6390  149.9140 C   0  0  0  0  0  2  0  0  0  0  0  0
  161.3460  212.1550  148.5890 O   0  0  0  0  0  0  0  0  0  0  0  0
  162.3770  212.9860  148.1520 C   0  0  0  0  0  0  0  0  0  0  0  0
  162.1270  214.4520  148.0080 C   0  0  0  0  0  1  0  0  0  0  0  0
  163.5270  212.5300  147.8980 O   0  0  0  0  0  0  0  0  0  0  0  0
  1 18  1  1  0  0  0
  1 15  1  0  0  0  0
  2 13  1  6  0  0  0
  2  1  1  0  0  0  0
  3 15  1  0  0  0  0
  4 14  1  6  0  0  0
  4  8  1  0  0  0  0
  6  9  1  0  0  0  0
  7  3  1  0  0  0  0
  8 16  1  6  0  0  0
  8  9  1  0  0  0  0
 11 10  2  0  0  0  0
 12 21  1  1  0  0  0
 12  5  1  0  0  0  0
 12 19  1  0  0  0  0
 14  6  1  0  0  0  0
 15 16  1  6  0  0  0
 17 19  1  0  0  0  0
 17 10  1  0  0  0  0
 18  4  1  0  0  0  0
 19  5  1  1  0  0  0
 19 13  1  0  0  0  0
 20 10  1  6  0  0  0
 20  2  1  0  0  0  0
 20  7  1  0  0  0  0
 22 21  1  0  0  0  0
 23 22  1  0  0  0  0
 24 23  1  0  0  0  0
 25 23  2  0  0  0  0
M  END
>  <MODEL>
5

>  <REMARK>
 VINA RESULT:      -4.9      4.455      5.831
  Name = 
  3 active torsions:
  status: ('A' for Active; 'I' for Inactive)
    1  A    between atoms: C_2  and  O_21
    2  A    between atoms: C_15  and  C_25
    3  A    between atoms: O_21  and  C_25
                            x       y       z     vdW  Elec       q    Type
                         _______ _______ _______ _____ _____    ______ ____

>  <TORSDO>
F 3

$$$$
=
 OpenBabel11052422123D

 25 29  0  0  1  0  0  0  0  0999 V2000
  160.7410  206.9610  148.9640 C   0  0  2  0  0  3  0  0  0  0  0  0
  162.0390  207.5680  149.4750 C   0  0  1  0  0  3  0  0  0  0  0  0
  160.9510  205.5030  150.9810 N   0  0  0  0  0  2  0  0  0  0  0  0
  161.2360  205.9070  146.7000 N   0  0  2  0  0  0  0  0  0  0  0  0
  160.9230  211.0350  148.8860 C   0  0  0  0  0  2  0  0  0  0  0  0
  163.2370  204.7830  146.3290 C   0  0  0  0  0  2  0  0  0  0  0  0
  160.9470  206.7810  151.5670 N   0  0  0  0  0  2  0  0  0  0  0  0
  161.2060  204.5710  147.2940 C   0  0  1  0  0  3  0  0  0  0  0  0
  162.2670  203.8270  146.7200 O   0  0  0  0  0  0  0  0  0  0  0  0
  162.1080  208.8820  151.6970 C   0  0  0  0  0  0  0  0  0  0  0  0
  162.2320  208.9400  152.9480 O   0  0  0  0  0  0  0  0  0  0  0  0
  162.3880  211.4480  148.9740 C   0  0  1  0  0  3  0  0  0  0  0  0
  162.4450  208.8700  148.7910 C   0  0  0  0  0  2  0  0  0  0  0  0
  162.6430  206.1670  146.5090 C   0  0  0  0  0  2  0  0  0  0  0  0
  160.5480  205.5630  149.5640 C   0  0  2  0  0  3  0  0  0  0  0  0
  161.4110  204.5670  148.8150 C   0  0  0  0  0  2  0  0  0  0  0  0
  161.9540  210.0890  150.9640 N   0  0  0  0  0  2  0  0  0  0  0  0
  160.5640  206.9860  147.4420 C   0  0  0  0  0  2  0  0  0  0  0  0
  161.9240  210.1070  149.5210 C   0  0  2  0  0  0  0  0  0  0  0  0
  162.0800  207.5440  151.0310 C   0  0  2  0  0  3  0  0  0  0  0  0
  162.9990  211.4030  147.5700 C   0  0  0  0  0  2  0  0  0  0  0  0
  163.1950  212.7220  147.0730 O   0  0  0  0  0  0  0  0  0  0  0  0
  162.3340  213.3000  146.1420 C   0  0  0  0  0  0  0  0  0  0  0  0
  162.7220  213.3270  144.7000 C   0  0  0  0  0  1  0  0  0  0  0  0
  161.2170  213.7790  146.4880 O   0  0  0  0  0  0  0  0  0  0  0  0
  1 18  1  6  0  0  0
  1  2  1  0  0  0  0
  1 15  1  0  0  0  0
  2 13  1  1  0  0  0
  2 20  1  0  0  0  0
  3  7  1  0  0  0  0
  4 14  1  1  0  0  0
  4  8  1  0  0  0  0
  4 18  1  0  0  0  0
  5 12  1  0  0  0  0
  5 19  1  0  0  0  0
  6 14  1  0  0  0  0
  6  9  1  0  0  0  0
  8 16  1  1  0  0  0
  9  8  1  0  0  0  0
 10 11  2  0  0  0  0
 12 21  1  6  0  0  0
 12 19  1  0  0  0  0
 15 16  1  6  0  0  0
 15  3  1  0  0  0  0
 17 10  1  0  0  0  0
 19 13  1  6  0  0  0
 19 17  1  0  0  0  0
 20  7  1  1  0  0  0
 20 10  1  0  0  0  0
 22 21  1  0  0  0  0
 23 25  2  0  0  0  0
 23 22  1  0  0  0  0
 24 23  1  0  0  0  0
M  END
>  <MODEL>
6

>  <REMARK>
 VINA RESULT:      -4.9      3.615      6.245
  Name = 
  3 active torsions:
  status: ('A' for Active; 'I' for Inactive)
    1  A    between atoms: C_2  and  O_21
    2  A    between atoms: C_15  and  C_25
    3  A    between atoms: O_21  and  C_25
                            x       y       z     vdW  Elec       q    Type
                         _______ _______ _______ _____ _____    ______ ____

>  <TORSDO>
F 3

$$$$
=
 OpenBabel11052422123D

 25 29  0  0  1  0  0  0  0  0999 V2000
  161.4600  209.0020  153.9130 C   0  0  2  0  0  3  0  0  0  0  0  0
  160.5850  208.0860  153.0710 C   0  0  1  0  0  3  0  0  0  0  0  0
  160.7070  207.5400  155.7920 N   0  0  0  0  0  2  0  0  0  0  0  0
  160.4610  211.3400  153.7750 N   0  0  2  0  0  0  0  0  0  0  0  0
  163.0950  207.7700  150.3850 C   0  0  0  0  0  2  0  0  0  0  0  0
  158.1570  211.6460  153.7860 C   0  0  0  0  0  2  0  0  0  0  0  0
  161.2980  206.5970  154.9330 N   0  0  0  0  0  2  0  0  0  0  0  0
  159.9200  211.2090  155.1280 C   0  0  1  0  0  3  0  0  0  0  0  0
  158.6190  211.7690  155.1200 O   0  0  0  0  0  0  0  0  0  0  0  0
  161.1920  205.5960  152.7500 C   0  0  0  0  0  0  0  0  0  0  0  0
  161.1550  204.3910  153.1090 O   0  0  0  0  0  0  0  0  0  0  0  0
  161.9690  207.2750  149.4860 C   0  0  1  0  0  3  0  0  0  0  0  0
  160.7710  208.2370  151.5640 C   0  0  0  0  0  2  0  0  0  0  0  0
  159.3080  211.1630  152.9250 C   0  0  0  0  0  2  0  0  0  0  0  0
  161.0380  208.9180  155.3850 C   0  0  2  0  0  3  0  0  0  0  0  0
  159.7950  209.7570  155.6040 C   0  0  0  0  0  2  0  0  0  0  0  0
  161.8350  205.9320  151.5280 N   0  0  0  0  0  2  0  0  0  0  0  0
  161.5700  210.4450  153.4070 C   0  0  0  0  0  2  0  0  0  0  0  0
  161.8130  207.2740  150.9980 C   0  0  2  0  0  0  0  0  0  0  0  0
  160.5990  206.6370  153.6430 C   0  0  2  0  0  3  0  0  0  0  0  0
  161.3470  208.4750  148.7660 C   0  0  0  0  0  2  0  0  0  0  0  0
  162.3400  209.4540  148.4840 O   0  0  0  0  0  0  0  0  0  0  0  0
  162.1050  210.8180  148.6520 C   0  0  0  0  0  0  0  0  0  0  0  0
  161.8050  211.3490  150.0150 C   0  0  0  0  0  1  0  0  0  0  0  0
  162.1660  211.6210  147.6780 O   0  0  0  0  0  0  0  0  0  0  0  0
  1 18  1  6  0  0  0
  1 15  1  0  0  0  0
  2 13  1  6  0  0  0
  2 20  1  0  0  0  0
  2  1  1  0  0  0  0
  4 14  1  6  0  0  0
  4  8  1  0  0  0  0
  6  9  1  0  0  0  0
  7  3  1  0  0  0  0
  8 16  1  6  0  0  0
  9  8  1  0  0  0  0
 10 11  2  0  0  0  0
 12 21  1  6  0  0  0
 12  5  1  0  0  0  0
 12 19  1  0  0  0  0
 14  6  1  0  0  0  0
 15 16  1  6  0  0  0
 15  3  1  0  0  0  0
 17 10  1  0  0  0  0
 18  4  1  0  0  0  0
 19  5  1  1  0  0  0
 19 17  1  0  0  0  0
 19 13  1  0  0  0  0
 20 10  1  6  0  0  0
 20  7  1  0  0  0  0
 22 23  1  0  0  0  0
 22 21  1  0  0  0  0
 23 24  1  0  0  0  0
 25 23  2  0  0  0  0
M  END
>  <MODEL>
7

>  <REMARK>
 VINA RESULT:      -4.9      3.343      4.564
  Name = 
  3 active torsions:
  status: ('A' for Active; 'I' for Inactive)
    1  A    between atoms: C_2  and  O_21
    2  A    between atoms: C_15  and  C_25
    3  A    between atoms: O_21  and  C_25
                            x       y       z     vdW  Elec       q    Type
                         _______ _______ _______ _____ _____    ______ ____

>  <TORSDO>
F 3

$$$$
=
 OpenBabel11052422123D

 25 29  0  0  1  0  0  0  0  0999 V2000
  160.9110  212.0520  139.6690 C   0  0  2  0  0  3  0  0  0  0  0  0
  160.2750  210.7020  139.9620 C   0  0  1  0  0  3  0  0  0  0  0  0
  163.0500  210.8080  140.0010 N   0  0  0  0  0  2  0  0  0  0  0  0
  160.1860  213.6490  141.5150 N   0  0  2  0  0  0  0  0  0  0  0  0
  157.8410  210.9860  137.2040 C   0  0  0  0  0  2  0  0  0  0  0  0
  160.0330  212.9210  143.7180 C   0  0  0  0  0  2  0  0  0  0  0  0
  162.4620  210.0660  138.9610 N   0  0  0  0  0  2  0  0  0  0  0  0
  161.5090  213.5640  142.1330 C   0  0  1  0  0  3  0  0  0  0  0  0
  161.3180  213.4910  143.5350 O   0  0  0  0  0  0  0  0  0  0  0  0
  160.5740  208.7110  138.3440 C   0  0  0  0  0  0  0  0  0  0  0  0
  161.2060  207.7060  137.9280 O   0  0  0  0  0  0  0  0  0  0  0  0
  157.0400  209.8860  137.8900 C   0  0  1  0  0  3  0  0  0  0  0  0
  158.7840  210.6200  139.6510 C   0  0  0  0  0  2  0  0  0  0  0  0
  159.3560  212.8270  142.3630 C   0  0  0  0  0  2  0  0  0  0  0  0
  162.3430  212.0830  140.2160 C   0  0  2  0  0  3  0  0  0  0  0  0
  162.3090  212.3260  141.7120 C   0  0  0  0  0  2  0  0  0  0  0  0
  159.3340  209.0460  137.7360 N   0  0  0  0  0  2  0  0  0  0  0  0
  160.0830  213.2690  140.0970 C   0  0  0  0  0  2  0  0  0  0  0  0
  158.5020  210.1140  138.2380 C   0  0  2  0  0  0  0  0  0  0  0  0
  161.1730  209.5460  139.4310 C   0  0  2  0  0  3  0  0  0  0  0  0
  156.0340  210.5310  138.8480 C   0  0  0  0  0  2  0  0  0  0  0  0
  155.3160  209.5300  139.5600 O   0  0  0  0  0  0  0  0  0  0  0  0
  153.9290  209.4130  139.4790 C   0  0  0  0  0  0  0  0  0  0  0  0
  153.2150  209.9530  138.2840 C   0  0  0  0  0  1  0  0  0  0  0  0
  153.2630  208.8360  140.3850 O   0  0  0  0  0  0  0  0  0  0  0  0
  1  2  1  0  0  0  0
  1 18  1  1  0  0  0
  1 15  1  0  0  0  0
  2 13  1  6  0  0  0
  3 15  1  0  0  0  0
  4 18  1  6  0  0  0
  4  8  1  0  0  0  0
  4 14  1  0  0  0  0
  5 12  1  0  0  0  0
  7 20  1  0  0  0  0
  7  3  1  0  0  0  0
  8 16  1  6  0  0  0
  8  9  1  0  0  0  0
  9  6  1  0  0  0  0
 11 10  2  0  0  0  0
 12 19  1  0  0  0  0
 12 21  1  1  0  0  0
 14  6  1  0  0  0  0
 15 16  1  1  0  0  0
 17 19  1  0  0  0  0
 17 10  1  0  0  0  0
 19  5  1  6  0  0  0
 19 13  1  0  0  0  0
 20 10  1  6  0  0  0
 20  2  1  0  0  0  0
 21 22  1  0  0  0  0
 23 22  1  0  0  0  0
 23 25  2  0  0  0  0
 24 23  1  0  0  0  0
M  END
>  <MODEL>
8

>  <REMARK>
 VINA RESULT:      -4.9     10.421     11.990
  Name = 
  3 active torsions:
  status: ('A' for Active; 'I' for Inactive)
    1  A    between atoms: C_2  and  O_21
    2  A    between atoms: C_15  and  C_25
    3  A    between atoms: O_21  and  C_25
                            x       y       z     vdW  Elec       q    Type
                         _______ _______ _______ _____ _____    ______ ____

>  <TORSDO>
F 3

$$$$
=
 OpenBabel11052422123D

 25 29  0  0  1  0  0  0  0  0999 V2000
  160.0030  210.3960  152.4420 C   0  0  2  0  0  3  0  0  0  0  0  0
  161.4330  210.3550  151.9260 C   0  0  1  0  0  3  0  0  0  0  0  0
  160.1350  212.8080  151.8120 N   0  0  0  0  0  2  0  0  0  0  0  0
  160.0760  209.8270  154.9230 N   0  0  2  0  0  0  0  0  0  0  0  0
  160.9200  207.2120  150.0630 C   0  0  0  0  0  2  0  0  0  0  0  0
  161.7920  210.6290  156.2720 C   0  0  0  0  0  2  0  0  0  0  0  0
  160.4220  212.1890  150.5830 N   0  0  0  0  0  2  0  0  0  0  0  0
  159.8600  211.2310  155.2700 C   0  0  1  0  0  3  0  0  0  0  0  0
  160.7050  211.5330  156.3660 O   0  0  0  0  0  0  0  0  0  0  0  0
  161.9560  210.7430  149.4270 C   0  0  0  0  0  0  0  0  0  0  0  0
  162.2080  211.4950  148.4500 O   0  0  0  0  0  0  0  0  0  0  0  0
  162.4370  207.0700  150.0230 C   0  0  1  0  0  3  0  0  0  0  0  0
  162.0030  208.9520  151.7400 C   0  0  0  0  0  2  0  0  0  0  0  0
  161.4820  209.6220  155.1790 C   0  0  0  0  0  2  0  0  0  0  0  0
  159.6160  211.8370  152.7920 C   0  0  2  0  0  3  0  0  0  0  0  0
  160.2060  212.2080  154.1390 C   0  0  0  0  0  2  0  0  0  0  0  0
  161.9560  209.3350  149.2300 N   0  0  0  0  0  2  0  0  0  0  0  0
  159.6880  209.4040  153.5680 C   0  0  0  0  0  2  0  0  0  0  0  0
  161.7910  208.4120  150.3270 C   0  0  2  0  0  0  0  0  0  0  0  0
  161.6190  211.3560  150.7480 C   0  0  2  0  0  3  0  0  0  0  0  0
  162.8920  206.2720  151.2480 C   0  0  0  0  0  2  0  0  0  0  0  0
  162.2040  205.0290  151.3140 O   0  0  0  0  0  0  0  0  0  0  0  0
  161.3640  204.7010  152.3770 C   0  0  0  0  0  0  0  0  0  0  0  0
  161.2060  205.6610  153.5100 C   0  0  0  0  0  1  0  0  0  0  0  0
  160.7120  203.6190  152.3920 O   0  0  0  0  0  0  0  0  0  0  0  0
  1 15  1  0  0  0  0
  1 18  1  1  0  0  0
  2 13  1  6  0  0  0
  2  1  1  0  0  0  0
  3 15  1  0  0  0  0
  4 18  1  6  0  0  0
  4 14  1  0  0  0  0
  4  8  1  0  0  0  0
  6  9  1  0  0  0  0
  7 20  1  0  0  0  0
  7  3  1  0  0  0  0
  8 16  1  6  0  0  0
  8  9  1  0  0  0  0
 11 10  2  0  0  0  0
 12  5  1  0  0  0  0
 12 19  1  0  0  0  0
 12 21  1  1  0  0  0
 14  6  1  0  0  0  0
 15 16  1  1  0  0  0
 17 10  1  0  0  0  0
 17 19  1  0  0  0  0
 19  5  1  6  0  0  0
 19 13  1  0  0  0  0
 20 10  1  6  0  0  0
 20  2  1  0  0  0  0
 21 22  1  0  0  0  0
 22 23  1  0  0  0  0
 23 25  2  0  0  0  0
 23 24  1  0  0  0  0
M  END
>  <MODEL>
9

>  <REMARK>
 VINA RESULT:      -4.9      4.023      6.383
  Name = 
  3 active torsions:
  status: ('A' for Active; 'I' for Inactive)
    1  A    between atoms: C_2  and  O_21
    2  A    between atoms: C_15  and  C_25
    3  A    between atoms: O_21  and  C_25
                            x       y       z     vdW  Elec       q    Type
                         _______ _______ _______ _____ _____    ______ ____

>  <TORSDO>
F 3

$$$$
