=
 OpenBabel11052423093D

 27 31  0  0  1  0  0  0  0  0999 V2000
  161.8680  210.7070  154.0890 C   0  0  0  0  0  2  0  0  0  0  0  0
  159.9740  210.9780  152.4340 C   0  0  1  0  0  3  0  0  0  0  0  0
  158.6080  210.9930  154.7030 C   0  0  0  0  0  2  0  0  0  0  0  0
  157.4010  214.0530  151.2300 O   0  0  0  0  0  0  0  0  0  0  0  0
  155.0950  214.3460  152.0100 C   0  0  0  0  0  1  0  0  0  0  0  0
  160.6660  212.1450  151.6960 C   0  0  0  0  0  2  0  0  0  0  0  0
  156.8080  212.9490  153.1660 C   0  0  0  0  0  0  0  0  0  0  0  0
  159.2730  214.0930  156.7820 C   0  0  0  0  0  3  0  0  0  0  0  0
  156.1290  212.6600  154.1880 O   0  0  0  0  0  0  0  0  0  0  0  0
  160.5620  213.8490  157.2610 C   0  0  0  0  0  3  0  0  0  0  0  0
  157.9650  212.2840  152.6830 C   0  0  0  0  0  0  0  0  0  0  0  0
  160.9290  210.1170  153.1360 N   0  0  0  0  0  0  0  0  0  0  0  0
  156.4730  213.9430  152.2280 N   0  0  0  0  0  0  0  0  0  0  0  0
  158.2250  212.8950  151.3470 C   0  0  2  0  0  3  0  0  0  0  0  0
  161.4480  210.1760  155.7760 S   0  0  0  0  0  0  0  0  0  0  0  0
  158.7970  211.4210  153.2740 C   0  0  0  0  0  0  0  0  0  0  0  0
  158.6400  213.1490  155.9710 C   0  0  0  0  0  3  0  0  0  0  0  0
  159.7080  213.2740  151.2500 C   0  0  0  0  0  2  0  0  0  0  0  0
  161.2140  212.6580  156.9340 C   0  0  0  0  0  3  0  0  0  0  0  0
  160.5820  211.7040  156.1280 C   0  0  0  0  0  0  0  0  0  0  0  0
  159.2850  211.9510  155.6370 C   0  0  0  0  0  0  0  0  0  0  0  0
  161.1170  205.9740  152.1800 C   0  0  0  0  0  3  0  0  0  0  0  0
  160.9910  208.7100  152.8130 C   0  0  0  0  0  0  0  0  0  0  0  0
  161.1740  208.2910  151.4840 C   0  0  0  0  0  3  0  0  0  0  0  0
  161.2360  206.9300  151.1690 C   0  0  0  0  0  3  0  0  0  0  0  0
  160.9370  206.3770  153.5050 C   0  0  0  0  0  3  0  0  0  0  0  0
  160.8750  207.7360  153.8200 C   0  0  0  0  0  3  0  0  0  0  0  0
  1 15  1  0  0  0  0
  2  6  1  1  0  0  0
  2 12  1  0  0  0  0
  2 16  1  0  0  0  0
  3 21  1  0  0  0  0
  4 14  1  0  0  0  0
  4 13  1  0  0  0  0
  5 13  1  0  0  0  0
  7  9  2  0  0  0  0
  8 10  1  0  0  0  0
 11  7  1  0  0  0  0
 11 16  2  0  0  0  0
 12  1  1  0  0  0  0
 13  7  1  0  0  0  0
 14 18  1  1  0  0  0
 14 11  1  0  0  0  0
 15 20  1  0  0  0  0
 16  3  1  0  0  0  0
 17  8  2  0  0  0  0
 18  6  1  0  0  0  0
 19 10  2  0  0  0  0
 20 19  1  0  0  0  0
 21 17  1  0  0  0  0
 21 20  2  0  0  0  0
 22 26  1  0  0  0  0
 23 12  1  0  0  0  0
 23 27  1  0  0  0  0
 24 23  2  0  0  0  0
 25 24  1  0  0  0  0
 25 22  2  0  0  0  0
 26 27  2  0  0  0  0
M  END
>  <MODEL>
1

>  <REMARK>
 VINA RESULT:      -5.6      0.000      0.000
  Name = 
  1 active torsions:
  status: ('A' for Active; 'I' for Inactive)
    1  A    between atoms: C_9  and  N_15
                            x       y       z     vdW  Elec       q    Type
                         _______ _______ _______ _____ _____    ______ ____

>  <TORSDO>
F 1

$$$$
=
 OpenBabel11052423093D

 27 31  0  0  1  0  0  0  0  0999 V2000
  160.4360  208.1940  153.2230 C   0  0  0  0  0  2  0  0  0  0  0  0
  160.7220  210.6650  152.7660 C   0  0  1  0  0  3  0  0  0  0  0  0
  162.5680  209.6800  151.1420 C   0  0  0  0  0  2  0  0  0  0  0  0
  159.8320  213.3050  149.6400 O   0  0  0  0  0  0  0  0  0  0  0  0
  161.4340  214.0840  147.9550 C   0  0  0  0  0  1  0  0  0  0  0  0
  159.2140  210.8860  152.5190 C   0  0  0  0  0  2  0  0  0  0  0  0
  161.7650  212.0720  149.3920 C   0  0  0  0  0  0  0  0  0  0  0  0
  161.0740  207.7530  148.2380 C   0  0  0  0  0  3  0  0  0  0  0  0
  162.8270  211.6530  148.8560 O   0  0  0  0  0  0  0  0  0  0  0  0
  160.6320  206.5840  148.8630 C   0  0  0  0  0  3  0  0  0  0  0  0
  161.2530  211.7320  150.6720 C   0  0  0  0  0  0  0  0  0  0  0  0
  160.9850  209.4940  153.6050 N   0  0  0  0  0  0  0  0  0  0  0  0
  160.9240  213.0640  148.8540 N   0  0  0  0  0  0  0  0  0  0  0  0
  160.1100  212.6660  150.8850 C   0  0  2  0  0  3  0  0  0  0  0  0
  161.7830  207.0790  152.7240 S   0  0  0  0  0  0  0  0  0  0  0  0
  161.5460  210.7230  151.4980 C   0  0  0  0  0  0  0  0  0  0  0  0
  161.7210  208.7410  148.9840 C   0  0  0  0  0  3  0  0  0  0  0  0
  158.8930  211.8670  151.3670 C   0  0  0  0  0  2  0  0  0  0  0  0
  160.8440  206.4020  150.2310 C   0  0  0  0  0  3  0  0  0  0  0  0
  161.4990  207.3850  150.9830 C   0  0  0  0  0  0  0  0  0  0  0  0
  161.9380  208.5680  150.3560 C   0  0  0  0  0  0  0  0  0  0  0  0
  163.1130  209.9720  157.2600 C   0  0  0  0  0  3  0  0  0  0  0  0
  161.7070  209.6540  154.8460 C   0  0  0  0  0  0  0  0  0  0  0  0
  162.6520  210.6840  154.9940 C   0  0  0  0  0  3  0  0  0  0  0  0
  163.3510  210.8420  156.1940 C   0  0  0  0  0  3  0  0  0  0  0  0
  162.1750  208.9460  157.1280 C   0  0  0  0  0  3  0  0  0  0  0  0
  161.4760  208.7870  155.9280 C   0  0  0  0  0  3  0  0  0  0  0  0
  1 12  1  0  0  0  0
  2  6  1  6  0  0  0
  2 12  1  0  0  0  0
  3 16  1  0  0  0  0
  4 14  1  0  0  0  0
  5 13  1  0  0  0  0
  7 11  1  0  0  0  0
  8 10  2  0  0  0  0
  8 17  1  0  0  0  0
  9  7  2  0  0  0  0
 10 19  1  0  0  0  0
 11 14  1  0  0  0  0
 11 16  2  0  0  0  0
 12 23  1  0  0  0  0
 13  7  1  0  0  0  0
 13  4  1  0  0  0  0
 14 18  1  6  0  0  0
 15  1  1  0  0  0  0
 16  2  1  0  0  0  0
 17 21  2  0  0  0  0
 18  6  1  0  0  0  0
 19 20  2  0  0  0  0
 20 15  1  0  0  0  0
 21 20  1  0  0  0  0
 21  3  1  0  0  0  0
 23 24  2  0  0  0  0
 23 27  1  0  0  0  0
 24 25  1  0  0  0  0
 25 22  2  0  0  0  0
 26 22  1  0  0  0  0
 27 26  2  0  0  0  0
M  END
>  <MODEL>
2

>  <REMARK>
 VINA RESULT:      -5.3      2.964      5.920
  Name = 
  1 active torsions:
  status: ('A' for Active; 'I' for Inactive)
    1  A    between atoms: C_9  and  N_15
                            x       y       z     vdW  Elec       q    Type
                         _______ _______ _______ _____ _____    ______ ____

>  <TORSDO>
F 1

$$$$
=
 OpenBabel11052423093D

 27 31  0  0  1  0  0  0  0  0999 V2000
  162.2610  209.9030  153.4680 C   0  0  0  0  0  2  0  0  0  0  0  0
  160.2350  210.5820  152.1150 C   0  0  1  0  0  3  0  0  0  0  0  0
  159.1210  210.3010  154.5010 C   0  0  0  0  0  2  0  0  0  0  0  0
  157.8280  213.9860  151.7400 O   0  0  0  0  0  0  0  0  0  0  0  0
  155.6500  214.2980  152.8240 C   0  0  0  0  0  1  0  0  0  0  0  0
  160.9450  211.8080  151.5000 C   0  0  0  0  0  2  0  0  0  0  0  0
  157.3470  212.6100  153.5270 C   0  0  0  0  0  0  0  0  0  0  0  0
  160.2690  212.9460  156.9640 C   0  0  0  0  0  3  0  0  0  0  0  0
  156.7570  212.1960  154.5610 O   0  0  0  0  0  0  0  0  0  0  0  0
  161.5750  212.5370  157.2410 C   0  0  0  0  0  3  0  0  0  0  0  0
  158.3850  211.9600  152.8090 C   0  0  0  0  0  0  0  0  0  0  0  0
  161.1800  209.5500  152.5490 N   0  0  0  0  0  0  0  0  0  0  0  0
  157.0030  213.7710  152.8090 N   0  0  0  0  0  0  0  0  0  0  0  0
  158.5550  212.7710  151.5680 C   0  0  2  0  0  3  0  0  0  0  0  0
  161.9760  209.1200  155.0840 S   0  0  0  0  0  0  0  0  0  0  0  0
  159.1960  210.9530  153.1490 C   0  0  0  0  0  0  0  0  0  0  0  0
  159.4740  212.2000  156.0910 C   0  0  0  0  0  3  0  0  0  0  0  0
  160.0470  213.0600  151.3600 C   0  0  0  0  0  2  0  0  0  0  0  0
  162.0830  211.3770  156.6500 C   0  0  0  0  0  3  0  0  0  0  0  0
  161.2890  210.6210  155.7800 C   0  0  0  0  0  0  0  0  0  0  0  0
  159.9740  211.0370  155.4920 C   0  0  0  0  0  0  0  0  0  0  0  0
  160.8980  205.6260  150.9270 C   0  0  0  0  0  3  0  0  0  0  0  0
  161.0850  208.2190  151.9970 C   0  0  0  0  0  0  0  0  0  0  0  0
  160.9980  207.1000  152.8430 C   0  0  0  0  0  3  0  0  0  0  0  0
  160.9050  205.8110  152.3110 C   0  0  0  0  0  3  0  0  0  0  0  0
  160.9820  206.7290  150.0740 C   0  0  0  0  0  3  0  0  0  0  0  0
  161.0750  208.0180  150.6060 C   0  0  0  0  0  3  0  0  0  0  0  0
  1 15  1  0  0  0  0
  2  6  1  1  0  0  0
  2 12  1  0  0  0  0
  2 16  1  0  0  0  0
  3 21  1  0  0  0  0
  4 13  1  0  0  0  0
  7  9  2  0  0  0  0
  8 10  1  0  0  0  0
 11 16  2  0  0  0  0
 11  7  1  0  0  0  0
 12  1  1  0  0  0  0
 13  5  1  0  0  0  0
 13  7  1  0  0  0  0
 14 18  1  1  0  0  0
 14  4  1  0  0  0  0
 14 11  1  0  0  0  0
 15 20  1  0  0  0  0
 16  3  1  0  0  0  0
 17  8  2  0  0  0  0
 18  6  1  0  0  0  0
 19 10  2  0  0  0  0
 20 19  1  0  0  0  0
 21 20  2  0  0  0  0
 21 17  1  0  0  0  0
 22 25  1  0  0  0  0
 23 12  1  0  0  0  0
 23 24  1  0  0  0  0
 25 24  2  0  0  0  0
 26 27  1  0  0  0  0
 26 22  2  0  0  0  0
 27 23  2  0  0  0  0
M  END
>  <MODEL>
3

>  <REMARK>
 VINA RESULT:      -4.7      0.898      1.398
  Name = 
  1 active torsions:
  status: ('A' for Active; 'I' for Inactive)
    1  A    between atoms: C_9  and  N_15
                            x       y       z     vdW  Elec       q    Type
                         _______ _______ _______ _____ _____    ______ ____

>  <TORSDO>
F 1

$$$$
=
 OpenBabel11052423093D

 27 31  0  0  1  0  0  0  0  0999 V2000
  162.4910  207.0970  153.6430 C   0  0  0  0  0  2  0  0  0  0  0  0
  161.4190  208.4580  151.8000 C   0  0  1  0  0  3  0  0  0  0  0  0
  159.6120  208.7680  153.7120 C   0  0  0  0  0  2  0  0  0  0  0  0
  160.7920  212.5170  150.9860 O   0  0  0  0  0  0  0  0  0  0  0  0
  158.6970  213.7270  151.3870 C   0  0  0  0  0  1  0  0  0  0  0  0
  162.7060  209.2660  151.5250 C   0  0  0  0  0  2  0  0  0  0  0  0
  159.2850  211.5400  152.4330 C   0  0  0  0  0  0  0  0  0  0  0  0
  160.8970  210.8570  156.6040 C   0  0  0  0  0  3  0  0  0  0  0  0
  158.2940  211.4500  153.2070 O   0  0  0  0  0  0  0  0  0  0  0  0
  161.7820  209.9750  157.2280 C   0  0  0  0  0  3  0  0  0  0  0  0
  160.1480  210.4940  152.0110 C   0  0  0  0  0  0  0  0  0  0  0  0
  161.6970  207.1590  152.4170 N   0  0  0  0  0  0  0  0  0  0  0  0
  159.6660  212.7030  151.7380 N   0  0  0  0  0  0  0  0  0  0  0  0
  160.9950  211.1060  150.9470 C   0  0  2  0  0  3  0  0  0  0  0  0
  161.4410  206.5770  155.0320 S   0  0  0  0  0  0  0  0  0  0  0  0
  160.3480  209.2660  152.5000 C   0  0  0  0  0  0  0  0  0  0  0  0
  160.1810  210.4470  155.4770 C   0  0  0  0  0  3  0  0  0  0  0  0
  162.4660  210.7630  151.2190 C   0  0  0  0  0  2  0  0  0  0  0  0
  161.9450  208.6800  156.7280 C   0  0  0  0  0  3  0  0  0  0  0  0
  161.2250  208.2610  155.6040 C   0  0  0  0  0  0  0  0  0  0  0  0
  160.3380  209.1520  154.9680 C   0  0  0  0  0  0  0  0  0  0  0  0
  160.4070  203.5980  150.4750 C   0  0  0  0  0  3  0  0  0  0  0  0
  161.2580  205.9500  151.7600 C   0  0  0  0  0  0  0  0  0  0  0  0
  160.8790  205.9710  150.4060 C   0  0  0  0  0  3  0  0  0  0  0  0
  160.4560  204.8010  149.7680 C   0  0  0  0  0  3  0  0  0  0  0  0
  160.7830  203.5630  151.8190 C   0  0  0  0  0  3  0  0  0  0  0  0
  161.2060  204.7310  152.4580 C   0  0  0  0  0  3  0  0  0  0  0  0
  1 15  1  0  0  0  0
  2  6  1  1  0  0  0
  2 12  1  0  0  0  0
  2 16  1  0  0  0  0
  3 21  1  0  0  0  0
  4 13  1  0  0  0  0
  5 13  1  0  0  0  0
  7  9  2  0  0  0  0
  8 10  1  0  0  0  0
 11  7  1  0  0  0  0
 11 16  2  0  0  0  0
 12  1  1  0  0  0  0
 13  7  1  0  0  0  0
 14  4  1  0  0  0  0
 14 18  1  1  0  0  0
 14 11  1  0  0  0  0
 15 20  1  0  0  0  0
 16  3  1  0  0  0  0
 17  8  2  0  0  0  0
 18  6  1  0  0  0  0
 19 10  2  0  0  0  0
 20 19  1  0  0  0  0
 21 17  1  0  0  0  0
 21 20  2  0  0  0  0
 22 26  1  0  0  0  0
 23 12  1  0  0  0  0
 23 27  1  0  0  0  0
 24 23  2  0  0  0  0
 25 24  1  0  0  0  0
 25 22  2  0  0  0  0
 26 27  2  0  0  0  0
M  END
>  <MODEL>
4

>  <REMARK>
 VINA RESULT:      -3.2      2.271      3.294
  Name = 
  1 active torsions:
  status: ('A' for Active; 'I' for Inactive)
    1  A    between atoms: C_9  and  N_15
                            x       y       z     vdW  Elec       q    Type
                         _______ _______ _______ _____ _____    ______ ____

>  <TORSDO>
F 1

$$$$
=
 OpenBabel11052423093D

 27 31  0  0  1  0  0  0  0  0999 V2000
  158.5510  214.1710  153.9340 C   0  0  0  0  0  2  0  0  0  0  0  0
  158.7300  212.5500  155.8670 C   0  0  1  0  0  3  0  0  0  0  0  0
  158.3320  210.8500  153.8760 C   0  0  0  0  0  2  0  0  0  0  0  0
  161.5370  209.7740  157.2610 O   0  0  0  0  0  0  0  0  0  0  0  0
  161.4360  207.3540  156.8740 C   0  0  0  0  0  1  0  0  0  0  0  0
  160.0480  213.1690  156.3820 C   0  0  0  0  0  2  0  0  0  0  0  0
  160.1730  209.0480  155.5480 C   0  0  0  0  0  0  0  0  0  0  0  0
  161.2670  210.7000  151.4810 C   0  0  0  0  0  3  0  0  0  0  0  0
  159.6930  208.2650  154.6850 O   0  0  0  0  0  0  0  0  0  0  0  0
  161.1520  211.9170  150.8060 C   0  0  0  0  0  3  0  0  0  0  0  0
  159.7220  210.3550  155.8720 C   0  0  0  0  0  0  0  0  0  0  0  0
  157.9390  213.4970  155.0790 N   0  0  0  0  0  0  0  0  0  0  0  0
  161.2020  208.7240  156.4510 N   0  0  0  0  0  0  0  0  0  0  0  0
  160.4940  210.7320  157.0920 C   0  0  2  0  0  3  0  0  0  0  0  0
  157.8000  213.5690  152.3910 S   0  0  0  0  0  0  0  0  0  0  0  0
  158.9230  211.2000  155.2140 C   0  0  0  0  0  0  0  0  0  0  0  0
  160.3330  210.3540  152.4600 C   0  0  0  0  0  3  0  0  0  0  0  0
  161.0770  212.1380  156.9000 C   0  0  0  0  0  2  0  0  0  0  0  0
  160.0990  212.7830  151.1050 C   0  0  0  0  0  3  0  0  0  0  0  0
  159.1550  212.4390  152.0790 C   0  0  0  0  0  0  0  0  0  0  0  0
  159.2730  211.2160  152.7680 C   0  0  0  0  0  0  0  0  0  0  0  0
  153.9760  214.4530  156.3040 C   0  0  0  0  0  3  0  0  0  0  0  0
  156.5940  213.8210  155.4930 C   0  0  0  0  0  0  0  0  0  0  0  0
  156.2560  213.8570  156.8560 C   0  0  0  0  0  3  0  0  0  0  0  0
  154.9550  214.1710  157.2600 C   0  0  0  0  0  3  0  0  0  0  0  0
  154.2990  214.4230  154.9450 C   0  0  0  0  0  3  0  0  0  0  0  0
  155.5990  214.1090  154.5420 C   0  0  0  0  0  3  0  0  0  0  0  0
  1 12  1  0  0  0  0
  2  6  1  6  0  0  0
  3 16  1  0  0  0  0
  6 18  1  0  0  0  0
  7 11  1  0  0  0  0
  7 13  1  0  0  0  0
  8 17  1  0  0  0  0
  9  7  2  0  0  0  0
 10 19  1  0  0  0  0
 10  8  2  0  0  0  0
 11 14  1  0  0  0  0
 12 23  1  0  0  0  0
 12  2  1  0  0  0  0
 13  5  1  0  0  0  0
 13  4  1  0  0  0  0
 14 18  1  6  0  0  0
 14  4  1  0  0  0  0
 15  1  1  0  0  0  0
 16  2  1  0  0  0  0
 16 11  2  0  0  0  0
 17 21  2  0  0  0  0
 19 20  2  0  0  0  0
 20 15  1  0  0  0  0
 20 21  1  0  0  0  0
 21  3  1  0  0  0  0
 22 25  1  0  0  0  0
 23 24  1  0  0  0  0
 24 25  2  0  0  0  0
 26 22  2  0  0  0  0
 27 26  1  0  0  0  0
 27 23  2  0  0  0  0
M  END
>  <MODEL>
5

>  <REMARK>
 VINA RESULT:      -2.9      2.953      6.937
  Name = 
  1 active torsions:
  status: ('A' for Active; 'I' for Inactive)
    1  A    between atoms: C_9  and  N_15
                            x       y       z     vdW  Elec       q    Type
                         _______ _______ _______ _____ _____    ______ ____

>  <TORSDO>
F 1

$$$$
