=
 OpenBabel11052423113D

 27 32  0  0  1  0  0  0  0  0999 V2000
  160.9070  208.7060  152.7400 C   0  0  1  0  0  3  0  0  0  0  0  0
  161.9350  210.1040  151.1210 N   0  0  0  0  0  0  0  0  0  0  0  0
  160.2970  210.1320  152.8450 C   0  0  2  0  0  3  0  0  0  0  0  0
  160.2780  213.1970  148.8130 C   0  0  0  0  0  2  0  0  0  0  0  0
  158.2520  214.1930  150.0000 C   0  0  0  0  0  2  0  0  0  0  0  0
  162.4460  210.4570  149.8580 N   0  0  0  0  0  0  0  0  0  0  0  0
  159.3780  212.7360  151.6470 N   0  0  0  0  0  2  0  0  0  0  0  0
  160.7370  211.8240  156.2550 C   0  0  0  0  0  3  0  0  0  0  0  0
  158.1630  212.9340  150.8670 C   0  0  0  0  0  2  0  0  0  0  0  0
  161.5060  210.8100  156.8600 C   0  0  0  0  0  3  0  0  0  0  0  0
  160.1910  211.7720  150.9140 C   0  0  1  0  0  3  0  0  0  0  0  0
  161.9100  208.7310  151.5930 C   0  0  2  0  0  3  0  0  0  0  0  0
  159.6290  214.4530  149.3810 C   0  0  0  0  0  2  0  0  0  0  0  0
  161.0910  212.4950  149.8950 C   0  0  1  0  0  3  0  0  0  0  0  0
  161.5800  208.4740  153.9780 O   0  0  0  0  0  0  0  0  0  0  0  0
  161.0870  211.0060  151.8790 C   0  0  2  0  0  3  0  0  0  0  0  0
  160.2890  211.6810  154.9310 C   0  0  0  0  0  3  0  0  0  0  0  0
  162.0670  211.5450  149.2550 C   0  0  0  0  0  3  0  0  0  0  0  0
  161.8320  209.6460  156.1450 C   0  0  0  0  0  3  0  0  0  0  0  0
  161.3710  209.5320  154.8350 C   0  0  0  0  0  0  0  0  0  0  0  0
  160.6270  210.5140  154.2440 C   0  0  0  0  0  0  0  0  0  0  0  0
  160.6520  205.9920  148.5230 C   0  0  0  0  0  3  0  0  0  0  0  0
  161.4760  207.7880  150.5100 C   0  0  0  0  0  0  0  0  0  0  0  0
  161.6330  208.1130  149.1520 C   0  0  0  0  0  3  0  0  0  0  0  0
  161.2210  207.2170  148.1630 C   0  0  0  0  0  3  0  0  0  0  0  0
  160.4920  205.6650  149.8730 C   0  0  0  0  0  3  0  0  0  0  0  0
  160.9030  206.5610  150.8640 C   0  0  0  0  0  3  0  0  0  0  0  0
  1  3  1  0  0  0  0
  1 15  1  1  0  0  0
  2 12  1  0  0  0  0
  3 21  1  1  0  0  0
  4 13  1  0  0  0  0
  5  9  1  0  0  0  0
  6  2  1  0  0  0  0
  8 10  1  0  0  0  0
  9  7  1  0  0  0  0
 11  7  1  1  0  0  0
 11 16  1  0  0  0  0
 12 23  1  6  0  0  0
 12  1  1  0  0  0  0
 13  5  1  0  0  0  0
 14  4  1  6  0  0  0
 14 11  1  0  0  0  0
 15 20  1  0  0  0  0
 16  2  1  6  0  0  0
 16  3  1  0  0  0  0
 17  8  2  0  0  0  0
 18  6  2  0  0  0  0
 18 14  1  0  0  0  0
 19 10  2  0  0  0  0
 20 19  1  0  0  0  0
 21 20  2  0  0  0  0
 21 17  1  0  0  0  0
 22 26  1  0  0  0  0
 23 27  1  0  0  0  0
 24 23  2  0  0  0  0
 25 22  2  0  0  0  0
 25 24  1  0  0  0  0
 26 27  2  0  0  0  0
M  END
>  <MODEL>
1

>  <REMARK>
 VINA RESULT:      -6.6      0.000      0.000
  Name = 
  1 active torsions:
  status: ('A' for Active; 'I' for Inactive)
    1  A    between atoms: C_9  and  C_15
                            x       y       z     vdW  Elec       q    Type
                         _______ _______ _______ _____ _____    ______ ____

>  <TORSDO>
F 1

$$$$
=
 OpenBabel11052423113D

 27 32  0  0  1  0  0  0  0  0999 V2000
  161.9140  207.5730  152.9870 C   0  0  1  0  0  3  0  0  0  0  0  0
  160.3600  209.3630  152.8780 N   0  0  0  0  0  0  0  0  0  0  0  0
  161.9200  208.1590  151.5470 C   0  0  2  0  0  3  0  0  0  0  0  0
  160.5830  212.9790  150.7540 C   0  0  0  0  0  2  0  0  0  0  0  0
  162.1000  212.7140  148.7210 C   0  0  0  0  0  2  0  0  0  0  0  0
  159.7040  210.5310  153.3100 N   0  0  0  0  0  0  0  0  0  0  0  0
  161.6990  210.4370  149.5920 N   0  0  0  0  0  2  0  0  0  0  0  0
  160.9820  205.6680  148.7910 C   0  0  0  0  0  3  0  0  0  0  0  0
  162.7080  211.4620  149.3600 C   0  0  0  0  0  2  0  0  0  0  0  0
  160.6950  204.5720  149.6300 C   0  0  0  0  0  3  0  0  0  0  0  0
  161.3010  210.5540  150.9910 C   0  0  1  0  0  3  0  0  0  0  0  0
  160.9390  208.4080  153.8070 C   0  0  2  0  0  3  0  0  0  0  0  0
  160.7090  213.0910  149.2400 C   0  0  0  0  0  2  0  0  0  0  0  0
  160.1530  211.5680  151.1390 C   0  0  1  0  0  3  0  0  0  0  0  0
  161.4330  206.2330  152.8640 O   0  0  0  0  0  0  0  0  0  0  0  0
  160.8150  209.2070  151.5080 C   0  0  2  0  0  3  0  0  0  0  0  0
  161.4000  206.8910  149.3390 C   0  0  0  0  0  3  0  0  0  0  0  0
  159.6030  211.5730  152.5400 C   0  0  0  0  0  3  0  0  0  0  0  0
  160.8250  204.6940  151.0230 C   0  0  0  0  0  3  0  0  0  0  0  0
  161.2430  205.9200  151.5360 C   0  0  0  0  0  0  0  0  0  0  0  0
  161.5200  206.9850  150.7260 C   0  0  0  0  0  0  0  0  0  0  0  0
  163.0070  210.3600  157.0350 C   0  0  0  0  0  3  0  0  0  0  0  0
  161.6670  209.1010  154.9210 C   0  0  0  0  0  0  0  0  0  0  0  0
  162.3800  210.2910  154.6980 C   0  0  0  0  0  3  0  0  0  0  0  0
  163.0480  210.9180  155.7530 C   0  0  0  0  0  3  0  0  0  0  0  0
  162.3000  209.1760  157.2600 C   0  0  0  0  0  3  0  0  0  0  0  0
  161.6320  208.5480  156.2050 C   0  0  0  0  0  3  0  0  0  0  0  0
  1 15  1  6  0  0  0
  1 12  1  0  0  0  0
  2  6  1  0  0  0  0
  2 12  1  0  0  0  0
  3 21  1  6  0  0  0
  3  1  1  0  0  0  0
  5 13  1  0  0  0  0
  5  9  1  0  0  0  0
  8 17  2  0  0  0  0
  8 10  1  0  0  0  0
  9  7  1  0  0  0  0
 10 19  2  0  0  0  0
 11  7  1  6  0  0  0
 11 14  1  0  0  0  0
 11 16  1  0  0  0  0
 12 23  1  1  0  0  0
 13  4  1  0  0  0  0
 14  4  1  1  0  0  0
 14 18  1  0  0  0  0
 16  3  1  0  0  0  0
 16  2  1  1  0  0  0
 17 21  1  0  0  0  0
 18  6  2  0  0  0  0
 19 20  1  0  0  0  0
 20 15  1  0  0  0  0
 21 20  2  0  0  0  0
 22 26  1  0  0  0  0
 23 27  1  0  0  0  0
 24 23  2  0  0  0  0
 24 25  1  0  0  0  0
 25 22  2  0  0  0  0
 27 26  2  0  0  0  0
M  END
>  <MODEL>
2

>  <REMARK>
 VINA RESULT:      -6.5      1.570      5.493
  Name = 
  1 active torsions:
  status: ('A' for Active; 'I' for Inactive)
    1  A    between atoms: C_9  and  C_15
                            x       y       z     vdW  Elec       q    Type
                         _______ _______ _______ _____ _____    ______ ____

>  <TORSDO>
F 1

$$$$
=
 OpenBabel11052423113D

 27 32  0  0  1  0  0  0  0  0999 V2000
  160.8480  207.6620  152.8580 C   0  0  1  0  0  3  0  0  0  0  0  0
  162.0830  209.1400  151.4730 N   0  0  0  0  0  0  0  0  0  0  0  0
  160.3650  209.1170  153.1160 C   0  0  2  0  0  3  0  0  0  0  0  0
  160.8390  212.6340  149.5030 C   0  0  0  0  0  2  0  0  0  0  0  0
  158.8510  213.6690  150.7190 C   0  0  0  0  0  2  0  0  0  0  0  0
  162.6910  209.5920  150.2860 N   0  0  0  0  0  0  0  0  0  0  0  0
  159.7500  211.9230  152.2160 N   0  0  0  0  0  2  0  0  0  0  0  0
  160.7720  210.3340  156.7260 C   0  0  0  0  0  3  0  0  0  0  0  0
  158.6020  212.3300  151.4170 C   0  0  0  0  0  2  0  0  0  0  0  0
  161.4140  209.1850  157.2310 C   0  0  0  0  0  3  0  0  0  0  0  0
  160.5110  210.9810  151.4030 C   0  0  1  0  0  3  0  0  0  0  0  0
  161.9090  207.7290  151.7670 C   0  0  2  0  0  3  0  0  0  0  0  0
  160.2770  213.8690  150.1960 C   0  0  0  0  0  2  0  0  0  0  0  0
  161.5260  211.7310  150.5210 C   0  0  1  0  0  3  0  0  0  0  0  0
  161.4300  207.2190  154.0850 O   0  0  0  0  0  0  0  0  0  0  0  0
  161.2810  210.0210  152.3010 C   0  0  2  0  0  3  0  0  0  0  0  0
  160.3840  210.3960  155.3780 C   0  0  0  0  0  3  0  0  0  0  0  0
  162.4450  210.7770  149.8090 C   0  0  0  0  0  3  0  0  0  0  0  0
  161.6700  208.0900  156.3900 C   0  0  0  0  0  3  0  0  0  0  0  0
  161.2720  208.1810  155.0580 C   0  0  0  0  0  0  0  0  0  0  0  0
  160.6520  209.2940  154.5640 C   0  0  0  0  0  0  0  0  0  0  0  0
  160.5900  205.5970  148.2710 C   0  0  0  0  0  3  0  0  0  0  0  0
  161.4500  206.9700  150.5570 C   0  0  0  0  0  0  0  0  0  0  0  0
  161.2400  205.5810  150.6030 C   0  0  0  0  0  3  0  0  0  0  0  0
  160.8120  204.8980  149.4620 C   0  0  0  0  0  3  0  0  0  0  0  0
  160.7990  206.9780  148.2220 C   0  0  0  0  0  3  0  0  0  0  0  0
  161.2290  207.6630  149.3620 C   0  0  0  0  0  3  0  0  0  0  0  0
  1  3  1  0  0  0  0
  1 15  1  1  0  0  0
  2 12  1  0  0  0  0
  3 21  1  1  0  0  0
  4 13  1  0  0  0  0
  5  9  1  0  0  0  0
  6  2  1  0  0  0  0
  8 10  1  0  0  0  0
  9  7  1  0  0  0  0
 11  7  1  1  0  0  0
 11 16  1  0  0  0  0
 12 23  1  6  0  0  0
 12  1  1  0  0  0  0
 13  5  1  0  0  0  0
 14  4  1  6  0  0  0
 14 11  1  0  0  0  0
 15 20  1  0  0  0  0
 16  2  1  6  0  0  0
 16  3  1  0  0  0  0
 17  8  2  0  0  0  0
 18  6  2  0  0  0  0
 18 14  1  0  0  0  0
 19 10  2  0  0  0  0
 20 19  1  0  0  0  0
 21 20  2  0  0  0  0
 21 17  1  0  0  0  0
 22 25  1  0  0  0  0
 23 24  1  0  0  0  0
 25 24  2  0  0  0  0
 26 22  2  0  0  0  0
 26 27  1  0  0  0  0
 27 23  2  0  0  0  0
M  END
>  <MODEL>
3

>  <REMARK>
 VINA RESULT:      -6.1      1.003      1.426
  Name = 
  1 active torsions:
  status: ('A' for Active; 'I' for Inactive)
    1  A    between atoms: C_9  and  C_15
                            x       y       z     vdW  Elec       q    Type
                         _______ _______ _______ _____ _____    ______ ____

>  <TORSDO>
F 1

$$$$
=
 OpenBabel11052423113D

 27 32  0  0  1  0  0  0  0  0999 V2000
  158.2480  210.0490  138.3150 C   0  0  1  0  0  3  0  0  0  0  0  0
  159.0870  212.2630  138.4630 N   0  0  0  0  0  0  0  0  0  0  0  0
  159.3340  210.1040  139.4270 C   0  0  2  0  0  3  0  0  0  0  0  0
  160.2890  214.4530  141.8390 C   0  0  0  0  0  2  0  0  0  0  0  0
  161.0280  212.8700  143.6970 C   0  0  0  0  0  2  0  0  0  0  0  0
  159.0190  213.6690  138.5120 N   0  0  0  0  0  0  0  0  0  0  0  0
  160.7980  211.4930  141.6600 N   0  0  0  0  0  2  0  0  0  0  0  0
  162.3330  207.7860  138.8650 C   0  0  0  0  0  3  0  0  0  0  0  0
  160.2800  211.7310  143.0010 C   0  0  0  0  0  2  0  0  0  0  0  0
  161.9440  207.2920  137.6040 C   0  0  0  0  0  3  0  0  0  0  0  0
  159.9100  212.1950  140.7400 C   0  0  1  0  0  3  0  0  0  0  0  0
  158.0950  211.4620  137.7680 C   0  0  2  0  0  3  0  0  0  0  0  0
  161.4090  214.0430  142.7870 C   0  0  0  0  0  2  0  0  0  0  0  0
  160.3790  213.6490  140.5470 C   0  0  1  0  0  3  0  0  0  0  0  0
  158.7650  209.1810  137.3050 O   0  0  0  0  0  0  0  0  0  0  0  0
  159.9210  211.5080  139.3800 C   0  0  2  0  0  3  0  0  0  0  0  0
  161.5270  208.7150  139.5440 C   0  0  0  0  0  3  0  0  0  0  0  0
  159.5910  214.3400  139.4670 C   0  0  0  0  0  3  0  0  0  0  0  0
  160.7450  207.7240  137.0130 C   0  0  0  0  0  3  0  0  0  0  0  0
  159.9660  208.6450  137.7110 C   0  0  0  0  0  0  0  0  0  0  0  0
  160.3410  209.1270  138.9340 C   0  0  0  0  0  0  0  0  0  0  0  0
  154.1130  212.8870  138.5560 C   0  0  0  0  0  3  0  0  0  0  0  0
  156.7060  211.9650  138.0260 C   0  0  0  0  0  0  0  0  0  0  0  0
  155.9550  212.5880  137.0140 C   0  0  0  0  0  3  0  0  0  0  0  0
  154.6630  213.0470  137.2800 C   0  0  0  0  0  3  0  0  0  0  0  0
  154.8570  212.2690  139.5650 C   0  0  0  0  0  3  0  0  0  0  0  0
  156.1510  211.8100  139.3000 C   0  0  0  0  0  3  0  0  0  0  0  0
  1 15  1  6  0  0  0
  1  3  1  0  0  0  0
  2  6  1  0  0  0  0
  3 21  1  6  0  0  0
  4 13  1  0  0  0  0
  6 18  2  0  0  0  0
  7  9  1  0  0  0  0
  8 17  1  0  0  0  0
  9  5  1  0  0  0  0
 10  8  2  0  0  0  0
 11  7  1  1  0  0  0
 12 23  1  1  0  0  0
 12  1  1  0  0  0  0
 12  2  1  0  0  0  0
 13  5  1  0  0  0  0
 14 18  1  6  0  0  0
 14 11  1  0  0  0  0
 14  4  1  0  0  0  0
 15 20  1  0  0  0  0
 16  2  1  6  0  0  0
 16  3  1  0  0  0  0
 16 11  1  0  0  0  0
 19 10  1  0  0  0  0
 19 20  2  0  0  0  0
 20 21  1  0  0  0  0
 21 17  2  0  0  0  0
 22 26  1  0  0  0  0
 23 27  1  0  0  0  0
 24 25  1  0  0  0  0
 24 23  2  0  0  0  0
 25 22  2  0  0  0  0
 27 26  2  0  0  0  0
M  END
>  <MODEL>
4

>  <REMARK>
 VINA RESULT:      -5.2     10.323     13.609
  Name = 
  1 active torsions:
  status: ('A' for Active; 'I' for Inactive)
    1  A    between atoms: C_9  and  C_15
                            x       y       z     vdW  Elec       q    Type
                         _______ _______ _______ _____ _____    ______ ____

>  <TORSDO>
F 1

$$$$
=
 OpenBabel11052423113D

 27 32  0  0  1  0  0  0  0  0999 V2000
  159.2980  212.8410  151.4270 C   0  0  1  0  0  3  0  0  0  0  0  0
  160.4570  211.8730  153.2570 N   0  0  0  0  0  0  0  0  0  0  0  0
  160.0890  211.6000  150.9240 C   0  0  2  0  0  3  0  0  0  0  0  0
  161.2140  207.8310  154.1140 C   0  0  0  0  0  2  0  0  0  0  0  0
  161.2110  206.4610  151.9630 C   0  0  0  0  0  2  0  0  0  0  0  0
  160.6300  211.4020  154.5730 N   0  0  0  0  0  0  0  0  0  0  0  0
  161.2190  208.8330  151.2760 N   0  0  0  0  0  2  0  0  0  0  0  0
  162.6780  212.3410  148.1980 C   0  0  0  0  0  3  0  0  0  0  0  0
  160.4550  207.5930  151.2630 C   0  0  0  0  0  2  0  0  0  0  0  0
  162.5110  213.7400  148.1670 C   0  0  0  0  0  3  0  0  0  0  0  0
  160.7060  209.6250  152.3890 C   0  0  1  0  0  3  0  0  0  0  0  0
  159.5270  212.9400  152.9300 C   0  0  2  0  0  3  0  0  0  0  0  0
  161.9930  206.8830  153.2110 C   0  0  0  0  0  2  0  0  0  0  0  0
  161.4560  209.2750  153.6870 C   0  0  1  0  0  3  0  0  0  0  0  0
  159.8720  213.9690  150.7650 O   0  0  0  0  0  0  0  0  0  0  0  0
  160.9100  211.1090  152.1090 C   0  0  2  0  0  3  0  0  0  0  0  0
  161.9140  211.5540  149.0750 C   0  0  0  0  0  3  0  0  0  0  0  0
  161.0740  210.2030  154.8080 C   0  0  0  0  0  3  0  0  0  0  0  0
  161.5770  214.3610  149.0130 C   0  0  0  0  0  3  0  0  0  0  0  0
  160.8330  213.5530  149.8700 C   0  0  0  0  0  0  0  0  0  0  0  0
  160.9940  212.1960  149.9050 C   0  0  0  0  0  0  0  0  0  0  0  0
  155.7970  212.5220  155.0310 C   0  0  0  0  0  3  0  0  0  0  0  0
  158.2280  212.7760  153.6610 C   0  0  0  0  0  0  0  0  0  0  0  0
  157.7100  211.5030  153.9550 C   0  0  0  0  0  3  0  0  0  0  0  0
  156.4980  211.3780  154.6370 C   0  0  0  0  0  3  0  0  0  0  0  0
  156.3080  213.7910  154.7400 C   0  0  0  0  0  3  0  0  0  0  0  0
  157.5200  213.9170  154.0560 C   0  0  0  0  0  3  0  0  0  0  0  0
  1 15  1  6  0  0  0
  1 12  1  0  0  0  0
  2  6  1  0  0  0  0
  3 21  1  6  0  0  0
  3  1  1  0  0  0  0
  3 16  1  0  0  0  0
  5 13  1  0  0  0  0
  6 18  2  0  0  0  0
  8 17  1  0  0  0  0
  9  7  1  0  0  0  0
  9  5  1  0  0  0  0
 10  8  2  0  0  0  0
 10 19  1  0  0  0  0
 11  7  1  6  0  0  0
 11 14  1  0  0  0  0
 12  2  1  0  0  0  0
 12 23  1  1  0  0  0
 13  4  1  0  0  0  0
 14  4  1  1  0  0  0
 14 18  1  0  0  0  0
 16 11  1  0  0  0  0
 16  2  1  1  0  0  0
 17 21  2  0  0  0  0
 19 20  2  0  0  0  0
 20 21  1  0  0  0  0
 20 15  1  0  0  0  0
 23 24  2  0  0  0  0
 23 27  1  0  0  0  0
 24 25  1  0  0  0  0
 25 22  2  0  0  0  0
 26 22  1  0  0  0  0
 27 26  2  0  0  0  0
M  END
>  <MODEL>
5

>  <REMARK>
 VINA RESULT:      -5.2      2.549      6.814
  Name = 
  1 active torsions:
  status: ('A' for Active; 'I' for Inactive)
    1  A    between atoms: C_9  and  C_15
                            x       y       z     vdW  Elec       q    Type
                         _______ _______ _______ _____ _____    ______ ____

>  <TORSDO>
F 1

$$$$
=
 OpenBabel11052423113D

 27 32  0  0  1  0  0  0  0  0999 V2000
  158.8170  210.7300  138.9300 C   0  0  1  0  0  3  0  0  0  0  0  0
  158.0880  212.8280  139.7640 N   0  0  0  0  0  0  0  0  0  0  0  0
  159.7590  211.1680  140.0860 C   0  0  2  0  0  3  0  0  0  0  0  0
  158.0750  214.2870  143.7030 C   0  0  0  0  0  2  0  0  0  0  0  0
  159.8780  213.1210  145.0790 C   0  0  0  0  0  2  0  0  0  0  0  0
  157.1600  213.7900  140.2070 N   0  0  0  0  0  0  0  0  0  0  0  0
  160.3020  212.5160  142.7220 N   0  0  0  0  0  2  0  0  0  0  0  0
  163.4430  211.5510  139.1010 C   0  0  0  0  0  3  0  0  0  0  0  0
  159.9290  212.0040  144.0340 C   0  0  0  0  0  2  0  0  0  0  0  0
  163.2900  211.2790  137.7270 C   0  0  0  0  0  3  0  0  0  0  0  0
  159.0590  212.7020  141.9800 C   0  0  1  0  0  3  0  0  0  0  0  0
  157.7400  211.8000  138.7990 C   0  0  2  0  0  3  0  0  0  0  0  0
  159.3150  214.4530  144.5720 C   0  0  0  0  0  2  0  0  0  0  0  0
  158.4800  214.1030  142.2440 C   0  0  1  0  0  3  0  0  0  0  0  0
  159.6260  210.6990  137.7530 O   0  0  0  0  0  0  0  0  0  0  0  0
  159.3220  212.5710  140.4850 C   0  0  2  0  0  3  0  0  0  0  0  0
  162.3290  211.5300  139.9570 C   0  0  0  0  0  3  0  0  0  0  0  0
  157.3010  214.3870  141.3540 C   0  0  0  0  0  3  0  0  0  0  0  0
  162.0220  210.9840  137.2000 C   0  0  0  0  0  3  0  0  0  0  0  0
  160.9380  210.9690  138.0740 C   0  0  0  0  0  0  0  0  0  0  0  0
  161.0820  211.2340  139.4070 C   0  0  0  0  0  0  0  0  0  0  0  0
  153.8930  210.0630  139.6310 C   0  0  0  0  0  3  0  0  0  0  0  0
  156.3920  211.2110  139.0900 C   0  0  0  0  0  0  0  0  0  0  0  0
  155.2500  212.0230  139.2100 C   0  0  0  0  0  3  0  0  0  0  0  0
  154.0060  211.4480  139.4800 C   0  0  0  0  0  3  0  0  0  0  0  0
  155.0260  209.2520  139.5130 C   0  0  0  0  0  3  0  0  0  0  0  0
  156.2720  209.8260  139.2430 C   0  0  0  0  0  3  0  0  0  0  0  0
  1 15  1  6  0  0  0
  1  3  1  0  0  0  0
  2  6  1  0  0  0  0
  3 21  1  6  0  0  0
  3 16  1  0  0  0  0
  4 13  1  0  0  0  0
  6 18  2  0  0  0  0
  7  9  1  0  0  0  0
  8 17  1  0  0  0  0
  9  5  1  0  0  0  0
 10  8  2  0  0  0  0
 11 14  1  0  0  0  0
 11  7  1  1  0  0  0
 12  1  1  0  0  0  0
 12 23  1  1  0  0  0
 12  2  1  0  0  0  0
 13  5  1  0  0  0  0
 14 18  1  6  0  0  0
 14  4  1  0  0  0  0
 15 20  1  0  0  0  0
 16  2  1  6  0  0  0
 16 11  1  0  0  0  0
 19 10  1  0  0  0  0
 19 20  2  0  0  0  0
 20 21  1  0  0  0  0
 21 17  2  0  0  0  0
 23 24  2  0  0  0  0
 23 27  1  0  0  0  0
 24 25  1  0  0  0  0
 25 22  2  0  0  0  0
 26 22  1  0  0  0  0
 27 26  2  0  0  0  0
M  END
>  <MODEL>
6

>  <REMARK>
 VINA RESULT:      -5.1      9.803     12.756
  Name = 
  1 active torsions:
  status: ('A' for Active; 'I' for Inactive)
    1  A    between atoms: C_9  and  C_15
                            x       y       z     vdW  Elec       q    Type
                         _______ _______ _______ _____ _____    ______ ____

>  <TORSDO>
F 1

$$$$
=
 OpenBabel11052423113D

 27 32  0  0  1  0  0  0  0  0999 V2000
  158.4370  212.5670  152.9100 C   0  0  1  0  0  3  0  0  0  0  0  0
  159.7290  212.5490  154.9000 N   0  0  0  0  0  0  0  0  0  0  0  0
  159.3940  211.3430  152.8790 C   0  0  2  0  0  3  0  0  0  0  0  0
  161.0550  209.2980  157.2040 C   0  0  0  0  0  2  0  0  0  0  0  0
  161.2400  207.2090  155.7530 C   0  0  0  0  0  2  0  0  0  0  0  0
  159.9710  212.6560  156.2830 N   0  0  0  0  0  0  0  0  0  0  0  0
  160.9070  209.1040  154.2040 N   0  0  0  0  0  2  0  0  0  0  0  0
  161.8420  211.2890  149.9310 C   0  0  0  0  0  3  0  0  0  0  0  0
  160.3280  207.8690  154.7160 C   0  0  0  0  0  2  0  0  0  0  0  0
  161.4770  212.5300  149.3720 C   0  0  0  0  0  3  0  0  0  0  0  0
  160.2910  210.1940  154.9530 C   0  0  1  0  0  3  0  0  0  0  0  0
  158.6560  213.2740  154.2420 C   0  0  2  0  0  3  0  0  0  0  0  0
  161.9580  208.1820  156.6930 C   0  0  0  0  0  2  0  0  0  0  0  0
  161.0880  210.4790  156.2390 C   0  0  1  0  0  3  0  0  0  0  0  0
  158.8420  213.4110  151.8310 O   0  0  0  0  0  0  0  0  0  0  0  0
  160.2810  211.4640  154.1110 C   0  0  2  0  0  3  0  0  0  0  0  0
  161.2010  210.8150  151.0870 C   0  0  0  0  0  3  0  0  0  0  0  0
  160.5830  211.7130  156.9360 C   0  0  0  0  0  3  0  0  0  0  0  0
  160.4670  213.3050  149.9660 C   0  0  0  0  0  3  0  0  0  0  0  0
  159.8490  212.8070  151.1110 C   0  0  0  0  0  0  0  0  0  0  0  0
  160.2020  211.6050  151.6570 C   0  0  0  0  0  0  0  0  0  0  0  0
  155.0410  213.2340  156.5750 C   0  0  0  0  0  3  0  0  0  0  0  0
  157.3950  213.2420  155.0540 C   0  0  0  0  0  0  0  0  0  0  0  0
  156.8070  212.0260  155.4420 C   0  0  0  0  0  3  0  0  0  0  0  0
  155.6330  212.0240  156.2000 C   0  0  0  0  0  3  0  0  0  0  0  0
  155.6230  214.4460  156.1900 C   0  0  0  0  0  3  0  0  0  0  0  0
  156.7970  214.4490  155.4310 C   0  0  0  0  0  3  0  0  0  0  0  0
  1 15  1  6  0  0  0
  1 12  1  0  0  0  0
  2  6  1  0  0  0  0
  3 21  1  6  0  0  0
  3  1  1  0  0  0  0
  3 16  1  0  0  0  0
  5 13  1  0  0  0  0
  6 18  2  0  0  0  0
  7  9  1  0  0  0  0
  8 17  1  0  0  0  0
  9  5  1  0  0  0  0
 10  8  2  0  0  0  0
 10 19  1  0  0  0  0
 11  7  1  6  0  0  0
 11 14  1  0  0  0  0
 12  2  1  0  0  0  0
 12 23  1  1  0  0  0
 13  4  1  0  0  0  0
 14 18  1  1  0  0  0
 14  4  1  0  0  0  0
 16  2  1  1  0  0  0
 16 11  1  0  0  0  0
 17 21  2  0  0  0  0
 19 20  2  0  0  0  0
 20 21  1  0  0  0  0
 20 15  1  0  0  0  0
 23 27  2  0  0  0  0
 23 24  1  0  0  0  0
 24 25  2  0  0  0  0
 25 22  1  0  0  0  0
 26 22  2  0  0  0  0
 27 26  1  0  0  0  0
M  END
>  <MODEL>
7

>  <REMARK>
 VINA RESULT:      -5.1      3.013      7.471
  Name = 
  1 active torsions:
  status: ('A' for Active; 'I' for Inactive)
    1  A    between atoms: C_9  and  C_15
                            x       y       z     vdW  Elec       q    Type
                         _______ _______ _______ _____ _____    ______ ____

>  <TORSDO>
F 1

$$$$
=
 OpenBabel11052423113D

 27 32  0  0  1  0  0  0  0  0999 V2000
  160.9760  212.1440  138.2190 C   0  0  1  0  0  3  0  0  0  0  0  0
  159.4680  213.6160  139.3100 N   0  0  0  0  0  0  0  0  0  0  0  0
  161.6030  212.6020  139.5660 C   0  0  2  0  0  3  0  0  0  0  0  0
  158.6260  214.0390  143.4030 C   0  0  0  0  0  2  0  0  0  0  0  0
  160.6240  213.2800  144.7950 C   0  0  0  0  0  2  0  0  0  0  0  0
  158.2210  214.0720  139.7790 N   0  0  0  0  0  0  0  0  0  0  0  0
  161.4140  213.4130  142.4590 N   0  0  0  0  0  2  0  0  0  0  0  0
  164.9510  214.4380  139.2420 C   0  0  0  0  0  3  0  0  0  0  0  0
  161.1600  212.5180  143.5800 C   0  0  0  0  0  2  0  0  0  0  0  0
  165.0110  214.4530  137.8340 C   0  0  0  0  0  3  0  0  0  0  0  0
  160.2500  213.3260  141.5840 C   0  0  1  0  0  3  0  0  0  0  0  0
  159.5950  212.7800  138.1290 C   0  0  2  0  0  3  0  0  0  0  0  0
  159.6510  214.4160  144.4660 C   0  0  0  0  0  2  0  0  0  0  0  0
  159.1790  214.3440  142.0150 C   0  0  1  0  0  3  0  0  0  0  0  0
  161.8250  212.6620  137.1940 O   0  0  0  0  0  0  0  0  0  0  0  0
  160.6520  213.6390  140.1490 C   0  0  2  0  0  3  0  0  0  0  0  0
  163.8630  213.8410  139.8990 C   0  0  0  0  0  3  0  0  0  0  0  0
  158.0480  214.4030  141.0240 C   0  0  0  0  0  3  0  0  0  0  0  0
  163.9840  213.8700  137.0740 C   0  0  0  0  0  3  0  0  0  0  0  0
  162.9190  213.2850  137.7550 C   0  0  0  0  0  0  0  0  0  0  0  0
  162.8560  213.2700  139.1210 C   0  0  0  0  0  0  0  0  0  0  0  0
  156.5440  209.7500  137.9960 C   0  0  0  0  0  3  0  0  0  0  0  0
  158.5390  211.7150  138.0960 C   0  0  0  0  0  0  0  0  0  0  0  0
  158.5420  210.6560  139.0200 C   0  0  0  0  0  3  0  0  0  0  0  0
  157.5470  209.6770  138.9690 C   0  0  0  0  0  3  0  0  0  0  0  0
  156.5390  210.8010  137.0750 C   0  0  0  0  0  3  0  0  0  0  0  0
  157.5350  211.7800  137.1240 C   0  0  0  0  0  3  0  0  0  0  0  0
  1 15  1  6  0  0  0
  1  3  1  0  0  0  0
  2  6  1  0  0  0  0
  3 21  1  6  0  0  0
  3 16  1  0  0  0  0
  4 13  1  0  0  0  0
  6 18  2  0  0  0  0
  7  9  1  0  0  0  0
  8 17  1  0  0  0  0
  9  5  1  0  0  0  0
 10  8  2  0  0  0  0
 11 14  1  0  0  0  0
 11  7  1  1  0  0  0
 12 23  1  1  0  0  0
 12  1  1  0  0  0  0
 12  2  1  0  0  0  0
 13  5  1  0  0  0  0
 14 18  1  6  0  0  0
 14  4  1  0  0  0  0
 15 20  1  0  0  0  0
 16  2  1  6  0  0  0
 16 11  1  0  0  0  0
 19 20  2  0  0  0  0
 19 10  1  0  0  0  0
 20 21  1  0  0  0  0
 21 17  2  0  0  0  0
 22 25  1  0  0  0  0
 23 24  1  0  0  0  0
 25 24  2  0  0  0  0
 26 27  1  0  0  0  0
 26 22  2  0  0  0  0
 27 23  2  0  0  0  0
M  END
>  <MODEL>
8

>  <REMARK>
 VINA RESULT:      -4.9     10.148     13.184
  Name = 
  1 active torsions:
  status: ('A' for Active; 'I' for Inactive)
    1  A    between atoms: C_9  and  C_15
                            x       y       z     vdW  Elec       q    Type
                         _______ _______ _______ _____ _____    ______ ____

>  <TORSDO>
F 1

$$$$
=
 OpenBabel11052423113D

 27 32  0  0  1  0  0  0  0  0999 V2000
  160.9740  208.4110  150.6160 C   0  0  1  0  0  3  0  0  0  0  0  0
  162.4600  209.4260  152.1630 N   0  0  0  0  0  0  0  0  0  0  0  0
  160.6770  207.8570  152.0380 C   0  0  2  0  0  3  0  0  0  0  0  0
  161.7870  210.6240  156.1320 C   0  0  0  0  0  2  0  0  0  0  0  0
  159.9000  209.2500  157.1570 C   0  0  0  0  0  2  0  0  0  0  0  0
  163.1780  210.4770  152.7630 N   0  0  0  0  0  0  0  0  0  0  0  0
  160.4860  208.1450  155.0280 N   0  0  0  0  0  2  0  0  0  0  0  0
  161.0720  204.0630  152.4010 C   0  0  0  0  0  3  0  0  0  0  0  0
  159.4420  208.8590  155.7500 C   0  0  0  0  0  2  0  0  0  0  0  0
  161.5290  203.8040  151.0930 C   0  0  0  0  0  3  0  0  0  0  0  0
  161.1520  209.1280  154.1800 C   0  0  1  0  0  3  0  0  0  0  0  0
  162.0850  209.4440  150.7590 C   0  0  2  0  0  3  0  0  0  0  0  0
  161.3630  209.6920  157.2600 C   0  0  0  0  0  2  0  0  0  0  0  0
  162.2980  209.8100  154.9480 C   0  0  1  0  0  3  0  0  0  0  0  0
  161.4330  207.2970  149.8480 O   0  0  0  0  0  0  0  0  0  0  0  0
  161.7430  208.4420  152.9540 C   0  0  2  0  0  3  0  0  0  0  0  0
  160.7600  205.3730  152.7980 C   0  0  0  0  0  3  0  0  0  0  0  0
  163.1150  210.6930  154.0440 C   0  0  0  0  0  3  0  0  0  0  0  0
  161.6780  204.8550  150.1740 C   0  0  0  0  0  3  0  0  0  0  0  0
  161.3590  206.1440  150.5970 C   0  0  0  0  0  0  0  0  0  0  0  0
  160.9170  206.3990  151.8650 C   0  0  0  0  0  0  0  0  0  0  0  0
  160.6860  213.3190  149.5230 C   0  0  0  0  0  3  0  0  0  0  0  0
  161.5870  210.7960  150.3430 C   0  0  0  0  0  0  0  0  0  0  0  0
  160.7190  211.5380  151.1620 C   0  0  0  0  0  3  0  0  0  0  0  0
  160.2710  212.7960  150.7520 C   0  0  0  0  0  3  0  0  0  0  0  0
  161.5480  212.5830  148.7050 C   0  0  0  0  0  3  0  0  0  0  0  0
  161.9970  211.3240  149.1150 C   0  0  0  0  0  3  0  0  0  0  0  0
  1 15  1  6  0  0  0
  1 12  1  0  0  0  0
  1  3  1  0  0  0  0
  2  6  1  0  0  0  0
  3 21  1  6  0  0  0
  3 16  1  0  0  0  0
  4 13  1  0  0  0  0
  5 13  1  0  0  0  0
  6 18  2  0  0  0  0
  7  9  1  0  0  0  0
  8 17  1  0  0  0  0
  9  5  1  0  0  0  0
 10  8  2  0  0  0  0
 11 14  1  0  0  0  0
 11  7  1  1  0  0  0
 12 23  1  1  0  0  0
 12  2  1  0  0  0  0
 14 18  1  6  0  0  0
 14  4  1  0  0  0  0
 15 20  1  0  0  0  0
 16  2  1  6  0  0  0
 16 11  1  0  0  0  0
 19 20  2  0  0  0  0
 19 10  1  0  0  0  0
 20 21  1  0  0  0  0
 21 17  2  0  0  0  0
 22 25  1  0  0  0  0
 23 24  1  0  0  0  0
 25 24  2  0  0  0  0
 26 27  1  0  0  0  0
 26 22  2  0  0  0  0
 27 23  2  0  0  0  0
M  END
>  <MODEL>
9

>  <REMARK>
 VINA RESULT:      -4.7      1.910      5.902
  Name = 
  1 active torsions:
  status: ('A' for Active; 'I' for Inactive)
    1  A    between atoms: C_9  and  C_15
                            x       y       z     vdW  Elec       q    Type
                         _______ _______ _______ _____ _____    ______ ____

>  <TORSDO>
F 1

$$$$
