=
 OpenBabel11062410313D

 43 47  0  0  1  0  0  0  0  0999 V2000
  161.9820  209.4400  148.3600 C   0  0  0  0  0  2  0  0  0  0  0  0
  161.4850  210.8420  148.7450 C   0  0  1  0  0  3  0  0  0  0  0  0
  161.6770  208.4240  149.4550 C   0  0  0  0  0  2  0  0  0  0  0  0
  161.4720  211.1070  150.2590 C   0  0  0  0  0  2  0  0  0  0  0  0
  162.5560  210.3100  150.9840 C   0  0  0  0  0  2  0  0  0  0  0  0
  162.3980  208.7920  150.7620 C   0  0  1  0  0  3  0  0  0  0  0  0
  161.6750  212.6320  146.9580 N   0  0  0  0  0  2  0  0  0  0  0  0
  162.2670  211.8960  148.0340 C   0  0  0  0  0  0  0  0  0  0  0  0
  163.4620  212.1060  148.3700 O   0  0  0  0  0  0  0  0  0  0  0  0
  162.3890  213.6560  146.2060 C   0  0  0  0  0  2  0  0  0  0  0  0
  161.3810  212.6460  144.1190 N   0  0  0  0  0  2  0  0  0  0  0  0
  163.5620  213.5170  144.1460 O   0  0  0  0  0  0  0  0  0  0  0  0
  162.4950  213.2730  144.7680 C   0  0  0  0  0  0  0  0  0  0  0  0
  161.3200  212.2340  142.7480 C   0  0  0  0  0  0  0  0  0  0  0  0
  160.2480  211.7460  142.3020 O   0  0  0  0  0  0  0  0  0  0  0  0
  162.4970  212.3540  141.8330 C   0  0  0  0  0  2  0  0  0  0  0  0
  162.1910  211.7570  140.4980 C   0  0  0  0  0  0  0  0  0  0  0  0
  161.5970  212.0840  138.0920 C   0  0  0  0  0  2  0  0  0  0  0  0
  161.8440  209.7740  138.9490 C   0  0  0  0  0  2  0  0  0  0  0  0
  162.2460  210.7280  137.8340 C   0  0  0  0  0  2  0  0  0  0  0  0
  162.3920  210.2730  140.2880 C   0  0  0  0  0  2  0  0  0  0  0  0
  161.9060  212.5850  139.4780 C   0  0  0  0  0  3  0  0  0  0  0  0
  161.7820  208.0580  151.9610 C   0  0  2  0  0  3  0  0  0  0  0  0
  160.7670  201.9770  149.8250 C   0  0  0  0  0  0  0  0  0  0  0  0
  161.5240  206.5960  151.7120 C   0  0  0  0  0  0  0  0  0  0  0  0
  161.0750  203.8540  151.3230 C   0  0  0  0  0  0  0  0  0  0  0  0
  160.8990  202.8290  148.7240 C   0  0  0  0  0  3  0  0  0  0  0  0
  160.5540  200.6530  149.6340 F   0  0  0  0  0  0  0  0  0  0  0  0
  161.2080  204.7150  150.2100 C   0  0  0  0  0  0  0  0  0  0  0  0
  160.8550  202.4890  151.1240 C   0  0  0  0  0  3  0  0  0  0  0  0
  161.1200  204.1970  148.9150 C   0  0  0  0  0  3  0  0  0  0  0  0
  161.4330  206.0790  150.4090 C   0  0  0  0  0  3  0  0  0  0  0  0
  161.3890  205.7380  152.8090 C   0  0  0  0  0  3  0  0  0  0  0  0
  161.1640  204.3720  152.6180 C   0  0  0  0  0  3  0  0  0  0  0  0
  160.5570  208.7940  152.4980 C   0  0  0  0  0  2  0  0  0  0  0  0
  160.0530  211.3070  155.2190 C   0  0  0  0  0  2  0  0  0  0  0  0
  161.0410  210.6400  156.1850 C   0  0  1  0  0  3  0  0  0  0  0  0
  160.4660  208.5540  154.8260 C   0  0  0  0  0  2  0  0  0  0  0  0
  160.0490  210.6630  153.8200 C   0  0  0  0  0  2  0  0  0  0  0  0
  160.8770  209.4560  153.7530 N   0  0  0  0  0  0  0  0  0  0  0  0
  160.8860  209.1140  156.1880 C   0  0  0  0  0  2  0  0  0  0  0  0
  163.1400  210.4640  156.8700 C   0  0  0  0  0  1  0  0  0  0  0  0
  162.3500  210.9890  155.8440 O   0  0  0  0  0  0  0  0  0  0  0  0
  1  2  1  0  0  0  0
  1  3  1  0  0  0  0
  2  8  1  6  0  0  0
  2  4  1  0  0  0  0
  3  6  1  0  0  0  0
  4  5  1  0  0  0  0
  6  5  1  0  0  0  0
  6 23  1  1  0  0  0
  7  8  1  0  0  0  0
  8  9  2  0  0  0  0
 10  7  1  0  0  0  0
 11 13  1  0  0  0  0
 12 13  2  0  0  0  0
 13 10  1  0  0  0  0
 14 11  1  0  0  0  0
 15 14  2  0  0  0  0
 16 14  1  0  0  0  0
 17 16  1  0  0  0  0
 18 22  1  0  0  0  0
 19 21  1  0  0  0  0
 20 18  1  0  0  0  0
 20 19  1  0  0  0  0
 21 17  1  0  0  0  0
 22 17  2  0  0  0  0
 23 35  1  6  0  0  0
 24 30  1  0  0  0  0
 25 23  1  0  0  0  0
 25 33  1  0  0  0  0
 26 34  1  0  0  0  0
 27 31  1  0  0  0  0
 27 24  2  0  0  0  0
 28 24  1  0  0  0  0
 29 32  1  0  0  0  0
 29 26  1  0  0  0  0
 30 26  2  0  0  0  0
 31 29  2  0  0  0  0
 32 25  2  0  0  0  0
 34 33  2  0  0  0  0
 35 40  1  0  0  0  0
 36 37  1  0  0  0  0
 37 43  1  6  0  0  0
 37 41  1  0  0  0  0
 38 41  1  0  0  0  0
 39 36  1  0  0  0  0
 40 39  1  0  0  0  0
 40 38  1  0  0  0  0
 43 42  1  0  0  0  0
M  END
>  <MODEL>
1

>  <REMARK>
 VINA RESULT:      -9.4      0.000      0.000
  Name = 
  10 active torsions:
  status: ('A' for Active; 'I' for Inactive)
    1  A    between atoms: C_1  and  C_34
    2  A    between atoms: C_1  and  N_35
    3  A    between atoms: N_3  and  C_42
    4  A    between atoms: C_6  and  C_12
    5  A    between atoms: C_8  and  C_34
    6  A    between atoms: C_11  and  C_14
    7  A    between atoms: C_14  and  C_22
    8  A    between atoms: C_15  and  C_42
    9  A    between atoms: C_19  and  O_37
   10  A    between atoms: C_34  and  C_38
                            x       y       z     vdW  Elec       q    Type
                         _______ _______ _______ _____ _____    ______ ____

>  <TORSDO>
F 10

$$$$
=
 OpenBabel11062410313D

 43 47  0  0  1  0  0  0  0  0999 V2000
  160.7650  207.9310  154.0520 C   0  0  0  0  0  2  0  0  0  0  0  0
  161.5460  209.1360  153.5040 C   0  0  1  0  0  3  0  0  0  0  0  0
  161.1640  206.6430  153.3380 C   0  0  0  0  0  2  0  0  0  0  0  0
  161.9560  208.9980  152.0300 C   0  0  0  0  0  2  0  0  0  0  0  0
  160.9660  208.1390  151.2430 C   0  0  0  0  0  2  0  0  0  0  0  0
  160.8360  206.7230  151.8390 C   0  0  1  0  0  3  0  0  0  0  0  0
  159.7220  210.7680  152.8370 N   0  0  0  0  0  2  0  0  0  0  0  0
  160.7870  210.4030  153.7220 C   0  0  0  0  0  0  0  0  0  0  0  0
  161.1150  211.1600  154.6740 O   0  0  0  0  0  0  0  0  0  0  0  0
  158.9570  212.0010  152.9770 C   0  0  0  0  0  2  0  0  0  0  0  0
  160.1770  212.7400  150.8900 N   0  0  0  0  0  2  0  0  0  0  0  0
  158.0120  213.4980  151.3950 O   0  0  0  0  0  0  0  0  0  0  0  0
  159.0070  212.7960  151.7170 C   0  0  0  0  0  0  0  0  0  0  0  0
  160.3730  213.4290  149.6490 C   0  0  0  0  0  0  0  0  0  0  0  0
  161.4370  213.2360  149.0020 O   0  0  0  0  0  0  0  0  0  0  0  0
  159.3570  214.3810  149.1030 C   0  0  0  0  0  2  0  0  0  0  0  0
  158.8450  213.9070  147.7820 C   0  0  0  0  0  0  0  0  0  0  0  0
  158.9900  213.9520  145.2870 C   0  0  0  0  0  2  0  0  0  0  0  0
  157.2470  212.5500  146.3480 C   0  0  0  0  0  2  0  0  0  0  0  0
  158.3580  212.5650  145.3080 C   0  0  0  0  0  2  0  0  0  0  0  0
  157.8310  212.7840  147.7430 C   0  0  0  0  0  2  0  0  0  0  0  0
  159.4240  214.3780  146.6650 C   0  0  0  0  0  3  0  0  0  0  0  0
  161.6000  205.6520  151.0470 C   0  0  2  0  0  3  0  0  0  0  0  0
  161.6080  205.4170  144.5260 C   0  0  0  0  0  0  0  0  0  0  0  0
  161.3880  205.7310  149.5580 C   0  0  0  0  0  0  0  0  0  0  0  0
  160.9110  205.8820  146.7970 C   0  0  0  0  0  0  0  0  0  0  0  0
  162.7740  204.8110  145.0040 C   0  0  0  0  0  3  0  0  0  0  0  0
  161.3780  205.4840  143.1930 F   0  0  0  0  0  0  0  0  0  0  0  0
  162.0900  205.2700  147.2800 C   0  0  0  0  0  0  0  0  0  0  0  0
  160.6760  205.9520  145.4220 C   0  0  0  0  0  3  0  0  0  0  0  0
  163.0160  204.7370  146.3800 C   0  0  0  0  0  3  0  0  0  0  0  0
  162.3220  205.1960  148.6560 C   0  0  0  0  0  3  0  0  0  0  0  0
  160.2230  206.3370  149.0730 C   0  0  0  0  0  3  0  0  0  0  0  0
  159.9840  206.4140  147.6980 C   0  0  0  0  0  3  0  0  0  0  0  0
  161.3480  204.2550  151.6090 C   0  0  0  0  0  2  0  0  0  0  0  0
  161.5450  200.8650  150.0460 C   0  0  0  0  0  2  0  0  0  0  0  0
  160.7190  201.2520  148.8130 C   0  0  1  0  0  3  0  0  0  0  0  0
  159.7720  203.0180  150.3970 C   0  0  0  0  0  2  0  0  0  0  0  0
  161.8740  202.0660  150.9540 C   0  0  0  0  0  2  0  0  0  0  0  0
  161.2000  203.2950  150.5270 N   0  0  0  0  0  0  0  0  0  0  0  0
  159.5070  202.1140  149.1910 C   0  0  0  0  0  2  0  0  0  0  0  0
  160.8400  201.8390  146.6800 C   0  0  0  0  0  1  0  0  0  0  0  0
  161.5230  201.9330  147.8940 O   0  0  0  0  0  0  0  0  0  0  0  0
  2  8  1  6  0  0  0
  2  1  1  0  0  0  0
  3  1  1  0  0  0  0
  4  2  1  0  0  0  0
  5  6  1  0  0  0  0
  5  4  1  0  0  0  0
  6 23  1  6  0  0  0
  6  3  1  0  0  0  0
  7 10  1  0  0  0  0
  7  8  1  0  0  0  0
  8  9  2  0  0  0  0
 11 13  1  0  0  0  0
 12 13  2  0  0  0  0
 13 10  1  0  0  0  0
 14 11  1  0  0  0  0
 15 14  2  0  0  0  0
 16 14  1  0  0  0  0
 17 16  1  0  0  0  0
 18 20  1  0  0  0  0
 18 22  1  0  0  0  0
 19 21  1  0  0  0  0
 20 19  1  0  0  0  0
 21 17  1  0  0  0  0
 22 17  2  0  0  0  0
 23 35  1  1  0  0  0
 24 27  2  0  0  0  0
 24 30  1  0  0  0  0
 25 23  1  0  0  0  0
 26 29  1  0  0  0  0
 26 34  1  0  0  0  0
 27 31  1  0  0  0  0
 28 24  1  0  0  0  0
 29 32  1  0  0  0  0
 30 26  2  0  0  0  0
 31 29  2  0  0  0  0
 32 25  2  0  0  0  0
 33 25  1  0  0  0  0
 34 33  2  0  0  0  0
 36 39  1  0  0  0  0
 37 43  1  6  0  0  0
 37 41  1  0  0  0  0
 37 36  1  0  0  0  0
 38 40  1  0  0  0  0
 40 39  1  0  0  0  0
 40 35  1  0  0  0  0
 41 38  1  0  0  0  0
 42 43  1  0  0  0  0
M  END
>  <MODEL>
2

>  <REMARK>
 VINA RESULT:      -8.3      3.997      7.270
  Name = 
  10 active torsions:
  status: ('A' for Active; 'I' for Inactive)
    1  A    between atoms: C_1  and  C_34
    2  A    between atoms: C_1  and  N_35
    3  A    between atoms: N_3  and  C_42
    4  A    between atoms: C_6  and  C_12
    5  A    between atoms: C_8  and  C_34
    6  A    between atoms: C_11  and  C_14
    7  A    between atoms: C_14  and  C_22
    8  A    between atoms: C_15  and  C_42
    9  A    between atoms: C_19  and  O_37
   10  A    between atoms: C_34  and  C_38
                            x       y       z     vdW  Elec       q    Type
                         _______ _______ _______ _____ _____    ______ ____

>  <TORSDO>
F 10

$$$$
=
 OpenBabel11062410313D

 43 47  0  0  1  0  0  0  0  0999 V2000
  161.9510  210.6520  151.3980 C   0  0  0  0  0  2  0  0  0  0  0  0
  162.3330  210.1910  149.9820 C   0  0  1  0  0  3  0  0  0  0  0  0
  162.1120  209.5220  152.4090 C   0  0  0  0  0  2  0  0  0  0  0  0
  162.0940  208.6950  149.7260 C   0  0  0  0  0  2  0  0  0  0  0  0
  160.9370  208.1530  150.5630 C   0  0  0  0  0  2  0  0  0  0  0  0
  161.1800  208.3470  152.0740 C   0  0  1  0  0  3  0  0  0  0  0  0
  161.4860  212.4290  149.1390 N   0  0  0  0  0  2  0  0  0  0  0  0
  161.6390  211.0180  148.9510 C   0  0  0  0  0  0  0  0  0  0  0  0
  161.1620  210.4540  147.9310 O   0  0  0  0  0  0  0  0  0  0  0  0
  160.7990  213.2900  148.1850 C   0  0  0  0  0  2  0  0  0  0  0  0
  160.5410  212.9840  145.6880 N   0  0  0  0  0  2  0  0  0  0  0  0
  162.6500  213.1930  146.7010 O   0  0  0  0  0  0  0  0  0  0  0  0
  161.3980  213.1510  146.8260 C   0  0  0  0  0  0  0  0  0  0  0  0
  160.9570  212.8530  144.3240 C   0  0  0  0  0  0  0  0  0  0  0  0
  160.0830  212.7700  143.4210 O   0  0  0  0  0  0  0  0  0  0  0  0
  162.4020  212.7980  143.9400 C   0  0  0  0  0  2  0  0  0  0  0  0
  162.5660  213.0100  142.4700 C   0  0  0  0  0  0  0  0  0  0  0  0
  163.3620  214.4520  140.5900 C   0  0  0  0  0  2  0  0  0  0  0  0
  162.2710  212.2960  140.0500 C   0  0  0  0  0  2  0  0  0  0  0  0
  163.4830  213.1730  139.7700 C   0  0  0  0  0  2  0  0  0  0  0  0
  162.2590  211.8720  141.5210 C   0  0  0  0  0  2  0  0  0  0  0  0
  163.1400  214.1500  142.0480 C   0  0  0  0  0  3  0  0  0  0  0  0
  161.6210  207.0660  152.7940 C   0  0  2  0  0  3  0  0  0  0  0  0
  160.8790  202.2150  148.4930 C   0  0  0  0  0  0  0  0  0  0  0  0
  161.3790  205.8090  152.0000 C   0  0  0  0  0  0  0  0  0  0  0  0
  160.9470  203.4220  150.5900 C   0  0  0  0  0  0  0  0  0  0  0  0
  161.2330  203.3810  147.8060 C   0  0  0  0  0  3  0  0  0  0  0  0
  160.6760  201.0630  147.8100 F   0  0  0  0  0  0  0  0  0  0  0  0
  161.3040  204.6000  149.8960 C   0  0  0  0  0  0  0  0  0  0  0  0
  160.7370  202.2350  149.8850 C   0  0  0  0  0  3  0  0  0  0  0  0
  161.4450  204.5730  148.5060 C   0  0  0  0  0  3  0  0  0  0  0  0
  161.5200  205.7850  150.6040 C   0  0  0  0  0  3  0  0  0  0  0  0
  161.0230  204.6390  152.6810 C   0  0  0  0  0  3  0  0  0  0  0  0
  160.8070  203.4490  151.9810 C   0  0  0  0  0  3  0  0  0  0  0  0
  161.0490  206.9940  154.2080 C   0  0  0  0  0  2  0  0  0  0  0  0
  159.6380  209.8190  156.2080 C   0  0  0  0  0  2  0  0  0  0  0  0
  160.9800  210.5470  156.3530 C   0  0  1  0  0  3  0  0  0  0  0  0
  161.9270  208.1990  156.0140 C   0  0  0  0  0  2  0  0  0  0  0  0
  159.7100  208.6010  155.2670 C   0  0  0  0  0  2  0  0  0  0  0  0
  161.0780  208.3070  154.8310 N   0  0  0  0  0  0  0  0  0  0  0  0
  162.1230  209.5710  156.6630 C   0  0  0  0  0  2  0  0  0  0  0  0
  160.2070  212.1660  155.0530 C   0  0  0  0  0  1  0  0  0  0  0  0
  161.2640  211.2630  155.1860 O   0  0  0  0  0  0  0  0  0  0  0  0
  1  3  1  0  0  0  0
  2  8  1  6  0  0  0
  2  1  1  0  0  0  0
  4  2  1  0  0  0  0
  4  5  1  0  0  0  0
  5  6  1  0  0  0  0
  6  3  1  0  0  0  0
  6 23  1  6  0  0  0
  8  7  1  0  0  0  0
  9  8  2  0  0  0  0
 10  7  1  0  0  0  0
 11 13  1  0  0  0  0
 12 13  2  0  0  0  0
 13 10  1  0  0  0  0
 14 11  1  0  0  0  0
 15 14  2  0  0  0  0
 16 14  1  0  0  0  0
 17 16  1  0  0  0  0
 18 22  1  0  0  0  0
 19 21  1  0  0  0  0
 20 19  1  0  0  0  0
 20 18  1  0  0  0  0
 21 17  1  0  0  0  0
 22 17  2  0  0  0  0
 23 35  1  1  0  0  0
 24 30  1  0  0  0  0
 25 33  1  0  0  0  0
 25 23  1  0  0  0  0
 26 34  1  0  0  0  0
 27 24  2  0  0  0  0
 27 31  1  0  0  0  0
 28 24  1  0  0  0  0
 29 26  1  0  0  0  0
 29 32  1  0  0  0  0
 30 26  2  0  0  0  0
 31 29  2  0  0  0  0
 32 25  2  0  0  0  0
 34 33  2  0  0  0  0
 35 40  1  0  0  0  0
 36 37  1  0  0  0  0
 37 43  1  6  0  0  0
 37 41  1  0  0  0  0
 38 41  1  0  0  0  0
 39 36  1  0  0  0  0
 40 39  1  0  0  0  0
 40 38  1  0  0  0  0
 42 43  1  0  0  0  0
M  END
>  <MODEL>
3

>  <REMARK>
 VINA RESULT:      -8.3      1.377      2.149
  Name = 
  10 active torsions:
  status: ('A' for Active; 'I' for Inactive)
    1  A    between atoms: C_1  and  C_34
    2  A    between atoms: C_1  and  N_35
    3  A    between atoms: N_3  and  C_42
    4  A    between atoms: C_6  and  C_12
    5  A    between atoms: C_8  and  C_34
    6  A    between atoms: C_11  and  C_14
    7  A    between atoms: C_14  and  C_22
    8  A    between atoms: C_15  and  C_42
    9  A    between atoms: C_19  and  O_37
   10  A    between atoms: C_34  and  C_38
                            x       y       z     vdW  Elec       q    Type
                         _______ _______ _______ _____ _____    ______ ____

>  <TORSDO>
F 10

$$$$
=
 OpenBabel11062410313D

 43 47  0  0  1  0  0  0  0  0999 V2000
  161.6470  207.0850  154.1060 C   0  0  0  0  0  2  0  0  0  0  0  0
  160.7560  206.3940  153.0620 C   0  0  1  0  0  3  0  0  0  0  0  0
  161.2250  208.5340  154.3220 C   0  0  0  0  0  2  0  0  0  0  0  0
  160.1840  207.3460  152.0000 C   0  0  0  0  0  2  0  0  0  0  0  0
  161.1120  208.5330  151.7420 C   0  0  0  0  0  2  0  0  0  0  0  0
  161.3720  209.3470  153.0260 C   0  0  1  0  0  3  0  0  0  0  0  0
  160.8510  203.9790  152.2920 N   0  0  0  0  0  2  0  0  0  0  0  0
  161.4790  205.2600  152.4150 C   0  0  0  0  0  0  0  0  0  0  0  0
  162.6580  205.4350  152.0080 O   0  0  0  0  0  0  0  0  0  0  0  0
  161.5080  202.8230  151.6940 C   0  0  0  0  0  2  0  0  0  0  0  0
  161.5880  201.5470  149.5130 N   0  0  0  0  0  2  0  0  0  0  0  0
  160.2300  203.4440  149.7920 O   0  0  0  0  0  0  0  0  0  0  0  0
  161.0650  202.6390  150.2820 C   0  0  0  0  0  0  0  0  0  0  0  0
  161.2530  201.2280  148.1570 C   0  0  0  0  0  0  0  0  0  0  0  0
  161.7510  200.1980  147.6290 O   0  0  0  0  0  0  0  0  0  0  0  0
  160.3380  202.0870  147.3450 C   0  0  0  0  0  2  0  0  0  0  0  0
  161.1130  203.1130  146.5830 C   0  0  0  0  0  0  0  0  0  0  0  0
  161.4460  204.4180  144.4780 C   0  0  0  0  0  2  0  0  0  0  0  0
  163.0130  204.7840  146.3610 C   0  0  0  0  0  2  0  0  0  0  0  0
  162.1220  205.4790  145.3410 C   0  0  0  0  0  2  0  0  0  0  0  0
  162.1630  203.9300  147.3050 C   0  0  0  0  0  2  0  0  0  0  0  0
  160.7390  203.3920  145.3230 C   0  0  0  0  0  3  0  0  0  0  0  0
  160.5700  210.6540  153.0960 C   0  0  2  0  0  3  0  0  0  0  0  0
  161.6970  213.5430  147.3560 C   0  0  0  0  0  0  0  0  0  0  0  0
  160.6640  211.4930  151.8500 C   0  0  0  0  0  0  0  0  0  0  0  0
  160.7620  213.0840  149.5410 C   0  0  0  0  0  0  0  0  0  0  0  0
  162.5340  212.4290  147.4750 C   0  0  0  0  0  3  0  0  0  0  0  0
  161.7430  214.3070  146.2380 F   0  0  0  0  0  0  0  0  0  0  0  0
  161.6070  211.9580  149.6620 C   0  0  0  0  0  0  0  0  0  0  0  0
  160.8110  213.8710  148.3880 C   0  0  0  0  0  3  0  0  0  0  0  0
  162.4900  211.6360  148.6270 C   0  0  0  0  0  3  0  0  0  0  0  0
  161.5530  211.1690  150.8130 C   0  0  0  0  0  3  0  0  0  0  0  0
  159.8310  212.6110  151.7250 C   0  0  0  0  0  3  0  0  0  0  0  0
  159.8780  213.4050  150.5760 C   0  0  0  0  0  3  0  0  0  0  0  0
  160.8900  211.4390  154.3670 C   0  0  0  0  0  2  0  0  0  0  0  0
  157.5330  211.4800  156.0090 C   0  0  0  0  0  2  0  0  0  0  0  0
  157.5160  213.0000  156.2140 C   0  0  1  0  0  3  0  0  0  0  0  0
  160.0540  212.7160  156.1430 C   0  0  0  0  0  2  0  0  0  0  0  0
  158.7340  210.9960  155.1760 C   0  0  0  0  0  2  0  0  0  0  0  0
  159.6880  212.0700  154.8850 N   0  0  0  0  0  0  0  0  0  0  0  0
  158.8760  213.5210  156.6980 C   0  0  0  0  0  2  0  0  0  0  0  0
  155.7580  213.6730  155.0460 C   0  0  0  0  0  1  0  0  0  0  0  0
  157.1540  213.6380  155.0240 O   0  0  0  0  0  0  0  0  0  0  0  0
  1  3  1  0  0  0  0
  2  8  1  6  0  0  0
  2  1  1  0  0  0  0
  4  2  1  0  0  0  0
  5  4  1  0  0  0  0
  5  6  1  0  0  0  0
  6 23  1  1  0  0  0
  6  3  1  0  0  0  0
  7  8  1  0  0  0  0
  9  8  2  0  0  0  0
 10  7  1  0  0  0  0
 11 13  1  0  0  0  0
 12 13  2  0  0  0  0
 13 10  1  0  0  0  0
 14 11  1  0  0  0  0
 15 14  2  0  0  0  0
 16 14  1  0  0  0  0
 17 21  1  0  0  0  0
 17 16  1  0  0  0  0
 18 22  1  0  0  0  0
 18 20  1  0  0  0  0
 19 21  1  0  0  0  0
 20 19  1  0  0  0  0
 22 17  2  0  0  0  0
 23 35  1  1  0  0  0
 24 27  2  0  0  0  0
 24 30  1  0  0  0  0
 25 23  1  0  0  0  0
 26 29  1  0  0  0  0
 26 34  1  0  0  0  0
 27 31  1  0  0  0  0
 28 24  1  0  0  0  0
 29 32  1  0  0  0  0
 30 26  2  0  0  0  0
 31 29  2  0  0  0  0
 32 25  2  0  0  0  0
 33 25  1  0  0  0  0
 34 33  2  0  0  0  0
 35 40  1  0  0  0  0
 36 37  1  0  0  0  0
 37 43  1  6  0  0  0
 37 41  1  0  0  0  0
 38 41  1  0  0  0  0
 39 36  1  0  0  0  0
 40 39  1  0  0  0  0
 40 38  1  0  0  0  0
 43 42  1  0  0  0  0
M  END
>  <MODEL>
4

>  <REMARK>
 VINA RESULT:      -7.2      5.417      8.568
  Name = 
  10 active torsions:
  status: ('A' for Active; 'I' for Inactive)
    1  A    between atoms: C_1  and  C_34
    2  A    between atoms: C_1  and  N_35
    3  A    between atoms: N_3  and  C_42
    4  A    between atoms: C_6  and  C_12
    5  A    between atoms: C_8  and  C_34
    6  A    between atoms: C_11  and  C_14
    7  A    between atoms: C_14  and  C_22
    8  A    between atoms: C_15  and  C_42
    9  A    between atoms: C_19  and  O_37
   10  A    between atoms: C_34  and  C_38
                            x       y       z     vdW  Elec       q    Type
                         _______ _______ _______ _____ _____    ______ ____

>  <TORSDO>
F 10

$$$$
=
 OpenBabel11062410313D

 43 47  0  0  1  0  0  0  0  0999 V2000
  161.4930  205.1250  153.1230 C   0  0  0  0  0  2  0  0  0  0  0  0
  160.4920  204.6850  152.0430 C   0  0  1  0  0  3  0  0  0  0  0  0
  161.3470  206.6090  153.4410 C   0  0  0  0  0  2  0  0  0  0  0  0
  160.1090  205.7980  151.0550 C   0  0  0  0  0  2  0  0  0  0  0  0
  161.2410  206.8070  150.8690 C   0  0  0  0  0  2  0  0  0  0  0  0
  161.6450  207.4680  152.2020 C   0  0  1  0  0  3  0  0  0  0  0  0
  160.1390  202.7810  150.4040 N   0  0  0  0  0  2  0  0  0  0  0  0
  160.9930  203.4840  151.3130 C   0  0  0  0  0  0  0  0  0  0  0  0
  162.1660  203.0770  151.5310 O   0  0  0  0  0  0  0  0  0  0  0  0
  160.5560  201.5880  149.6790 C   0  0  0  0  0  2  0  0  0  0  0  0
  160.2190  201.4870  147.1750 N   0  0  0  0  0  2  0  0  0  0  0  0
  162.0260  202.6390  148.1380 O   0  0  0  0  0  0  0  0  0  0  0  0
  160.9910  201.9400  148.2960 C   0  0  0  0  0  0  0  0  0  0  0  0
  160.4940  201.7510  145.7940 C   0  0  0  0  0  0  0  0  0  0  0  0
  159.6900  201.3330  144.9180 O   0  0  0  0  0  0  0  0  0  0  0  0
  161.7140  202.4980  145.3580 C   0  0  0  0  0  2  0  0  0  0  0  0
  161.5290  203.9690  145.5480 C   0  0  0  0  0  0  0  0  0  0  0  0
  160.1850  206.0310  145.1170 C   0  0  0  0  0  2  0  0  0  0  0  0
  162.2580  206.2250  146.4580 C   0  0  0  0  0  2  0  0  0  0  0  0
  160.7810  206.5890  146.4050 C   0  0  0  0  0  2  0  0  0  0  0  0
  162.4220  204.7050  146.5230 C   0  0  0  0  0  2  0  0  0  0  0  0
  160.4670  204.5590  144.9740 C   0  0  0  0  0  3  0  0  0  0  0  0
  161.0990  208.8930  152.3700 C   0  0  2  0  0  3  0  0  0  0  0  0
  161.6900  213.5280  147.8160 C   0  0  0  0  0  0  0  0  0  0  0  0
  161.3490  209.7840  151.1820 C   0  0  0  0  0  0  0  0  0  0  0  0
  161.8820  211.3980  148.9500 C   0  0  0  0  0  0  0  0  0  0  0  0
  160.9660  214.0430  148.8970 C   0  0  0  0  0  3  0  0  0  0  0  0
  161.9490  214.3110  146.7420 F   0  0  0  0  0  0  0  0  0  0  0  0
  161.1500  211.9180  150.0420 C   0  0  0  0  0  0  0  0  0  0  0  0
  162.1480  212.2070  147.8430 C   0  0  0  0  0  3  0  0  0  0  0  0
  160.6960  213.2390  150.0100 C   0  0  0  0  0  3  0  0  0  0  0  0
  160.8890  211.1100  151.1520 C   0  0  0  0  0  3  0  0  0  0  0  0
  162.0710  209.2750  150.0970 C   0  0  0  0  0  3  0  0  0  0  0  0
  162.3370  210.0770  148.9830 C   0  0  0  0  0  3  0  0  0  0  0  0
  161.5570  209.5160  153.6870 C   0  0  0  0  0  2  0  0  0  0  0  0
  159.1110  210.2140  156.4260 C   0  0  0  0  0  2  0  0  0  0  0  0
  158.6680  211.5650  155.8520 C   0  0  1  0  0  3  0  0  0  0  0  0
  160.9860  211.5070  154.7780 C   0  0  0  0  0  2  0  0  0  0  0  0
  160.0590  209.4410  155.4890 C   0  0  0  0  0  2  0  0  0  0  0  0
  160.4570  210.2270  154.3180 N   0  0  0  0  0  0  0  0  0  0  0  0
  159.8630  212.3830  155.3420 C   0  0  0  0  0  2  0  0  0  0  0  0
  156.5420  211.0800  155.4650 C   0  0  0  0  0  1  0  0  0  0  0  0
  157.7470  211.3670  154.8200 O   0  0  0  0  0  0  0  0  0  0  0  0
  1  3  1  0  0  0  0
  2  8  1  6  0  0  0
  2  1  1  0  0  0  0
  4  2  1  0  0  0  0
  5  4  1  0  0  0  0
  5  6  1  0  0  0  0
  6 23  1  1  0  0  0
  6  3  1  0  0  0  0
  7  8  1  0  0  0  0
  8  9  2  0  0  0  0
 10  7  1  0  0  0  0
 11 13  1  0  0  0  0
 12 13  2  0  0  0  0
 13 10  1  0  0  0  0
 14 11  1  0  0  0  0
 15 14  2  0  0  0  0
 16 17  1  0  0  0  0
 16 14  1  0  0  0  0
 17 21  1  0  0  0  0
 18 20  1  0  0  0  0
 19 21  1  0  0  0  0
 20 19  1  0  0  0  0
 22 18  1  0  0  0  0
 22 17  2  0  0  0  0
 23 35  1  1  0  0  0
 24 30  2  0  0  0  0
 24 27  1  0  0  0  0
 25 23  1  0  0  0  0
 26 34  2  0  0  0  0
 26 29  1  0  0  0  0
 27 31  2  0  0  0  0
 28 24  1  0  0  0  0
 29 32  2  0  0  0  0
 30 26  1  0  0  0  0
 31 29  1  0  0  0  0
 32 25  1  0  0  0  0
 33 25  2  0  0  0  0
 34 33  1  0  0  0  0
 35 40  1  0  0  0  0
 37 43  1  6  0  0  0
 37 36  1  0  0  0  0
 38 41  1  0  0  0  0
 39 36  1  0  0  0  0
 40 38  1  0  0  0  0
 40 39  1  0  0  0  0
 41 37  1  0  0  0  0
 43 42  1  0  0  0  0
M  END
>  <MODEL>
5

>  <REMARK>
 VINA RESULT:      -6.8      5.344      8.144
  Name = 
  10 active torsions:
  status: ('A' for Active; 'I' for Inactive)
    1  A    between atoms: C_1  and  C_34
    2  A    between atoms: C_1  and  N_35
    3  A    between atoms: N_3  and  C_42
    4  A    between atoms: C_6  and  C_12
    5  A    between atoms: C_8  and  C_34
    6  A    between atoms: C_11  and  C_14
    7  A    between atoms: C_14  and  C_22
    8  A    between atoms: C_15  and  C_42
    9  A    between atoms: C_19  and  O_37
   10  A    between atoms: C_34  and  C_38
                            x       y       z     vdW  Elec       q    Type
                         _______ _______ _______ _____ _____    ______ ____

>  <TORSDO>
F 10

$$$$
=
 OpenBabel11062410313D

 43 47  0  0  1  0  0  0  0  0999 V2000
  160.6030  208.7840  152.2930 C   0  0  0  0  0  2  0  0  0  0  0  0
  160.3080  208.1570  153.6650 C   0  0  1  0  0  3  0  0  0  0  0  0
  160.8610  207.7120  151.2390 C   0  0  0  0  0  2  0  0  0  0  0  0
  160.9900  206.7990  153.8920 C   0  0  0  0  0  2  0  0  0  0  0  0
  162.3040  206.6870  153.1190 C   0  0  0  0  0  2  0  0  0  0  0  0
  162.0950  206.8710  151.6020 C   0  0  1  0  0  3  0  0  0  0  0  0
  159.8110  209.2040  155.9220 N   0  0  0  0  0  2  0  0  0  0  0  0
  160.6500  209.1060  154.7650 C   0  0  0  0  0  0  0  0  0  0  0  0
  161.6650  209.8430  154.6490 O   0  0  0  0  0  0  0  0  0  0  0  0
  160.0720  210.1260  157.0200 C   0  0  0  0  0  2  0  0  0  0  0  0
  157.9570  211.5100  157.0340 N   0  0  0  0  0  2  0  0  0  0  0  0
  160.0300  212.4200  156.4090 O   0  0  0  0  0  0  0  0  0  0  0  0
  159.3680  211.4210  156.7960 C   0  0  0  0  0  0  0  0  0  0  0  0
  157.1420  212.6790  156.8810 C   0  0  0  0  0  0  0  0  0  0  0  0
  155.9210  212.6190  157.1850 O   0  0  0  0  0  0  0  0  0  0  0  0
  157.6960  213.9660  156.3600 C   0  0  0  0  0  2  0  0  0  0  0  0
  157.4220  214.1060  154.8970 C   0  0  0  0  0  0  0  0  0  0  0  0
  158.2910  214.4420  152.5780 C   0  0  0  0  0  2  0  0  0  0  0  0
  155.8470  214.2180  152.9080 C   0  0  0  0  0  2  0  0  0  0  0  0
  157.0340  213.7270  152.0930 C   0  0  0  0  0  2  0  0  0  0  0  0
  156.0260  213.8360  154.3790 C   0  0  0  0  0  2  0  0  0  0  0  0
  158.4610  214.3030  154.0680 C   0  0  0  0  0  3  0  0  0  0  0  0
  162.1190  205.5530  150.8160 C   0  0  2  0  0  3  0  0  0  0  0  0
  161.5020  205.5740  144.3200 C   0  0  0  0  0  0  0  0  0  0  0  0
  161.7790  205.7090  149.3570 C   0  0  0  0  0  0  0  0  0  0  0  0
  161.0650  206.0100  146.6610 C   0  0  0  0  0  0  0  0  0  0  0  0
  162.6470  204.8490  144.6650 C   0  0  0  0  0  3  0  0  0  0  0  0
  161.1580  205.7140  143.0180 F   0  0  0  0  0  0  0  0  0  0  0  0
  162.2220  205.2770  147.0100 C   0  0  0  0  0  0  0  0  0  0  0  0
  160.7110  206.1550  145.3170 C   0  0  0  0  0  3  0  0  0  0  0  0
  163.0080  204.6990  146.0090 C   0  0  0  0  0  3  0  0  0  0  0  0
  162.5720  205.1290  148.3540 C   0  0  0  0  0  3  0  0  0  0  0  0
  160.6360  206.4350  149.0050 C   0  0  0  0  0  3  0  0  0  0  0  0
  160.2790  206.5880  147.6620 C   0  0  0  0  0  3  0  0  0  0  0  0
  161.2890  204.4740  151.5070 C   0  0  0  0  0  2  0  0  0  0  0  0
  161.2070  200.8190  150.7280 C   0  0  0  0  0  2  0  0  0  0  0  0
  160.5960  201.0060  149.3340 C   0  0  1  0  0  3  0  0  0  0  0  0
  159.7150  203.1730  150.3610 C   0  0  0  0  0  2  0  0  0  0  0  0
  161.5860  202.1500  151.4050 C   0  0  0  0  0  2  0  0  0  0  0  0
  161.1420  203.3180  150.6380 N   0  0  0  0  0  0  0  0  0  0  0  0
  159.4760  202.0550  149.3430 C   0  0  0  0  0  2  0  0  0  0  0  0
  160.9000  201.6950  147.2510 C   0  0  0  0  0  1  0  0  0  0  0  0
  161.5890  201.3730  148.4220 O   0  0  0  0  0  0  0  0  0  0  0  0
  1  2  1  0  0  0  0
  2  4  1  0  0  0  0
  2  8  1  1  0  0  0
  3  6  1  0  0  0  0
  3  1  1  0  0  0  0
  5  4  1  0  0  0  0
  6 23  1  6  0  0  0
  6  5  1  0  0  0  0
  7 10  1  0  0  0  0
  8  7  1  0  0  0  0
  9  8  2  0  0  0  0
 12 13  2  0  0  0  0
 13 10  1  0  0  0  0
 13 11  1  0  0  0  0
 14 11  1  0  0  0  0
 14 15  2  0  0  0  0
 16 14  1  0  0  0  0
 17 16  1  0  0  0  0
 18 22  1  0  0  0  0
 19 21  1  0  0  0  0
 20 18  1  0  0  0  0
 20 19  1  0  0  0  0
 21 17  1  0  0  0  0
 22 17  2  0  0  0  0
 23 35  1  1  0  0  0
 24 27  2  0  0  0  0
 24 30  1  0  0  0  0
 25 23  1  0  0  0  0
 26 29  1  0  0  0  0
 26 34  1  0  0  0  0
 27 31  1  0  0  0  0
 28 24  1  0  0  0  0
 29 32  1  0  0  0  0
 30 26  2  0  0  0  0
 31 29  2  0  0  0  0
 32 25  2  0  0  0  0
 33 25  1  0  0  0  0
 34 33  2  0  0  0  0
 36 39  1  0  0  0  0
 37 43  1  6  0  0  0
 37 41  1  0  0  0  0
 37 36  1  0  0  0  0
 38 40  1  0  0  0  0
 40 39  1  0  0  0  0
 40 35  1  0  0  0  0
 41 38  1  0  0  0  0
 42 43  1  0  0  0  0
M  END
>  <MODEL>
6

>  <REMARK>
 VINA RESULT:      -6.4      5.533      9.956
  Name = 
  10 active torsions:
  status: ('A' for Active; 'I' for Inactive)
    1  A    between atoms: C_1  and  C_34
    2  A    between atoms: C_1  and  N_35
    3  A    between atoms: N_3  and  C_42
    4  A    between atoms: C_6  and  C_12
    5  A    between atoms: C_8  and  C_34
    6  A    between atoms: C_11  and  C_14
    7  A    between atoms: C_14  and  C_22
    8  A    between atoms: C_15  and  C_42
    9  A    between atoms: C_19  and  O_37
   10  A    between atoms: C_34  and  C_38
                            x       y       z     vdW  Elec       q    Type
                         _______ _______ _______ _____ _____    ______ ____

>  <TORSDO>
F 10

$$$$
