=
 OpenBabel11062408043D

 34 39  0  0  1  0  0  0  0  0999 V2000
  162.3190  209.7920  155.5560 C   0  0  2  0  0  3  0  0  0  0  0  0
  159.7920  209.4580  155.3880 C   0  0  1  0  0  3  0  0  0  0  0  0
  161.3450  208.6500  153.5820 C   0  0  0  0  0  0  0  0  0  0  0  0
  161.5210  207.2300  151.6440 C   0  0  0  0  0  0  0  0  0  0  0  0
  160.7600  210.8040  157.2600 C   0  0  0  0  0  2  0  0  0  0  0  0
  159.6790  209.8050  156.8680 C   0  0  0  0  0  2  0  0  0  0  0  0
  161.1110  206.2830  153.8400 C   0  0  0  0  0  3  0  0  0  0  0  0
  161.1790  208.8710  155.0660 C   0  0  1  0  0  3  0  0  0  0  0  0
  161.0890  205.0030  153.2840 C   0  0  0  0  0  3  0  0  0  0  0  0
  161.4970  205.9440  151.0970 C   0  0  0  0  0  3  0  0  0  0  0  0
  162.1380  210.1960  157.0190 C   0  0  0  0  0  2  0  0  0  0  0  0
  161.5910  209.8950  152.7540 C   0  0  2  0  0  3  0  0  0  0  0  0
  162.4770  211.0230  154.6540 C   0  0  0  0  0  2  0  0  0  0  0  0
  158.6920  208.4690  155.0430 C   0  0  0  0  0  1  0  0  0  0  0  0
  161.7340  208.2620  150.8290 C   0  0  0  0  0  3  0  0  0  0  0  0
  161.7740  209.6070  151.3290 N   0  0  0  0  0  0  0  0  0  0  0  0
  161.2820  204.8270  151.9070 C   0  0  0  0  0  0  0  0  0  0  0  0
  161.3230  207.4150  153.0340 C   0  0  0  0  0  0  0  0  0  0  0  0
  162.7590  210.6070  153.2790 N   0  0  0  0  0  2  0  0  0  0  0  0
  160.7990  212.7710  149.5080 C   0  0  0  0  0  0  0  0  0  0  0  0
  161.3570  212.4840  148.2560 O   0  0  0  0  0  0  0  0  0  0  0  0
  161.9280  210.7260  150.4050 C   0  0  2  0  0  3  0  0  0  0  0  0
  162.2910  211.4220  148.0610 C   0  0  0  0  0  2  0  0  0  0  0  0
  160.8140  211.7540  150.6080 C   0  0  0  0  0  2  0  0  0  0  0  0
  161.9700  210.2370  148.9610 C   0  0  0  0  0  2  0  0  0  0  0  0
  160.1790  213.8890  149.6860 N   0  0  0  0  0  2  0  0  0  0  0  0
  161.2680  203.5590  151.3200 O   0  0  0  0  0  0  0  0  0  0  0  0
  160.4860  203.2520  150.1730 C   0  0  0  0  0  2  0  0  0  0  0  0
  162.0270  203.8930  147.1400 C   0  0  0  0  0  1  0  0  0  0  0  0
  160.9380  203.0250  147.7370 C   0  0  2  0  0  3  0  0  0  0  0  0
  161.2800  200.6180  147.7340 C   0  0  0  0  0  2  0  0  0  0  0  0
  161.1500  201.0750  149.1670 C   0  0  0  0  0  2  0  0  0  0  0  0
  161.3500  202.5750  149.1260 C   0  0  2  0  0  3  0  0  0  0  0  0
  160.7670  201.7710  146.8970 C   0  0  0  0  0  2  0  0  0  0  0  0
  1 13  1  6  0  0  0
  1 11  1  0  0  0  0
  2 14  1  1  0  0  0
  2  6  1  0  0  0  0
  4 18  1  0  0  0  0
  6  5  1  0  0  0  0
  8  3  1  6  0  0  0
  8  2  1  0  0  0  0
  8  1  1  0  0  0  0
  9  7  2  0  0  0  0
 10  4  1  0  0  0  0
 10 17  2  0  0  0  0
 11  5  1  0  0  0  0
 12 19  1  1  0  0  0
 12  3  1  0  0  0  0
 15 16  1  0  0  0  0
 15  4  2  0  0  0  0
 16 12  1  0  0  0  0
 17  9  1  0  0  0  0
 18  3  2  0  0  0  0
 18  7  1  0  0  0  0
 19 13  1  0  0  0  0
 20 26  2  0  0  0  0
 20 24  1  0  0  0  0
 21 20  1  0  0  0  0
 22 25  1  6  0  0  0
 22 24  1  0  0  0  0
 22 16  1  0  0  0  0
 23 21  1  0  0  0  0
 23 25  1  0  0  0  0
 27 17  1  0  0  0  0
 28 27  1  0  0  0  0
 30 29  1  6  0  0  0
 30 33  1  0  0  0  0
 31 32  1  0  0  0  0
 33 32  1  0  0  0  0
 33 28  1  1  0  0  0
 34 31  1  0  0  0  0
 34 30  1  0  0  0  0
M  END
>  <MODEL>
1

>  <REMARK>
 VINA RESULT:      -6.7      0.000      0.000
  Name = 
  4 active torsions:
  status: ('A' for Active; 'I' for Inactive)
    1  A    between atoms: O_3  and  C_13
    2  A    between atoms: O_3  and  C_29
    3  A    between atoms: C_12  and  N_28
    4  A    between atoms: C_13  and  C_33
                            x       y       z     vdW  Elec       q    Type
                         _______ _______ _______ _____ _____    ______ ____

>  <TORSDO>
F 4

$$$$
=
 OpenBabel11062408043D

 34 39  0  0  1  0  0  0  0  0999 V2000
  160.3870  212.6420  148.4950 C   0  0  2  0  0  3  0  0  0  0  0  0
  162.9320  212.4720  148.3430 C   0  0  1  0  0  3  0  0  0  0  0  0
  161.5820  210.8080  149.6620 C   0  0  0  0  0  0  0  0  0  0  0  0
  161.6410  208.6520  150.7350 C   0  0  0  0  0  0  0  0  0  0  0  0
  161.7430  214.4400  147.3610 C   0  0  0  0  0  2  0  0  0  0  0  0
  162.8970  213.4630  147.1860 C   0  0  0  0  0  2  0  0  0  0  0  0
  161.8970  208.8460  148.3300 C   0  0  0  0  0  3  0  0  0  0  0  0
  161.6050  211.6930  148.4390 C   0  0  1  0  0  3  0  0  0  0  0  0
  162.0240  207.4590  148.2320 C   0  0  0  0  0  3  0  0  0  0  0  0
  161.7700  207.2650  150.6260 C   0  0  0  0  0  3  0  0  0  0  0  0
  160.4210  213.6810  147.3750 C   0  0  0  0  0  2  0  0  0  0  0  0
  161.3550  211.5150  150.9830 C   0  0  2  0  0  3  0  0  0  0  0  0
  160.2550  213.3100  149.8710 C   0  0  0  0  0  2  0  0  0  0  0  0
  164.1000  211.5250  148.1300 C   0  0  0  0  0  1  0  0  0  0  0  0
  161.4550  209.1790  151.9440 C   0  0  0  0  0  3  0  0  0  0  0  0
  161.3110  210.5960  152.1230 N   0  0  0  0  0  0  0  0  0  0  0  0
  161.9620  206.6600  149.3820 C   0  0  0  0  0  0  0  0  0  0  0  0
  161.7060  209.4650  149.5780 C   0  0  0  0  0  0  0  0  0  0  0  0
  160.1150  212.2930  150.9140 N   0  0  0  0  0  2  0  0  0  0  0  0
  161.9070  210.8610  155.8450 C   0  0  0  0  0  0  0  0  0  0  0  0
  160.6310  211.2810  156.2420 O   0  0  0  0  0  0  0  0  0  0  0  0
  161.1900  211.1550  153.4660 C   0  0  2  0  0  3  0  0  0  0  0  0
  159.6610  211.7600  155.3110 C   0  0  0  0  0  2  0  0  0  0  0  0
  162.1880  210.4960  154.4190 C   0  0  0  0  0  2  0  0  0  0  0  0
  159.7620  211.0210  153.9850 C   0  0  0  0  0  2  0  0  0  0  0  0
  162.8260  210.6940  156.7350 N   0  0  0  0  0  2  0  0  0  0  0  0
  162.0840  205.2700  149.3170 O   0  0  0  0  0  0  0  0  0  0  0  0
  161.0680  204.4340  148.7760 C   0  0  0  0  0  2  0  0  0  0  0  0
  162.8890  204.6390  145.8390 C   0  0  0  0  0  1  0  0  0  0  0  0
  161.5190  204.2260  146.3380 C   0  0  2  0  0  3  0  0  0  0  0  0
  160.8970  201.8850  146.1320 C   0  0  0  0  0  2  0  0  0  0  0  0
  160.8820  202.2510  147.5970 C   0  0  0  0  0  2  0  0  0  0  0  0
  161.6530  203.5500  147.6900 C   0  0  2  0  0  3  0  0  0  0  0  0
  160.9160  203.2040  145.3900 C   0  0  0  0  0  2  0  0  0  0  0  0
  1 11  1  6  0  0  0
  1 13  1  0  0  0  0
  2 14  1  6  0  0  0
  2  8  1  0  0  0  0
  4 15  2  0  0  0  0
  5 11  1  0  0  0  0
  6  5  1  0  0  0  0
  6  2  1  0  0  0  0
  7 18  1  0  0  0  0
  8  1  1  0  0  0  0
  8  3  1  1  0  0  0
  9  7  2  0  0  0  0
  9 17  1  0  0  0  0
 10  4  1  0  0  0  0
 12  3  1  6  0  0  0
 12 16  1  0  0  0  0
 13 19  1  0  0  0  0
 15 16  1  0  0  0  0
 17 10  2  0  0  0  0
 18  3  2  0  0  0  0
 18  4  1  0  0  0  0
 19 12  1  0  0  0  0
 20 21  1  0  0  0  0
 20 26  2  0  0  0  0
 22 16  1  6  0  0  0
 22 25  1  0  0  0  0
 22 24  1  0  0  0  0
 23 21  1  0  0  0  0
 24 20  1  0  0  0  0
 25 23  1  0  0  0  0
 27 17  1  0  0  0  0
 28 27  1  0  0  0  0
 30 29  1  6  0  0  0
 30 33  1  0  0  0  0
 31 32  1  0  0  0  0
 32 33  1  0  0  0  0
 33 28  1  1  0  0  0
 34 31  1  0  0  0  0
 34 30  1  0  0  0  0
M  END
>  <MODEL>
2

>  <REMARK>
 VINA RESULT:      -6.5      2.193      5.729
  Name = 
  4 active torsions:
  status: ('A' for Active; 'I' for Inactive)
    1  A    between atoms: O_3  and  C_13
    2  A    between atoms: O_3  and  C_29
    3  A    between atoms: C_12  and  N_28
    4  A    between atoms: C_13  and  C_33
                            x       y       z     vdW  Elec       q    Type
                         _______ _______ _______ _____ _____    ______ ____

>  <TORSDO>
F 4

$$$$
=
 OpenBabel11062408043D

 34 39  0  0  1  0  0  0  0  0999 V2000
  162.3820  205.7440  152.1420 C   0  0  2  0  0  3  0  0  0  0  0  0
  160.3790  205.6820  150.5570 C   0  0  1  0  0  3  0  0  0  0  0  0
  161.3920  207.8590  151.3080 C   0  0  0  0  0  0  0  0  0  0  0  0
  161.4900  210.2260  150.8690 C   0  0  0  0  0  0  0  0  0  0  0  0
  161.2380  203.5680  151.5790 C   0  0  0  0  0  2  0  0  0  0  0  0
  160.6480  204.1990  150.3260 C   0  0  0  0  0  2  0  0  0  0  0  0
  162.3310  208.6300  149.2470 C   0  0  0  0  0  3  0  0  0  0  0  0
  161.6740  206.4200  150.9470 C   0  0  1  0  0  3  0  0  0  0  0  0
  162.6850  209.6800  148.3970 C   0  0  0  0  0  3  0  0  0  0  0  0
  161.8460  211.2700  150.0110 C   0  0  0  0  0  3  0  0  0  0  0  0
  162.5630  204.2420  151.9230 C   0  0  0  0  0  2  0  0  0  0  0  0
  160.7590  208.0860  152.6660 C   0  0  2  0  0  3  0  0  0  0  0  0
  161.6560  206.0300  153.4640 C   0  0  0  0  0  2  0  0  0  0  0  0
  159.7850  206.2660  149.2870 C   0  0  0  0  0  1  0  0  0  0  0  0
  160.9280  210.5290  152.0380 C   0  0  0  0  0  3  0  0  0  0  0  0
  160.5420  209.5040  152.9650 N   0  0  0  0  0  0  0  0  0  0  0  0
  162.4430  211.0080  148.7760 C   0  0  0  0  0  0  0  0  0  0  0  0
  161.7280  208.8820  150.4920 C   0  0  0  0  0  0  0  0  0  0  0  0
  161.5940  207.4730  153.7020 N   0  0  0  0  0  2  0  0  0  0  0  0
  158.3470  211.5540  155.2590 C   0  0  0  0  0  0  0  0  0  0  0  0
  159.0700  211.3990  156.4490 O   0  0  0  0  0  0  0  0  0  0  0  0
  159.8540  209.8580  154.2030 C   0  0  2  0  0  3  0  0  0  0  0  0
  160.0910  210.4140  156.6000 C   0  0  0  0  0  2  0  0  0  0  0  0
  158.8680  211.0020  153.9660 C   0  0  0  0  0  2  0  0  0  0  0  0
  160.8550  210.2120  155.2990 C   0  0  0  0  0  2  0  0  0  0  0  0
  157.2690  212.2630  155.2580 N   0  0  0  0  0  2  0  0  0  0  0  0
  162.7860  212.0800  147.9490 O   0  0  0  0  0  0  0  0  0  0  0  0
  162.2580  213.3880  148.1290 C   0  0  0  0  0  2  0  0  0  0  0  0
  158.8980  213.8800  147.4580 C   0  0  0  0  0  1  0  0  0  0  0  0
  160.0340  212.9410  147.1060 C   0  0  2  0  0  3  0  0  0  0  0  0
  160.7880  212.8920  144.7950 C   0  0  0  0  0  2  0  0  0  0  0  0
  161.9450  213.3290  145.6610 C   0  0  0  0  0  2  0  0  0  0  0  0
  161.3250  213.7300  146.9820 C   0  0  2  0  0  3  0  0  0  0  0  0
  159.7710  212.3050  145.7520 C   0  0  0  0  0  2  0  0  0  0  0  0
  1 11  1  6  0  0  0
  1 13  1  0  0  0  0
  2 14  1  6  0  0  0
  2  8  1  0  0  0  0
  4 15  2  0  0  0  0
  5 11  1  0  0  0  0
  6  2  1  0  0  0  0
  6  5  1  0  0  0  0
  7 18  1  0  0  0  0
  8  3  1  1  0  0  0
  8  1  1  0  0  0  0
  9 17  1  0  0  0  0
  9  7  2  0  0  0  0
 10  4  1  0  0  0  0
 12  3  1  6  0  0  0
 12 16  1  0  0  0  0
 12 19  1  0  0  0  0
 13 19  1  0  0  0  0
 15 16  1  0  0  0  0
 17 10  2  0  0  0  0
 18  4  1  0  0  0  0
 18  3  2  0  0  0  0
 20 21  1  0  0  0  0
 21 23  1  0  0  0  0
 22 16  1  6  0  0  0
 22 25  1  0  0  0  0
 24 22  1  0  0  0  0
 24 20  1  0  0  0  0
 25 23  1  0  0  0  0
 26 20  2  0  0  0  0
 27 28  1  0  0  0  0
 27 17  1  0  0  0  0
 30 29  1  6  0  0  0
 31 32  1  0  0  0  0
 31 34  1  0  0  0  0
 32 33  1  0  0  0  0
 33 30  1  0  0  0  0
 33 28  1  1  0  0  0
 34 30  1  0  0  0  0
M  END
>  <MODEL>
3

>  <REMARK>
 VINA RESULT:      -6.5      2.654      7.407
  Name = 
  4 active torsions:
  status: ('A' for Active; 'I' for Inactive)
    1  A    between atoms: O_3  and  C_13
    2  A    between atoms: O_3  and  C_29
    3  A    between atoms: C_12  and  N_28
    4  A    between atoms: C_13  and  C_33
                            x       y       z     vdW  Elec       q    Type
                         _______ _______ _______ _____ _____    ______ ____

>  <TORSDO>
F 4

$$$$
=
 OpenBabel11062408043D

 34 39  0  0  1  0  0  0  0  0999 V2000
  160.0860  212.7800  147.9070 C   0  0  2  0  0  3  0  0  0  0  0  0
  162.6150  212.9380  148.2390 C   0  0  1  0  0  3  0  0  0  0  0  0
  161.1930  211.4440  149.6800 C   0  0  0  0  0  0  0  0  0  0  0  0
  161.2420  209.6180  151.2500 C   0  0  0  0  0  0  0  0  0  0  0  0
  161.4650  214.4460  146.6100 C   0  0  0  0  0  2  0  0  0  0  0  0
  162.7180  213.6270  146.8830 C   0  0  0  0  0  2  0  0  0  0  0  0
  161.9530  209.2950  148.9530 C   0  0  0  0  0  3  0  0  0  0  0  0
  161.3760  212.0240  148.2980 C   0  0  1  0  0  3  0  0  0  0  0  0
  162.2280  207.9550  149.2260 C   0  0  0  0  0  3  0  0  0  0  0  0
  161.5210  208.2740  151.5140 C   0  0  0  0  0  3  0  0  0  0  0  0
  160.2440  213.5320  146.5860 C   0  0  0  0  0  2  0  0  0  0  0  0
  160.6410  212.3940  150.7250 C   0  0  2  0  0  3  0  0  0  0  0  0
  159.6200  213.7170  149.0300 C   0  0  0  0  0  2  0  0  0  0  0  0
  163.8870  212.1420  148.4720 C   0  0  0  0  0  1  0  0  0  0  0  0
  160.7690  210.3740  152.2400 C   0  0  0  0  0  3  0  0  0  0  0  0
  160.4580  211.7600  152.0330 N   0  0  0  0  0  0  0  0  0  0  0  0
  162.0140  207.4370  150.5110 C   0  0  0  0  0  0  0  0  0  0  0  0
  161.4590  210.1490  149.9560 C   0  0  0  0  0  0  0  0  0  0  0  0
  159.3720  212.9530  150.2530 N   0  0  0  0  0  2  0  0  0  0  0  0
  159.8000  212.6540  155.6460 C   0  0  0  0  0  0  0  0  0  0  0  0
  158.5960  213.3500  155.4820 O   0  0  0  0  0  0  0  0  0  0  0  0
  160.0190  212.5860  153.1540 C   0  0  2  0  0  3  0  0  0  0  0  0
  158.1350  213.7900  154.2060 C   0  0  0  0  0  2  0  0  0  0  0  0
  160.4570  211.9710  154.4840 C   0  0  0  0  0  2  0  0  0  0  0  0
  158.5090  212.7970  153.1150 C   0  0  0  0  0  2  0  0  0  0  0  0
  160.2990  212.5160  156.8270 N   0  0  0  0  0  2  0  0  0  0  0  0
  162.2780  206.0990  150.8160 O   0  0  0  0  0  0  0  0  0  0  0  0
  161.2480  205.1370  151.0060 C   0  0  0  0  0  2  0  0  0  0  0  0
  161.7650  203.8550  147.8320 C   0  0  0  0  0  1  0  0  0  0  0  0
  160.8310  203.7040  149.0150 C   0  0  2  0  0  3  0  0  0  0  0  0
  160.8280  201.5760  150.1910 C   0  0  0  0  0  2  0  0  0  0  0  0
  161.2430  202.6530  151.1640 C   0  0  0  0  0  2  0  0  0  0  0  0
  161.6180  203.8420  150.3050 C   0  0  2  0  0  3  0  0  0  0  0  0
  160.2250  202.3110  149.0130 C   0  0  0  0  0  2  0  0  0  0  0  0
  1 11  1  6  0  0  0
  1  8  1  0  0  0  0
  1 13  1  0  0  0  0
  2  8  1  0  0  0  0
  2 14  1  6  0  0  0
  3 18  2  0  0  0  0
  4 10  1  0  0  0  0
  4 15  2  0  0  0  0
  5  6  1  0  0  0  0
  6  2  1  0  0  0  0
  7  9  2  0  0  0  0
  7 18  1  0  0  0  0
  8  3  1  1  0  0  0
  9 17  1  0  0  0  0
 11  5  1  0  0  0  0
 12  3  1  6  0  0  0
 12 16  1  0  0  0  0
 13 19  1  0  0  0  0
 16 15  1  0  0  0  0
 17 27  1  0  0  0  0
 17 10  2  0  0  0  0
 18  4  1  0  0  0  0
 19 12  1  0  0  0  0
 20 26  2  0  0  0  0
 21 20  1  0  0  0  0
 22 16  1  6  0  0  0
 22 24  1  0  0  0  0
 23 21  1  0  0  0  0
 24 20  1  0  0  0  0
 25 22  1  0  0  0  0
 25 23  1  0  0  0  0
 27 28  1  0  0  0  0
 30 29  1  6  0  0  0
 30 33  1  0  0  0  0
 31 32  1  0  0  0  0
 33 28  1  1  0  0  0
 33 32  1  0  0  0  0
 34 30  1  0  0  0  0
 34 31  1  0  0  0  0
M  END
>  <MODEL>
4

>  <REMARK>
 VINA RESULT:      -5.9      2.513      5.922
  Name = 
  4 active torsions:
  status: ('A' for Active; 'I' for Inactive)
    1  A    between atoms: O_3  and  C_13
    2  A    between atoms: O_3  and  C_29
    3  A    between atoms: C_12  and  N_28
    4  A    between atoms: C_13  and  C_33
                            x       y       z     vdW  Elec       q    Type
                         _______ _______ _______ _____ _____    ______ ____

>  <TORSDO>
F 4

$$$$
=
 OpenBabel11062408043D

 34 39  0  0  1  0  0  0  0  0999 V2000
  162.1960  213.5960  148.0550 C   0  0  2  0  0  3  0  0  0  0  0  0
  159.7180  213.1550  147.6150 C   0  0  1  0  0  3  0  0  0  0  0  0
  160.7900  212.5480  149.8090 C   0  0  0  0  0  0  0  0  0  0  0  0
  160.3520  211.9270  152.0950 C   0  0  0  0  0  0  0  0  0  0  0  0
  161.1890  214.0000  145.7780 C   0  0  0  0  0  2  0  0  0  0  0  0
  159.8020  214.0740  146.4020 C   0  0  0  0  0  2  0  0  0  0  0  0
  159.7130  214.1150  151.2620 C   0  0  0  0  0  3  0  0  0  0  0  0
  160.7780  213.5350  148.6660 C   0  0  1  0  0  3  0  0  0  0  0  0
  159.2000  214.4440  152.5170 C   0  0  0  0  0  3  0  0  0  0  0  0
  159.8340  212.2660  153.3480 C   0  0  0  0  0  3  0  0  0  0  0  0
  162.2360  214.4530  146.7900 C   0  0  0  0  0  2  0  0  0  0  0  0
  161.4420  211.2120  149.5180 C   0  0  2  0  0  3  0  0  0  0  0  0
  162.7580  212.1920  147.7940 C   0  0  0  0  0  2  0  0  0  0  0  0
  158.3190  213.2560  148.1970 C   0  0  0  0  0  1  0  0  0  0  0  0
  160.8950  210.7220  151.9380 C   0  0  0  0  0  3  0  0  0  0  0  0
  161.4480  210.3150  150.6770 N   0  0  0  0  0  0  0  0  0  0  0  0
  159.2580  213.5190  153.5690 C   0  0  0  0  0  0  0  0  0  0  0  0
  160.2940  212.8560  151.0270 C   0  0  0  0  0  0  0  0  0  0  0  0
  162.8100  211.4290  149.0420 N   0  0  0  0  0  2  0  0  0  0  0  0
  161.8730  206.9350  149.0390 C   0  0  0  0  0  0  0  0  0  0  0  0
  161.9550  206.1430  150.1910 O   0  0  0  0  0  0  0  0  0  0  0  0
  161.9640  208.9590  150.5080 C   0  0  2  0  0  3  0  0  0  0  0  0
  162.1670  206.7000  151.4880 C   0  0  0  0  0  2  0  0  0  0  0  0
  161.5840  208.4030  149.1340 C   0  0  0  0  0  2  0  0  0  0  0  0
  161.4730  208.0470  151.6270 C   0  0  0  0  0  2  0  0  0  0  0  0
  161.9500  206.3780  147.8780 N   0  0  0  0  0  2  0  0  0  0  0  0
  158.7540  213.8180  154.8380 O   0  0  0  0  0  0  0  0  0  0  0  0
  158.3010  212.8160  155.7400 C   0  0  0  0  0  2  0  0  0  0  0  0
  155.6010  210.7770  155.0100 C   0  0  0  0  0  1  0  0  0  0  0  0
  156.2290  212.0850  154.5740 C   0  0  2  0  0  3  0  0  0  0  0  0
  154.9600  214.1270  154.9390 C   0  0  0  0  0  2  0  0  0  0  0  0
  156.2510  214.2260  155.7170 C   0  0  0  0  0  2  0  0  0  0  0  0
  156.7850  212.8110  155.7850 C   0  0  2  0  0  3  0  0  0  0  0  0
  155.1660  212.9840  153.9670 C   0  0  0  0  0  2  0  0  0  0  0  0
  1 11  1  6  0  0  0
  1  8  1  0  0  0  0
  2 14  1  1  0  0  0
  2  8  1  0  0  0  0
  3 18  2  0  0  0  0
  4 10  1  0  0  0  0
  5  6  1  0  0  0  0
  5 11  1  0  0  0  0
  6  2  1  0  0  0  0
  7  9  2  0  0  0  0
  8  3  1  1  0  0  0
  9 17  1  0  0  0  0
 10 17  2  0  0  0  0
 12 19  1  1  0  0  0
 12  3  1  0  0  0  0
 12 16  1  0  0  0  0
 13  1  1  0  0  0  0
 13 19  1  0  0  0  0
 15  4  2  0  0  0  0
 16 15  1  0  0  0  0
 17 27  1  0  0  0  0
 18  7  1  0  0  0  0
 18  4  1  0  0  0  0
 20 24  1  0  0  0  0
 20 21  1  0  0  0  0
 21 23  1  0  0  0  0
 22 24  1  6  0  0  0
 22 16  1  0  0  0  0
 22 25  1  0  0  0  0
 23 25  1  0  0  0  0
 26 20  2  0  0  0  0
 27 28  1  0  0  0  0
 30 29  1  1  0  0  0
 30 33  1  0  0  0  0
 31 32  1  0  0  0  0
 32 33  1  0  0  0  0
 33 28  1  6  0  0  0
 34 30  1  0  0  0  0
 34 31  1  0  0  0  0
M  END
>  <MODEL>
5

>  <REMARK>
 VINA RESULT:      -5.6      3.427      9.059
  Name = 
  4 active torsions:
  status: ('A' for Active; 'I' for Inactive)
    1  A    between atoms: O_3  and  C_13
    2  A    between atoms: O_3  and  C_29
    3  A    between atoms: C_12  and  N_28
    4  A    between atoms: C_13  and  C_33
                            x       y       z     vdW  Elec       q    Type
                         _______ _______ _______ _____ _____    ______ ____

>  <TORSDO>
F 4

$$$$
=
 OpenBabel11062408043D

 34 39  0  0  1  0  0  0  0  0999 V2000
  160.5700  212.4840  148.5500 C   0  0  2  0  0  3  0  0  0  0  0  0
  163.1030  212.2000  148.3800 C   0  0  1  0  0  3  0  0  0  0  0  0
  161.6780  210.5440  149.6270 C   0  0  0  0  0  0  0  0  0  0  0  0
  161.6360  208.3410  150.6010 C   0  0  0  0  0  0  0  0  0  0  0  0
  162.0080  214.2660  147.4930 C   0  0  0  0  0  2  0  0  0  0  0  0
  163.1140  213.2440  147.2690 C   0  0  0  0  0  2  0  0  0  0  0  0
  161.8970  208.6320  148.2060 C   0  0  0  0  0  3  0  0  0  0  0  0
  161.7420  211.4820  148.4460 C   0  0  1  0  0  3  0  0  0  0  0  0
  161.9580  207.2470  148.0440 C   0  0  0  0  0  3  0  0  0  0  0  0
  161.6990  206.9560  150.4280 C   0  0  0  0  0  3  0  0  0  0  0  0
  160.6510  213.5710  147.4780 C   0  0  0  0  0  2  0  0  0  0  0  0
  161.4870  211.2010  150.9800 C   0  0  2  0  0  3  0  0  0  0  0  0
  160.4720  213.0940  149.9550 C   0  0  0  0  0  2  0  0  0  0  0  0
  164.2250  211.2100  148.1200 C   0  0  0  0  0  1  0  0  0  0  0  0
  161.4780  208.8210  151.8330 C   0  0  0  0  0  3  0  0  0  0  0  0
  161.4020  210.2330  152.0770 N   0  0  0  0  0  0  0  0  0  0  0  0
  161.8600  206.4000  149.1570 C   0  0  0  0  0  0  0  0  0  0  0  0
  161.7380  209.2030  149.4810 C   0  0  0  0  0  0  0  0  0  0  0  0
  160.2860  212.0380  150.9510 N   0  0  0  0  0  2  0  0  0  0  0  0
  161.8550  210.2060  155.8290 C   0  0  0  0  0  0  0  0  0  0  0  0
  160.6480  210.8100  156.1990 O   0  0  0  0  0  0  0  0  0  0  0  0
  161.3100  210.7360  153.4450 C   0  0  2  0  0  3  0  0  0  0  0  0
  159.8140  211.4900  155.2620 C   0  0  0  0  0  2  0  0  0  0  0  0
  162.1400  209.8720  154.3960 C   0  0  0  0  0  2  0  0  0  0  0  0
  159.8560  210.8130  153.8990 C   0  0  0  0  0  2  0  0  0  0  0  0
  162.6920  209.8440  156.7420 N   0  0  0  0  0  2  0  0  0  0  0  0
  161.9160  205.0100  149.0280 O   0  0  0  0  0  0  0  0  0  0  0  0
  160.8180  204.2380  148.5570 C   0  0  0  0  0  2  0  0  0  0  0  0
  160.2660  203.9330  151.9610 C   0  0  0  0  0  1  0  0  0  0  0  0
  161.2070  203.4390  150.8810 C   0  0  2  0  0  3  0  0  0  0  0  0
  161.1960  201.0620  150.3710 C   0  0  0  0  0  2  0  0  0  0  0  0
  160.7990  201.8150  149.1240 C   0  0  0  0  0  2  0  0  0  0  0  0
  160.4310  203.2050  149.5990 C   0  0  2  0  0  3  0  0  0  0  0  0
  161.7990  202.1020  151.2920 C   0  0  0  0  0  2  0  0  0  0  0  0
  1 11  1  6  0  0  0
  1 13  1  0  0  0  0
  2 14  1  6  0  0  0
  2  8  1  0  0  0  0
  4 15  2  0  0  0  0
  6  5  1  0  0  0  0
  6  2  1  0  0  0  0
  7 18  1  0  0  0  0
  8  1  1  0  0  0  0
  8  3  1  1  0  0  0
  9  7  2  0  0  0  0
  9 17  1  0  0  0  0
 10  4  1  0  0  0  0
 11  5  1  0  0  0  0
 12  3  1  6  0  0  0
 12 16  1  0  0  0  0
 13 19  1  0  0  0  0
 15 16  1  0  0  0  0
 17 10  2  0  0  0  0
 18  3  2  0  0  0  0
 18  4  1  0  0  0  0
 19 12  1  0  0  0  0
 20 21  1  0  0  0  0
 20 26  2  0  0  0  0
 22 16  1  6  0  0  0
 22 25  1  0  0  0  0
 22 24  1  0  0  0  0
 23 21  1  0  0  0  0
 24 20  1  0  0  0  0
 25 23  1  0  0  0  0
 27 17  1  0  0  0  0
 28 27  1  0  0  0  0
 30 34  1  0  0  0  0
 30 29  1  1  0  0  0
 31 34  1  0  0  0  0
 32 33  1  0  0  0  0
 32 31  1  0  0  0  0
 33 28  1  6  0  0  0
 33 30  1  0  0  0  0
M  END
>  <MODEL>
6

>  <REMARK>
 VINA RESULT:      -5.1      2.183      5.806
  Name = 
  4 active torsions:
  status: ('A' for Active; 'I' for Inactive)
    1  A    between atoms: O_3  and  C_13
    2  A    between atoms: O_3  and  C_29
    3  A    between atoms: C_12  and  N_28
    4  A    between atoms: C_13  and  C_33
                            x       y       z     vdW  Elec       q    Type
                         _______ _______ _______ _____ _____    ______ ____

>  <TORSDO>
F 4

$$$$
