=
 OpenBabel11052423173D

 27 31  0  0  0  0  0  0  0  0999 V2000
  161.5330  208.4360  150.9830 C   0  0  0  0  0  0  0  0  0  0  0  0
  161.1320  206.0800  151.4450 C   0  0  0  0  0  0  0  0  0  0  0  0
  161.6110  206.8200  149.2090 N   0  0  0  0  0  0  0  0  0  0  0  0
  160.8570  202.1140  150.0430 C   0  0  0  0  0  3  0  0  0  0  0  0
  160.9440  200.5210  148.2360 O   0  0  0  0  0  1  0  0  0  0  0  0
  160.8620  205.0170  152.3230 C   0  0  0  0  0  3  0  0  0  0  0  0
  161.4150  204.1790  148.2370 C   0  0  0  0  0  3  0  0  0  0  0  0
  161.3190  202.8600  147.7870 C   0  0  0  0  0  3  0  0  0  0  0  0
  161.2330  204.4800  149.5960 C   0  0  0  0  0  0  0  0  0  0  0  0
  161.2360  207.4120  151.9110 C   0  0  0  0  0  0  0  0  0  0  0  0
  161.0390  201.8290  148.6870 C   0  0  0  0  0  0  0  0  0  0  0  0
  160.9510  203.4310  150.5030 C   0  0  0  0  0  0  0  0  0  0  0  0
  161.6300  209.7820  151.3730 C   0  0  0  0  0  3  0  0  0  0  0  0
  161.3280  205.8040  150.0680 C   0  0  0  0  0  0  0  0  0  0  0  0
  162.0040  209.1060  148.6880 C   0  0  0  0  0  3  0  0  0  0  0  0
  160.7700  203.7060  151.8570 C   0  0  0  0  0  3  0  0  0  0  0  0
  162.1070  210.4460  149.0910 C   0  0  0  0  0  0  0  0  0  0  0  0
  161.9160  210.7770  150.4350 C   0  0  0  0  0  3  0  0  0  0  0  0
  161.7180  208.1060  149.6220 C   0  0  0  0  0  0  0  0  0  0  0  0
  160.6580  208.3290  156.0620 C   0  0  0  0  0  3  0  0  0  0  0  0
  161.0360  207.7300  153.3490 C   0  0  0  0  0  0  0  0  0  0  0  0
  160.7460  206.7080  154.2650 C   0  0  0  0  0  3  0  0  0  0  0  0
  160.5570  207.0080  155.6180 C   0  0  0  0  0  3  0  0  0  0  0  0
  160.9470  209.3510  155.1550 C   0  0  0  0  0  3  0  0  0  0  0  0
  161.1350  209.0530  153.8020 C   0  0  0  0  0  3  0  0  0  0  0  0
  162.3940  211.4650  148.1780 O   0  0  0  0  0  0  0  0  0  0  0  0
  161.3820  212.2160  147.5220 C   0  0  0  0  0  1  0  0  0  0  0  0
  1 13  1  0  0  0  0
  1 10  2  0  0  0  0
  2 10  1  0  0  0  0
  2  6  1  0  0  0  0
  3 19  2  0  0  0  0
  3 14  1  0  0  0  0
  4 12  1  0  0  0  0
  5 11  1  0  0  0  0
  7  9  1  0  0  0  0
  8  7  2  0  0  0  0
  8 11  1  0  0  0  0
  9 14  1  0  0  0  0
  9 12  2  0  0  0  0
 10 21  1  0  0  0  0
 11  4  2  0  0  0  0
 12 16  1  0  0  0  0
 14  2  2  0  0  0  0
 15 17  2  0  0  0  0
 15 19  1  0  0  0  0
 16  6  2  0  0  0  0
 17 18  1  0  0  0  0
 18 13  2  0  0  0  0
 19  1  1  0  0  0  0
 21 25  2  0  0  0  0
 21 22  1  0  0  0  0
 22 23  2  0  0  0  0
 23 20  1  0  0  0  0
 24 20  2  0  0  0  0
 25 24  1  0  0  0  0
 26 17  1  0  0  0  0
 27 26  1  0  0  0  0
M  END
>  <MODEL>
1

>  <REMARK>
 VINA RESULT:     -11.7      0.000      0.000
  Name = 
  2 active torsions:
  status: ('A' for Active; 'I' for Inactive)
    1  A    between atoms: C_9  and  C_15
    2  A    between atoms: O_10  and  C_22
                            x       y       z     vdW  Elec       q    Type
                         _______ _______ _______ _____ _____    ______ ____

>  <TORSDO>
F 2

$$$$
=
 OpenBabel11052423173D

 27 31  0  0  0  0  0  0  0  0999 V2000
  161.2310  207.5630  152.3000 C   0  0  0  0  0  0  0  0  0  0  0  0
  161.3950  206.4280  150.1520 C   0  0  0  0  0  0  0  0  0  0  0  0
  160.9850  205.1790  152.1640 N   0  0  0  0  0  0  0  0  0  0  0  0
  161.2660  202.8460  147.9340 C   0  0  0  0  0  3  0  0  0  0  0  0
  161.0130  200.4500  147.8380 O   0  0  0  0  0  1  0  0  0  0  0  0
  161.5610  206.4320  148.7580 C   0  0  0  0  0  3  0  0  0  0  0  0
  160.9110  202.7620  150.7100 C   0  0  0  0  0  3  0  0  0  0  0  0
  160.8730  201.5830  149.9620 C   0  0  0  0  0  3  0  0  0  0  0  0
  161.1270  203.9970  150.0790 C   0  0  0  0  0  0  0  0  0  0  0  0
  161.4270  207.6290  150.9010 C   0  0  0  0  0  0  0  0  0  0  0  0
  161.0510  201.6240  148.5770 C   0  0  0  0  0  0  0  0  0  0  0  0
  161.3060  204.0310  148.6750 C   0  0  0  0  0  0  0  0  0  0  0  0
  161.2710  208.7120  153.1070 C   0  0  0  0  0  3  0  0  0  0  0  0
  161.1680  205.1970  150.8160 C   0  0  0  0  0  0  0  0  0  0  0  0
  160.8210  206.2240  154.2930 C   0  0  0  0  0  3  0  0  0  0  0  0
  161.5190  205.2460  148.0260 C   0  0  0  0  0  3  0  0  0  0  0  0
  160.8550  207.3790  155.0880 C   0  0  0  0  0  0  0  0  0  0  0  0
  161.0830  208.6200  154.4880 C   0  0  0  0  0  3  0  0  0  0  0  0
  161.0090  206.3090  152.9110 C   0  0  0  0  0  0  0  0  0  0  0  0
  162.1090  211.3970  148.9670 C   0  0  0  0  0  3  0  0  0  0  0  0
  161.6630  208.9340  150.2310 C   0  0  0  0  0  0  0  0  0  0  0  0
  161.9620  208.9820  148.8620 C   0  0  0  0  0  3  0  0  0  0  0  0
  162.1850  210.2110  148.2330 C   0  0  0  0  0  3  0  0  0  0  0  0
  161.8110  211.3560  150.3320 C   0  0  0  0  0  3  0  0  0  0  0  0
  161.5890  210.1280  150.9620 C   0  0  0  0  0  3  0  0  0  0  0  0
  160.6680  207.3220  156.4720 O   0  0  0  0  0  0  0  0  0  0  0  0
  160.4160  208.4770  157.2610 C   0  0  0  0  0  1  0  0  0  0  0  0
  1 19  2  0  0  0  0
  1 13  1  0  0  0  0
  2 14  1  0  0  0  0
  2 10  2  0  0  0  0
  3 19  1  0  0  0  0
  4 11  2  0  0  0  0
  4 12  1  0  0  0  0
  5 11  1  0  0  0  0
  6  2  1  0  0  0  0
  8  7  2  0  0  0  0
  9  7  1  0  0  0  0
  9 14  1  0  0  0  0
 10  1  1  0  0  0  0
 11  8  1  0  0  0  0
 12  9  2  0  0  0  0
 13 18  2  0  0  0  0
 14  3  2  0  0  0  0
 15 17  2  0  0  0  0
 16 12  1  0  0  0  0
 16  6  2  0  0  0  0
 17 26  1  0  0  0  0
 18 17  1  0  0  0  0
 19 15  1  0  0  0  0
 20 24  1  0  0  0  0
 21 10  1  0  0  0  0
 21 25  1  0  0  0  0
 22 21  2  0  0  0  0
 23 22  1  0  0  0  0
 23 20  2  0  0  0  0
 24 25  2  0  0  0  0
 26 27  1  0  0  0  0
M  END
>  <MODEL>
2

>  <REMARK>
 VINA RESULT:     -10.4      2.108      4.781
  Name = 
  2 active torsions:
  status: ('A' for Active; 'I' for Inactive)
    1  A    between atoms: C_9  and  C_15
    2  A    between atoms: O_10  and  C_22
                            x       y       z     vdW  Elec       q    Type
                         _______ _______ _______ _____ _____    ______ ____

>  <TORSDO>
F 2

$$$$
=
 OpenBabel11052423173D

 27 31  0  0  0  0  0  0  0  0999 V2000
  161.3590  209.1530  152.2050 C   0  0  0  0  0  0  0  0  0  0  0  0
  161.3510  207.8870  150.1260 C   0  0  0  0  0  0  0  0  0  0  0  0
  161.1390  206.7620  152.2390 N   0  0  0  0  0  0  0  0  0  0  0  0
  161.0840  204.1720  148.1520 C   0  0  0  0  0  3  0  0  0  0  0  0
  160.8610  201.7730  148.2270 O   0  0  0  0  0  1  0  0  0  0  0  0
  161.3940  207.8060  148.7240 C   0  0  0  0  0  3  0  0  0  0  0  0
  160.9750  204.2590  150.9490 C   0  0  0  0  0  3  0  0  0  0  0  0
  160.8900  203.0340  150.2810 C   0  0  0  0  0  3  0  0  0  0  0  0
  161.1160  205.4530  150.2260 C   0  0  0  0  0  0  0  0  0  0  0  0
  161.4300  209.1330  150.7940 C   0  0  0  0  0  0  0  0  0  0  0  0
  160.9450  202.9910  148.8860 C   0  0  0  0  0  0  0  0  0  0  0  0
  161.1700  205.4010  148.8120 C   0  0  0  0  0  0  0  0  0  0  0  0
  161.4510  210.3510  152.9330 C   0  0  0  0  0  3  0  0  0  0  0  0
  161.2030  206.6970  150.8820 C   0  0  0  0  0  0  0  0  0  0  0  0
  161.1460  207.9370  154.3060 C   0  0  0  0  0  3  0  0  0  0  0  0
  161.3060  206.5760  148.0740 C   0  0  0  0  0  3  0  0  0  0  0  0
  161.2320  209.1400  155.0220 C   0  0  0  0  0  0  0  0  0  0  0  0
  161.3870  210.3430  154.3280 C   0  0  0  0  0  3  0  0  0  0  0  0
  161.2110  207.9370  152.9100 C   0  0  0  0  0  0  0  0  0  0  0  0
  161.8790  212.7780  148.5770 C   0  0  0  0  0  3  0  0  0  0  0  0
  161.5860  210.3950  150.0260 C   0  0  0  0  0  0  0  0  0  0  0  0
  160.8840  211.5480  150.4090 C   0  0  0  0  0  3  0  0  0  0  0  0
  161.0300  212.7350  149.6860 C   0  0  0  0  0  3  0  0  0  0  0  0
  162.5820  211.6340  148.1900 C   0  0  0  0  0  3  0  0  0  0  0  0
  162.4360  210.4460  148.9120 C   0  0  0  0  0  3  0  0  0  0  0  0
  161.1680  209.1680  156.4180 O   0  0  0  0  0  0  0  0  0  0  0  0
  162.2980  209.4530  157.2330 C   0  0  0  0  0  1  0  0  0  0  0  0
  1 19  2  0  0  0  0
  1 13  1  0  0  0  0
  2 10  2  0  0  0  0
  2 14  1  0  0  0  0
  3 19  1  0  0  0  0
  4 12  2  0  0  0  0
  4 11  1  0  0  0  0
  5 11  1  0  0  0  0
  6  2  1  0  0  0  0
  8  7  1  0  0  0  0
  9 14  1  0  0  0  0
  9  7  2  0  0  0  0
 10  1  1  0  0  0  0
 11  8  2  0  0  0  0
 12  9  1  0  0  0  0
 13 18  2  0  0  0  0
 14  3  2  0  0  0  0
 15 17  2  0  0  0  0
 16  6  2  0  0  0  0
 16 12  1  0  0  0  0
 17 26  1  0  0  0  0
 18 17  1  0  0  0  0
 19 15  1  0  0  0  0
 20 23  1  0  0  0  0
 21 22  1  0  0  0  0
 21 10  1  0  0  0  0
 23 22  2  0  0  0  0
 24 20  2  0  0  0  0
 24 25  1  0  0  0  0
 25 21  2  0  0  0  0
 26 27  1  0  0  0  0
M  END
>  <MODEL>
3

>  <REMARK>
 VINA RESULT:      -9.6      2.113      4.957
  Name = 
  2 active torsions:
  status: ('A' for Active; 'I' for Inactive)
    1  A    between atoms: C_9  and  C_15
    2  A    between atoms: O_10  and  C_22
                            x       y       z     vdW  Elec       q    Type
                         _______ _______ _______ _____ _____    ______ ____

>  <TORSDO>
F 2

$$$$
=
 OpenBabel11052423173D

 27 31  0  0  0  0  0  0  0  0999 V2000
  161.3600  205.0450  148.4220 C   0  0  0  0  0  0  0  0  0  0  0  0
  161.2170  205.6910  150.7650 C   0  0  0  0  0  0  0  0  0  0  0  0
  161.5050  207.3560  149.0570 N   0  0  0  0  0  0  0  0  0  0  0  0
  161.1990  208.7300  153.6860 C   0  0  0  0  0  3  0  0  0  0  0  0
  161.3480  211.0610  154.2830 O   0  0  0  0  0  1  0  0  0  0  0  0
  161.0520  205.3870  152.1260 C   0  0  0  0  0  3  0  0  0  0  0  0
  161.5160  209.4110  150.9890 C   0  0  0  0  0  3  0  0  0  0  0  0
  161.5100  210.4080  151.9680 C   0  0  0  0  0  3  0  0  0  0  0  0
  161.3630  208.0630  151.3470 C   0  0  0  0  0  0  0  0  0  0  0  0
  161.2130  204.6760  149.7780 C   0  0  0  0  0  0  0  0  0  0  0  0
  161.3530  210.0680  153.3140 C   0  0  0  0  0  0  0  0  0  0  0  0
  161.2040  207.7260  152.7130 C   0  0  0  0  0  0  0  0  0  0  0  0
  161.3870  204.0880  147.3940 C   0  0  0  0  0  3  0  0  0  0  0  0
  161.3660  207.0450  150.3730 C   0  0  0  0  0  0  0  0  0  0  0  0
  161.6600  206.7930  146.7520 C   0  0  0  0  0  3  0  0  0  0  0  0
  161.0480  206.3940  153.0910 C   0  0  0  0  0  3  0  0  0  0  0  0
  161.6770  205.8300  145.7320 C   0  0  0  0  0  0  0  0  0  0  0  0
  161.5410  204.4790  146.0620 C   0  0  0  0  0  3  0  0  0  0  0  0
  161.5060  206.4100  148.0870 C   0  0  0  0  0  0  0  0  0  0  0  0
  160.7680  200.5540  150.8820 C   0  0  0  0  0  3  0  0  0  0  0  0
  161.0590  203.2480  150.1610 C   0  0  0  0  0  0  0  0  0  0  0  0
  161.7340  202.7380  151.2790 C   0  0  0  0  0  3  0  0  0  0  0  0
  161.5890  201.3950  151.6370 C   0  0  0  0  0  3  0  0  0  0  0  0
  160.0920  201.0550  149.7670 C   0  0  0  0  0  3  0  0  0  0  0  0
  160.2370  202.3980  149.4070 C   0  0  0  0  0  3  0  0  0  0  0  0
  161.8280  206.1860  144.3890 O   0  0  0  0  0  0  0  0  0  0  0  0
  161.2060  205.4700  143.3310 C   0  0  0  0  0  1  0  0  0  0  0  0
  1 10  2  0  0  0  0
  2  6  1  0  0  0  0
  3 14  1  0  0  0  0
  6 16  2  0  0  0  0
  7  9  2  0  0  0  0
  7  8  1  0  0  0  0
  8 11  2  0  0  0  0
  9 12  1  0  0  0  0
 10 21  1  0  0  0  0
 10  2  1  0  0  0  0
 11  4  1  0  0  0  0
 11  5  1  0  0  0  0
 12 16  1  0  0  0  0
 12  4  2  0  0  0  0
 13  1  1  0  0  0  0
 14  2  2  0  0  0  0
 14  9  1  0  0  0  0
 15 19  1  0  0  0  0
 17 18  1  0  0  0  0
 17 15  2  0  0  0  0
 18 13  2  0  0  0  0
 19  1  1  0  0  0  0
 19  3  2  0  0  0  0
 20 23  1  0  0  0  0
 21 22  1  0  0  0  0
 22 23  2  0  0  0  0
 24 20  2  0  0  0  0
 25 24  1  0  0  0  0
 25 21  2  0  0  0  0
 26 17  1  0  0  0  0
 27 26  1  0  0  0  0
M  END
>  <MODEL>
4

>  <REMARK>
 VINA RESULT:      -9.3      2.392      6.382
  Name = 
  2 active torsions:
  status: ('A' for Active; 'I' for Inactive)
    1  A    between atoms: C_9  and  C_15
    2  A    between atoms: O_10  and  C_22
                            x       y       z     vdW  Elec       q    Type
                         _______ _______ _______ _____ _____    ______ ____

>  <TORSDO>
F 2

$$$$
