=
 OpenBabel11052422283D

 31 34  0  0  1  0  0  0  0  0999 V2000
  159.3170  212.1640  142.1930 C   0  0  0  0  0  2  0  0  0  0  0  0
  161.3480  212.1230  139.7270 C   0  0  1  0  0  3  0  0  0  0  0  0
  159.9660  212.6200  139.8760 N   0  0  2  0  0  0  0  0  0  0  0  0
  163.4530  211.5550  141.1180 C   0  0  0  0  0  1  0  0  0  0  0  0
  160.7260  212.0040  142.7510 C   0  0  0  0  0  2  0  0  0  0  0  0
  159.2290  211.7010  140.7460 C   0  0  0  0  0  2  0  0  0  0  0  0
  161.6760  213.0300  142.1420 C   0  0  0  0  0  2  0  0  0  0  0  0
  162.3290  212.5430  140.8460 C   0  0  2  0  0  3  0  0  0  0  0  0
  156.7870  212.2560  138.6420 C   0  0  2  0  0  3  0  0  0  0  0  0
  155.4040  214.1250  138.1950 C   0  0  0  0  0  1  0  0  0  0  0  0
  156.3460  213.1920  137.5930 N   0  0  0  0  0  0  0  0  0  0  0  0
  158.1960  211.6730  138.3990 C   0  0  1  0  0  3  0  0  0  0  0  0
  158.3330  210.9820  137.0510 C   0  0  0  0  0  1  0  0  0  0  0  0
  159.3050  212.7320  138.5630 C   0  0  1  0  0  3  0  0  0  0  0  0
  157.4460  213.9940  137.0390 C   0  0  0  0  0  2  0  0  0  0  0  0
  158.6900  214.4530  138.3020 S   0  0  0  0  0  0  0  0  0  0  0  0
  153.2280  210.9200  139.5990 C   0  0  1  0  0  3  0  0  0  0  0  0
  154.2290  209.6600  137.7250 C   0  0  0  0  0  3  0  0  0  0  0  0
  152.5880  210.8110  140.8190 F   0  0  0  0  0  0  0  0  0  0  0  0
  154.5310  211.7250  139.7630 C   0  0  0  0  0  2  0  0  0  0  0  0
  155.3030  210.4550  137.6930 C   0  0  0  0  0  3  0  0  0  0  0  0
  155.7220  211.1900  138.9400 C   0  0  1  0  0  3  0  0  0  0  0  0
  153.4510  209.5290  139.0010 C   0  0  0  0  0  2  0  0  0  0  0  0
  161.5480  210.8250  138.9620 C   0  0  0  0  0  0  0  0  0  0  0  0
  161.2010  208.4740  138.9250 C   0  0  0  0  0  3  0  0  0  0  0  0
  161.0600  209.6850  139.5210 N   0  0  0  0  0  0  0  0  0  0  0  0
  162.7640  211.9240  137.0110 C   0  0  0  0  0  1  0  0  0  0  0  0
  161.8630  208.3880  137.7040 C   0  0  0  0  0  0  0  0  0  0  0  0
  162.0310  207.0730  137.0310 C   0  0  0  0  0  1  0  0  0  0  0  0
  162.2170  210.7330  137.7200 C   0  0  0  0  0  0  0  0  0  0  0  0
  162.3530  209.5160  137.1300 N   0  0  0  0  0  0  0  0  0  0  0  0
  1  5  1  0  0  0  0
  2 24  1  1  0  0  0
  2  3  1  0  0  0  0
  2  8  1  0  0  0  0
  3  6  1  1  0  0  0
  6  1  1  0  0  0  0
  7  5  1  0  0  0  0
  8  4  1  1  0  0  0
  8  7  1  0  0  0  0
  9 11  1  6  0  0  0
  9 22  1  0  0  0  0
 11 10  1  0  0  0  0
 12 13  1  6  0  0  0
 12 14  1  0  0  0  0
 12  9  1  0  0  0  0
 14 16  1  1  0  0  0
 14  3  1  0  0  0  0
 15 11  1  0  0  0  0
 15 16  1  0  0  0  0
 17 20  1  0  0  0  0
 17 19  1  1  0  0  0
 18 23  1  0  0  0  0
 21 18  2  0  0  0  0
 22 21  1  6  0  0  0
 22 20  1  0  0  0  0
 23 17  1  0  0  0  0
 24 26  1  0  0  0  0
 25 26  2  0  0  0  0
 27 30  1  0  0  0  0
 28 25  1  0  0  0  0
 29 28  1  0  0  0  0
 30 24  2  0  0  0  0
 31 28  2  0  0  0  0
 31 30  1  0  0  0  0
M  END
>  <MODEL>
1

>  <REMARK>
 VINA RESULT:      -3.3      0.000      0.000
  Name = 
  3 active torsions:
  status: ('A' for Active; 'I' for Inactive)
    1  A    between atoms: C_3  and  C_22
    2  A    between atoms: C_4  and  C_5
    3  A    between atoms: N_12  and  C_21
                            x       y       z     vdW  Elec       q    Type
                         _______ _______ _______ _____ _____    ______ ____

>  <TORSDO>
F 3

$$$$
=
 OpenBabel11052422283D

 31 34  0  0  1  0  0  0  0  0999 V2000
  160.0410  211.2550  142.5980 C   0  0  0  0  0  2  0  0  0  0  0  0
  161.4560  213.6600  141.0420 C   0  0  1  0  0  3  0  0  0  0  0  0
  160.2780  212.8260  140.7340 N   0  0  2  0  0  0  0  0  0  0  0  0
  162.9070  214.4530  143.0310 C   0  0  0  0  0  1  0  0  0  0  0  0
  160.8720  212.0390  143.6060 C   0  0  0  0  0  2  0  0  0  0  0  0
  160.5460  211.4560  141.1750 C   0  0  0  0  0  2  0  0  0  0  0  0
  160.6000  213.5350  143.4940 C   0  0  0  0  0  2  0  0  0  0  0  0
  161.5080  214.2320  142.4770 C   0  0  2  0  0  3  0  0  0  0  0  0
  157.6730  211.9000  138.7060 C   0  0  2  0  0  3  0  0  0  0  0  0
  156.1190  213.4830  137.8750 C   0  0  0  0  0  1  0  0  0  0  0  0
  157.3500  212.7710  137.5610 N   0  0  0  0  0  0  0  0  0  0  0  0
  159.1810  211.6090  138.8560 C   0  0  1  0  0  3  0  0  0  0  0  0
  159.8020  211.0070  137.6040 C   0  0  0  0  0  1  0  0  0  0  0  0
  159.9790  212.8550  139.2910 C   0  0  1  0  0  3  0  0  0  0  0  0
  158.3780  213.7890  137.3060 C   0  0  0  0  0  2  0  0  0  0  0  0
  159.1310  214.4340  138.8460 S   0  0  0  0  0  0  0  0  0  0  0  0
  154.3250  209.8690  138.8900 C   0  0  1  0  0  3  0  0  0  0  0  0
  155.8530  209.0000  137.1560 C   0  0  0  0  0  3  0  0  0  0  0  0
  153.5190  209.5280  139.9600 F   0  0  0  0  0  0  0  0  0  0  0  0
  155.4020  210.8710  139.3480 C   0  0  0  0  0  2  0  0  0  0  0  0
  156.7450  209.9710  137.3780 C   0  0  0  0  0  3  0  0  0  0  0  0
  156.7960  210.6390  138.7270 C   0  0  1  0  0  3  0  0  0  0  0  0
  154.9080  208.6070  138.2520 C   0  0  0  0  0  2  0  0  0  0  0  0
  162.7340  213.3830  140.2680 C   0  0  0  0  0  0  0  0  0  0  0  0
  164.5540  214.3110  139.0520 C   0  0  0  0  0  3  0  0  0  0  0  0
  163.4110  214.4530  139.7700 N   0  0  0  0  0  0  0  0  0  0  0  0
  162.6010  210.8540  140.5510 C   0  0  0  0  0  1  0  0  0  0  0  0
  165.0550  213.0350  138.8140 C   0  0  0  0  0  0  0  0  0  0  0  0
  166.3050  212.8530  138.0310 C   0  0  0  0  0  1  0  0  0  0  0  0
  163.2500  212.0880  140.0270 C   0  0  0  0  0  0  0  0  0  0  0  0
  164.3950  211.9560  139.3070 N   0  0  0  0  0  0  0  0  0  0  0  0
  1  5  1  0  0  0  0
  2 24  1  1  0  0  0
  2  8  1  0  0  0  0
  3  2  1  0  0  0  0
  3  6  1  6  0  0  0
  6  1  1  0  0  0  0
  7  5  1  0  0  0  0
  8  4  1  1  0  0  0
  8  7  1  0  0  0  0
  9 11  1  6  0  0  0
  9 22  1  0  0  0  0
  9 12  1  0  0  0  0
 11 10  1  0  0  0  0
 12 13  1  6  0  0  0
 12 14  1  0  0  0  0
 14 16  1  1  0  0  0
 14  3  1  0  0  0  0
 15 11  1  0  0  0  0
 15 16  1  0  0  0  0
 17 20  1  0  0  0  0
 17 19  1  1  0  0  0
 18 21  2  0  0  0  0
 18 23  1  0  0  0  0
 22 21  1  6  0  0  0
 22 20  1  0  0  0  0
 23 17  1  0  0  0  0
 25 26  1  0  0  0  0
 26 24  2  0  0  0  0
 28 25  2  0  0  0  0
 28 31  1  0  0  0  0
 29 28  1  0  0  0  0
 30 24  1  0  0  0  0
 30 27  1  0  0  0  0
 31 30  2  0  0  0  0
M  END
>  <MODEL>
2

>  <REMARK>
 VINA RESULT:      -0.9      1.976      2.922
  Name = 
  3 active torsions:
  status: ('A' for Active; 'I' for Inactive)
    1  A    between atoms: C_3  and  C_22
    2  A    between atoms: C_4  and  C_5
    3  A    between atoms: N_12  and  C_21
                            x       y       z     vdW  Elec       q    Type
                         _______ _______ _______ _____ _____    ______ ____

>  <TORSDO>
F 3

$$$$
=
 OpenBabel11052422283D

 31 34  0  0  1  0  0  0  0  0999 V2000
  159.6900  213.9900  151.0030 C   0  0  0  0  0  2  0  0  0  0  0  0
  159.9040  212.4100  148.2350 C   0  0  1  0  0  3  0  0  0  0  0  0
  160.4440  212.1430  149.5820 N   0  0  2  0  0  0  0  0  0  0  0  0
  158.0200  213.7110  147.0320 C   0  0  0  0  0  1  0  0  0  0  0  0
  158.5440  214.4530  150.1100 C   0  0  0  0  0  2  0  0  0  0  0  0
  160.8400  213.4150  150.1880 C   0  0  0  0  0  2  0  0  0  0  0  0
  157.8040  213.2630  149.5090 C   0  0  0  0  0  2  0  0  0  0  0  0
  158.4070  212.7940  148.1820 C   0  0  2  0  0  3  0  0  0  0  0  0
  161.1230  208.9240  150.5480 C   0  0  2  0  0  3  0  0  0  0  0  0
  161.0790  207.1260  149.0070 C   0  0  0  0  0  1  0  0  0  0  0  0
  161.9520  208.0980  149.6510 N   0  0  0  0  0  0  0  0  0  0  0  0
  161.6860  210.3430  150.7770 C   0  0  1  0  0  3  0  0  0  0  0  0
  163.1130  210.3440  151.3050 C   0  0  0  0  0  1  0  0  0  0  0  0
  161.5930  211.2220  149.5140 C   0  0  1  0  0  3  0  0  0  0  0  0
  162.5890  208.8750  148.5790 C   0  0  0  0  0  2  0  0  0  0  0  0
  161.5220  210.2280  147.9590 S   0  0  0  0  0  0  0  0  0  0  0  0
  161.6880  206.3880  153.4840 C   0  0  1  0  0  3  0  0  0  0  0  0
  160.8170  208.5600  154.2760 C   0  0  0  0  0  3  0  0  0  0  0  0
  161.5330  205.0170  153.5520 F   0  0  0  0  0  0  0  0  0  0  0  0
  161.5500  206.8570  152.0230 C   0  0  0  0  0  2  0  0  0  0  0  0
  160.8610  209.0870  153.0490 C   0  0  0  0  0  3  0  0  0  0  0  0
  160.7760  208.1820  151.8470 C   0  0  1  0  0  3  0  0  0  0  0  0
  160.7010  207.0730  154.4320 C   0  0  0  0  0  2  0  0  0  0  0  0
  160.8740  212.9090  147.1760 C   0  0  0  0  0  0  0  0  0  0  0  0
  162.8450  214.1590  146.7280 C   0  0  0  0  0  3  0  0  0  0  0  0
  161.9320  213.6540  147.5960 N   0  0  0  0  0  0  0  0  0  0  0  0
  159.6280  211.8300  145.2330 C   0  0  0  0  0  1  0  0  0  0  0  0
  162.7020  213.9110  145.3660 C   0  0  0  0  0  0  0  0  0  0  0  0
  163.6880  214.4530  144.3960 C   0  0  0  0  0  1  0  0  0  0  0  0
  160.7340  212.6570  145.7920 C   0  0  0  0  0  0  0  0  0  0  0  0
  161.6540  213.1660  144.9310 N   0  0  0  0  0  0  0  0  0  0  0  0
  2 24  1  1  0  0  0
  2  3  1  0  0  0  0
  3  6  1  6  0  0  0
  5  1  1  0  0  0  0
  6  1  1  0  0  0  0
  7  5  1  0  0  0  0
  8  4  1  6  0  0  0
  8  2  1  0  0  0  0
  8  7  1  0  0  0  0
  9 11  1  1  0  0  0
  9 12  1  0  0  0  0
  9 22  1  0  0  0  0
 10 11  1  0  0  0  0
 12 13  1  6  0  0  0
 14 16  1  6  0  0  0
 14  3  1  0  0  0  0
 14 12  1  0  0  0  0
 15 11  1  0  0  0  0
 16 15  1  0  0  0  0
 17 19  1  6  0  0  0
 17 23  1  0  0  0  0
 18 23  1  0  0  0  0
 20 17  1  0  0  0  0
 21 18  2  0  0  0  0
 22 20  1  1  0  0  0
 22 21  1  0  0  0  0
 24 26  1  0  0  0  0
 25 26  2  0  0  0  0
 27 30  1  0  0  0  0
 28 25  1  0  0  0  0
 29 28  1  0  0  0  0
 30 24  2  0  0  0  0
 31 28  2  0  0  0  0
 31 30  1  0  0  0  0
M  END
>  <MODEL>
3

>  <REMARK>
 VINA RESULT:      -0.6      8.565     12.128
  Name = 
  3 active torsions:
  status: ('A' for Active; 'I' for Inactive)
    1  A    between atoms: C_3  and  C_22
    2  A    between atoms: C_4  and  C_5
    3  A    between atoms: N_12  and  C_21
                            x       y       z     vdW  Elec       q    Type
                         _______ _______ _______ _____ _____    ______ ____

>  <TORSDO>
F 3

$$$$
=
 OpenBabel11052422283D

 31 34  0  0  1  0  0  0  0  0999 V2000
  159.7980  206.9540  155.6920 C   0  0  0  0  0  2  0  0  0  0  0  0
  160.8770  209.6280  154.3170 C   0  0  1  0  0  3  0  0  0  0  0  0
  160.8660  208.2160  153.8850 N   0  0  2  0  0  0  0  0  0  0  0  0
  159.6710  211.2620  155.9180 C   0  0  0  0  0  1  0  0  0  0  0  0
  159.0970  208.1350  156.3530 C   0  0  0  0  0  2  0  0  0  0  0  0
  161.1160  207.3680  155.0520 C   0  0  0  0  0  2  0  0  0  0  0  0
  158.5340  209.0910  155.3080 C   0  0  0  0  0  2  0  0  0  0  0  0
  159.5390  210.1630  154.8760 C   0  0  2  0  0  3  0  0  0  0  0  0
  161.1130  206.3560  151.0160 C   0  0  2  0  0  3  0  0  0  0  0  0
  160.8310  207.3270  148.8740 C   0  0  0  0  0  1  0  0  0  0  0  0
  161.8250  206.9510  149.8700 N   0  0  0  0  0  0  0  0  0  0  0  0
  161.8590  206.5160  152.3580 C   0  0  1  0  0  3  0  0  0  0  0  0
  163.2730  205.9560  152.3280 C   0  0  0  0  0  1  0  0  0  0  0  0
  161.8830  207.9790  152.8450 C   0  0  1  0  0  3  0  0  0  0  0  0
  162.5600  208.1740  150.2230 C   0  0  0  0  0  2  0  0  0  0  0  0
  161.6820  209.1910  151.4670 S   0  0  0  0  0  0  0  0  0  0  0  0
  161.2030  202.8770  149.2100 C   0  0  1  0  0  3  0  0  0  0  0  0
  160.9480  202.6570  151.6570 C   0  0  0  0  0  3  0  0  0  0  0  0
  160.7180  202.4700  147.9830 F   0  0  0  0  0  0  0  0  0  0  0  0
  161.1000  204.4100  149.3300 C   0  0  0  0  0  2  0  0  0  0  0  0
  161.0490  203.9760  151.8410 C   0  0  0  0  0  3  0  0  0  0  0  0
  160.6700  204.9140  150.7250 C   0  0  1  0  0  3  0  0  0  0  0  0
  160.4760  202.1350  150.3330 C   0  0  0  0  0  2  0  0  0  0  0  0
  162.2030  210.2100  154.7810 C   0  0  0  0  0  0  0  0  0  0  0  0
  164.2820  211.1620  154.1350 C   0  0  0  0  0  3  0  0  0  0  0  0
  163.0680  210.6410  153.8240 N   0  0  0  0  0  0  0  0  0  0  0  0
  161.7050  209.8990  157.2610 C   0  0  0  0  0  1  0  0  0  0  0  0
  164.6600  211.2620  155.4700 C   0  0  0  0  0  0  0  0  0  0  0  0
  165.9840  211.8280  155.8360 C   0  0  0  0  0  1  0  0  0  0  0  0
  162.5890  210.3160  156.1370 C   0  0  0  0  0  0  0  0  0  0  0  0
  163.8070  210.8400  156.4380 N   0  0  0  0  0  0  0  0  0  0  0  0
  1  5  1  0  0  0  0
  2 24  1  1  0  0  0
  2  8  1  0  0  0  0
  3  2  1  0  0  0  0
  3  6  1  1  0  0  0
  6  1  1  0  0  0  0
  7  5  1  0  0  0  0
  8  7  1  0  0  0  0
  8  4  1  1  0  0  0
  9 11  1  6  0  0  0
  9 12  1  0  0  0  0
 10 11  1  0  0  0  0
 11 15  1  0  0  0  0
 12 13  1  6  0  0  0
 12 14  1  0  0  0  0
 14 16  1  6  0  0  0
 14  3  1  0  0  0  0
 15 16  1  0  0  0  0
 17 19  1  6  0  0  0
 17 20  1  0  0  0  0
 17 23  1  0  0  0  0
 18 21  2  0  0  0  0
 22 20  1  6  0  0  0
 22  9  1  0  0  0  0
 22 21  1  0  0  0  0
 23 18  1  0  0  0  0
 24 30  1  0  0  0  0
 25 28  2  0  0  0  0
 26 25  1  0  0  0  0
 26 24  2  0  0  0  0
 28 29  1  0  0  0  0
 28 31  1  0  0  0  0
 30 31  2  0  0  0  0
 30 27  1  0  0  0  0
M  END
>  <MODEL>
4

>  <REMARK>
 VINA RESULT:      -0.3     12.597     15.747
  Name = 
  3 active torsions:
  status: ('A' for Active; 'I' for Inactive)
    1  A    between atoms: C_3  and  C_22
    2  A    between atoms: C_4  and  C_5
    3  A    between atoms: N_12  and  C_21
                            x       y       z     vdW  Elec       q    Type
                         _______ _______ _______ _____ _____    ______ ____

>  <TORSDO>
F 3

$$$$
