=
 OpenBabel11052422203D

 25 28  0  0  1  0  0  0  0  0999 V2000
  161.1120  205.7820  150.1650 C   0  0  0  0  0  0  0  0  0  0  0  0
  161.2820  207.0730  150.6670 C   0  0  0  0  0  0  0  0  0  0  0  0
  161.2840  204.7890  152.3560 C   0  0  0  0  0  3  0  0  0  0  0  0
  160.8570  205.3230  148.7750 C   0  0  2  0  0  3  0  0  0  0  0  0
  161.9140  209.4030  150.0280 C   0  0  2  0  0  3  0  0  0  0  0  0
  161.7690  203.3920  146.8430 C   0  0  0  0  0  3  0  0  0  0  0  0
  161.4480  206.0730  152.8980 C   0  0  0  0  0  3  0  0  0  0  0  0
  160.8330  203.8340  149.0080 C   0  0  0  0  0  0  0  0  0  0  0  0
  161.0770  202.9200  147.8890 C   0  0  0  0  0  3  0  0  0  0  0  0
  161.5540  208.6050  152.6910 C   0  0  2  0  0  3  0  0  0  0  0  0
  161.4100  208.6130  154.2070 C   0  0  0  0  0  1  0  0  0  0  0  0
  161.2860  208.1500  149.7670 O   0  0  0  0  0  0  0  0  0  0  0  0
  162.3100  204.7770  146.8490 C   0  0  0  0  0  3  0  0  0  0  0  0
  161.0940  204.6810  150.9830 C   0  0  0  0  0  0  0  0  0  0  0  0
  160.9600  203.4750  150.2480 N   0  0  0  0  0  0  0  0  0  0  0  0
  160.5440  209.4830  152.1130 N   0  0  0  0  0  2  0  0  0  0  0  0
  161.9400  205.6660  147.7860 C   0  0  0  0  0  3  0  0  0  0  0  0
  161.1370  210.2650  151.0300 C   0  0  0  0  0  2  0  0  0  0  0  0
  161.4320  207.2280  152.0760 C   0  0  0  0  0  0  0  0  0  0  0  0
  162.2020  210.1750  148.7350 C   0  0  0  0  0  2  0  0  0  0  0  0
  163.3810  212.3050  148.3140 N   0  0  0  0  0  1  0  0  0  0  0  0
  162.1610  211.7080  148.8350 C   0  0  1  0  0  3  0  0  0  0  0  0
  160.9480  212.3180  148.2070 C   0  0  0  0  0  0  0  0  0  0  0  0
  160.2570  213.3380  148.8510 O   0  0  0  0  0  1  0  0  0  0  0  0
  160.5710  211.9280  147.0730 O   0  0  0  0  0  0  0  0  0  0  0  0
  1  2  2  0  0  0  0
  1 14  1  0  0  0  0
  2 19  1  0  0  0  0
  3  7  1  0  0  0  0
  4 17  1  6  0  0  0
  4  8  1  0  0  0  0
  4  1  1  0  0  0  0
  5 20  1  6  0  0  0
  5 18  1  0  0  0  0
  6 13  1  0  0  0  0
  6  9  2  0  0  0  0
  8 15  2  0  0  0  0
  9  8  1  0  0  0  0
 10 11  1  1  0  0  0
 12  5  1  0  0  0  0
 12  2  1  0  0  0  0
 13 17  2  0  0  0  0
 14  3  2  0  0  0  0
 15 14  1  0  0  0  0
 16 10  1  0  0  0  0
 18 16  1  0  0  0  0
 19 10  1  0  0  0  0
 19  7  2  0  0  0  0
 20 22  1  0  0  0  0
 22 21  1  6  0  0  0
 23 22  1  0  0  0  0
 23 24  1  0  0  0  0
 25 23  2  0  0  0  0
M  END
>  <MODEL>
1

>  <REMARK>
 VINA RESULT:      -8.6      0.000      0.000
  Name = 
  3 active torsions:
  status: ('A' for Active; 'I' for Inactive)
    1  A    between atoms: C_2  and  CA_25
    2  A    between atoms: C_6  and  C_15
    3  A    between atoms: C_15  and  CA_25
                            x       y       z     vdW  Elec       q    Type
                         _______ _______ _______ _____ _____    ______ ____

>  <TORSDO>
F 3

$$$$
=
 OpenBabel11052422203D

 25 28  0  0  1  0  0  0  0  0999 V2000
  161.1430  206.1540  150.1520 C   0  0  0  0  0  0  0  0  0  0  0  0
  161.2680  207.3260  150.9010 C   0  0  0  0  0  0  0  0  0  0  0  0
  161.1270  204.7640  152.1220 C   0  0  0  0  0  3  0  0  0  0  0  0
  161.0100  205.9690  148.6840 C   0  0  2  0  0  3  0  0  0  0  0  0
  161.9480  209.7250  150.7690 C   0  0  2  0  0  3  0  0  0  0  0  0
  162.0880  204.4220  146.5060 C   0  0  0  0  0  3  0  0  0  0  0  0
  161.2420  205.9210  152.9090 C   0  0  0  0  0  3  0  0  0  0  0  0
  160.9680  204.4630  148.6280 C   0  0  0  0  0  0  0  0  0  0  0  0
  161.3090  203.7720  147.3820 C   0  0  0  0  0  3  0  0  0  0  0  0
  161.3620  208.4450  153.1930 C   0  0  2  0  0  3  0  0  0  0  0  0
  161.0880  208.1700  154.6660 C   0  0  0  0  0  1  0  0  0  0  0  0
  161.3470  208.5520  150.2230 O   0  0  0  0  0  0  0  0  0  0  0  0
  162.6250  205.7730  146.8200 C   0  0  0  0  0  3  0  0  0  0  0  0
  161.0570  204.9200  150.7430 C   0  0  0  0  0  0  0  0  0  0  0  0
  160.9880  203.8760  149.7840 N   0  0  0  0  0  0  0  0  0  0  0  0
  160.4040  209.4310  152.7070 N   0  0  0  0  0  2  0  0  0  0  0  0
  162.1740  206.4760  147.8720 C   0  0  0  0  0  3  0  0  0  0  0  0
  161.0870  210.3940  151.8460 C   0  0  0  0  0  2  0  0  0  0  0  0
  161.2950  207.2100  152.3210 C   0  0  0  0  0  0  0  0  0  0  0  0
  162.3460  210.7210  149.6740 C   0  0  0  0  0  2  0  0  0  0  0  0
  160.9130  212.7140  149.9540 N   0  0  0  0  0  1  0  0  0  0  0  0
  161.2130  211.5820  149.0930 C   0  0  1  0  0  3  0  0  0  0  0  0
  161.4560  212.0210  147.6840 C   0  0  0  0  0  0  0  0  0  0  0  0
  160.4070  212.0900  146.7740 O   0  0  0  0  0  0  0  0  0  0  0  0
  162.6130  212.3640  147.3290 O   0  0  0  0  0  1  0  0  0  0  0  0
  1 14  2  0  0  0  0
  1  2  1  0  0  0  0
  2 19  2  0  0  0  0
  3  7  2  0  0  0  0
  4 17  1  6  0  0  0
  4  1  1  0  0  0  0
  5 20  1  6  0  0  0
  5 18  1  0  0  0  0
  6 13  1  0  0  0  0
  6  9  2  0  0  0  0
  8  4  1  0  0  0  0
  8 15  2  0  0  0  0
  9  8  1  0  0  0  0
 10 11  1  1  0  0  0
 12  5  1  0  0  0  0
 12  2  1  0  0  0  0
 13 17  2  0  0  0  0
 14  3  1  0  0  0  0
 15 14  1  0  0  0  0
 16 10  1  0  0  0  0
 18 16  1  0  0  0  0
 19  7  1  0  0  0  0
 19 10  1  0  0  0  0
 22 20  1  0  0  0  0
 22 21  1  1  0  0  0
 23 22  1  0  0  0  0
 24 23  2  0  0  0  0
 25 23  1  0  0  0  0
M  END
>  <MODEL>
2

>  <REMARK>
 VINA RESULT:      -8.2      1.008      1.115
  Name = 
  3 active torsions:
  status: ('A' for Active; 'I' for Inactive)
    1  A    between atoms: C_2  and  CA_25
    2  A    between atoms: C_6  and  C_15
    3  A    between atoms: C_15  and  CA_25
                            x       y       z     vdW  Elec       q    Type
                         _______ _______ _______ _____ _____    ______ ____

>  <TORSDO>
F 3

$$$$
=
 OpenBabel11052422203D

 25 28  0  0  1  0  0  0  0  0999 V2000
  161.0630  204.6540  150.6240 C   0  0  0  0  0  0  0  0  0  0  0  0
  161.4320  205.9160  150.1520 C   0  0  0  0  0  0  0  0  0  0  0  0
  161.6410  205.2130  152.8970 C   0  0  0  0  0  3  0  0  0  0  0  0
  160.4770  203.4980  149.8990 C   0  0  2  0  0  3  0  0  0  0  0  0
  162.0730  207.1760  148.0940 C   0  0  2  0  0  3  0  0  0  0  0  0
  160.8010  200.6550  149.5660 C   0  0  0  0  0  3  0  0  0  0  0  0
  162.0120  206.4950  152.4610 C   0  0  0  0  0  3  0  0  0  0  0  0
  160.3980  202.5100  151.0340 C   0  0  0  0  0  0  0  0  0  0  0  0
  160.3230  201.0750  150.7460 C   0  0  0  0  0  3  0  0  0  0  0  0
  162.2520  208.2780  150.6650 C   0  0  2  0  0  3  0  0  0  0  0  0
  162.4460  209.2470  151.8240 C   0  0  0  0  0  1  0  0  0  0  0  0
  161.3150  206.1810  148.7790 O   0  0  0  0  0  0  0  0  0  0  0  0
  161.4280  201.6100  148.6140 C   0  0  0  0  0  3  0  0  0  0  0  0
  161.1470  204.3220  151.9520 C   0  0  0  0  0  0  0  0  0  0  0  0
  160.7680  202.9750  152.1870 N   0  0  0  0  0  0  0  0  0  0  0  0
  161.2050  208.7890  149.7880 N   0  0  0  0  0  2  0  0  0  0  0  0
  161.3380  202.9380  148.7960 C   0  0  0  0  0  3  0  0  0  0  0  0
  161.6000  208.6020  148.3940 C   0  0  0  0  0  2  0  0  0  0  0  0
  161.8990  206.8730  151.1000 C   0  0  0  0  0  0  0  0  0  0  0  0
  162.1260  206.9110  146.5850 C   0  0  0  0  0  2  0  0  0  0  0  0
  160.3950  206.1540  144.9920 N   0  0  0  0  0  1  0  0  0  0  0  0
  161.2770  205.7370  146.0700 C   0  0  1  0  0  3  0  0  0  0  0  0
  162.0840  204.5400  145.6790 C   0  0  0  0  0  0  0  0  0  0  0  0
  161.4570  203.3690  145.2680 O   0  0  0  0  0  0  0  0  0  0  0  0
  163.3400  204.6050  145.6890 O   0  0  0  0  0  1  0  0  0  0  0  0
  1 14  1  0  0  0  0
  2  1  2  0  0  0  0
  2 19  1  0  0  0  0
  4 17  1  6  0  0  0
  4  1  1  0  0  0  0
  4  8  1  0  0  0  0
  5 20  1  6  0  0  0
  5 18  1  0  0  0  0
  5 12  1  0  0  0  0
  6  9  2  0  0  0  0
  7  3  1  0  0  0  0
  8 15  2  0  0  0  0
  9  8  1  0  0  0  0
 10 19  1  0  0  0  0
 10 11  1  1  0  0  0
 12  2  1  0  0  0  0
 13 17  2  0  0  0  0
 13  6  1  0  0  0  0
 14 15  1  0  0  0  0
 14  3  2  0  0  0  0
 16 10  1  0  0  0  0
 18 16  1  0  0  0  0
 19  7  2  0  0  0  0
 22 21  1  6  0  0  0
 22 20  1  0  0  0  0
 23 25  1  0  0  0  0
 23 22  1  0  0  0  0
 24 23  2  0  0  0  0
M  END
>  <MODEL>
3

>  <REMARK>
 VINA RESULT:      -8.0      2.676      4.364
  Name = 
  3 active torsions:
  status: ('A' for Active; 'I' for Inactive)
    1  A    between atoms: C_2  and  CA_25
    2  A    between atoms: C_6  and  C_15
    3  A    between atoms: C_15  and  CA_25
                            x       y       z     vdW  Elec       q    Type
                         _______ _______ _______ _____ _____    ______ ____

>  <TORSDO>
F 3

$$$$
=
 OpenBabel11052422203D

 25 28  0  0  1  0  0  0  0  0999 V2000
  161.6030  205.1320  150.2680 C   0  0  0  0  0  0  0  0  0  0  0  0
  161.3050  203.9440  149.5960 C   0  0  0  0  0  0  0  0  0  0  0  0
  160.6880  204.3180  152.3450 C   0  0  0  0  0  3  0  0  0  0  0  0
  162.2950  206.3540  149.7840 C   0  0  2  0  0  3  0  0  0  0  0  0
  160.9760  202.9530  147.3280 C   0  0  2  0  0  3  0  0  0  0  0  0
  162.0350  209.2230  149.7540 C   0  0  0  0  0  3  0  0  0  0  0  0
  160.3830  203.1060  151.7070 C   0  0  0  0  0  3  0  0  0  0  0  0
  162.2060  207.1970  151.0300 C   0  0  0  0  0  0  0  0  0  0  0  0
  162.3280  208.6540  150.9320 C   0  0  0  0  0  3  0  0  0  0  0  0
  160.4100  201.5560  149.6910 C   0  0  2  0  0  3  0  0  0  0  0  0
  160.0410  200.4600  150.6820 C   0  0  0  0  0  1  0  0  0  0  0  0
  161.6260  203.8420  148.2340 O   0  0  0  0  0  0  0  0  0  0  0  0
  161.5540  208.4020  148.6100 C   0  0  0  0  0  3  0  0  0  0  0  0
  161.3220  205.3050  151.5990 C   0  0  0  0  0  0  0  0  0  0  0  0
  161.6650  206.6050  152.0500 N   0  0  0  0  0  0  0  0  0  0  0  0
  161.5750  201.1310  148.9250 N   0  0  0  0  0  2  0  0  0  0  0  0
  161.6120  207.0600  148.6420 C   0  0  0  0  0  3  0  0  0  0  0  0
  161.3940  201.4910  147.5200 C   0  0  0  0  0  2  0  0  0  0  0  0
  160.6980  202.8910  150.3420 C   0  0  0  0  0  0  0  0  0  0  0  0
  161.1520  203.3970  145.8720 C   0  0  0  0  0  2  0  0  0  0  0  0
  163.2250  204.6040  145.2800 N   0  0  0  0  0  1  0  0  0  0  0  0
  161.8290  204.7600  145.6530 C   0  0  1  0  0  3  0  0  0  0  0  0
  161.1050  205.6410  144.6860 C   0  0  0  0  0  0  0  0  0  0  0  0
  161.4580  205.6560  143.3410 O   0  0  0  0  0  0  0  0  0  0  0  0
  160.1460  206.3500  145.0860 O   0  0  0  0  0  1  0  0  0  0  0  0
  1 14  1  0  0  0  0
  2  1  2  0  0  0  0
  2 19  1  0  0  0  0
  4 17  1  6  0  0  0
  4  1  1  0  0  0  0
  4  8  1  0  0  0  0
  5 20  1  6  0  0  0
  5 18  1  0  0  0  0
  5 12  1  0  0  0  0
  6  9  2  0  0  0  0
  7  3  1  0  0  0  0
  8 15  2  0  0  0  0
  9  8  1  0  0  0  0
 10 19  1  0  0  0  0
 10 11  1  1  0  0  0
 12  2  1  0  0  0  0
 13 17  2  0  0  0  0
 13  6  1  0  0  0  0
 14 15  1  0  0  0  0
 14  3  2  0  0  0  0
 16 10  1  0  0  0  0
 18 16  1  0  0  0  0
 19  7  2  0  0  0  0
 22 21  1  6  0  0  0
 22 20  1  0  0  0  0
 23 25  1  0  0  0  0
 23 22  1  0  0  0  0
 24 23  2  0  0  0  0
M  END
>  <MODEL>
4

>  <REMARK>
 VINA RESULT:      -7.7      3.119      6.115
  Name = 
  3 active torsions:
  status: ('A' for Active; 'I' for Inactive)
    1  A    between atoms: C_2  and  CA_25
    2  A    between atoms: C_6  and  C_15
    3  A    between atoms: C_15  and  CA_25
                            x       y       z     vdW  Elec       q    Type
                         _______ _______ _______ _____ _____    ______ ____

>  <TORSDO>
F 3

$$$$
=
 OpenBabel11052422203D

 25 28  0  0  1  0  0  0  0  0999 V2000
  161.0440  206.2190  150.7550 C   0  0  0  0  0  0  0  0  0  0  0  0
  161.1620  207.1830  151.7580 C   0  0  0  0  0  0  0  0  0  0  0  0
  161.0070  204.4080  152.3470 C   0  0  0  0  0  3  0  0  0  0  0  0
  160.9270  206.3810  149.2830 C   0  0  2  0  0  3  0  0  0  0  0  0
  161.8450  209.5450  152.1970 C   0  0  2  0  0  3  0  0  0  0  0  0
  162.0290  205.3820  146.8170 C   0  0  0  0  0  3  0  0  0  0  0  0
  161.1130  205.3490  153.3830 C   0  0  0  0  0  3  0  0  0  0  0  0
  160.8860  204.9310  148.8780 C   0  0  0  0  0  0  0  0  0  0  0  0
  161.2400  204.5480  147.5090 C   0  0  0  0  0  3  0  0  0  0  0  0
  161.2310  207.7370  154.2490 C   0  0  2  0  0  3  0  0  0  0  0  0
  160.9400  207.1270  155.6140 C   0  0  0  0  0  1  0  0  0  0  0  0
  161.2490  208.5330  151.3870 O   0  0  0  0  0  0  0  0  0  0  0  0
  162.5630  206.6210  147.4420 C   0  0  0  0  0  3  0  0  0  0  0  0
  160.9510  204.8810  151.0420 C   0  0  0  0  0  0  0  0  0  0  0  0
  160.8930  204.0890  149.8650 N   0  0  0  0  0  0  0  0  0  0  0  0
  160.2790  208.8120  153.9970 N   0  0  0  0  0  2  0  0  0  0  0  0
  162.1000  207.0600  148.6250 C   0  0  0  0  0  3  0  0  0  0  0  0
  160.9720  209.9470  153.3910 C   0  0  0  0  0  2  0  0  0  0  0  0
  161.1730  206.7390  153.1130 C   0  0  0  0  0  0  0  0  0  0  0  0
  162.2550  210.7680  151.3690 C   0  0  0  0  0  2  0  0  0  0  0  0
  160.5140  212.4320  150.8210 N   0  0  0  0  0  1  0  0  0  0  0  0
  161.2320  211.2650  150.3360 C   0  0  1  0  0  3  0  0  0  0  0  0
  161.8170  211.5130  148.9820 C   0  0  0  0  0  0  0  0  0  0  0  0
  162.1980  212.7940  148.6000 O   0  0  0  0  0  1  0  0  0  0  0  0
  161.9960  210.5480  148.1950 O   0  0  0  0  0  0  0  0  0  0  0  0
  1 14  2  0  0  0  0
  1  2  1  0  0  0  0
  2 19  2  0  0  0  0
  3  7  2  0  0  0  0
  4 17  1  6  0  0  0
  4  1  1  0  0  0  0
  5 20  1  6  0  0  0
  5 18  1  0  0  0  0
  6 13  1  0  0  0  0
  6  9  2  0  0  0  0
  8  4  1  0  0  0  0
  8 15  2  0  0  0  0
  9  8  1  0  0  0  0
 10 11  1  1  0  0  0
 12  2  1  0  0  0  0
 12  5  1  0  0  0  0
 13 17  2  0  0  0  0
 14  3  1  0  0  0  0
 15 14  1  0  0  0  0
 16 10  1  0  0  0  0
 18 16  1  0  0  0  0
 19  7  1  0  0  0  0
 19 10  1  0  0  0  0
 22 21  1  1  0  0  0
 22 20  1  0  0  0  0
 23 22  1  0  0  0  0
 24 23  1  0  0  0  0
 25 23  2  0  0  0  0
M  END
>  <MODEL>
5

>  <REMARK>
 VINA RESULT:      -7.5      1.453      1.813
  Name = 
  3 active torsions:
  status: ('A' for Active; 'I' for Inactive)
    1  A    between atoms: C_2  and  CA_25
    2  A    between atoms: C_6  and  C_15
    3  A    between atoms: C_15  and  CA_25
                            x       y       z     vdW  Elec       q    Type
                         _______ _______ _______ _____ _____    ______ ____

>  <TORSDO>
F 3

$$$$
=
 OpenBabel11052422203D

 25 28  0  0  1  0  0  0  0  0999 V2000
  161.0500  206.2970  150.8520 C   0  0  0  0  0  0  0  0  0  0  0  0
  161.0510  207.4460  151.6450 C   0  0  0  0  0  0  0  0  0  0  0  0
  161.5820  204.8720  152.7240 C   0  0  0  0  0  3  0  0  0  0  0  0
  160.7490  206.1340  149.4070 C   0  0  2  0  0  3  0  0  0  0  0  0
  161.2310  209.9360  151.5630 C   0  0  2  0  0  3  0  0  0  0  0  0
  161.7860  204.9010  147.0190 C   0  0  0  0  0  3  0  0  0  0  0  0
  161.5810  206.0030  153.5540 C   0  0  0  0  0  3  0  0  0  0  0  0
  160.9910  204.6530  149.2700 C   0  0  0  0  0  0  0  0  0  0  0  0
  161.2790  204.0820  147.9520 C   0  0  0  0  0  3  0  0  0  0  0  0
  161.2510  208.4910  153.9660 C   0  0  2  0  0  3  0  0  0  0  0  0
  161.2460  208.1220  155.4430 C   0  0  0  0  0  1  0  0  0  0  0  0
  160.7960  208.6840  151.0360 O   0  0  0  0  0  0  0  0  0  0  0  0
  162.0910  206.3210  147.3370 C   0  0  0  0  0  3  0  0  0  0  0  0
  161.2880  205.0520  151.3770 C   0  0  0  0  0  0  0  0  0  0  0  0
  161.2870  204.0460  150.3770 N   0  0  0  0  0  0  0  0  0  0  0  0
  160.0620  209.2810  153.6690 N   0  0  0  0  0  2  0  0  0  0  0  0
  161.6670  206.8880  148.4790 C   0  0  0  0  0  3  0  0  0  0  0  0
  160.4180  210.3860  152.7820 C   0  0  0  0  0  2  0  0  0  0  0  0
  161.3010  207.2940  153.0410 C   0  0  0  0  0  0  0  0  0  0  0  0
  161.2710  211.0250  150.4860 C   0  0  0  0  0  2  0  0  0  0  0  0
  162.1450  209.6840  148.6040 N   0  0  0  0  0  1  0  0  0  0  0  0
  162.3560  210.8760  149.4080 C   0  0  1  0  0  3  0  0  0  0  0  0
  162.5180  212.0890  148.5480 C   0  0  0  0  0  0  0  0  0  0  0  0
  163.6610  212.2600  147.7750 O   0  0  0  0  0  0  0  0  0  0  0  0
  161.5970  212.9440  148.4970 O   0  0  0  0  0  1  0  0  0  0  0  0
  1 14  2  0  0  0  0
  1  2  1  0  0  0  0
  2 19  2  0  0  0  0
  3  7  2  0  0  0  0
  4 17  1  6  0  0  0
  4  1  1  0  0  0  0
  5 20  1  6  0  0  0
  5 18  1  0  0  0  0
  6 13  1  0  0  0  0
  6  9  2  0  0  0  0
  8  4  1  0  0  0  0
  8 15  2  0  0  0  0
  9  8  1  0  0  0  0
 10 11  1  1  0  0  0
 12  5  1  0  0  0  0
 12  2  1  0  0  0  0
 13 17  2  0  0  0  0
 14  3  1  0  0  0  0
 15 14  1  0  0  0  0
 16 10  1  0  0  0  0
 18 16  1  0  0  0  0
 19  7  1  0  0  0  0
 19 10  1  0  0  0  0
 22 21  1  6  0  0  0
 22 20  1  0  0  0  0
 23 22  1  0  0  0  0
 24 23  2  0  0  0  0
 25 23  1  0  0  0  0
M  END
>  <MODEL>
6

>  <REMARK>
 VINA RESULT:      -7.5      1.313      1.606
  Name = 
  3 active torsions:
  status: ('A' for Active; 'I' for Inactive)
    1  A    between atoms: C_2  and  CA_25
    2  A    between atoms: C_6  and  C_15
    3  A    between atoms: C_15  and  CA_25
                            x       y       z     vdW  Elec       q    Type
                         _______ _______ _______ _____ _____    ______ ____

>  <TORSDO>
F 3

$$$$
=
 OpenBabel11052422203D

 25 28  0  0  1  0  0  0  0  0999 V2000
  161.5190  205.2690  149.1280 C   0  0  0  0  0  0  0  0  0  0  0  0
  161.5520  206.5030  149.7810 C   0  0  0  0  0  0  0  0  0  0  0  0
  161.4370  206.2990  146.9490 C   0  0  0  0  0  3  0  0  0  0  0  0
  161.5850  203.8930  149.6830 C   0  0  2  0  0  3  0  0  0  0  0  0
  161.1460  207.6180  151.9780 C   0  0  2  0  0  3  0  0  0  0  0  0
  160.2710  201.3360  149.5150 C   0  0  0  0  0  3  0  0  0  0  0  0
  161.4800  207.5570  147.5700 C   0  0  0  0  0  3  0  0  0  0  0  0
  161.4520  203.1050  148.4060 C   0  0  0  0  0  0  0  0  0  0  0  0
  160.9970  201.7130  148.4530 C   0  0  0  0  0  3  0  0  0  0  0  0
  161.6570  209.0480  149.6210 C   0  0  2  0  0  3  0  0  0  0  0  0
  161.9440  210.1700  148.6320 C   0  0  0  0  0  1  0  0  0  0  0  0
  161.5920  206.5210  151.1830 O   0  0  0  0  0  0  0  0  0  0  0  0
  159.9010  202.3130  150.5730 C   0  0  0  0  0  3  0  0  0  0  0  0
  161.4820  205.1720  147.7600 C   0  0  0  0  0  0  0  0  0  0  0  0
  161.4020  203.8230  147.3260 N   0  0  0  0  0  0  0  0  0  0  0  0
  162.7060  209.0290  150.6340 N   0  0  0  0  0  2  0  0  0  0  0  0
  160.4620  203.5340  150.6220 C   0  0  0  0  0  3  0  0  0  0  0  0
  162.1110  208.8090  151.9510 C   0  0  0  0  0  2  0  0  0  0  0  0
  161.5560  207.6820  148.9790 C   0  0  0  0  0  0  0  0  0  0  0  0
  160.8310  207.1890  153.4150 C   0  0  0  0  0  2  0  0  0  0  0  0
  160.0720  209.3510  154.3390 N   0  0  0  0  0  1  0  0  0  0  0  0
  161.0190  208.2590  154.5020 C   0  0  1  0  0  3  0  0  0  0  0  0
  160.9830  207.7130  155.8940 C   0  0  0  0  0  0  0  0  0  0  0  0
  161.9580  208.0700  156.8180 O   0  0  0  0  0  1  0  0  0  0  0  0
  160.0440  206.9520  156.2410 O   0  0  0  0  0  0  0  0  0  0  0  0
  1  4  1  0  0  0  0
  1  2  1  0  0  0  0
  2 12  1  0  0  0  0
  3  7  2  0  0  0  0
  3 14  1  0  0  0  0
  4 17  1  1  0  0  0
  5 20  1  1  0  0  0
  6 13  1  0  0  0  0
  7 19  1  0  0  0  0
  8  9  1  0  0  0  0
  8  4  1  0  0  0  0
  9  6  2  0  0  0  0
 10 11  1  6  0  0  0
 10 16  1  0  0  0  0
 12  5  1  0  0  0  0
 13 17  2  0  0  0  0
 14  1  2  0  0  0  0
 15 14  1  0  0  0  0
 15  8  2  0  0  0  0
 16 18  1  0  0  0  0
 18  5  1  0  0  0  0
 19 10  1  0  0  0  0
 19  2  2  0  0  0  0
 20 22  1  0  0  0  0
 22 21  1  1  0  0  0
 22 23  1  0  0  0  0
 23 25  2  0  0  0  0
 23 24  1  0  0  0  0
M  END
>  <MODEL>
7

>  <REMARK>
 VINA RESULT:      -7.5      2.592      5.056
  Name = 
  3 active torsions:
  status: ('A' for Active; 'I' for Inactive)
    1  A    between atoms: C_2  and  CA_25
    2  A    between atoms: C_6  and  C_15
    3  A    between atoms: C_15  and  CA_25
                            x       y       z     vdW  Elec       q    Type
                         _______ _______ _______ _____ _____    ______ ____

>  <TORSDO>
F 3

$$$$
=
 OpenBabel11052422203D

 25 28  0  0  1  0  0  0  0  0999 V2000
  161.4210  205.4740  151.4210 C   0  0  0  0  0  0  0  0  0  0  0  0
  161.2740  204.7600  150.2300 C   0  0  0  0  0  0  0  0  0  0  0  0
  160.7220  203.5970  152.7640 C   0  0  0  0  0  3  0  0  0  0  0  0
  161.9050  206.8600  151.6490 C   0  0  2  0  0  3  0  0  0  0  0  0
  161.0020  205.0150  147.7610 C   0  0  2  0  0  3  0  0  0  0  0  0
  161.2230  209.2750  153.0630 C   0  0  0  0  0  3  0  0  0  0  0  0
  160.5730  202.8440  151.5890 C   0  0  0  0  0  3  0  0  0  0  0  0
  161.7430  206.9340  153.1460 C   0  0  0  0  0  0  0  0  0  0  0  0
  161.6450  208.2400  153.8030 C   0  0  0  0  0  3  0  0  0  0  0  0
  160.7460  202.5490  149.0690 C   0  0  2  0  0  3  0  0  0  0  0  0
  160.5840  201.0610  149.3550 C   0  0  0  0  0  1  0  0  0  0  0  0
  161.5500  205.4090  149.0170 O   0  0  0  0  0  0  0  0  0  0  0  0
  160.8210  209.0840  151.6440 C   0  0  0  0  0  3  0  0  0  0  0  0
  161.1720  204.9060  152.6440 C   0  0  0  0  0  0  0  0  0  0  0  0
  161.3380  205.8350  153.7040 N   0  0  0  0  0  0  0  0  0  0  0  0
  161.9280  202.7470  148.2400 N   0  0  0  0  0  2  0  0  0  0  0  0
  161.0780  207.9360  150.9940 C   0  0  0  0  0  3  0  0  0  0  0  0
  161.6390  203.7370  147.2040 C   0  0  0  0  0  2  0  0  0  0  0  0
  160.8600  203.3980  150.3160 C   0  0  0  0  0  0  0  0  0  0  0  0
  161.0500  206.1550  146.7370 C   0  0  0  0  0  2  0  0  0  0  0  0
  163.0880  205.0800  145.8430 N   0  0  0  0  0  1  0  0  0  0  0  0
  161.9570  205.9340  145.5160 C   0  0  1  0  0  3  0  0  0  0  0  0
  161.2280  205.4300  144.3110 C   0  0  0  0  0  0  0  0  0  0  0  0
  160.1500  204.5630  144.4480 O   0  0  0  0  0  1  0  0  0  0  0  0
  161.5740  205.8210  143.1660 O   0  0  0  0  0  0  0  0  0  0  0  0
  1  4  1  0  0  0  0
  1 14  1  0  0  0  0
  2 19  1  0  0  0  0
  2  1  2  0  0  0  0
  4 17  1  6  0  0  0
  4  8  1  0  0  0  0
  5 20  1  6  0  0  0
  5 12  1  0  0  0  0
  6  9  2  0  0  0  0
  7  3  1  0  0  0  0
  8 15  2  0  0  0  0
  8  9  1  0  0  0  0
 10 11  1  1  0  0  0
 10 19  1  0  0  0  0
 12  2  1  0  0  0  0
 13  6  1  0  0  0  0
 14  3  2  0  0  0  0
 14 15  1  0  0  0  0
 16 10  1  0  0  0  0
 17 13  2  0  0  0  0
 18  5  1  0  0  0  0
 18 16  1  0  0  0  0
 19  7  2  0  0  0  0
 22 21  1  1  0  0  0
 22 20  1  0  0  0  0
 23 24  1  0  0  0  0
 23 22  1  0  0  0  0
 25 23  2  0  0  0  0
M  END
>  <MODEL>
8

>  <REMARK>
 VINA RESULT:      -7.4      3.280      6.063
  Name = 
  3 active torsions:
  status: ('A' for Active; 'I' for Inactive)
    1  A    between atoms: C_2  and  CA_25
    2  A    between atoms: C_6  and  C_15
    3  A    between atoms: C_15  and  CA_25
                            x       y       z     vdW  Elec       q    Type
                         _______ _______ _______ _____ _____    ______ ____

>  <TORSDO>
F 3

$$$$
=
 OpenBabel11052422203D

 25 28  0  0  1  0  0  0  0  0999 V2000
  160.9070  208.4510  152.9560 C   0  0  0  0  0  0  0  0  0  0  0  0
  161.0880  207.7230  151.7780 C   0  0  0  0  0  0  0  0  0  0  0  0
  162.1810  210.3220  152.1270 C   0  0  0  0  0  3  0  0  0  0  0  0
  160.1330  208.1120  154.1780 C   0  0  2  0  0  3  0  0  0  0  0  0
  161.0130  205.4210  150.8150 C   0  0  2  0  0  3  0  0  0  0  0  0
  160.3690  208.0710  157.0490 C   0  0  0  0  0  3  0  0  0  0  0  0
  162.3750  209.6250  150.9240 C   0  0  0  0  0  3  0  0  0  0  0  0
  160.4380  209.3320  155.0090 C   0  0  0  0  0  0  0  0  0  0  0  0
  160.2930  209.2750  156.4660 C   0  0  0  0  0  3  0  0  0  0  0  0
  161.9990  207.6280  149.3960 C   0  0  2  0  0  3  0  0  0  0  0  0
  162.5440  208.5250  148.2920 C   0  0  0  0  0  1  0  0  0  0  0  0
  160.5300  206.4380  151.6890 O   0  0  0  0  0  0  0  0  0  0  0  0
  160.6430  206.8500  156.2450 C   0  0  0  0  0  3  0  0  0  0  0  0
  161.4200  209.7120  153.1170 C   0  0  0  0  0  0  0  0  0  0  0  0
  161.1550  210.2330  154.4100 N   0  0  0  0  0  0  0  0  0  0  0  0
  160.7180  207.0760  148.9700 N   0  0  0  0  0  2  0  0  0  0  0  0
  160.5990  206.8750  154.9020 C   0  0  0  0  0  3  0  0  0  0  0  0
  160.6440  205.6660  149.3470 C   0  0  0  0  0  2  0  0  0  0  0  0
  161.8230  208.3360  150.7220 C   0  0  0  0  0  0  0  0  0  0  0  0
  160.5790  204.0240  151.2730 C   0  0  0  0  0  2  0  0  0  0  0  0
  161.6120  201.8110  151.6490 N   0  0  0  0  0  1  0  0  0  0  0  0
  161.3390  202.8390  150.6570 C   0  0  1  0  0  3  0  0  0  0  0  0
  160.6740  202.2620  149.4480 C   0  0  0  0  0  0  0  0  0  0  0  0
  161.2170  202.4550  148.1830 O   0  0  0  0  0  0  0  0  0  0  0  0
  159.6330  201.5680  149.5810 O   0  0  0  0  0  1  0  0  0  0  0  0
  1 14  1  0  0  0  0
  1  4  1  0  0  0  0
  2  1  2  0  0  0  0
  3 14  2  0  0  0  0
  4 17  1  1  0  0  0
  4  8  1  0  0  0  0
  5 20  1  1  0  0  0
  5 12  1  0  0  0  0
  7  3  1  0  0  0  0
  8  9  1  0  0  0  0
  9  6  2  0  0  0  0
 10 11  1  6  0  0  0
 10 19  1  0  0  0  0
 12  2  1  0  0  0  0
 13  6  1  0  0  0  0
 14 15  1  0  0  0  0
 15  8  2  0  0  0  0
 16 18  1  0  0  0  0
 16 10  1  0  0  0  0
 17 13  2  0  0  0  0
 18  5  1  0  0  0  0
 19  7  2  0  0  0  0
 19  2  1  0  0  0  0
 22 20  1  0  0  0  0
 22 21  1  1  0  0  0
 23 25  1  0  0  0  0
 23 22  1  0  0  0  0
 24 23  2  0  0  0  0
M  END
>  <MODEL>
9

>  <REMARK>
 VINA RESULT:      -7.0      3.056      7.379
  Name = 
  3 active torsions:
  status: ('A' for Active; 'I' for Inactive)
    1  A    between atoms: C_2  and  CA_25
    2  A    between atoms: C_6  and  C_15
    3  A    between atoms: C_15  and  CA_25
                            x       y       z     vdW  Elec       q    Type
                         _______ _______ _______ _____ _____    ______ ____

>  <TORSDO>
F 3

$$$$
