=
 OpenBabel11062408313D

 32 35  0  0  1  0  0  0  0  0999 V2000
  161.6550  209.3970  151.5910 C   0  0  0  0  0  3  0  0  0  0  0  0
  161.7320  208.2630  150.7800 C   0  0  0  0  0  0  0  0  0  0  0  0
  161.5010  209.2670  152.9760 C   0  0  0  0  0  0  0  0  0  0  0  0
  161.4180  207.9880  153.5570 C   0  0  0  0  0  0  0  0  0  0  0  0
  161.5020  206.8530  152.7330 C   0  0  0  0  0  3  0  0  0  0  0  0
  161.6640  206.9900  151.3520 C   0  0  0  0  0  3  0  0  0  0  0  0
  161.4000  210.5000  153.8130 C   0  0  0  0  0  2  0  0  0  0  0  0
  160.0610  211.1310  153.6450 C   0  0  0  0  0  0  0  0  0  0  0  0
  156.0870  213.0730  154.4650 C   0  0  0  0  0  2  0  0  0  0  0  0
  159.0290  210.7690  154.3270 N   0  0  0  0  0  0  0  0  0  0  0  0
  158.2940  214.0120  153.5630 C   0  0  0  0  0  2  0  0  0  0  0  0
  158.4250  212.5910  152.9990 C   0  0  1  0  0  3  0  0  0  0  0  0
  159.8300  212.2570  152.8010 N   0  0  0  0  0  2  0  0  0  0  0  0
  157.9720  211.6040  153.9710 N   0  0  0  0  0  0  0  0  0  0  0  0
  157.1150  214.2020  154.5340 C   0  0  0  0  0  2  0  0  0  0  0  0
  156.7650  211.7440  154.7770 C   0  0  0  0  0  2  0  0  0  0  0  0
  161.2520  207.8670  154.9410 O   0  0  0  0  0  0  0  0  0  0  0  0
  160.0550  207.3810  155.5340 C   0  0  0  0  0  2  0  0  0  0  0  0
  160.0850  207.6560  157.0220 C   0  0  0  0  0  2  0  0  0  0  0  0
  160.5290  209.0840  157.2610 C   0  0  0  0  0  1  0  0  0  0  0  0
  161.9520  208.4130  149.3150 C   0  0  0  0  0  2  0  0  0  0  0  0
  162.1810  207.1610  148.7410 O   0  0  0  0  0  0  0  0  0  0  0  0
  161.0290  206.8910  147.9990 C   0  0  0  0  0  2  0  0  0  0  0  0
  161.4590  204.7650  146.5560 C   0  0  2  0  0  0  0  0  0  0  0  0
  161.4650  202.5240  147.7800 C   0  0  0  0  0  2  0  0  0  0  0  0
  160.8240  205.4070  145.3360 C   0  0  0  0  0  1  0  0  0  0  0  0
  161.1440  204.6130  149.1070 C   0  0  0  0  0  2  0  0  0  0  0  0
  161.1330  203.2640  146.4830 C   0  0  0  0  0  2  0  0  0  0  0  0
  160.8180  205.3830  147.8270 C   0  0  1  0  0  3  0  0  0  0  0  0
  160.7300  203.1540  148.9560 C   0  0  0  0  0  2  0  0  0  0  0  0
  162.9500  204.9930  146.4540 C   0  0  0  0  0  3  0  0  0  0  0  0
  163.7620  204.2550  145.6950 C   0  0  0  0  0  2  0  0  0  0  0  0
  1  3  1  0  0  0  0
  2  6  1  0  0  0  0
  2  1  2  0  0  0  0
  3  4  2  0  0  0  0
  3  7  1  0  0  0  0
  4 17  1  0  0  0  0
  5  4  1  0  0  0  0
  6  5  2  0  0  0  0
  8  7  1  0  0  0  0
  8 10  2  0  0  0  0
  9 15  1  0  0  0  0
  9 16  1  0  0  0  0
 11 15  1  0  0  0  0
 12 11  1  1  0  0  0
 12 14  1  0  0  0  0
 13 12  1  0  0  0  0
 13  8  1  0  0  0  0
 14 10  1  0  0  0  0
 14 16  1  0  0  0  0
 17 18  1  0  0  0  0
 18 19  1  0  0  0  0
 19 20  1  0  0  0  0
 21  2  1  0  0  0  0
 22 21  1  0  0  0  0
 23 22  1  0  0  0  0
 24 26  1  6  0  0  0
 24 29  1  0  0  0  0
 25 30  1  0  0  0  0
 28 24  1  0  0  0  0
 28 25  1  0  0  0  0
 29 23  1  1  0  0  0
 29 27  1  0  0  0  0
 30 27  1  0  0  0  0
 31 24  1  0  0  0  0
 32 31  2  0  0  0  0
M  END
>  <MODEL>
1

>  <REMARK>
 VINA RESULT:      -7.6      0.000      0.000
  Name = 
  10 active torsions:
  status: ('A' for Active; 'I' for Inactive)
    1  A    between atoms: C_2  and  C_5
    2  A    between atoms: C_2  and  C_6
    3  A    between atoms: C_3  and  C_22
    4  A    between atoms: C_4  and  C_27
    5  A    between atoms: C_13  and  C_29
    6  A    between atoms: C_14  and  O_18
    7  A    between atoms: C_16  and  C_20
    8  A    between atoms: C_16  and  O_24
    9  A    between atoms: O_18  and  C_29
   10  A    between atoms: O_24  and  C_27
                            x       y       z     vdW  Elec       q    Type
                         _______ _______ _______ _____ _____    ______ ____

>  <TORSDO>
F 10

$$$$
=
 OpenBabel11062408313D

 32 35  0  0  1  0  0  0  0  0999 V2000
  160.9920  206.6970  150.9500 C   0  0  0  0  0  3  0  0  0  0  0  0
  161.5420  207.3430  152.0580 C   0  0  0  0  0  0  0  0  0  0  0  0
  160.7340  205.3220  150.9890 C   0  0  0  0  0  0  0  0  0  0  0  0
  161.0340  204.5840  152.1480 C   0  0  0  0  0  0  0  0  0  0  0  0
  161.5810  205.2440  153.2610 C   0  0  0  0  0  3  0  0  0  0  0  0
  161.8290  206.6190  153.2170 C   0  0  0  0  0  3  0  0  0  0  0  0
  160.1660  204.6560  149.7780 C   0  0  0  0  0  2  0  0  0  0  0  0
  160.8250  205.1740  148.5460 C   0  0  0  0  0  0  0  0  0  0  0  0
  162.7360  205.4540  144.4830 C   0  0  0  0  0  2  0  0  0  0  0  0
  161.8580  204.6120  148.0190 N   0  0  0  0  0  0  0  0  0  0  0  0
  160.4230  206.1540  145.3350 C   0  0  0  0  0  2  0  0  0  0  0  0
  161.2020  206.3760  146.6380 C   0  0  1  0  0  3  0  0  0  0  0  0
  160.3080  206.2620  147.7840 N   0  0  0  0  0  2  0  0  0  0  0  0
  162.1700  205.3070  146.8520 N   0  0  0  0  0  0  0  0  0  0  0  0
  161.2290  205.4540  144.2270 C   0  0  0  0  0  2  0  0  0  0  0  0
  163.0290  204.7610  145.8090 C   0  0  0  0  0  2  0  0  0  0  0  0
  160.7830  203.2070  152.1740 O   0  0  0  0  0  0  0  0  0  0  0  0
  161.5790  202.2660  151.4670 C   0  0  0  0  0  2  0  0  0  0  0  0
  160.6790  201.3450  150.6720 C   0  0  0  0  0  2  0  0  0  0  0  0
  161.2380  201.1780  149.2750 C   0  0  0  0  0  1  0  0  0  0  0  0
  161.7610  208.8160  152.0250 C   0  0  0  0  0  2  0  0  0  0  0  0
  160.5770  209.4770  152.3610 O   0  0  0  0  0  0  0  0  0  0  0  0
  160.9620  210.4540  153.2830 C   0  0  0  0  0  2  0  0  0  0  0  0
  160.8020  210.1300  155.8620 C   0  0  2  0  0  0  0  0  0  0  0  0
  158.8850  211.3220  157.0560 C   0  0  0  0  0  2  0  0  0  0  0  0
  161.4190  208.7460  155.7740 C   0  0  0  0  0  1  0  0  0  0  0  0
  159.1540  211.6510  154.5970 C   0  0  0  0  0  2  0  0  0  0  0  0
  159.7880  210.0880  157.0170 C   0  0  0  0  0  2  0  0  0  0  0  0
  160.0690  210.4280  154.5270 C   0  0  1  0  0  3  0  0  0  0  0  0
  158.1510  211.4860  155.7320 C   0  0  0  0  0  2  0  0  0  0  0  0
  161.9230  211.0980  156.1700 C   0  0  0  0  0  3  0  0  0  0  0  0
  163.1270  210.7220  156.6060 C   0  0  0  0  0  2  0  0  0  0  0  0
  1  3  2  0  0  0  0
  1  2  1  0  0  0  0
  2  6  2  0  0  0  0
  3  4  1  0  0  0  0
  4 17  1  0  0  0  0
  4  5  2  0  0  0  0
  6  5  1  0  0  0  0
  7  3  1  0  0  0  0
  8  7  1  0  0  0  0
  9 16  1  0  0  0  0
 10  8  2  0  0  0  0
 12 11  1  6  0  0  0
 12 14  1  0  0  0  0
 12 13  1  0  0  0  0
 13  8  1  0  0  0  0
 14 10  1  0  0  0  0
 15  9  1  0  0  0  0
 15 11  1  0  0  0  0
 16 14  1  0  0  0  0
 18 17  1  0  0  0  0
 19 18  1  0  0  0  0
 20 19  1  0  0  0  0
 21  2  1  0  0  0  0
 21 22  1  0  0  0  0
 22 23  1  0  0  0  0
 24 26  1  6  0  0  0
 24 31  1  0  0  0  0
 24 28  1  0  0  0  0
 27 30  1  0  0  0  0
 28 25  1  0  0  0  0
 29 23  1  6  0  0  0
 29 27  1  0  0  0  0
 29 24  1  0  0  0  0
 30 25  1  0  0  0  0
 31 32  2  0  0  0  0
M  END
>  <MODEL>
2

>  <REMARK>
 VINA RESULT:      -7.1      3.339      9.182
  Name = 
  10 active torsions:
  status: ('A' for Active; 'I' for Inactive)
    1  A    between atoms: C_2  and  C_5
    2  A    between atoms: C_2  and  C_6
    3  A    between atoms: C_3  and  C_22
    4  A    between atoms: C_4  and  C_27
    5  A    between atoms: C_13  and  C_29
    6  A    between atoms: C_14  and  O_18
    7  A    between atoms: C_16  and  C_20
    8  A    between atoms: C_16  and  O_24
    9  A    between atoms: O_18  and  C_29
   10  A    between atoms: O_24  and  C_27
                            x       y       z     vdW  Elec       q    Type
                         _______ _______ _______ _____ _____    ______ ____

>  <TORSDO>
F 10

$$$$
=
 OpenBabel11062408313D

 32 35  0  0  1  0  0  0  0  0999 V2000
  160.9040  206.7600  150.6030 C   0  0  0  0  0  3  0  0  0  0  0  0
  161.2610  207.1840  151.8840 C   0  0  0  0  0  0  0  0  0  0  0  0
  161.2540  207.5220  149.4820 C   0  0  0  0  0  0  0  0  0  0  0  0
  161.9640  208.7250  149.6450 C   0  0  0  0  0  0  0  0  0  0  0  0
  162.3250  209.1400  150.9380 C   0  0  0  0  0  3  0  0  0  0  0  0
  161.9800  208.3700  152.0520 C   0  0  0  0  0  3  0  0  0  0  0  0
  160.8370  207.0520  148.1270 C   0  0  0  0  0  2  0  0  0  0  0  0
  161.2240  205.6260  147.9320 C   0  0  0  0  0  0  0  0  0  0  0  0
  161.0880  201.1460  147.5440 C   0  0  0  0  0  2  0  0  0  0  0  0
  160.8430  204.6850  148.7260 N   0  0  0  0  0  0  0  0  0  0  0  0
  161.3440  203.0060  145.7990 C   0  0  0  0  0  2  0  0  0  0  0  0
  162.0360  203.7190  146.9680 C   0  0  1  0  0  3  0  0  0  0  0  0
  161.9510  205.1640  146.7960 N   0  0  0  0  0  2  0  0  0  0  0  0
  161.3220  203.4810  148.2170 N   0  0  0  0  0  0  0  0  0  0  0  0
  160.6490  201.6880  146.1840 C   0  0  0  0  0  2  0  0  0  0  0  0
  160.7990  202.1830  148.6240 C   0  0  0  0  0  2  0  0  0  0  0  0
  162.3000  209.4870  148.5210 O   0  0  0  0  0  0  0  0  0  0  0  0
  161.6020  210.6700  148.1560 C   0  0  0  0  0  2  0  0  0  0  0  0
  162.2870  211.8690  148.7750 C   0  0  0  0  0  2  0  0  0  0  0  0
  163.2560  212.4660  147.7760 C   0  0  0  0  0  1  0  0  0  0  0  0
  160.9320  206.3360  153.0640 C   0  0  0  0  0  2  0  0  0  0  0  0
  161.6060  206.8130  154.1910 O   0  0  0  0  0  0  0  0  0  0  0  0
  160.6650  207.5940  154.8660 C   0  0  0  0  0  2  0  0  0  0  0  0
  160.4310  210.1510  155.3060 C   0  0  2  0  0  0  0  0  0  0  0  0
  161.7670  211.1100  157.2610 C   0  0  0  0  0  2  0  0  0  0  0  0
  160.1850  210.4290  153.8350 C   0  0  0  0  0  1  0  0  0  0  0  0
  161.8730  208.6540  156.8270 C   0  0  0  0  0  2  0  0  0  0  0  0
  161.2020  211.3600  155.8610 C   0  0  0  0  0  2  0  0  0  0  0  0
  161.3000  208.8700  155.4260 C   0  0  1  0  0  3  0  0  0  0  0  0
  162.6670  209.8810  157.2590 C   0  0  0  0  0  2  0  0  0  0  0  0
  159.0770  210.0310  155.9690 C   0  0  0  0  0  3  0  0  0  0  0  0
  158.0300  210.7970  155.6570 C   0  0  0  0  0  2  0  0  0  0  0  0
  1  2  1  0  0  0  0
  2  6  2  0  0  0  0
  2 21  1  0  0  0  0
  3  4  1  0  0  0  0
  3  1  2  0  0  0  0
  4  5  2  0  0  0  0
  5  6  1  0  0  0  0
  7  3  1  0  0  0  0
  8  7  1  0  0  0  0
  8 10  2  0  0  0  0
  9 16  1  0  0  0  0
 11 15  1  0  0  0  0
 12 11  1  6  0  0  0
 12 14  1  0  0  0  0
 13 12  1  0  0  0  0
 13  8  1  0  0  0  0
 14 16  1  0  0  0  0
 14 10  1  0  0  0  0
 15  9  1  0  0  0  0
 17  4  1  0  0  0  0
 18 17  1  0  0  0  0
 18 19  1  0  0  0  0
 20 19  1  0  0  0  0
 21 22  1  0  0  0  0
 22 23  1  0  0  0  0
 24 26  1  6  0  0  0
 24 29  1  0  0  0  0
 24 28  1  0  0  0  0
 24 31  1  0  0  0  0
 27 30  1  0  0  0  0
 28 25  1  0  0  0  0
 29 23  1  1  0  0  0
 29 27  1  0  0  0  0
 30 25  1  0  0  0  0
 32 31  2  0  0  0  0
M  END
>  <MODEL>
3

>  <REMARK>
 VINA RESULT:      -7.1      3.324      9.447
  Name = 
  10 active torsions:
  status: ('A' for Active; 'I' for Inactive)
    1  A    between atoms: C_2  and  C_5
    2  A    between atoms: C_2  and  C_6
    3  A    between atoms: C_3  and  C_22
    4  A    between atoms: C_4  and  C_27
    5  A    between atoms: C_13  and  C_29
    6  A    between atoms: C_14  and  O_18
    7  A    between atoms: C_16  and  C_20
    8  A    between atoms: C_16  and  O_24
    9  A    between atoms: O_18  and  C_29
   10  A    between atoms: O_24  and  C_27
                            x       y       z     vdW  Elec       q    Type
                         _______ _______ _______ _____ _____    ______ ____

>  <TORSDO>
F 10

$$$$
=
 OpenBabel11062408313D

 32 35  0  0  1  0  0  0  0  0999 V2000
  161.4960  208.1250  151.7720 C   0  0  0  0  0  3  0  0  0  0  0  0
  161.4930  207.1120  150.8100 C   0  0  0  0  0  0  0  0  0  0  0  0
  161.7240  209.4540  151.3990 C   0  0  0  0  0  0  0  0  0  0  0  0
  161.9570  209.7750  150.0490 C   0  0  0  0  0  0  0  0  0  0  0  0
  161.9450  208.7500  149.0870 C   0  0  0  0  0  3  0  0  0  0  0  0
  161.7080  207.4260  149.4660 C   0  0  0  0  0  3  0  0  0  0  0  0
  161.7440  210.5100  152.4550 C   0  0  0  0  0  2  0  0  0  0  0  0
  160.3790  211.0780  152.6440 C   0  0  0  0  0  0  0  0  0  0  0  0
  156.6400  212.7680  154.4890 C   0  0  0  0  0  2  0  0  0  0  0  0
  159.5530  210.6300  153.5260 N   0  0  0  0  0  0  0  0  0  0  0  0
  158.5320  213.8640  153.1510 C   0  0  0  0  0  2  0  0  0  0  0  0
  158.5810  212.4810  152.4890 C   0  0  1  0  0  3  0  0  0  0  0  0
  159.9100  212.2300  151.9470 N   0  0  0  0  0  2  0  0  0  0  0  0
  158.4100  211.4250  153.4790 N   0  0  0  0  0  0  0  0  0  0  0  0
  157.6110  213.9440  154.3820 C   0  0  0  0  0  2  0  0  0  0  0  0
  157.4250  211.4620  154.5530 C   0  0  0  0  0  2  0  0  0  0  0  0
  162.1950  211.1050  149.6860 O   0  0  0  0  0  0  0  0  0  0  0  0
  162.3760  211.5150  148.3370 C   0  0  0  0  0  2  0  0  0  0  0  0
  162.3090  213.0240  148.2580 C   0  0  0  0  0  2  0  0  0  0  0  0
  160.9630  213.4960  148.7680 C   0  0  0  0  0  1  0  0  0  0  0  0
  161.1930  205.7100  151.2110 C   0  0  0  0  0  2  0  0  0  0  0  0
  160.5230  205.0550  150.1760 O   0  0  0  0  0  0  0  0  0  0  0  0
  161.5070  204.3000  149.5330 C   0  0  0  0  0  2  0  0  0  0  0  0
  161.3800  204.3340  146.9310 C   0  0  2  0  0  0  0  0  0  0  0  0
  160.9690  202.0960  145.7700 C   0  0  0  0  0  2  0  0  0  0  0  0
  160.8310  205.7480  146.9300 C   0  0  0  0  0  1  0  0  0  0  0  0
  161.1870  202.1330  148.2560 C   0  0  0  0  0  2  0  0  0  0  0  0
  160.7320  203.6070  145.7410 C   0  0  0  0  0  2  0  0  0  0  0  0
  160.9640  203.6460  148.2590 C   0  0  1  0  0  3  0  0  0  0  0  0
  160.4580  201.5020  147.0760 C   0  0  0  0  0  2  0  0  0  0  0  0
  162.8770  204.4370  146.7430 C   0  0  0  0  0  3  0  0  0  0  0  0
  163.4590  204.7040  145.5720 C   0  0  0  0  0  2  0  0  0  0  0  0
  2 21  1  0  0  0  0
  2  1  2  0  0  0  0
  3  1  1  0  0  0  0
  3  7  1  0  0  0  0
  4  3  2  0  0  0  0
  5  6  2  0  0  0  0
  5  4  1  0  0  0  0
  6  2  1  0  0  0  0
  7  8  1  0  0  0  0
  8 10  2  0  0  0  0
  9 16  1  0  0  0  0
 11 15  1  0  0  0  0
 12 11  1  1  0  0  0
 12 14  1  0  0  0  0
 13 12  1  0  0  0  0
 13  8  1  0  0  0  0
 14 10  1  0  0  0  0
 14 16  1  0  0  0  0
 15  9  1  0  0  0  0
 17  4  1  0  0  0  0
 18 17  1  0  0  0  0
 19 18  1  0  0  0  0
 19 20  1  0  0  0  0
 22 21  1  0  0  0  0
 23 22  1  0  0  0  0
 24 26  1  1  0  0  0
 24 29  1  0  0  0  0
 25 30  1  0  0  0  0
 27 29  1  0  0  0  0
 28 25  1  0  0  0  0
 28 24  1  0  0  0  0
 29 23  1  1  0  0  0
 30 27  1  0  0  0  0
 31 24  1  0  0  0  0
 32 31  2  0  0  0  0
M  END
>  <MODEL>
4

>  <REMARK>
 VINA RESULT:      -6.9      2.041      3.624
  Name = 
  10 active torsions:
  status: ('A' for Active; 'I' for Inactive)
    1  A    between atoms: C_2  and  C_5
    2  A    between atoms: C_2  and  C_6
    3  A    between atoms: C_3  and  C_22
    4  A    between atoms: C_4  and  C_27
    5  A    between atoms: C_13  and  C_29
    6  A    between atoms: C_14  and  O_18
    7  A    between atoms: C_16  and  C_20
    8  A    between atoms: C_16  and  O_24
    9  A    between atoms: O_18  and  C_29
   10  A    between atoms: O_24  and  C_27
                            x       y       z     vdW  Elec       q    Type
                         _______ _______ _______ _____ _____    ______ ____

>  <TORSDO>
F 10

$$$$
=
 OpenBabel11062408313D

 32 35  0  0  1  0  0  0  0  0999 V2000
  161.2290  207.1020  153.5010 C   0  0  0  0  0  3  0  0  0  0  0  0
  160.5380  208.2980  153.7050 C   0  0  0  0  0  0  0  0  0  0  0  0
  161.9400  206.8890  152.3150 C   0  0  0  0  0  0  0  0  0  0  0  0
  161.9570  207.8820  151.3180 C   0  0  0  0  0  0  0  0  0  0  0  0
  161.2640  209.0850  151.5350 C   0  0  0  0  0  3  0  0  0  0  0  0
  160.5620  209.2930  152.7250 C   0  0  0  0  0  3  0  0  0  0  0  0
  162.6500  205.5900  152.1180 C   0  0  0  0  0  2  0  0  0  0  0  0
  161.8230  204.6690  151.2890 C   0  0  0  0  0  0  0  0  0  0  0  0
  160.4610  201.8070  148.0960 C   0  0  0  0  0  2  0  0  0  0  0  0
  161.7700  204.7450  150.0040 N   0  0  0  0  0  0  0  0  0  0  0  0
  161.0490  201.4580  150.5660 C   0  0  0  0  0  2  0  0  0  0  0  0
  160.5190  202.8930  150.6780 C   0  0  1  0  0  3  0  0  0  0  0  0
  161.1110  203.5590  151.8310 N   0  0  0  0  0  2  0  0  0  0  0  0
  160.9670  203.7010  149.5500 N   0  0  0  0  0  0  0  0  0  0  0  0
  161.2050  200.9520  149.1210 C   0  0  0  0  0  2  0  0  0  0  0  0
  160.9670  203.2440  148.1660 C   0  0  0  0  0  2  0  0  0  0  0  0
  162.6600  207.6560  150.1300 O   0  0  0  0  0  0  0  0  0  0  0  0
  162.2690  208.2170  148.8850 C   0  0  0  0  0  2  0  0  0  0  0  0
  161.2450  207.3170  148.2280 C   0  0  0  0  0  2  0  0  0  0  0  0
  161.8780  206.6160  147.0450 C   0  0  0  0  0  1  0  0  0  0  0  0
  159.8310  208.5350  154.9940 C   0  0  0  0  0  2  0  0  0  0  0  0
  160.1750  209.7920  155.4970 O   0  0  0  0  0  0  0  0  0  0  0  0
  158.9640  210.3590  155.9020 C   0  0  0  0  0  2  0  0  0  0  0  0
  156.9970  211.8760  155.1190 C   0  0  2  0  0  0  0  0  0  0  0  0
  157.6020  213.8840  153.6610 C   0  0  0  0  0  2  0  0  0  0  0  0
  156.0310  210.7060  155.1210 C   0  0  0  0  0  1  0  0  0  0  0  0
  159.4400  212.4310  154.5200 C   0  0  0  0  0  2  0  0  0  0  0  0
  156.5650  212.8030  153.9700 C   0  0  0  0  0  2  0  0  0  0  0  0
  158.4270  211.3340  154.8510 C   0  0  1  0  0  3  0  0  0  0  0  0
  158.9490  213.2520  153.3350 C   0  0  0  0  0  2  0  0  0  0  0  0
  156.8520  212.5760  156.4520 C   0  0  0  0  0  3  0  0  0  0  0  0
  155.8040  213.3330  156.7800 C   0  0  0  0  0  2  0  0  0  0  0  0
  1  2  1  0  0  0  0
  2 21  1  0  0  0  0
  3  1  2  0  0  0  0
  4  5  2  0  0  0  0
  4  3  1  0  0  0  0
  5  6  1  0  0  0  0
  6  2  2  0  0  0  0
  7  3  1  0  0  0  0
  8 13  1  0  0  0  0
  8  7  1  0  0  0  0
  9 16  1  0  0  0  0
  9 15  1  0  0  0  0
 10  8  2  0  0  0  0
 12 11  1  6  0  0  0
 12 13  1  0  0  0  0
 14 10  1  0  0  0  0
 14 12  1  0  0  0  0
 15 11  1  0  0  0  0
 16 14  1  0  0  0  0
 17  4  1  0  0  0  0
 18 17  1  0  0  0  0
 19 18  1  0  0  0  0
 20 19  1  0  0  0  0
 21 22  1  0  0  0  0
 22 23  1  0  0  0  0
 24 26  1  1  0  0  0
 24 31  1  0  0  0  0
 25 28  1  0  0  0  0
 27 29  1  0  0  0  0
 28 24  1  0  0  0  0
 29 24  1  0  0  0  0
 29 23  1  1  0  0  0
 30 25  1  0  0  0  0
 30 27  1  0  0  0  0
 31 32  2  0  0  0  0
M  END
>  <MODEL>
5

>  <REMARK>
 VINA RESULT:      -6.9      2.939      9.719
  Name = 
  10 active torsions:
  status: ('A' for Active; 'I' for Inactive)
    1  A    between atoms: C_2  and  C_5
    2  A    between atoms: C_2  and  C_6
    3  A    between atoms: C_3  and  C_22
    4  A    between atoms: C_4  and  C_27
    5  A    between atoms: C_13  and  C_29
    6  A    between atoms: C_14  and  O_18
    7  A    between atoms: C_16  and  C_20
    8  A    between atoms: C_16  and  O_24
    9  A    between atoms: O_18  and  C_29
   10  A    between atoms: O_24  and  C_27
                            x       y       z     vdW  Elec       q    Type
                         _______ _______ _______ _____ _____    ______ ____

>  <TORSDO>
F 10

$$$$
=
 OpenBabel11062408313D

 32 35  0  0  1  0  0  0  0  0999 V2000
  161.4820  207.8890  151.5310 C   0  0  0  0  0  3  0  0  0  0  0  0
  161.2970  206.9530  150.5110 C   0  0  0  0  0  0  0  0  0  0  0  0
  161.8070  209.2150  151.2250 C   0  0  0  0  0  0  0  0  0  0  0  0
  161.9540  209.6100  149.8830 C   0  0  0  0  0  0  0  0  0  0  0  0
  161.7600  208.6630  148.8630 C   0  0  0  0  0  3  0  0  0  0  0  0
  161.4280  207.3430  149.1760 C   0  0  0  0  0  3  0  0  0  0  0  0
  162.0190  210.1860  152.3400 C   0  0  0  0  0  2  0  0  0  0  0  0
  160.7190  210.5290  152.9820 C   0  0  0  0  0  0  0  0  0  0  0  0
  157.6040  211.9400  155.9060 C   0  0  0  0  0  2  0  0  0  0  0  0
  160.4240  210.1840  154.1880 N   0  0  0  0  0  0  0  0  0  0  0  0
  158.5100  212.9730  153.7410 C   0  0  0  0  0  2  0  0  0  0  0  0
  158.6830  211.4970  153.3580 C   0  0  1  0  0  3  0  0  0  0  0  0
  159.7380  211.3580  152.3620 N   0  0  0  0  0  2  0  0  0  0  0  0
  159.1740  210.7210  154.4890 N   0  0  0  0  0  0  0  0  0  0  0  0
  158.1150  213.2020  155.2120 C   0  0  0  0  0  2  0  0  0  0  0  0
  158.6770  210.8580  155.8530 C   0  0  0  0  0  2  0  0  0  0  0  0
  162.2910  210.9350  149.5850 O   0  0  0  0  0  0  0  0  0  0  0  0
  162.2610  211.4600  148.2650 C   0  0  0  0  0  2  0  0  0  0  0  0
  161.7670  212.8890  148.3030 C   0  0  0  0  0  2  0  0  0  0  0  0
  160.7600  213.0430  149.4230 C   0  0  0  0  0  1  0  0  0  0  0  0
  160.8970  205.5590  150.8470 C   0  0  0  0  0  2  0  0  0  0  0  0
  160.5910  204.8600  149.6780 O   0  0  0  0  0  0  0  0  0  0  0  0
  161.4050  203.7260  149.7150 C   0  0  0  0  0  2  0  0  0  0  0  0
  160.8950  201.7160  148.1380 C   0  0  2  0  0  0  0  0  0  0  0  0
  160.8080  202.2100  145.6340 C   0  0  0  0  0  2  0  0  0  0  0  0
  161.5510  200.7380  149.0950 C   0  0  0  0  0  1  0  0  0  0  0  0
  161.2080  204.1000  147.2150 C   0  0  0  0  0  2  0  0  0  0  0  0
  161.1650  201.1920  146.7180 C   0  0  0  0  0  2  0  0  0  0  0  0
  161.5600  203.1070  148.3230 C   0  0  1  0  0  3  0  0  0  0  0  0
  161.5670  203.5120  145.8560 C   0  0  0  0  0  2  0  0  0  0  0  0
  159.4130  201.7060  148.4380 C   0  0  0  0  0  3  0  0  0  0  0  0
  158.8640  201.0090  149.4350 C   0  0  0  0  0  2  0  0  0  0  0  0
  2 21  1  0  0  0  0
  2  1  2  0  0  0  0
  3  1  1  0  0  0  0
  3  7  1  0  0  0  0
  4  3  2  0  0  0  0
  5  6  2  0  0  0  0
  5  4  1  0  0  0  0
  6  2  1  0  0  0  0
  7  8  1  0  0  0  0
  8 10  2  0  0  0  0
 10 14  1  0  0  0  0
 11 15  1  0  0  0  0
 12 11  1  1  0  0  0
 12 14  1  0  0  0  0
 13  8  1  0  0  0  0
 13 12  1  0  0  0  0
 14 16  1  0  0  0  0
 15  9  1  0  0  0  0
 16  9  1  0  0  0  0
 17  4  1  0  0  0  0
 18 19  1  0  0  0  0
 18 17  1  0  0  0  0
 19 20  1  0  0  0  0
 22 23  1  0  0  0  0
 22 21  1  0  0  0  0
 24 29  1  0  0  0  0
 24 31  1  0  0  0  0
 24 26  1  1  0  0  0
 25 30  1  0  0  0  0
 25 28  1  0  0  0  0
 27 29  1  0  0  0  0
 28 24  1  0  0  0  0
 29 23  1  1  0  0  0
 30 27  1  0  0  0  0
 31 32  2  0  0  0  0
M  END
>  <MODEL>
6

>  <REMARK>
 VINA RESULT:      -6.9      2.031      4.174
  Name = 
  10 active torsions:
  status: ('A' for Active; 'I' for Inactive)
    1  A    between atoms: C_2  and  C_5
    2  A    between atoms: C_2  and  C_6
    3  A    between atoms: C_3  and  C_22
    4  A    between atoms: C_4  and  C_27
    5  A    between atoms: C_13  and  C_29
    6  A    between atoms: C_14  and  O_18
    7  A    between atoms: C_16  and  C_20
    8  A    between atoms: C_16  and  O_24
    9  A    between atoms: O_18  and  C_29
   10  A    between atoms: O_24  and  C_27
                            x       y       z     vdW  Elec       q    Type
                         _______ _______ _______ _____ _____    ______ ____

>  <TORSDO>
F 10

$$$$
=
 OpenBabel11062408313D

 32 35  0  0  1  0  0  0  0  0999 V2000
  160.8630  209.5670  152.0090 C   0  0  0  0  0  3  0  0  0  0  0  0
  161.5010  208.4950  151.3810 C   0  0  0  0  0  0  0  0  0  0  0  0
  160.4690  209.4690  153.3480 C   0  0  0  0  0  0  0  0  0  0  0  0
  160.7110  208.2840  154.0670 C   0  0  0  0  0  0  0  0  0  0  0  0
  161.3600  207.2130  153.4290 C   0  0  0  0  0  3  0  0  0  0  0  0
  161.7580  207.3210  152.0930 C   0  0  0  0  0  3  0  0  0  0  0  0
  159.7690  210.6250  153.9840 C   0  0  0  0  0  2  0  0  0  0  0  0
  159.6250  211.7420  153.0090 C   0  0  0  0  0  0  0  0  0  0  0  0
  159.4200  214.1310  149.2020 C   0  0  0  0  0  2  0  0  0  0  0  0
  160.4630  211.9440  152.0500 N   0  0  0  0  0  0  0  0  0  0  0  0
  157.5980  213.3220  150.8120 C   0  0  0  0  0  2  0  0  0  0  0  0
  158.7260  213.4880  151.8390 C   0  0  1  0  0  3  0  0  0  0  0  0
  158.4970  212.6140  152.9820 N   0  0  0  0  0  2  0  0  0  0  0  0
  159.9940  213.0180  151.2970 N   0  0  0  0  0  0  0  0  0  0  0  0
  158.0470  213.4760  149.3480 C   0  0  0  0  0  2  0  0  0  0  0  0
  160.4630  213.3030  149.9460 C   0  0  0  0  0  2  0  0  0  0  0  0
  160.3030  208.1900  155.4020 O   0  0  0  0  0  0  0  0  0  0  0  0
  161.2200  208.0620  156.4800 C   0  0  0  0  0  2  0  0  0  0  0  0
  161.3590  209.3960  157.1820 C   0  0  0  0  0  2  0  0  0  0  0  0
  162.7050  210.0030  156.8450 C   0  0  0  0  0  1  0  0  0  0  0  0
  161.9670  208.6310  149.9730 C   0  0  0  0  0  2  0  0  0  0  0  0
  162.1900  207.3670  149.4240 O   0  0  0  0  0  0  0  0  0  0  0  0
  161.1580  207.1890  148.5000 C   0  0  0  0  0  2  0  0  0  0  0  0
  161.3120  205.0830  146.9750 C   0  0  2  0  0  0  0  0  0  0  0  0
  161.2660  202.8110  148.1410 C   0  0  0  0  0  2  0  0  0  0  0  0
  160.6210  205.8030  145.8320 C   0  0  0  0  0  1  0  0  0  0  0  0
  161.2070  204.8770  149.5400 C   0  0  0  0  0  2  0  0  0  0  0  0
  160.8770  203.6110  146.8960 C   0  0  0  0  0  2  0  0  0  0  0  0
  160.8270  205.7060  148.3120 C   0  0  1  0  0  3  0  0  0  0  0  0
  160.6800  203.4550  149.3910 C   0  0  0  0  0  2  0  0  0  0  0  0
  162.8010  205.2130  146.7490 C   0  0  0  0  0  3  0  0  0  0  0  0
  163.4560  204.5990  145.7610 C   0  0  0  0  0  2  0  0  0  0  0  0
  1  3  1  0  0  0  0
  2  1  2  0  0  0  0
  2  6  1  0  0  0  0
  3  7  1  0  0  0  0
  3  4  2  0  0  0  0
  4 17  1  0  0  0  0
  5  4  1  0  0  0  0
  6  5  2  0  0  0  0
  8  7  1  0  0  0  0
  9 15  1  0  0  0  0
  9 16  1  0  0  0  0
 10  8  2  0  0  0  0
 12 11  1  6  0  0  0
 12 13  1  0  0  0  0
 13  8  1  0  0  0  0
 14 12  1  0  0  0  0
 14 10  1  0  0  0  0
 15 11  1  0  0  0  0
 16 14  1  0  0  0  0
 17 18  1  0  0  0  0
 18 19  1  0  0  0  0
 20 19  1  0  0  0  0
 21  2  1  0  0  0  0
 22 21  1  0  0  0  0
 23 22  1  0  0  0  0
 24 26  1  6  0  0  0
 24 29  1  0  0  0  0
 25 30  1  0  0  0  0
 28 24  1  0  0  0  0
 28 25  1  0  0  0  0
 29 23  1  1  0  0  0
 29 27  1  0  0  0  0
 30 27  1  0  0  0  0
 31 24  1  0  0  0  0
 32 31  2  0  0  0  0
M  END
>  <MODEL>
7

>  <REMARK>
 VINA RESULT:      -6.9      1.578      2.298
  Name = 
  10 active torsions:
  status: ('A' for Active; 'I' for Inactive)
    1  A    between atoms: C_2  and  C_5
    2  A    between atoms: C_2  and  C_6
    3  A    between atoms: C_3  and  C_22
    4  A    between atoms: C_4  and  C_27
    5  A    between atoms: C_13  and  C_29
    6  A    between atoms: C_14  and  O_18
    7  A    between atoms: C_16  and  C_20
    8  A    between atoms: C_16  and  O_24
    9  A    between atoms: O_18  and  C_29
   10  A    between atoms: O_24  and  C_27
                            x       y       z     vdW  Elec       q    Type
                         _______ _______ _______ _____ _____    ______ ____

>  <TORSDO>
F 10

$$$$
=
 OpenBabel11062408313D

 32 35  0  0  1  0  0  0  0  0999 V2000
  162.0180  208.9800  148.4500 C   0  0  0  0  0  3  0  0  0  0  0  0
  161.5830  207.6940  148.7760 C   0  0  0  0  0  0  0  0  0  0  0  0
  162.0740  209.9780  149.4300 C   0  0  0  0  0  0  0  0  0  0  0  0
  161.6870  209.6870  150.7510 C   0  0  0  0  0  0  0  0  0  0  0  0
  161.2570  208.3880  151.0710 C   0  0  0  0  0  3  0  0  0  0  0  0
  161.2110  207.3950  150.0890 C   0  0  0  0  0  3  0  0  0  0  0  0
  162.5230  211.3490  149.0440 C   0  0  0  0  0  2  0  0  0  0  0  0
  161.3730  212.1400  148.5210 C   0  0  0  0  0  0  0  0  0  0  0  0
  157.4340  213.3110  146.6910 C   0  0  0  0  0  2  0  0  0  0  0  0
  160.8340  211.9130  147.3730 N   0  0  0  0  0  0  0  0  0  0  0  0
  158.2600  213.3180  149.1170 C   0  0  0  0  0  2  0  0  0  0  0  0
  159.6080  213.5900  148.4360 C   0  0  1  0  0  3  0  0  0  0  0  0
  160.7010  213.1380  149.2870 N   0  0  0  0  0  2  0  0  0  0  0  0
  159.7540  212.7810  147.2320 N   0  0  0  0  0  0  0  0  0  0  0  0
  157.1210  212.9620  148.1450 C   0  0  0  0  0  2  0  0  0  0  0  0
  158.6960  212.5790  146.2490 C   0  0  0  0  0  2  0  0  0  0  0  0
  161.7360  210.6930  151.7220 O   0  0  0  0  0  0  0  0  0  0  0  0
  160.9060  210.6900  152.8760 C   0  0  0  0  0  2  0  0  0  0  0  0
  160.0230  211.9200  152.8630 C   0  0  0  0  0  2  0  0  0  0  0  0
  158.5940  211.5160  153.1590 C   0  0  0  0  0  1  0  0  0  0  0  0
  161.5800  206.6270  147.7380 C   0  0  0  0  0  2  0  0  0  0  0  0
  160.5390  205.7300  147.9840 O   0  0  0  0  0  0  0  0  0  0  0  0
  161.1490  204.4740  148.0200 C   0  0  0  0  0  2  0  0  0  0  0  0
  160.5730  202.2130  149.1780 C   0  0  2  0  0  0  0  0  0  0  0  0
  161.2290  201.9760  151.6350 C   0  0  0  0  0  2  0  0  0  0  0  0
  159.3600  202.0120  148.2870 C   0  0  0  0  0  1  0  0  0  0  0  0
  161.8230  204.0820  150.4330 C   0  0  0  0  0  2  0  0  0  0  0  0
  160.2190  201.6080  150.5470 C   0  0  0  0  0  2  0  0  0  0  0  0
  160.8290  203.7370  149.3240 C   0  0  1  0  0  3  0  0  0  0  0  0
  161.3530  203.4900  151.7560 C   0  0  0  0  0  2  0  0  0  0  0  0
  161.7210  201.4610  148.5440 C   0  0  0  0  0  3  0  0  0  0  0  0
  161.5860  200.2830  147.9310 C   0  0  0  0  0  2  0  0  0  0  0  0
  1  2  2  0  0  0  0
  1  3  1  0  0  0  0
  2  6  1  0  0  0  0
  3  4  2  0  0  0  0
  4  5  1  0  0  0  0
  4 17  1  0  0  0  0
  6  5  2  0  0  0  0
  7  3  1  0  0  0  0
  8  7  1  0  0  0  0
  8 13  1  0  0  0  0
  9 15  1  0  0  0  0
 10  8  2  0  0  0  0
 12 11  1  1  0  0  0
 12 13  1  0  0  0  0
 14 10  1  0  0  0  0
 14 12  1  0  0  0  0
 15 11  1  0  0  0  0
 16  9  1  0  0  0  0
 16 14  1  0  0  0  0
 17 18  1  0  0  0  0
 19 18  1  0  0  0  0
 19 20  1  0  0  0  0
 21 22  1  0  0  0  0
 21  2  1  0  0  0  0
 22 23  1  0  0  0  0
 24 26  1  6  0  0  0
 24 29  1  0  0  0  0
 24 28  1  0  0  0  0
 25 30  1  0  0  0  0
 27 30  1  0  0  0  0
 28 25  1  0  0  0  0
 29 23  1  6  0  0  0
 29 27  1  0  0  0  0
 31 24  1  0  0  0  0
 32 31  2  0  0  0  0
M  END
>  <MODEL>
8

>  <REMARK>
 VINA RESULT:      -6.3      3.139      4.642
  Name = 
  10 active torsions:
  status: ('A' for Active; 'I' for Inactive)
    1  A    between atoms: C_2  and  C_5
    2  A    between atoms: C_2  and  C_6
    3  A    between atoms: C_3  and  C_22
    4  A    between atoms: C_4  and  C_27
    5  A    between atoms: C_13  and  C_29
    6  A    between atoms: C_14  and  O_18
    7  A    between atoms: C_16  and  C_20
    8  A    between atoms: C_16  and  O_24
    9  A    between atoms: O_18  and  C_29
   10  A    between atoms: O_24  and  C_27
                            x       y       z     vdW  Elec       q    Type
                         _______ _______ _______ _____ _____    ______ ____

>  <TORSDO>
F 10

$$$$
=
 OpenBabel11062408313D

 32 35  0  0  1  0  0  0  0  0999 V2000
  161.1350  205.6590  151.0100 C   0  0  0  0  0  3  0  0  0  0  0  0
  161.1550  204.9180  152.1940 C   0  0  0  0  0  0  0  0  0  0  0  0
  161.0820  205.0110  149.7710 C   0  0  0  0  0  0  0  0  0  0  0  0
  161.0550  203.6050  149.7140 C   0  0  0  0  0  0  0  0  0  0  0  0
  161.0680  202.8680  150.9100 C   0  0  0  0  0  3  0  0  0  0  0  0
  161.1130  203.5220  152.1440 C   0  0  0  0  0  3  0  0  0  0  0  0
  161.0840  205.8310  148.5230 C   0  0  0  0  0  2  0  0  0  0  0  0
  161.6200  207.1940  148.8010 C   0  0  0  0  0  0  0  0  0  0  0  0
  161.9630  211.6350  149.4350 C   0  0  0  0  0  2  0  0  0  0  0  0
  161.3590  208.2120  148.0550 N   0  0  0  0  0  0  0  0  0  0  0  0
  161.9820  209.6680  151.0770 C   0  0  0  0  0  2  0  0  0  0  0  0
  162.6150  208.9470  149.8800 C   0  0  1  0  0  3  0  0  0  0  0  0
  162.3710  207.5130  149.9710 N   0  0  0  0  0  2  0  0  0  0  0  0
  161.9550  209.3280  148.6370 N   0  0  0  0  0  0  0  0  0  0  0  0
  161.4410  211.0730  150.7570 C   0  0  0  0  0  2  0  0  0  0  0  0
  161.5840  210.6960  148.2950 C   0  0  0  0  0  2  0  0  0  0  0  0
  161.0140  202.9650  148.4700 O   0  0  0  0  0  0  0  0  0  0  0  0
  160.7400  201.5780  148.3270 C   0  0  0  0  0  2  0  0  0  0  0  0
  160.9480  201.1720  146.8840 C   0  0  0  0  0  2  0  0  0  0  0  0
  161.5820  199.7970  146.8350 C   0  0  0  0  0  1  0  0  0  0  0  0
  161.1540  205.6190  153.5070 C   0  0  0  0  0  2  0  0  0  0  0  0
  160.8360  206.9670  153.3230 O   0  0  0  0  0  0  0  0  0  0  0  0
  161.4560  207.6290  154.3860 C   0  0  0  0  0  2  0  0  0  0  0  0
  160.6880  208.7640  156.6020 C   0  0  2  0  0  0  0  0  0  0  0  0
  159.5760  211.0540  156.3980 C   0  0  0  0  0  2  0  0  0  0  0  0
  160.4390  207.4190  157.2590 C   0  0  0  0  0  1  0  0  0  0  0  0
  160.4140  209.9400  154.3270 C   0  0  0  0  0  2  0  0  0  0  0  0
  159.6350  209.7310  157.1650 C   0  0  0  0  0  2  0  0  0  0  0  0
  160.4940  208.6060  155.0700 C   0  0  1  0  0  3  0  0  0  0  0  0
  159.3050  210.8000  154.9210 C   0  0  0  0  0  2  0  0  0  0  0  0
  162.0810  209.2010  156.9960 C   0  0  0  0  0  3  0  0  0  0  0  0
  162.4210  210.4710  157.2240 C   0  0  0  0  0  2  0  0  0  0  0  0
  1  2  1  0  0  0  0
  2 21  1  0  0  0  0
  3  1  2  0  0  0  0
  4  3  1  0  0  0  0
  4  5  2  0  0  0  0
  5  6  1  0  0  0  0
  6  2  2  0  0  0  0
  7  8  1  0  0  0  0
  7  3  1  0  0  0  0
  8 13  1  0  0  0  0
  9 15  1  0  0  0  0
 10 14  1  0  0  0  0
 10  8  2  0  0  0  0
 12 13  1  0  0  0  0
 12 11  1  1  0  0  0
 14 12  1  0  0  0  0
 15 11  1  0  0  0  0
 16 14  1  0  0  0  0
 16  9  1  0  0  0  0
 17  4  1  0  0  0  0
 18 17  1  0  0  0  0
 19 18  1  0  0  0  0
 20 19  1  0  0  0  0
 22 21  1  0  0  0  0
 22 23  1  0  0  0  0
 24 31  1  0  0  0  0
 24 28  1  0  0  0  0
 24 26  1  1  0  0  0
 25 28  1  0  0  0  0
 27 30  1  0  0  0  0
 27 29  1  0  0  0  0
 29 23  1  6  0  0  0
 29 24  1  0  0  0  0
 30 25  1  0  0  0  0
 31 32  2  0  0  0  0
M  END
>  <MODEL>
9

>  <REMARK>
 VINA RESULT:      -6.3      2.924      8.436
  Name = 
  10 active torsions:
  status: ('A' for Active; 'I' for Inactive)
    1  A    between atoms: C_2  and  C_5
    2  A    between atoms: C_2  and  C_6
    3  A    between atoms: C_3  and  C_22
    4  A    between atoms: C_4  and  C_27
    5  A    between atoms: C_13  and  C_29
    6  A    between atoms: C_14  and  O_18
    7  A    between atoms: C_16  and  C_20
    8  A    between atoms: C_16  and  O_24
    9  A    between atoms: O_18  and  C_29
   10  A    between atoms: O_24  and  C_27
                            x       y       z     vdW  Elec       q    Type
                         _______ _______ _______ _____ _____    ______ ____

>  <TORSDO>
F 10

$$$$
