=
 OpenBabel11062409213D

 37 39  0  0  1  0  0  0  0  0999 V2000
  162.1780  210.5620  153.1700 O   0  0  0  0  0  1  0  0  0  0  0  0
  160.8220  210.2850  153.3920 C   0  0  1  0  0  0  0  0  0  0  0  0
  159.9010  207.2000  157.0850 O   0  0  0  0  0  1  0  0  0  0  0  0
  161.1070  210.8090  156.0140 C   0  0  0  0  0  2  0  0  0  0  0  0
  162.0200  209.6720  155.5840 C   0  0  2  0  0  3  0  0  0  0  0  0
  160.6090  207.7280  156.0080 C   0  0  0  0  0  0  0  0  0  0  0  0
  160.6860  209.8860  154.8860 C   0  0  2  0  0  0  0  0  0  0  0  0
  160.9900  206.7030  155.1420 O   0  0  0  0  0  1  0  0  0  0  0  0
  161.8340  208.4720  156.4960 C   0  0  0  0  0  2  0  0  0  0  0  0
  159.7600  208.7390  155.2670 C   0  0  0  0  0  2  0  0  0  0  0  0
  159.9930  211.5470  153.0090 C   0  0  2  0  0  3  0  0  0  0  0  0
  157.9730  212.3310  154.3280 C   0  0  0  0  0  0  0  0  0  0  0  0
  158.5400  211.5230  153.4330 C   0  0  0  0  0  3  0  0  0  0  0  0
  158.7080  213.2920  155.0080 O   0  0  0  0  0  1  0  0  0  0  0  0
  156.5230  212.1880  154.6170 C   0  0  0  0  0  1  0  0  0  0  0  0
  160.1830  211.9910  151.5570 C   0  0  0  0  0  2  0  0  0  0  0  0
  159.7980  213.4510  151.3910 C   0  0  0  0  0  2  0  0  0  0  0  0
  158.8770  213.9160  149.2840 C   0  0  0  0  0  2  0  0  0  0  0  0
  160.1230  213.8960  150.0470 N   0  0  0  0  0  0  0  0  0  0  0  0
  161.0010  212.8750  149.4710 C   0  0  0  0  0  2  0  0  0  0  0  0
  162.2940  214.4520  148.0010 C   0  0  0  0  0  1  0  0  0  0  0  0
  160.1360  213.4550  147.1810 C   0  0  0  0  0  2  0  0  0  0  0  0
  161.3880  213.2340  148.0330 C   0  0  2  0  0  3  0  0  0  0  0  0
  159.1500  214.4010  147.8640 C   0  0  0  0  0  2  0  0  0  0  0  0
  160.4110  209.0690  152.5410 C   0  0  0  0  0  2  0  0  0  0  0  0
  161.5780  208.4540  151.7760 C   0  0  0  0  0  2  0  0  0  0  0  0
  161.0730  207.5820  150.6400 C   0  0  0  0  0  2  0  0  0  0  0  0
  161.1490  206.1010  151.0000 C   0  0  2  0  0  3  0  0  0  0  0  0
  162.3210  205.9170  151.9500 C   0  0  0  0  0  1  0  0  0  0  0  0
  160.6880  203.8560  149.9610 C   0  0  0  0  0  1  0  0  0  0  0  0
  161.3240  205.2230  149.7510 C   0  0  1  0  0  3  0  0  0  0  0  0
  161.1610  205.7060  147.2920 C   0  0  0  0  0  0  0  0  0  0  0  0
  160.6990  205.8600  148.5410 C   0  0  0  0  0  3  0  0  0  0  0  0
  160.4340  206.3660  146.1740 C   0  0  0  0  0  1  0  0  0  0  0  0
  162.3620  204.8650  146.9740 C   0  0  0  0  0  2  0  0  0  0  0  0
  162.2340  204.2540  145.5900 C   0  0  0  0  0  2  0  0  0  0  0  0
  161.4990  203.0730  145.6690 O   0  0  0  0  0  1  0  0  0  0  0  0
  2  1  1  6  0  0  0
  5  4  1  1  0  0  0
  5  9  1  0  0  0  0
  6  9  1  0  0  0  0
  6  3  1  0  0  0  0
  7  2  1  6  0  0  0
  7 10  1  0  0  0  0
  7  5  1  0  0  0  0
  7  4  1  0  0  0  0
  8  6  1  0  0  0  0
 10  6  1  0  0  0  0
 11 16  1  6  0  0  0
 11  2  1  0  0  0  0
 11 13  1  0  0  0  0
 12 15  1  0  0  0  0
 12 14  1  0  0  0  0
 13 12  2  0  0  0  0
 17 16  1  0  0  0  0
 18 19  1  0  0  0  0
 19 17  1  0  0  0  0
 20 19  1  0  0  0  0
 22 24  1  0  0  0  0
 22 23  1  0  0  0  0
 23 21  1  1  0  0  0
 23 20  1  0  0  0  0
 24 18  1  0  0  0  0
 25  2  1  0  0  0  0
 26 25  1  0  0  0  0
 27 28  1  0  0  0  0
 27 26  1  0  0  0  0
 28 29  1  1  0  0  0
 31 30  1  1  0  0  0
 31 28  1  0  0  0  0
 32 33  2  0  0  0  0
 33 31  1  0  0  0  0
 34 32  1  0  0  0  0
 35 32  1  0  0  0  0
 36 37  1  0  0  0  0
 36 35  1  0  0  0  0
M  END
>  <MODEL>
1

>  <REMARK>
 VINA RESULT:      -6.9      0.000      0.000
  Name = 
  14 active torsions:
  status: ('A' for Active; 'I' for Inactive)
    1  A    between atoms: C_1  and  C_5
    2  A    between atoms: C_1  and  C_36
    3  A    between atoms: C_5  and  C_17
    4  A    between atoms: N_6  and  C_31
    5  A    between atoms: C_7  and  C_33
    6  A    between atoms: C_10  and  C_14
    7  A    between atoms: C_10  and  C_20
    8  A    between atoms: C_10  and  C_22
    9  A    between atoms: C_11  and  C_33
   10  A    between atoms: C_14  and  C_31
   11  A    between atoms: C_17  and  C_26
   12  A    between atoms: C_20  and  C_24
   13  A    between atoms: C_20  and  C_29
   14  A    between atoms: C_29  and  C_36
                            x       y       z     vdW  Elec       q    Type
                         _______ _______ _______ _____ _____    ______ ____

>  <TORSDO>
F 14

$$$$
=
 OpenBabel11062409213D

 37 39  0  0  1  0  0  0  0  0999 V2000
  162.1980  210.4500  153.0610 O   0  0  0  0  0  1  0  0  0  0  0  0
  160.8330  210.1880  153.2380 C   0  0  1  0  0  0  0  0  0  0  0  0
  159.8060  207.1220  156.9190 O   0  0  0  0  0  1  0  0  0  0  0  0
  161.0020  210.7390  155.8640 C   0  0  0  0  0  2  0  0  0  0  0  0
  161.9490  209.6120  155.4820 C   0  0  2  0  0  3  0  0  0  0  0  0
  160.5500  207.6510  155.8660 C   0  0  0  0  0  0  0  0  0  0  0  0
  160.6420  209.8000  154.7290 C   0  0  2  0  0  0  0  0  0  0  0  0
  160.9800  206.6240  155.0260 O   0  0  0  0  0  1  0  0  0  0  0  0
  161.7430  208.4180  156.3970 C   0  0  0  0  0  2  0  0  0  0  0  0
  159.7180  208.6420  155.0820 C   0  0  0  0  0  2  0  0  0  0  0  0
  160.0300  211.4550  152.8180 C   0  0  2  0  0  3  0  0  0  0  0  0
  158.0470  212.3560  154.1190 C   0  0  0  0  0  0  0  0  0  0  0  0
  158.5840  211.4850  153.2640 C   0  0  0  0  0  3  0  0  0  0  0  0
  158.8110  213.3380  154.7320 O   0  0  0  0  0  1  0  0  0  0  0  0
  156.5980  212.2590  154.4370 C   0  0  0  0  0  1  0  0  0  0  0  0
  160.2090  211.8400  151.3480 C   0  0  0  0  0  2  0  0  0  0  0  0
  160.0020  213.3320  151.1560 C   0  0  0  0  0  2  0  0  0  0  0  0
  159.1500  213.6950  149.0010 C   0  0  0  0  0  2  0  0  0  0  0  0
  160.3710  213.7100  149.8040 N   0  0  0  0  0  0  0  0  0  0  0  0
  161.2640  212.6620  149.3070 C   0  0  0  0  0  2  0  0  0  0  0  0
  162.6080  214.1640  147.8050 C   0  0  0  0  0  1  0  0  0  0  0  0
  160.4750  213.1320  146.9640 C   0  0  0  0  0  2  0  0  0  0  0  0
  161.6980  212.9500  147.8670 C   0  0  2  0  0  3  0  0  0  0  0  0
  159.4700  214.1120  147.5690 C   0  0  0  0  0  2  0  0  0  0  0  0
  160.4390  208.9710  152.3800 C   0  0  0  0  0  2  0  0  0  0  0  0
  161.6230  208.3470  151.6490 C   0  0  0  0  0  2  0  0  0  0  0  0
  161.2440  206.9940  151.0730 C   0  0  0  0  0  2  0  0  0  0  0  0
  161.8210  206.8050  149.6730 C   0  0  2  0  0  3  0  0  0  0  0  0
  162.2020  208.1770  149.1420 C   0  0  0  0  0  1  0  0  0  0  0  0
  160.6890  206.8980  147.4270 C   0  0  0  0  0  1  0  0  0  0  0  0
  160.8140  206.1240  148.7320 C   0  0  1  0  0  3  0  0  0  0  0  0
  161.0000  203.6680  149.2200 C   0  0  0  0  0  0  0  0  0  0  0  0
  161.2300  204.7140  148.4140 C   0  0  0  0  0  3  0  0  0  0  0  0
  161.4350  202.3150  148.7770 C   0  0  0  0  0  1  0  0  0  0  0  0
  160.2890  203.8010  150.5340 C   0  0  0  0  0  2  0  0  0  0  0  0
  161.1530  203.2730  151.6640 C   0  0  0  0  0  2  0  0  0  0  0  0
  160.7780  203.8820  152.8600 O   0  0  0  0  0  1  0  0  0  0  0  0
  2  1  1  6  0  0  0
  5  4  1  1  0  0  0
  5  9  1  0  0  0  0
  6  9  1  0  0  0  0
  6  3  1  0  0  0  0
  7  2  1  6  0  0  0
  7 10  1  0  0  0  0
  7  5  1  0  0  0  0
  7  4  1  0  0  0  0
  8  6  1  0  0  0  0
 10  6  1  0  0  0  0
 11 16  1  6  0  0  0
 11  2  1  0  0  0  0
 11 13  1  0  0  0  0
 12 15  1  0  0  0  0
 12 14  1  0  0  0  0
 13 12  2  0  0  0  0
 17 16  1  0  0  0  0
 18 19  1  0  0  0  0
 19 17  1  0  0  0  0
 20 19  1  0  0  0  0
 22 24  1  0  0  0  0
 22 23  1  0  0  0  0
 23 21  1  1  0  0  0
 23 20  1  0  0  0  0
 24 18  1  0  0  0  0
 25  2  1  0  0  0  0
 26 25  1  0  0  0  0
 27 26  1  0  0  0  0
 28 29  1  6  0  0  0
 28 27  1  0  0  0  0
 31 30  1  6  0  0  0
 31 28  1  0  0  0  0
 32 35  1  0  0  0  0
 33 31  1  0  0  0  0
 33 32  2  0  0  0  0
 34 32  1  0  0  0  0
 35 36  1  0  0  0  0
 36 37  1  0  0  0  0
M  END
>  <MODEL>
2

>  <REMARK>
 VINA RESULT:      -6.6      1.456      2.206
  Name = 
  14 active torsions:
  status: ('A' for Active; 'I' for Inactive)
    1  A    between atoms: C_1  and  C_5
    2  A    between atoms: C_1  and  C_36
    3  A    between atoms: C_5  and  C_17
    4  A    between atoms: N_6  and  C_31
    5  A    between atoms: C_7  and  C_33
    6  A    between atoms: C_10  and  C_14
    7  A    between atoms: C_10  and  C_20
    8  A    between atoms: C_10  and  C_22
    9  A    between atoms: C_11  and  C_33
   10  A    between atoms: C_14  and  C_31
   11  A    between atoms: C_17  and  C_26
   12  A    between atoms: C_20  and  C_24
   13  A    between atoms: C_20  and  C_29
   14  A    between atoms: C_29  and  C_36
                            x       y       z     vdW  Elec       q    Type
                         _______ _______ _______ _____ _____    ______ ____

>  <TORSDO>
F 14

$$$$
=
 OpenBabel11062409213D

 37 39  0  0  1  0  0  0  0  0999 V2000
  163.2220  207.4790  150.3830 O   0  0  0  0  0  1  0  0  0  0  0  0
  161.8800  207.8760  150.3190 C   0  0  1  0  0  0  0  0  0  0  0  0
  160.2810  203.6800  152.2810 O   0  0  0  0  0  1  0  0  0  0  0  0
  160.4870  207.6150  152.6050 C   0  0  0  0  0  2  0  0  0  0  0  0
  161.8220  206.8910  152.6940 C   0  0  2  0  0  3  0  0  0  0  0  0
  161.2140  204.6550  151.9330 C   0  0  0  0  0  0  0  0  0  0  0  0
  161.1090  207.0160  151.3570 C   0  0  2  0  0  0  0  0  0  0  0  0
  162.3400  204.0540  151.3690 O   0  0  0  0  0  1  0  0  0  0  0  0
  161.6150  205.4590  153.1530 C   0  0  0  0  0  2  0  0  0  0  0  0
  160.6090  205.6360  150.9530 C   0  0  0  0  0  2  0  0  0  0  0  0
  161.8050  209.4050  150.6020 C   0  0  2  0  0  3  0  0  0  0  0  0
  161.8080  211.5190  149.1980 C   0  0  0  0  0  0  0  0  0  0  0  0
  162.2710  210.2990  149.4730 C   0  0  0  0  0  3  0  0  0  0  0  0
  160.7840  212.0910  149.9390 O   0  0  0  0  0  1  0  0  0  0  0  0
  162.3900  212.2750  148.0590 C   0  0  0  0  0  1  0  0  0  0  0  0
  162.3840  209.8100  151.9590 C   0  0  0  0  0  2  0  0  0  0  0  0
  161.4470  210.7640  152.6790 C   0  0  0  0  0  2  0  0  0  0  0  0
  159.8280  210.9100  154.3700 C   0  0  0  0  0  2  0  0  0  0  0  0
  161.0150  210.1760  153.9340 N   0  0  0  0  0  0  0  0  0  0  0  0
  162.0890  210.4200  154.8990 C   0  0  0  0  0  2  0  0  0  0  0  0
  161.6870  208.3410  156.2550 C   0  0  0  0  0  1  0  0  0  0  0  0
  160.3880  210.4350  156.7540 C   0  0  0  0  0  2  0  0  0  0  0  0
  161.7230  209.8590  156.2770 C   0  0  2  0  0  3  0  0  0  0  0  0
  159.3090  210.3200  155.6780 C   0  0  0  0  0  2  0  0  0  0  0  0
  161.3220  207.5410  148.9230 C   0  0  0  0  0  2  0  0  0  0  0  0
  162.3670  206.9380  147.9910 C   0  0  0  0  0  2  0  0  0  0  0  0
  161.7040  206.3130  146.7760 C   0  0  0  0  0  2  0  0  0  0  0  0
  162.0350  204.8280  146.6650 C   0  0  2  0  0  3  0  0  0  0  0  0
  163.3290  204.7010  145.8780 C   0  0  0  0  0  1  0  0  0  0  0  0
  160.7890  204.4490  144.5110 C   0  0  0  0  0  1  0  0  0  0  0  0
  160.9060  204.0470  145.9750 C   0  0  1  0  0  3  0  0  0  0  0  0
  161.1500  201.8620  147.1870 C   0  0  0  0  0  0  0  0  0  0  0  0
  161.1440  202.5640  146.0450 C   0  0  0  0  0  3  0  0  0  0  0  0
  161.3690  200.3910  147.1210 C   0  0  0  0  0  1  0  0  0  0  0  0
  160.9100  202.4940  148.5250 C   0  0  0  0  0  2  0  0  0  0  0  0
  160.0300  201.6060  149.3860 C   0  0  0  0  0  2  0  0  0  0  0  0
  160.8030  201.0030  150.3750 O   0  0  0  0  0  1  0  0  0  0  0  0
  2  1  1  1  0  0  0
  2 11  1  0  0  0  0
  5  4  1  1  0  0  0
  5  9  1  0  0  0  0
  6  3  1  0  0  0  0
  6  9  1  0  0  0  0
  7  2  1  6  0  0  0
  7  4  1  0  0  0  0
  7  5  1  0  0  0  0
  8  6  1  0  0  0  0
 10  7  1  0  0  0  0
 10  6  1  0  0  0  0
 11 13  1  6  0  0  0
 11 16  1  0  0  0  0
 12 13  2  0  0  0  0
 12 14  1  0  0  0  0
 15 12  1  0  0  0  0
 16 17  1  0  0  0  0
 17 19  1  0  0  0  0
 18 24  1  0  0  0  0
 19 18  1  0  0  0  0
 19 20  1  0  0  0  0
 20 23  1  0  0  0  0
 23 21  1  6  0  0  0
 23 22  1  0  0  0  0
 24 22  1  0  0  0  0
 25  2  1  0  0  0  0
 26 25  1  0  0  0  0
 27 26  1  0  0  0  0
 28 29  1  6  0  0  0
 28 27  1  0  0  0  0
 31 30  1  6  0  0  0
 31 33  1  0  0  0  0
 31 28  1  0  0  0  0
 32 35  1  0  0  0  0
 33 32  2  0  0  0  0
 34 32  1  0  0  0  0
 35 36  1  0  0  0  0
 36 37  1  0  0  0  0
M  END
>  <MODEL>
3

>  <REMARK>
 VINA RESULT:      -6.4      2.713      5.697
  Name = 
  14 active torsions:
  status: ('A' for Active; 'I' for Inactive)
    1  A    between atoms: C_1  and  C_5
    2  A    between atoms: C_1  and  C_36
    3  A    between atoms: C_5  and  C_17
    4  A    between atoms: N_6  and  C_31
    5  A    between atoms: C_7  and  C_33
    6  A    between atoms: C_10  and  C_14
    7  A    between atoms: C_10  and  C_20
    8  A    between atoms: C_10  and  C_22
    9  A    between atoms: C_11  and  C_33
   10  A    between atoms: C_14  and  C_31
   11  A    between atoms: C_17  and  C_26
   12  A    between atoms: C_20  and  C_24
   13  A    between atoms: C_20  and  C_29
   14  A    between atoms: C_29  and  C_36
                            x       y       z     vdW  Elec       q    Type
                         _______ _______ _______ _____ _____    ______ ____

>  <TORSDO>
F 14

$$$$
=
 OpenBabel11062409213D

 37 39  0  0  1  0  0  0  0  0999 V2000
  160.0800  207.7300  152.1800 O   0  0  0  0  0  1  0  0  0  0  0  0
  161.3570  207.9890  152.6970 C   0  0  1  0  0  0  0  0  0  0  0  0
  162.9960  208.3830  148.0960 O   0  0  0  0  0  1  0  0  0  0  0  0
  162.9030  209.9610  151.7200 C   0  0  0  0  0  2  0  0  0  0  0  0
  161.5620  209.9140  151.0040 C   0  0  2  0  0  3  0  0  0  0  0  0
  162.0630  208.4360  149.1300 C   0  0  0  0  0  0  0  0  0  0  0  0
  162.1800  208.6380  151.5520 C   0  0  2  0  0  0  0  0  0  0  0  0
  160.8860  207.7970  148.7390 O   0  0  0  0  0  1  0  0  0  0  0  0
  161.7690  209.8750  149.5000 C   0  0  0  0  0  2  0  0  0  0  0  0
  162.6180  207.7780  150.3730 C   0  0  0  0  0  2  0  0  0  0  0  0
  161.2040  208.9050  153.9470 C   0  0  2  0  0  3  0  0  0  0  0  0
  160.3080  207.6570  155.9660 C   0  0  0  0  0  0  0  0  0  0  0  0
  161.3140  208.2040  155.2840 C   0  0  0  0  0  3  0  0  0  0  0  0
  159.0010  207.7160  155.5040 O   0  0  0  0  0  1  0  0  0  0  0  0
  160.5900  206.9860  157.2610 C   0  0  0  0  0  1  0  0  0  0  0  0
  160.0100  209.8580  153.8710 C   0  0  0  0  0  2  0  0  0  0  0  0
  160.3870  211.2320  154.3980 C   0  0  0  0  0  2  0  0  0  0  0  0
  159.0450  211.2600  156.3210 C   0  0  0  0  0  2  0  0  0  0  0  0
  159.2270  211.8630  155.0020 N   0  0  0  0  0  0  0  0  0  0  0  0
  158.0770  211.5080  154.1680 C   0  0  0  0  0  2  0  0  0  0  0  0
  156.7840  213.6190  154.6070 C   0  0  0  0  0  1  0  0  0  0  0  0
  156.5880  211.6750  156.1900 C   0  0  0  0  0  2  0  0  0  0  0  0
  156.7860  212.1050  154.7340 C   0  0  2  0  0  3  0  0  0  0  0  0
  157.8510  211.9030  157.0200 C   0  0  0  0  0  2  0  0  0  0  0  0
  162.0310  206.6540  153.0640 C   0  0  0  0  0  2  0  0  0  0  0  0
  161.1800  205.4390  152.7140 C   0  0  0  0  0  2  0  0  0  0  0  0
  161.8390  204.6220  151.6150 C   0  0  0  0  0  2  0  0  0  0  0  0
  160.8680  203.6060  151.0220 C   0  0  2  0  0  3  0  0  0  0  0  0
  160.9180  202.3590  151.8890 C   0  0  0  0  0  1  0  0  0  0  0  0
  160.3100  202.1740  149.0290 C   0  0  0  0  0  1  0  0  0  0  0  0
  161.2270  203.2650  149.5660 C   0  0  1  0  0  3  0  0  0  0  0  0
  161.3520  204.4520  147.3580 C   0  0  0  0  0  0  0  0  0  0  0  0
  161.1080  204.4700  148.6760 C   0  0  0  0  0  3  0  0  0  0  0  0
  161.1700  205.7080  146.5800 C   0  0  0  0  0  1  0  0  0  0  0  0
  161.7670  203.2080  146.6300 C   0  0  0  0  0  2  0  0  0  0  0  0
  160.9650  203.0450  145.3520 C   0  0  0  0  0  2  0  0  0  0  0  0
  160.4380  201.7560  145.2940 O   0  0  0  0  0  1  0  0  0  0  0  0
  2  1  1  6  0  0  0
  2 25  1  0  0  0  0
  2 11  1  0  0  0  0
  3  6  1  0  0  0  0
  5  9  1  6  0  0  0
  5  7  1  0  0  0  0
  5  4  1  0  0  0  0
  6  9  1  0  0  0  0
  6 10  1  0  0  0  0
  7  4  1  0  0  0  0
  7  2  1  1  0  0  0
  8  6  1  0  0  0  0
 10  7  1  0  0  0  0
 11 16  1  6  0  0  0
 11 13  1  0  0  0  0
 12 15  1  0  0  0  0
 13 12  2  0  0  0  0
 14 12  1  0  0  0  0
 16 17  1  0  0  0  0
 17 19  1  0  0  0  0
 18 24  1  0  0  0  0
 19 18  1  0  0  0  0
 20 23  1  0  0  0  0
 20 19  1  0  0  0  0
 22 24  1  0  0  0  0
 23 21  1  1  0  0  0
 23 22  1  0  0  0  0
 26 25  1  0  0  0  0
 27 26  1  0  0  0  0
 28 27  1  0  0  0  0
 28 29  1  1  0  0  0
 31 30  1  6  0  0  0
 31 28  1  0  0  0  0
 32 33  2  0  0  0  0
 33 31  1  0  0  0  0
 34 32  1  0  0  0  0
 35 32  1  0  0  0  0
 36 35  1  0  0  0  0
 37 36  1  0  0  0  0
M  END
>  <MODEL>
4

>  <REMARK>
 VINA RESULT:      -5.8      2.678      5.289
  Name = 
  14 active torsions:
  status: ('A' for Active; 'I' for Inactive)
    1  A    between atoms: C_1  and  C_5
    2  A    between atoms: C_1  and  C_36
    3  A    between atoms: C_5  and  C_17
    4  A    between atoms: N_6  and  C_31
    5  A    between atoms: C_7  and  C_33
    6  A    between atoms: C_10  and  C_14
    7  A    between atoms: C_10  and  C_20
    8  A    between atoms: C_10  and  C_22
    9  A    between atoms: C_11  and  C_33
   10  A    between atoms: C_14  and  C_31
   11  A    between atoms: C_17  and  C_26
   12  A    between atoms: C_20  and  C_24
   13  A    between atoms: C_20  and  C_29
   14  A    between atoms: C_29  and  C_36
                            x       y       z     vdW  Elec       q    Type
                         _______ _______ _______ _____ _____    ______ ____

>  <TORSDO>
F 14

$$$$
=
 OpenBabel11062409213D

 37 39  0  0  1  0  0  0  0  0999 V2000
  163.2000  207.2760  150.3920 O   0  0  0  0  0  1  0  0  0  0  0  0
  161.8890  207.7540  150.5240 C   0  0  1  0  0  0  0  0  0  0  0  0
  160.2350  203.5350  152.3870 O   0  0  0  0  0  1  0  0  0  0  0  0
  160.7950  207.4070  152.9560 C   0  0  0  0  0  2  0  0  0  0  0  0
  162.0680  206.5870  152.8090 C   0  0  2  0  0  3  0  0  0  0  0  0
  161.1880  204.4670  151.9830 C   0  0  0  0  0  0  0  0  0  0  0  0
  161.1970  206.8690  151.5950 C   0  0  2  0  0  0  0  0  0  0  0  0
  162.1780  203.8370  151.2290 O   0  0  0  0  0  1  0  0  0  0  0  0
  161.8100  205.1400  153.1900 C   0  0  0  0  0  2  0  0  0  0  0  0
  160.5390  205.5630  151.1680 C   0  0  0  0  0  2  0  0  0  0  0  0
  161.9520  209.2610  150.9100 C   0  0  2  0  0  3  0  0  0  0  0  0
  160.7420  210.4530  152.7960 C   0  0  0  0  0  0  0  0  0  0  0  0
  160.7360  209.7970  151.6350 C   0  0  0  0  0  3  0  0  0  0  0  0
  161.9190  210.6830  153.4930 O   0  0  0  0  0  1  0  0  0  0  0  0
  159.4550  210.9310  153.3640 C   0  0  0  0  0  1  0  0  0  0  0  0
  162.4150  210.1710  149.7710 C   0  0  0  0  0  2  0  0  0  0  0  0
  161.5890  211.4450  149.7330 C   0  0  0  0  0  2  0  0  0  0  0  0
  162.7610  212.4870  147.9890 C   0  0  0  0  0  2  0  0  0  0  0  0
  161.4700  211.9140  148.3640 N   0  0  0  0  0  0  0  0  0  0  0  0
  160.4730  212.9860  148.3770 C   0  0  0  0  0  2  0  0  0  0  0  0
  159.6250  212.5720  146.0470 C   0  0  0  0  0  1  0  0  0  0  0  0
  161.6260  214.0500  146.4090 C   0  0  0  0  0  2  0  0  0  0  0  0
  160.2860  213.5760  146.9750 C   0  0  2  0  0  3  0  0  0  0  0  0
  162.7060  212.9770  146.5450 C   0  0  0  0  0  2  0  0  0  0  0  0
  161.1430  207.5510  149.1920 C   0  0  0  0  0  2  0  0  0  0  0  0
  161.2810  206.1370  148.6390 C   0  0  0  0  0  2  0  0  0  0  0  0
  161.8890  206.1630  147.2480 C   0  0  0  0  0  2  0  0  0  0  0  0
  162.2060  204.7540  146.7540 C   0  0  2  0  0  3  0  0  0  0  0  0
  163.4560  204.8360  145.8960 C   0  0  0  0  0  1  0  0  0  0  0  0
  161.0330  204.7050  144.5280 C   0  0  0  0  0  1  0  0  0  0  0  0
  161.0380  204.1600  145.9500 C   0  0  1  0  0  3  0  0  0  0  0  0
  161.1500  201.8690  146.9690 C   0  0  0  0  0  0  0  0  0  0  0  0
  161.1220  202.6610  145.8870 C   0  0  0  0  0  3  0  0  0  0  0  0
  161.2060  200.3940  146.7730 C   0  0  0  0  0  1  0  0  0  0  0  0
  161.0920  202.4080  148.3670 C   0  0  0  0  0  2  0  0  0  0  0  0
  160.0790  201.6380  149.1940 C   0  0  0  0  0  2  0  0  0  0  0  0
  160.7360  200.9530  150.2140 O   0  0  0  0  0  1  0  0  0  0  0  0
  2  1  1  6  0  0  0
  2 11  1  0  0  0  0
  5  4  1  1  0  0  0
  5  9  1  0  0  0  0
  6  3  1  0  0  0  0
  6  9  1  0  0  0  0
  7  2  1  6  0  0  0
  7  5  1  0  0  0  0
  7  4  1  0  0  0  0
  8  6  1  0  0  0  0
 10  7  1  0  0  0  0
 10  6  1  0  0  0  0
 11 16  1  6  0  0  0
 11 13  1  0  0  0  0
 12 15  1  0  0  0  0
 12 14  1  0  0  0  0
 13 12  2  0  0  0  0
 17 16  1  0  0  0  0
 18 19  1  0  0  0  0
 19 20  1  0  0  0  0
 19 17  1  0  0  0  0
 22 24  1  0  0  0  0
 22 23  1  0  0  0  0
 23 21  1  6  0  0  0
 23 20  1  0  0  0  0
 24 18  1  0  0  0  0
 25  2  1  0  0  0  0
 26 25  1  0  0  0  0
 27 26  1  0  0  0  0
 28 29  1  6  0  0  0
 28 27  1  0  0  0  0
 31 30  1  6  0  0  0
 31 28  1  0  0  0  0
 32 35  1  0  0  0  0
 33 31  1  0  0  0  0
 33 32  2  0  0  0  0
 34 32  1  0  0  0  0
 35 36  1  0  0  0  0
 36 37  1  0  0  0  0
M  END
>  <MODEL>
5

>  <REMARK>
 VINA RESULT:      -5.7      2.451      4.241
  Name = 
  14 active torsions:
  status: ('A' for Active; 'I' for Inactive)
    1  A    between atoms: C_1  and  C_5
    2  A    between atoms: C_1  and  C_36
    3  A    between atoms: C_5  and  C_17
    4  A    between atoms: N_6  and  C_31
    5  A    between atoms: C_7  and  C_33
    6  A    between atoms: C_10  and  C_14
    7  A    between atoms: C_10  and  C_20
    8  A    between atoms: C_10  and  C_22
    9  A    between atoms: C_11  and  C_33
   10  A    between atoms: C_14  and  C_31
   11  A    between atoms: C_17  and  C_26
   12  A    between atoms: C_20  and  C_24
   13  A    between atoms: C_20  and  C_29
   14  A    between atoms: C_29  and  C_36
                            x       y       z     vdW  Elec       q    Type
                         _______ _______ _______ _____ _____    ______ ____

>  <TORSDO>
F 14

$$$$
=
 OpenBabel11062409213D

 37 39  0  0  1  0  0  0  0  0999 V2000
  158.3110  211.1120  152.7690 O   0  0  0  0  0  1  0  0  0  0  0  0
  159.2930  211.6290  153.6250 C   0  0  1  0  0  0  0  0  0  0  0  0
  155.3250  213.1120  156.0880 O   0  0  0  0  0  1  0  0  0  0  0  0
  159.2640  212.7740  156.0580 C   0  0  0  0  0  2  0  0  0  0  0  0
  158.5060  211.4550  156.0670 C   0  0  2  0  0  3  0  0  0  0  0  0
  156.2370  212.1970  155.5640 C   0  0  0  0  0  0  0  0  0  0  0  0
  158.5470  212.3050  154.8060 C   0  0  2  0  0  0  0  0  0  0  0  0
  155.5550  211.1540  154.9380 O   0  0  0  0  0  1  0  0  0  0  0  0
  157.1220  211.6470  156.6630 C   0  0  0  0  0  2  0  0  0  0  0  0
  157.1560  212.8790  154.5740 C   0  0  0  0  0  2  0  0  0  0  0  0
  160.2240  210.4610  154.0660 C   0  0  2  0  0  3  0  0  0  0  0  0
  162.0820  210.3970  155.7940 C   0  0  0  0  0  0  0  0  0  0  0  0
  161.5480  210.8780  154.6710 C   0  0  0  0  0  3  0  0  0  0  0  0
  161.4220  209.4500  156.5640 O   0  0  0  0  0  1  0  0  0  0  0  0
  163.4050  210.9020  156.2400 C   0  0  0  0  0  1  0  0  0  0  0  0
  160.3700  209.3580  153.0160 C   0  0  0  0  0  2  0  0  0  0  0  0
  161.7160  209.4550  152.3210 C   0  0  0  0  0  2  0  0  0  0  0  0
  161.9820  208.6260  150.1420 C   0  0  0  0  0  2  0  0  0  0  0  0
  161.9640  208.2470  151.5540 N   0  0  0  0  0  0  0  0  0  0  0  0
  160.8150  207.3680  151.7810 C   0  0  0  0  0  2  0  0  0  0  0  0
  162.0940  205.2160  151.5440 C   0  0  0  0  0  1  0  0  0  0  0  0
  161.1680  206.3570  149.5040 C   0  0  0  0  0  2  0  0  0  0  0  0
  160.9610  206.0630  150.9920 C   0  0  2  0  0  3  0  0  0  0  0  0
  162.2640  207.3980  149.2830 C   0  0  0  0  0  2  0  0  0  0  0  0
  160.0850  212.7210  152.8820 C   0  0  0  0  0  2  0  0  0  0  0  0
  159.5430  213.0050  151.4850 C   0  0  0  0  0  2  0  0  0  0  0  0
  160.5640  212.6230  150.4270 C   0  0  0  0  0  2  0  0  0  0  0  0
  160.5480  213.6050  149.2600 C   0  0  2  0  0  3  0  0  0  0  0  0
  159.0990  213.8220  148.8580 C   0  0  0  0  0  1  0  0  0  0  0  0
  162.3040  211.9670  148.5080 C   0  0  0  0  0  1  0  0  0  0  0  0
  161.3650  213.0810  148.0680 C   0  0  1  0  0  3  0  0  0  0  0  0
  160.6230  212.8400  145.6820 C   0  0  0  0  0  0  0  0  0  0  0  0
  160.4710  212.5510  146.9810 C   0  0  0  0  0  3  0  0  0  0  0  0
  159.6880  212.2270  144.6990 C   0  0  0  0  0  1  0  0  0  0  0  0
  161.7190  213.7280  145.1740 C   0  0  0  0  0  2  0  0  0  0  0  0
  162.4750  213.0520  144.0450 C   0  0  0  0  0  2  0  0  0  0  0  0
  163.7360  213.6300  143.9170 O   0  0  0  0  0  1  0  0  0  0  0  0
  2  1  1  6  0  0  0
  2 11  1  0  0  0  0
  5  4  1  1  0  0  0
  5  9  1  0  0  0  0
  6  3  1  0  0  0  0
  6  9  1  0  0  0  0
  7  2  1  6  0  0  0
  7  4  1  0  0  0  0
  7  5  1  0  0  0  0
  8  6  1  0  0  0  0
 10  7  1  0  0  0  0
 10  6  1  0  0  0  0
 11 16  1  6  0  0  0
 11 13  1  0  0  0  0
 12 15  1  0  0  0  0
 12 14  1  0  0  0  0
 13 12  2  0  0  0  0
 17 16  1  0  0  0  0
 18 19  1  0  0  0  0
 19 20  1  0  0  0  0
 19 17  1  0  0  0  0
 22 23  1  0  0  0  0
 23 21  1  1  0  0  0
 23 20  1  0  0  0  0
 24 22  1  0  0  0  0
 24 18  1  0  0  0  0
 25  2  1  0  0  0  0
 26 25  1  0  0  0  0
 27 26  1  0  0  0  0
 28 29  1  6  0  0  0
 28 27  1  0  0  0  0
 31 30  1  1  0  0  0
 31 28  1  0  0  0  0
 32 33  2  0  0  0  0
 33 31  1  0  0  0  0
 34 32  1  0  0  0  0
 35 32  1  0  0  0  0
 36 35  1  0  0  0  0
 37 36  1  0  0  0  0
M  END
>  <MODEL>
6

>  <REMARK>
 VINA RESULT:      -5.7      2.804      6.464
  Name = 
  14 active torsions:
  status: ('A' for Active; 'I' for Inactive)
    1  A    between atoms: C_1  and  C_5
    2  A    between atoms: C_1  and  C_36
    3  A    between atoms: C_5  and  C_17
    4  A    between atoms: N_6  and  C_31
    5  A    between atoms: C_7  and  C_33
    6  A    between atoms: C_10  and  C_14
    7  A    between atoms: C_10  and  C_20
    8  A    between atoms: C_10  and  C_22
    9  A    between atoms: C_11  and  C_33
   10  A    between atoms: C_14  and  C_31
   11  A    between atoms: C_17  and  C_26
   12  A    between atoms: C_20  and  C_24
   13  A    between atoms: C_20  and  C_29
   14  A    between atoms: C_29  and  C_36
                            x       y       z     vdW  Elec       q    Type
                         _______ _______ _______ _____ _____    ______ ____

>  <TORSDO>
F 14

$$$$
=
 OpenBabel11062409213D

 37 39  0  0  1  0  0  0  0  0999 V2000
  163.2450  207.0810  148.7610 O   0  0  0  0  0  1  0  0  0  0  0  0
  161.8810  207.0560  149.0810 C   0  0  1  0  0  0  0  0  0  0  0  0
  160.4170  205.0040  144.8800 O   0  0  0  0  0  1  0  0  0  0  0  0
  160.8350  204.5960  148.7900 C   0  0  0  0  0  2  0  0  0  0  0  0
  162.1370  204.7300  148.0140 C   0  0  2  0  0  3  0  0  0  0  0  0
  161.3280  205.4580  145.8310 C   0  0  0  0  0  0  0  0  0  0  0  0
  161.2380  205.9400  148.2140 C   0  0  2  0  0  0  0  0  0  0  0  0
  162.3310  206.2020  145.2090 O   0  0  0  0  0  1  0  0  0  0  0  0
  161.9400  204.2890  146.5740 C   0  0  0  0  0  2  0  0  0  0  0  0
  160.6260  206.3050  146.8680 C   0  0  0  0  0  2  0  0  0  0  0  0
  161.7400  206.8100  150.6120 C   0  0  2  0  0  3  0  0  0  0  0  0
  161.2380  204.9130  152.2210 C   0  0  0  0  0  0  0  0  0  0  0  0
  161.1860  205.4570  151.0050 C   0  0  0  0  0  3  0  0  0  0  0  0
  161.8650  205.5560  153.2780 O   0  0  0  0  0  1  0  0  0  0  0  0
  160.6250  203.5780  152.4440 C   0  0  0  0  0  1  0  0  0  0  0  0
  161.0770  207.9660  151.3640 C   0  0  0  0  0  2  0  0  0  0  0  0
  162.1200  208.8070  152.0790 C   0  0  0  0  0  2  0  0  0  0  0  0
  161.5700  209.8740  154.0950 C   0  0  0  0  0  2  0  0  0  0  0  0
  161.4970  209.9930  152.6400 N   0  0  0  0  0  0  0  0  0  0  0  0
  160.0880  209.9510  152.2420 C   0  0  0  0  0  2  0  0  0  0  0  0
  159.7770  212.4430  152.1470 C   0  0  0  0  0  1  0  0  0  0  0  0
  159.4850  211.2240  154.3270 C   0  0  0  0  0  2  0  0  0  0  0  0
  159.3240  211.1520  152.8070 C   0  0  2  0  0  3  0  0  0  0  0  0
  160.9510  211.1080  154.7440 C   0  0  0  0  0  2  0  0  0  0  0  0
  161.2430  208.3970  148.6720 C   0  0  0  0  0  2  0  0  0  0  0  0
  162.2710  209.4510  148.2760 C   0  0  0  0  0  2  0  0  0  0  0  0
  161.9440  210.7870  148.9190 C   0  0  0  0  0  2  0  0  0  0  0  0
  162.0430  211.9280  147.9100 C   0  0  2  0  0  3  0  0  0  0  0  0
  163.3830  212.6130  148.1190 C   0  0  0  0  0  1  0  0  0  0  0  0
  161.3580  214.3440  147.7490 C   0  0  0  0  0  1  0  0  0  0  0  0
  160.8910  212.9330  148.0780 C   0  0  1  0  0  3  0  0  0  0  0  0
  158.4730  212.9910  147.4080 C   0  0  0  0  0  0  0  0  0  0  0  0
  159.7330  212.5920  147.1820 C   0  0  0  0  0  3  0  0  0  0  0  0
  157.4170  212.6120  146.4290 C   0  0  0  0  0  1  0  0  0  0  0  0
  158.0910  213.8330  148.5880 C   0  0  0  0  0  2  0  0  0  0  0  0
  157.0910  213.1000  149.4650 C   0  0  0  0  0  2  0  0  0  0  0  0
  155.8640  213.7580  149.4210 O   0  0  0  0  0  1  0  0  0  0  0  0
  2  1  1  6  0  0  0
  2 11  1  0  0  0  0
  3  6  1  0  0  0  0
  5  9  1  6  0  0  0
  5  7  1  0  0  0  0
  5  4  1  0  0  0  0
  6  9  1  0  0  0  0
  6 10  1  0  0  0  0
  7  4  1  0  0  0  0
  7  2  1  1  0  0  0
  8  6  1  0  0  0  0
 10  7  1  0  0  0  0
 11 13  1  6  0  0  0
 11 16  1  0  0  0  0
 12 15  1  0  0  0  0
 12 14  1  0  0  0  0
 13 12  2  0  0  0  0
 16 17  1  0  0  0  0
 17 19  1  0  0  0  0
 18 24  1  0  0  0  0
 19 18  1  0  0  0  0
 20 19  1  0  0  0  0
 20 23  1  0  0  0  0
 22 24  1  0  0  0  0
 23 21  1  6  0  0  0
 23 22  1  0  0  0  0
 25  2  1  0  0  0  0
 26 25  1  0  0  0  0
 26 27  1  0  0  0  0
 28 31  1  0  0  0  0
 28 29  1  1  0  0  0
 28 27  1  0  0  0  0
 31 30  1  6  0  0  0
 32 35  1  0  0  0  0
 33 32  2  0  0  0  0
 33 31  1  0  0  0  0
 34 32  1  0  0  0  0
 35 36  1  0  0  0  0
 37 36  1  0  0  0  0
M  END
>  <MODEL>
7

>  <REMARK>
 VINA RESULT:      -5.6      2.247      7.962
  Name = 
  14 active torsions:
  status: ('A' for Active; 'I' for Inactive)
    1  A    between atoms: C_1  and  C_5
    2  A    between atoms: C_1  and  C_36
    3  A    between atoms: C_5  and  C_17
    4  A    between atoms: N_6  and  C_31
    5  A    between atoms: C_7  and  C_33
    6  A    between atoms: C_10  and  C_14
    7  A    between atoms: C_10  and  C_20
    8  A    between atoms: C_10  and  C_22
    9  A    between atoms: C_11  and  C_33
   10  A    between atoms: C_14  and  C_31
   11  A    between atoms: C_17  and  C_26
   12  A    between atoms: C_20  and  C_24
   13  A    between atoms: C_20  and  C_29
   14  A    between atoms: C_29  and  C_36
                            x       y       z     vdW  Elec       q    Type
                         _______ _______ _______ _____ _____    ______ ____

>  <TORSDO>
F 14

$$$$
=
 OpenBabel11062409213D

 37 39  0  0  1  0  0  0  0  0999 V2000
  163.4770  206.2560  148.6640 O   0  0  0  0  0  1  0  0  0  0  0  0
  162.1400  205.9470  148.3820 C   0  0  1  0  0  0  0  0  0  0  0  0
  160.0800  204.1770  144.3040 O   0  0  0  0  0  1  0  0  0  0  0  0
  163.4060  204.6680  146.3840 C   0  0  0  0  0  2  0  0  0  0  0  0
  162.7620  205.9540  145.8870 C   0  0  2  0  0  3  0  0  0  0  0  0
  160.5730  205.1540  145.1670 C   0  0  0  0  0  0  0  0  0  0  0  0
  162.1330  205.1780  147.0340 C   0  0  2  0  0  0  0  0  0  0  0  0
  159.6590  206.2030  145.2670 O   0  0  0  0  0  1  0  0  0  0  0  0
  161.9040  205.6750  144.6650 C   0  0  0  0  0  2  0  0  0  0  0  0
  160.8320  204.5630  146.5350 C   0  0  0  0  0  2  0  0  0  0  0  0
  161.5650  205.1200  149.5710 C   0  0  2  0  0  3  0  0  0  0  0  0
  160.7850  202.7280  149.8980 C   0  0  0  0  0  0  0  0  0  0  0  0
  160.8310  203.8530  149.1860 C   0  0  0  0  0  3  0  0  0  0  0  0
  161.4680  202.6000  151.0990 O   0  0  0  0  0  1  0  0  0  0  0  0
  159.9980  201.5770  149.3850 C   0  0  0  0  0  1  0  0  0  0  0  0
  160.8040  205.9610  150.5970 C   0  0  0  0  0  2  0  0  0  0  0  0
  161.4630  205.8670  151.9610 C   0  0  0  0  0  2  0  0  0  0  0  0
  161.0930  208.1570  152.3140 C   0  0  0  0  0  2  0  0  0  0  0  0
  160.8570  206.8250  152.8690 N   0  0  0  0  0  0  0  0  0  0  0  0
  161.5830  206.7170  154.1350 C   0  0  0  0  0  2  0  0  0  0  0  0
  159.6330  207.3290  155.5990 C   0  0  0  0  0  1  0  0  0  0  0  0
  161.0740  209.1350  154.6080 C   0  0  0  0  0  2  0  0  0  0  0  0
  161.0380  207.7100  155.1660 C   0  0  2  0  0  3  0  0  0  0  0  0
  160.4540  209.2100  153.2130 C   0  0  0  0  0  2  0  0  0  0  0  0
  161.3520  207.2550  148.1830 C   0  0  0  0  0  2  0  0  0  0  0  0
  162.0000  208.4530  148.8670 C   0  0  0  0  0  2  0  0  0  0  0  0
  161.5810  209.7470  148.1920 C   0  0  0  0  0  2  0  0  0  0  0  0
  162.2840  210.9500  148.8120 C   0  0  2  0  0  3  0  0  0  0  0  0
  161.8820  211.0160  150.2760 C   0  0  0  0  0  1  0  0  0  0  0  0
  163.0940  212.7790  147.2840 C   0  0  0  0  0  1  0  0  0  0  0  0
  161.9130  212.2570  148.0920 C   0  0  1  0  0  3  0  0  0  0  0  0
  159.6800  212.8660  147.1210 C   0  0  0  0  0  0  0  0  0  0  0  0
  160.7490  212.0580  147.1620 C   0  0  0  0  0  3  0  0  0  0  0  0
  158.6040  212.5780  146.1340 C   0  0  0  0  0  1  0  0  0  0  0  0
  159.5420  214.0680  148.0060 C   0  0  0  0  0  2  0  0  0  0  0  0
  158.6040  213.7750  149.1630 C   0  0  0  0  0  2  0  0  0  0  0  0
  159.3490  213.4740  150.3010 O   0  0  0  0  0  1  0  0  0  0  0  0
  2  1  1  1  0  0  0
  2 11  1  0  0  0  0
  3  6  1  0  0  0  0
  4  7  1  0  0  0  0
  5  9  1  6  0  0  0
  5  4  1  0  0  0  0
  5  7  1  0  0  0  0
  6  8  1  0  0  0  0
  6 10  1  0  0  0  0
  7  2  1  1  0  0  0
  9  6  1  0  0  0  0
 10  7  1  0  0  0  0
 11 13  1  6  0  0  0
 11 16  1  0  0  0  0
 12 14  1  0  0  0  0
 13 12  2  0  0  0  0
 15 12  1  0  0  0  0
 16 17  1  0  0  0  0
 17 19  1  0  0  0  0
 18 19  1  0  0  0  0
 18 24  1  0  0  0  0
 19 20  1  0  0  0  0
 20 23  1  0  0  0  0
 22 23  1  0  0  0  0
 23 21  1  6  0  0  0
 24 22  1  0  0  0  0
 25  2  1  0  0  0  0
 25 26  1  0  0  0  0
 27 28  1  0  0  0  0
 27 26  1  0  0  0  0
 28 29  1  1  0  0  0
 31 30  1  6  0  0  0
 31 28  1  0  0  0  0
 32 33  2  0  0  0  0
 32 35  1  0  0  0  0
 33 31  1  0  0  0  0
 34 32  1  0  0  0  0
 35 36  1  0  0  0  0
 36 37  1  0  0  0  0
M  END
>  <MODEL>
8

>  <REMARK>
 VINA RESULT:      -5.5      2.904      8.886
  Name = 
  14 active torsions:
  status: ('A' for Active; 'I' for Inactive)
    1  A    between atoms: C_1  and  C_5
    2  A    between atoms: C_1  and  C_36
    3  A    between atoms: C_5  and  C_17
    4  A    between atoms: N_6  and  C_31
    5  A    between atoms: C_7  and  C_33
    6  A    between atoms: C_10  and  C_14
    7  A    between atoms: C_10  and  C_20
    8  A    between atoms: C_10  and  C_22
    9  A    between atoms: C_11  and  C_33
   10  A    between atoms: C_14  and  C_31
   11  A    between atoms: C_17  and  C_26
   12  A    between atoms: C_20  and  C_24
   13  A    between atoms: C_20  and  C_29
   14  A    between atoms: C_29  and  C_36
                            x       y       z     vdW  Elec       q    Type
                         _______ _______ _______ _____ _____    ______ ____

>  <TORSDO>
F 14

$$$$
=
 OpenBabel11062409213D

 37 39  0  0  1  0  0  0  0  0999 V2000
  163.0130  209.6020  152.1980 O   0  0  0  0  0  1  0  0  0  0  0  0
  161.9830  208.7480  151.7810 C   0  0  1  0  0  0  0  0  0  0  0  0
  159.6730  207.7770  155.9910 O   0  0  0  0  0  1  0  0  0  0  0  0
  159.7420  209.9320  152.6780 C   0  0  0  0  0  2  0  0  0  0  0  0
  160.9040  210.1760  153.6280 C   0  0  2  0  0  3  0  0  0  0  0  0
  160.6700  208.3020  155.1720 C   0  0  0  0  0  0  0  0  0  0  0  0
  160.8360  208.8910  152.8170 C   0  0  2  0  0  0  0  0  0  0  0  0
  161.9250  207.9990  155.7000 O   0  0  0  0  0  1  0  0  0  0  0  0
  160.5120  209.8030  155.0470 C   0  0  0  0  0  2  0  0  0  0  0  0
  160.5500  207.7400  153.7720 C   0  0  0  0  0  2  0  0  0  0  0  0
  161.5670  209.1510  150.3350 C   0  0  2  0  0  3  0  0  0  0  0  0
  161.6410  207.4170  148.4830 C   0  0  0  0  0  0  0  0  0  0  0  0
  162.2250  208.3590  149.2250 C   0  0  0  0  0  3  0  0  0  0  0  0
  160.3230  207.0380  148.6960 O   0  0  0  0  0  1  0  0  0  0  0  0
  162.4260  206.7460  147.4150 C   0  0  0  0  0  1  0  0  0  0  0  0
  161.5890  210.6600  150.0840 C   0  0  0  0  0  2  0  0  0  0  0  0
  162.3020  210.9750  148.7800 C   0  0  0  0  0  2  0  0  0  0  0  0
  161.1610  212.9270  149.4070 C   0  0  0  0  0  2  0  0  0  0  0  0
  161.9610  212.3180  148.3460 N   0  0  0  0  0  0  0  0  0  0  0  0
  161.1180  212.1710  147.1580 C   0  0  0  0  0  2  0  0  0  0  0  0
  161.8560  214.3070  146.0570 C   0  0  0  0  0  1  0  0  0  0  0  0
  159.9760  214.3400  147.7270 C   0  0  0  0  0  2  0  0  0  0  0  0
  160.6770  213.5380  146.6270 C   0  0  2  0  0  3  0  0  0  0  0  0
  160.7930  214.3550  149.0190 C   0  0  0  0  0  2  0  0  0  0  0  0
  162.4840  207.2930  151.8310 C   0  0  0  0  0  2  0  0  0  0  0  0
  161.3550  206.2700  151.7660 C   0  0  0  0  0  2  0  0  0  0  0  0
  161.7830  205.0490  150.9710 C   0  0  0  0  0  2  0  0  0  0  0  0
  160.7260  203.9500  151.0290 C   0  0  2  0  0  3  0  0  0  0  0  0
  160.8280  203.2820  152.3900 C   0  0  0  0  0  1  0  0  0  0  0  0
  159.7180  201.9870  149.8190 C   0  0  0  0  0  1  0  0  0  0  0  0
  160.9190  202.9190  149.9060 C   0  0  1  0  0  3  0  0  0  0  0  0
  161.2300  202.9250  147.4150 C   0  0  0  0  0  0  0  0  0  0  0  0
  161.1010  203.5890  148.5720 C   0  0  0  0  0  3  0  0  0  0  0  0
  161.3750  203.7050  146.1550 C   0  0  0  0  0  1  0  0  0  0  0  0
  161.1980  201.4280  147.3340 C   0  0  0  0  0  2  0  0  0  0  0  0
  160.8330  200.9760  145.9320 C   0  0  0  0  0  2  0  0  0  0  0  0
  161.0310  199.6020  145.8200 O   0  0  0  0  0  1  0  0  0  0  0  0
  2 25  1  0  0  0  0
  2  1  1  1  0  0  0
  4  7  1  0  0  0  0
  5  4  1  6  0  0  0
  5  9  1  0  0  0  0
  6  8  1  0  0  0  0
  6  3  1  0  0  0  0
  7  2  1  6  0  0  0
  7  5  1  0  0  0  0
  7 10  1  0  0  0  0
  9  6  1  0  0  0  0
 10  6  1  0  0  0  0
 11 13  1  6  0  0  0
 11  2  1  0  0  0  0
 12 14  1  0  0  0  0
 12 13  2  0  0  0  0
 15 12  1  0  0  0  0
 16 11  1  0  0  0  0
 17 16  1  0  0  0  0
 19 17  1  0  0  0  0
 19 18  1  0  0  0  0
 20 19  1  0  0  0  0
 22 24  1  0  0  0  0
 23 21  1  1  0  0  0
 23 20  1  0  0  0  0
 23 22  1  0  0  0  0
 24 18  1  0  0  0  0
 26 25  1  0  0  0  0
 27 28  1  0  0  0  0
 27 26  1  0  0  0  0
 28 29  1  1  0  0  0
 31 30  1  6  0  0  0
 31 28  1  0  0  0  0
 32 33  2  0  0  0  0
 33 31  1  0  0  0  0
 34 32  1  0  0  0  0
 35 32  1  0  0  0  0
 36 35  1  0  0  0  0
 37 36  1  0  0  0  0
M  END
>  <MODEL>
9

>  <REMARK>
 VINA RESULT:      -5.4      2.045      3.805
  Name = 
  14 active torsions:
  status: ('A' for Active; 'I' for Inactive)
    1  A    between atoms: C_1  and  C_5
    2  A    between atoms: C_1  and  C_36
    3  A    between atoms: C_5  and  C_17
    4  A    between atoms: N_6  and  C_31
    5  A    between atoms: C_7  and  C_33
    6  A    between atoms: C_10  and  C_14
    7  A    between atoms: C_10  and  C_20
    8  A    between atoms: C_10  and  C_22
    9  A    between atoms: C_11  and  C_33
   10  A    between atoms: C_14  and  C_31
   11  A    between atoms: C_17  and  C_26
   12  A    between atoms: C_20  and  C_24
   13  A    between atoms: C_20  and  C_29
   14  A    between atoms: C_29  and  C_36
                            x       y       z     vdW  Elec       q    Type
                         _______ _______ _______ _____ _____    ______ ____

>  <TORSDO>
F 14

$$$$
