=
 OpenBabel11062409343D

 34 38  0  0  1  0  0  0  0  0999 V2000
  161.4400  208.4030  153.5390 C   0  0  2  0  0  3  0  0  0  0  0  0
  160.6510  211.4380  151.3660 C   0  0  0  0  0  3  0  0  0  0  0  0
  159.6540  210.7630  153.5550 C   0  0  0  0  0  2  0  0  0  0  0  0
  161.3390  208.4190  156.0470 C   0  0  0  0  0  3  0  0  0  0  0  0
  160.0360  210.0600  157.2600 C   0  0  0  0  0  3  0  0  0  0  0  0
  160.8810  208.9470  157.2580 C   0  0  0  0  0  3  0  0  0  0  0  0
  160.1100  210.1310  154.8390 C   0  0  0  0  0  0  0  0  0  0  0  0
  160.9530  209.0010  154.8340 C   0  0  0  0  0  0  0  0  0  0  0  0
  159.6500  210.6480  156.0530 C   0  0  0  0  0  3  0  0  0  0  0  0
  161.5120  211.2330  150.2780 C   0  0  0  0  0  0  0  0  0  0  0  0
  162.3410  210.1030  150.2660 C   0  0  0  0  0  3  0  0  0  0  0  0
  160.6260  210.5380  152.4340 C   0  0  0  0  0  0  0  0  0  0  0  0
  162.3170  209.1940  151.3250 C   0  0  0  0  0  3  0  0  0  0  0  0
  161.4640  209.4040  152.4130 C   0  0  0  0  0  0  0  0  0  0  0  0
  162.6490  212.1640  148.1530 C   0  0  0  0  0  1  0  0  0  0  0  0
  160.6410  213.0600  149.0370 O   0  0  0  0  0  0  0  0  0  0  0  0
  161.5500  212.1950  149.1590 C   0  0  0  0  0  0  0  0  0  0  0  0
  160.6860  207.1160  153.1750 C   0  0  0  0  0  2  0  0  0  0  0  0
  161.5600  205.8660  153.2140 C   0  0  0  0  0  2  0  0  0  0  0  0
  160.5340  203.3050  149.6070 C   0  0  0  0  0  2  0  0  0  0  0  0
  160.6790  205.9310  150.9020 C   0  0  0  0  0  2  0  0  0  0  0  0
  161.5160  205.5960  146.6170 C   0  0  2  0  0  0  0  0  0  0  0  0
  160.2110  206.0090  146.3340 O   0  0  0  0  0  1  0  0  0  0  0  0
  161.4660  204.3110  147.4460 C   0  0  0  0  0  2  0  0  0  0  0  0
  161.0180  204.5240  148.8710 C   0  0  0  0  0  0  0  0  0  0  0  0
  161.6000  205.1880  151.8560 C   0  0  2  0  0  3  0  0  0  0  0  0
  161.5030  206.9780  148.7200 C   0  0  0  0  0  2  0  0  0  0  0  0
  161.1110  205.7340  149.4790 C   0  0  0  0  0  0  0  0  0  0  0  0
  162.2440  206.6760  147.4190 C   0  0  0  0  0  2  0  0  0  0  0  0
  161.1650  203.7340  151.9960 C   0  0  0  0  0  2  0  0  0  0  0  0
  161.4770  202.9290  150.7420 C   0  0  0  0  0  2  0  0  0  0  0  0
  162.2440  205.3180  145.2990 C   0  0  0  0  0  3  0  0  0  0  0  0
  161.3870  205.4620  144.2050 O   0  0  0  0  0  1  0  0  0  0  0  0
  162.7950  204.0350  145.2960 O   0  0  0  0  0  1  0  0  0  0  0  0
  1 18  1  6  0  0  0
  1  8  1  0  0  0  0
  2 12  1  0  0  0  0
  3  7  1  0  0  0  0
  4  6  1  0  0  0  0
  6  5  2  0  0  0  0
  7  9  2  0  0  0  0
  8  7  1  0  0  0  0
  8  4  2  0  0  0  0
  9  5  1  0  0  0  0
 10  2  2  0  0  0  0
 11 10  1  0  0  0  0
 11 13  2  0  0  0  0
 12  3  1  0  0  0  0
 13 14  1  0  0  0  0
 14 12  2  0  0  0  0
 14  1  1  0  0  0  0
 15 17  1  0  0  0  0
 16 17  2  0  0  0  0
 17 10  1  0  0  0  0
 18 19  1  0  0  0  0
 20 31  1  0  0  0  0
 21 26  1  0  0  0  0
 22 23  1  6  0  0  0
 22 29  1  0  0  0  0
 22 24  1  0  0  0  0
 24 25  1  0  0  0  0
 25 28  2  0  0  0  0
 25 20  1  0  0  0  0
 26 30  1  0  0  0  0
 26 19  1  1  0  0  0
 27 28  1  0  0  0  0
 28 21  1  0  0  0  0
 29 27  1  0  0  0  0
 31 30  1  0  0  0  0
 32 22  1  0  0  0  0
 33 32  1  0  0  0  0
 34 32  1  0  0  0  0
M  END
>  <MODEL>
1

>  <REMARK>
 VINA RESULT:     -10.3      0.000      0.000
  Name = 
  5 active torsions:
  status: ('A' for Active; 'I' for Inactive)
    1  A    between atoms: C_1  and  C_9
    2  A    between atoms: C_7  and  C_11
    3  A    between atoms: C_8  and  C_9
    4  A    between atoms: C_8  and  C_18
    5  A    between atoms: C_23  and  C_25
                            x       y       z     vdW  Elec       q    Type
                         _______ _______ _______ _____ _____    ______ ____

>  <TORSDO>
F 5

$$$$
=
 OpenBabel11062409343D

 34 38  0  0  1  0  0  0  0  0999 V2000
  161.6290  206.8400  151.8830 C   0  0  2  0  0  3  0  0  0  0  0  0
  160.8060  204.1050  149.3540 C   0  0  0  0  0  3  0  0  0  0  0  0
  160.5850  206.5830  149.1260 C   0  0  0  0  0  2  0  0  0  0  0  0
  162.4920  209.1100  151.2510 C   0  0  0  0  0  3  0  0  0  0  0  0
  162.1660  210.0260  149.0330 C   0  0  0  0  0  3  0  0  0  0  0  0
  162.6640  210.1520  150.3330 C   0  0  0  0  0  3  0  0  0  0  0  0
  161.3320  207.8120  149.5570 C   0  0  0  0  0  0  0  0  0  0  0  0
  161.8230  207.9410  150.8730 C   0  0  0  0  0  0  0  0  0  0  0  0
  161.5000  208.8600  148.6480 C   0  0  0  0  0  3  0  0  0  0  0  0
  161.1170  202.9480  150.0830 C   0  0  0  0  0  0  0  0  0  0  0  0
  161.5920  203.0740  151.3950 C   0  0  0  0  0  3  0  0  0  0  0  0
  160.9780  205.3710  149.9180 C   0  0  0  0  0  0  0  0  0  0  0  0
  161.7600  204.3350  151.9700 C   0  0  0  0  0  3  0  0  0  0  0  0
  161.4570  205.4880  151.2390 C   0  0  0  0  0  0  0  0  0  0  0  0
  160.8820  201.4390  147.9990 C   0  0  0  0  0  1  0  0  0  0  0  0
  160.8700  200.5910  150.2120 O   0  0  0  0  0  0  0  0  0  0  0  0
  160.9510  201.6120  149.4780 C   0  0  0  0  0  0  0  0  0  0  0  0
  160.5170  207.1650  152.8890 C   0  0  0  0  0  2  0  0  0  0  0  0
  160.9830  207.1390  154.3420 C   0  0  0  0  0  2  0  0  0  0  0  0
  160.9660  211.0270  156.6880 C   0  0  0  0  0  2  0  0  0  0  0  0
  160.6650  209.5860  154.1530 C   0  0  0  0  0  2  0  0  0  0  0  0
  158.1230  213.0570  154.9700 C   0  0  2  0  0  0  0  0  0  0  0  0
  158.9770  213.8570  154.2050 O   0  0  0  0  0  1  0  0  0  0  0  0
  158.9120  212.4510  156.1320 C   0  0  0  0  0  2  0  0  0  0  0  0
  159.8710  211.3630  155.7130 C   0  0  0  0  0  0  0  0  0  0  0  0
  160.5330  208.3880  155.0800 C   0  0  2  0  0  3  0  0  0  0  0  0
  158.6810  211.0720  153.5270 C   0  0  0  0  0  2  0  0  0  0  0  0
  159.7160  210.6770  154.5520 C   0  0  0  0  0  0  0  0  0  0  0  0
  157.5570  211.9260  154.1100 C   0  0  0  0  0  2  0  0  0  0  0  0
  161.3860  208.5810  156.3280 C   0  0  0  0  0  2  0  0  0  0  0  0
  160.7910  209.6270  157.2610 C   0  0  0  0  0  2  0  0  0  0  0  0
  156.9950  213.9300  155.5280 C   0  0  0  0  0  3  0  0  0  0  0  0
  156.7410  213.6360  156.8700 O   0  0  0  0  0  1  0  0  0  0  0  0
  155.8240  213.7650  154.7840 O   0  0  0  0  0  1  0  0  0  0  0  0
  1 18  1  6  0  0  0
  2 12  2  0  0  0  0
  2 10  1  0  0  0  0
  3  7  1  0  0  0  0
  3 12  1  0  0  0  0
  5  6  1  0  0  0  0
  6  4  2  0  0  0  0
  7  8  2  0  0  0  0
  8  4  1  0  0  0  0
  8  1  1  0  0  0  0
  9  5  2  0  0  0  0
  9  7  1  0  0  0  0
 10 11  2  0  0  0  0
 11 13  1  0  0  0  0
 12 14  1  0  0  0  0
 14  1  1  0  0  0  0
 14 13  2  0  0  0  0
 15 17  1  0  0  0  0
 17 10  1  0  0  0  0
 17 16  2  0  0  0  0
 18 19  1  0  0  0  0
 20 31  1  0  0  0  0
 21 28  1  0  0  0  0
 21 26  1  0  0  0  0
 22 23  1  6  0  0  0
 22 32  1  0  0  0  0
 22 24  1  0  0  0  0
 25 24  1  0  0  0  0
 25 20  1  0  0  0  0
 26 19  1  6  0  0  0
 26 30  1  0  0  0  0
 27 29  1  0  0  0  0
 27 28  1  0  0  0  0
 28 25  2  0  0  0  0
 29 22  1  0  0  0  0
 30 31  1  0  0  0  0
 32 33  1  0  0  0  0
 34 32  1  0  0  0  0
M  END
>  <MODEL>
2

>  <REMARK>
 VINA RESULT:      -8.6      2.836      8.784
  Name = 
  5 active torsions:
  status: ('A' for Active; 'I' for Inactive)
    1  A    between atoms: C_1  and  C_9
    2  A    between atoms: C_7  and  C_11
    3  A    between atoms: C_8  and  C_9
    4  A    between atoms: C_8  and  C_18
    5  A    between atoms: C_23  and  C_25
                            x       y       z     vdW  Elec       q    Type
                         _______ _______ _______ _____ _____    ______ ____

>  <TORSDO>
F 5

$$$$
=
 OpenBabel11062409343D

 34 38  0  0  1  0  0  0  0  0999 V2000
  161.3710  210.8930  153.1430 C   0  0  2  0  0  3  0  0  0  0  0  0
  157.8550  212.3460  152.8540 C   0  0  0  0  0  3  0  0  0  0  0  0
  158.7280  210.6330  154.4500 C   0  0  0  0  0  2  0  0  0  0  0  0
  162.4150  210.1900  155.3140 C   0  0  0  0  0  3  0  0  0  0  0  0
  161.0770  209.6590  157.2610 C   0  0  0  0  0  3  0  0  0  0  0  0
  162.3270  209.7820  156.6490 C   0  0  0  0  0  3  0  0  0  0  0  0
  159.9950  210.3620  155.2090 C   0  0  0  0  0  0  0  0  0  0  0  0
  161.2550  210.4760  154.5870 C   0  0  0  0  0  0  0  0  0  0  0  0
  159.9140  209.9460  156.5410 C   0  0  0  0  0  3  0  0  0  0  0  0
  158.0040  213.2200  151.7680 C   0  0  0  0  0  0  0  0  0  0  0  0
  159.2520  213.3240  151.1390 C   0  0  0  0  0  3  0  0  0  0  0  0
  158.9390  211.5970  153.3180 C   0  0  0  0  0  0  0  0  0  0  0  0
  160.3380  212.5720  151.5910 C   0  0  0  0  0  3  0  0  0  0  0  0
  160.1910  211.7080  152.6800 C   0  0  0  0  0  0  0  0  0  0  0  0
  156.7230  214.3870  149.8510 C   0  0  0  0  0  1  0  0  0  0  0  0
  155.9800  214.4150  152.1010 O   0  0  0  0  0  0  0  0  0  0  0  0
  156.8620  214.0250  151.2900 C   0  0  0  0  0  0  0  0  0  0  0  0
  161.6720  209.7050  152.2180 C   0  0  0  0  0  2  0  0  0  0  0  0
  161.7350  208.3660  152.9470 C   0  0  0  0  0  2  0  0  0  0  0  0
  160.4670  204.6650  150.6410 C   0  0  0  0  0  2  0  0  0  0  0  0
  160.7910  207.5750  150.8010 C   0  0  0  0  0  2  0  0  0  0  0  0
  161.4810  205.5390  146.9860 C   0  0  2  0  0  0  0  0  0  0  0  0
  160.1930  205.8870  146.5720 O   0  0  0  0  0  1  0  0  0  0  0  0
  161.3870  204.6860  148.2520 C   0  0  0  0  0  2  0  0  0  0  0  0
  160.9940  205.4670  149.4830 C   0  0  0  0  0  0  0  0  0  0  0  0
  161.6990  207.2090  151.9640 C   0  0  2  0  0  3  0  0  0  0  0  0
  161.6050  207.6310  148.3790 C   0  0  0  0  0  2  0  0  0  0  0  0
  161.1690  206.8110  149.5670 C   0  0  0  0  0  0  0  0  0  0  0  0
  162.2890  206.8000  147.2950 C   0  0  0  0  0  2  0  0  0  0  0  0
  161.1910  205.9550  152.6660 C   0  0  0  0  0  2  0  0  0  0  0  0
  161.4220  204.7070  151.8270 C   0  0  0  0  0  2  0  0  0  0  0  0
  162.1540  204.7230  145.8780 C   0  0  0  0  0  3  0  0  0  0  0  0
  161.6660  203.4150  145.8420 O   0  0  0  0  0  1  0  0  0  0  0  0
  163.5400  204.7010  146.0480 O   0  0  0  0  0  1  0  0  0  0  0  0
  1 18  1  6  0  0  0
  1  8  1  0  0  0  0
  2 12  1  0  0  0  0
  3  7  1  0  0  0  0
  4  6  1  0  0  0  0
  6  5  2  0  0  0  0
  7  9  2  0  0  0  0
  8  7  1  0  0  0  0
  8  4  2  0  0  0  0
  9  5  1  0  0  0  0
 10  2  2  0  0  0  0
 11 13  2  0  0  0  0
 11 10  1  0  0  0  0
 12  3  1  0  0  0  0
 13 14  1  0  0  0  0
 14  1  1  0  0  0  0
 14 12  2  0  0  0  0
 15 17  1  0  0  0  0
 17 10  1  0  0  0  0
 17 16  2  0  0  0  0
 18 19  1  0  0  0  0
 20 31  1  0  0  0  0
 21 26  1  0  0  0  0
 22 23  1  6  0  0  0
 22 29  1  0  0  0  0
 22 24  1  0  0  0  0
 24 25  1  0  0  0  0
 25 28  2  0  0  0  0
 25 20  1  0  0  0  0
 26 30  1  0  0  0  0
 26 19  1  1  0  0  0
 27 28  1  0  0  0  0
 28 21  1  0  0  0  0
 29 27  1  0  0  0  0
 31 30  1  0  0  0  0
 32 34  1  0  0  0  0
 32 22  1  0  0  0  0
 33 32  1  0  0  0  0
M  END
>  <MODEL>
3

>  <REMARK>
 VINA RESULT:      -8.2      1.987      2.718
  Name = 
  5 active torsions:
  status: ('A' for Active; 'I' for Inactive)
    1  A    between atoms: C_1  and  C_9
    2  A    between atoms: C_7  and  C_11
    3  A    between atoms: C_8  and  C_9
    4  A    between atoms: C_8  and  C_18
    5  A    between atoms: C_23  and  C_25
                            x       y       z     vdW  Elec       q    Type
                         _______ _______ _______ _____ _____    ______ ____

>  <TORSDO>
F 5

$$$$
=
 OpenBabel11062409343D

 34 38  0  0  1  0  0  0  0  0999 V2000
  161.3110  207.2110  150.9880 C   0  0  2  0  0  3  0  0  0  0  0  0
  162.3880  209.6490  148.2580 C   0  0  0  0  0  3  0  0  0  0  0  0
  162.5840  207.1590  148.3180 C   0  0  0  0  0  2  0  0  0  0  0  0
  160.4650  204.8920  150.5330 C   0  0  0  0  0  3  0  0  0  0  0  0
  160.9570  203.7390  148.4620 C   0  0  0  0  0  3  0  0  0  0  0  0
  160.3520  203.7590  149.7210 C   0  0  0  0  0  3  0  0  0  0  0  0
  161.7830  205.9900  148.8130 C   0  0  0  0  0  0  0  0  0  0  0  0
  161.1830  206.0080  150.0890 C   0  0  0  0  0  0  0  0  0  0  0  0
  161.6730  204.8510  148.0110 C   0  0  0  0  0  3  0  0  0  0  0  0
  162.0370  210.8800  148.8300 C   0  0  0  0  0  0  0  0  0  0  0  0
  161.4530  210.9010  150.1040 C   0  0  0  0  0  3  0  0  0  0  0  0
  162.1470  208.4530  148.9390 C   0  0  0  0  0  0  0  0  0  0  0  0
  161.2160  209.7110  150.7950 C   0  0  0  0  0  3  0  0  0  0  0  0
  161.5590  208.4830  150.2200 C   0  0  0  0  0  0  0  0  0  0  0  0
  161.1410  212.9760  147.6150 C   0  0  0  0  0  1  0  0  0  0  0  0
  163.4530  212.5340  147.8850 O   0  0  0  0  0  0  0  0  0  0  0  0
  162.2750  212.1410  148.1020 C   0  0  0  0  0  0  0  0  0  0  0  0
  162.3310  206.9880  152.1140 C   0  0  0  0  0  2  0  0  0  0  0  0
  161.7620  206.2310  153.3100 C   0  0  0  0  0  2  0  0  0  0  0  0
  160.1120  208.6830  156.7580 C   0  0  0  0  0  2  0  0  0  0  0  0
  161.4860  208.5350  154.1720 C   0  0  0  0  0  2  0  0  0  0  0  0
  158.7770  211.8790  154.9800 C   0  0  2  0  0  0  0  0  0  0  0  0
  159.8720  212.6810  155.3110 O   0  0  0  0  0  1  0  0  0  0  0  0
  158.7360  210.6740  155.9200 C   0  0  0  0  0  2  0  0  0  0  0  0
  159.8120  209.6520  155.6470 C   0  0  0  0  0  0  0  0  0  0  0  0
  160.8890  207.1370  154.1610 C   0  0  2  0  0  3  0  0  0  0  0  0
  160.2040  210.5900  153.3570 C   0  0  0  0  0  2  0  0  0  0  0  0
  160.4290  209.5650  154.4400 C   0  0  0  0  0  0  0  0  0  0  0  0
  158.9100  211.3810  153.5400 C   0  0  0  0  0  2  0  0  0  0  0  0
  160.8010  206.5810  155.5780 C   0  0  0  0  0  2  0  0  0  0  0  0
  159.7060  207.2640  156.3840 C   0  0  0  0  0  2  0  0  0  0  0  0
  157.4940  212.6970  155.1530 C   0  0  0  0  0  3  0  0  0  0  0  0
  156.5100  211.9650  155.8230 O   0  0  0  0  0  1  0  0  0  0  0  0
  157.0020  213.1190  153.9150 O   0  0  0  0  0  1  0  0  0  0  0  0
  1 18  1  1  0  0  0
  2 10  2  0  0  0  0
  2 12  1  0  0  0  0
  3  7  1  0  0  0  0
  3 12  1  0  0  0  0
  5  6  1  0  0  0  0
  6  4  2  0  0  0  0
  7  8  2  0  0  0  0
  8  4  1  0  0  0  0
  8  1  1  0  0  0  0
  9  5  2  0  0  0  0
  9  7  1  0  0  0  0
 10 11  1  0  0  0  0
 11 13  2  0  0  0  0
 12 14  2  0  0  0  0
 14 13  1  0  0  0  0
 14  1  1  0  0  0  0
 15 17  1  0  0  0  0
 16 17  2  0  0  0  0
 17 10  1  0  0  0  0
 18 19  1  0  0  0  0
 21 28  1  0  0  0  0
 22 32  1  0  0  0  0
 22 23  1  1  0  0  0
 22 24  1  0  0  0  0
 25 24  1  0  0  0  0
 25 20  1  0  0  0  0
 26 19  1  6  0  0  0
 26 21  1  0  0  0  0
 26 30  1  0  0  0  0
 27 29  1  0  0  0  0
 27 28  1  0  0  0  0
 28 25  2  0  0  0  0
 29 22  1  0  0  0  0
 30 31  1  0  0  0  0
 31 20  1  0  0  0  0
 32 33  1  0  0  0  0
 34 32  1  0  0  0  0
M  END
>  <MODEL>
4

>  <REMARK>
 VINA RESULT:      -7.7      2.759      7.452
  Name = 
  5 active torsions:
  status: ('A' for Active; 'I' for Inactive)
    1  A    between atoms: C_1  and  C_9
    2  A    between atoms: C_7  and  C_11
    3  A    between atoms: C_8  and  C_9
    4  A    between atoms: C_8  and  C_18
    5  A    between atoms: C_23  and  C_25
                            x       y       z     vdW  Elec       q    Type
                         _______ _______ _______ _____ _____    ______ ____

>  <TORSDO>
F 5

$$$$
