=
 OpenBabel11062407423D

 34 39  0  0  1  0  0  0  0  0999 V2000
  161.2840  209.9380  156.2880 C   0  0  0  0  0  0  0  0  0  0  0  0
  160.9740  208.0760  154.7500 C   0  0  0  0  0  0  0  0  0  0  0  0
  160.6730  210.4590  153.9830 C   0  0  0  0  0  0  0  0  0  0  0  0
  160.6040  211.2720  151.6610 N   0  0  0  0  0  0  0  0  0  0  0  0
  161.8570  207.6940  156.9800 C   0  0  0  0  0  3  0  0  0  0  0  0
  161.4370  207.2080  155.7440 C   0  0  0  0  0  3  0  0  0  0  0  0
  161.6200  209.3010  151.8750 C   0  0  0  0  0  3  0  0  0  0  0  0
  160.9880  209.4820  154.9720 C   0  0  0  0  0  0  0  0  0  0  0  0
  161.0800  210.9650  150.4460 C   0  0  0  0  0  3  0  0  0  0  0  0
  161.7520  209.0530  157.2610 C   0  0  0  0  0  3  0  0  0  0  0  0
  160.3510  211.7760  154.3930 C   0  0  0  0  0  0  0  0  0  0  0  0
  161.0720  211.2690  156.6430 C   0  0  0  0  0  3  0  0  0  0  0  0
  160.0960  207.3060  153.4330 Cl  0  0  0  0  0  0  0  0  0  0  0  0
  160.1210  212.5270  152.0500 N   0  0  0  0  0  2  0  0  0  0  0  0
  159.7310  212.7760  153.4370 C   0  0  1  0  0  3  0  0  0  0  0  0
  161.6930  209.7340  150.5600 C   0  0  0  0  0  0  0  0  0  0  0  0
  160.8870  210.2830  152.5230 C   0  0  0  0  0  0  0  0  0  0  0  0
  160.5670  212.1700  155.7130 C   0  0  0  0  0  3  0  0  0  0  0  0
  156.1730  211.7490  154.3220 C   0  0  0  0  0  0  0  0  0  0  0  0
  155.4470  212.8220  153.7950 C   0  0  0  0  0  3  0  0  0  0  0  0
  158.2380  212.7750  153.5620 C   0  0  0  0  0  0  0  0  0  0  0  0
  156.1140  213.8700  153.1540 C   0  0  0  0  0  3  0  0  0  0  0  0
  157.5650  211.7250  154.2070 C   0  0  0  0  0  3  0  0  0  0  0  0
  157.5070  213.8470  153.0390 C   0  0  0  0  0  3  0  0  0  0  0  0
  155.5270  210.7340  154.9440 F   0  0  0  0  0  0  0  0  0  0  0  0
  162.3430  208.9920  149.4470 C   0  0  0  0  0  2  0  0  0  0  0  0
  161.3860  208.0680  148.8540 N   0  0  0  0  0  2  0  0  0  0  0  0
  161.6360  206.2740  146.6040 C   0  0  0  0  0  1  0  0  0  0  0  0
  161.4110  206.6540  149.0780 C   0  0  0  0  0  0  0  0  0  0  0  0
  161.5280  205.7540  147.9570 N   0  0  0  0  0  0  0  0  0  0  0  0
  160.7910  203.9000  149.3810 C   0  0  0  0  0  2  0  0  0  0  0  0
  161.3100  204.6830  150.5820 C   0  0  0  0  0  2  0  0  0  0  0  0
  161.2630  206.1590  150.3150 C   0  0  0  0  0  3  0  0  0  0  0  0
  161.5890  204.3050  148.1470 C   0  0  0  0  0  2  0  0  0  0  0  0
  1 12  1  0  0  0  0
  1 10  2  0  0  0  0
  2  8  2  0  0  0  0
  2  6  1  0  0  0  0
  3 11  2  0  0  0  0
  3  8  1  0  0  0  0
  4 14  1  0  0  0  0
  4 17  1  0  0  0  0
  5 10  1  0  0  0  0
  6  5  2  0  0  0  0
  7 17  2  0  0  0  0
  8  1  1  0  0  0  0
  9 16  2  0  0  0  0
  9  4  1  0  0  0  0
 11 18  1  0  0  0  0
 13  2  1  0  0  0  0
 14 15  1  0  0  0  0
 15 21  1  6  0  0  0
 15 11  1  0  0  0  0
 16  7  1  0  0  0  0
 17  3  1  0  0  0  0
 18 12  2  0  0  0  0
 19 25  1  0  0  0  0
 20 19  2  0  0  0  0
 21 23  2  0  0  0  0
 22 20  1  0  0  0  0
 23 19  1  0  0  0  0
 24 22  2  0  0  0  0
 24 21  1  0  0  0  0
 26 16  1  0  0  0  0
 27 29  1  0  0  0  0
 27 26  1  0  0  0  0
 28 30  1  0  0  0  0
 29 33  2  0  0  0  0
 30 34  1  0  0  0  0
 30 29  1  0  0  0  0
 31 32  1  0  0  0  0
 33 32  1  0  0  0  0
 34 31  1  0  0  0  0
M  END
>  <MODEL>
1

>  <REMARK>
 VINA RESULT:      -6.1      0.000      0.000
  Name = 
  4 active torsions:
  status: ('A' for Active; 'I' for Inactive)
    1  A    between atoms: N_3  and  C_13
    2  A    between atoms: N_3  and  C_17
    3  A    between atoms: C_12  and  C_28
    4  A    between atoms: C_17  and  C_29
                            x       y       z     vdW  Elec       q    Type
                         _______ _______ _______ _____ _____    ______ ____

>  <TORSDO>
F 4

$$$$
=
 OpenBabel11062407423D

 34 39  0  0  1  0  0  0  0  0999 V2000
  159.2310  212.7500  151.1910 C   0  0  0  0  0  0  0  0  0  0  0  0
  161.2150  211.8940  150.0690 C   0  0  0  0  0  0  0  0  0  0  0  0
  160.3180  210.7850  152.1480 C   0  0  0  0  0  0  0  0  0  0  0  0
  160.8690  208.5380  152.9870 N   0  0  0  0  0  0  0  0  0  0  0  0
  159.8940  213.6600  149.0520 C   0  0  0  0  0  3  0  0  0  0  0  0
  160.9980  212.8110  149.0350 C   0  0  0  0  0  3  0  0  0  0  0  0
  161.2730  208.7910  150.8100 C   0  0  0  0  0  3  0  0  0  0  0  0
  160.2680  211.7770  151.1240 C   0  0  0  0  0  0  0  0  0  0  0  0
  161.2510  207.3350  152.5370 C   0  0  0  0  0  3  0  0  0  0  0  0
  159.0290  213.6500  150.1430 C   0  0  0  0  0  3  0  0  0  0  0  0
  159.5700  210.9820  153.3350 C   0  0  0  0  0  0  0  0  0  0  0  0
  158.4250  212.8540  152.3230 C   0  0  0  0  0  3  0  0  0  0  0  0
  162.8340  211.2060  150.1320 Cl  0  0  0  0  0  0  0  0  0  0  0  0
  160.2770  208.7900  154.2290 N   0  0  0  0  0  2  0  0  0  0  0  0
  159.7990  210.1300  154.5670 C   0  0  1  0  0  3  0  0  0  0  0  0
  161.5260  207.4830  151.1920 C   0  0  0  0  0  0  0  0  0  0  0  0
  160.9020  209.4300  151.9830 C   0  0  0  0  0  0  0  0  0  0  0  0
  158.6230  212.0030  153.4040 C   0  0  0  0  0  3  0  0  0  0  0  0
  162.9970  211.1110  156.3840 C   0  0  0  0  0  0  0  0  0  0  0  0
  162.5170  212.0880  157.2610 C   0  0  0  0  0  3  0  0  0  0  0  0
  160.7560  210.7980  155.5060 C   0  0  0  0  0  0  0  0  0  0  0  0
  161.1600  212.4220  157.2600 C   0  0  0  0  0  3  0  0  0  0  0  0
  162.1200  210.4670  155.5080 C   0  0  0  0  0  3  0  0  0  0  0  0
  160.2810  211.7790  156.3840 C   0  0  0  0  0  3  0  0  0  0  0  0
  164.3130  210.7880  156.3840 F   0  0  0  0  0  0  0  0  0  0  0  0
  162.0070  206.4030  150.2900 C   0  0  0  0  0  2  0  0  0  0  0  0
  160.8720  205.6280  149.8090 N   0  0  0  0  0  2  0  0  0  0  0  0
  161.3540  204.6750  147.1260 C   0  0  0  0  0  1  0  0  0  0  0  0
  160.9290  204.2180  149.5600 C   0  0  0  0  0  0  0  0  0  0  0  0
  161.1610  203.7380  148.2200 N   0  0  0  0  0  0  0  0  0  0  0  0
  160.3810  201.5130  148.8940 C   0  0  0  0  0  2  0  0  0  0  0  0
  160.7800  201.8620  150.3230 C   0  0  0  0  0  2  0  0  0  0  0  0
  160.7030  203.3430  150.5510 C   0  0  0  0  0  3  0  0  0  0  0  0
  161.2560  202.3080  147.9310 C   0  0  0  0  0  2  0  0  0  0  0  0
  1 12  1  0  0  0  0
  2 13  1  0  0  0  0
  2  8  1  0  0  0  0
  3 11  2  0  0  0  0
  4 14  1  0  0  0  0
  5 10  2  0  0  0  0
  6  5  1  0  0  0  0
  6  2  2  0  0  0  0
  7 16  1  0  0  0  0
  7 17  2  0  0  0  0
  8  1  2  0  0  0  0
  8  3  1  0  0  0  0
  9  4  1  0  0  0  0
 10  1  1  0  0  0  0
 11 18  1  0  0  0  0
 11 15  1  0  0  0  0
 12 18  2  0  0  0  0
 14 15  1  0  0  0  0
 15 21  1  1  0  0  0
 16  9  2  0  0  0  0
 17  3  1  0  0  0  0
 17  4  1  0  0  0  0
 19 20  1  0  0  0  0
 21 23  1  0  0  0  0
 21 24  2  0  0  0  0
 22 20  2  0  0  0  0
 23 19  2  0  0  0  0
 24 22  1  0  0  0  0
 25 19  1  0  0  0  0
 26 16  1  0  0  0  0
 27 26  1  0  0  0  0
 28 30  1  0  0  0  0
 29 27  1  0  0  0  0
 29 33  2  0  0  0  0
 30 29  1  0  0  0  0
 31 32  1  0  0  0  0
 32 33  1  0  0  0  0
 34 30  1  0  0  0  0
 34 31  1  0  0  0  0
M  END
>  <MODEL>
2

>  <REMARK>
 VINA RESULT:      -6.1      2.638      4.988
  Name = 
  4 active torsions:
  status: ('A' for Active; 'I' for Inactive)
    1  A    between atoms: N_3  and  C_13
    2  A    between atoms: N_3  and  C_17
    3  A    between atoms: C_12  and  C_28
    4  A    between atoms: C_17  and  C_29
                            x       y       z     vdW  Elec       q    Type
                         _______ _______ _______ _____ _____    ______ ____

>  <TORSDO>
F 4

$$$$
=
 OpenBabel11062407423D

 34 39  0  0  1  0  0  0  0  0999 V2000
  161.8920  212.9780  147.3330 C   0  0  0  0  0  0  0  0  0  0  0  0
  159.5350  213.4070  147.7610 C   0  0  0  0  0  0  0  0  0  0  0  0
  160.9430  212.1240  149.4130 C   0  0  0  0  0  0  0  0  0  0  0  0
  160.4030  211.6430  151.7650 N   0  0  0  0  0  0  0  0  0  0  0  0
  160.6490  214.4470  145.8720 C   0  0  0  0  0  3  0  0  0  0  0  0
  159.5000  214.2210  146.6250 C   0  0  0  0  0  3  0  0  0  0  0  0
  159.2870  213.3880  150.9420 C   0  0  0  0  0  3  0  0  0  0  0  0
  160.7690  212.8490  148.1970 C   0  0  0  0  0  0  0  0  0  0  0  0
  159.7110  212.1590  152.7900 C   0  0  0  0  0  3  0  0  0  0  0  0
  161.8360  213.8030  146.2080 C   0  0  0  0  0  3  0  0  0  0  0  0
  162.0880  211.3040  149.5680 C   0  0  0  0  0  0  0  0  0  0  0  0
  163.0570  212.2490  147.5670 C   0  0  0  0  0  3  0  0  0  0  0  0
  157.9630  212.8760  148.3510 Cl  0  0  0  0  0  0  0  0  0  0  0  0
  161.4320  210.7010  151.8730 N   0  0  0  0  0  2  0  0  0  0  0  0
  162.1930  210.2930  150.6930 C   0  0  1  0  0  3  0  0  0  0  0  0
  158.9970  213.2290  152.2890 C   0  0  0  0  0  0  0  0  0  0  0  0
  160.1440  212.3390  150.6470 C   0  0  0  0  0  0  0  0  0  0  0  0
  163.1370  211.3860  148.6530 C   0  0  0  0  0  3  0  0  0  0  0  0
  161.4990  207.2620  148.4950 C   0  0  0  0  0  0  0  0  0  0  0  0
  160.9230  206.3880  149.4210 C   0  0  0  0  0  3  0  0  0  0  0  0
  161.7470  208.9380  150.2340 C   0  0  0  0  0  0  0  0  0  0  0  0
  160.7600  206.7860  150.7510 C   0  0  0  0  0  3  0  0  0  0  0  0
  161.9110  208.5350  148.8990 C   0  0  0  0  0  3  0  0  0  0  0  0
  161.1720  208.0580  151.1570 C   0  0  0  0  0  3  0  0  0  0  0  0
  161.6580  206.8770  147.2060 F   0  0  0  0  0  0  0  0  0  0  0  0
  158.0690  214.0860  153.0730 C   0  0  0  0  0  2  0  0  0  0  0  0
  156.9420  213.2880  153.5360 N   0  0  0  0  0  2  0  0  0  0  0  0
  157.7300  211.3140  155.4910 C   0  0  0  0  0  1  0  0  0  0  0  0
  156.4150  213.3620  154.8660 C   0  0  0  0  0  0  0  0  0  0  0  0
  156.8000  212.3740  155.8430 N   0  0  0  0  0  0  0  0  0  0  0  0
  154.9180  213.0560  157.2580 C   0  0  0  0  0  2  0  0  0  0  0  0
  154.9700  214.4210  156.5820 C   0  0  0  0  0  2  0  0  0  0  0  0
  155.5190  214.3060  155.1900 C   0  0  0  0  0  3  0  0  0  0  0  0
  156.3090  212.4340  157.2190 C   0  0  0  0  0  2  0  0  0  0  0  0
  1 12  2  0  0  0  0
  1  8  1  0  0  0  0
  2  8  1  0  0  0  0
  2 13  1  0  0  0  0
  3 11  1  0  0  0  0
  3 17  1  0  0  0  0
  4 14  1  0  0  0  0
  4  9  1  0  0  0  0
  5 10  2  0  0  0  0
  5  6  1  0  0  0  0
  6  2  2  0  0  0  0
  7 16  1  0  0  0  0
  8  3  2  0  0  0  0
 10  1  1  0  0  0  0
 11 15  1  0  0  0  0
 12 18  1  0  0  0  0
 15 21  1  6  0  0  0
 15 14  1  0  0  0  0
 16  9  2  0  0  0  0
 16 26  1  0  0  0  0
 17  7  2  0  0  0  0
 17  4  1  0  0  0  0
 18 11  2  0  0  0  0
 19 23  2  0  0  0  0
 19 20  1  0  0  0  0
 20 22  2  0  0  0  0
 21 24  2  0  0  0  0
 22 24  1  0  0  0  0
 23 21  1  0  0  0  0
 25 19  1  0  0  0  0
 26 27  1  0  0  0  0
 27 29  1  0  0  0  0
 28 30  1  0  0  0  0
 29 33  2  0  0  0  0
 29 30  1  0  0  0  0
 30 34  1  0  0  0  0
 32 31  1  0  0  0  0
 33 32  1  0  0  0  0
 34 31  1  0  0  0  0
M  END
>  <MODEL>
3

>  <REMARK>
 VINA RESULT:      -5.8      3.546      8.843
  Name = 
  4 active torsions:
  status: ('A' for Active; 'I' for Inactive)
    1  A    between atoms: N_3  and  C_13
    2  A    between atoms: N_3  and  C_17
    3  A    between atoms: C_12  and  C_28
    4  A    between atoms: C_17  and  C_29
                            x       y       z     vdW  Elec       q    Type
                         _______ _______ _______ _____ _____    ______ ____

>  <TORSDO>
F 4

$$$$
=
 OpenBabel11062407423D

 34 39  0  0  1  0  0  0  0  0999 V2000
  161.2030  212.5820  149.4460 C   0  0  0  0  0  0  0  0  0  0  0  0
  159.2980  212.7280  150.9540 C   0  0  0  0  0  0  0  0  0  0  0  0
  161.0690  210.9610  151.2670 C   0  0  0  0  0  0  0  0  0  0  0  0
  161.4650  209.5950  153.2750 N   0  0  0  0  0  0  0  0  0  0  0  0
  159.6820  214.4530  149.2900 C   0  0  0  0  0  3  0  0  0  0  0  0
  158.9150  213.9140  150.3190 C   0  0  0  0  0  3  0  0  0  0  0  0
  160.3530  211.4810  153.6950 C   0  0  0  0  0  3  0  0  0  0  0  0
  160.5170  212.0900  150.5930 C   0  0  0  0  0  0  0  0  0  0  0  0
  161.3190  209.6530  154.6060 C   0  0  0  0  0  3  0  0  0  0  0  0
  160.8070  213.7720  148.8350 C   0  0  0  0  0  3  0  0  0  0  0  0
  162.0600  210.1860  150.6150 C   0  0  0  0  0  0  0  0  0  0  0  0
  162.2560  211.8620  148.8850 C   0  0  0  0  0  3  0  0  0  0  0  0
  158.0420  211.9550  151.9160 Cl  0  0  0  0  0  0  0  0  0  0  0  0
  162.3160  208.7220  152.5890 N   0  0  0  0  0  2  0  0  0  0  0  0
  162.4750  208.8260  151.1390 C   0  0  1  0  0  3  0  0  0  0  0  0
  160.6120  210.8070  154.8790 C   0  0  0  0  0  0  0  0  0  0  0  0
  160.8710  210.6580  152.7070 C   0  0  0  0  0  0  0  0  0  0  0  0
  162.6520  210.6510  149.4410 C   0  0  0  0  0  3  0  0  0  0  0  0
  160.8140  206.7080  148.4450 C   0  0  0  0  0  0  0  0  0  0  0  0
  160.2870  205.6660  149.2130 C   0  0  0  0  0  3  0  0  0  0  0  0
  161.7080  207.7360  150.4560 C   0  0  0  0  0  0  0  0  0  0  0  0
  160.4690  205.6560  150.5990 C   0  0  0  0  0  3  0  0  0  0  0  0
  161.5240  207.7410  149.0640 C   0  0  0  0  0  3  0  0  0  0  0  0
  161.1790  206.6890  151.2190 C   0  0  0  0  0  3  0  0  0  0  0  0
  160.6380  206.7180  147.1020 F   0  0  0  0  0  0  0  0  0  0  0  0
  160.2010  211.2630  156.2330 C   0  0  0  0  0  2  0  0  0  0  0  0
  159.4800  212.5230  156.1250 N   0  0  0  0  0  2  0  0  0  0  0  0
  158.2530  214.4500  154.3570 C   0  0  0  0  0  1  0  0  0  0  0  0
  158.0520  212.6120  156.0590 C   0  0  0  0  0  0  0  0  0  0  0  0
  157.4350  213.5780  155.1830 N   0  0  0  0  0  0  0  0  0  0  0  0
  155.3150  213.2950  156.3820 C   0  0  0  0  0  2  0  0  0  0  0  0
  155.7880  211.9030  156.7860 C   0  0  0  0  0  2  0  0  0  0  0  0
  157.2860  211.8480  156.8520 C   0  0  0  0  0  3  0  0  0  0  0  0
  155.9810  213.6780  155.0650 C   0  0  0  0  0  2  0  0  0  0  0  0
  1  8  1  0  0  0  0
  2 13  1  0  0  0  0
  3 17  1  0  0  0  0
  4  9  1  0  0  0  0
  5  6  1  0  0  0  0
  6  2  2  0  0  0  0
  7 16  1  0  0  0  0
  8  2  1  0  0  0  0
  8  3  2  0  0  0  0
  9 16  2  0  0  0  0
 10  5  2  0  0  0  0
 10  1  1  0  0  0  0
 11 15  1  0  0  0  0
 11  3  1  0  0  0  0
 12 18  1  0  0  0  0
 12  1  2  0  0  0  0
 14  4  1  0  0  0  0
 15 21  1  6  0  0  0
 15 14  1  0  0  0  0
 16 26  1  0  0  0  0
 17  4  1  0  0  0  0
 17  7  2  0  0  0  0
 18 11  2  0  0  0  0
 19 23  2  0  0  0  0
 19 20  1  0  0  0  0
 20 22  2  0  0  0  0
 21 24  2  0  0  0  0
 22 24  1  0  0  0  0
 23 21  1  0  0  0  0
 25 19  1  0  0  0  0
 27 26  1  0  0  0  0
 28 30  1  0  0  0  0
 29 27  1  0  0  0  0
 29 33  2  0  0  0  0
 30 29  1  0  0  0  0
 31 32  1  0  0  0  0
 32 33  1  0  0  0  0
 34 30  1  0  0  0  0
 34 31  1  0  0  0  0
M  END
>  <MODEL>
4

>  <REMARK>
 VINA RESULT:      -5.5      2.882      8.154
  Name = 
  4 active torsions:
  status: ('A' for Active; 'I' for Inactive)
    1  A    between atoms: N_3  and  C_13
    2  A    between atoms: N_3  and  C_17
    3  A    between atoms: C_12  and  C_28
    4  A    between atoms: C_17  and  C_29
                            x       y       z     vdW  Elec       q    Type
                         _______ _______ _______ _____ _____    ______ ____

>  <TORSDO>
F 4

$$$$
=
 OpenBabel11062407423D

 34 39  0  0  1  0  0  0  0  0999 V2000
  161.4330  209.2280  156.1240 C   0  0  0  0  0  0  0  0  0  0  0  0
  160.7000  207.2720  154.8730 C   0  0  0  0  0  0  0  0  0  0  0  0
  161.0870  209.4810  153.7210 C   0  0  0  0  0  0  0  0  0  0  0  0
  161.3410  209.8680  151.3040 N   0  0  0  0  0  0  0  0  0  0  0  0
  161.3470  207.0680  157.2050 C   0  0  0  0  0  3  0  0  0  0  0  0
  160.8660  206.5000  156.0280 C   0  0  0  0  0  3  0  0  0  0  0  0
  161.7770  207.7690  151.9120 C   0  0  0  0  0  3  0  0  0  0  0  0
  161.0830  208.6420  154.8750 C   0  0  0  0  0  0  0  0  0  0  0  0
  161.7690  209.2420  150.1990 C   0  0  0  0  0  3  0  0  0  0  0  0
  161.6020  208.4350  157.2600 C   0  0  0  0  0  3  0  0  0  0  0  0
  161.1150  210.8870  153.8910 C   0  0  0  0  0  0  0  0  0  0  0  0
  161.5720  210.6090  156.2470 C   0  0  0  0  0  3  0  0  0  0  0  0
  159.7040  206.5390  153.6200 Cl  0  0  0  0  0  0  0  0  0  0  0  0
  161.1990  211.2530  151.4480 N   0  0  0  0  0  2  0  0  0  0  0  0
  160.8300  211.8310  152.7400 C   0  0  1  0  0  3  0  0  0  0  0  0
  162.0220  207.9330  150.5570 C   0  0  0  0  0  0  0  0  0  0  0  0
  161.3090  209.0050  152.3310 C   0  0  0  0  0  0  0  0  0  0  0  0
  161.3710  211.4350  155.1470 C   0  0  0  0  0  3  0  0  0  0  0  0
  157.1810  212.2530  153.7410 C   0  0  0  0  0  0  0  0  0  0  0  0
  156.7050  213.0410  152.6880 C   0  0  0  0  0  3  0  0  0  0  0  0
  159.3880  212.2380  152.7310 C   0  0  0  0  0  0  0  0  0  0  0  0
  157.5680  213.4280  151.6590 C   0  0  0  0  0  3  0  0  0  0  0  0
  158.5190  211.8530  153.7640 C   0  0  0  0  0  3  0  0  0  0  0  0
  158.9070  213.0280  151.6810 C   0  0  0  0  0  3  0  0  0  0  0  0
  156.3450  211.8780  154.7390 F   0  0  0  0  0  0  0  0  0  0  0  0
  162.4950  206.8660  149.6350 C   0  0  0  0  0  2  0  0  0  0  0  0
  161.3520  206.1290  149.1160 N   0  0  0  0  0  2  0  0  0  0  0  0
  161.5860  204.4520  146.7760 C   0  0  0  0  0  1  0  0  0  0  0  0
  161.2030  204.7100  149.2460 C   0  0  0  0  0  0  0  0  0  0  0  0
  161.3120  203.8700  148.0790 N   0  0  0  0  0  0  0  0  0  0  0  0
  160.2610  202.0330  149.3180 C   0  0  0  0  0  2  0  0  0  0  0  0
  160.7640  202.6800  150.6040 C   0  0  0  0  0  2  0  0  0  0  0  0
  160.9010  204.1650  150.4330 C   0  0  0  0  0  3  0  0  0  0  0  0
  161.1960  202.4150  148.1760 C   0  0  0  0  0  2  0  0  0  0  0  0
  1 12  1  0  0  0  0
  1 10  2  0  0  0  0
  2  8  2  0  0  0  0
  2  6  1  0  0  0  0
  3 11  2  0  0  0  0
  3  8  1  0  0  0  0
  4 14  1  0  0  0  0
  4 17  1  0  0  0  0
  5 10  1  0  0  0  0
  6  5  2  0  0  0  0
  7 17  2  0  0  0  0
  8  1  1  0  0  0  0
  9 16  2  0  0  0  0
  9  4  1  0  0  0  0
 11 18  1  0  0  0  0
 13  2  1  0  0  0  0
 14 15  1  0  0  0  0
 15 21  1  6  0  0  0
 15 11  1  0  0  0  0
 16  7  1  0  0  0  0
 17  3  1  0  0  0  0
 18 12  2  0  0  0  0
 19 23  1  0  0  0  0
 19 25  1  0  0  0  0
 20 19  2  0  0  0  0
 21 23  2  0  0  0  0
 22 24  2  0  0  0  0
 22 20  1  0  0  0  0
 24 21  1  0  0  0  0
 26 16  1  0  0  0  0
 27 29  1  0  0  0  0
 27 26  1  0  0  0  0
 28 30  1  0  0  0  0
 29 33  2  0  0  0  0
 30 34  1  0  0  0  0
 30 29  1  0  0  0  0
 31 32  1  0  0  0  0
 33 32  1  0  0  0  0
 34 31  1  0  0  0  0
M  END
>  <MODEL>
5

>  <REMARK>
 VINA RESULT:      -5.1      1.227      1.567
  Name = 
  4 active torsions:
  status: ('A' for Active; 'I' for Inactive)
    1  A    between atoms: N_3  and  C_13
    2  A    between atoms: N_3  and  C_17
    3  A    between atoms: C_12  and  C_28
    4  A    between atoms: C_17  and  C_29
                            x       y       z     vdW  Elec       q    Type
                         _______ _______ _______ _____ _____    ______ ____

>  <TORSDO>
F 4

$$$$
=
 OpenBabel11062407423D

 34 39  0  0  1  0  0  0  0  0999 V2000
  160.3500  213.2460  150.0670 C   0  0  0  0  0  0  0  0  0  0  0  0
  162.1990  212.3250  148.7800 C   0  0  0  0  0  0  0  0  0  0  0  0
  161.0780  210.9760  150.5910 C   0  0  0  0  0  0  0  0  0  0  0  0
  161.2360  208.5450  150.9440 N   0  0  0  0  0  0  0  0  0  0  0  0
  161.2090  214.4530  148.1580 C   0  0  0  0  0  3  0  0  0  0  0  0
  162.1620  213.4570  147.9590 C   0  0  0  0  0  3  0  0  0  0  0  0
  161.7350  209.1690  148.8630 C   0  0  0  0  0  3  0  0  0  0  0  0
  161.2170  212.1510  149.7940 C   0  0  0  0  0  0  0  0  0  0  0  0
  161.4310  207.4140  150.2530 C   0  0  0  0  0  3  0  0  0  0  0  0
  160.3250  214.3610  149.2280 C   0  0  0  0  0  3  0  0  0  0  0  0
  160.3390  211.0450  151.7980 C   0  0  0  0  0  0  0  0  0  0  0  0
  159.5400  213.2460  151.2010 C   0  0  0  0  0  3  0  0  0  0  0  0
  163.6840  211.3830  148.6890 Cl  0  0  0  0  0  0  0  0  0  0  0  0
  160.6580  208.6310  152.2160 N   0  0  0  0  0  2  0  0  0  0  0  0
  160.3930  209.9330  152.8260 C   0  0  1  0  0  3  0  0  0  0  0  0
  161.7630  207.7870  148.9660 C   0  0  0  0  0  0  0  0  0  0  0  0
  161.4400  209.6060  150.1460 C   0  0  0  0  0  0  0  0  0  0  0  0
  159.5680  212.1710  152.0820 C   0  0  0  0  0  3  0  0  0  0  0  0
  163.6890  210.7930  154.5260 C   0  0  0  0  0  0  0  0  0  0  0  0
  163.3030  210.8020  155.8690 C   0  0  0  0  0  3  0  0  0  0  0  0
  161.4190  210.2290  153.8760 C   0  0  0  0  0  0  0  0  0  0  0  0
  161.9770  210.5260  156.2170 C   0  0  0  0  0  3  0  0  0  0  0  0
  162.7510  210.5080  153.5310 C   0  0  0  0  0  3  0  0  0  0  0  0
  161.0370  210.2410  155.2220 C   0  0  0  0  0  3  0  0  0  0  0  0
  164.9740  211.0620  154.1880 F   0  0  0  0  0  0  0  0  0  0  0  0
  162.0880  206.8510  147.8570 C   0  0  0  0  0  2  0  0  0  0  0  0
  162.3580  205.5270  148.4010 N   0  0  0  0  0  2  0  0  0  0  0  0
  161.0730  203.7910  150.3180 C   0  0  0  0  0  1  0  0  0  0  0  0
  161.7000  204.3380  147.9470 C   0  0  0  0  0  0  0  0  0  0  0  0
  161.0640  203.4650  148.9010 N   0  0  0  0  0  0  0  0  0  0  0  0
  160.9940  201.6880  147.2130 C   0  0  0  0  0  2  0  0  0  0  0  0
  161.0250  202.7740  146.1430 C   0  0  0  0  0  2  0  0  0  0  0  0
  161.7270  204.0000  146.6500 C   0  0  0  0  0  3  0  0  0  0  0  0
  160.3560  202.2590  148.4740 C   0  0  0  0  0  2  0  0  0  0  0  0
  1 12  1  0  0  0  0
  2  8  1  0  0  0  0
  3 11  2  0  0  0  0
  4 14  1  0  0  0  0
  5 10  2  0  0  0  0
  6  5  1  0  0  0  0
  6  2  2  0  0  0  0
  7 16  1  0  0  0  0
  7 17  2  0  0  0  0
  8  1  2  0  0  0  0
  8  3  1  0  0  0  0
  9  4  1  0  0  0  0
 10  1  1  0  0  0  0
 11 18  1  0  0  0  0
 11 15  1  0  0  0  0
 12 18  2  0  0  0  0
 13  2  1  0  0  0  0
 14 15  1  0  0  0  0
 15 21  1  1  0  0  0
 16  9  2  0  0  0  0
 17  3  1  0  0  0  0
 17  4  1  0  0  0  0
 19 20  1  0  0  0  0
 20 22  2  0  0  0  0
 21 24  2  0  0  0  0
 23 21  1  0  0  0  0
 23 19  2  0  0  0  0
 24 22  1  0  0  0  0
 25 19  1  0  0  0  0
 26 27  1  0  0  0  0
 26 16  1  0  0  0  0
 29 27  1  0  0  0  0
 29 30  1  0  0  0  0
 30 28  1  0  0  0  0
 31 34  1  0  0  0  0
 32 33  1  0  0  0  0
 32 31  1  0  0  0  0
 33 29  2  0  0  0  0
 34 30  1  0  0  0  0
M  END
>  <MODEL>
6

>  <REMARK>
 VINA RESULT:      -4.5      2.949      5.690
  Name = 
  4 active torsions:
  status: ('A' for Active; 'I' for Inactive)
    1  A    between atoms: N_3  and  C_13
    2  A    between atoms: N_3  and  C_17
    3  A    between atoms: C_12  and  C_28
    4  A    between atoms: C_17  and  C_29
                            x       y       z     vdW  Elec       q    Type
                         _______ _______ _______ _____ _____    ______ ____

>  <TORSDO>
F 4

$$$$
=
 OpenBabel11062407423D

 34 39  0  0  1  0  0  0  0  0999 V2000
  161.3770  205.7470  153.0010 C   0  0  0  0  0  0  0  0  0  0  0  0
  160.6530  206.1190  150.7070 C   0  0  0  0  0  0  0  0  0  0  0  0
  161.2140  208.0550  152.2210 C   0  0  0  0  0  0  0  0  0  0  0  0
  161.6570  210.3820  151.5530 N   0  0  0  0  0  0  0  0  0  0  0  0
  161.1240  203.8720  151.4980 C   0  0  0  0  0  3  0  0  0  0  0  0
  160.7050  204.7380  150.4910 C   0  0  0  0  0  3  0  0  0  0  0  0
  161.9590  208.9160  149.9010 C   0  0  0  0  0  3  0  0  0  0  0  0
  161.0930  206.6600  151.9470 C   0  0  0  0  0  0  0  0  0  0  0  0
  162.1350  211.0830  150.5160 C   0  0  0  0  0  3  0  0  0  0  0  0
  161.4310  204.3740  152.7590 C   0  0  0  0  0  3  0  0  0  0  0  0
  161.2890  208.4880  153.5680 C   0  0  0  0  0  0  0  0  0  0  0  0
  161.5650  206.2030  154.3050 C   0  0  0  0  0  3  0  0  0  0  0  0
  159.7200  207.0270  149.5220 Cl  0  0  0  0  0  0  0  0  0  0  0  0
  161.5620  210.8430  152.8710 N   0  0  0  0  0  2  0  0  0  0  0  0
  161.1260  209.9480  153.9420 C   0  0  1  0  0  3  0  0  0  0  0  0
  162.3070  210.1900  149.4780 C   0  0  0  0  0  0  0  0  0  0  0  0
  161.5150  209.0930  151.2020 C   0  0  0  0  0  0  0  0  0  0  0  0
  161.4780  207.5600  154.5920 C   0  0  0  0  0  3  0  0  0  0  0  0
  157.6200  211.4300  153.9570 C   0  0  0  0  0  0  0  0  0  0  0  0
  157.0500  210.7570  155.0410 C   0  0  0  0  0  3  0  0  0  0  0  0
  159.7080  210.2450  154.3190 C   0  0  0  0  0  0  0  0  0  0  0  0
  157.8060  209.8280  155.7630 C   0  0  0  0  0  3  0  0  0  0  0  0
  158.9450  211.1760  153.5950 C   0  0  0  0  0  3  0  0  0  0  0  0
  159.1320  209.5730  155.4020 C   0  0  0  0  0  3  0  0  0  0  0  0
  156.8880  212.3290  153.2560 F   0  0  0  0  0  0  0  0  0  0  0  0
  162.7990  210.5370  148.1180 C   0  0  0  0  0  2  0  0  0  0  0  0
  162.5770  211.9540  147.8670 N   0  0  0  0  0  2  0  0  0  0  0  0
  161.5760  214.4130  149.0060 C   0  0  0  0  0  1  0  0  0  0  0  0
  161.3290  212.4880  147.4090 C   0  0  0  0  0  0  0  0  0  0  0  0
  160.8220  213.7110  147.9800 N   0  0  0  0  0  0  0  0  0  0  0  0
  158.6090  213.2160  147.0480 C   0  0  0  0  0  2  0  0  0  0  0  0
  159.3020  212.3750  145.9830 C   0  0  0  0  0  2  0  0  0  0  0  0
  160.6000  211.8260  146.4990 C   0  0  0  0  0  3  0  0  0  0  0  0
  159.5680  214.3050  147.5170 C   0  0  0  0  0  2  0  0  0  0  0  0
  1 12  1  0  0  0  0
  2  8  1  0  0  0  0
  3 11  2  0  0  0  0
  4 14  1  0  0  0  0
  5 10  2  0  0  0  0
  6  2  2  0  0  0  0
  6  5  1  0  0  0  0
  7 17  2  0  0  0  0
  8  3  1  0  0  0  0
  8  1  2  0  0  0  0
  9  4  1  0  0  0  0
 10  1  1  0  0  0  0
 11 15  1  0  0  0  0
 11 18  1  0  0  0  0
 12 18  2  0  0  0  0
 13  2  1  0  0  0  0
 14 15  1  0  0  0  0
 15 21  1  6  0  0  0
 16  7  1  0  0  0  0
 16  9  2  0  0  0  0
 17  4  1  0  0  0  0
 17  3  1  0  0  0  0
 19 20  1  0  0  0  0
 20 22  2  0  0  0  0
 21 24  2  0  0  0  0
 23 19  2  0  0  0  0
 23 21  1  0  0  0  0
 24 22  1  0  0  0  0
 25 19  1  0  0  0  0
 26 16  1  0  0  0  0
 27 26  1  0  0  0  0
 29 27  1  0  0  0  0
 29 30  1  0  0  0  0
 30 28  1  0  0  0  0
 31 34  1  0  0  0  0
 32 33  1  0  0  0  0
 32 31  1  0  0  0  0
 33 29  2  0  0  0  0
 34 30  1  0  0  0  0
M  END
>  <MODEL>
7

>  <REMARK>
 VINA RESULT:      -4.2      2.564      5.194
  Name = 
  4 active torsions:
  status: ('A' for Active; 'I' for Inactive)
    1  A    between atoms: N_3  and  C_13
    2  A    between atoms: N_3  and  C_17
    3  A    between atoms: C_12  and  C_28
    4  A    between atoms: C_17  and  C_29
                            x       y       z     vdW  Elec       q    Type
                         _______ _______ _______ _____ _____    ______ ____

>  <TORSDO>
F 4

$$$$
=
 OpenBabel11062407423D

 34 39  0  0  1  0  0  0  0  0999 V2000
  161.1000  208.4490  154.8710 C   0  0  0  0  0  0  0  0  0  0  0  0
  160.8990  207.7350  152.5530 C   0  0  0  0  0  0  0  0  0  0  0  0
  160.5190  210.1390  153.2080 C   0  0  0  0  0  0  0  0  0  0  0  0
  160.4680  212.0940  151.7140 N   0  0  0  0  0  0  0  0  0  0  0  0
  161.7460  206.2080  154.2400 C   0  0  0  0  0  3  0  0  0  0  0  0
  161.3740  206.4730  152.9240 C   0  0  0  0  0  3  0  0  0  0  0  0
  161.5580  210.3520  150.8510 C   0  0  0  0  0  3  0  0  0  0  0  0
  160.8510  208.7860  153.5100 C   0  0  0  0  0  0  0  0  0  0  0  0
  160.9830  212.5160  150.5510 C   0  0  0  0  0  3  0  0  0  0  0  0
  161.5810  207.1860  155.2160 C   0  0  0  0  0  3  0  0  0  0  0  0
  160.1350  211.0060  154.2610 C   0  0  0  0  0  0  0  0  0  0  0  0
  160.8260  209.3600  155.8900 C   0  0  0  0  0  3  0  0  0  0  0  0
  160.0810  207.7980  150.9950 Cl  0  0  0  0  0  0  0  0  0  0  0  0
  159.9270  212.9170  152.7080 N   0  0  0  0  0  2  0  0  0  0  0  0
  159.4960  212.3530  153.9870 C   0  0  1  0  0  3  0  0  0  0  0  0
  161.6430  211.4390  149.9950 C   0  0  0  0  0  0  0  0  0  0  0  0
  160.7720  210.8000  151.9020 C   0  0  0  0  0  0  0  0  0  0  0  0
  160.3060  210.6140  155.5880 C   0  0  0  0  0  3  0  0  0  0  0  0
  155.9730  211.0670  154.6390 C   0  0  0  0  0  0  0  0  0  0  0  0
  155.2060  212.1110  154.1120 C   0  0  0  0  0  3  0  0  0  0  0  0
  158.0030  212.2520  154.0300 C   0  0  0  0  0  0  0  0  0  0  0  0
  155.8350  213.2240  153.5460 C   0  0  0  0  0  3  0  0  0  0  0  0
  157.3670  211.1360  154.5990 C   0  0  0  0  0  3  0  0  0  0  0  0
  157.2300  213.2940  153.5060 C   0  0  0  0  0  3  0  0  0  0  0  0
  155.3640  209.9890  155.1880 F   0  0  0  0  0  0  0  0  0  0  0  0
  162.3460  211.4460  148.6840 C   0  0  0  0  0  2  0  0  0  0  0  0
  162.2160  212.7580  148.0680 N   0  0  0  0  0  2  0  0  0  0  0  0
  159.5120  212.7170  147.0540 C   0  0  0  0  0  1  0  0  0  0  0  0
  161.9840  212.9540  146.6680 C   0  0  0  0  0  0  0  0  0  0  0  0
  160.6360  212.9260  146.1570 N   0  0  0  0  0  0  0  0  0  0  0  0
  161.5150  212.6540  143.8840 C   0  0  0  0  0  2  0  0  0  0  0  0
  162.7990  213.3280  144.3550 C   0  0  0  0  0  2  0  0  0  0  0  0
  163.0140  213.0980  145.8220 C   0  0  0  0  0  3  0  0  0  0  0  0
  160.3550  213.1520  144.7390 C   0  0  0  0  0  2  0  0  0  0  0  0
  1 10  1  0  0  0  0
  1 12  1  0  0  0  0
  2  6  2  0  0  0  0
  2  8  1  0  0  0  0
  3  8  1  0  0  0  0
  3 11  2  0  0  0  0
  4 17  1  0  0  0  0
  4 14  1  0  0  0  0
  5 10  2  0  0  0  0
  6  5  1  0  0  0  0
  7 17  2  0  0  0  0
  8  1  2  0  0  0  0
  9  4  1  0  0  0  0
 11 18  1  0  0  0  0
 13  2  1  0  0  0  0
 14 15  1  0  0  0  0
 15 21  1  6  0  0  0
 15 11  1  0  0  0  0
 16  9  2  0  0  0  0
 16  7  1  0  0  0  0
 17  3  1  0  0  0  0
 18 12  2  0  0  0  0
 19 25  1  0  0  0  0
 20 19  2  0  0  0  0
 21 23  2  0  0  0  0
 22 20  1  0  0  0  0
 23 19  1  0  0  0  0
 24 22  2  0  0  0  0
 24 21  1  0  0  0  0
 26 16  1  0  0  0  0
 27 26  1  0  0  0  0
 29 27  1  0  0  0  0
 30 29  1  0  0  0  0
 30 28  1  0  0  0  0
 31 32  1  0  0  0  0
 31 34  1  0  0  0  0
 32 33  1  0  0  0  0
 33 29  2  0  0  0  0
 34 30  1  0  0  0  0
M  END
>  <MODEL>
8

>  <REMARK>
 VINA RESULT:      -3.9      2.885      4.305
  Name = 
  4 active torsions:
  status: ('A' for Active; 'I' for Inactive)
    1  A    between atoms: N_3  and  C_13
    2  A    between atoms: N_3  and  C_17
    3  A    between atoms: C_12  and  C_28
    4  A    between atoms: C_17  and  C_29
                            x       y       z     vdW  Elec       q    Type
                         _______ _______ _______ _____ _____    ______ ____

>  <TORSDO>
F 4

$$$$
=
 OpenBabel11062407423D

 34 39  0  0  1  0  0  0  0  0999 V2000
  161.6560  208.9900  155.6670 C   0  0  0  0  0  0  0  0  0  0  0  0
  160.1860  207.1830  154.9620 C   0  0  0  0  0  0  0  0  0  0  0  0
  161.1760  208.7810  153.2830 C   0  0  0  0  0  0  0  0  0  0  0  0
  161.3020  208.4800  150.8440 N   0  0  0  0  0  0  0  0  0  0  0  0
  160.9580  207.3140  157.2610 C   0  0  0  0  0  3  0  0  0  0  0  0
  160.1980  206.6930  156.2730 C   0  0  0  0  0  3  0  0  0  0  0  0
  161.0650  206.5650  151.9580 C   0  0  0  0  0  3  0  0  0  0  0  0
  161.0060  208.2910  154.6110 C   0  0  0  0  0  0  0  0  0  0  0  0
  161.3810  207.5040  149.9280 C   0  0  0  0  0  3  0  0  0  0  0  0
  161.6610  208.4770  156.9650 C   0  0  0  0  0  3  0  0  0  0  0  0
  161.6930  210.0860  153.0910 C   0  0  0  0  0  0  0  0  0  0  0  0
  162.2640  210.2230  155.4350 C   0  0  0  0  0  3  0  0  0  0  0  0
  158.8810  206.5760  153.9480 Cl  0  0  0  0  0  0  0  0  0  0  0  0
  161.6500  209.8200  150.6340 N   0  0  0  0  0  2  0  0  0  0  0  0
  161.6280  210.7750  151.7420 C   0  0  1  0  0  3  0  0  0  0  0  0
  161.2130  206.3120  150.6030 C   0  0  0  0  0  0  0  0  0  0  0  0
  161.0840  207.9470  152.0570 C   0  0  0  0  0  0  0  0  0  0  0  0
  162.2430  210.7860  154.1640 C   0  0  0  0  0  3  0  0  0  0  0  0
  158.1750  212.2520  152.3620 C   0  0  0  0  0  0  0  0  0  0  0  0
  158.1740  213.3180  151.4580 C   0  0  0  0  0  3  0  0  0  0  0  0
  160.4150  211.6470  151.6480 C   0  0  0  0  0  0  0  0  0  0  0  0
  159.2910  213.5500  150.6510 C   0  0  0  0  0  3  0  0  0  0  0  0
  159.2920  211.4180  152.4580 C   0  0  0  0  0  3  0  0  0  0  0  0
  160.4090  212.7180  150.7460 C   0  0  0  0  0  3  0  0  0  0  0  0
  157.0930  212.0270  153.1460 F   0  0  0  0  0  0  0  0  0  0  0  0
  161.2050  204.9640  149.9760 C   0  0  0  0  0  2  0  0  0  0  0  0
  161.7450  205.0510  148.6270 N   0  0  0  0  0  2  0  0  0  0  0  0
  161.3850  205.8630  145.8780 C   0  0  0  0  0  1  0  0  0  0  0  0
  161.5180  204.0570  147.6200 C   0  0  0  0  0  0  0  0  0  0  0  0
  161.3310  204.4580  146.2480 N   0  0  0  0  0  0  0  0  0  0  0  0
  160.4110  202.2440  145.7370 C   0  0  0  0  0  2  0  0  0  0  0  0
  161.2050  201.6980  146.9180 C   0  0  0  0  0  2  0  0  0  0  0  0
  161.4170  202.7620  147.9550 C   0  0  0  0  0  3  0  0  0  0  0  0
  161.1280  203.4720  145.1870 C   0  0  0  0  0  2  0  0  0  0  0  0
  1 10  2  0  0  0  0
  2  6  1  0  0  0  0
  3  8  1  0  0  0  0
  4 17  1  0  0  0  0
  6  5  2  0  0  0  0
  7 17  2  0  0  0  0
  8  2  2  0  0  0  0
  8  1  1  0  0  0  0
  9 16  2  0  0  0  0
  9  4  1  0  0  0  0
 10  5  1  0  0  0  0
 11  3  2  0  0  0  0
 11 18  1  0  0  0  0
 12  1  1  0  0  0  0
 13  2  1  0  0  0  0
 14  4  1  0  0  0  0
 14 15  1  0  0  0  0
 15 21  1  1  0  0  0
 15 11  1  0  0  0  0
 16  7  1  0  0  0  0
 17  3  1  0  0  0  0
 18 12  2  0  0  0  0
 19 23  1  0  0  0  0
 19 25  1  0  0  0  0
 20 19  2  0  0  0  0
 21 23  2  0  0  0  0
 22 24  2  0  0  0  0
 22 20  1  0  0  0  0
 24 21  1  0  0  0  0
 26 16  1  0  0  0  0
 27 26  1  0  0  0  0
 28 30  1  0  0  0  0
 29 33  2  0  0  0  0
 29 27  1  0  0  0  0
 30 29  1  0  0  0  0
 31 32  1  0  0  0  0
 32 33  1  0  0  0  0
 34 31  1  0  0  0  0
 34 30  1  0  0  0  0
M  END
>  <MODEL>
9

>  <REMARK>
 VINA RESULT:      -3.8      1.773      2.883
  Name = 
  4 active torsions:
  status: ('A' for Active; 'I' for Inactive)
    1  A    between atoms: N_3  and  C_13
    2  A    between atoms: N_3  and  C_17
    3  A    between atoms: C_12  and  C_28
    4  A    between atoms: C_17  and  C_29
                            x       y       z     vdW  Elec       q    Type
                         _______ _______ _______ _____ _____    ______ ____

>  <TORSDO>
F 4

$$$$
