=
 OpenBabel11062410173D

 43 48  0  0  1  0  0  0  0  0999 V2000
  160.9140  202.3420  148.0390 C   0  0  0  0  0  0  0  0  0  0  0  0
  161.5740  206.1600  151.2950 C   0  0  0  0  0  0  0  0  0  0  0  0
  161.8320  208.4420  149.7130 C   0  0  0  0  0  0  0  0  0  0  0  0
  161.1720  203.6750  150.0450 C   0  0  0  0  0  0  0  0  0  0  0  0
  161.0520  203.4900  147.2540 C   0  0  0  0  0  3  0  0  0  0  0  0
  160.7220  201.1380  147.4490 F   0  0  0  0  0  0  0  0  0  0  0  0
  161.3130  204.8420  149.2550 C   0  0  0  0  0  0  0  0  0  0  0  0
  160.9730  202.4340  149.4320 C   0  0  0  0  0  3  0  0  0  0  0  0
  161.2510  204.7340  147.8580 C   0  0  0  0  0  3  0  0  0  0  0  0
  161.6420  207.2230  149.1430 N   0  0  0  0  0  0  0  0  0  0  0  0
  161.5120  206.0860  149.8830 C   0  0  0  0  0  0  0  0  0  0  0  0
  161.4260  204.9920  152.0580 C   0  0  0  0  0  3  0  0  0  0  0  0
  161.7800  207.4100  151.9050 C   0  0  0  0  0  0  0  0  0  0  0  0
  161.9050  208.5500  151.1080 C   0  0  0  0  0  3  0  0  0  0  0  0
  161.2270  203.7590  151.4360 C   0  0  0  0  0  3  0  0  0  0  0  0
  161.9610  209.6200  148.8440 C   0  0  0  0  0  3  0  0  0  0  0  0
  161.8950  210.8670  149.3080 C   0  0  0  0  0  3  0  0  0  0  0  0
  161.6380  213.1940  149.0890 F   0  0  0  0  0  0  0  0  0  0  0  0
  162.0290  212.0520  148.4080 C   0  0  1  0  0  0  0  0  0  0  0  0
  163.4760  212.1970  147.9610 C   0  0  0  0  0  1  0  0  0  0  0  0
  161.1290  211.8300  147.1940 C   0  0  0  0  0  2  0  0  0  0  0  0
  160.8120  213.1180  146.4420 C   0  0  2  0  0  3  0  0  0  0  0  0
  159.6280  213.7290  143.7300 C   0  0  0  0  0  2  0  0  0  0  0  0
  160.8380  212.7940  143.9140 C   0  0  2  0  0  3  0  0  0  0  0  0
  159.3010  213.2210  146.1870 C   0  0  0  0  0  2  0  0  0  0  0  0
  161.6540  213.1810  145.1580 C   0  0  1  0  0  3  0  0  0  0  0  0
  162.1830  214.4530  145.0140 F   0  0  0  0  0  0  0  0  0  0  0  0
  159.0070  214.1970  145.0520 C   0  0  0  0  0  2  0  0  0  0  0  0
  161.7060  212.7370  142.6470 C   0  0  0  0  0  3  0  0  0  0  0  0
  160.0590  211.7760  141.0110 C   0  0  0  0  0  2  0  0  0  0  0  0
  160.2560  214.0230  141.0470 C   0  0  0  0  0  2  0  0  0  0  0  0
  160.2020  212.9090  140.1900 O   0  0  0  0  0  0  0  0  0  0  0  0
  161.5790  214.0230  141.8170 C   0  0  0  0  0  2  0  0  0  0  0  0
  161.3590  211.5200  141.7770 C   0  0  0  0  0  2  0  0  0  0  0  0
  161.8800  207.5520  153.3950 C   0  0  0  0  0  2  0  0  0  0  0  0
  160.5720  208.0560  153.9970 C   0  0  1  0  0  3  0  0  0  0  0  0
  160.1760  207.1890  155.1780 C   0  0  0  0  0  1  0  0  0  0  0  0
  160.6470  209.5260  154.4040 C   0  0  0  0  0  2  0  0  0  0  0  0
  160.4130  212.0230  155.2530 O   0  0  0  0  0  1  0  0  0  0  0  0
  158.5660  212.4380  153.7880 O   0  0  0  0  0  1  0  0  0  0  0  0
  159.7130  210.3380  153.6300 N   0  0  0  0  0  0  0  0  0  0  0  0
  159.7520  211.7550  154.0470 C   0  0  0  0  0  0  0  0  0  0  0  0
  160.5420  211.3340  152.9100 C   0  0  0  0  0  2  0  0  0  0  0  0
  1  8  1  0  0  0  0
  2 13  1  0  0  0  0
  2 12  1  0  0  0  0
  3 14  1  0  0  0  0
  4 15  1  0  0  0  0
  5  9  1  0  0  0  0
  5  1  2  0  0  0  0
  6  1  1  0  0  0  0
  7 11  1  0  0  0  0
  7  4  1  0  0  0  0
  8  4  2  0  0  0  0
  9  7  2  0  0  0  0
 10  3  2  0  0  0  0
 10 11  1  0  0  0  0
 11  2  2  0  0  0  0
 13 35  1  0  0  0  0
 14 13  2  0  0  0  0
 15 12  2  0  0  0  0
 16 17  2  0  0  0  0
 16  3  1  0  0  0  0
 19 20  1  6  0  0  0
 19 18  1  0  0  0  0
 19 17  1  0  0  0  0
 21 19  1  0  0  0  0
 22 21  1  6  0  0  0
 23 24  1  0  0  0  0
 23 28  1  0  0  0  0
 24 29  1  6  0  0  0
 24 26  1  0  0  0  0
 25 22  1  0  0  0  0
 26 27  1  6  0  0  0
 26 22  1  0  0  0  0
 28 25  1  0  0  0  0
 30 34  1  0  0  0  0
 31 33  1  0  0  0  0
 32 30  1  0  0  0  0
 32 31  1  0  0  0  0
 33 29  1  0  0  0  0
 34 29  1  0  0  0  0
 35 36  1  0  0  0  0
 36 38  1  0  0  0  0
 36 37  1  1  0  0  0
 40 42  1  0  0  0  0
 41 42  1  0  0  0  0
 41 38  1  0  0  0  0
 42 39  1  0  0  0  0
 43 41  1  0  0  0  0
 43 42  1  0  0  0  0
M  END
>  <MODEL>
1

>  <REMARK>
 VINA RESULT:      -9.6      0.000      0.000
  Name = 
  9 active torsions:
  status: ('A' for Active; 'I' for Inactive)
    1  A    between atoms: C_1  and  C_9
    2  A    between atoms: C_1  and  C_35
    3  A    between atoms: C_2  and  C_13
    4  A    between atoms: C_3  and  C_4
    5  A    between atoms: C_3  and  C_12
    6  A    between atoms: C_6  and  C_12
    7  A    between atoms: C_9  and  N_32
    8  A    between atoms: C_11  and  C_14
    9  A    between atoms: C_34  and  C_35
                            x       y       z     vdW  Elec       q    Type
                         _______ _______ _______ _____ _____    ______ ____

>  <TORSDO>
F 9

$$$$
=
 OpenBabel11062410173D

 43 48  0  0  1  0  0  0  0  0999 V2000
  160.7220  201.8130  149.2880 C   0  0  0  0  0  0  0  0  0  0  0  0
  161.6160  206.7930  149.3800 C   0  0  0  0  0  0  0  0  0  0  0  0
  161.3810  207.5350  152.0580 C   0  0  0  0  0  0  0  0  0  0  0  0
  161.2300  204.1000  148.6750 C   0  0  0  0  0  0  0  0  0  0  0  0
  160.5980  202.1940  150.6260 C   0  0  0  0  0  3  0  0  0  0  0  0
  160.5360  200.5180  148.9330 F   0  0  0  0  0  0  0  0  0  0  0  0
  161.1060  204.4940  150.0290 C   0  0  0  0  0  0  0  0  0  0  0  0
  161.0370  202.7640  148.3130 C   0  0  0  0  0  3  0  0  0  0  0  0
  160.7890  203.5290  150.9960 C   0  0  0  0  0  3  0  0  0  0  0  0
  161.1960  206.2430  151.6790 N   0  0  0  0  0  0  0  0  0  0  0  0
  161.3020  205.8430  150.3810 C   0  0  0  0  0  0  0  0  0  0  0  0
  161.7390  206.3800  148.0450 C   0  0  0  0  0  3  0  0  0  0  0  0
  161.8020  208.1370  149.7490 C   0  0  0  0  0  0  0  0  0  0  0  0
  161.6870  208.5020  151.0920 C   0  0  0  0  0  3  0  0  0  0  0  0
  161.5470  205.0430  147.6960 C   0  0  0  0  0  3  0  0  0  0  0  0
  161.2510  207.8840  153.4790 C   0  0  0  0  0  3  0  0  0  0  0  0
  160.4010  207.2640  154.2980 C   0  0  0  0  0  3  0  0  0  0  0  0
  159.5740  206.6500  156.4110 F   0  0  0  0  0  0  0  0  0  0  0  0
  160.2840  207.6340  155.7410 C   0  0  1  0  0  0  0  0  0  0  0  0
  161.6700  207.7660  156.3520 C   0  0  0  0  0  1  0  0  0  0  0  0
  159.5460  208.9690  155.8300 C   0  0  0  0  0  2  0  0  0  0  0  0
  160.4840  210.1710  155.8050 C   0  0  2  0  0  3  0  0  0  0  0  0
  160.2550  213.0320  156.7500 C   0  0  0  0  0  2  0  0  0  0  0  0
  159.2190  212.3840  155.8120 C   0  0  2  0  0  3  0  0  0  0  0  0
  160.8130  210.6130  157.2380 C   0  0  0  0  0  2  0  0  0  0  0  0
  159.8630  211.2860  154.9490 C   0  0  1  0  0  3  0  0  0  0  0  0
  160.8320  211.8270  154.1200 F   0  0  0  0  0  0  0  0  0  0  0  0
  161.3190  212.0510  157.2610 C   0  0  0  0  0  2  0  0  0  0  0  0
  158.4920  213.4370  154.9600 C   0  0  0  0  0  3  0  0  0  0  0  0
  156.4550  212.1360  154.2740 C   0  0  0  0  0  2  0  0  0  0  0  0
  156.2460  213.4590  156.0880 C   0  0  0  0  0  2  0  0  0  0  0  0
  155.6260  213.0970  154.8780 O   0  0  0  0  0  0  0  0  0  0  0  0
  157.5140  214.2680  155.8040 C   0  0  0  0  0  2  0  0  0  0  0  0
  157.7460  212.7940  153.7820 C   0  0  0  0  0  2  0  0  0  0  0  0
  162.1130  209.1970  148.7330 C   0  0  0  0  0  2  0  0  0  0  0  0
  161.6730  210.5760  149.2130 C   0  0  1  0  0  3  0  0  0  0  0  0
  162.2110  210.8360  150.6090 C   0  0  0  0  0  1  0  0  0  0  0  0
  162.0940  211.6880  148.2540 C   0  0  0  0  0  2  0  0  0  0  0  0
  161.4450  214.2020  148.7690 O   0  0  0  0  0  1  0  0  0  0  0  0
  159.4340  214.0360  147.4800 O   0  0  0  0  0  1  0  0  0  0  0  0
  160.9560  212.1830  147.4850 N   0  0  0  0  0  0  0  0  0  0  0  0
  160.7500  213.6310  147.6950 C   0  0  0  0  0  0  0  0  0  0  0  0
  161.5070  213.1870  146.5450 C   0  0  0  0  0  2  0  0  0  0  0  0
  1  5  1  0  0  0  0
  2 13  2  0  0  0  0
  2 11  1  0  0  0  0
  3 16  1  0  0  0  0
  4  7  2  0  0  0  0
  5  9  2  0  0  0  0
  6  1  1  0  0  0  0
  7 11  1  0  0  0  0
  7  9  1  0  0  0  0
  8  4  1  0  0  0  0
  8  1  2  0  0  0  0
 10  3  1  0  0  0  0
 11 10  2  0  0  0  0
 12  2  1  0  0  0  0
 13 14  1  0  0  0  0
 14  3  2  0  0  0  0
 15 12  2  0  0  0  0
 15  4  1  0  0  0  0
 16 17  2  0  0  0  0
 17 19  1  0  0  0  0
 19 21  1  0  0  0  0
 19 20  1  1  0  0  0
 19 18  1  0  0  0  0
 22 21  1  1  0  0  0
 22 25  1  0  0  0  0
 23 28  1  0  0  0  0
 24 29  1  6  0  0  0
 24 23  1  0  0  0  0
 25 28  1  0  0  0  0
 26 27  1  1  0  0  0
 26 22  1  0  0  0  0
 26 24  1  0  0  0  0
 29 33  1  0  0  0  0
 30 32  1  0  0  0  0
 32 31  1  0  0  0  0
 33 31  1  0  0  0  0
 34 30  1  0  0  0  0
 34 29  1  0  0  0  0
 35 36  1  0  0  0  0
 35 13  1  0  0  0  0
 36 37  1  1  0  0  0
 38 36  1  0  0  0  0
 40 42  1  0  0  0  0
 41 42  1  0  0  0  0
 41 38  1  0  0  0  0
 42 39  1  0  0  0  0
 43 41  1  0  0  0  0
 43 42  1  0  0  0  0
M  END
>  <MODEL>
2

>  <REMARK>
 VINA RESULT:      -9.0      3.175      8.312
  Name = 
  9 active torsions:
  status: ('A' for Active; 'I' for Inactive)
    1  A    between atoms: C_1  and  C_9
    2  A    between atoms: C_1  and  C_35
    3  A    between atoms: C_2  and  C_13
    4  A    between atoms: C_3  and  C_4
    5  A    between atoms: C_3  and  C_12
    6  A    between atoms: C_6  and  C_12
    7  A    between atoms: C_9  and  N_32
    8  A    between atoms: C_11  and  C_14
    9  A    between atoms: C_34  and  C_35
                            x       y       z     vdW  Elec       q    Type
                         _______ _______ _______ _____ _____    ______ ____

>  <TORSDO>
F 9

$$$$
=
 OpenBabel11062410173D

 43 48  0  0  1  0  0  0  0  0999 V2000
  160.7640  202.9030  149.6860 C   0  0  0  0  0  0  0  0  0  0  0  0
  161.7780  207.8260  149.0980 C   0  0  0  0  0  0  0  0  0  0  0  0
  161.4380  208.9560  151.6260 C   0  0  0  0  0  0  0  0  0  0  0  0
  161.3570  205.0670  148.7730 C   0  0  0  0  0  0  0  0  0  0  0  0
  160.5880  203.4780  150.9470 C   0  0  0  0  0  3  0  0  0  0  0  0
  160.5630  201.5740  149.5150 F   0  0  0  0  0  0  0  0  0  0  0  0
  161.1810  205.6570  150.0480 C   0  0  0  0  0  0  0  0  0  0  0  0
  161.1480  203.6950  148.6010 C   0  0  0  0  0  3  0  0  0  0  0  0
  160.7950  204.8490  151.1290 C   0  0  0  0  0  3  0  0  0  0  0  0
  161.2380  207.6260  151.4300 N   0  0  0  0  0  0  0  0  0  0  0  0
  161.3950  207.0380  150.2100 C   0  0  0  0  0  0  0  0  0  0  0  0
  161.9530  207.2200  147.8460 C   0  0  0  0  0  3  0  0  0  0  0  0
  161.9810  209.2060  149.2770 C   0  0  0  0  0  0  0  0  0  0  0  0
  161.8130  209.7660  150.5460 C   0  0  0  0  0  3  0  0  0  0  0  0
  161.7430  205.8500  147.6850 C   0  0  0  0  0  3  0  0  0  0  0  0
  161.2510  209.5110  152.9720 C   0  0  0  0  0  3  0  0  0  0  0  0
  160.8770  208.7670  154.0120 C   0  0  0  0  0  3  0  0  0  0  0  0
  159.4560  208.9730  155.8740 F   0  0  0  0  0  0  0  0  0  0  0  0
  160.6920  209.3510  155.3760 C   0  0  1  0  0  0  0  0  0  0  0  0
  161.7890  208.8490  156.3020 C   0  0  0  0  0  1  0  0  0  0  0  0
  160.7690  210.8720  155.2540 C   0  0  0  0  0  2  0  0  0  0  0  0
  159.4600  211.5660  155.6140 C   0  0  2  0  0  3  0  0  0  0  0  0
  157.0090  212.3730  154.0410 C   0  0  0  0  0  2  0  0  0  0  0  0
  158.4330  212.7870  153.6260 C   0  0  2  0  0  3  0  0  0  0  0  0
  158.2750  210.6230  155.3590 C   0  0  0  0  0  2  0  0  0  0  0  0
  159.3580  212.8950  154.8490 C   0  0  1  0  0  3  0  0  0  0  0  0
  158.9150  213.8890  155.7060 F   0  0  0  0  0  0  0  0  0  0  0  0
  156.9730  211.4070  155.2330 C   0  0  0  0  0  2  0  0  0  0  0  0
  158.4250  214.0760  152.7910 C   0  0  0  0  0  3  0  0  0  0  0  0
  159.8360  213.3600  150.8380 C   0  0  0  0  0  2  0  0  0  0  0  0
  157.6020  213.1850  150.5900 C   0  0  0  0  0  2  0  0  0  0  0  0
  158.7750  213.6370  149.9590 O   0  0  0  0  0  0  0  0  0  0  0  0
  157.2690  214.0880  151.7800 C   0  0  0  0  0  2  0  0  0  0  0  0
  159.7590  214.2830  152.0560 C   0  0  0  0  0  2  0  0  0  0  0  0
  162.3650  210.1000  148.1350 C   0  0  0  0  0  2  0  0  0  0  0  0
  161.9150  211.5370  148.3750 C   0  0  1  0  0  3  0  0  0  0  0  0
  163.0880  212.4850  148.2000 C   0  0  0  0  0  1  0  0  0  0  0  0
  160.7510  211.9420  147.4730 C   0  0  0  0  0  2  0  0  0  0  0  0
  159.1740  212.1810  145.3590 O   0  0  0  0  0  1  0  0  0  0  0  0
  160.6640  213.7390  144.3180 O   0  0  0  0  0  1  0  0  0  0  0  0
  161.1410  213.0040  146.5500 N   0  0  0  0  0  0  0  0  0  0  0  0
  160.1340  213.1930  145.4850 C   0  0  0  0  0  0  0  0  0  0  0  0
  160.0880  214.0420  146.6570 C   0  0  0  0  0  2  0  0  0  0  0  0
  1  5  1  0  0  0  0
  2 13  2  0  0  0  0
  2 11  1  0  0  0  0
  3 16  1  0  0  0  0
  4  7  2  0  0  0  0
  5  9  2  0  0  0  0
  6  1  1  0  0  0  0
  7 11  1  0  0  0  0
  7  9  1  0  0  0  0
  8  4  1  0  0  0  0
  8  1  2  0  0  0  0
 10  3  1  0  0  0  0
 11 10  2  0  0  0  0
 12  2  1  0  0  0  0
 13 14  1  0  0  0  0
 14  3  2  0  0  0  0
 15 12  2  0  0  0  0
 15  4  1  0  0  0  0
 16 17  2  0  0  0  0
 17 19  1  0  0  0  0
 19 18  1  0  0  0  0
 19 20  1  1  0  0  0
 21 19  1  0  0  0  0
 22 21  1  6  0  0  0
 23 28  1  0  0  0  0
 24 29  1  1  0  0  0
 24 23  1  0  0  0  0
 24 26  1  0  0  0  0
 25 22  1  0  0  0  0
 26 22  1  0  0  0  0
 26 27  1  1  0  0  0
 28 25  1  0  0  0  0
 30 34  1  0  0  0  0
 31 33  1  0  0  0  0
 32 31  1  0  0  0  0
 32 30  1  0  0  0  0
 33 29  1  0  0  0  0
 34 29  1  0  0  0  0
 35 36  1  0  0  0  0
 35 13  1  0  0  0  0
 36 37  1  6  0  0  0
 38 36  1  0  0  0  0
 39 42  1  0  0  0  0
 40 42  1  0  0  0  0
 41 43  1  0  0  0  0
 41 38  1  0  0  0  0
 42 41  1  0  0  0  0
 42 43  1  0  0  0  0
M  END
>  <MODEL>
3

>  <REMARK>
 VINA RESULT:      -8.9      3.059      7.485
  Name = 
  9 active torsions:
  status: ('A' for Active; 'I' for Inactive)
    1  A    between atoms: C_1  and  C_9
    2  A    between atoms: C_1  and  C_35
    3  A    between atoms: C_2  and  C_13
    4  A    between atoms: C_3  and  C_4
    5  A    between atoms: C_3  and  C_12
    6  A    between atoms: C_6  and  C_12
    7  A    between atoms: C_9  and  N_32
    8  A    between atoms: C_11  and  C_14
    9  A    between atoms: C_34  and  C_35
                            x       y       z     vdW  Elec       q    Type
                         _______ _______ _______ _____ _____    ______ ____

>  <TORSDO>
F 9

$$$$
=
 OpenBabel11062410173D

 43 48  0  0  1  0  0  0  0  0999 V2000
  160.6490  208.5880  155.7540 C   0  0  0  0  0  0  0  0  0  0  0  0
  161.4950  206.5740  151.1880 C   0  0  0  0  0  0  0  0  0  0  0  0
  161.7910  208.7490  149.4670 C   0  0  0  0  0  0  0  0  0  0  0  0
  161.0020  207.0530  153.9130 C   0  0  0  0  0  0  0  0  0  0  0  0
  160.7910  209.6710  154.8830 C   0  0  0  0  0  3  0  0  0  0  0  0
  160.4090  208.8040  157.0700 F   0  0  0  0  0  0  0  0  0  0  0  0
  161.1470  208.1460  153.0250 C   0  0  0  0  0  0  0  0  0  0  0  0
  160.7550  207.2800  155.2700 C   0  0  0  0  0  3  0  0  0  0  0  0
  161.0380  209.4530  153.5250 C   0  0  0  0  0  3  0  0  0  0  0  0
  161.5460  208.9420  150.7900 N   0  0  0  0  0  0  0  0  0  0  0  0
  161.3960  207.9050  151.6610 C   0  0  0  0  0  0  0  0  0  0  0  0
  161.3540  205.5060  152.0870 C   0  0  0  0  0  3  0  0  0  0  0  0
  161.7380  206.3520  149.8210 C   0  0  0  0  0  0  0  0  0  0  0  0
  161.8890  207.4450  148.9650 C   0  0  0  0  0  3  0  0  0  0  0  0
  161.1090  205.7450  153.4390 C   0  0  0  0  0  3  0  0  0  0  0  0
  161.9420  209.9210  148.5940 C   0  0  0  0  0  3  0  0  0  0  0  0
  161.7450  211.1670  149.0220 C   0  0  0  0  0  3  0  0  0  0  0  0
  161.3770  213.4710  148.7320 F   0  0  0  0  0  0  0  0  0  0  0  0
  161.9050  212.3470  148.1190 C   0  0  1  0  0  0  0  0  0  0  0  0
  163.3810  212.5730  147.8260 C   0  0  0  0  0  1  0  0  0  0  0  0
  161.1560  212.0540  146.8200 C   0  0  0  0  0  2  0  0  0  0  0  0
  161.0080  213.2810  145.9270 C   0  0  2  0  0  3  0  0  0  0  0  0
  159.9170  213.7340  143.1450 C   0  0  0  0  0  2  0  0  0  0  0  0
  160.9980  212.6800  143.4500 C   0  0  2  0  0  3  0  0  0  0  0  0
  159.5230  213.5460  145.6370 C   0  0  0  0  0  2  0  0  0  0  0  0
  161.8530  213.0960  144.6580 C   0  0  1  0  0  3  0  0  0  0  0  0
  162.5400  214.2670  144.3850 F   0  0  0  0  0  0  0  0  0  0  0  0
  159.3580  214.4200  144.3990 C   0  0  0  0  0  2  0  0  0  0  0  0
  161.8550  212.3760  142.2110 C   0  0  0  0  0  3  0  0  0  0  0  0
  160.0920  211.5170  140.6400 C   0  0  0  0  0  2  0  0  0  0  0  0
  160.6210  213.7030  140.4700 C   0  0  0  0  0  2  0  0  0  0  0  0
  160.4060  212.5320  139.7190 O   0  0  0  0  0  0  0  0  0  0  0  0
  161.9250  213.5810  141.2620 C   0  0  0  0  0  2  0  0  0  0  0  0
  161.3350  211.1460  141.4510 C   0  0  0  0  0  2  0  0  0  0  0  0
  161.8300  204.9670  149.2530 C   0  0  0  0  0  2  0  0  0  0  0  0
  161.5100  204.9530  147.7620 C   0  0  1  0  0  3  0  0  0  0  0  0
  162.7930  205.0340  146.9540 C   0  0  0  0  0  1  0  0  0  0  0  0
  160.6900  203.7300  147.3540 C   0  0  0  0  0  2  0  0  0  0  0  0
  159.7100  201.7780  148.8510 O   0  0  0  0  0  1  0  0  0  0  0  0
  161.7070  200.4780  148.6110 O   0  0  0  0  0  1  0  0  0  0  0  0
  161.5040  202.5180  147.3670 N   0  0  0  0  0  0  0  0  0  0  0  0
  160.8240  201.4180  148.0810 C   0  0  0  0  0  0  0  0  0  0  0  0
  160.7170  201.4930  146.6400 C   0  0  0  0  0  2  0  0  0  0  0  0
  1  6  1  0  0  0  0
  2 11  1  0  0  0  0
  2 12  1  0  0  0  0
  3 10  1  0  0  0  0
  4  8  2  0  0  0  0
  5  1  2  0  0  0  0
  7  9  2  0  0  0  0
  7  4  1  0  0  0  0
  8  1  1  0  0  0  0
  9  5  1  0  0  0  0
 10 11  2  0  0  0  0
 11  7  1  0  0  0  0
 12 15  2  0  0  0  0
 13  2  2  0  0  0  0
 14  3  2  0  0  0  0
 14 13  1  0  0  0  0
 15  4  1  0  0  0  0
 16 17  2  0  0  0  0
 16  3  1  0  0  0  0
 19 20  1  6  0  0  0
 19 18  1  0  0  0  0
 19 17  1  0  0  0  0
 21 19  1  0  0  0  0
 22 21  1  1  0  0  0
 23 24  1  0  0  0  0
 23 28  1  0  0  0  0
 24 29  1  6  0  0  0
 24 26  1  0  0  0  0
 25 22  1  0  0  0  0
 26 27  1  6  0  0  0
 26 22  1  0  0  0  0
 28 25  1  0  0  0  0
 30 34  1  0  0  0  0
 31 33  1  0  0  0  0
 32 31  1  0  0  0  0
 32 30  1  0  0  0  0
 33 29  1  0  0  0  0
 34 29  1  0  0  0  0
 35 13  1  0  0  0  0
 36 37  1  6  0  0  0
 36 35  1  0  0  0  0
 38 41  1  0  0  0  0
 38 36  1  0  0  0  0
 41 42  1  0  0  0  0
 42 40  1  0  0  0  0
 42 39  1  0  0  0  0
 43 41  1  0  0  0  0
 43 42  1  0  0  0  0
M  END
>  <MODEL>
4

>  <REMARK>
 VINA RESULT:      -8.8      3.371      5.894
  Name = 
  9 active torsions:
  status: ('A' for Active; 'I' for Inactive)
    1  A    between atoms: C_1  and  C_9
    2  A    between atoms: C_1  and  C_35
    3  A    between atoms: C_2  and  C_13
    4  A    between atoms: C_3  and  C_4
    5  A    between atoms: C_3  and  C_12
    6  A    between atoms: C_6  and  C_12
    7  A    between atoms: C_9  and  N_32
    8  A    between atoms: C_11  and  C_14
    9  A    between atoms: C_34  and  C_35
                            x       y       z     vdW  Elec       q    Type
                         _______ _______ _______ _____ _____    ______ ____

>  <TORSDO>
F 9

$$$$
=
 OpenBabel11062410173D

 43 48  0  0  1  0  0  0  0  0999 V2000
  161.0600  201.6400  150.0690 C   0  0  0  0  0  0  0  0  0  0  0  0
  161.5650  206.6380  149.4510 C   0  0  0  0  0  0  0  0  0  0  0  0
  161.2550  207.7310  151.9980 C   0  0  0  0  0  0  0  0  0  0  0  0
  161.3930  203.8510  149.1360 C   0  0  0  0  0  0  0  0  0  0  0  0
  160.8980  202.1970  151.3410 C   0  0  0  0  0  3  0  0  0  0  0  0
  160.9780  200.2980  149.9030 F   0  0  0  0  0  0  0  0  0  0  0  0
  161.2300  204.4220  150.4210 C   0  0  0  0  0  0  0  0  0  0  0  0
  161.3070  202.4660  148.9680 C   0  0  0  0  0  3  0  0  0  0  0  0
  160.9830  203.5810  151.5170 C   0  0  0  0  0  3  0  0  0  0  0  0
  161.1730  206.3880  151.8070 N   0  0  0  0  0  0  0  0  0  0  0  0
  161.3190  205.8170  150.5780 C   0  0  0  0  0  0  0  0  0  0  0  0
  161.7280  206.0510  148.1870 C   0  0  0  0  0  3  0  0  0  0  0  0
  161.6430  208.0310  149.6240 C   0  0  0  0  0  0  0  0  0  0  0  0
  161.4920  208.5730  150.9030 C   0  0  0  0  0  3  0  0  0  0  0  0
  161.6420  204.6670  148.0320 C   0  0  0  0  0  3  0  0  0  0  0  0
  161.0890  208.2670  153.3550 C   0  0  0  0  0  3  0  0  0  0  0  0
  161.2090  209.5630  153.6370 C   0  0  0  0  0  3  0  0  0  0  0  0
  160.2560  209.2080  155.7570 F   0  0  0  0  0  0  0  0  0  0  0  0
  161.0360  210.0890  155.0260 C   0  0  1  0  0  0  0  0  0  0  0  0
  162.3950  210.2390  155.6920 C   0  0  0  0  0  1  0  0  0  0  0  0
  160.3480  211.4500  154.9350 C   0  0  0  0  0  2  0  0  0  0  0  0
  159.5620  211.6360  153.6420 C   0  0  2  0  0  3  0  0  0  0  0  0
  157.5960  213.7110  152.6600 C   0  0  0  0  0  2  0  0  0  0  0  0
  157.4170  212.9680  153.9970 C   0  0  2  0  0  3  0  0  0  0  0  0
  159.9880  212.9380  152.9470 C   0  0  0  0  0  2  0  0  0  0  0  0
  158.0570  211.5710  153.9450 C   0  0  1  0  0  3  0  0  0  0  0  0
  157.4270  210.7850  152.9930 F   0  0  0  0  0  0  0  0  0  0  0  0
  158.9240  213.4000  151.9570 C   0  0  0  0  0  2  0  0  0  0  0  0
  155.9410  212.9130  154.4200 C   0  0  0  0  0  3  0  0  0  0  0  0
  156.1840  212.2450  156.8300 C   0  0  0  0  0  2  0  0  0  0  0  0
  155.9820  214.4510  156.4070 C   0  0  0  0  0  2  0  0  0  0  0  0
  155.5100  213.4120  157.2300 O   0  0  0  0  0  0  0  0  0  0  0  0
  155.4630  214.2610  154.9800 C   0  0  0  0  0  2  0  0  0  0  0  0
  155.6880  211.8030  155.4510 C   0  0  0  0  0  2  0  0  0  0  0  0
  161.8770  208.9570  148.4680 C   0  0  0  0  0  2  0  0  0  0  0  0
  161.6230  210.4100  148.8550 C   0  0  1  0  0  3  0  0  0  0  0  0
  162.8370  210.9780  149.5680 C   0  0  0  0  0  1  0  0  0  0  0  0
  161.2460  211.2750  147.6540 C   0  0  0  0  0  2  0  0  0  0  0  0
  160.7430  212.8260  145.5680 O   0  0  0  0  0  1  0  0  0  0  0  0
  162.6640  214.1860  146.0080 O   0  0  0  0  0  1  0  0  0  0  0  0
  162.0820  212.4700  147.5790 N   0  0  0  0  0  0  0  0  0  0  0  0
  161.6440  213.3710  146.4930 C   0  0  0  0  0  0  0  0  0  0  0  0
  161.1780  213.6160  147.8420 C   0  0  0  0  0  2  0  0  0  0  0  0
  1  5  1  0  0  0  0
  2 13  2  0  0  0  0
  2 11  1  0  0  0  0
  3 16  1  0  0  0  0
  4  7  2  0  0  0  0
  5  9  2  0  0  0  0
  6  1  1  0  0  0  0
  7 11  1  0  0  0  0
  7  9  1  0  0  0  0
  8  4  1  0  0  0  0
  8  1  2  0  0  0  0
 10  3  1  0  0  0  0
 11 10  2  0  0  0  0
 12  2  1  0  0  0  0
 13 14  1  0  0  0  0
 14  3  2  0  0  0  0
 15 12  2  0  0  0  0
 15  4  1  0  0  0  0
 16 17  2  0  0  0  0
 17 19  1  0  0  0  0
 19 20  1  1  0  0  0
 19 18  1  0  0  0  0
 21 19  1  0  0  0  0
 22 26  1  0  0  0  0
 22 21  1  1  0  0  0
 23 24  1  0  0  0  0
 24 29  1  6  0  0  0
 25 22  1  0  0  0  0
 26 27  1  6  0  0  0
 26 24  1  0  0  0  0
 28 23  1  0  0  0  0
 28 25  1  0  0  0  0
 29 33  1  0  0  0  0
 29 34  1  0  0  0  0
 30 32  1  0  0  0  0
 31 32  1  0  0  0  0
 33 31  1  0  0  0  0
 34 30  1  0  0  0  0
 35 36  1  0  0  0  0
 35 13  1  0  0  0  0
 36 37  1  6  0  0  0
 38 36  1  0  0  0  0
 39 42  1  0  0  0  0
 40 42  1  0  0  0  0
 41 38  1  0  0  0  0
 41 43  1  0  0  0  0
 42 41  1  0  0  0  0
 42 43  1  0  0  0  0
M  END
>  <MODEL>
5

>  <REMARK>
 VINA RESULT:      -8.1      3.239      8.116
  Name = 
  9 active torsions:
  status: ('A' for Active; 'I' for Inactive)
    1  A    between atoms: C_1  and  C_9
    2  A    between atoms: C_1  and  C_35
    3  A    between atoms: C_2  and  C_13
    4  A    between atoms: C_3  and  C_4
    5  A    between atoms: C_3  and  C_12
    6  A    between atoms: C_6  and  C_12
    7  A    between atoms: C_9  and  N_32
    8  A    between atoms: C_11  and  C_14
    9  A    between atoms: C_34  and  C_35
                            x       y       z     vdW  Elec       q    Type
                         _______ _______ _______ _____ _____    ______ ____

>  <TORSDO>
F 9

$$$$
=
 OpenBabel11062410173D

 43 48  0  0  1  0  0  0  0  0999 V2000
  160.4950  207.4020  154.9770 C   0  0  0  0  0  0  0  0  0  0  0  0
  161.9260  206.8100  150.1580 C   0  0  0  0  0  0  0  0  0  0  0  0
  161.9590  209.3820  149.0780 C   0  0  0  0  0  0  0  0  0  0  0  0
  161.2030  206.4760  152.8530 C   0  0  0  0  0  0  0  0  0  0  0  0
  160.5070  208.6860  154.4250 C   0  0  0  0  0  3  0  0  0  0  0  0
  160.1460  207.2260  156.2740 F   0  0  0  0  0  0  0  0  0  0  0  0
  161.2170  207.7740  152.2880 C   0  0  0  0  0  0  0  0  0  0  0  0
  160.8420  206.2980  154.1920 C   0  0  0  0  0  3  0  0  0  0  0  0
  160.8660  208.8720  153.0870 C   0  0  0  0  0  3  0  0  0  0  0  0
  161.6100  209.1810  150.3760 N   0  0  0  0  0  0  0  0  0  0  0  0
  161.5820  207.9400  150.9390 C   0  0  0  0  0  0  0  0  0  0  0  0
  161.9100  205.5340  150.7400 C   0  0  0  0  0  3  0  0  0  0  0  0
  162.2810  206.9940  148.8110 C   0  0  0  0  0  0  0  0  0  0  0  0
  162.3000  208.2850  148.2760 C   0  0  0  0  0  3  0  0  0  0  0  0
  161.5500  205.3690  152.0780 C   0  0  0  0  0  3  0  0  0  0  0  0
  161.9670  210.7520  148.5480 C   0  0  0  0  0  3  0  0  0  0  0  0
  161.5370  211.7980  149.2530 C   0  0  0  0  0  3  0  0  0  0  0  0
  162.8610  213.6370  148.6260 F   0  0  0  0  0  0  0  0  0  0  0  0
  161.5540  213.1850  148.6960 C   0  0  1  0  0  0  0  0  0  0  0  0
  160.9390  213.1870  147.3040 C   0  0  0  0  0  1  0  0  0  0  0  0
  160.7360  214.0790  149.6260 C   0  0  0  0  0  2  0  0  0  0  0  0
  159.3750  213.4870  149.9790 C   0  0  2  0  0  3  0  0  0  0  0  0
  157.0870  214.3840  151.7370 C   0  0  0  0  0  2  0  0  0  0  0  0
  158.5360  214.2790  152.2510 C   0  0  2  0  0  3  0  0  0  0  0  0
  158.2540  214.4160  149.4920 C   0  0  0  0  0  2  0  0  0  0  0  0
  159.3180  213.1990  151.4870 C   0  0  1  0  0  3  0  0  0  0  0  0
  158.7550  211.9510  151.6990 F   0  0  0  0  0  0  0  0  0  0  0  0
  156.9510  214.1280  150.2300 C   0  0  0  0  0  2  0  0  0  0  0  0
  158.5810  214.0600  153.7710 C   0  0  0  0  0  3  0  0  0  0  0  0
  156.3520  212.9580  154.1370 C   0  0  0  0  0  2  0  0  0  0  0  0
  158.1270  211.5900  153.8870 C   0  0  0  0  0  2  0  0  0  0  0  0
  156.9890  211.8290  154.6790 O   0  0  0  0  0  0  0  0  0  0  0  0
  159.1690  212.6860  154.1270 C   0  0  0  0  0  2  0  0  0  0  0  0
  157.1900  214.2100  154.4070 C   0  0  0  0  0  2  0  0  0  0  0  0
  162.6320  205.8370  147.9230 C   0  0  0  0  0  2  0  0  0  0  0  0
  161.3960  205.2590  147.2430 C   0  0  1  0  0  3  0  0  0  0  0  0
  161.2900  205.7870  145.8240 C   0  0  0  0  0  1  0  0  0  0  0  0
  161.3850  203.7320  147.2550 C   0  0  0  0  0  2  0  0  0  0  0  0
  160.5040  201.2410  147.0730 O   0  0  0  0  0  1  0  0  0  0  0  0
  159.4320  201.3750  149.2100 O   0  0  0  0  0  1  0  0  0  0  0  0
  160.7830  203.2160  148.4820 N   0  0  0  0  0  0  0  0  0  0  0  0
  160.4650  201.7790  148.3670 C   0  0  0  0  0  0  0  0  0  0  0  0
  161.7120  202.1750  148.9840 C   0  0  0  0  0  2  0  0  0  0  0  0
  1  6  1  0  0  0  0
  2 12  1  0  0  0  0
  2 11  1  0  0  0  0
  3 10  1  0  0  0  0
  4  8  1  0  0  0  0
  5  1  1  0  0  0  0
  7  4  2  0  0  0  0
  7  9  1  0  0  0  0
  8  1  2  0  0  0  0
  9  5  2  0  0  0  0
 10 11  2  0  0  0  0
 11  7  1  0  0  0  0
 12 15  2  0  0  0  0
 13  2  2  0  0  0  0
 14 13  1  0  0  0  0
 14  3  2  0  0  0  0
 15  4  1  0  0  0  0
 16  3  1  0  0  0  0
 16 17  2  0  0  0  0
 18 19  1  0  0  0  0
 19 20  1  6  0  0  0
 19 17  1  0  0  0  0
 19 21  1  0  0  0  0
 22 21  1  1  0  0  0
 22 26  1  0  0  0  0
 23 24  1  0  0  0  0
 24 29  1  1  0  0  0
 25 22  1  0  0  0  0
 25 28  1  0  0  0  0
 26 27  1  6  0  0  0
 26 24  1  0  0  0  0
 28 23  1  0  0  0  0
 29 33  1  0  0  0  0
 29 34  1  0  0  0  0
 30 34  1  0  0  0  0
 30 32  1  0  0  0  0
 31 33  1  0  0  0  0
 31 32  1  0  0  0  0
 35 13  1  0  0  0  0
 36 37  1  6  0  0  0
 36 38  1  0  0  0  0
 36 35  1  0  0  0  0
 38 41  1  0  0  0  0
 39 42  1  0  0  0  0
 41 43  1  0  0  0  0
 42 41  1  0  0  0  0
 42 43  1  0  0  0  0
 42 40  1  0  0  0  0
M  END
>  <MODEL>
6

>  <REMARK>
 VINA RESULT:      -8.0      3.767      7.961
  Name = 
  9 active torsions:
  status: ('A' for Active; 'I' for Inactive)
    1  A    between atoms: C_1  and  C_9
    2  A    between atoms: C_1  and  C_35
    3  A    between atoms: C_2  and  C_13
    4  A    between atoms: C_3  and  C_4
    5  A    between atoms: C_3  and  C_12
    6  A    between atoms: C_6  and  C_12
    7  A    between atoms: C_9  and  N_32
    8  A    between atoms: C_11  and  C_14
    9  A    between atoms: C_34  and  C_35
                            x       y       z     vdW  Elec       q    Type
                         _______ _______ _______ _____ _____    ______ ____

>  <TORSDO>
F 9

$$$$
=
 OpenBabel11062410173D

 43 48  0  0  1  0  0  0  0  0999 V2000
  160.6020  207.3180  155.2630 C   0  0  0  0  0  0  0  0  0  0  0  0
  161.7480  207.3680  150.3330 C   0  0  0  0  0  0  0  0  0  0  0  0
  161.9440  210.0640  149.6490 C   0  0  0  0  0  0  0  0  0  0  0  0
  161.1290  206.6780  152.9870 C   0  0  0  0  0  0  0  0  0  0  0  0
  160.6940  208.6670  154.9100 C   0  0  0  0  0  3  0  0  0  0  0  0
  160.3020  206.9720  156.5380 F   0  0  0  0  0  0  0  0  0  0  0  0
  161.2240  208.0430  152.6220 C   0  0  0  0  0  0  0  0  0  0  0  0
  160.8190  206.3250  154.3030 C   0  0  0  0  0  3  0  0  0  0  0  0
  161.0040  209.0290  153.5950 C   0  0  0  0  0  3  0  0  0  0  0  0
  161.6410  209.6940  150.9210 N   0  0  0  0  0  0  0  0  0  0  0  0
  161.5360  208.3870  151.2930 C   0  0  0  0  0  0  0  0  0  0  0  0
  161.6540  206.0220  150.7190 C   0  0  0  0  0  3  0  0  0  0  0  0
  162.0530  207.7290  149.0100 C   0  0  0  0  0  0  0  0  0  0  0  0
  162.1540  209.0820  148.6730 C   0  0  0  0  0  3  0  0  0  0  0  0
  161.3460  205.6810  152.0360 C   0  0  0  0  0  3  0  0  0  0  0  0
  162.0400  211.4950  149.3300 C   0  0  0  0  0  3  0  0  0  0  0  0
  161.2460  212.0890  148.4400 C   0  0  0  0  0  3  0  0  0  0  0  0
  160.6700  214.2750  149.0860 F   0  0  0  0  0  0  0  0  0  0  0  0
  161.3590  213.5470  148.1300 C   0  0  1  0  0  0  0  0  0  0  0  0
  162.8230  213.9600  148.1330 C   0  0  0  0  0  1  0  0  0  0  0  0
  160.7540  213.7850  146.7480 C   0  0  0  0  0  2  0  0  0  0  0  0
  161.4130  212.9500  145.6550 C   0  0  2  0  0  3  0  0  0  0  0  0
  161.9170  213.3720  142.7060 C   0  0  0  0  0  2  0  0  0  0  0  0
  160.5180  213.5110  143.3360 C   0  0  2  0  0  3  0  0  0  0  0  0
  162.6490  213.6780  145.1080 C   0  0  0  0  0  2  0  0  0  0  0  0
  160.3760  212.6110  144.5740 C   0  0  1  0  0  3  0  0  0  0  0  0
  160.4950  211.2770  144.2200 F   0  0  0  0  0  0  0  0  0  0  0  0
  163.0330  213.1420  143.7340 C   0  0  0  0  0  2  0  0  0  0  0  0
  159.4070  213.2580  142.3050 C   0  0  0  0  0  3  0  0  0  0  0  0
  160.3600  214.4510  140.3090 C   0  0  0  0  0  2  0  0  0  0  0  0
  160.7440  212.2330  140.4400 C   0  0  0  0  0  2  0  0  0  0  0  0
  160.3290  213.2560  139.5690 O   0  0  0  0  0  0  0  0  0  0  0  0
  159.6670  211.9780  141.4970 C   0  0  0  0  0  2  0  0  0  0  0  0
  159.2380  214.4500  141.3500 C   0  0  0  0  0  2  0  0  0  0  0  0
  162.2650  206.6980  147.9400 C   0  0  0  0  0  2  0  0  0  0  0  0
  160.9980  205.8870  147.6890 C   0  0  1  0  0  3  0  0  0  0  0  0
  160.2260  206.4770  146.5230 C   0  0  0  0  0  1  0  0  0  0  0  0
  161.2940  204.4070  147.4490 C   0  0  0  0  0  2  0  0  0  0  0  0
  160.8840  201.8720  146.8040 O   0  0  0  0  0  1  0  0  0  0  0  0
  159.7950  201.4290  148.8900 O   0  0  0  0  0  1  0  0  0  0  0  0
  160.7900  203.5830  148.5440 N   0  0  0  0  0  0  0  0  0  0  0  0
  160.7410  202.1550  148.1690 C   0  0  0  0  0  0  0  0  0  0  0  0
  161.8910  202.6530  148.8920 C   0  0  0  0  0  2  0  0  0  0  0  0
  1  6  1  0  0  0  0
  2 12  1  0  0  0  0
  2 11  1  0  0  0  0
  3 10  1  0  0  0  0
  4  8  1  0  0  0  0
  5  1  1  0  0  0  0
  7  4  2  0  0  0  0
  7  9  1  0  0  0  0
  8  1  2  0  0  0  0
  9  5  2  0  0  0  0
 10 11  2  0  0  0  0
 11  7  1  0  0  0  0
 12 15  2  0  0  0  0
 13  2  2  0  0  0  0
 14 13  1  0  0  0  0
 14  3  2  0  0  0  0
 15  4  1  0  0  0  0
 16  3  1  0  0  0  0
 17 16  2  0  0  0  0
 19 20  1  6  0  0  0
 19 17  1  0  0  0  0
 19 18  1  0  0  0  0
 21 19  1  0  0  0  0
 22 21  1  1  0  0  0
 23 24  1  0  0  0  0
 23 28  1  0  0  0  0
 24 29  1  6  0  0  0
 24 26  1  0  0  0  0
 25 22  1  0  0  0  0
 26 27  1  6  0  0  0
 26 22  1  0  0  0  0
 28 25  1  0  0  0  0
 30 34  1  0  0  0  0
 31 33  1  0  0  0  0
 32 30  1  0  0  0  0
 32 31  1  0  0  0  0
 33 29  1  0  0  0  0
 34 29  1  0  0  0  0
 35 13  1  0  0  0  0
 36 37  1  6  0  0  0
 36 35  1  0  0  0  0
 38 36  1  0  0  0  0
 38 41  1  0  0  0  0
 39 42  1  0  0  0  0
 41 43  1  0  0  0  0
 42 41  1  0  0  0  0
 42 40  1  0  0  0  0
 42 43  1  0  0  0  0
M  END
>  <MODEL>
7

>  <REMARK>
 VINA RESULT:      -7.9      3.437      5.720
  Name = 
  9 active torsions:
  status: ('A' for Active; 'I' for Inactive)
    1  A    between atoms: C_1  and  C_9
    2  A    between atoms: C_1  and  C_35
    3  A    between atoms: C_2  and  C_13
    4  A    between atoms: C_3  and  C_4
    5  A    between atoms: C_3  and  C_12
    6  A    between atoms: C_6  and  C_12
    7  A    between atoms: C_9  and  N_32
    8  A    between atoms: C_11  and  C_14
    9  A    between atoms: C_34  and  C_35
                            x       y       z     vdW  Elec       q    Type
                         _______ _______ _______ _____ _____    ______ ____

>  <TORSDO>
F 9

$$$$
=
 OpenBabel11062410173D

 43 48  0  0  1  0  0  0  0  0999 V2000
  161.2150  203.9100  146.3520 C   0  0  0  0  0  0  0  0  0  0  0  0
  161.4310  206.9430  150.3980 C   0  0  0  0  0  0  0  0  0  0  0  0
  161.9060  209.4960  149.3810 C   0  0  0  0  0  0  0  0  0  0  0  0
  161.1980  204.7870  148.6100 C   0  0  0  0  0  0  0  0  0  0  0  0
  161.4610  205.1910  145.8520 C   0  0  0  0  0  3  0  0  0  0  0  0
  161.1030  202.8610  145.5020 F   0  0  0  0  0  0  0  0  0  0  0  0
  161.4480  206.0880  148.1100 C   0  0  0  0  0  0  0  0  0  0  0  0
  161.0840  203.7080  147.7290 C   0  0  0  0  0  3  0  0  0  0  0  0
  161.5770  206.2760  146.7260 C   0  0  0  0  0  3  0  0  0  0  0  0
  161.7930  208.4290  148.5470 N   0  0  0  0  0  0  0  0  0  0  0  0
  161.5610  207.1670  149.0060 C   0  0  0  0  0  0  0  0  0  0  0  0
  161.1780  205.6470  150.8710 C   0  0  0  0  0  3  0  0  0  0  0  0
  161.5540  208.0320  151.2790 C   0  0  0  0  0  0  0  0  0  0  0  0
  161.7880  209.3090  150.7640 C   0  0  0  0  0  3  0  0  0  0  0  0
  161.0640  204.5770  149.9830 C   0  0  0  0  0  3  0  0  0  0  0  0
  162.1540  210.8240  148.8050 C   0  0  0  0  0  3  0  0  0  0  0  0
  161.5270  211.2650  147.7160 C   0  0  0  0  0  3  0  0  0  0  0  0
  160.6260  213.3670  147.1700 F   0  0  0  0  0  0  0  0  0  0  0  0
  161.7930  212.6210  147.1450 C   0  0  1  0  0  0  0  0  0  0  0  0
  162.8630  213.3230  147.9670 C   0  0  0  0  0  1  0  0  0  0  0  0
  162.2750  212.4430  145.7070 C   0  0  0  0  0  2  0  0  0  0  0  0
  161.4380  213.2210  144.6970 C   0  0  2  0  0  3  0  0  0  0  0  0
  159.9970  212.4760  142.1470 C   0  0  0  0  0  2  0  0  0  0  0  0
  161.4870  212.1610  142.3790 C   0  0  2  0  0  3  0  0  0  0  0  0
  160.0030  212.6740  144.6690 C   0  0  0  0  0  2  0  0  0  0  0  0
  162.1300  213.1890  143.3260 C   0  0  1  0  0  3  0  0  0  0  0  0
  162.0980  214.4530  142.7610 F   0  0  0  0  0  0  0  0  0  0  0  0
  159.2960  213.0670  143.3760 C   0  0  0  0  0  2  0  0  0  0  0  0
  162.2520  212.0390  141.0520 C   0  0  0  0  0  3  0  0  0  0  0  0
  161.2040  209.9570  140.1140 C   0  0  0  0  0  2  0  0  0  0  0  0
  160.3340  211.9220  139.4320 C   0  0  0  0  0  2  0  0  0  0  0  0
  160.7840  210.6690  138.9780 O   0  0  0  0  0  0  0  0  0  0  0  0
  161.5220  212.7610  139.9100 C   0  0  0  0  0  2  0  0  0  0  0  0
  162.4910  210.5710  140.6690 C   0  0  0  0  0  2  0  0  0  0  0  0
  161.4490  207.8570  152.7660 C   0  0  0  0  0  2  0  0  0  0  0  0
  161.0860  209.1670  153.4570 C   0  0  1  0  0  3  0  0  0  0  0  0
  159.5770  209.3100  153.5390 C   0  0  0  0  0  1  0  0  0  0  0  0
  161.7170  209.2880  154.8430 C   0  0  0  0  0  2  0  0  0  0  0  0
  160.4460  209.9760  157.0620 O   0  0  0  0  0  1  0  0  0  0  0  0
  160.9270  212.2960  156.7190 O   0  0  0  0  0  1  0  0  0  0  0  0
  161.8900  210.6870  155.2250 N   0  0  0  0  0  0  0  0  0  0  0  0
  161.2970  210.9640  156.5490 C   0  0  0  0  0  0  0  0  0  0  0  0
  162.7120  210.6720  156.4590 C   0  0  0  0  0  2  0  0  0  0  0  0
  1  8  1  0  0  0  0
  2 12  1  0  0  0  0
  2 13  1  0  0  0  0
  3 14  1  0  0  0  0
  4 15  1  0  0  0  0
  5  1  2  0  0  0  0
  5  9  1  0  0  0  0
  6  1  1  0  0  0  0
  7  4  1  0  0  0  0
  7 11  1  0  0  0  0
  8  4  2  0  0  0  0
  9  7  2  0  0  0  0
 10 11  1  0  0  0  0
 10  3  2  0  0  0  0
 11  2  2  0  0  0  0
 13 35  1  0  0  0  0
 14 13  2  0  0  0  0
 15 12  2  0  0  0  0
 16  3  1  0  0  0  0
 17 16  2  0  0  0  0
 19 18  1  0  0  0  0
 19 17  1  0  0  0  0
 19 20  1  1  0  0  0
 21 19  1  0  0  0  0
 22 21  1  1  0  0  0
 23 24  1  0  0  0  0
 23 28  1  0  0  0  0
 24 29  1  6  0  0  0
 24 26  1  0  0  0  0
 25 22  1  0  0  0  0
 26 27  1  6  0  0  0
 26 22  1  0  0  0  0
 28 25  1  0  0  0  0
 30 34  1  0  0  0  0
 31 33  1  0  0  0  0
 32 31  1  0  0  0  0
 32 30  1  0  0  0  0
 33 29  1  0  0  0  0
 34 29  1  0  0  0  0
 35 36  1  0  0  0  0
 36 37  1  1  0  0  0
 36 38  1  0  0  0  0
 38 41  1  0  0  0  0
 41 43  1  0  0  0  0
 41 42  1  0  0  0  0
 42 40  1  0  0  0  0
 42 39  1  0  0  0  0
 43 42  1  0  0  0  0
M  END
>  <MODEL>
8

>  <REMARK>
 VINA RESULT:      -7.8      1.626      2.083
  Name = 
  9 active torsions:
  status: ('A' for Active; 'I' for Inactive)
    1  A    between atoms: C_1  and  C_9
    2  A    between atoms: C_1  and  C_35
    3  A    between atoms: C_2  and  C_13
    4  A    between atoms: C_3  and  C_4
    5  A    between atoms: C_3  and  C_12
    6  A    between atoms: C_6  and  C_12
    7  A    between atoms: C_9  and  N_32
    8  A    between atoms: C_11  and  C_14
    9  A    between atoms: C_34  and  C_35
                            x       y       z     vdW  Elec       q    Type
                         _______ _______ _______ _____ _____    ______ ____

>  <TORSDO>
F 9

$$$$
=
 OpenBabel11062410173D

 43 48  0  0  1  0  0  0  0  0999 V2000
  162.0050  213.0930  147.3360 C   0  0  0  0  0  0  0  0  0  0  0  0
  159.9980  212.7120  151.9670 C   0  0  0  0  0  0  0  0  0  0  0  0
  160.7210  210.1770  152.8770 C   0  0  0  0  0  0  0  0  0  0  0  0
  160.8370  213.5310  149.4120 C   0  0  0  0  0  0  0  0  0  0  0  0
  162.3560  211.8220  147.7970 C   0  0  0  0  0  3  0  0  0  0  0  0
  162.4010  213.5000  146.1060 F   0  0  0  0  0  0  0  0  0  0  0  0
  161.1890  212.2440  149.8860 C   0  0  0  0  0  0  0  0  0  0  0  0
  161.2470  213.9470  148.1420 C   0  0  0  0  0  3  0  0  0  0  0  0
  161.9500  211.3980  149.0660 C   0  0  0  0  0  3  0  0  0  0  0  0
  161.1040  210.6050  151.6450 N   0  0  0  0  0  0  0  0  0  0  0  0
  160.7700  211.8360  151.1660 C   0  0  0  0  0  0  0  0  0  0  0  0
  159.6660  213.9850  151.4800 C   0  0  0  0  0  3  0  0  0  0  0  0
  159.5830  212.2860  153.2400 C   0  0  0  0  0  0  0  0  0  0  0  0
  159.9510  211.0170  153.6930 C   0  0  0  0  0  3  0  0  0  0  0  0
  160.0820  214.3900  150.2110 C   0  0  0  0  0  3  0  0  0  0  0  0
  161.1240  208.8360  153.3200 C   0  0  0  0  0  3  0  0  0  0  0  0
  161.2680  207.8130  152.4790 C   0  0  0  0  0  3  0  0  0  0  0  0
  162.7050  206.5800  153.8720 F   0  0  0  0  0  0  0  0  0  0  0  0
  161.6790  206.4550  152.9490 C   0  0  1  0  0  0  0  0  0  0  0  0
  160.4950  205.7550  153.5970 C   0  0  0  0  0  1  0  0  0  0  0  0
  162.1550  205.6580  151.7360 C   0  0  0  0  0  2  0  0  0  0  0  0
  161.0200  204.9480  151.0060 C   0  0  2  0  0  3  0  0  0  0  0  0
  160.8410  203.3640  148.4390 C   0  0  0  0  0  2  0  0  0  0  0  0
  161.4380  204.7830  148.4970 C   0  0  2  0  0  3  0  0  0  0  0  0
  161.3050  203.4410  150.9250 C   0  0  0  0  0  2  0  0  0  0  0  0
  160.8060  205.6040  149.6330 C   0  0  1  0  0  3  0  0  0  0  0  0
  159.4500  205.7780  149.4100 F   0  0  0  0  0  0  0  0  0  0  0  0
  160.4840  202.7910  149.8170 C   0  0  0  0  0  2  0  0  0  0  0  0
  161.3320  205.4960  147.1400 C   0  0  0  0  0  3  0  0  0  0  0  0
  163.4500  204.7020  146.0450 C   0  0  0  0  0  2  0  0  0  0  0  0
  161.5740  203.5400  145.5810 C   0  0  0  0  0  2  0  0  0  0  0  0
  162.7060  204.1360  144.9950 O   0  0  0  0  0  0  0  0  0  0  0  0
  160.6220  204.6210  146.0960 C   0  0  0  0  0  2  0  0  0  0  0  0
  162.7120  205.9170  146.6130 C   0  0  0  0  0  2  0  0  0  0  0  0
  158.7430  213.1570  154.1280 C   0  0  0  0  0  2  0  0  0  0  0  0
  158.9710  212.8370  155.6010 C   0  0  1  0  0  3  0  0  0  0  0  0
  159.7000  213.9850  156.2750 C   0  0  0  0  0  1  0  0  0  0  0  0
  157.6710  212.5150  156.3350 C   0  0  0  0  0  2  0  0  0  0  0  0
  155.6590  212.0190  154.6870 O   0  0  0  0  0  1  0  0  0  0  0  0
  154.8940  214.2850  154.8020 O   0  0  0  0  0  1  0  0  0  0  0  0
  156.7100  213.6090  156.2140 N   0  0  0  0  0  0  0  0  0  0  0  0
  155.5330  213.2090  155.4150 C   0  0  0  0  0  0  0  0  0  0  0  0
  155.4650  213.1280  156.8580 C   0  0  0  0  0  2  0  0  0  0  0  0
  1  5  2  0  0  0  0
  1  8  1  0  0  0  0
  2 13  1  0  0  0  0
  3 16  1  0  0  0  0
  3 14  1  0  0  0  0
  4  7  1  0  0  0  0
  4 15  1  0  0  0  0
  5  9  1  0  0  0  0
  6  1  1  0  0  0  0
  7 11  1  0  0  0  0
  8  4  2  0  0  0  0
  9  7  2  0  0  0  0
 10  3  2  0  0  0  0
 11 10  1  0  0  0  0
 11  2  2  0  0  0  0
 12  2  1  0  0  0  0
 13 14  2  0  0  0  0
 13 35  1  0  0  0  0
 15 12  2  0  0  0  0
 17 19  1  0  0  0  0
 17 16  2  0  0  0  0
 19 20  1  1  0  0  0
 19 18  1  0  0  0  0
 21 19  1  0  0  0  0
 22 21  1  6  0  0  0
 23 24  1  0  0  0  0
 23 28  1  0  0  0  0
 24 29  1  6  0  0  0
 24 26  1  0  0  0  0
 25 22  1  0  0  0  0
 26 27  1  6  0  0  0
 26 22  1  0  0  0  0
 28 25  1  0  0  0  0
 30 34  1  0  0  0  0
 31 33  1  0  0  0  0
 32 31  1  0  0  0  0
 32 30  1  0  0  0  0
 33 29  1  0  0  0  0
 34 29  1  0  0  0  0
 35 36  1  0  0  0  0
 36 37  1  1  0  0  0
 36 38  1  0  0  0  0
 39 42  1  0  0  0  0
 40 42  1  0  0  0  0
 41 38  1  0  0  0  0
 41 43  1  0  0  0  0
 42 41  1  0  0  0  0
 42 43  1  0  0  0  0
M  END
>  <MODEL>
9

>  <REMARK>
 VINA RESULT:      -7.7      3.335      8.268
  Name = 
  9 active torsions:
  status: ('A' for Active; 'I' for Inactive)
    1  A    between atoms: C_1  and  C_9
    2  A    between atoms: C_1  and  C_35
    3  A    between atoms: C_2  and  C_13
    4  A    between atoms: C_3  and  C_4
    5  A    between atoms: C_3  and  C_12
    6  A    between atoms: C_6  and  C_12
    7  A    between atoms: C_9  and  N_32
    8  A    between atoms: C_11  and  C_14
    9  A    between atoms: C_34  and  C_35
                            x       y       z     vdW  Elec       q    Type
                         _______ _______ _______ _____ _____    ______ ____

>  <TORSDO>
F 9

$$$$
