=
 OpenBabel11062410193D

 43 48  0  0  1  0  0  0  0  0999 V2000
  160.9380  201.5330  148.6900 C   0  0  0  0  0  0  0  0  0  0  0  0
  161.2500  205.7100  151.4570 C   0  0  0  0  0  0  0  0  0  0  0  0
  161.1050  203.0940  150.5330 C   0  0  0  0  0  0  0  0  0  0  0  0
  160.9120  202.5960  147.7810 C   0  0  0  0  0  3  0  0  0  0  0  0
  160.8690  200.2580  148.2380 F   0  0  0  0  0  0  0  0  0  0  0  0
  161.0830  204.1730  149.6110 C   0  0  0  0  0  0  0  0  0  0  0  0
  161.0320  201.7800  150.0630 C   0  0  0  0  0  3  0  0  0  0  0  0
  160.9840  203.9150  148.2380 C   0  0  0  0  0  3  0  0  0  0  0  0
  161.1190  206.7640  149.3640 C   0  0  0  0  0  2  0  0  0  0  0  0
  161.1580  205.4760  150.1120 C   0  0  0  0  0  0  0  0  0  0  0  0
  161.2640  204.6680  152.3870 C   0  0  0  0  0  3  0  0  0  0  0  0
  161.2980  207.0940  151.7440 N   0  0  0  0  0  0  0  0  0  0  0  0
  161.2030  207.8280  150.4800 C   0  0  1  0  0  3  0  0  0  0  0  0
  161.1940  203.3490  151.9130 C   0  0  0  0  0  3  0  0  0  0  0  0
  162.6790  209.5730  151.3210 O   0  0  0  0  0  1  0  0  0  0  0  0
  162.4170  208.7300  150.2350 C   0  0  2  0  0  3  0  0  0  0  0  0
  162.2130  209.5490  148.9660 C   0  0  0  0  0  2  0  0  0  0  0  0
  162.0950  211.0370  149.2740 C   0  0  0  0  0  2  0  0  0  0  0  0
  161.8990  211.8260  147.9910 C   0  0  2  0  0  3  0  0  0  0  0  0
  163.1720  212.5620  147.6130 C   0  0  0  0  0  1  0  0  0  0  0  0
  160.6790  212.7630  148.0270 C   0  0  0  0  0  2  0  0  0  0  0  0
  159.7400  212.7440  146.8080 C   0  0  2  0  0  3  0  0  0  0  0  0
  160.9710  213.1350  143.1930 N   0  0  0  0  0  0  0  0  0  0  0  0
  160.3220  212.5700  144.3400 C   0  0  0  0  0  0  0  0  0  0  0  0
  160.4140  213.2250  145.6080 N   0  0  0  0  0  2  0  0  0  0  0  0
  161.6640  214.4090  143.2910 C   0  0  0  0  0  1  0  0  0  0  0  0
  159.6800  211.4880  144.2330 O   0  0  0  0  0  0  0  0  0  0  0  0
  160.9710  212.4370  141.9130 C   0  0  0  0  0  2  0  0  0  0  0  0
  162.3470  211.8590  141.6200 C   0  0  0  0  0  2  0  0  0  0  0  0
  163.3320  210.4080  140.3790 F   0  0  0  0  0  0  0  0  0  0  0  0
  162.3770  211.3220  140.3330 O   0  0  0  0  0  0  0  0  0  0  0  0
  157.4160  213.1730  146.0260 C   0  0  0  0  0  2  0  0  0  0  0  0
  158.4630  213.5350  147.0610 C   0  0  0  0  0  3  0  0  0  0  0  0
  157.3360  212.5850  147.4180 C   0  0  0  0  0  2  0  0  0  0  0  0
  160.8490  207.6660  153.0070 C   0  0  0  0  0  2  0  0  0  0  0  0
  160.3020  209.0660  152.7760 C   0  0  0  0  0  2  0  0  0  0  0  0
  159.9050  210.8890  155.9750 C   0  0  1  0  0  3  0  0  0  0  0  0
  161.1130  211.1590  155.4010 N   0  0  0  0  0  0  0  0  0  0  0  0
  160.0790  212.2290  155.7380 C   0  0  0  0  0  0  0  0  0  0  0  0
  159.4430  210.0940  154.8380 N   0  0  0  0  0  0  0  0  0  0  0  0
  160.4590  209.8800  154.0100 C   0  0  0  0  0  0  0  0  0  0  0  0
  159.5830  213.4060  155.5560 N   0  0  0  0  0  2  0  0  0  0  0  0
  161.7160  210.5300  154.3420 N   0  0  0  0  0  2  0  0  0  0  0  0
  1  7  1  0  0  0  0
  2 12  1  0  0  0  0
  2 11  1  0  0  0  0
  3 14  1  0  0  0  0
  4  8  1  0  0  0  0
  4  1  2  0  0  0  0
  5  1  1  0  0  0  0
  6 10  1  0  0  0  0
  6  3  1  0  0  0  0
  7  3  2  0  0  0  0
  8  6  2  0  0  0  0
  9 10  1  0  0  0  0
  9 13  1  0  0  0  0
 10  2  2  0  0  0  0
 12 35  1  0  0  0  0
 13 16  1  6  0  0  0
 13 12  1  0  0  0  0
 14 11  2  0  0  0  0
 16 15  1  1  0  0  0
 17 18  1  0  0  0  0
 17 16  1  0  0  0  0
 19 20  1  1  0  0  0
 19 21  1  0  0  0  0
 19 18  1  0  0  0  0
 22 33  1  0  0  0  0
 22 21  1  1  0  0  0
 23 26  1  0  0  0  0
 23 24  1  0  0  0  0
 24 25  1  0  0  0  0
 25 22  1  0  0  0  0
 27 24  2  0  0  0  0
 28 23  1  0  0  0  0
 29 28  1  0  0  0  0
 31 30  1  0  0  0  0
 31 29  1  0  0  0  0
 32 33  1  0  0  0  0
 32 34  1  0  0  0  0
 33 34  1  0  0  0  0
 36 35  1  0  0  0  0
 36 41  1  0  0  0  0
 37 40  1  6  0  0  0
 38 39  1  0  0  0  0
 38 37  1  0  0  0  0
 39 37  1  0  0  0  0
 41 43  1  0  0  0  0
 41 40  2  0  0  0  0
 42 39  2  0  0  0  0
 43 38  1  0  0  0  0
M  END
>  <MODEL>
1

>  <REMARK>
 VINA RESULT:      -8.7      0.000      0.000
  Name = 
  14 active torsions:
  status: ('A' for Active; 'I' for Inactive)
    1  A    between atoms: C_1  and  C_28
    2  A    between atoms: C_1  and  N_34
    3  A    between atoms: C_2  and  C_6
    4  A    between atoms: C_2  and  C_13
    5  A    between atoms: C_3  and  C_4
    6  A    between atoms: C_3  and  C_12
    7  A    between atoms: C_4  and  C_15
    8  A    between atoms: C_4  and  N_22
    9  A    between atoms: C_6  and  C_12
   10  A    between atoms: N_11  and  C_40
   11  A    between atoms: C_13  and  C_38
   12  A    between atoms: C_26  and  O_31
   13  A    between atoms: C_26  and  C_40
   14  A    between atoms: C_28  and  C_35
                            x       y       z     vdW  Elec       q    Type
                         _______ _______ _______ _____ _____    ______ ____

>  <TORSDO>
F 14

$$$$
=
 OpenBabel11062410193D

 43 48  0  0  1  0  0  0  0  0999 V2000
  161.1420  200.8270  147.3140 C   0  0  0  0  0  0  0  0  0  0  0  0
  161.1420  205.1890  149.8000 C   0  0  0  0  0  0  0  0  0  0  0  0
  161.1660  202.5140  149.0510 C   0  0  0  0  0  0  0  0  0  0  0  0
  161.0890  201.8250  146.3350 C   0  0  0  0  0  3  0  0  0  0  0  0
  161.1560  199.5230  146.9480 F   0  0  0  0  0  0  0  0  0  0  0  0
  161.1160  203.5260  148.0580 C   0  0  0  0  0  0  0  0  0  0  0  0
  161.1790  201.1700  148.6700 C   0  0  0  0  0  3  0  0  0  0  0  0
  161.0760  203.1740  146.7040 C   0  0  0  0  0  3  0  0  0  0  0  0
  161.0220  206.0940  147.6380 C   0  0  0  0  0  2  0  0  0  0  0  0
  161.1060  204.8620  148.4720 C   0  0  0  0  0  0  0  0  0  0  0  0
  161.1820  204.2120  150.7990 C   0  0  0  0  0  3  0  0  0  0  0  0
  161.1070  206.5890  149.9950 N   0  0  0  0  0  0  0  0  0  0  0  0
  161.0140  207.2320  148.6820 C   0  0  1  0  0  3  0  0  0  0  0  0
  161.1970  202.8630  150.4130 C   0  0  0  0  0  3  0  0  0  0  0  0
  163.4050  207.6590  148.8540 O   0  0  0  0  0  1  0  0  0  0  0  0
  162.1850  208.1810  148.4110 C   0  0  2  0  0  3  0  0  0  0  0  0
  161.9230  209.5350  149.0620 C   0  0  0  0  0  2  0  0  0  0  0  0
  161.6510  210.6130  148.0180 C   0  0  0  0  0  2  0  0  0  0  0  0
  161.9510  211.9870  148.5910 C   0  0  2  0  0  3  0  0  0  0  0  0
  161.1970  212.2050  149.8890 C   0  0  0  0  0  1  0  0  0  0  0  0
  161.7220  213.1330  147.5890 C   0  0  0  0  0  2  0  0  0  0  0  0
  160.7640  212.8600  146.4150 C   0  0  2  0  0  3  0  0  0  0  0  0
  161.6160  212.8620  142.6710 N   0  0  0  0  0  0  0  0  0  0  0  0
  160.9570  212.5310  143.9020 C   0  0  0  0  0  0  0  0  0  0  0  0
  161.4110  213.1040  145.1310 N   0  0  0  0  0  2  0  0  0  0  0  0
  162.6980  213.8320  142.6520 C   0  0  0  0  0  1  0  0  0  0  0  0
  159.9860  211.7260  143.9020 O   0  0  0  0  0  0  0  0  0  0  0  0
  161.2320  212.2190  141.4210 C   0  0  0  0  0  2  0  0  0  0  0  0
  162.3520  211.3250  140.9140 C   0  0  0  0  0  2  0  0  0  0  0  0
  163.7480  212.1450  139.5010 F   0  0  0  0  0  0  0  0  0  0  0  0
  162.5680  211.5500  139.5540 O   0  0  0  0  0  0  0  0  0  0  0  0
  158.2790  212.7640  146.3290 C   0  0  0  0  0  2  0  0  0  0  0  0
  159.4780  213.6690  146.5300 C   0  0  0  0  0  3  0  0  0  0  0  0
  158.6780  213.1870  147.7260 C   0  0  0  0  0  2  0  0  0  0  0  0
  160.5870  207.2180  151.2030 C   0  0  0  0  0  2  0  0  0  0  0  0
  161.6120  207.1170  152.3210 C   0  0  0  0  0  2  0  0  0  0  0  0
  160.4870  209.8040  154.6090 C   0  0  1  0  0  3  0  0  0  0  0  0
  160.8580  208.6890  155.3030 N   0  0  0  0  0  0  0  0  0  0  0  0
  161.4930  210.0610  155.5060 C   0  0  0  0  0  0  0  0  0  0  0  0
  160.9070  209.2500  153.3210 N   0  0  0  0  0  0  0  0  0  0  0  0
  161.1910  207.9610  153.4700 C   0  0  0  0  0  0  0  0  0  0  0  0
  162.4790  210.7930  155.9010 N   0  0  0  0  0  2  0  0  0  0  0  0
  161.1240  207.4320  154.8230 N   0  0  0  0  0  2  0  0  0  0  0  0
  1  7  1  0  0  0  0
  2 12  1  0  0  0  0
  2 11  1  0  0  0  0
  3 14  1  0  0  0  0
  4  8  1  0  0  0  0
  4  1  2  0  0  0  0
  5  1  1  0  0  0  0
  6 10  1  0  0  0  0
  6  3  1  0  0  0  0
  7  3  2  0  0  0  0
  8  6  2  0  0  0  0
  9 10  1  0  0  0  0
  9 13  1  0  0  0  0
 10  2  2  0  0  0  0
 12 35  1  0  0  0  0
 13 16  1  6  0  0  0
 13 12  1  0  0  0  0
 14 11  2  0  0  0  0
 16 15  1  1  0  0  0
 16 17  1  0  0  0  0
 18 19  1  0  0  0  0
 18 17  1  0  0  0  0
 19 20  1  1  0  0  0
 21 19  1  0  0  0  0
 22 33  1  0  0  0  0
 22 21  1  1  0  0  0
 23 24  1  0  0  0  0
 24 25  1  0  0  0  0
 25 22  1  0  0  0  0
 26 23  1  0  0  0  0
 27 24  2  0  0  0  0
 28 23  1  0  0  0  0
 29 28  1  0  0  0  0
 30 31  1  0  0  0  0
 31 29  1  0  0  0  0
 32 33  1  0  0  0  0
 32 34  1  0  0  0  0
 33 34  1  0  0  0  0
 35 36  1  0  0  0  0
 36 41  1  0  0  0  0
 37 40  1  6  0  0  0
 37 38  1  0  0  0  0
 37 39  1  0  0  0  0
 38 39  1  0  0  0  0
 39 42  2  0  0  0  0
 40 41  2  0  0  0  0
 41 43  1  0  0  0  0
 43 38  1  0  0  0  0
M  END
>  <MODEL>
2

>  <REMARK>
 VINA RESULT:      -7.9      1.453      1.829
  Name = 
  14 active torsions:
  status: ('A' for Active; 'I' for Inactive)
    1  A    between atoms: C_1  and  C_28
    2  A    between atoms: C_1  and  N_34
    3  A    between atoms: C_2  and  C_6
    4  A    between atoms: C_2  and  C_13
    5  A    between atoms: C_3  and  C_4
    6  A    between atoms: C_3  and  C_12
    7  A    between atoms: C_4  and  C_15
    8  A    between atoms: C_4  and  N_22
    9  A    between atoms: C_6  and  C_12
   10  A    between atoms: N_11  and  C_40
   11  A    between atoms: C_13  and  C_38
   12  A    between atoms: C_26  and  O_31
   13  A    between atoms: C_26  and  C_40
   14  A    between atoms: C_28  and  C_35
                            x       y       z     vdW  Elec       q    Type
                         _______ _______ _______ _____ _____    ______ ____

>  <TORSDO>
F 14

$$$$
=
 OpenBabel11062410193D

 43 48  0  0  1  0  0  0  0  0999 V2000
  160.9370  202.2260  146.6860 C   0  0  0  0  0  0  0  0  0  0  0  0
  161.7350  206.5140  149.1710 C   0  0  0  0  0  0  0  0  0  0  0  0
  161.3350  204.5460  147.2520 C   0  0  0  0  0  0  0  0  0  0  0  0
  160.9440  201.8850  148.0430 C   0  0  0  0  0  3  0  0  0  0  0  0
  160.7390  201.2650  145.7510 F   0  0  0  0  0  0  0  0  0  0  0  0
  161.3390  204.2010  148.6280 C   0  0  0  0  0  0  0  0  0  0  0  0
  161.1330  203.5530  146.2900 C   0  0  0  0  0  3  0  0  0  0  0  0
  161.1450  202.8700  149.0140 C   0  0  0  0  0  3  0  0  0  0  0  0
  161.6260  205.1120  151.0500 C   0  0  0  0  0  2  0  0  0  0  0  0
  161.5430  205.2180  149.5670 C   0  0  0  0  0  0  0  0  0  0  0  0
  161.7450  206.8790  147.8230 C   0  0  0  0  0  3  0  0  0  0  0  0
  161.9370  207.3730  150.2760 N   0  0  0  0  0  0  0  0  0  0  0  0
  161.9000  206.5640  151.4970 C   0  0  1  0  0  3  0  0  0  0  0  0
  161.5400  205.8800  146.8590 C   0  0  0  0  0  3  0  0  0  0  0  0
  160.5790  208.3970  152.4060 O   0  0  0  0  0  1  0  0  0  0  0  0
  160.8020  207.0170  152.4650 C   0  0  2  0  0  3  0  0  0  0  0  0
  161.1530  206.5980  153.8880 C   0  0  0  0  0  2  0  0  0  0  0  0
  160.0120  206.8930  154.8550 C   0  0  0  0  0  2  0  0  0  0  0  0
  160.5440  207.5690  156.1070 C   0  0  2  0  0  3  0  0  0  0  0  0
  160.6480  206.5770  157.2500 C   0  0  0  0  0  1  0  0  0  0  0  0
  159.7560  208.8300  156.5050 C   0  0  0  0  0  2  0  0  0  0  0  0
  160.5170  210.1680  156.4960 C   0  0  2  0  0  3  0  0  0  0  0  0
  159.3980  212.9460  154.0950 N   0  0  0  0  0  0  0  0  0  0  0  0
  159.6030  212.2260  155.3180 C   0  0  0  0  0  0  0  0  0  0  0  0
  160.2270  210.9390  155.2940 N   0  0  0  0  0  2  0  0  0  0  0  0
  159.8850  212.4100  152.8340 C   0  0  0  0  0  1  0  0  0  0  0  0
  159.2220  212.7210  156.4140 O   0  0  0  0  0  0  0  0  0  0  0  0
  158.6810  214.2150  154.0840 C   0  0  0  0  0  2  0  0  0  0  0  0
  157.2920  214.0380  153.4920 C   0  0  0  0  0  2  0  0  0  0  0  0
  156.0340  213.5090  155.1520 F   0  0  0  0  0  0  0  0  0  0  0  0
  156.6400  212.9690  154.1080 O   0  0  0  0  0  0  0  0  0  0  0  0
  162.7680  210.9500  155.7770 C   0  0  0  0  0  2  0  0  0  0  0  0
  162.0200  209.9680  156.6570 C   0  0  0  0  0  3  0  0  0  0  0  0
  162.6380  211.2150  157.2610 C   0  0  0  0  0  2  0  0  0  0  0  0
  162.6880  208.6190  150.1960 C   0  0  0  0  0  2  0  0  0  0  0  0
  161.8130  209.7810  150.6380 C   0  0  0  0  0  2  0  0  0  0  0  0
  161.4620  212.8820  148.6440 C   0  0  1  0  0  3  0  0  0  0  0  0
  161.9940  211.8720  147.8960 N   0  0  0  0  0  0  0  0  0  0  0  0
  160.7040  212.6030  147.5350 C   0  0  0  0  0  0  0  0  0  0  0  0
  161.2350  212.0210  149.8050 N   0  0  0  0  0  0  0  0  0  0  0  0
  161.8360  210.8530  149.6090 C   0  0  0  0  0  0  0  0  0  0  0  0
  159.5740  212.6440  146.9140 N   0  0  0  0  0  2  0  0  0  0  0  0
  162.4690  210.6560  148.3150 N   0  0  0  0  0  2  0  0  0  0  0  0
  1  4  1  0  0  0  0
  2 10  1  0  0  0  0
  2 12  1  0  0  0  0
  3  6  1  0  0  0  0
  4  8  2  0  0  0  0
  5  1  1  0  0  0  0
  6  8  1  0  0  0  0
  6 10  2  0  0  0  0
  7  1  2  0  0  0  0
  7  3  1  0  0  0  0
  9 13  1  0  0  0  0
 10  9  1  0  0  0  0
 11  2  2  0  0  0  0
 12 13  1  0  0  0  0
 13 16  1  1  0  0  0
 14  3  2  0  0  0  0
 14 11  1  0  0  0  0
 16 15  1  1  0  0  0
 16 17  1  0  0  0  0
 17 18  1  0  0  0  0
 18 19  1  0  0  0  0
 19 21  1  0  0  0  0
 19 20  1  1  0  0  0
 22 21  1  6  0  0  0
 22 33  1  0  0  0  0
 23 24  1  0  0  0  0
 24 27  2  0  0  0  0
 25 24  1  0  0  0  0
 25 22  1  0  0  0  0
 26 23  1  0  0  0  0
 28 23  1  0  0  0  0
 29 28  1  0  0  0  0
 29 31  1  0  0  0  0
 31 30  1  0  0  0  0
 32 33  1  0  0  0  0
 32 34  1  0  0  0  0
 33 34  1  0  0  0  0
 35 12  1  0  0  0  0
 35 36  1  0  0  0  0
 37 39  1  6  0  0  0
 37 40  1  0  0  0  0
 38 43  1  0  0  0  0
 38 37  1  0  0  0  0
 39 38  1  0  0  0  0
 41 40  2  0  0  0  0
 41 36  1  0  0  0  0
 42 39  2  0  0  0  0
 43 41  1  0  0  0  0
M  END
>  <MODEL>
3

>  <REMARK>
 VINA RESULT:      -7.5      3.647      8.077
  Name = 
  14 active torsions:
  status: ('A' for Active; 'I' for Inactive)
    1  A    between atoms: C_1  and  C_28
    2  A    between atoms: C_1  and  N_34
    3  A    between atoms: C_2  and  C_6
    4  A    between atoms: C_2  and  C_13
    5  A    between atoms: C_3  and  C_4
    6  A    between atoms: C_3  and  C_12
    7  A    between atoms: C_4  and  C_15
    8  A    between atoms: C_4  and  N_22
    9  A    between atoms: C_6  and  C_12
   10  A    between atoms: N_11  and  C_40
   11  A    between atoms: C_13  and  C_38
   12  A    between atoms: C_26  and  O_31
   13  A    between atoms: C_26  and  C_40
   14  A    between atoms: C_28  and  C_35
                            x       y       z     vdW  Elec       q    Type
                         _______ _______ _______ _____ _____    ______ ____

>  <TORSDO>
F 14

$$$$
=
 OpenBabel11062410193D

 43 48  0  0  1  0  0  0  0  0999 V2000
  160.8260  201.9310  146.5230 C   0  0  0  0  0  0  0  0  0  0  0  0
  161.7540  206.1570  149.0690 C   0  0  0  0  0  0  0  0  0  0  0  0
  161.3050  204.2280  147.1220 C   0  0  0  0  0  0  0  0  0  0  0  0
  160.8010  201.5750  147.8760 C   0  0  0  0  0  3  0  0  0  0  0  0
  160.6050  200.9900  145.5750 F   0  0  0  0  0  0  0  0  0  0  0  0
  161.2770  203.8680  148.4940 C   0  0  0  0  0  0  0  0  0  0  0  0
  161.0790  203.2540  146.1450 C   0  0  0  0  0  3  0  0  0  0  0  0
  161.0260  202.5410  148.8620 C   0  0  0  0  0  3  0  0  0  0  0  0
  161.5640  204.7410  150.9300 C   0  0  0  0  0  2  0  0  0  0  0  0
  161.5070  204.8660  149.4470 C   0  0  0  0  0  0  0  0  0  0  0  0
  161.7970  206.5370  147.7250 C   0  0  0  0  0  3  0  0  0  0  0  0
  161.9730  206.9960  150.1870 N   0  0  0  0  0  0  0  0  0  0  0  0
  161.8880  206.1760  151.3980 C   0  0  1  0  0  3  0  0  0  0  0  0
  161.5670  205.5570  146.7470 C   0  0  0  0  0  3  0  0  0  0  0  0
  160.0810  207.7470  151.8400 O   0  0  0  0  0  1  0  0  0  0  0  0
  160.7950  206.6600  152.3550 C   0  0  2  0  0  3  0  0  0  0  0  0
  161.4030  207.0190  153.7060 C   0  0  0  0  0  2  0  0  0  0  0  0
  160.6420  208.1580  154.3760 C   0  0  0  0  0  2  0  0  0  0  0  0
  161.6090  209.0910  155.0840 C   0  0  2  0  0  3  0  0  0  0  0  0
  161.3540  209.0960  156.5800 C   0  0  0  0  0  1  0  0  0  0  0  0
  161.6300  210.5130  154.4970 C   0  0  0  0  0  2  0  0  0  0  0  0
  160.3470  211.3520  154.6360 C   0  0  2  0  0  3  0  0  0  0  0  0
  158.9060  213.2150  151.6050 N   0  0  0  0  0  0  0  0  0  0  0  0
  159.0240  212.2550  152.6630 C   0  0  0  0  0  0  0  0  0  0  0  0
  160.1770  212.2590  153.5080 N   0  0  0  0  0  2  0  0  0  0  0  0
  159.9190  214.2430  151.4270 C   0  0  0  0  0  1  0  0  0  0  0  0
  158.1140  211.3970  152.8410 O   0  0  0  0  0  0  0  0  0  0  0  0
  157.7860  213.1710  150.6730 C   0  0  0  0  0  2  0  0  0  0  0  0
  156.7030  214.1510  151.0940 C   0  0  0  0  0  2  0  0  0  0  0  0
  154.5670  214.2680  150.8910 F   0  0  0  0  0  0  0  0  0  0  0  0
  155.6640  214.1470  150.1630 O   0  0  0  0  0  0  0  0  0  0  0  0
  159.5850  213.4360  155.7620 C   0  0  0  0  0  2  0  0  0  0  0  0
  160.3080  212.1180  155.9530 C   0  0  0  0  0  3  0  0  0  0  0  0
  158.8710  212.2710  156.4120 C   0  0  0  0  0  2  0  0  0  0  0  0
  162.7730  208.2130  150.1310 C   0  0  0  0  0  2  0  0  0  0  0  0
  161.9530  209.3940  150.6240 C   0  0  0  0  0  2  0  0  0  0  0  0
  162.0030  212.6340  148.8300 C   0  0  1  0  0  3  0  0  0  0  0  0
  162.0330  211.5870  147.9560 N   0  0  0  0  0  0  0  0  0  0  0  0
  160.9500  212.6610  147.9500 C   0  0  0  0  0  0  0  0  0  0  0  0
  161.8360  211.7690  149.9980 N   0  0  0  0  0  0  0  0  0  0  0  0
  162.0220  210.5040  149.6380 C   0  0  0  0  0  0  0  0  0  0  0  0
  159.7600  213.0520  147.6420 N   0  0  0  0  0  2  0  0  0  0  0  0
  162.2390  210.2570  148.2220 N   0  0  0  0  0  2  0  0  0  0  0  0
  1  4  1  0  0  0  0
  2 10  1  0  0  0  0
  2 12  1  0  0  0  0
  3  6  1  0  0  0  0
  4  8  2  0  0  0  0
  5  1  1  0  0  0  0
  6  8  1  0  0  0  0
  6 10  2  0  0  0  0
  7  1  2  0  0  0  0
  7  3  1  0  0  0  0
  9 13  1  0  0  0  0
 10  9  1  0  0  0  0
 11  2  2  0  0  0  0
 12 13  1  0  0  0  0
 13 16  1  1  0  0  0
 14  3  2  0  0  0  0
 14 11  1  0  0  0  0
 16 15  1  6  0  0  0
 16 17  1  0  0  0  0
 17 18  1  0  0  0  0
 18 19  1  0  0  0  0
 19 20  1  1  0  0  0
 21 19  1  0  0  0  0
 22 21  1  6  0  0  0
 22 33  1  0  0  0  0
 23 24  1  0  0  0  0
 24 27  2  0  0  0  0
 24 25  1  0  0  0  0
 25 22  1  0  0  0  0
 26 23  1  0  0  0  0
 28 29  1  0  0  0  0
 28 23  1  0  0  0  0
 31 30  1  0  0  0  0
 31 29  1  0  0  0  0
 32 33  1  0  0  0  0
 32 34  1  0  0  0  0
 33 34  1  0  0  0  0
 35 12  1  0  0  0  0
 35 36  1  0  0  0  0
 37 39  1  6  0  0  0
 37 40  1  0  0  0  0
 38 43  1  0  0  0  0
 38 37  1  0  0  0  0
 39 38  1  0  0  0  0
 41 40  2  0  0  0  0
 41 36  1  0  0  0  0
 42 39  2  0  0  0  0
 43 41  1  0  0  0  0
M  END
>  <MODEL>
4

>  <REMARK>
 VINA RESULT:      -7.2      3.710      6.851
  Name = 
  14 active torsions:
  status: ('A' for Active; 'I' for Inactive)
    1  A    between atoms: C_1  and  C_28
    2  A    between atoms: C_1  and  N_34
    3  A    between atoms: C_2  and  C_6
    4  A    between atoms: C_2  and  C_13
    5  A    between atoms: C_3  and  C_4
    6  A    between atoms: C_3  and  C_12
    7  A    between atoms: C_4  and  C_15
    8  A    between atoms: C_4  and  N_22
    9  A    between atoms: C_6  and  C_12
   10  A    between atoms: N_11  and  C_40
   11  A    between atoms: C_13  and  C_38
   12  A    between atoms: C_26  and  O_31
   13  A    between atoms: C_26  and  C_40
   14  A    between atoms: C_28  and  C_35
                            x       y       z     vdW  Elec       q    Type
                         _______ _______ _______ _____ _____    ______ ____

>  <TORSDO>
F 14

$$$$
=
 OpenBabel11062410193D

 43 48  0  0  1  0  0  0  0  0999 V2000
  161.2100  200.1240  146.8010 C   0  0  0  0  0  0  0  0  0  0  0  0
  161.1290  204.1520  149.7950 C   0  0  0  0  0  0  0  0  0  0  0  0
  161.2130  201.5890  148.7280 C   0  0  0  0  0  0  0  0  0  0  0  0
  161.1190  201.2300  145.9490 C   0  0  0  0  0  3  0  0  0  0  0  0
  161.2530  198.8740  146.2790 F   0  0  0  0  0  0  0  0  0  0  0  0
  161.1250  202.7120  147.8650 C   0  0  0  0  0  0  0  0  0  0  0  0
  161.2550  200.3010  148.1870 C   0  0  0  0  0  3  0  0  0  0  0  0
  161.0770  202.5230  146.4790 C   0  0  0  0  0  3  0  0  0  0  0  0
  160.9590  205.3080  147.7590 C   0  0  0  0  0  2  0  0  0  0  0  0
  161.0850  203.9870  148.4370 C   0  0  0  0  0  0  0  0  0  0  0  0
  161.2070  203.0640  150.6680 C   0  0  0  0  0  3  0  0  0  0  0  0
  161.0610  205.5170  150.1580 N   0  0  0  0  0  0  0  0  0  0  0  0
  160.9350  206.3110  148.9320 C   0  0  1  0  0  3  0  0  0  0  0  0
  161.2520  201.7720  150.1220 C   0  0  0  0  0  3  0  0  0  0  0  0
  163.1970  206.9800  149.5370 O   0  0  0  0  0  1  0  0  0  0  0  0
  162.0780  207.3170  148.7680 C   0  0  2  0  0  3  0  0  0  0  0  0
  161.5960  208.7200  149.1210 C   0  0  0  0  0  2  0  0  0  0  0  0
  162.3710  209.7860  148.3560 C   0  0  0  0  0  2  0  0  0  0  0  0
  162.1100  211.1570  148.9550 C   0  0  2  0  0  3  0  0  0  0  0  0
  161.9310  211.0620  150.4590 C   0  0  0  0  0  1  0  0  0  0  0  0
  160.9500  211.9100  148.2810 C   0  0  0  0  0  2  0  0  0  0  0  0
  160.7780  213.3990  148.6330 C   0  0  2  0  0  3  0  0  0  0  0  0
  157.7560  213.8990  150.9480 N   0  0  0  0  0  0  0  0  0  0  0  0
  159.0810  213.5560  150.5180 C   0  0  0  0  0  0  0  0  0  0  0  0
  159.4400  213.6770  149.1390 N   0  0  0  0  0  2  0  0  0  0  0  0
  156.7920  214.4390  150.0030 C   0  0  0  0  0  1  0  0  0  0  0  0
  159.9270  213.1350  151.3550 O   0  0  0  0  0  0  0  0  0  0  0  0
  157.3400  213.6940  152.3290 C   0  0  0  0  0  2  0  0  0  0  0  0
  156.0520  214.4500  152.6160 C   0  0  0  0  0  2  0  0  0  0  0  0
  156.2010  213.0560  154.2440 F   0  0  0  0  0  0  0  0  0  0  0  0
  155.3100  213.7820  153.5910 O   0  0  0  0  0  0  0  0  0  0  0  0
  162.4590  213.9390  146.8780 C   0  0  0  0  0  2  0  0  0  0  0  0
  161.1030  214.3040  147.4500 C   0  0  0  0  0  3  0  0  0  0  0  0
  161.1970  213.4740  146.1840 C   0  0  0  0  0  2  0  0  0  0  0  0
  160.5410  205.9820  151.4370 C   0  0  0  0  0  2  0  0  0  0  0  0
  161.6910  206.3640  152.3550 C   0  0  0  0  0  2  0  0  0  0  0  0
  160.6290  209.5230  153.9700 C   0  0  1  0  0  3  0  0  0  0  0  0
  160.8690  208.5520  154.8980 N   0  0  0  0  0  0  0  0  0  0  0  0
  161.5910  209.8960  154.8740 C   0  0  0  0  0  0  0  0  0  0  0  0
  161.0870  208.6940  152.8550 N   0  0  0  0  0  0  0  0  0  0  0  0
  161.2620  207.4480  153.2780 C   0  0  0  0  0  0  0  0  0  0  0  0
  162.6030  210.6310  155.1910 N   0  0  0  0  0  2  0  0  0  0  0  0
  161.0690  207.2100  154.6990 N   0  0  0  0  0  2  0  0  0  0  0  0
  1  7  1  0  0  0  0
  2 12  1  0  0  0  0
  2 11  1  0  0  0  0
  3 14  1  0  0  0  0
  4  8  1  0  0  0  0
  4  1  2  0  0  0  0
  5  1  1  0  0  0  0
  6 10  1  0  0  0  0
  6  3  1  0  0  0  0
  7  3  2  0  0  0  0
  8  6  2  0  0  0  0
  9 10  1  0  0  0  0
  9 13  1  0  0  0  0
 10  2  2  0  0  0  0
 12 35  1  0  0  0  0
 13 16  1  6  0  0  0
 13 12  1  0  0  0  0
 14 11  2  0  0  0  0
 16 17  1  0  0  0  0
 16 15  1  1  0  0  0
 18 19  1  0  0  0  0
 18 17  1  0  0  0  0
 19 20  1  1  0  0  0
 21 19  1  0  0  0  0
 22 21  1  6  0  0  0
 22 25  1  0  0  0  0
 23 28  1  0  0  0  0
 24 23  1  0  0  0  0
 24 27  2  0  0  0  0
 25 24  1  0  0  0  0
 26 23  1  0  0  0  0
 28 29  1  0  0  0  0
 29 31  1  0  0  0  0
 31 30  1  0  0  0  0
 32 33  1  0  0  0  0
 33 22  1  0  0  0  0
 34 32  1  0  0  0  0
 34 33  1  0  0  0  0
 35 36  1  0  0  0  0
 36 41  1  0  0  0  0
 37 40  1  6  0  0  0
 37 39  1  0  0  0  0
 37 38  1  0  0  0  0
 39 38  1  0  0  0  0
 39 42  2  0  0  0  0
 40 41  2  0  0  0  0
 41 43  1  0  0  0  0
 43 38  1  0  0  0  0
M  END
>  <MODEL>
5

>  <REMARK>
 VINA RESULT:      -7.0      3.591      5.422
  Name = 
  14 active torsions:
  status: ('A' for Active; 'I' for Inactive)
    1  A    between atoms: C_1  and  C_28
    2  A    between atoms: C_1  and  N_34
    3  A    between atoms: C_2  and  C_6
    4  A    between atoms: C_2  and  C_13
    5  A    between atoms: C_3  and  C_4
    6  A    between atoms: C_3  and  C_12
    7  A    between atoms: C_4  and  C_15
    8  A    between atoms: C_4  and  N_22
    9  A    between atoms: C_6  and  C_12
   10  A    between atoms: N_11  and  C_40
   11  A    between atoms: C_13  and  C_38
   12  A    between atoms: C_26  and  O_31
   13  A    between atoms: C_26  and  C_40
   14  A    between atoms: C_28  and  C_35
                            x       y       z     vdW  Elec       q    Type
                         _______ _______ _______ _____ _____    ______ ____

>  <TORSDO>
F 14

$$$$
=
 OpenBabel11062410193D

 43 48  0  0  1  0  0  0  0  0999 V2000
  161.0150  203.4600  149.7250 C   0  0  0  0  0  0  0  0  0  0  0  0
  161.5720  208.4460  149.9110 C   0  0  0  0  0  0  0  0  0  0  0  0
  161.1580  205.8070  149.1480 C   0  0  0  0  0  0  0  0  0  0  0  0
  161.2930  203.7640  151.0630 C   0  0  0  0  0  3  0  0  0  0  0  0
  160.8110  202.1730  149.3550 F   0  0  0  0  0  0  0  0  0  0  0  0
  161.4350  206.1160  150.5050 C   0  0  0  0  0  0  0  0  0  0  0  0
  160.9490  204.4780  148.7690 C   0  0  0  0  0  3  0  0  0  0  0  0
  161.5030  205.0890  151.4540 C   0  0  0  0  0  3  0  0  0  0  0  0
  161.9750  208.0300  152.1860 C   0  0  0  0  0  2  0  0  0  0  0  0
  161.6380  207.4550  150.8530 C   0  0  0  0  0  0  0  0  0  0  0  0
  161.3100  208.1690  148.5670 C   0  0  0  0  0  3  0  0  0  0  0  0
  161.8230  209.7190  150.4740 N   0  0  0  0  0  0  0  0  0  0  0  0
  162.1030  209.5420  151.9010 C   0  0  1  0  0  3  0  0  0  0  0  0
  161.0990  206.8340  148.1890 C   0  0  0  0  0  3  0  0  0  0  0  0
  160.0270  209.5330  153.1730 O   0  0  0  0  0  1  0  0  0  0  0  0
  161.1230  210.3140  152.7890 C   0  0  2  0  0  3  0  0  0  0  0  0
  160.6490  211.5750  152.0740 C   0  0  0  0  0  2  0  0  0  0  0  0
  159.1420  211.5550  151.8470 C   0  0  0  0  0  2  0  0  0  0  0  0
  158.5760  212.9610  151.9530 C   0  0  2  0  0  3  0  0  0  0  0  0
  158.9410  213.7810  150.7300 C   0  0  0  0  0  1  0  0  0  0  0  0
  158.9530  213.6770  153.2620 C   0  0  0  0  0  2  0  0  0  0  0  0
  158.1090  213.3550  154.5090 C   0  0  2  0  0  3  0  0  0  0  0  0
  160.0100  210.6990  156.5250 N   0  0  0  0  0  0  0  0  0  0  0  0
  159.7020  211.9580  155.9110 C   0  0  0  0  0  0  0  0  0  0  0  0
  158.5190  212.0980  155.1210 N   0  0  0  0  0  2  0  0  0  0  0  0
  159.0900  209.5790  156.4110 C   0  0  0  0  0  1  0  0  0  0  0  0
  160.4830  212.9400  156.0580 O   0  0  0  0  0  0  0  0  0  0  0  0
  161.2570  210.5070  157.2560 C   0  0  0  0  0  2  0  0  0  0  0  0
  162.2470  209.7110  156.4200 C   0  0  0  0  0  2  0  0  0  0  0  0
  161.8550  207.7260  155.6980 F   0  0  0  0  0  0  0  0  0  0  0  0
  162.2200  208.3670  156.7950 O   0  0  0  0  0  0  0  0  0  0  0  0
  156.0180  212.0080  154.6020 C   0  0  0  0  0  2  0  0  0  0  0  0
  156.6170  213.3410  154.1970 C   0  0  0  0  0  3  0  0  0  0  0  0
  155.8280  213.2210  155.4860 C   0  0  0  0  0  2  0  0  0  0  0  0
  162.3610  210.8390  149.7130 C   0  0  0  0  0  2  0  0  0  0  0  0
  161.2640  211.4650  148.8670 C   0  0  0  0  0  2  0  0  0  0  0  0
  161.9500  214.0250  146.2800 C   0  0  1  0  0  3  0  0  0  0  0  0
  163.1090  213.5160  146.7890 N   0  0  0  0  0  0  0  0  0  0  0  0
  162.7400  213.4630  145.3090 C   0  0  0  0  0  0  0  0  0  0  0  0
  161.1070  213.0970  147.0340 N   0  0  0  0  0  0  0  0  0  0  0  0
  161.8530  212.4520  147.9250 C   0  0  0  0  0  0  0  0  0  0  0  0
  162.8680  212.9350  144.1390 N   0  0  0  0  0  2  0  0  0  0  0  0
  163.2820  212.7200  147.8910 N   0  0  0  0  0  2  0  0  0  0  0  0
  1  4  1  0  0  0  0
  2 12  1  0  0  0  0
  2 10  1  0  0  0  0
  3  6  1  0  0  0  0
  4  8  2  0  0  0  0
  5  1  1  0  0  0  0
  6 10  2  0  0  0  0
  6  8  1  0  0  0  0
  7  3  1  0  0  0  0
  7  1  2  0  0  0  0
 10  9  1  0  0  0  0
 11  2  2  0  0  0  0
 12 13  1  0  0  0  0
 13  9  1  0  0  0  0
 13 16  1  1  0  0  0
 14 11  1  0  0  0  0
 14  3  2  0  0  0  0
 16 15  1  6  0  0  0
 17 16  1  0  0  0  0
 18 19  1  0  0  0  0
 18 17  1  0  0  0  0
 19 20  1  6  0  0  0
 19 21  1  0  0  0  0
 22 21  1  6  0  0  0
 22 25  1  0  0  0  0
 23 28  1  0  0  0  0
 24 27  2  0  0  0  0
 24 23  1  0  0  0  0
 25 24  1  0  0  0  0
 26 23  1  0  0  0  0
 29 31  1  0  0  0  0
 29 28  1  0  0  0  0
 30 31  1  0  0  0  0
 32 34  1  0  0  0  0
 33 22  1  0  0  0  0
 33 32  1  0  0  0  0
 33 34  1  0  0  0  0
 35 12  1  0  0  0  0
 36 35  1  0  0  0  0
 37 39  1  6  0  0  0
 37 38  1  0  0  0  0
 37 40  1  0  0  0  0
 38 43  1  0  0  0  0
 39 38  1  0  0  0  0
 40 41  2  0  0  0  0
 41 36  1  0  0  0  0
 42 39  2  0  0  0  0
 43 41  1  0  0  0  0
M  END
>  <MODEL>
6

>  <REMARK>
 VINA RESULT:      -7.0      3.720      8.298
  Name = 
  14 active torsions:
  status: ('A' for Active; 'I' for Inactive)
    1  A    between atoms: C_1  and  C_28
    2  A    between atoms: C_1  and  N_34
    3  A    between atoms: C_2  and  C_6
    4  A    between atoms: C_2  and  C_13
    5  A    between atoms: C_3  and  C_4
    6  A    between atoms: C_3  and  C_12
    7  A    between atoms: C_4  and  C_15
    8  A    between atoms: C_4  and  N_22
    9  A    between atoms: C_6  and  C_12
   10  A    between atoms: N_11  and  C_40
   11  A    between atoms: C_13  and  C_38
   12  A    between atoms: C_26  and  O_31
   13  A    between atoms: C_26  and  C_40
   14  A    between atoms: C_28  and  C_35
                            x       y       z     vdW  Elec       q    Type
                         _______ _______ _______ _____ _____    ______ ____

>  <TORSDO>
F 14

$$$$
=
 OpenBabel11062410193D

 43 48  0  0  1  0  0  0  0  0999 V2000
  160.8050  201.8600  149.3910 C   0  0  0  0  0  0  0  0  0  0  0  0
  161.5350  206.8230  149.5890 C   0  0  0  0  0  0  0  0  0  0  0  0
  161.0920  204.1930  148.8110 C   0  0  0  0  0  0  0  0  0  0  0  0
  160.9660  202.1680  150.7460 C   0  0  0  0  0  3  0  0  0  0  0  0
  160.5870  200.5780  149.0130 F   0  0  0  0  0  0  0  0  0  0  0  0
  161.2520  204.5070  150.1860 C   0  0  0  0  0  0  0  0  0  0  0  0
  160.8690  202.8690  148.4240 C   0  0  0  0  0  3  0  0  0  0  0  0
  161.1890  203.4900  151.1450 C   0  0  0  0  0  3  0  0  0  0  0  0
  161.7040  206.4180  151.8950 C   0  0  0  0  0  2  0  0  0  0  0  0
  161.4730  205.8420  150.5410 C   0  0  0  0  0  0  0  0  0  0  0  0
  161.3900  206.5400  148.2280 C   0  0  0  0  0  3  0  0  0  0  0  0
  161.7810  208.0920  150.1630 N   0  0  0  0  0  0  0  0  0  0  0  0
  161.9180  207.9210  151.6110 C   0  0  1  0  0  3  0  0  0  0  0  0
  161.1640  205.2100  147.8430 C   0  0  0  0  0  3  0  0  0  0  0  0
  161.3380  210.0370  152.6670 O   0  0  0  0  0  1  0  0  0  0  0  0
  160.8880  208.7400  152.3960 C   0  0  2  0  0  3  0  0  0  0  0  0
  160.5270  208.0240  153.6930 C   0  0  0  0  0  2  0  0  0  0  0  0
  161.2110  208.6660  154.8940 C   0  0  0  0  0  2  0  0  0  0  0  0
  160.2610  208.7090  156.0790 C   0  0  2  0  0  3  0  0  0  0  0  0
  159.7060  207.3280  156.3740 C   0  0  0  0  0  1  0  0  0  0  0  0
  159.1460  209.7610  155.9330 C   0  0  0  0  0  2  0  0  0  0  0  0
  159.0270  210.8200  157.0430 C   0  0  2  0  0  3  0  0  0  0  0  0
  156.1600  212.7490  155.3710 N   0  0  0  0  0  0  0  0  0  0  0  0
  157.2850  211.8710  155.5210 C   0  0  0  0  0  0  0  0  0  0  0  0
  157.9150  211.7290  156.7970 N   0  0  0  0  0  2  0  0  0  0  0  0
  155.6080  213.4430  156.5230 C   0  0  0  0  0  1  0  0  0  0  0  0
  157.7260  211.2340  154.5250 O   0  0  0  0  0  0  0  0  0  0  0  0
  155.5610  212.9810  154.0620 C   0  0  0  0  0  2  0  0  0  0  0  0
  155.8610  214.3920  153.5820 C   0  0  0  0  0  2  0  0  0  0  0  0
  157.3210  213.3620  152.3900 F   0  0  0  0  0  0  0  0  0  0  0  0
  156.4510  214.3540  152.3180 O   0  0  0  0  0  0  0  0  0  0  0  0
  160.7660  212.1920  155.9080 C   0  0  0  0  0  2  0  0  0  0  0  0
  160.3250  211.5960  157.2300 C   0  0  0  0  0  3  0  0  0  0  0  0
  160.0870  213.0660  156.9400 C   0  0  0  0  0  2  0  0  0  0  0  0
  162.4320  209.1820  149.4480 C   0  0  0  0  0  2  0  0  0  0  0  0
  161.5750  209.6120  148.2680 C   0  0  0  0  0  2  0  0  0  0  0  0
  161.5810  213.2460  148.9840 C   0  0  1  0  0  3  0  0  0  0  0  0
  160.8880  212.9700  147.8420 N   0  0  0  0  0  0  0  0  0  0  0  0
  160.2810  213.6800  149.0490 C   0  0  0  0  0  0  0  0  0  0  0  0
  161.7990  211.8340  149.2980 N   0  0  0  0  0  0  0  0  0  0  0  0
  161.4330  211.0920  148.2590 C   0  0  0  0  0  0  0  0  0  0  0  0
  159.2520  214.0290  149.7450 N   0  0  0  0  0  2  0  0  0  0  0  0
  160.8350  211.7960  147.1360 N   0  0  0  0  0  2  0  0  0  0  0  0
  1  4  1  0  0  0  0
  2 12  1  0  0  0  0
  2 10  1  0  0  0  0
  3  6  1  0  0  0  0
  4  8  2  0  0  0  0
  5  1  1  0  0  0  0
  6 10  2  0  0  0  0
  6  8  1  0  0  0  0
  7  3  1  0  0  0  0
  7  1  2  0  0  0  0
 10  9  1  0  0  0  0
 11  2  2  0  0  0  0
 12 13  1  0  0  0  0
 13  9  1  0  0  0  0
 13 16  1  1  0  0  0
 14 11  1  0  0  0  0
 14  3  2  0  0  0  0
 16 15  1  1  0  0  0
 16 17  1  0  0  0  0
 17 18  1  0  0  0  0
 18 19  1  0  0  0  0
 19 20  1  6  0  0  0
 21 19  1  0  0  0  0
 22 21  1  6  0  0  0
 22 33  1  0  0  0  0
 23 24  1  0  0  0  0
 23 26  1  0  0  0  0
 24 25  1  0  0  0  0
 25 22  1  0  0  0  0
 27 24  2  0  0  0  0
 28 23  1  0  0  0  0
 29 28  1  0  0  0  0
 31 30  1  0  0  0  0
 31 29  1  0  0  0  0
 32 34  1  0  0  0  0
 32 33  1  0  0  0  0
 34 33  1  0  0  0  0
 35 12  1  0  0  0  0
 36 35  1  0  0  0  0
 37 39  1  1  0  0  0
 37 40  1  0  0  0  0
 38 37  1  0  0  0  0
 38 39  1  0  0  0  0
 39 42  2  0  0  0  0
 41 36  1  0  0  0  0
 41 40  2  0  0  0  0
 43 38  1  0  0  0  0
 43 41  1  0  0  0  0
M  END
>  <MODEL>
7

>  <REMARK>
 VINA RESULT:      -6.9      4.037      7.974
  Name = 
  14 active torsions:
  status: ('A' for Active; 'I' for Inactive)
    1  A    between atoms: C_1  and  C_28
    2  A    between atoms: C_1  and  N_34
    3  A    between atoms: C_2  and  C_6
    4  A    between atoms: C_2  and  C_13
    5  A    between atoms: C_3  and  C_4
    6  A    between atoms: C_3  and  C_12
    7  A    between atoms: C_4  and  C_15
    8  A    between atoms: C_4  and  N_22
    9  A    between atoms: C_6  and  C_12
   10  A    between atoms: N_11  and  C_40
   11  A    between atoms: C_13  and  C_38
   12  A    between atoms: C_26  and  O_31
   13  A    between atoms: C_26  and  C_40
   14  A    between atoms: C_28  and  C_35
                            x       y       z     vdW  Elec       q    Type
                         _______ _______ _______ _____ _____    ______ ____

>  <TORSDO>
F 14

$$$$
=
 OpenBabel11062410193D

 43 48  0  0  1  0  0  0  0  0999 V2000
  160.4840  207.1000  155.5280 C   0  0  0  0  0  0  0  0  0  0  0  0
  161.5860  207.5240  150.6490 C   0  0  0  0  0  0  0  0  0  0  0  0
  160.8480  206.6440  153.1780 C   0  0  0  0  0  0  0  0  0  0  0  0
  160.8640  208.4330  155.3370 C   0  0  0  0  0  3  0  0  0  0  0  0
  160.1230  206.6720  156.7620 F   0  0  0  0  0  0  0  0  0  0  0  0
  161.2300  207.9970  152.9830 C   0  0  0  0  0  0  0  0  0  0  0  0
  160.4780  206.2060  154.4520 C   0  0  0  0  0  3  0  0  0  0  0  0
  161.2360  208.8830  154.0670 C   0  0  0  0  0  3  0  0  0  0  0  0
  162.0620  209.7440  151.2410 C   0  0  0  0  0  2  0  0  0  0  0  0
  161.5950  208.4050  151.6960 C   0  0  0  0  0  0  0  0  0  0  0  0
  161.2240  206.1850  150.8150 C   0  0  0  0  0  3  0  0  0  0  0  0
  162.0030  208.1390  149.4450 N   0  0  0  0  0  0  0  0  0  0  0  0
  162.3370  209.5350  149.7370 C   0  0  1  0  0  3  0  0  0  0  0  0
  160.8500  205.7480  152.0950 C   0  0  0  0  0  3  0  0  0  0  0  0
  161.5580  210.2620  147.5480 O   0  0  0  0  0  1  0  0  0  0  0  0
  161.4950  210.5210  148.9210 C   0  0  2  0  0  3  0  0  0  0  0  0
  161.9350  211.9510  149.2110 C   0  0  0  0  0  2  0  0  0  0  0  0
  162.3350  212.6820  147.9350 C   0  0  0  0  0  2  0  0  0  0  0  0
  161.1260  213.3620  147.3170 C   0  0  2  0  0  3  0  0  0  0  0  0
  161.5460  214.2860  146.1890 C   0  0  0  0  0  1  0  0  0  0  0  0
  160.2310  214.0760  148.3460 C   0  0  0  0  0  2  0  0  0  0  0  0
  158.7100  214.0110  148.1220 C   0  0  2  0  0  3  0  0  0  0  0  0
  157.8130  213.9480  151.8540 N   0  0  0  0  0  0  0  0  0  0  0  0
  158.5840  213.8120  150.6520 C   0  0  0  0  0  0  0  0  0  0  0  0
  157.9810  214.0760  149.3830 N   0  0  0  0  0  2  0  0  0  0  0  0
  156.4400  214.4230  151.7990 C   0  0  0  0  0  1  0  0  0  0  0  0
  159.7910  213.4480  150.7140 O   0  0  0  0  0  0  0  0  0  0  0  0
  158.3780  213.5950  153.1500 C   0  0  0  0  0  2  0  0  0  0  0  0
  157.9160  212.2090  153.5740 C   0  0  0  0  0  2  0  0  0  0  0  0
  158.3540  210.6700  155.0070 F   0  0  0  0  0  0  0  0  0  0  0  0
  158.2400  211.9830  154.9120 O   0  0  0  0  0  0  0  0  0  0  0  0
  156.9200  212.9680  146.7430 C   0  0  0  0  0  2  0  0  0  0  0  0
  158.3040  212.7750  147.3290 C   0  0  0  0  0  3  0  0  0  0  0  0
  158.1410  213.1380  145.8660 C   0  0  0  0  0  2  0  0  0  0  0  0
  162.6170  207.4100  148.3430 C   0  0  0  0  0  2  0  0  0  0  0  0
  161.5590  207.0280  147.3210 C   0  0  0  0  0  2  0  0  0  0  0  0
  162.2470  203.9840  145.3260 C   0  0  1  0  0  3  0  0  0  0  0  0
  161.9660  203.6700  146.6230 N   0  0  0  0  0  0  0  0  0  0  0  0
  161.1700  203.1400  145.4340 C   0  0  0  0  0  0  0  0  0  0  0  0
  161.9640  205.4070  145.5170 N   0  0  0  0  0  0  0  0  0  0  0  0
  161.8180  205.6550  146.8140 C   0  0  0  0  0  0  0  0  0  0  0  0
  160.0880  202.6400  144.9420 N   0  0  0  0  0  2  0  0  0  0  0  0
  161.8690  204.5070  147.7050 N   0  0  0  0  0  2  0  0  0  0  0  0
  1  5  1  0  0  0  0
  2 11  2  0  0  0  0
  2 10  1  0  0  0  0
  3  7  1  0  0  0  0
  4  1  1  0  0  0  0
  6  3  1  0  0  0  0
  6  8  1  0  0  0  0
  7  1  2  0  0  0  0
  8  4  2  0  0  0  0
  9 10  1  0  0  0  0
 10  6  2  0  0  0  0
 11 14  1  0  0  0  0
 12 13  1  0  0  0  0
 12  2  1  0  0  0  0
 13 16  1  6  0  0  0
 13  9  1  0  0  0  0
 14  3  2  0  0  0  0
 16 15  1  6  0  0  0
 16 17  1  0  0  0  0
 18 17  1  0  0  0  0
 19 20  1  6  0  0  0
 19 18  1  0  0  0  0
 19 21  1  0  0  0  0
 22 21  1  1  0  0  0
 22 25  1  0  0  0  0
 23 28  1  0  0  0  0
 24 27  2  0  0  0  0
 24 23  1  0  0  0  0
 25 24  1  0  0  0  0
 26 23  1  0  0  0  0
 28 29  1  0  0  0  0
 29 31  1  0  0  0  0
 31 30  1  0  0  0  0
 32 33  1  0  0  0  0
 33 22  1  0  0  0  0
 34 32  1  0  0  0  0
 34 33  1  0  0  0  0
 35 12  1  0  0  0  0
 36 35  1  0  0  0  0
 37 39  1  6  0  0  0
 37 40  1  0  0  0  0
 37 38  1  0  0  0  0
 38 43  1  0  0  0  0
 39 38  1  0  0  0  0
 40 41  2  0  0  0  0
 41 36  1  0  0  0  0
 41 43  1  0  0  0  0
 42 39  2  0  0  0  0
M  END
>  <MODEL>
8

>  <REMARK>
 VINA RESULT:      -6.6      4.276      7.838
  Name = 
  14 active torsions:
  status: ('A' for Active; 'I' for Inactive)
    1  A    between atoms: C_1  and  C_28
    2  A    between atoms: C_1  and  N_34
    3  A    between atoms: C_2  and  C_6
    4  A    between atoms: C_2  and  C_13
    5  A    between atoms: C_3  and  C_4
    6  A    between atoms: C_3  and  C_12
    7  A    between atoms: C_4  and  C_15
    8  A    between atoms: C_4  and  N_22
    9  A    between atoms: C_6  and  C_12
   10  A    between atoms: N_11  and  C_40
   11  A    between atoms: C_13  and  C_38
   12  A    between atoms: C_26  and  O_31
   13  A    between atoms: C_26  and  C_40
   14  A    between atoms: C_28  and  C_35
                            x       y       z     vdW  Elec       q    Type
                         _______ _______ _______ _____ _____    ______ ____

>  <TORSDO>
F 14

$$$$
=
 OpenBabel11062410193D

 43 48  0  0  1  0  0  0  0  0999 V2000
  160.7880  201.5310  150.0850 C   0  0  0  0  0  0  0  0  0  0  0  0
  161.6480  206.4030  149.2330 C   0  0  0  0  0  0  0  0  0  0  0  0
  161.0880  203.6890  149.0310 C   0  0  0  0  0  0  0  0  0  0  0  0
  161.0530  202.0960  151.3370 C   0  0  0  0  0  3  0  0  0  0  0  0
  160.5140  200.2080  149.9880 F   0  0  0  0  0  0  0  0  0  0  0  0
  161.3540  204.2640  150.3000 C   0  0  0  0  0  0  0  0  0  0  0  0
  160.8070  202.3240  148.9330 C   0  0  0  0  0  3  0  0  0  0  0  0
  161.3360  203.4610  151.4470 C   0  0  0  0  0  3  0  0  0  0  0  0
  161.9720  206.4590  151.5570 C   0  0  0  0  0  2  0  0  0  0  0  0
  161.6310  205.6330  150.3650 C   0  0  0  0  0  0  0  0  0  0  0  0
  161.3990  205.8610  147.9690 C   0  0  0  0  0  3  0  0  0  0  0  0
  161.9640  207.7500  149.5220 N   0  0  0  0  0  0  0  0  0  0  0  0
  162.2000  207.8660  150.9640 C   0  0  1  0  0  3  0  0  0  0  0  0
  161.1150  204.4900  147.8750 C   0  0  0  0  0  3  0  0  0  0  0  0
  161.7850  210.1540  151.6860 O   0  0  0  0  0  1  0  0  0  0  0  0
  161.2490  208.8630  151.6330 C   0  0  2  0  0  3  0  0  0  0  0  0
  160.8880  208.3830  153.0350 C   0  0  0  0  0  2  0  0  0  0  0  0
  161.5470  209.2430  154.1070 C   0  0  0  0  0  2  0  0  0  0  0  0
  160.5420  210.2240  154.6840 C   0  0  2  0  0  3  0  0  0  0  0  0
  159.8610  209.6390  155.9080 C   0  0  0  0  0  1  0  0  0  0  0  0
  159.5260  210.7420  153.6510 C   0  0  0  0  0  2  0  0  0  0  0  0
  159.4480  212.2650  153.4410 C   0  0  2  0  0  3  0  0  0  0  0  0
  156.5780  213.0270  155.8730 N   0  0  0  0  0  0  0  0  0  0  0  0
  157.3310  212.3730  154.8430 C   0  0  0  0  0  0  0  0  0  0  0  0
  158.5990  212.8990  154.4410 N   0  0  0  0  0  2  0  0  0  0  0  0
  157.1250  214.1830  156.5660 C   0  0  0  0  0  1  0  0  0  0  0  0
  156.8700  211.3410  154.2820 O   0  0  0  0  0  0  0  0  0  0  0  0
  155.2430  212.5650  156.2330 C   0  0  0  0  0  2  0  0  0  0  0  0
  155.3100  211.1850  156.8700 C   0  0  0  0  0  2  0  0  0  0  0  0
  154.4830  210.3130  155.0890 F   0  0  0  0  0  0  0  0  0  0  0  0
  154.2720  210.3850  156.3920 O   0  0  0  0  0  0  0  0  0  0  0  0
  158.5370  214.0710  151.9900 C   0  0  0  0  0  2  0  0  0  0  0  0
  158.9820  212.6220  152.0350 C   0  0  0  0  0  3  0  0  0  0  0  0
  159.8950  213.6810  151.4480 C   0  0  0  0  0  2  0  0  0  0  0  0
  162.5870  208.6510  148.5620 C   0  0  0  0  0  2  0  0  0  0  0  0
  161.5450  209.5950  147.9840 C   0  0  0  0  0  2  0  0  0  0  0  0
  161.8520  213.2520  148.4830 C   0  0  1  0  0  3  0  0  0  0  0  0
  163.0510  212.6990  148.1390 N   0  0  0  0  0  0  0  0  0  0  0  0
  162.3690  213.8060  147.3400 C   0  0  0  0  0  0  0  0  0  0  0  0
  161.1230  211.9950  148.3100 N   0  0  0  0  0  0  0  0  0  0  0  0
  161.9910  211.0030  148.1470 C   0  0  0  0  0  0  0  0  0  0  0  0
  162.2030  214.4520  146.2350 N   0  0  0  0  0  2  0  0  0  0  0  0
  163.3950  211.3730  148.0780 N   0  0  0  0  0  2  0  0  0  0  0  0
  1  4  1  0  0  0  0
  2 12  1  0  0  0  0
  2 10  1  0  0  0  0
  3  6  1  0  0  0  0
  4  8  2  0  0  0  0
  5  1  1  0  0  0  0
  6 10  2  0  0  0  0
  6  8  1  0  0  0  0
  7  3  1  0  0  0  0
  7  1  2  0  0  0  0
 10  9  1  0  0  0  0
 11  2  2  0  0  0  0
 12 13  1  0  0  0  0
 13  9  1  0  0  0  0
 13 16  1  1  0  0  0
 14 11  1  0  0  0  0
 14  3  2  0  0  0  0
 16 15  1  1  0  0  0
 16 17  1  0  0  0  0
 17 18  1  0  0  0  0
 18 19  1  0  0  0  0
 19 20  1  1  0  0  0
 21 19  1  0  0  0  0
 22 21  1  6  0  0  0
 22 25  1  0  0  0  0
 23 28  1  0  0  0  0
 23 26  1  0  0  0  0
 24 23  1  0  0  0  0
 25 24  1  0  0  0  0
 27 24  2  0  0  0  0
 28 29  1  0  0  0  0
 30 31  1  0  0  0  0
 31 29  1  0  0  0  0
 32 33  1  0  0  0  0
 33 22  1  0  0  0  0
 34 32  1  0  0  0  0
 34 33  1  0  0  0  0
 35 12  1  0  0  0  0
 36 41  1  0  0  0  0
 36 35  1  0  0  0  0
 37 39  1  6  0  0  0
 38 37  1  0  0  0  0
 39 38  1  0  0  0  0
 40 37  1  0  0  0  0
 41 40  2  0  0  0  0
 42 39  2  0  0  0  0
 43 38  1  0  0  0  0
 43 41  1  0  0  0  0
M  END
>  <MODEL>
9

>  <REMARK>
 VINA RESULT:      -6.5      3.916      7.997
  Name = 
  14 active torsions:
  status: ('A' for Active; 'I' for Inactive)
    1  A    between atoms: C_1  and  C_28
    2  A    between atoms: C_1  and  N_34
    3  A    between atoms: C_2  and  C_6
    4  A    between atoms: C_2  and  C_13
    5  A    between atoms: C_3  and  C_4
    6  A    between atoms: C_3  and  C_12
    7  A    between atoms: C_4  and  C_15
    8  A    between atoms: C_4  and  N_22
    9  A    between atoms: C_6  and  C_12
   10  A    between atoms: N_11  and  C_40
   11  A    between atoms: C_13  and  C_38
   12  A    between atoms: C_26  and  O_31
   13  A    between atoms: C_26  and  C_40
   14  A    between atoms: C_28  and  C_35
                            x       y       z     vdW  Elec       q    Type
                         _______ _______ _______ _____ _____    ______ ____

>  <TORSDO>
F 14

$$$$
