=
 OpenBabel11052422483D

 28 34  0  0  1  0  0  0  0  0999 V2000
  161.2260  203.3280  148.3360 C   0  0  1  0  0  3  0  0  0  0  0  0
  160.4390  203.5220  151.8210 C   0  0  2  0  0  3  0  0  0  0  0  0
  161.2630  201.2880  150.8750 C   0  0  0  0  0  2  0  0  0  0  0  0
  160.6470  204.0590  149.4080 O   0  0  0  0  0  0  0  0  0  0  0  0
  161.5810  200.9410  149.3870 C   0  0  0  0  0  2  0  0  0  0  0  0
  161.6720  204.3750  151.6390 C   0  0  1  0  0  3  0  0  0  0  0  0
  160.3030  202.3740  150.9070 N   0  0  2  0  0  0  0  0  0  0  0  0
  160.8470  201.8120  148.3180 C   0  0  0  0  0  2  0  0  0  0  0  0
  161.2040  203.4600  150.5300 C   0  0  1  0  0  0  0  0  0  0  0  0
  162.0280  208.5740  148.7480 C   0  0  0  0  0  3  0  0  0  0  0  0
  161.9300  208.7010  151.2380 C   0  0  1  0  0  3  0  0  0  0  0  0
  161.9000  206.4750  150.0880 C   0  0  0  0  0  2  0  0  0  0  0  0
  161.9140  210.7580  149.8440 C   0  0  0  0  0  0  0  0  0  0  0  0
  161.4790  207.9340  149.9910 C   0  0  2  0  0  3  0  0  0  0  0  0
  161.8650  206.6530  152.5620 N   0  0  0  0  0  2  0  0  0  0  0  0
  161.4650  210.1530  151.1450 C   0  0  0  0  0  2  0  0  0  0  0  0
  161.3550  208.0210  152.4730 C   0  0  0  0  0  2  0  0  0  0  0  0
  162.0270  212.0060  149.7410 O   0  0  0  0  0  0  0  0  0  0  0  0
  162.1980  209.8980  148.6770 C   0  0  0  0  0  3  0  0  0  0  0  0
  161.3870  205.8780  151.4130 C   0  0  2  0  0  3  0  0  0  0  0  0
  160.8510  203.9160  147.1250 O   0  0  0  0  0  0  0  0  0  0  0  0
  161.3340  205.2300  147.1900 C   0  0  2  0  0  3  0  0  0  0  0  0
  161.2490  205.3090  144.4260 C   0  0  0  0  0  2  0  0  0  0  0  0
  160.3030  206.2130  146.6220 C   0  0  0  0  0  2  0  0  0  0  0  0
  163.1150  204.2240  145.6340 C   0  0  0  0  0  2  0  0  0  0  0  0
  162.7200  205.3930  146.5230 C   0  0  1  0  0  3  0  0  0  0  0  0
  162.6540  205.5130  144.9910 C   0  0  2  0  0  3  0  0  0  0  0  0
  160.2590  206.2640  145.0890 C   0  0  0  0  0  2  0  0  0  0  0  0
  1 21  1  6  0  0  0
  1  4  1  0  0  0  0
  3  7  1  0  0  0  0
  4  9  1  0  0  0  0
  5  3  1  0  0  0  0
  6  2  1  0  0  0  0
  7  2  1  0  0  0  0
  8  1  1  0  0  0  0
  8  5  1  0  0  0  0
  9  7  1  0  0  0  0
  9  6  1  0  0  0  0
  9  2  1  0  0  0  0
 10 14  1  0  0  0  0
 11 17  1  0  0  0  0
 12 20  1  0  0  0  0
 13 16  1  0  0  0  0
 14 12  1  0  0  0  0
 14 11  1  0  0  0  0
 16 11  1  0  0  0  0
 17 15  1  0  0  0  0
 18 13  2  0  0  0  0
 19 10  2  0  0  0  0
 19 13  1  0  0  0  0
 20  6  1  0  0  0  0
 20 15  1  0  0  0  0
 21 22  1  0  0  0  0
 23 27  1  0  0  0  0
 23 28  1  0  0  0  0
 24 22  1  0  0  0  0
 25 26  1  0  0  0  0
 26 22  1  0  0  0  0
 27 25  1  0  0  0  0
 27 26  1  0  0  0  0
 28 24  1  0  0  0  0
M  END
>  <MODEL>
1

>  <REMARK>
 VINA RESULT:      -8.8      0.000      0.000
  Name = 
  3 active torsions:
  status: ('A' for Active; 'I' for Inactive)
    1  A    between atoms: C_1  and  O_2
    2  A    between atoms: O_2  and  C_3
    3  A    between atoms: C_20  and  C_25
                            x       y       z     vdW  Elec       q    Type
                         _______ _______ _______ _____ _____    ______ ____

>  <TORSDO>
F 3

$$$$
=
 OpenBabel11052422483D

 28 34  0  0  1  0  0  0  0  0999 V2000
  161.1510  203.0960  148.2560 C   0  0  1  0  0  3  0  0  0  0  0  0
  160.3590  202.3670  151.6670 C   0  0  2  0  0  3  0  0  0  0  0  0
  161.3420  200.5010  150.2140 C   0  0  0  0  0  2  0  0  0  0  0  0
  160.5220  203.4970  149.4650 O   0  0  0  0  0  0  0  0  0  0  0  0
  161.6810  200.5550  148.6920 C   0  0  0  0  0  2  0  0  0  0  0  0
  161.5250  203.3250  151.7220 C   0  0  1  0  0  3  0  0  0  0  0  0
  160.3050  201.4730  150.4970 N   0  0  2  0  0  0  0  0  0  0  0  0
  160.8840  201.6090  147.8580 C   0  0  0  0  0  2  0  0  0  0  0  0
  161.1230  202.6800  150.4140 C   0  0  1  0  0  0  0  0  0  0  0  0
  162.0030  208.2060  150.2840 C   0  0  0  0  0  3  0  0  0  0  0  0
  161.3870  207.5810  152.6200 C   0  0  1  0  0  3  0  0  0  0  0  0
  161.8350  205.7990  150.9160 C   0  0  0  0  0  2  0  0  0  0  0  0
  161.4320  209.9560  151.8940 C   0  0  0  0  0  0  0  0  0  0  0  0
  161.2850  207.2010  151.1400 C   0  0  2  0  0  3  0  0  0  0  0  0
  161.2780  205.2310  153.2660 N   0  0  0  0  0  2  0  0  0  0  0  0
  160.7960  208.9720  152.8360 C   0  0  0  0  0  2  0  0  0  0  0  0
  160.6510  206.5390  153.4520 C   0  0  0  0  0  2  0  0  0  0  0  0
  161.4260  211.1830  152.1740 O   0  0  0  0  0  0  0  0  0  0  0  0
  162.0390  209.4970  150.6290 C   0  0  0  0  0  3  0  0  0  0  0  0
  161.1300  204.8130  151.8680 C   0  0  2  0  0  3  0  0  0  0  0  0
  160.7310  203.9360  147.2210 O   0  0  0  0  0  0  0  0  0  0  0  0
  161.9060  204.5110  146.7150 C   0  0  2  0  0  3  0  0  0  0  0  0
  160.3430  206.4720  145.5470 C   0  0  0  0  0  2  0  0  0  0  0  0
  162.1160  205.9130  147.3000 C   0  0  0  0  0  2  0  0  0  0  0  0
  160.6090  204.2400  144.5120 C   0  0  0  0  0  2  0  0  0  0  0  0
  161.9530  204.5140  145.1690 C   0  0  1  0  0  3  0  0  0  0  0  0
  161.1430  205.6560  144.5320 C   0  0  2  0  0  3  0  0  0  0  0  0
  161.2560  207.0040  146.6480 C   0  0  0  0  0  2  0  0  0  0  0  0
  1 21  1  6  0  0  0
  1  4  1  0  0  0  0
  2  6  1  0  0  0  0
  3  7  1  0  0  0  0
  4  9  1  0  0  0  0
  5  3  1  0  0  0  0
  6 20  1  0  0  0  0
  7  2  1  0  0  0  0
  8  1  1  0  0  0  0
  8  5  1  0  0  0  0
  9  7  1  0  0  0  0
  9  2  1  0  0  0  0
  9  6  1  0  0  0  0
 10 19  2  0  0  0  0
 10 14  1  0  0  0  0
 11 16  1  0  0  0  0
 11 17  1  0  0  0  0
 12 14  1  0  0  0  0
 12 20  1  0  0  0  0
 13 18  2  0  0  0  0
 13 16  1  0  0  0  0
 14 11  1  0  0  0  0
 15 17  1  0  0  0  0
 19 13  1  0  0  0  0
 20 15  1  0  0  0  0
 22 21  1  0  0  0  0
 22 24  1  0  0  0  0
 23 28  1  0  0  0  0
 25 27  1  0  0  0  0
 25 26  1  0  0  0  0
 26 22  1  0  0  0  0
 27 26  1  0  0  0  0
 27 23  1  0  0  0  0
 28 24  1  0  0  0  0
M  END
>  <MODEL>
2

>  <REMARK>
 VINA RESULT:      -8.6      1.122      1.578
  Name = 
  3 active torsions:
  status: ('A' for Active; 'I' for Inactive)
    1  A    between atoms: C_1  and  O_2
    2  A    between atoms: O_2  and  C_3
    3  A    between atoms: C_20  and  C_25
                            x       y       z     vdW  Elec       q    Type
                         _______ _______ _______ _____ _____    ______ ____

>  <TORSDO>
F 3

$$$$
=
 OpenBabel11052422483D

 28 34  0  0  1  0  0  0  0  0999 V2000
  158.9130  211.4470  152.9210 C   0  0  1  0  0  3  0  0  0  0  0  0
  162.0730  209.8800  153.5200 C   0  0  2  0  0  3  0  0  0  0  0  0
  160.9070  211.0640  155.4690 C   0  0  0  0  0  2  0  0  0  0  0  0
  160.0770  210.8260  152.3920 O   0  0  0  0  0  0  0  0  0  0  0  0
  159.5800  211.8840  155.4300 C   0  0  0  0  0  2  0  0  0  0  0  0
  161.1070  208.7480  153.2600 C   0  0  1  0  0  3  0  0  0  0  0  0
  161.5080  211.0850  154.1500 N   0  0  2  0  0  0  0  0  0  0  0  0
  159.2030  212.4960  154.0430 C   0  0  0  0  0  2  0  0  0  0  0  0
  160.5970  210.1540  153.4900 C   0  0  1  0  0  0  0  0  0  0  0  0
  160.8630  204.9620  149.8360 C   0  0  0  0  0  3  0  0  0  0  0  0
  162.0110  207.1190  149.3270 C   0  0  1  0  0  3  0  0  0  0  0  0
  160.9770  206.7430  151.5780 C   0  0  0  0  0  2  0  0  0  0  0  0
  161.7410  205.3650  147.5880 C   0  0  0  0  0  0  0  0  0  0  0  0
  160.8670  206.4430  150.0900 C   0  0  2  0  0  3  0  0  0  0  0  0
  162.1810  208.8450  151.0430 N   0  0  0  0  0  2  0  0  0  0  0  0
  161.8650  206.8440  147.8320 C   0  0  0  0  0  2  0  0  0  0  0  0
  161.9810  208.6150  149.6130 C   0  0  0  0  0  2  0  0  0  0  0  0
  162.0400  204.8900  146.4630 O   0  0  0  0  0  0  0  0  0  0  0  0
  161.2430  204.4700  148.6520 C   0  0  0  0  0  3  0  0  0  0  0  0
  161.0590  208.2670  151.7910 C   0  0  2  0  0  3  0  0  0  0  0  0
  158.2090  212.0610  151.8820 O   0  0  0  0  0  0  0  0  0  0  0  0
  158.3240  213.4370  152.1240 C   0  0  2  0  0  3  0  0  0  0  0  0
  157.2400  213.8820  149.6180 C   0  0  0  0  0  2  0  0  0  0  0  0
  156.9410  214.0990  152.1470 C   0  0  0  0  0  2  0  0  0  0  0  0
  159.6280  213.3050  149.9120 C   0  0  0  0  0  2  0  0  0  0  0  0
  159.2870  214.1390  151.1380 C   0  0  1  0  0  3  0  0  0  0  0  0
  158.6500  214.4510  149.7740 C   0  0  2  0  0  3  0  0  0  0  0  0
  156.3410  214.3540  150.7580 C   0  0  0  0  0  2  0  0  0  0  0  0
  1 21  1  6  0  0  0
  1  8  1  0  0  0  0
  2  7  1  0  0  0  0
  4  1  1  0  0  0  0
  4  9  1  0  0  0  0
  5  3  1  0  0  0  0
  6  9  1  0  0  0  0
  6  2  1  0  0  0  0
  7  3  1  0  0  0  0
  8  5  1  0  0  0  0
  9  2  1  0  0  0  0
  9  7  1  0  0  0  0
 10 14  1  0  0  0  0
 11 17  1  0  0  0  0
 11 14  1  0  0  0  0
 12 20  1  0  0  0  0
 13 16  1  0  0  0  0
 13 19  1  0  0  0  0
 14 12  1  0  0  0  0
 15 20  1  0  0  0  0
 16 11  1  0  0  0  0
 17 15  1  0  0  0  0
 18 13  2  0  0  0  0
 19 10  2  0  0  0  0
 20  6  1  0  0  0  0
 21 22  1  0  0  0  0
 22 24  1  0  0  0  0
 23 27  1  0  0  0  0
 23 28  1  0  0  0  0
 25 26  1  0  0  0  0
 26 22  1  0  0  0  0
 27 25  1  0  0  0  0
 27 26  1  0  0  0  0
 28 24  1  0  0  0  0
M  END
>  <MODEL>
3

>  <REMARK>
 VINA RESULT:      -8.0      3.548      8.135
  Name = 
  3 active torsions:
  status: ('A' for Active; 'I' for Inactive)
    1  A    between atoms: C_1  and  O_2
    2  A    between atoms: O_2  and  C_3
    3  A    between atoms: C_20  and  C_25
                            x       y       z     vdW  Elec       q    Type
                         _______ _______ _______ _____ _____    ______ ____

>  <TORSDO>
F 3

$$$$
=
 OpenBabel11052422483D

 28 34  0  0  1  0  0  0  0  0999 V2000
  160.7250  209.5440  152.6840 C   0  0  1  0  0  3  0  0  0  0  0  0
  159.0220  212.5680  153.5540 C   0  0  2  0  0  3  0  0  0  0  0  0
  160.6860  211.5760  155.2300 C   0  0  0  0  0  2  0  0  0  0  0  0
  159.6940  210.4790  152.3970 O   0  0  0  0  0  0  0  0  0  0  0  0
  161.4740  210.2350  155.1110 C   0  0  0  0  0  2  0  0  0  0  0  0
  159.9510  212.9420  152.4230 C   0  0  1  0  0  3  0  0  0  0  0  0
  159.4770  211.4800  154.4360 N   0  0  2  0  0  0  0  0  0  0  0  0
  160.8270  209.1490  154.1930 C   0  0  0  0  0  2  0  0  0  0  0  0
  160.0840  211.6020  153.1140 C   0  0  1  0  0  0  0  0  0  0  0  0
  160.1720  213.8800  147.4040 C   0  0  0  0  0  3  0  0  0  0  0  0
  158.0050  213.8720  148.6420 C   0  0  1  0  0  3  0  0  0  0  0  0
  160.1550  213.4570  149.8620 C   0  0  0  0  0  2  0  0  0  0  0  0
  158.0740  214.1440  146.1740 C   0  0  0  0  0  0  0  0  0  0  0  0
  159.4110  213.2700  148.5470 C   0  0  2  0  0  3  0  0  0  0  0  0
  157.9820  213.5200  151.0560 N   0  0  0  0  0  2  0  0  0  0  0  0
  157.2570  213.6410  147.3310 C   0  0  0  0  0  2  0  0  0  0  0  0
  157.2700  213.2310  149.8120 C   0  0  0  0  0  2  0  0  0  0  0  0
  157.5060  214.4510  145.0940 O   0  0  0  0  0  0  0  0  0  0  0  0
  159.5420  214.2550  146.2860 C   0  0  0  0  0  3  0  0  0  0  0  0
  159.3070  212.8920  151.0170 C   0  0  2  0  0  3  0  0  0  0  0  0
  160.5280  208.3950  151.9150 O   0  0  0  0  0  0  0  0  0  0  0  0
  161.7930  208.0770  151.4010 C   0  0  2  0  0  3  0  0  0  0  0  0
  160.6380  205.9080  150.1280 C   0  0  0  0  0  2  0  0  0  0  0  0
  161.7940  208.1730  149.8700 C   0  0  0  0  0  2  0  0  0  0  0  0
  161.2400  205.8330  152.5270 C   0  0  0  0  0  2  0  0  0  0  0  0
  162.3130  206.7060  151.8960 C   0  0  1  0  0  3  0  0  0  0  0  0
  161.7220  205.5120  151.1300 C   0  0  2  0  0  3  0  0  0  0  0  0
  161.1610  206.9680  149.1620 C   0  0  0  0  0  2  0  0  0  0  0  0
  1 21  1  6  0  0  0
  1  8  1  0  0  0  0
  2  7  1  0  0  0  0
  4  1  1  0  0  0  0
  4  9  1  0  0  0  0
  5  3  1  0  0  0  0
  6  9  1  0  0  0  0
  6  2  1  0  0  0  0
  7  3  1  0  0  0  0
  8  5  1  0  0  0  0
  9  2  1  0  0  0  0
  9  7  1  0  0  0  0
 10 14  1  0  0  0  0
 11 17  1  0  0  0  0
 12 20  1  0  0  0  0
 13 19  1  0  0  0  0
 13 16  1  0  0  0  0
 14 11  1  0  0  0  0
 14 12  1  0  0  0  0
 16 11  1  0  0  0  0
 17 15  1  0  0  0  0
 18 13  2  0  0  0  0
 19 10  2  0  0  0  0
 20 15  1  0  0  0  0
 20  6  1  0  0  0  0
 22 26  1  0  0  0  0
 22 21  1  0  0  0  0
 23 27  1  0  0  0  0
 24 22  1  0  0  0  0
 26 25  1  0  0  0  0
 27 26  1  0  0  0  0
 27 25  1  0  0  0  0
 28 24  1  0  0  0  0
 28 23  1  0  0  0  0
M  END
>  <MODEL>
4

>  <REMARK>
 VINA RESULT:      -7.7      4.137      7.410
  Name = 
  3 active torsions:
  status: ('A' for Active; 'I' for Inactive)
    1  A    between atoms: C_1  and  O_2
    2  A    between atoms: O_2  and  C_3
    3  A    between atoms: C_20  and  C_25
                            x       y       z     vdW  Elec       q    Type
                         _______ _______ _______ _____ _____    ______ ____

>  <TORSDO>
F 3

$$$$
=
 OpenBabel11052422483D

 28 34  0  0  1  0  0  0  0  0999 V2000
  160.8480  207.8030  153.0840 C   0  0  1  0  0  3  0  0  0  0  0  0
  159.6480  210.8970  154.4200 C   0  0  2  0  0  3  0  0  0  0  0  0
  160.7280  209.2120  156.0180 C   0  0  0  0  0  2  0  0  0  0  0  0
  160.0980  208.9950  152.8930 O   0  0  0  0  0  0  0  0  0  0  0  0
  161.2410  207.7760  155.6870 C   0  0  0  0  0  2  0  0  0  0  0  0
  160.8310  211.2650  153.5570 C   0  0  1  0  0  3  0  0  0  0  0  0
  159.6990  209.5730  155.0640 N   0  0  2  0  0  0  0  0  0  0  0  0
  160.5790  207.0900  154.4490 C   0  0  0  0  0  2  0  0  0  0  0  0
  160.5600  209.8190  153.9110 C   0  0  1  0  0  0  0  0  0  0  0  0
  162.1180  211.7310  148.6330 C   0  0  0  0  0  3  0  0  0  0  0  0
  160.4480  213.2470  149.7010 C   0  0  1  0  0  3  0  0  0  0  0  0
  161.5790  211.4650  151.0530 C   0  0  0  0  0  2  0  0  0  0  0  0
  160.9220  213.3680  147.2650 C   0  0  0  0  0  0  0  0  0  0  0  0
  161.0430  211.8350  149.6780 C   0  0  2  0  0  3  0  0  0  0  0  0
  159.9580  213.0360  152.0810 N   0  0  0  0  0  2  0  0  0  0  0  0
  159.8790  213.5890  148.3260 C   0  0  0  0  0  2  0  0  0  0  0  0
  159.3680  213.3120  150.7720 C   0  0  0  0  0  2  0  0  0  0  0  0
  160.8310  213.9720  146.1660 O   0  0  0  0  0  0  0  0  0  0  0  0
  162.0360  212.4270  147.4950 C   0  0  0  0  0  3  0  0  0  0  0  0
  160.4710  211.6630  152.1060 C   0  0  2  0  0  3  0  0  0  0  0  0
  160.5770  206.9190  152.0370 O   0  0  0  0  0  0  0  0  0  0  0  0
  161.8310  206.5820  151.5080 C   0  0  2  0  0  3  0  0  0  0  0  0
  160.6650  206.5250  149.0000 C   0  0  0  0  0  2  0  0  0  0  0  0
  162.3300  207.6780  150.5590 C   0  0  0  0  0  2  0  0  0  0  0  0
  160.4580  204.6220  150.5680 C   0  0  0  0  0  2  0  0  0  0  0  0
  161.8440  205.1860  150.8400 C   0  0  1  0  0  3  0  0  0  0  0  0
  161.2630  205.1820  149.4160 C   0  0  2  0  0  3  0  0  0  0  0  0
  161.6900  207.6440  149.1650 C   0  0  0  0  0  2  0  0  0  0  0  0
  1 21  1  6  0  0  0
  1  8  1  0  0  0  0
  2  7  1  0  0  0  0
  4  1  1  0  0  0  0
  4  9  1  0  0  0  0
  5  3  1  0  0  0  0
  6  9  1  0  0  0  0
  6  2  1  0  0  0  0
  7  3  1  0  0  0  0
  8  5  1  0  0  0  0
  9  2  1  0  0  0  0
  9  7  1  0  0  0  0
 10 14  1  0  0  0  0
 11 17  1  0  0  0  0
 12 20  1  0  0  0  0
 13 19  1  0  0  0  0
 13 16  1  0  0  0  0
 14 11  1  0  0  0  0
 14 12  1  0  0  0  0
 15 20  1  0  0  0  0
 16 11  1  0  0  0  0
 17 15  1  0  0  0  0
 18 13  2  0  0  0  0
 19 10  2  0  0  0  0
 20  6  1  0  0  0  0
 22 21  1  0  0  0  0
 23 28  1  0  0  0  0
 23 27  1  0  0  0  0
 24 22  1  0  0  0  0
 25 26  1  0  0  0  0
 26 22  1  0  0  0  0
 27 25  1  0  0  0  0
 27 26  1  0  0  0  0
 28 24  1  0  0  0  0
M  END
>  <MODEL>
5

>  <REMARK>
 VINA RESULT:      -7.6      3.381      5.981
  Name = 
  3 active torsions:
  status: ('A' for Active; 'I' for Inactive)
    1  A    between atoms: C_1  and  O_2
    2  A    between atoms: O_2  and  C_3
    3  A    between atoms: C_20  and  C_25
                            x       y       z     vdW  Elec       q    Type
                         _______ _______ _______ _____ _____    ______ ____

>  <TORSDO>
F 3

$$$$
=
 OpenBabel11052422483D

 28 34  0  0  1  0  0  0  0  0999 V2000
  161.0780  203.9530  149.0750 C   0  0  1  0  0  3  0  0  0  0  0  0
  161.0360  204.1630  152.6460 C   0  0  2  0  0  3  0  0  0  0  0  0
  161.2370  201.8520  151.5590 C   0  0  0  0  0  2  0  0  0  0  0  0
  160.8630  204.7380  150.2400 O   0  0  0  0  0  0  0  0  0  0  0  0
  161.1890  201.5060  150.0380 C   0  0  0  0  0  2  0  0  0  0  0  0
  162.3450  204.7870  152.2230 C   0  0  1  0  0  3  0  0  0  0  0  0
  160.5170  203.0910  151.7800 N   0  0  2  0  0  0  0  0  0  0  0  0
  160.4320  202.5310  149.1350 C   0  0  0  0  0  2  0  0  0  0  0  0
  161.5090  204.0100  151.2300 C   0  0  1  0  0  0  0  0  0  0  0  0
  160.4150  209.3390  153.5180 C   0  0  0  0  0  3  0  0  0  0  0  0
  161.2910  208.8900  151.2250 C   0  0  1  0  0  3  0  0  0  0  0  0
  161.2990  207.0760  152.9540 C   0  0  0  0  0  2  0  0  0  0  0  0
  160.5300  211.1600  151.8900 C   0  0  0  0  0  0  0  0  0  0  0  0
  161.4300  208.5740  152.7170 C   0  0  2  0  0  3  0  0  0  0  0  0
  162.1010  206.6640  150.6430 N   0  0  0  0  0  2  0  0  0  0  0  0
  161.4650  210.3900  150.9980 C   0  0  0  0  0  2  0  0  0  0  0  0
  162.3330  208.0950  150.4500 C   0  0  0  0  0  2  0  0  0  0  0  0
  160.1950  212.3320  151.5800 O   0  0  0  0  0  0  0  0  0  0  0  0
  160.0250  210.5600  153.1410 C   0  0  0  0  0  3  0  0  0  0  0  0
  162.3000  206.3240  152.0560 C   0  0  2  0  0  3  0  0  0  0  0  0
  160.5860  204.6400  147.9620 O   0  0  0  0  0  0  0  0  0  0  0  0
  161.7130  205.2250  147.3660 C   0  0  2  0  0  3  0  0  0  0  0  0
  160.3360  205.2290  144.9660 C   0  0  0  0  0  2  0  0  0  0  0  0
  161.3780  206.6250  146.8360 C   0  0  0  0  0  2  0  0  0  0  0  0
  161.4480  203.1900  145.8180 C   0  0  0  0  0  2  0  0  0  0  0  0
  162.3460  204.3290  146.2760 C   0  0  1  0  0  3  0  0  0  0  0  0
  161.6170  204.3980  144.9240 C   0  0  2  0  0  3  0  0  0  0  0  0
  160.6210  206.6300  145.5020 C   0  0  0  0  0  2  0  0  0  0  0  0
  1 21  1  6  0  0  0
  1  8  1  0  0  0  0
  1  4  1  0  0  0  0
  3  7  1  0  0  0  0
  4  9  1  0  0  0  0
  5  3  1  0  0  0  0
  6  2  1  0  0  0  0
  7  2  1  0  0  0  0
  8  5  1  0  0  0  0
  9  7  1  0  0  0  0
  9  6  1  0  0  0  0
  9  2  1  0  0  0  0
 11 14  1  0  0  0  0
 13 19  1  0  0  0  0
 14 12  1  0  0  0  0
 14 10  1  0  0  0  0
 15 20  1  0  0  0  0
 16 11  1  0  0  0  0
 16 13  1  0  0  0  0
 17 15  1  0  0  0  0
 17 11  1  0  0  0  0
 18 13  2  0  0  0  0
 19 10  2  0  0  0  0
 20  6  1  0  0  0  0
 20 12  1  0  0  0  0
 22 21  1  0  0  0  0
 23 28  1  0  0  0  0
 24 22  1  0  0  0  0
 25 26  1  0  0  0  0
 26 22  1  0  0  0  0
 27 23  1  0  0  0  0
 27 25  1  0  0  0  0
 27 26  1  0  0  0  0
 28 24  1  0  0  0  0
M  END
>  <MODEL>
6

>  <REMARK>
 VINA RESULT:      -7.5      1.295      2.013
  Name = 
  3 active torsions:
  status: ('A' for Active; 'I' for Inactive)
    1  A    between atoms: C_1  and  O_2
    2  A    between atoms: O_2  and  C_3
    3  A    between atoms: C_20  and  C_25
                            x       y       z     vdW  Elec       q    Type
                         _______ _______ _______ _____ _____    ______ ____

>  <TORSDO>
F 3

$$$$
=
 OpenBabel11052422483D

 28 34  0  0  1  0  0  0  0  0999 V2000
  160.0430  210.9680  152.8470 C   0  0  1  0  0  3  0  0  0  0  0  0
  158.2750  213.8880  151.7760 C   0  0  2  0  0  3  0  0  0  0  0  0
  158.8400  213.6440  154.2630 C   0  0  0  0  0  2  0  0  0  0  0  0
  159.3340  211.6450  151.8190 O   0  0  0  0  0  0  0  0  0  0  0  0
  159.5210  212.4320  154.9720 C   0  0  0  0  0  2  0  0  0  0  0  0
  159.6580  214.0170  151.1840 C   0  0  1  0  0  3  0  0  0  0  0  0
  158.1810  213.1730  153.0610 N   0  0  2  0  0  0  0  0  0  0  0  0
  159.3650  211.0530  154.2530 C   0  0  0  0  0  2  0  0  0  0  0  0
  159.3690  212.9690  152.2370 C   0  0  1  0  0  0  0  0  0  0  0  0
  162.4300  213.3230  146.9470 C   0  0  0  0  0  3  0  0  0  0  0  0
  159.9460  213.5510  146.8670 C   0  0  1  0  0  3  0  0  0  0  0  0
  161.1550  213.7050  149.0570 C   0  0  0  0  0  2  0  0  0  0  0  0
  161.2560  213.0290  144.8220 C   0  0  0  0  0  0  0  0  0  0  0  0
  161.1460  213.0550  147.6800 C   0  0  2  0  0  3  0  0  0  0  0  0
  158.6950  213.9850  148.9150 N   0  0  0  0  0  2  0  0  0  0  0  0
  159.9270  212.8620  145.5040 C   0  0  0  0  0  2  0  0  0  0  0  0
  158.6680  213.2640  147.6430 C   0  0  0  0  0  2  0  0  0  0  0  0
  161.3310  212.9330  143.5700 O   0  0  0  0  0  0  0  0  0  0  0  0
  162.4780  213.2770  145.6120 C   0  0  0  0  0  3  0  0  0  0  0  0
  159.7940  213.4760  149.7420 C   0  0  2  0  0  3  0  0  0  0  0  0
  160.2000  209.6270  152.4880 O   0  0  0  0  0  0  0  0  0  0  0  0
  161.5850  209.4090  152.4840 C   0  0  2  0  0  3  0  0  0  0  0  0
  161.2070  207.5870  150.4370 C   0  0  0  0  0  2  0  0  0  0  0  0
  162.1940  209.8350  151.1420 C   0  0  0  0  0  2  0  0  0  0  0  0
  160.7960  206.9830  152.8010 C   0  0  0  0  0  2  0  0  0  0  0  0
  161.9640  207.9560  152.8570 C   0  0  1  0  0  3  0  0  0  0  0  0
  161.8230  206.9660  151.6890 C   0  0  2  0  0  3  0  0  0  0  0  0
  161.9920  208.8230  150.0070 C   0  0  0  0  0  2  0  0  0  0  0  0
  1 21  1  6  0  0  0
  1  8  1  0  0  0  0
  2  9  1  0  0  0  0
  2  7  1  0  0  0  0
  3  5  1  0  0  0  0
  4  9  1  0  0  0  0
  4  1  1  0  0  0  0
  6  2  1  0  0  0  0
  6  9  1  0  0  0  0
  7  3  1  0  0  0  0
  8  5  1  0  0  0  0
  9  7  1  0  0  0  0
 10 14  1  0  0  0  0
 11 17  1  0  0  0  0
 11 14  1  0  0  0  0
 12 20  1  0  0  0  0
 13 16  1  0  0  0  0
 13 19  1  0  0  0  0
 14 12  1  0  0  0  0
 15 20  1  0  0  0  0
 16 11  1  0  0  0  0
 17 15  1  0  0  0  0
 18 13  2  0  0  0  0
 19 10  2  0  0  0  0
 20  6  1  0  0  0  0
 22 21  1  0  0  0  0
 22 26  1  0  0  0  0
 23 27  1  0  0  0  0
 24 22  1  0  0  0  0
 25 26  1  0  0  0  0
 27 25  1  0  0  0  0
 27 26  1  0  0  0  0
 28 23  1  0  0  0  0
 28 24  1  0  0  0  0
M  END
>  <MODEL>
7

>  <REMARK>
 VINA RESULT:      -7.1      4.933      8.249
  Name = 
  3 active torsions:
  status: ('A' for Active; 'I' for Inactive)
    1  A    between atoms: C_1  and  O_2
    2  A    between atoms: O_2  and  C_3
    3  A    between atoms: C_20  and  C_25
                            x       y       z     vdW  Elec       q    Type
                         _______ _______ _______ _____ _____    ______ ____

>  <TORSDO>
F 3

$$$$
=
 OpenBabel11052422483D

 28 34  0  0  1  0  0  0  0  0999 V2000
  161.1930  203.6320  147.5480 C   0  0  1  0  0  3  0  0  0  0  0  0
  162.2670  206.6060  145.8740 C   0  0  2  0  0  3  0  0  0  0  0  0
  161.0740  204.7960  144.5080 C   0  0  0  0  0  2  0  0  0  0  0  0
  161.9490  204.8350  147.5810 O   0  0  0  0  0  0  0  0  0  0  0  0
  160.5970  203.3930  144.9950 C   0  0  0  0  0  2  0  0  0  0  0  0
  161.1530  207.0430  146.7950 C   0  0  1  0  0  3  0  0  0  0  0  0
  162.1730  205.2340  145.3460 N   0  0  2  0  0  0  0  0  0  0  0  0
  161.3590  202.8100  146.2280 C   0  0  0  0  0  2  0  0  0  0  0  0
  161.4040  205.5730  146.5390 C   0  0  1  0  0  0  0  0  0  0  0  0
  160.8080  207.0190  151.8930 C   0  0  0  0  0  3  0  0  0  0  0  0
  161.5390  209.0490  150.6380 C   0  0  1  0  0  3  0  0  0  0  0  0
  160.9060  206.9620  149.4020 C   0  0  0  0  0  2  0  0  0  0  0  0
  161.5570  208.9980  153.1220 C   0  0  0  0  0  0  0  0  0  0  0  0
  161.5320  207.5170  150.6740 C   0  0  2  0  0  3  0  0  0  0  0  0
  161.5800  209.0240  148.1990 N   0  0  0  0  0  2  0  0  0  0  0  0
  162.2040  209.5900  151.9010 C   0  0  0  0  0  2  0  0  0  0  0  0
  162.2760  209.5110  149.3890 C   0  0  0  0  0  2  0  0  0  0  0  0
  161.6350  209.5980  154.2240 O   0  0  0  0  0  0  0  0  0  0  0  0
  160.8530  207.7020  153.0420 C   0  0  0  0  0  3  0  0  0  0  0  0
  161.6230  207.5580  148.1750 C   0  0  2  0  0  3  0  0  0  0  0  0
  161.5510  202.8350  148.6390 O   0  0  0  0  0  0  0  0  0  0  0  0
  160.3990  202.7650  149.4340 C   0  0  2  0  0  3  0  0  0  0  0  0
  162.0020  201.9480  151.5360 C   0  0  0  0  0  2  0  0  0  0  0  0
  160.4780  203.7690  150.5900 C   0  0  0  0  0  2  0  0  0  0  0  0
  161.2710  200.3710  149.7750 C   0  0  0  0  0  2  0  0  0  0  0  0
  160.1020  201.3310  149.9310 C   0  0  1  0  0  3  0  0  0  0  0  0
  160.9440  200.9150  151.1490 C   0  0  2  0  0  3  0  0  0  0  0  0
  161.3610  203.3150  151.7610 C   0  0  0  0  0  2  0  0  0  0  0  0
  1  4  1  0  0  0  0
  1 21  1  1  0  0  0
  2  9  1  0  0  0  0
  2  6  1  0  0  0  0
  3  5  1  0  0  0  0
  3  7  1  0  0  0  0
  5  8  1  0  0  0  0
  6 20  1  0  0  0  0
  7  2  1  0  0  0  0
  7  9  1  0  0  0  0
  8  1  1  0  0  0  0
  9  6  1  0  0  0  0
  9  4  1  0  0  0  0
 10 19  2  0  0  0  0
 11 14  1  0  0  0  0
 11 16  1  0  0  0  0
 12 14  1  0  0  0  0
 13 18  2  0  0  0  0
 14 10  1  0  0  0  0
 15 17  1  0  0  0  0
 16 13  1  0  0  0  0
 17 11  1  0  0  0  0
 19 13  1  0  0  0  0
 20 15  1  0  0  0  0
 20 12  1  0  0  0  0
 21 22  1  0  0  0  0
 22 26  1  0  0  0  0
 22 24  1  0  0  0  0
 23 28  1  0  0  0  0
 24 28  1  0  0  0  0
 25 26  1  0  0  0  0
 25 27  1  0  0  0  0
 26 27  1  0  0  0  0
 27 23  1  0  0  0  0
M  END
>  <MODEL>
8

>  <REMARK>
 VINA RESULT:      -7.1      2.165      4.835
  Name = 
  3 active torsions:
  status: ('A' for Active; 'I' for Inactive)
    1  A    between atoms: C_1  and  O_2
    2  A    between atoms: O_2  and  C_3
    3  A    between atoms: C_20  and  C_25
                            x       y       z     vdW  Elec       q    Type
                         _______ _______ _______ _____ _____    ______ ____

>  <TORSDO>
F 3

$$$$
=
 OpenBabel11052422483D

 28 34  0  0  1  0  0  0  0  0999 V2000
  161.3140  204.4830  148.2160 C   0  0  1  0  0  3  0  0  0  0  0  0
  162.4720  207.7970  147.5230 C   0  0  2  0  0  3  0  0  0  0  0  0
  161.3910  206.4580  145.6260 C   0  0  0  0  0  2  0  0  0  0  0  0
  162.0540  205.6200  148.6380 O   0  0  0  0  0  0  0  0  0  0  0  0
  160.8950  204.9790  145.6640 C   0  0  0  0  0  2  0  0  0  0  0  0
  161.2940  207.9690  148.4520 C   0  0  1  0  0  3  0  0  0  0  0  0
  162.4270  206.6300  146.6250 N   0  0  2  0  0  0  0  0  0  0  0  0
  161.5760  204.0640  146.7330 C   0  0  0  0  0  2  0  0  0  0  0  0
  161.5750  206.6280  147.8110 C   0  0  1  0  0  0  0  0  0  0  0  0
  160.6400  206.4780  153.2960 C   0  0  0  0  0  3  0  0  0  0  0  0
  161.3890  208.7890  152.7250 C   0  0  1  0  0  3  0  0  0  0  0  0
  160.8910  207.1400  150.9050 C   0  0  0  0  0  2  0  0  0  0  0  0
  161.2560  208.0260  155.0860 C   0  0  0  0  0  0  0  0  0  0  0  0
  161.4220  207.3120  152.3210 C   0  0  2  0  0  3  0  0  0  0  0  0
  161.5800  209.4670  150.3900 N   0  0  0  0  0  2  0  0  0  0  0  0
  161.9610  208.9510  154.1320 C   0  0  0  0  0  2  0  0  0  0  0  0
  162.1880  209.5980  151.7130 C   0  0  0  0  0  2  0  0  0  0  0  0
  161.2510  208.2860  156.3170 O   0  0  0  0  0  0  0  0  0  0  0  0
  160.5950  206.8020  154.5930 C   0  0  0  0  0  3  0  0  0  0  0  0
  161.6650  208.0700  149.9500 C   0  0  2  0  0  3  0  0  0  0  0  0
  161.6040  203.4090  149.0600 O   0  0  0  0  0  0  0  0  0  0  0  0
  160.3860  203.0910  149.6800 C   0  0  2  0  0  3  0  0  0  0  0  0
  161.8130  201.6180  151.5370 C   0  0  0  0  0  2  0  0  0  0  0  0
  160.3400  203.6610  151.1030 C   0  0  0  0  0  2  0  0  0  0  0  0
  161.2780  200.7100  149.2980 C   0  0  0  0  0  2  0  0  0  0  0  0
  160.0780  201.5760  149.6510 C   0  0  1  0  0  3  0  0  0  0  0  0
  160.8180  200.7780  150.7380 C   0  0  2  0  0  3  0  0  0  0  0  0
  161.1250  202.8410  152.1360 C   0  0  0  0  0  2  0  0  0  0  0  0
  1  4  1  0  0  0  0
  1 21  1  1  0  0  0
  2  9  1  0  0  0  0
  2  6  1  0  0  0  0
  3  5  1  0  0  0  0
  3  7  1  0  0  0  0
  5  8  1  0  0  0  0
  6 20  1  0  0  0  0
  7  2  1  0  0  0  0
  7  9  1  0  0  0  0
  8  1  1  0  0  0  0
  9  6  1  0  0  0  0
  9  4  1  0  0  0  0
 10 19  2  0  0  0  0
 11 16  1  0  0  0  0
 12 14  1  0  0  0  0
 13 18  2  0  0  0  0
 14 11  1  0  0  0  0
 14 10  1  0  0  0  0
 15 17  1  0  0  0  0
 16 13  1  0  0  0  0
 17 11  1  0  0  0  0
 19 13  1  0  0  0  0
 20 15  1  0  0  0  0
 20 12  1  0  0  0  0
 21 22  1  0  0  0  0
 22 24  1  0  0  0  0
 23 28  1  0  0  0  0
 24 28  1  0  0  0  0
 25 26  1  0  0  0  0
 25 27  1  0  0  0  0
 26 22  1  0  0  0  0
 26 27  1  0  0  0  0
 27 23  1  0  0  0  0
M  END
>  <MODEL>
9

>  <REMARK>
 VINA RESULT:      -7.0      2.365      5.080
  Name = 
  3 active torsions:
  status: ('A' for Active; 'I' for Inactive)
    1  A    between atoms: C_1  and  O_2
    2  A    between atoms: O_2  and  C_3
    3  A    between atoms: C_20  and  C_25
                            x       y       z     vdW  Elec       q    Type
                         _______ _______ _______ _____ _____    ______ ____

>  <TORSDO>
F 3

$$$$
