=
 OpenBabel11052422523D

 28 31  0  0  1  0  0  0  0  0999 V2000
  160.8380  210.0050  152.7810 C   0  0  0  0  0  0  0  0  0  0  0  0
  160.6790  207.5130  156.2850 C   0  0  0  0  0  1  0  0  0  0  0  0
  160.9800  206.5240  151.1880 C   0  0  2  0  0  3  0  0  0  0  0  0
  160.9540  207.7730  153.7820 C   0  0  0  0  0  0  0  0  0  0  0  0
  161.2480  208.0250  151.2630 C   0  0  0  0  0  2  0  0  0  0  0  0
  160.5980  209.7280  155.1790 C   0  0  0  0  0  3  0  0  0  0  0  0
  161.0220  206.2690  153.6540 C   0  0  0  0  0  2  0  0  0  0  0  0
  160.7480  208.3480  155.0510 C   0  0  0  0  0  0  0  0  0  0  0  0
  161.6630  205.8160  152.3500 C   0  0  0  0  0  2  0  0  0  0  0  0
  160.6450  210.5490  154.0550 C   0  0  0  0  0  3  0  0  0  0  0  0
  160.9840  208.6070  152.6320 C   0  0  0  0  0  0  0  0  0  0  0  0
  161.7590  206.7960  148.8770 C   0  0  0  0  0  3  0  0  0  0  0  0
  161.1550  203.8010  148.6270 C   0  0  0  0  0  3  0  0  0  0  0  0
  161.2570  205.5290  146.8290 C   0  0  0  0  0  0  0  0  0  0  0  0
  161.4100  205.9610  149.8660 C   0  0  0  0  0  0  0  0  0  0  0  0
  161.6910  203.7580  150.8640 F   0  0  0  0  0  0  0  0  0  0  0  0
  160.8210  204.3620  147.3030 C   0  0  0  0  0  3  0  0  0  0  0  0
  161.4630  204.4830  149.7400 C   0  0  0  0  0  0  0  0  0  0  0  0
  160.8150  205.9690  145.4810 C   0  0  0  0  0  1  0  0  0  0  0  0
  162.2740  206.3450  147.5540 C   0  0  0  0  0  2  0  0  0  0  0  0
  160.9080  210.9240  151.6250 C   0  0  0  0  0  0  0  0  0  0  0  0
  161.8940  210.7110  150.6520 C   0  0  0  0  0  3  0  0  0  0  0  0
  160.1380  212.8700  150.3800 C   0  0  0  0  0  0  0  0  0  0  0  0
  162.0030  211.5660  149.5530 C   0  0  0  0  0  3  0  0  0  0  0  0
  158.7380  212.3020  152.6620 Cl  0  0  0  0  0  0  0  0  0  0  0  0
  160.0220  212.0160  151.4890 C   0  0  0  0  0  0  0  0  0  0  0  0
  159.2730  213.9450  150.2230 O   0  0  0  0  0  1  0  0  0  0  0  0
  161.1260  212.6430  149.4190 C   0  0  0  0  0  3  0  0  0  0  0  0
  1 10  1  0  0  0  0
  3 15  1  6  0  0  0
  3  5  1  0  0  0  0
  3  9  1  0  0  0  0
  4  8  2  0  0  0  0
  5 11  1  0  0  0  0
  7  4  1  0  0  0  0
  8  6  1  0  0  0  0
  8  2  1  0  0  0  0
  9  7  1  0  0  0  0
 10  6  2  0  0  0  0
 11  1  2  0  0  0  0
 11  4  1  0  0  0  0
 12 15  2  0  0  0  0
 13 18  2  0  0  0  0
 14 17  2  0  0  0  0
 14 20  1  0  0  0  0
 17 13  1  0  0  0  0
 18 15  1  0  0  0  0
 18 16  1  0  0  0  0
 19 14  1  0  0  0  0
 20 12  1  0  0  0  0
 21  1  1  0  0  0  0
 22 21  2  0  0  0  0
 23 26  2  0  0  0  0
 24 22  1  0  0  0  0
 26 21  1  0  0  0  0
 26 25  1  0  0  0  0
 27 23  1  0  0  0  0
 28 24  2  0  0  0  0
 28 23  1  0  0  0  0
M  END
>  <MODEL>
1

>  <REMARK>
 VINA RESULT:      -9.2      0.000      0.000
  Name = 
  2 active torsions:
  status: ('A' for Active; 'I' for Inactive)
    1  A    between atoms: C_1  and  C_2
    2  A    between atoms: C_10  and  C_13
                            x       y       z     vdW  Elec       q    Type
                         _______ _______ _______ _____ _____    ______ ____

>  <TORSDO>
F 2

$$$$
=
 OpenBabel11052422523D

 28 31  0  0  1  0  0  0  0  0999 V2000
  160.1540  209.9970  153.9300 C   0  0  0  0  0  0  0  0  0  0  0  0
  160.6110  207.3110  157.2600 C   0  0  0  0  0  1  0  0  0  0  0  0
  160.8310  206.7010  152.1000 C   0  0  2  0  0  3  0  0  0  0  0  0
  160.7120  207.7660  154.7720 C   0  0  0  0  0  0  0  0  0  0  0  0
  160.8320  208.2190  152.2670 C   0  0  0  0  0  2  0  0  0  0  0  0
  160.0850  209.5370  156.3110 C   0  0  0  0  0  3  0  0  0  0  0  0
  161.0390  206.3100  154.5390 C   0  0  0  0  0  2  0  0  0  0  0  0
  160.4700  208.2170  156.0840 C   0  0  0  0  0  0  0  0  0  0  0  0
  161.6850  206.0580  153.1840 C   0  0  0  0  0  2  0  0  0  0  0  0
  159.9300  210.4200  155.2450 C   0  0  0  0  0  3  0  0  0  0  0  0
  160.5370  208.6590  153.6820 C   0  0  0  0  0  0  0  0  0  0  0  0
  161.4930  207.2540  149.8030 C   0  0  0  0  0  3  0  0  0  0  0  0
  161.2780  204.2340  149.3210 C   0  0  0  0  0  3  0  0  0  0  0  0
  161.0960  206.0960  147.6690 C   0  0  0  0  0  0  0  0  0  0  0  0
  161.2880  206.3050  150.7270 C   0  0  0  0  0  0  0  0  0  0  0  0
  161.8870  204.0880  151.5350 F   0  0  0  0  0  0  0  0  0  0  0  0
  160.8310  204.8480  148.0550 C   0  0  0  0  0  3  0  0  0  0  0  0
  161.5300  204.8620  150.4790 C   0  0  0  0  0  0  0  0  0  0  0  0
  160.5570  206.5780  146.3710 C   0  0  0  0  0  1  0  0  0  0  0  0
  162.0200  206.9810  148.4360 C   0  0  0  0  0  2  0  0  0  0  0  0
  160.0020  210.9820  152.8380 C   0  0  0  0  0  0  0  0  0  0  0  0
  161.0260  211.0990  151.8880 C   0  0  0  0  0  3  0  0  0  0  0  0
  158.7760  212.7460  151.6930 C   0  0  0  0  0  0  0  0  0  0  0  0
  160.9280  212.0270  150.8500 C   0  0  0  0  0  3  0  0  0  0  0  0
  157.5330  211.6790  153.8860 Cl  0  0  0  0  0  0  0  0  0  0  0  0
  158.8660  211.8160  152.7410 C   0  0  0  0  0  0  0  0  0  0  0  0
  157.6650  213.5710  151.5760 O   0  0  0  0  0  1  0  0  0  0  0  0
  159.8050  212.8490  150.7540 C   0  0  0  0  0  3  0  0  0  0  0  0
  1 10  1  0  0  0  0
  3 15  1  6  0  0  0
  3  5  1  0  0  0  0
  3  9  1  0  0  0  0
  4  8  2  0  0  0  0
  5 11  1  0  0  0  0
  7  4  1  0  0  0  0
  8  6  1  0  0  0  0
  8  2  1  0  0  0  0
  9  7  1  0  0  0  0
 10  6  2  0  0  0  0
 11  1  2  0  0  0  0
 11  4  1  0  0  0  0
 12 15  2  0  0  0  0
 13 18  2  0  0  0  0
 14 17  2  0  0  0  0
 14 20  1  0  0  0  0
 17 13  1  0  0  0  0
 18 15  1  0  0  0  0
 18 16  1  0  0  0  0
 19 14  1  0  0  0  0
 20 12  1  0  0  0  0
 21  1  1  0  0  0  0
 22 21  2  0  0  0  0
 23 26  2  0  0  0  0
 24 22  1  0  0  0  0
 26 21  1  0  0  0  0
 26 25  1  0  0  0  0
 27 23  1  0  0  0  0
 28 24  2  0  0  0  0
 28 23  1  0  0  0  0
M  END
>  <MODEL>
2

>  <REMARK>
 VINA RESULT:      -9.1      1.085      1.303
  Name = 
  2 active torsions:
  status: ('A' for Active; 'I' for Inactive)
    1  A    between atoms: C_1  and  C_2
    2  A    between atoms: C_10  and  C_13
                            x       y       z     vdW  Elec       q    Type
                         _______ _______ _______ _____ _____    ______ ____

>  <TORSDO>
F 2

$$$$
=
 OpenBabel11052422523D

 28 31  0  0  1  0  0  0  0  0999 V2000
  161.2100  203.4420  148.2810 C   0  0  0  0  0  0  0  0  0  0  0  0
  160.4370  200.2500  151.0610 C   0  0  0  0  0  1  0  0  0  0  0  0
  161.7290  205.2580  151.6130 C   0  0  2  0  0  3  0  0  0  0  0  0
  160.9130  202.6930  150.5930 C   0  0  0  0  0  0  0  0  0  0  0  0
  161.3750  205.1560  150.1320 C   0  0  0  0  0  2  0  0  0  0  0  0
  160.7340  201.1120  148.7580 C   0  0  0  0  0  3  0  0  0  0  0  0
  160.9630  202.9470  152.0810 C   0  0  0  0  0  2  0  0  0  0  0  0
  160.7000  201.3810  150.1250 C   0  0  0  0  0  0  0  0  0  0  0  0
  160.7660  204.4140  152.4370 C   0  0  0  0  0  2  0  0  0  0  0  0
  160.9850  202.1320  147.8440 C   0  0  0  0  0  3  0  0  0  0  0  0
  161.1860  203.7320  149.6640 C   0  0  0  0  0  0  0  0  0  0  0  0
  161.2240  207.0000  153.2660 C   0  0  0  0  0  3  0  0  0  0  0  0
  161.9620  208.9450  151.0150 C   0  0  0  0  0  3  0  0  0  0  0  0
  160.5040  209.3370  153.0020 C   0  0  0  0  0  0  0  0  0  0  0  0
  161.7440  206.6870  152.0710 C   0  0  0  0  0  0  0  0  0  0  0  0
  163.3680  207.2510  150.3470 F   0  0  0  0  0  0  0  0  0  0  0  0
  160.8800  209.6230  151.7560 C   0  0  0  0  0  3  0  0  0  0  0  0
  162.3840  207.6820  151.1760 C   0  0  0  0  0  0  0  0  0  0  0  0
  159.3800  210.0970  153.6080 C   0  0  0  0  0  1  0  0  0  0  0  0
  161.2570  208.3700  153.8520 C   0  0  0  0  0  2  0  0  0  0  0  0
  161.4430  204.4920  147.2670 C   0  0  0  0  0  0  0  0  0  0  0  0
  161.8440  205.7660  147.6950 C   0  0  0  0  0  3  0  0  0  0  0  0
  161.4750  205.2870  144.9660 C   0  0  0  0  0  0  0  0  0  0  0  0
  162.0610  206.7900  146.7710 C   0  0  0  0  0  3  0  0  0  0  0  0
  160.7920  202.6570  145.2960 Cl  0  0  0  0  0  0  0  0  0  0  0  0
  161.2550  204.2510  145.8890 C   0  0  0  0  0  0  0  0  0  0  0  0
  161.3010  205.0690  143.6050 O   0  0  0  0  0  1  0  0  0  0  0  0
  161.8750  206.5490  145.4090 C   0  0  0  0  0  3  0  0  0  0  0  0
  1 11  1  0  0  0  0
  3 15  1  1  0  0  0
  3  9  1  0  0  0  0
  4  7  1  0  0  0  0
  5  3  1  0  0  0  0
  6  8  2  0  0  0  0
  7  9  1  0  0  0  0
  8  4  1  0  0  0  0
  8  2  1  0  0  0  0
 10  1  2  0  0  0  0
 10  6  1  0  0  0  0
 11  5  1  0  0  0  0
 11  4  2  0  0  0  0
 12 20  1  0  0  0  0
 13 18  2  0  0  0  0
 13 17  1  0  0  0  0
 14 19  1  0  0  0  0
 14 20  1  0  0  0  0
 15 12  2  0  0  0  0
 16 18  1  0  0  0  0
 17 14  2  0  0  0  0
 18 15  1  0  0  0  0
 21 22  1  0  0  0  0
 21  1  1  0  0  0  0
 23 28  2  0  0  0  0
 23 26  1  0  0  0  0
 24 22  2  0  0  0  0
 25 26  1  0  0  0  0
 26 21  2  0  0  0  0
 27 23  1  0  0  0  0
 28 24  1  0  0  0  0
M  END
>  <MODEL>
3

>  <REMARK>
 VINA RESULT:      -8.9      3.635      7.303
  Name = 
  2 active torsions:
  status: ('A' for Active; 'I' for Inactive)
    1  A    between atoms: C_1  and  C_2
    2  A    between atoms: C_10  and  C_13
                            x       y       z     vdW  Elec       q    Type
                         _______ _______ _______ _____ _____    ______ ____

>  <TORSDO>
F 2

$$$$
=
 OpenBabel11052422523D

 28 31  0  0  1  0  0  0  0  0999 V2000
  159.9990  210.3090  154.0950 C   0  0  0  0  0  0  0  0  0  0  0  0
  161.2820  207.2510  156.8380 C   0  0  0  0  0  1  0  0  0  0  0  0
  160.6800  207.4200  151.6750 C   0  0  2  0  0  3  0  0  0  0  0  0
  160.9120  208.0680  154.4700 C   0  0  0  0  0  0  0  0  0  0  0  0
  160.5590  208.8860  152.0830 C   0  0  0  0  0  2  0  0  0  0  0  0
  160.3820  209.5080  156.3530 C   0  0  0  0  0  3  0  0  0  0  0  0
  161.3380  206.7120  153.9580 C   0  0  0  0  0  2  0  0  0  0  0  0
  160.8530  208.2920  155.8590 C   0  0  0  0  0  0  0  0  0  0  0  0
  161.7660  206.7400  152.4970 C   0  0  0  0  0  2  0  0  0  0  0  0
  159.9610  210.5080  155.4800 C   0  0  0  0  0  3  0  0  0  0  0  0
  160.4660  209.0790  153.5780 C   0  0  0  0  0  0  0  0  0  0  0  0
  160.3050  206.3230  149.5120 C   0  0  0  0  0  3  0  0  0  0  0  0
  162.7040  207.9860  148.5780 C   0  0  0  0  0  3  0  0  0  0  0  0
  161.8280  205.8460  147.6410 C   0  0  0  0  0  0  0  0  0  0  0  0
  160.9340  207.2840  150.2020 C   0  0  0  0  0  0  0  0  0  0  0  0
  161.9550  209.4930  150.1460 F   0  0  0  0  0  0  0  0  0  0  0  0
  162.8200  206.7140  147.8380 C   0  0  0  0  0  3  0  0  0  0  0  0
  161.8540  208.2670  149.5760 C   0  0  0  0  0  0  0  0  0  0  0  0
  162.1060  204.5940  146.8900 C   0  0  0  0  0  1  0  0  0  0  0  0
  160.4220  206.1490  148.0360 C   0  0  0  0  0  2  0  0  0  0  0  0
  159.5670  211.4130  153.2130 C   0  0  0  0  0  0  0  0  0  0  0  0
  160.4490  211.8720  152.2240 C   0  0  0  0  0  3  0  0  0  0  0  0
  157.9440  213.0820  152.5000 C   0  0  0  0  0  0  0  0  0  0  0  0
  160.0840  212.9230  151.3810 C   0  0  0  0  0  3  0  0  0  0  0  0
  157.1410  211.4580  154.5520 Cl  0  0  0  0  0  0  0  0  0  0  0  0
  158.3020  212.0260  153.3540 C   0  0  0  0  0  0  0  0  0  0  0  0
  156.7020  213.6940  152.6170 O   0  0  0  0  0  1  0  0  0  0  0  0
  158.8340  213.5260  151.5200 C   0  0  0  0  0  3  0  0  0  0  0  0
  1 10  1  0  0  0  0
  3 15  1  6  0  0  0
  3  5  1  0  0  0  0
  3  9  1  0  0  0  0
  4  8  2  0  0  0  0
  5 11  1  0  0  0  0
  7  4  1  0  0  0  0
  8  6  1  0  0  0  0
  8  2  1  0  0  0  0
  9  7  1  0  0  0  0
 10  6  2  0  0  0  0
 11  1  2  0  0  0  0
 11  4  1  0  0  0  0
 12 15  2  0  0  0  0
 13 18  2  0  0  0  0
 14 17  2  0  0  0  0
 14 20  1  0  0  0  0
 17 13  1  0  0  0  0
 18 16  1  0  0  0  0
 18 15  1  0  0  0  0
 19 14  1  0  0  0  0
 20 12  1  0  0  0  0
 21 26  1  0  0  0  0
 21  1  1  0  0  0  0
 22 21  2  0  0  0  0
 23 27  1  0  0  0  0
 23 26  2  0  0  0  0
 24 28  2  0  0  0  0
 24 22  1  0  0  0  0
 26 25  1  0  0  0  0
 28 23  1  0  0  0  0
M  END
>  <MODEL>
4

>  <REMARK>
 VINA RESULT:      -8.8      1.950      2.477
  Name = 
  2 active torsions:
  status: ('A' for Active; 'I' for Inactive)
    1  A    between atoms: C_1  and  C_2
    2  A    between atoms: C_10  and  C_13
                            x       y       z     vdW  Elec       q    Type
                         _______ _______ _______ _____ _____    ______ ____

>  <TORSDO>
F 2

$$$$
=
 OpenBabel11052422523D

 28 31  0  0  1  0  0  0  0  0999 V2000
  161.4390  206.6290  151.2340 C   0  0  0  0  0  0  0  0  0  0  0  0
  160.8010  207.3390  155.4300 C   0  0  0  0  0  1  0  0  0  0  0  0
  161.4190  210.4580  151.3140 C   0  0  2  0  0  3  0  0  0  0  0  0
  161.0200  208.2050  153.0600 C   0  0  0  0  0  0  0  0  0  0  0  0
  161.2210  209.0850  150.6770 C   0  0  0  0  0  2  0  0  0  0  0  0
  161.2060  205.8250  153.5110 C   0  0  0  0  0  3  0  0  0  0  0  0
  160.8980  209.6160  153.5870 C   0  0  0  0  0  2  0  0  0  0  0  0
  161.0110  207.1280  153.9680 C   0  0  0  0  0  0  0  0  0  0  0  0
  160.4930  210.6150  152.5120 C   0  0  0  0  0  2  0  0  0  0  0  0
  161.4160  205.5780  152.1570 C   0  0  0  0  0  3  0  0  0  0  0  0
  161.2510  207.9570  151.6820 C   0  0  0  0  0  0  0  0  0  0  0  0
  160.4560  212.6100  150.6340 C   0  0  0  0  0  3  0  0  0  0  0  0
  161.4270  211.8320  147.8330 C   0  0  0  0  0  3  0  0  0  0  0  0
  159.5910  213.3970  148.4700 C   0  0  0  0  0  0  0  0  0  0  0  0
  161.2190  211.5560  150.3120 C   0  0  0  0  0  0  0  0  0  0  0  0
  163.0810  210.7220  148.9840 F   0  0  0  0  0  0  0  0  0  0  0  0
  160.1680  212.5670  147.6020 C   0  0  0  0  0  3  0  0  0  0  0  0
  161.9230  211.4290  149.0110 C   0  0  0  0  0  0  0  0  0  0  0  0
  158.3090  214.0500  148.1000 C   0  0  0  0  0  1  0  0  0  0  0  0
  160.2540  213.7910  149.7470 C   0  0  0  0  0  2  0  0  0  0  0  0
  161.6390  206.3080  149.8050 C   0  0  0  0  0  0  0  0  0  0  0  0
  162.1430  207.3010  148.9540 C   0  0  0  0  0  3  0  0  0  0  0  0
  161.5100  204.7870  147.9080 C   0  0  0  0  0  0  0  0  0  0  0  0
  162.3310  207.0430  147.5950 C   0  0  0  0  0  3  0  0  0  0  0  0
  160.7190  203.7430  150.3110 Cl  0  0  0  0  0  0  0  0  0  0  0  0
  161.3170  205.0380  149.2760 C   0  0  0  0  0  0  0  0  0  0  0  0
  161.2050  203.5440  147.3680 O   0  0  0  0  0  1  0  0  0  0  0  0
  162.0140  205.7880  147.0740 C   0  0  0  0  0  3  0  0  0  0  0  0
  1 11  2  0  0  0  0
  1 10  1  0  0  0  0
  3 15  1  6  0  0  0
  3  9  1  0  0  0  0
  4  7  1  0  0  0  0
  4  8  2  0  0  0  0
  5  3  1  0  0  0  0
  5 11  1  0  0  0  0
  6  8  1  0  0  0  0
  8  2  1  0  0  0  0
  9  7  1  0  0  0  0
 10  6  2  0  0  0  0
 11  4  1  0  0  0  0
 13 18  2  0  0  0  0
 14 20  1  0  0  0  0
 15 12  2  0  0  0  0
 16 18  1  0  0  0  0
 17 13  1  0  0  0  0
 17 14  2  0  0  0  0
 18 15  1  0  0  0  0
 19 14  1  0  0  0  0
 20 12  1  0  0  0  0
 21  1  1  0  0  0  0
 22 21  2  0  0  0  0
 23 26  2  0  0  0  0
 24 22  1  0  0  0  0
 26 21  1  0  0  0  0
 26 25  1  0  0  0  0
 27 23  1  0  0  0  0
 28 24  2  0  0  0  0
 28 23  1  0  0  0  0
M  END
>  <MODEL>
5

>  <REMARK>
 VINA RESULT:      -8.5      3.219      6.225
  Name = 
  2 active torsions:
  status: ('A' for Active; 'I' for Inactive)
    1  A    between atoms: C_1  and  C_2
    2  A    between atoms: C_10  and  C_13
                            x       y       z     vdW  Elec       q    Type
                         _______ _______ _______ _____ _____    ______ ____

>  <TORSDO>
F 2

$$$$
=
 OpenBabel11052422523D

 28 31  0  0  1  0  0  0  0  0999 V2000
  161.3260  209.8910  151.3330 C   0  0  0  0  0  0  0  0  0  0  0  0
  160.9760  206.8730  154.3800 C   0  0  0  0  0  1  0  0  0  0  0  0
  160.8560  206.7560  149.1820 C   0  0  2  0  0  3  0  0  0  0  0  0
  161.1550  207.5250  151.9400 C   0  0  0  0  0  0  0  0  0  0  0  0
  161.3520  208.1690  149.4820 C   0  0  0  0  0  2  0  0  0  0  0  0
  161.1730  209.2360  153.6630 C   0  0  0  0  0  3  0  0  0  0  0  0
  160.9880  206.0720  151.5610 C   0  0  0  0  0  2  0  0  0  0  0  0
  161.1050  207.8930  153.2990 C   0  0  0  0  0  0  0  0  0  0  0  0
  161.4840  205.7670  150.1540 C   0  0  0  0  0  2  0  0  0  0  0  0
  161.2840  210.2260  152.6900 C   0  0  0  0  0  3  0  0  0  0  0  0
  161.2510  208.5330  150.9450 C   0  0  0  0  0  0  0  0  0  0  0  0
  160.1110  206.3460  146.8810 C   0  0  0  0  0  3  0  0  0  0  0  0
  162.9130  205.1650  146.4900 C   0  0  0  0  0  3  0  0  0  0  0  0
  160.8260  204.6910  145.2070 C   0  0  0  0  0  0  0  0  0  0  0  0
  161.1260  206.3770  147.7560 C   0  0  0  0  0  0  0  0  0  0  0  0
  163.5150  206.7040  148.0910 F   0  0  0  0  0  0  0  0  0  0  0  0
  162.0360  204.3370  145.6390 C   0  0  0  0  0  3  0  0  0  0  0  0
  162.5340  206.0940  147.3800 C   0  0  0  0  0  0  0  0  0  0  0  0
  160.0530  203.7370  144.3710 C   0  0  0  0  0  1  0  0  0  0  0  0
  160.2780  206.0610  145.4270 C   0  0  0  0  0  2  0  0  0  0  0  0
  161.4730  210.9780  150.3420 C   0  0  0  0  0  0  0  0  0  0  0  0
  162.4040  210.8260  149.3050 C   0  0  0  0  0  3  0  0  0  0  0  0
  160.9040  213.1790  149.4700 C   0  0  0  0  0  0  0  0  0  0  0  0
  162.5840  211.8360  148.3590 C   0  0  0  0  0  3  0  0  0  0  0  0
  159.5030  212.3910  151.6860 Cl  0  0  0  0  0  0  0  0  0  0  0  0
  160.7160  212.1680  150.4260 C   0  0  0  0  0  0  0  0  0  0  0  0
  160.1650  214.3540  149.5300 O   0  0  0  0  0  1  0  0  0  0  0  0
  161.8350  213.0100  148.4430 C   0  0  0  0  0  3  0  0  0  0  0  0
  1 10  1  0  0  0  0
  3 15  1  6  0  0  0
  3  5  1  0  0  0  0
  3  9  1  0  0  0  0
  4  8  2  0  0  0  0
  5 11  1  0  0  0  0
  7  4  1  0  0  0  0
  8  6  1  0  0  0  0
  8  2  1  0  0  0  0
  9  7  1  0  0  0  0
 10  6  2  0  0  0  0
 11  1  2  0  0  0  0
 11  4  1  0  0  0  0
 12 15  2  0  0  0  0
 13 18  2  0  0  0  0
 14 20  1  0  0  0  0
 14 17  2  0  0  0  0
 17 13  1  0  0  0  0
 18 15  1  0  0  0  0
 18 16  1  0  0  0  0
 19 14  1  0  0  0  0
 20 12  1  0  0  0  0
 21 26  1  0  0  0  0
 21  1  1  0  0  0  0
 22 21  2  0  0  0  0
 23 27  1  0  0  0  0
 23 26  2  0  0  0  0
 24 28  2  0  0  0  0
 24 22  1  0  0  0  0
 26 25  1  0  0  0  0
 28 23  1  0  0  0  0
M  END
>  <MODEL>
6

>  <REMARK>
 VINA RESULT:      -8.4      1.457      2.113
  Name = 
  2 active torsions:
  status: ('A' for Active; 'I' for Inactive)
    1  A    between atoms: C_1  and  C_2
    2  A    between atoms: C_10  and  C_13
                            x       y       z     vdW  Elec       q    Type
                         _______ _______ _______ _____ _____    ______ ____

>  <TORSDO>
F 2

$$$$
=
 OpenBabel11052422523D

 28 31  0  0  1  0  0  0  0  0999 V2000
  161.5560  208.8740  151.6950 C   0  0  0  0  0  0  0  0  0  0  0  0
  162.4690  211.3000  148.2610 C   0  0  0  0  0  1  0  0  0  0  0  0
  161.6470  206.2100  148.9440 C   0  0  2  0  0  3  0  0  0  0  0  0
  161.8480  209.0640  149.2710 C   0  0  0  0  0  0  0  0  0  0  0  0
  161.2060  206.8120  150.2760 C   0  0  0  0  0  2  0  0  0  0  0  0
  162.1320  211.0090  150.6980 C   0  0  0  0  0  3  0  0  0  0  0  0
  161.9520  208.4380  147.9000 C   0  0  0  0  0  2  0  0  0  0  0  0
  162.1410  210.4320  149.4290 C   0  0  0  0  0  0  0  0  0  0  0  0
  161.2120  207.1120  147.7970 C   0  0  0  0  0  2  0  0  0  0  0  0
  161.8410  210.2380  151.8200 C   0  0  0  0  0  3  0  0  0  0  0  0
  161.5680  208.2720  150.4160 C   0  0  0  0  0  0  0  0  0  0  0  0
  160.5840  204.1850  149.8310 C   0  0  0  0  0  3  0  0  0  0  0  0
  161.4500  202.9160  147.1790 C   0  0  0  0  0  3  0  0  0  0  0  0
  160.9690  201.8020  149.3590 C   0  0  0  0  0  0  0  0  0  0  0  0
  161.1260  204.8130  148.7790 C   0  0  0  0  0  0  0  0  0  0  0  0
  161.1830  205.0480  146.3570 F   0  0  0  0  0  0  0  0  0  0  0  0
  161.5710  201.8300  148.1710 C   0  0  0  0  0  3  0  0  0  0  0  0
  161.2060  204.2120  147.4250 C   0  0  0  0  0  0  0  0  0  0  0  0
  161.2060  200.6450  150.2600 C   0  0  0  0  0  1  0  0  0  0  0  0
  159.9660  202.8300  149.7610 C   0  0  0  0  0  2  0  0  0  0  0  0
  161.2260  208.1080  152.9160 C   0  0  0  0  0  0  0  0  0  0  0  0
  161.5160  206.7370  152.9510 C   0  0  0  0  0  3  0  0  0  0  0  0
  160.3040  207.9430  155.1630 C   0  0  0  0  0  0  0  0  0  0  0  0
  161.2060  205.9750  154.0790 C   0  0  0  0  0  3  0  0  0  0  0  0
  160.2660  210.4450  154.0540 Cl  0  0  0  0  0  0  0  0  0  0  0  0
  160.6120  208.7170  154.0320 C   0  0  0  0  0  0  0  0  0  0  0  0
  159.7060  208.5230  156.2740 O   0  0  0  0  0  1  0  0  0  0  0  0
  160.6010  206.5780  155.1820 C   0  0  0  0  0  3  0  0  0  0  0  0
  1 10  1  0  0  0  0
  1 21  1  0  0  0  0
  2  8  1  0  0  0  0
  3 15  1  6  0  0  0
  3  5  1  0  0  0  0
  4  8  2  0  0  0  0
  4 11  1  0  0  0  0
  5 11  1  0  0  0  0
  6 10  2  0  0  0  0
  7  4  1  0  0  0  0
  8  6  1  0  0  0  0
  9  7  1  0  0  0  0
  9  3  1  0  0  0  0
 11  1  2  0  0  0  0
 13 18  2  0  0  0  0
 13 17  1  0  0  0  0
 14 20  1  0  0  0  0
 14 19  1  0  0  0  0
 15 12  2  0  0  0  0
 16 18  1  0  0  0  0
 17 14  2  0  0  0  0
 18 15  1  0  0  0  0
 20 12  1  0  0  0  0
 21 22  2  0  0  0  0
 21 26  1  0  0  0  0
 22 24  1  0  0  0  0
 23 28  1  0  0  0  0
 23 27  1  0  0  0  0
 24 28  2  0  0  0  0
 26 25  1  0  0  0  0
 26 23  2  0  0  0  0
M  END
>  <MODEL>
7

>  <REMARK>
 VINA RESULT:      -8.1      2.306      4.956
  Name = 
  2 active torsions:
  status: ('A' for Active; 'I' for Inactive)
    1  A    between atoms: C_1  and  C_2
    2  A    between atoms: C_10  and  C_13
                            x       y       z     vdW  Elec       q    Type
                         _______ _______ _______ _____ _____    ______ ____

>  <TORSDO>
F 2

$$$$
=
 OpenBabel11052422523D

 28 31  0  0  1  0  0  0  0  0999 V2000
  161.2090  206.8630  152.2350 C   0  0  0  0  0  0  0  0  0  0  0  0
  161.1260  208.3070  156.2880 C   0  0  0  0  0  1  0  0  0  0  0  0
  161.4420  210.6410  151.6500 C   0  0  2  0  0  3  0  0  0  0  0  0
  161.1130  208.7490  153.7940 C   0  0  0  0  0  0  0  0  0  0  0  0
  161.0820  209.2030  151.2870 C   0  0  0  0  0  2  0  0  0  0  0  0
  161.2010  206.4690  154.6280 C   0  0  0  0  0  3  0  0  0  0  0  0
  161.1460  210.2320  154.0780 C   0  0  0  0  0  2  0  0  0  0  0  0
  161.1460  207.8410  154.8710 C   0  0  0  0  0  0  0  0  0  0  0  0
  160.6780  211.0700  152.8960 C   0  0  0  0  0  2  0  0  0  0  0  0
  161.2300  205.9840  153.3240 C   0  0  0  0  0  3  0  0  0  0  0  0
  161.1600  208.2580  152.4630 C   0  0  0  0  0  0  0  0  0  0  0  0
  161.9290  211.4520  149.3860 C   0  0  0  0  0  3  0  0  0  0  0  0
  160.1240  213.8080  150.1530 C   0  0  0  0  0  3  0  0  0  0  0  0
  161.9280  213.7190  148.4320 C   0  0  0  0  0  0  0  0  0  0  0  0
  161.1930  211.5720  150.5000 C   0  0  0  0  0  0  0  0  0  0  0  0
  159.0650  212.2470  151.4710 F   0  0  0  0  0  0  0  0  0  0  0  0
  161.1600  214.3970  149.2830 C   0  0  0  0  0  3  0  0  0  0  0  0
  160.0980  212.5620  150.6500 C   0  0  0  0  0  0  0  0  0  0  0  0
  162.9450  214.4530  147.6360 C   0  0  0  0  0  1  0  0  0  0  0  0
  161.7130  212.2680  148.1580 C   0  0  0  0  0  2  0  0  0  0  0  0
  161.2130  206.2950  150.8710 C   0  0  0  0  0  0  0  0  0  0  0  0
  161.3940  207.1580  149.7800 C   0  0  0  0  0  3  0  0  0  0  0  0
  161.0180  204.4260  149.3220 C   0  0  0  0  0  0  0  0  0  0  0  0
  161.3900  206.6630  148.4750 C   0  0  0  0  0  3  0  0  0  0  0  0
  160.8310  203.7830  151.9760 Cl  0  0  0  0  0  0  0  0  0  0  0  0
  161.0210  204.9150  150.6390 C   0  0  0  0  0  0  0  0  0  0  0  0
  160.8380  203.0720  149.0730 O   0  0  0  0  0  1  0  0  0  0  0  0
  161.2010  205.3000  148.2480 C   0  0  0  0  0  3  0  0  0  0  0  0
  1 11  2  0  0  0  0
  1 10  1  0  0  0  0
  3 15  1  6  0  0  0
  3  9  1  0  0  0  0
  4  7  1  0  0  0  0
  4  8  2  0  0  0  0
  5  3  1  0  0  0  0
  5 11  1  0  0  0  0
  6  8  1  0  0  0  0
  8  2  1  0  0  0  0
  9  7  1  0  0  0  0
 10  6  2  0  0  0  0
 11  4  1  0  0  0  0
 12 15  2  0  0  0  0
 13 18  2  0  0  0  0
 14 17  2  0  0  0  0
 15 18  1  0  0  0  0
 17 13  1  0  0  0  0
 18 16  1  0  0  0  0
 19 14  1  0  0  0  0
 20 14  1  0  0  0  0
 20 12  1  0  0  0  0
 21  1  1  0  0  0  0
 22 21  2  0  0  0  0
 23 26  2  0  0  0  0
 24 22  1  0  0  0  0
 26 21  1  0  0  0  0
 26 25  1  0  0  0  0
 27 23  1  0  0  0  0
 28 24  2  0  0  0  0
 28 23  1  0  0  0  0
M  END
>  <MODEL>
8

>  <REMARK>
 VINA RESULT:      -8.0      3.339      6.401
  Name = 
  2 active torsions:
  status: ('A' for Active; 'I' for Inactive)
    1  A    between atoms: C_1  and  C_2
    2  A    between atoms: C_10  and  C_13
                            x       y       z     vdW  Elec       q    Type
                         _______ _______ _______ _____ _____    ______ ____

>  <TORSDO>
F 2

$$$$
=
 OpenBabel11052422523D

 28 31  0  0  1  0  0  0  0  0999 V2000
  161.1780  209.1440  152.0290 C   0  0  0  0  0  0  0  0  0  0  0  0
  161.9560  211.0810  148.2670 C   0  0  0  0  0  1  0  0  0  0  0  0
  161.9720  206.1170  149.8190 C   0  0  2  0  0  3  0  0  0  0  0  0
  161.6450  208.9720  149.6320 C   0  0  0  0  0  0  0  0  0  0  0  0
  161.3170  206.8420  150.9930 C   0  0  0  0  0  2  0  0  0  0  0  0
  161.4610  211.1480  150.6930 C   0  0  0  0  0  3  0  0  0  0  0  0
  161.9770  208.1540  148.4050 C   0  0  0  0  0  2  0  0  0  0  0  0
  161.6820  210.3770  149.5530 C   0  0  0  0  0  0  0  0  0  0  0  0
  161.4890  206.7150  148.5050 C   0  0  0  0  0  2  0  0  0  0  0  0
  161.2100  210.5380  151.9190 C   0  0  0  0  0  3  0  0  0  0  0  0
  161.4070  208.3470  150.8840 C   0  0  0  0  0  0  0  0  0  0  0  0
  161.4010  203.9790  148.7600 C   0  0  0  0  0  3  0  0  0  0  0  0
  161.1170  202.9600  151.6370 C   0  0  0  0  0  3  0  0  0  0  0  0
  160.0660  202.0720  149.5550 C   0  0  0  0  0  0  0  0  0  0  0  0
  161.7170  204.6400  149.8830 C   0  0  0  0  0  0  0  0  0  0  0  0
  162.7340  204.5310  152.0920 F   0  0  0  0  0  0  0  0  0  0  0  0
  160.0810  202.2320  150.8780 C   0  0  0  0  0  3  0  0  0  0  0  0
  161.8730  203.9780  151.2020 C   0  0  0  0  0  0  0  0  0  0  0  0
  158.9410  201.3280  148.9320 C   0  0  0  0  0  1  0  0  0  0  0  0
  161.2060  202.5030  148.6950 C   0  0  0  0  0  2  0  0  0  0  0  0
  160.8800  208.5470  153.3480 C   0  0  0  0  0  0  0  0  0  0  0  0
  160.8310  207.1510  153.4630 C   0  0  0  0  0  3  0  0  0  0  0  0
  160.3300  208.7320  155.7130 C   0  0  0  0  0  0  0  0  0  0  0  0
  160.5370  206.5490  154.6880 C   0  0  0  0  0  3  0  0  0  0  0  0
  160.7150  211.1050  154.4040 Cl  0  0  0  0  0  0  0  0  0  0  0  0
  160.6250  209.3460  154.4850 C   0  0  0  0  0  0  0  0  0  0  0  0
  160.0830  209.4990  156.8450 O   0  0  0  0  0  1  0  0  0  0  0  0
  160.2870  207.3390  155.8100 C   0  0  0  0  0  3  0  0  0  0  0  0
  1 21  1  0  0  0  0
  2  8  1  0  0  0  0
  3 15  1  6  0  0  0
  3  5  1  0  0  0  0
  4 11  1  0  0  0  0
  6 10  2  0  0  0  0
  7  9  1  0  0  0  0
  7  4  1  0  0  0  0
  8  4  2  0  0  0  0
  8  6  1  0  0  0  0
  9  3  1  0  0  0  0
 10  1  1  0  0  0  0
 11  5  1  0  0  0  0
 11  1  2  0  0  0  0
 12 15  2  0  0  0  0
 14 17  2  0  0  0  0
 15 18  1  0  0  0  0
 17 13  1  0  0  0  0
 18 13  2  0  0  0  0
 18 16  1  0  0  0  0
 19 14  1  0  0  0  0
 20 12  1  0  0  0  0
 20 14  1  0  0  0  0
 21 22  2  0  0  0  0
 21 26  1  0  0  0  0
 22 24  1  0  0  0  0
 23 28  1  0  0  0  0
 23 27  1  0  0  0  0
 24 28  2  0  0  0  0
 25 26  1  0  0  0  0
 26 23  2  0  0  0  0
M  END
>  <MODEL>
9

>  <REMARK>
 VINA RESULT:      -7.7      2.126      4.722
  Name = 
  2 active torsions:
  status: ('A' for Active; 'I' for Inactive)
    1  A    between atoms: C_1  and  C_2
    2  A    between atoms: C_10  and  C_13
                            x       y       z     vdW  Elec       q    Type
                         _______ _______ _______ _____ _____    ______ ____

>  <TORSDO>
F 2

$$$$
