=
 OpenBabel11052421443D

 30 34  0  0  1  0  0  0  0  0999 V2000
  160.8350  206.2200  148.8100 C   0  0  2  0  0  3  0  0  0  0  0  0
  161.6720  207.4850  149.1850 C   0  0  1  0  0  0  0  0  0  0  0  0
  160.2520  205.4930  150.0270 C   0  0  0  0  0  2  0  0  0  0  0  0
  162.0380  206.8080  152.8780 C   0  0  0  0  0  2  0  0  0  0  0  0
  162.6430  210.1390  150.0480 C   0  0  1  0  0  3  0  0  0  0  0  0
  161.3400  206.9310  151.6060 N   0  0  2  0  0  0  0  0  0  0  0  0
  160.9180  204.7330  152.3510 C   0  0  0  0  0  2  0  0  0  0  0  0
  162.1680  209.9810  148.6260 C   0  0  2  0  0  3  0  0  0  0  0  0
  161.2670  205.5620  151.1450 C   0  0  1  0  0  3  0  0  0  0  0  0
  162.1060  207.7500  150.6590 C   0  0  2  0  0  3  0  0  0  0  0  0
  161.2070  210.9610  148.4420 O   0  0  0  0  0  0  0  0  0  0  0  0
  162.3900  211.4720  150.3770 O   0  0  0  0  0  0  0  0  0  0  0  0
  160.6750  205.7170  154.4890 F   0  0  0  0  0  0  0  0  0  0  0  0
  161.5950  205.4820  153.4840 C   0  0  2  0  0  3  0  0  0  0  0  0
  162.7370  207.7010  148.2890 O   0  0  0  0  0  0  0  0  0  0  0  0
  161.6600  208.6010  148.1850 C   0  0  1  0  0  3  0  0  0  0  0  0
  161.6240  211.9860  149.3090 C   0  0  0  0  0  2  0  0  0  0  0  0
  160.5480  209.5420  151.0830 O   0  0  0  0  0  1  0  0  0  0  0  0
  161.9110  209.2240  151.0260 C   0  0  2  0  0  3  0  0  0  0  0  0
  161.4820  205.2020  147.8450 C   0  0  2  0  0  3  0  0  0  0  0  0
  161.8130  205.7480  146.4480 C   0  0  2  0  0  3  0  0  0  0  0  0
  160.5930  205.8300  145.5390 C   0  0  0  0  0  2  0  0  0  0  0  0
  160.6590  204.8350  144.5640 O   0  0  0  0  0  1  0  0  0  0  0  0
  162.8540  204.9250  145.8240 C   0  0  0  0  0  0  0  0  0  0  0  0
  163.6740  204.2750  145.3310 N   0  0  0  0  0  0  0  0  0  0  0  0
  160.7750  203.9940  147.7930 O   0  0  0  0  0  0  0  0  0  0  0  0
  161.7020  203.0150  148.1630 C   0  0  0  0  0  2  0  0  0  0  0  0
  161.0170  201.7360  148.5440 C   0  0  0  0  0  0  0  0  0  0  0  0
  160.0650  201.6700  149.6930 C   0  0  0  0  0  1  0  0  0  0  0  0
  161.2450  200.7260  147.9010 O   0  0  0  0  0  0  0  0  0  0  0  0
  1 20  1  1  0  0  0
  1  2  1  0  0  0  0
  1  3  1  0  0  0  0
  2 15  1  6  0  0  0
  2 10  1  0  0  0  0
  4 14  1  0  0  0  0
  5 12  1  1  0  0  0
  5 19  1  0  0  0  0
  6  4  1  1  0  0  0
  7 14  1  0  0  0  0
  8 11  1  1  0  0  0
  8  5  1  0  0  0  0
  9  3  1  6  0  0  0
  9  6  1  0  0  0  0
  9  7  1  0  0  0  0
 10 19  1  0  0  0  0
 10  6  1  0  0  0  0
 11 17  1  0  0  0  0
 14 13  1  0  0  0  0
 16 15  1  0  0  0  0
 16  8  1  0  0  0  0
 16  2  1  0  0  0  0
 17 12  1  0  0  0  0
 19 18  1  0  0  0  0
 21 20  1  0  0  0  0
 22 21  1  0  0  0  0
 23 22  1  0  0  0  0
 24 21  1  0  0  0  0
 25 24  3  0  0  0  0
 26 20  1  0  0  0  0
 26 27  1  0  0  0  0
 27 28  1  0  0  0  0
 28 29  1  0  0  0  0
 30 28  2  0  0  0  0
M  END
>  <MODEL>
1

>  <REMARK>
 VINA RESULT:      -6.0      0.000      0.000
  Name = 
  7 active torsions:
  status: ('A' for Active; 'I' for Inactive)
    1  A    between atoms: C_1  and  C_22
    2  A    between atoms: C_2  and  C_14
    3  A    between atoms: C_3  and  C_19
    4  A    between atoms: C_14  and  C_20
    5  A    between atoms: C_14  and  C_22
    6  A    between atoms: C_19  and  O_29
    7  A    between atoms: C_22  and  O_29
                            x       y       z     vdW  Elec       q    Type
                         _______ _______ _______ _____ _____    ______ ____

>  <TORSDO>
F 7

$$$$
=
 OpenBabel11052421443D

 30 34  0  0  1  0  0  0  0  0999 V2000
  161.9790  207.0740  150.7090 C   0  0  2  0  0  3  0  0  0  0  0  0
  161.2840  207.9090  151.8310 C   0  0  1  0  0  0  0  0  0  0  0  0
  162.7310  207.9330  149.6860 C   0  0  0  0  0  2  0  0  0  0  0  0
  161.5410  211.3040  150.2060 C   0  0  0  0  0  2  0  0  0  0  0  0
  160.6110  209.5920  154.1650 C   0  0  1  0  0  3  0  0  0  0  0  0
  162.0100  210.0020  150.6580 N   0  0  2  0  0  0  0  0  0  0  0  0
  162.4480  210.0630  148.3420 C   0  0  0  0  0  2  0  0  0  0  0  0
  160.8210  208.1170  154.3870 C   0  0  2  0  0  3  0  0  0  0  0  0
  161.9330  209.1970  149.4600 C   0  0  1  0  0  3  0  0  0  0  0  0
  161.1300  209.4560  151.6990 C   0  0  2  0  0  3  0  0  0  0  0  0
  161.7810  208.0190  155.3800 O   0  0  0  0  0  0  0  0  0  0  0  0
  160.9830  210.2030  155.3640 O   0  0  0  0  0  0  0  0  0  0  0  0
  163.1120  212.3000  148.7280 F   0  0  0  0  0  0  0  0  0  0  0  0
  162.0190  211.4550  148.7670 C   0  0  2  0  0  3  0  0  0  0  0  0
  160.0900  207.3100  152.2760 O   0  0  0  0  0  0  0  0  0  0  0  0
  161.1750  207.2480  153.1710 C   0  0  1  0  0  3  0  0  0  0  0  0
  161.5740  209.1830  156.1400 C   0  0  0  0  0  2  0  0  0  0  0  0
  162.8250  210.0370  153.3150 O   0  0  0  0  0  1  0  0  0  0  0  0
  161.4590  210.1490  153.0240 C   0  0  2  0  0  3  0  0  0  0  0  0
  161.1230  206.0130  149.9810 C   0  0  2  0  0  3  0  0  0  0  0  0
  160.8920  204.7130  150.7660 C   0  0  2  0  0  3  0  0  0  0  0  0
  162.0400  204.3780  151.7090 C   0  0  0  0  0  2  0  0  0  0  0  0
  161.9890  203.0290  152.0610 O   0  0  0  0  0  1  0  0  0  0  0  0
  160.6620  203.6030  149.8350 C   0  0  0  0  0  0  0  0  0  0  0  0
  160.4830  202.7280  149.1000 N   0  0  0  0  0  0  0  0  0  0  0  0
  161.5660  205.7770  148.6730 O   0  0  0  0  0  0  0  0  0  0  0  0
  160.5470  206.2660  147.8510 C   0  0  0  0  0  2  0  0  0  0  0  0
  160.9030  206.1200  146.4020 C   0  0  0  0  0  0  0  0  0  0  0  0
  162.2900  205.7760  145.9660 C   0  0  0  0  0  1  0  0  0  0  0  0
  160.0390  206.2880  145.5590 O   0  0  0  0  0  0  0  0  0  0  0  0
  1 20  1  6  0  0  0
  1  2  1  0  0  0  0
  2 15  1  6  0  0  0
  2 16  1  0  0  0  0
  3  1  1  0  0  0  0
  5  8  1  0  0  0  0
  5 12  1  1  0  0  0
  6  4  1  6  0  0  0
  6 10  1  0  0  0  0
  7 14  1  0  0  0  0
  8 11  1  1  0  0  0
  9  7  1  6  0  0  0
  9  3  1  0  0  0  0
  9  6  1  0  0  0  0
 10  2  1  0  0  0  0
 10 19  1  0  0  0  0
 11 17  1  0  0  0  0
 12 17  1  0  0  0  0
 13 14  1  0  0  0  0
 14  4  1  0  0  0  0
 15 16  1  0  0  0  0
 16  8  1  0  0  0  0
 19 18  1  0  0  0  0
 19  5  1  0  0  0  0
 20 21  1  0  0  0  0
 21 22  1  0  0  0  0
 22 23  1  0  0  0  0
 24 21  1  0  0  0  0
 25 24  3  0  0  0  0
 26 20  1  0  0  0  0
 27 26  1  0  0  0  0
 28 27  1  0  0  0  0
 29 28  1  0  0  0  0
 30 28  2  0  0  0  0
M  END
>  <MODEL>
2

>  <REMARK>
 VINA RESULT:      -5.9      2.961      5.262
  Name = 
  7 active torsions:
  status: ('A' for Active; 'I' for Inactive)
    1  A    between atoms: C_1  and  C_22
    2  A    between atoms: C_2  and  C_14
    3  A    between atoms: C_3  and  C_19
    4  A    between atoms: C_14  and  C_20
    5  A    between atoms: C_14  and  C_22
    6  A    between atoms: C_19  and  O_29
    7  A    between atoms: C_22  and  O_29
                            x       y       z     vdW  Elec       q    Type
                         _______ _______ _______ _____ _____    ______ ____

>  <TORSDO>
F 7

$$$$
=
 OpenBabel11052421443D

 30 34  0  0  1  0  0  0  0  0999 V2000
  161.9150  206.1340  150.7640 C   0  0  2  0  0  3  0  0  0  0  0  0
  161.2560  205.8970  149.3680 C   0  0  1  0  0  0  0  0  0  0  0  0
  162.2460  204.8360  151.5100 C   0  0  0  0  0  2  0  0  0  0  0  0
  160.4080  202.2460  149.7900 C   0  0  0  0  0  2  0  0  0  0  0  0
  160.6380  205.2380  146.5550 C   0  0  1  0  0  3  0  0  0  0  0  0
  161.2440  203.4360  149.8420 N   0  0  2  0  0  0  0  0  0  0  0  0
  161.2300  202.5750  152.0370 C   0  0  0  0  0  2  0  0  0  0  0  0
  161.2250  206.5920  146.8560 C   0  0  2  0  0  3  0  0  0  0  0  0
  161.1440  203.8390  151.2270 C   0  0  1  0  0  3  0  0  0  0  0  0
  160.7200  204.4890  148.9630 C   0  0  2  0  0  3  0  0  0  0  0  0
  162.3450  206.7030  146.0480 O   0  0  0  0  0  0  0  0  0  0  0  0
  161.0650  204.9280  145.2620 O   0  0  0  0  0  0  0  0  0  0  0  0
  161.4060  200.4580  150.9950 F   0  0  0  0  0  0  0  0  0  0  0  0
  160.5680  201.5490  151.1350 C   0  0  2  0  0  3  0  0  0  0  0  0
  160.3370  206.9120  149.0350 O   0  0  0  0  0  0  0  0  0  0  0  0
  161.5500  206.9270  148.3200 C   0  0  1  0  0  3  0  0  0  0  0  0
  162.0090  205.9230  144.9280 C   0  0  0  0  0  2  0  0  0  0  0  0
  162.4930  203.9590  147.4150 O   0  0  0  0  0  1  0  0  0  0  0  0
  161.1100  204.1540  147.5200 C   0  0  2  0  0  3  0  0  0  0  0  0
  161.2160  207.1290  151.7180 C   0  0  2  0  0  3  0  0  0  0  0  0
  161.0940  208.5650  151.1860 C   0  0  2  0  0  3  0  0  0  0  0  0
  162.4290  209.1480  150.7440 C   0  0  0  0  0  2  0  0  0  0  0  0
  162.2170  210.2320  149.8920 O   0  0  0  0  0  1  0  0  0  0  0  0
  160.4790  209.4230  152.2030 C   0  0  0  0  0  0  0  0  0  0  0  0
  159.9930  210.1010  153.0050 N   0  0  0  0  0  0  0  0  0  0  0  0
  161.7430  207.0820  153.0150 O   0  0  0  0  0  0  0  0  0  0  0  0
  160.6940  206.6230  153.8170 C   0  0  0  0  0  2  0  0  0  0  0  0
  160.6840  207.3170  155.1460 C   0  0  0  0  0  0  0  0  0  0  0  0
  159.6010  207.0770  156.1470 C   0  0  0  0  0  1  0  0  0  0  0  0
  161.5810  208.0970  155.4150 O   0  0  0  0  0  0  0  0  0  0  0  0
  1  3  1  0  0  0  0
  1 20  1  1  0  0  0
  2 15  1  1  0  0  0
  2  1  1  0  0  0  0
  4 14  1  0  0  0  0
  5 12  1  6  0  0  0
  5  8  1  0  0  0  0
  5 19  1  0  0  0  0
  6  4  1  1  0  0  0
  6  9  1  0  0  0  0
  8 11  1  6  0  0  0
  8 16  1  0  0  0  0
  9  3  1  1  0  0  0
  9  7  1  0  0  0  0
 10  2  1  0  0  0  0
 10  6  1  0  0  0  0
 13 14  1  0  0  0  0
 14  7  1  0  0  0  0
 16 15  1  0  0  0  0
 16  2  1  0  0  0  0
 17 12  1  0  0  0  0
 17 11  1  0  0  0  0
 18 19  1  0  0  0  0
 19 10  1  0  0  0  0
 20 26  1  0  0  0  0
 21 20  1  0  0  0  0
 21 24  1  0  0  0  0
 22 21  1  0  0  0  0
 23 22  1  0  0  0  0
 24 25  3  0  0  0  0
 26 27  1  0  0  0  0
 27 28  1  0  0  0  0
 28 30  2  0  0  0  0
 28 29  1  0  0  0  0
M  END
>  <MODEL>
3

>  <REMARK>
 VINA RESULT:      -5.9      2.407      6.103
  Name = 
  7 active torsions:
  status: ('A' for Active; 'I' for Inactive)
    1  A    between atoms: C_1  and  C_22
    2  A    between atoms: C_2  and  C_14
    3  A    between atoms: C_3  and  C_19
    4  A    between atoms: C_14  and  C_20
    5  A    between atoms: C_14  and  C_22
    6  A    between atoms: C_19  and  O_29
    7  A    between atoms: C_22  and  O_29
                            x       y       z     vdW  Elec       q    Type
                         _______ _______ _______ _____ _____    ______ ____

>  <TORSDO>
F 7

$$$$
=
 OpenBabel11052421443D

 30 34  0  0  1  0  0  0  0  0999 V2000
  160.5810  208.5060  153.3620 C   0  0  2  0  0  3  0  0  0  0  0  0
  161.2960  207.2900  152.6910 C   0  0  1  0  0  0  0  0  0  0  0  0
  160.3330  209.6740  152.4000 C   0  0  0  0  0  2  0  0  0  0  0  0
  162.4190  209.0100  149.5270 C   0  0  0  0  0  2  0  0  0  0  0  0
  162.0440  204.9080  151.1100 C   0  0  1  0  0  3  0  0  0  0  0  0
  161.4900  208.6270  150.5800 N   0  0  2  0  0  0  0  0  0  0  0  0
  161.5100  210.9860  150.5790 C   0  0  0  0  0  2  0  0  0  0  0  0
  161.3420  204.6980  152.4270 C   0  0  2  0  0  3  0  0  0  0  0  0
  161.5180  209.7700  151.4650 C   0  0  1  0  0  3  0  0  0  0  0  0
  161.9530  207.4240  151.2830 C   0  0  2  0  0  3  0  0  0  0  0  0
  160.2410  203.9080  152.1420 O   0  0  0  0  0  0  0  0  0  0  0  0
  161.6790  203.8180  150.3180 O   0  0  0  0  0  0  0  0  0  0  0  0
  161.5330  210.7860  148.2210 F   0  0  0  0  0  0  0  0  0  0  0  0
  162.2770  210.5170  149.3550 C   0  0  2  0  0  3  0  0  0  0  0  0
  162.1400  206.6090  153.5890 O   0  0  0  0  0  0  0  0  0  0  0  0
  160.9510  205.9400  153.2420 C   0  0  1  0  0  3  0  0  0  0  0  0
  160.6690  203.1480  151.0400 C   0  0  0  0  0  2  0  0  0  0  0  0
  160.2730  206.1800  150.0790 O   0  0  0  0  0  1  0  0  0  0  0  0
  161.6320  206.2030  150.4150 C   0  0  2  0  0  3  0  0  0  0  0  0
  161.1710  209.0310  154.6900 C   0  0  2  0  0  3  0  0  0  0  0  0
  160.2710  208.8430  155.9210 C   0  0  2  0  0  3  0  0  0  0  0  0
  159.7040  207.4340  156.0320 C   0  0  0  0  0  2  0  0  0  0  0  0
  160.3090  206.7590  157.0920 O   0  0  0  0  0  1  0  0  0  0  0  0
  159.1830  209.8250  155.8970 C   0  0  0  0  0  0  0  0  0  0  0  0
  158.3250  210.6020  155.8780 N   0  0  0  0  0  0  0  0  0  0  0  0
  161.6570  210.3390  154.5770 O   0  0  0  0  0  0  0  0  0  0  0  0
  162.9030  210.3200  155.2100 C   0  0  0  0  0  2  0  0  0  0  0  0
  162.8920  211.1580  156.4540 C   0  0  0  0  0  0  0  0  0  0  0  0
  164.1300  211.3800  157.2600 C   0  0  0  0  0  1  0  0  0  0  0  0
  161.8460  211.6690  156.8160 O   0  0  0  0  0  0  0  0  0  0  0  0
  1 20  1  1  0  0  0
  2 16  1  0  0  0  0
  2  1  1  0  0  0  0
  2 15  1  1  0  0  0
  3  1  1  0  0  0  0
  5 12  1  6  0  0  0
  5  8  1  0  0  0  0
  6  4  1  6  0  0  0
  6 10  1  0  0  0  0
  6  9  1  0  0  0  0
  8 11  1  6  0  0  0
  8 16  1  0  0  0  0
  9  7  1  6  0  0  0
  9  3  1  0  0  0  0
 10  2  1  0  0  0  0
 12 17  1  0  0  0  0
 13 14  1  0  0  0  0
 14  4  1  0  0  0  0
 14  7  1  0  0  0  0
 16 15  1  0  0  0  0
 17 11  1  0  0  0  0
 18 19  1  0  0  0  0
 19  5  1  0  0  0  0
 19 10  1  0  0  0  0
 20 21  1  0  0  0  0
 21 22  1  0  0  0  0
 22 23  1  0  0  0  0
 24 21  1  0  0  0  0
 25 24  3  0  0  0  0
 26 20  1  0  0  0  0
 26 27  1  0  0  0  0
 27 28  1  0  0  0  0
 28 30  2  0  0  0  0
 28 29  1  0  0  0  0
M  END
>  <MODEL>
4

>  <REMARK>
 VINA RESULT:      -5.7      3.858      8.334
  Name = 
  7 active torsions:
  status: ('A' for Active; 'I' for Inactive)
    1  A    between atoms: C_1  and  C_22
    2  A    between atoms: C_2  and  C_14
    3  A    between atoms: C_3  and  C_19
    4  A    between atoms: C_14  and  C_20
    5  A    between atoms: C_14  and  C_22
    6  A    between atoms: C_19  and  O_29
    7  A    between atoms: C_22  and  O_29
                            x       y       z     vdW  Elec       q    Type
                         _______ _______ _______ _____ _____    ______ ____

>  <TORSDO>
F 7

$$$$
=
 OpenBabel11052421443D

 30 34  0  0  1  0  0  0  0  0999 V2000
  161.9590  206.9000  150.1600 C   0  0  2  0  0  3  0  0  0  0  0  0
  161.3220  206.2640  148.8830 C   0  0  1  0  0  0  0  0  0  0  0  0
  162.3500  205.8690  151.2240 C   0  0  0  0  0  2  0  0  0  0  0  0
  160.6560  202.8230  150.2760 C   0  0  0  0  0  2  0  0  0  0  0  0
  160.7550  204.8440  146.3550 C   0  0  1  0  0  3  0  0  0  0  0  0
  161.4300  204.0240  150.0010 N   0  0  2  0  0  0  0  0  0  0  0  0
  161.4460  203.7840  152.3470 C   0  0  0  0  0  2  0  0  0  0  0  0
  161.2730  206.2570  146.2780 C   0  0  2  0  0  3  0  0  0  0  0  0
  161.3020  204.7780  151.2270 C   0  0  1  0  0  3  0  0  0  0  0  0
  160.8600  204.7750  148.8750 C   0  0  2  0  0  3  0  0  0  0  0  0
  162.3900  206.2030  145.4610 O   0  0  0  0  0  0  0  0  0  0  0  0
  161.2060  204.2210  145.1900 O   0  0  0  0  0  0  0  0  0  0  0  0
  161.7340  201.4770  151.9090 F   0  0  0  0  0  0  0  0  0  0  0  0
  160.8420  202.5220  151.7580 C   0  0  2  0  0  3  0  0  0  0  0  0
  160.3560  207.1050  148.2970 O   0  0  0  0  0  0  0  0  0  0  0  0
  161.5700  206.9890  147.5950 C   0  0  1  0  0  3  0  0  0  0  0  0
  162.1010  205.1350  144.5940 C   0  0  0  0  0  2  0  0  0  0  0  0
  162.6670  203.9370  147.5130 O   0  0  0  0  0  1  0  0  0  0  0  0
  161.2750  204.0850  147.5720 C   0  0  2  0  0  3  0  0  0  0  0  0
  161.2060  208.0790  150.8170 C   0  0  2  0  0  3  0  0  0  0  0  0
  162.0130  209.3800  150.9400 C   0  0  2  0  0  3  0  0  0  0  0  0
  161.4370  210.3390  151.9720 C   0  0  0  0  0  2  0  0  0  0  0  0
  160.8310  211.4200  151.3320 O   0  0  0  0  0  1  0  0  0  0  0  0
  162.1000  210.0370  149.6320 C   0  0  0  0  0  0  0  0  0  0  0  0
  162.1670  210.5570  148.6000 N   0  0  0  0  0  0  0  0  0  0  0  0
  160.5930  207.7130  152.0220 O   0  0  0  0  0  0  0  0  0  0  0  0
  161.5430  207.9870  153.0100 C   0  0  0  0  0  2  0  0  0  0  0  0
  161.0300  207.6240  154.3720 C   0  0  0  0  0  0  0  0  0  0  0  0
  161.2050  208.5340  155.5430 C   0  0  0  0  0  1  0  0  0  0  0  0
  160.4560  206.5600  154.5250 O   0  0  0  0  0  0  0  0  0  0  0  0
  1 20  1  1  0  0  0
  1  3  1  0  0  0  0
  2 15  1  1  0  0  0
  2  1  1  0  0  0  0
  4 14  1  0  0  0  0
  5 12  1  6  0  0  0
  5 19  1  0  0  0  0
  6  4  1  1  0  0  0
  6  9  1  0  0  0  0
  8 11  1  6  0  0  0
  8  5  1  0  0  0  0
  8 16  1  0  0  0  0
  9  3  1  1  0  0  0
  9  7  1  0  0  0  0
 10  2  1  0  0  0  0
 10  6  1  0  0  0  0
 14 13  1  0  0  0  0
 14  7  1  0  0  0  0
 16 15  1  0  0  0  0
 16  2  1  0  0  0  0
 17 12  1  0  0  0  0
 17 11  1  0  0  0  0
 18 19  1  0  0  0  0
 19 10  1  0  0  0  0
 20 21  1  0  0  0  0
 20 26  1  0  0  0  0
 21 22  1  0  0  0  0
 23 22  1  0  0  0  0
 24 21  1  0  0  0  0
 25 24  3  0  0  0  0
 26 27  1  0  0  0  0
 27 28  1  0  0  0  0
 28 30  2  0  0  0  0
 28 29  1  0  0  0  0
M  END
>  <MODEL>
5

>  <REMARK>
 VINA RESULT:      -5.6      2.207      5.919
  Name = 
  7 active torsions:
  status: ('A' for Active; 'I' for Inactive)
    1  A    between atoms: C_1  and  C_22
    2  A    between atoms: C_2  and  C_14
    3  A    between atoms: C_3  and  C_19
    4  A    between atoms: C_14  and  C_20
    5  A    between atoms: C_14  and  C_22
    6  A    between atoms: C_19  and  O_29
    7  A    between atoms: C_22  and  O_29
                            x       y       z     vdW  Elec       q    Type
                         _______ _______ _______ _____ _____    ______ ____

>  <TORSDO>
F 7

$$$$
=
 OpenBabel11052421443D

 30 34  0  0  1  0  0  0  0  0999 V2000
  161.5540  203.7330  148.5880 C   0  0  2  0  0  3  0  0  0  0  0  0
  161.1300  205.1890  148.9640 C   0  0  1  0  0  0  0  0  0  0  0  0
  161.9520  203.5750  147.1170 C   0  0  0  0  0  2  0  0  0  0  0  0
  160.7320  206.5480  145.4680 C   0  0  0  0  0  2  0  0  0  0  0  0
  160.9960  208.0710  149.6010 C   0  0  1  0  0  3  0  0  0  0  0  0
  161.3850  205.8350  146.5560 N   0  0  2  0  0  0  0  0  0  0  0  0
  161.1880  204.2710  144.8020 C   0  0  0  0  0  2  0  0  0  0  0  0
  161.3490  207.1120  150.7080 C   0  0  2  0  0  3  0  0  0  0  0  0
  161.0440  204.4560  146.2890 C   0  0  1  0  0  3  0  0  0  0  0  0
  160.8490  206.2520  147.8580 C   0  0  2  0  0  3  0  0  0  0  0  0
  162.5430  207.5740  151.2370 O   0  0  0  0  0  0  0  0  0  0  0  0
  161.6330  209.2690  149.9300 O   0  0  0  0  0  0  0  0  0  0  0  0
  161.7880  206.0740  143.3930 F   0  0  0  0  0  0  0  0  0  0  0  0
  160.8000  205.6320  144.2530 C   0  0  2  0  0  3  0  0  0  0  0  0
  160.1370  205.2110  149.9630 O   0  0  0  0  0  0  0  0  0  0  0  0
  161.4220  205.6160  150.3700 C   0  0  1  0  0  3  0  0  0  0  0  0
  162.4720  208.9620  151.0240 C   0  0  0  0  0  2  0  0  0  0  0  0
  162.8720  207.5260  148.1860 O   0  0  0  0  0  1  0  0  0  0  0  0
  161.4740  207.6000  148.2300 C   0  0  2  0  0  3  0  0  0  0  0  0
  160.6040  202.5880  149.0060 C   0  0  2  0  0  3  0  0  0  0  0  0
  161.1220  201.6940  150.1430 C   0  0  2  0  0  3  0  0  0  0  0  0
  160.3180  200.4110  150.3030 C   0  0  0  0  0  2  0  0  0  0  0  0
  158.9530  200.6990  150.2780 O   0  0  0  0  0  1  0  0  0  0  0  0
  161.1310  202.4460  151.4020 C   0  0  0  0  0  0  0  0  0  0  0  0
  161.1360  203.0400  152.3960 N   0  0  0  0  0  0  0  0  0  0  0  0
  160.1490  201.8460  147.9080 O   0  0  0  0  0  0  0  0  0  0  0  0
  161.1670  200.9240  147.6460 C   0  0  0  0  0  2  0  0  0  0  0  0
  160.9700  200.2640  146.3140 C   0  0  0  0  0  0  0  0  0  0  0  0
  160.1600  200.9040  145.2330 C   0  0  0  0  0  1  0  0  0  0  0  0
  161.4820  199.1770  146.1090 O   0  0  0  0  0  0  0  0  0  0  0  0
  1  2  1  0  0  0  0
  1 20  1  6  0  0  0
  2 15  1  1  0  0  0
  2 16  1  0  0  0  0
  3  1  1  0  0  0  0
  5 12  1  1  0  0  0
  5  8  1  0  0  0  0
  6  4  1  6  0  0  0
  6 10  1  0  0  0  0
  8 11  1  6  0  0  0
  9  7  1  6  0  0  0
  9  6  1  0  0  0  0
  9  3  1  0  0  0  0
 10 19  1  0  0  0  0
 10  2  1  0  0  0  0
 12 17  1  0  0  0  0
 13 14  1  0  0  0  0
 14  7  1  0  0  0  0
 14  4  1  0  0  0  0
 15 16  1  0  0  0  0
 16  8  1  0  0  0  0
 17 11  1  0  0  0  0
 18 19  1  0  0  0  0
 19  5  1  0  0  0  0
 20 21  1  0  0  0  0
 21 22  1  0  0  0  0
 21 24  1  0  0  0  0
 23 22  1  0  0  0  0
 24 25  3  0  0  0  0
 26 20  1  0  0  0  0
 27 26  1  0  0  0  0
 28 27  1  0  0  0  0
 29 28  1  0  0  0  0
 30 28  2  0  0  0  0
M  END
>  <MODEL>
6

>  <REMARK>
 VINA RESULT:      -5.5      2.883      5.223
  Name = 
  7 active torsions:
  status: ('A' for Active; 'I' for Inactive)
    1  A    between atoms: C_1  and  C_22
    2  A    between atoms: C_2  and  C_14
    3  A    between atoms: C_3  and  C_19
    4  A    between atoms: C_14  and  C_20
    5  A    between atoms: C_14  and  C_22
    6  A    between atoms: C_19  and  O_29
    7  A    between atoms: C_22  and  O_29
                            x       y       z     vdW  Elec       q    Type
                         _______ _______ _______ _____ _____    ______ ____

>  <TORSDO>
F 7

$$$$
=
 OpenBabel11052421443D

 30 34  0  0  1  0  0  0  0  0999 V2000
  162.6490  207.3680  150.3000 C   0  0  2  0  0  3  0  0  0  0  0  0
  161.8040  206.8310  149.1000 C   0  0  1  0  0  0  0  0  0  0  0  0
  162.7920  206.3580  151.4440 C   0  0  0  0  0  2  0  0  0  0  0  0
  160.2900  203.8300  150.8120 C   0  0  0  0  0  2  0  0  0  0  0  0
  160.7560  205.4220  146.7240 C   0  0  1  0  0  3  0  0  0  0  0  0
  161.3500  204.7450  150.4130 N   0  0  2  0  0  0  0  0  0  0  0  0
  161.4070  204.7010  152.7700 C   0  0  0  0  0  2  0  0  0  0  0  0
  161.6350  206.6270  146.5080 C   0  0  2  0  0  3  0  0  0  0  0  0
  161.4880  205.6020  151.5690 C   0  0  1  0  0  3  0  0  0  0  0  0
  160.9540  205.5310  149.2370 C   0  0  2  0  0  3  0  0  0  0  0  0
  162.6570  206.2020  145.6750 O   0  0  0  0  0  0  0  0  0  0  0  0
  160.9660  204.6070  145.6100 O   0  0  0  0  0  0  0  0  0  0  0  0
  161.0360  202.3760  152.5360 F   0  0  0  0  0  0  0  0  0  0  0  0
  160.4560  203.6100  152.3110 C   0  0  2  0  0  3  0  0  0  0  0  0
  161.0780  207.8550  148.4620 O   0  0  0  0  0  0  0  0  0  0  0  0
  162.1810  207.3530  147.7470 C   0  0  1  0  0  3  0  0  0  0  0  0
  162.0480  205.1880  144.9150 C   0  0  0  0  0  2  0  0  0  0  0  0
  162.4000  204.1210  147.9170 O   0  0  0  0  0  1  0  0  0  0  0  0
  161.1050  204.6500  147.9930 C   0  0  2  0  0  3  0  0  0  0  0  0
  162.2760  208.7570  150.8640 C   0  0  2  0  0  3  0  0  0  0  0  0
  161.5650  208.7380  152.2260 C   0  0  2  0  0  3  0  0  0  0  0  0
  160.0810  209.0620  152.1260 C   0  0  0  0  0  2  0  0  0  0  0  0
  159.8350  210.3310  152.6520 O   0  0  0  0  0  1  0  0  0  0  0  0
  162.2260  209.6690  153.1460 C   0  0  0  0  0  0  0  0  0  0  0  0
  162.7460  210.4060  153.8720 N   0  0  0  0  0  0  0  0  0  0  0  0
  161.6080  209.5520  149.9240 O   0  0  0  0  0  0  0  0  0  0  0  0
  162.3310  210.7470  149.8790 C   0  0  0  0  0  2  0  0  0  0  0  0
  162.1450  211.4440  148.5650 C   0  0  0  0  0  0  0  0  0  0  0  0
  163.0810  212.5150  148.1060 C   0  0  0  0  0  1  0  0  0  0  0  0
  161.2060  211.1300  147.8540 O   0  0  0  0  0  0  0  0  0  0  0  0
  1 20  1  1  0  0  0
  1  3  1  0  0  0  0
  2 15  1  1  0  0  0
  2 10  1  0  0  0  0
  2  1  1  0  0  0  0
  4 14  1  0  0  0  0
  5 12  1  6  0  0  0
  5 19  1  0  0  0  0
  6  4  1  1  0  0  0
  6  9  1  0  0  0  0
  8 11  1  6  0  0  0
  8  5  1  0  0  0  0
  8 16  1  0  0  0  0
  9  3  1  6  0  0  0
  9  7  1  0  0  0  0
 10  6  1  0  0  0  0
 14 13  1  0  0  0  0
 14  7  1  0  0  0  0
 16 15  1  0  0  0  0
 16  2  1  0  0  0  0
 17 12  1  0  0  0  0
 17 11  1  0  0  0  0
 18 19  1  0  0  0  0
 19 10  1  0  0  0  0
 20 21  1  0  0  0  0
 21 24  1  0  0  0  0
 22 21  1  0  0  0  0
 22 23  1  0  0  0  0
 24 25  3  0  0  0  0
 26 20  1  0  0  0  0
 27 26  1  0  0  0  0
 28 27  1  0  0  0  0
 29 28  1  0  0  0  0
 30 28  2  0  0  0  0
M  END
>  <MODEL>
7

>  <REMARK>
 VINA RESULT:      -5.1      1.962      6.340
  Name = 
  7 active torsions:
  status: ('A' for Active; 'I' for Inactive)
    1  A    between atoms: C_1  and  C_22
    2  A    between atoms: C_2  and  C_14
    3  A    between atoms: C_3  and  C_19
    4  A    between atoms: C_14  and  C_20
    5  A    between atoms: C_14  and  C_22
    6  A    between atoms: C_19  and  O_29
    7  A    between atoms: C_22  and  O_29
                            x       y       z     vdW  Elec       q    Type
                         _______ _______ _______ _____ _____    ______ ____

>  <TORSDO>
F 7

$$$$
=
 OpenBabel11052421443D

 30 34  0  0  1  0  0  0  0  0999 V2000
  160.3080  210.7030  154.5270 C   0  0  2  0  0  3  0  0  0  0  0  0
  158.8120  211.1430  154.6280 C   0  0  1  0  0  0  0  0  0  0  0  0
  161.0860  211.4350  153.4290 C   0  0  0  0  0  2  0  0  0  0  0  0
  158.5760  212.9840  151.3440 C   0  0  0  0  0  2  0  0  0  0  0  0
  156.2520  212.5510  155.0700 C   0  0  1  0  0  3  0  0  0  0  0  0
  159.1570  212.6090  152.6250 N   0  0  2  0  0  0  0  0  0  0  0  0
  160.8300  212.1780  151.0190 C   0  0  0  0  0  2  0  0  0  0  0  0
  156.8670  211.8090  156.2290 C   0  0  2  0  0  3  0  0  0  0  0  0
  160.1590  211.6360  152.2520 C   0  0  1  0  0  3  0  0  0  0  0  0
  158.1520  211.9980  153.5030 C   0  0  2  0  0  3  0  0  0  0  0  0
  156.9640  212.7330  157.2560 O   0  0  0  0  0  0  0  0  0  0  0  0
  155.5320  213.6000  155.6430 O   0  0  0  0  0  0  0  0  0  0  0  0
  160.1320  214.2140  150.0370 F   0  0  0  0  0  0  0  0  0  0  0  0
  159.7090  212.9300  150.3260 C   0  0  2  0  0  3  0  0  0  0  0  0
  157.9730  210.0850  155.0280 O   0  0  0  0  0  0  0  0  0  0  0  0
  158.2000  211.0830  155.9940 C   0  0  1  0  0  3  0  0  0  0  0  0
  155.8850  213.6000  157.0090 C   0  0  0  0  0  2  0  0  0  0  0  0
  158.0950  214.0710  154.7360 O   0  0  0  0  0  1  0  0  0  0  0  0
  157.2920  213.1140  154.1040 C   0  0  2  0  0  3  0  0  0  0  0  0
  160.5980  209.1860  154.4600 C   0  0  2  0  0  3  0  0  0  0  0  0
  161.2100  208.5830  155.7340 C   0  0  2  0  0  3  0  0  0  0  0  0
  160.1590  208.1120  156.7300 C   0  0  0  0  0  2  0  0  0  0  0  0
  159.3450  207.1450  156.1420 O   0  0  0  0  0  1  0  0  0  0  0  0
  162.1050  209.5570  156.3650 C   0  0  0  0  0  0  0  0  0  0  0  0
  162.8110  210.3260  156.8660 N   0  0  0  0  0  0  0  0  0  0  0  0
  161.3070  208.8310  153.3060 O   0  0  0  0  0  0  0  0  0  0  0  0
  160.8420  207.5550  152.9720 C   0  0  0  0  0  2  0  0  0  0  0  0
  161.4980  207.0490  151.7230 C   0  0  0  0  0  0  0  0  0  0  0  0
  162.1940  207.9700  150.7740 C   0  0  0  0  0  1  0  0  0  0  0  0
  161.4610  205.8560  151.4750 O   0  0  0  0  0  0  0  0  0  0  0  0
  1 20  1  6  0  0  0
  1  2  1  0  0  0  0
  2 15  1  6  0  0  0
  2 16  1  0  0  0  0
  3  1  1  0  0  0  0
  5 12  1  1  0  0  0
  5  8  1  0  0  0  0
  6  4  1  6  0  0  0
  6 10  1  0  0  0  0
  8 11  1  1  0  0  0
  9  7  1  6  0  0  0
  9  6  1  0  0  0  0
  9  3  1  0  0  0  0
 10 19  1  0  0  0  0
 10  2  1  0  0  0  0
 12 17  1  0  0  0  0
 13 14  1  0  0  0  0
 14  7  1  0  0  0  0
 14  4  1  0  0  0  0
 15 16  1  0  0  0  0
 16  8  1  0  0  0  0
 17 11  1  0  0  0  0
 19 18  1  0  0  0  0
 19  5  1  0  0  0  0
 20 21  1  0  0  0  0
 21 24  1  0  0  0  0
 21 22  1  0  0  0  0
 23 22  1  0  0  0  0
 24 25  3  0  0  0  0
 26 20  1  0  0  0  0
 27 26  1  0  0  0  0
 28 27  1  0  0  0  0
 29 28  1  0  0  0  0
 30 28  2  0  0  0  0
M  END
>  <MODEL>
8

>  <REMARK>
 VINA RESULT:      -4.9      5.439      8.499
  Name = 
  7 active torsions:
  status: ('A' for Active; 'I' for Inactive)
    1  A    between atoms: C_1  and  C_22
    2  A    between atoms: C_2  and  C_14
    3  A    between atoms: C_3  and  C_19
    4  A    between atoms: C_14  and  C_20
    5  A    between atoms: C_14  and  C_22
    6  A    between atoms: C_19  and  O_29
    7  A    between atoms: C_22  and  O_29
                            x       y       z     vdW  Elec       q    Type
                         _______ _______ _______ _____ _____    ______ ____

>  <TORSDO>
F 7

$$$$
=
 OpenBabel11052421443D

 30 34  0  0  1  0  0  0  0  0999 V2000
  160.9980  209.3800  151.5660 C   0  0  2  0  0  3  0  0  0  0  0  0
  161.4080  209.4150  153.0730 C   0  0  1  0  0  0  0  0  0  0  0  0
  160.5250  208.0000  151.0950 C   0  0  0  0  0  2  0  0  0  0  0  0
  161.5870  205.6940  153.6640 C   0  0  0  0  0  2  0  0  0  0  0  0
  161.5110  209.4200  156.0260 C   0  0  1  0  0  3  0  0  0  0  0  0
  161.0100  206.9430  153.1910 N   0  0  2  0  0  0  0  0  0  0  0  0
  161.1480  205.5510  151.2930 C   0  0  0  0  0  2  0  0  0  0  0  0
  161.2390  210.7230  155.3200 C   0  0  2  0  0  3  0  0  0  0  0  0
  161.3670  206.9540  151.7900 C   0  0  1  0  0  3  0  0  0  0  0  0
  161.6050  208.0950  153.8810 C   0  0  2  0  0  3  0  0  0  0  0  0
  160.0650  211.2100  155.8710 O   0  0  0  0  0  0  0  0  0  0  0  0
  160.8650  209.5250  157.2590 O   0  0  0  0  0  0  0  0  0  0  0  0
  160.4330  203.8300  152.7490 F   0  0  0  0  0  0  0  0  0  0  0  0
  161.4750  204.7060  152.5100 C   0  0  2  0  0  3  0  0  0  0  0  0
  162.4520  210.3280  153.3180 O   0  0  0  0  0  0  0  0  0  0  0  0
  161.1820  210.7140  153.7850 C   0  0  1  0  0  3  0  0  0  0  0  0
  160.0930  210.7050  157.1820 C   0  0  0  0  0  2  0  0  0  0  0  0
  159.5750  208.2620  155.1730 O   0  0  0  0  0  1  0  0  0  0  0  0
  160.9710  208.2090  155.2700 C   0  0  2  0  0  3  0  0  0  0  0  0
  161.9940  209.9750  150.5460 C   0  0  2  0  0  3  0  0  0  0  0  0
  161.4220  211.0810  149.6460 C   0  0  2  0  0  3  0  0  0  0  0  0
  162.4930  211.7970  148.8330 C   0  0  0  0  0  2  0  0  0  0  0  0
  161.9680  212.2000  147.6060 O   0  0  0  0  0  1  0  0  0  0  0  0
  160.6740  212.0460  150.4580 C   0  0  0  0  0  0  0  0  0  0  0  0
  160.0840  212.8090  151.0970 N   0  0  0  0  0  0  0  0  0  0  0  0
  162.6640  208.9850  149.8160 O   0  0  0  0  0  0  0  0  0  0  0  0
  161.9010  208.8080  148.6580 C   0  0  0  0  0  2  0  0  0  0  0  0
  162.0110  207.4030  148.1460 C   0  0  0  0  0  0  0  0  0  0  0  0
  160.8400  206.6940  147.5470 C   0  0  0  0  0  1  0  0  0  0  0  0
  163.0810  206.8250  148.2230 O   0  0  0  0  0  0  0  0  0  0  0  0
  1 20  1  6  0  0  0
  1  2  1  0  0  0  0
  2 15  1  6  0  0  0
  2 16  1  0  0  0  0
  2 10  1  0  0  0  0
  3  1  1  0  0  0  0
  5 12  1  1  0  0  0
  6  4  1  1  0  0  0
  6 10  1  0  0  0  0
  7  9  1  0  0  0  0
  7 14  1  0  0  0  0
  8 11  1  1  0  0  0
  8  5  1  0  0  0  0
  9  3  1  6  0  0  0
  9  6  1  0  0  0  0
 10 19  1  0  0  0  0
 11 17  1  0  0  0  0
 14 13  1  0  0  0  0
 14  4  1  0  0  0  0
 15 16  1  0  0  0  0
 16  8  1  0  0  0  0
 17 12  1  0  0  0  0
 18 19  1  0  0  0  0
 19  5  1  0  0  0  0
 21 24  1  0  0  0  0
 21 20  1  0  0  0  0
 22 21  1  0  0  0  0
 23 22  1  0  0  0  0
 24 25  3  0  0  0  0
 26 20  1  0  0  0  0
 27 26  1  0  0  0  0
 28 30  2  0  0  0  0
 28 27  1  0  0  0  0
 29 28  1  0  0  0  0
M  END
>  <MODEL>
9

>  <REMARK>
 VINA RESULT:      -4.5      3.000      5.745
  Name = 
  7 active torsions:
  status: ('A' for Active; 'I' for Inactive)
    1  A    between atoms: C_1  and  C_22
    2  A    between atoms: C_2  and  C_14
    3  A    between atoms: C_3  and  C_19
    4  A    between atoms: C_14  and  C_20
    5  A    between atoms: C_14  and  C_22
    6  A    between atoms: C_19  and  O_29
    7  A    between atoms: C_22  and  O_29
                            x       y       z     vdW  Elec       q    Type
                         _______ _______ _______ _____ _____    ______ ____

>  <TORSDO>
F 7

$$$$
