=
 OpenBabel11062410373D

 32 37  0  0  1  0  0  0  0  0999 V2000
  160.4670  214.1040  149.6740 C   0  0  0  0  0  3  0  0  0  0  0  0
  161.9680  209.3880  151.0300 C   0  0  2  0  0  3  0  0  0  0  0  0
  160.0900  208.8570  155.6820 C   0  0  0  0  0  2  0  0  0  0  0  0
  159.9200  207.3600  155.4670 C   0  0  0  0  0  2  0  0  0  0  0  0
  162.0180  207.0480  149.8270 C   0  0  0  0  0  0  0  0  0  0  0  0
  162.3710  207.1980  148.4790 C   0  0  0  0  0  0  0  0  0  0  0  0
  161.3010  211.4290  149.6920 C   0  0  0  0  0  0  0  0  0  0  0  0
  160.8870  211.3060  152.1880 C   0  0  0  0  0  2  0  0  0  0  0  0
  161.1410  204.8560  149.3620 C   0  0  0  0  0  0  0  0  0  0  0  0
  160.4480  213.3760  150.8660 C   0  0  0  0  0  3  0  0  0  0  0  0
  159.9670  209.5800  154.3470 C   0  0  0  0  0  2  0  0  0  0  0  0
  160.8590  209.7820  152.0120 C   0  0  2  0  0  3  0  0  0  0  0  0
  161.0420  209.0970  153.3620 C   0  0  2  0  0  3  0  0  0  0  0  0
  161.9680  207.0100  152.2330 C   0  0  1  0  0  3  0  0  0  0  0  0
  161.4050  205.0440  148.0380 N   0  0  0  0  0  0  0  0  0  0  0  0
  160.8470  212.0360  150.8790 C   0  0  0  0  0  0  0  0  0  0  0  0
  162.0200  206.1760  147.5840 C   0  0  0  0  0  3  0  0  0  0  0  0
  161.3080  212.1600  148.5000 C   0  0  0  0  0  3  0  0  0  0  0  0
  160.8990  213.4980  148.4890 C   0  0  0  0  0  0  0  0  0  0  0  0
  160.9880  206.8540  154.5050 C   0  0  0  0  0  2  0  0  0  0  0  0
  160.9040  207.5870  153.1640 C   0  0  1  0  0  3  0  0  0  0  0  0
  161.4450  205.7670  151.6700 N   0  0  0  0  0  2  0  0  0  0  0  0
  161.6760  209.9780  149.6470 C   0  0  0  0  0  2  0  0  0  0  0  0
  163.0970  208.2560  148.0400 F   0  0  0  0  0  0  0  0  0  0  0  0
  160.5380  203.5780  149.8260 C   0  0  0  0  0  1  0  0  0  0  0  0
  162.3940  207.8900  151.0130 C   0  0  2  0  0  3  0  0  0  0  0  0
  161.4760  205.8690  150.2620 C   0  0  0  0  0  0  0  0  0  0  0  0
  160.8950  214.2670  147.2110 C   0  0  0  0  0  2  0  0  0  0  0  0
  162.2090  214.0910  146.4580 C   0  0  0  0  0  2  0  0  0  0  0  0
  161.9990  213.3980  145.1500 C   0  0  0  0  0  0  0  0  0  0  0  0
  160.9210  212.8890  144.8890 O   0  0  0  0  0  0  0  0  0  0  0  0
  163.1160  213.3110  144.1690 C   0  0  0  0  0  1  0  0  0  0  0  0
  1 10  1  0  0  0  0
  2 23  1  6  0  0  0
  2 12  1  0  0  0  0
  4  3  1  0  0  0  0
  5 27  1  0  0  0  0
  6  5  2  0  0  0  0
  7 16  1  0  0  0  0
  9 25  1  0  0  0  0
  9 27  2  0  0  0  0
 10 16  2  0  0  0  0
 11  3  1  0  0  0  0
 12  8  1  1  0  0  0
 12 13  1  0  0  0  0
 13 11  1  1  0  0  0
 14 22  1  6  0  0  0
 14 21  1  0  0  0  0
 15  9  1  0  0  0  0
 16  8  1  0  0  0  0
 17 15  2  0  0  0  0
 17  6  1  0  0  0  0
 18  7  2  0  0  0  0
 19 18  1  0  0  0  0
 19  1  2  0  0  0  0
 20  4  1  0  0  0  0
 21 13  1  0  0  0  0
 21 20  1  1  0  0  0
 23  7  1  0  0  0  0
 24  6  1  0  0  0  0
 26  5  1  6  0  0  0
 26  2  1  0  0  0  0
 26 14  1  0  0  0  0
 27 22  1  0  0  0  0
 28 19  1  0  0  0  0
 29 28  1  0  0  0  0
 30 29  1  0  0  0  0
 31 30  2  0  0  0  0
 32 30  1  0  0  0  0
M  END
>  <MODEL>
1

>  <REMARK>
 VINA RESULT:      -8.3      0.000      0.000
  Name = 
  3 active torsions:
  status: ('A' for Active; 'I' for Inactive)
    1  A    between atoms: C_1  and  C_10
    2  A    between atoms: C_10  and  C_19
    3  A    between atoms: C_19  and  C_24
                            x       y       z     vdW  Elec       q    Type
                         _______ _______ _______ _____ _____    ______ ____

>  <TORSDO>
F 3

$$$$
=
 OpenBabel11062410373D

 32 37  0  0  1  0  0  0  0  0999 V2000
  160.9840  203.6990  147.2970 C   0  0  0  0  0  3  0  0  0  0  0  0
  162.0820  207.3480  150.7350 C   0  0  2  0  0  3  0  0  0  0  0  0
  162.0400  211.5840  147.9960 C   0  0  0  0  0  2  0  0  0  0  0  0
  161.5560  212.3830  149.1970 C   0  0  0  0  0  2  0  0  0  0  0  0
  161.2850  207.8750  153.1860 C   0  0  0  0  0  0  0  0  0  0  0  0
  161.1230  206.6880  153.9150 C   0  0  0  0  0  0  0  0  0  0  0  0
  161.3070  205.2020  149.6400 C   0  0  0  0  0  0  0  0  0  0  0  0
  161.8530  207.2550  148.2590 C   0  0  0  0  0  2  0  0  0  0  0  0
  159.9480  209.0570  154.8000 C   0  0  0  0  0  0  0  0  0  0  0  0
  161.2960  205.0580  147.2160 C   0  0  0  0  0  3  0  0  0  0  0  0
  161.5430  210.1480  148.1060 C   0  0  0  0  0  2  0  0  0  0  0  0
  161.5080  208.0720  149.5120 C   0  0  2  0  0  3  0  0  0  0  0  0
  162.0710  209.4840  149.3860 C   0  0  2  0  0  3  0  0  0  0  0  0
  162.1420  209.7340  151.9200 C   0  0  1  0  0  3  0  0  0  0  0  0
  159.7190  207.8830  155.4530 N   0  0  0  0  0  0  0  0  0  0  0  0
  161.4430  205.8180  148.3800 C   0  0  0  0  0  0  0  0  0  0  0  0
  160.2960  206.7130  155.0470 C   0  0  0  0  0  3  0  0  0  0  0  0
  160.9850  203.8440  149.7140 C   0  0  0  0  0  3  0  0  0  0  0  0
  160.8300  203.0890  148.5460 C   0  0  0  0  0  0  0  0  0  0  0  0
  162.0820  211.7510  150.4810 C   0  0  0  0  0  2  0  0  0  0  0  0
  161.6200  210.2970  150.6000 C   0  0  1  0  0  3  0  0  0  0  0  0
  161.2470  210.1830  152.9840 N   0  0  0  0  0  2  0  0  0  0  0  0
  161.3910  205.9920  150.9120 C   0  0  0  0  0  2  0  0  0  0  0  0
  161.7930  205.5540  153.5970 F   0  0  0  0  0  0  0  0  0  0  0  0
  159.3620  210.3230  155.3170 C   0  0  0  0  0  1  0  0  0  0  0  0
  162.2150  208.1780  152.0460 C   0  0  2  0  0  3  0  0  0  0  0  0
  160.7610  209.0450  153.6650 C   0  0  0  0  0  0  0  0  0  0  0  0
  160.4710  201.6440  148.6340 C   0  0  0  0  0  2  0  0  0  0  0  0
  161.5740  200.7660  148.0550 C   0  0  0  0  0  2  0  0  0  0  0  0
  161.1890  200.2190  146.7170 C   0  0  0  0  0  0  0  0  0  0  0  0
  161.5580  199.1070  146.3780 O   0  0  0  0  0  0  0  0  0  0  0  0
  160.3670  201.0430  145.7880 C   0  0  0  0  0  1  0  0  0  0  0  0
  1 19  1  0  0  0  0
  2 23  1  1  0  0  0
  2 26  1  0  0  0  0
  3 11  1  0  0  0  0
  3  4  1  0  0  0  0
  4 20  1  0  0  0  0
  5 27  2  0  0  0  0
  5  6  1  0  0  0  0
  6 17  2  0  0  0  0
  7 18  1  0  0  0  0
  7 23  1  0  0  0  0
  8 16  1  0  0  0  0
  9 25  1  0  0  0  0
  9 15  2  0  0  0  0
 10  1  2  0  0  0  0
 10 16  1  0  0  0  0
 12  8  1  6  0  0  0
 12  2  1  0  0  0  0
 13 11  1  6  0  0  0
 13 12  1  0  0  0  0
 13 21  1  0  0  0  0
 14 26  1  0  0  0  0
 14 22  1  1  0  0  0
 16  7  2  0  0  0  0
 17 15  1  0  0  0  0
 19 28  1  0  0  0  0
 19 18  2  0  0  0  0
 21 20  1  6  0  0  0
 21 14  1  0  0  0  0
 22 27  1  0  0  0  0
 24  6  1  0  0  0  0
 26  5  1  1  0  0  0
 27  9  1  0  0  0  0
 29 28  1  0  0  0  0
 30 29  1  0  0  0  0
 31 30  2  0  0  0  0
 32 30  1  0  0  0  0
M  END
>  <MODEL>
2

>  <REMARK>
 VINA RESULT:      -8.2      3.454      7.975
  Name = 
  3 active torsions:
  status: ('A' for Active; 'I' for Inactive)
    1  A    between atoms: C_1  and  C_10
    2  A    between atoms: C_10  and  C_19
    3  A    between atoms: C_19  and  C_24
                            x       y       z     vdW  Elec       q    Type
                         _______ _______ _______ _____ _____    ______ ____

>  <TORSDO>
F 3

$$$$
=
 OpenBabel11062410373D

 32 37  0  0  1  0  0  0  0  0999 V2000
  161.7130  210.3290  150.8630 C   0  0  0  0  0  3  0  0  0  0  0  0
  162.2230  205.7000  148.7080 C   0  0  2  0  0  3  0  0  0  0  0  0
  160.6700  202.5480  152.3280 C   0  0  0  0  0  2  0  0  0  0  0  0
  160.1500  201.5700  151.2850 C   0  0  0  0  0  2  0  0  0  0  0  0
  161.6430  204.6870  146.3490 C   0  0  0  0  0  0  0  0  0  0  0  0
  161.9070  205.6200  145.3370 C   0  0  0  0  0  0  0  0  0  0  0  0
  161.9220  208.1860  149.0700 C   0  0  0  0  0  0  0  0  0  0  0  0
  161.7020  206.5460  150.9880 C   0  0  0  0  0  2  0  0  0  0  0  0
  160.2590  203.4260  144.8370 C   0  0  0  0  0  0  0  0  0  0  0  0
  161.6310  209.0160  151.3330 C   0  0  0  0  0  3  0  0  0  0  0  0
  160.6010  203.9660  151.7750 C   0  0  0  0  0  2  0  0  0  0  0  0
  161.3170  205.5050  149.9290 C   0  0  2  0  0  3  0  0  0  0  0  0
  161.4530  204.0990  150.5040 C   0  0  2  0  0  3  0  0  0  0  0  0
  161.7870  203.1250  148.1750 C   0  0  1  0  0  3  0  0  0  0  0  0
  160.4460  204.3840  143.8850 N   0  0  0  0  0  0  0  0  0  0  0  0
  161.7180  207.9420  150.4420 C   0  0  0  0  0  0  0  0  0  0  0  0
  161.2610  205.4590  144.1020 C   0  0  0  0  0  3  0  0  0  0  0  0
  161.9940  209.5020  148.6040 C   0  0  0  0  0  3  0  0  0  0  0  0
  161.8970  210.5740  149.4980 C   0  0  0  0  0  0  0  0  0  0  0  0
  160.9920  201.6720  150.0190 C   0  0  0  0  0  2  0  0  0  0  0  0
  160.9630  203.0970  149.4600 C   0  0  1  0  0  3  0  0  0  0  0  0
  160.9530  202.6040  147.0940 N   0  0  0  0  0  2  0  0  0  0  0  0
  161.9550  207.0670  148.0720 C   0  0  0  0  0  2  0  0  0  0  0  0
  162.8120  206.6160  145.4970 F   0  0  0  0  0  0  0  0  0  0  0  0
  159.4250  202.2310  144.5370 C   0  0  0  0  0  1  0  0  0  0  0  0
  162.2970  204.5210  147.6910 C   0  0  2  0  0  3  0  0  0  0  0  0
  160.8880  203.5790  146.0740 C   0  0  0  0  0  0  0  0  0  0  0  0
  161.9590  211.9760  148.9910 C   0  0  0  0  0  2  0  0  0  0  0  0
  161.5150  212.0550  147.5350 C   0  0  0  0  0  2  0  0  0  0  0  0
  162.1600  213.2060  146.8310 C   0  0  0  0  0  0  0  0  0  0  0  0
  162.2810  213.1950  145.6160 O   0  0  0  0  0  0  0  0  0  0  0  0
  162.6760  214.3620  147.6160 C   0  0  0  0  0  1  0  0  0  0  0  0
  1 10  1  0  0  0  0
  2 23  1  6  0  0  0
  2 12  1  0  0  0  0
  4  3  1  0  0  0  0
  6 24  1  0  0  0  0
  6  5  2  0  0  0  0
  7 16  1  0  0  0  0
  9 27  2  0  0  0  0
 11  3  1  0  0  0  0
 12 13  1  0  0  0  0
 12  8  1  1  0  0  0
 13 11  1  1  0  0  0
 14 22  1  6  0  0  0
 14 21  1  0  0  0  0
 15 17  2  0  0  0  0
 15  9  1  0  0  0  0
 16  8  1  0  0  0  0
 16 10  2  0  0  0  0
 17  6  1  0  0  0  0
 18  7  2  0  0  0  0
 18 19  1  0  0  0  0
 19  1  2  0  0  0  0
 20  4  1  0  0  0  0
 21 20  1  1  0  0  0
 21 13  1  0  0  0  0
 23  7  1  0  0  0  0
 25  9  1  0  0  0  0
 26  5  1  6  0  0  0
 26 14  1  0  0  0  0
 26  2  1  0  0  0  0
 27  5  1  0  0  0  0
 27 22  1  0  0  0  0
 28 19  1  0  0  0  0
 29 28  1  0  0  0  0
 30 29  1  0  0  0  0
 30 32  1  0  0  0  0
 31 30  2  0  0  0  0
M  END
>  <MODEL>
3

>  <REMARK>
 VINA RESULT:      -7.8      2.377      4.629
  Name = 
  3 active torsions:
  status: ('A' for Active; 'I' for Inactive)
    1  A    between atoms: C_1  and  C_10
    2  A    between atoms: C_10  and  C_19
    3  A    between atoms: C_19  and  C_24
                            x       y       z     vdW  Elec       q    Type
                         _______ _______ _______ _____ _____    ______ ____

>  <TORSDO>
F 3

$$$$
=
 OpenBabel11062410373D

 32 37  0  0  1  0  0  0  0  0999 V2000
  162.2020  205.9440  150.9000 C   0  0  0  0  0  3  0  0  0  0  0  0
  160.7930  210.6150  152.4880 C   0  0  2  0  0  3  0  0  0  0  0  0
  161.6530  213.5270  148.4590 C   0  0  0  0  0  2  0  0  0  0  0  0
  160.5000  214.4410  148.8450 C   0  0  0  0  0  2  0  0  0  0  0  0
  158.7470  211.5670  153.8420 C   0  0  0  0  0  0  0  0  0  0  0  0
  158.3810  210.6800  154.8640 C   0  0  0  0  0  0  0  0  0  0  0  0
  161.0190  208.1090  152.2280 C   0  0  0  0  0  0  0  0  0  0  0  0
  161.9360  209.6960  150.4790 C   0  0  0  0  0  2  0  0  0  0  0  0
  156.6100  212.6590  154.0150 C   0  0  0  0  0  0  0  0  0  0  0  0
  162.3240  207.2330  150.3770 C   0  0  0  0  0  3  0  0  0  0  0  0
  161.3720  212.1160  148.9580 C   0  0  0  0  0  2  0  0  0  0  0  0
  160.8700  210.6890  150.9580 C   0  0  2  0  0  3  0  0  0  0  0  0
  161.2170  212.0970  150.4860 C   0  0  2  0  0  3  0  0  0  0  0  0
  159.8890  213.1210  152.4030 C   0  0  1  0  0  3  0  0  0  0  0  0
  156.2270  211.7380  154.9440 N   0  0  0  0  0  0  0  0  0  0  0  0
  161.7220  208.3160  151.0250 C   0  0  0  0  0  0  0  0  0  0  0  0
  157.0820  210.7690  155.3870 C   0  0  0  0  0  3  0  0  0  0  0  0
  160.8920  206.8140  152.7410 C   0  0  0  0  0  3  0  0  0  0  0  0
  161.4880  205.7320  152.0850 C   0  0  0  0  0  0  0  0  0  0  0  0
  160.3380  214.4530  150.3600 C   0  0  0  0  0  2  0  0  0  0  0  0
  160.0840  213.0390  150.8900 C   0  0  1  0  0  3  0  0  0  0  0  0
  158.5140  213.5430  152.6560 N   0  0  0  0  0  2  0  0  0  0  0  0
  160.3030  209.2300  152.9200 C   0  0  0  0  0  2  0  0  0  0  0  0
  159.2630  209.8020  155.4020 F   0  0  0  0  0  0  0  0  0  0  0  0
  155.6750  213.7450  153.6140 C   0  0  0  0  0  1  0  0  0  0  0  0
  160.0920  211.8010  153.2150 C   0  0  2  0  0  3  0  0  0  0  0  0
  157.8960  212.5750  153.4790 C   0  0  0  0  0  0  0  0  0  0  0  0
  161.3350  204.3530  152.6310 C   0  0  0  0  0  2  0  0  0  0  0  0
  161.8840  203.3120  151.6610 C   0  0  0  0  0  2  0  0  0  0  0  0
  160.8270  202.8350  150.7180 C   0  0  0  0  0  0  0  0  0  0  0  0
  159.8740  203.5480  150.4500 O   0  0  0  0  0  0  0  0  0  0  0  0
  160.9280  201.4760  150.1170 C   0  0  0  0  0  1  0  0  0  0  0  0
  1 19  1  0  0  0  0
  2 23  1  6  0  0  0
  2 26  1  0  0  0  0
  3  4  1  0  0  0  0
  3 11  1  0  0  0  0
  4 20  1  0  0  0  0
  5  6  1  0  0  0  0
  6 17  2  0  0  0  0
  6 24  1  0  0  0  0
  7 18  1  0  0  0  0
  7 23  1  0  0  0  0
  8 16  1  0  0  0  0
  9 15  2  0  0  0  0
 10  1  2  0  0  0  0
 10 16  1  0  0  0  0
 12  8  1  1  0  0  0
 12  2  1  0  0  0  0
 13 11  1  6  0  0  0
 13 21  1  0  0  0  0
 13 12  1  0  0  0  0
 14 22  1  6  0  0  0
 14 26  1  0  0  0  0
 15 17  1  0  0  0  0
 16  7  2  0  0  0  0
 19 28  1  0  0  0  0
 19 18  2  0  0  0  0
 21 20  1  1  0  0  0
 21 14  1  0  0  0  0
 22 27  1  0  0  0  0
 25  9  1  0  0  0  0
 26  5  1  6  0  0  0
 27  5  2  0  0  0  0
 27  9  1  0  0  0  0
 29 28  1  0  0  0  0
 30 29  1  0  0  0  0
 31 30  2  0  0  0  0
 32 30  1  0  0  0  0
M  END
>  <MODEL>
4

>  <REMARK>
 VINA RESULT:      -6.5      3.767      8.302
  Name = 
  3 active torsions:
  status: ('A' for Active; 'I' for Inactive)
    1  A    between atoms: C_1  and  C_10
    2  A    between atoms: C_10  and  C_19
    3  A    between atoms: C_19  and  C_24
                            x       y       z     vdW  Elec       q    Type
                         _______ _______ _______ _____ _____    ______ ____

>  <TORSDO>
F 3

$$$$
=
 OpenBabel11062410373D

 32 37  0  0  1  0  0  0  0  0999 V2000
  161.3530  204.0010  149.1190 C   0  0  0  0  0  3  0  0  0  0  0  0
  161.8410  208.4760  151.5820 C   0  0  2  0  0  3  0  0  0  0  0  0
  161.8140  211.8720  147.8530 C   0  0  0  0  0  2  0  0  0  0  0  0
  161.1540  212.8990  148.7610 C   0  0  0  0  0  2  0  0  0  0  0  0
  160.7560  209.5260  153.7380 C   0  0  0  0  0  0  0  0  0  0  0  0
  160.5950  208.5490  154.7300 C   0  0  0  0  0  0  0  0  0  0  0  0
  161.3280  206.0640  151.0140 C   0  0  0  0  0  0  0  0  0  0  0  0
  161.8820  207.7480  149.2040 C   0  0  0  0  0  2  0  0  0  0  0  0
  159.1810  210.9480  154.8720 C   0  0  0  0  0  0  0  0  0  0  0  0
  161.5830  205.3190  148.7170 C   0  0  0  0  0  3  0  0  0  0  0  0
  161.4030  210.4710  148.2850 C   0  0  0  0  0  2  0  0  0  0  0  0
  161.3540  208.8180  150.1690 C   0  0  2  0  0  3  0  0  0  0  0  0
  161.8340  210.1980  149.7340 C   0  0  2  0  0  3  0  0  0  0  0  0
  161.6190  211.0780  152.1140 C   0  0  1  0  0  3  0  0  0  0  0  0
  158.9610  209.9590  155.7830 N   0  0  0  0  0  0  0  0  0  0  0  0
  161.5560  206.3560  149.6550 C   0  0  0  0  0  0  0  0  0  0  0  0
  159.6530  208.7810  155.7430 C   0  0  0  0  0  3  0  0  0  0  0  0
  161.0890  204.7440  151.4080 C   0  0  0  0  0  3  0  0  0  0  0  0
  161.1080  203.7110  150.4650 C   0  0  0  0  0  0  0  0  0  0  0  0
  161.5810  212.6580  150.2040 C   0  0  0  0  0  2  0  0  0  0  0  0
  161.2050  211.2440  150.6540 C   0  0  1  0  0  3  0  0  0  0  0  0
  160.5900  211.6960  152.9460 N   0  0  0  0  0  2  0  0  0  0  0  0
  161.2250  207.1510  152.0420 C   0  0  0  0  0  2  0  0  0  0  0  0
  161.3680  207.4360  154.7750 F   0  0  0  0  0  0  0  0  0  0  0  0
  158.4630  212.2450  154.9930 C   0  0  0  0  0  1  0  0  0  0  0  0
  161.7800  209.6160  152.6430 C   0  0  2  0  0  3  0  0  0  0  0  0
  160.1090  210.7260  153.8530 C   0  0  0  0  0  0  0  0  0  0  0  0
  160.8360  202.3080  150.8910 C   0  0  0  0  0  2  0  0  0  0  0  0
  161.5420  201.3090  149.9810 C   0  0  0  0  0  2  0  0  0  0  0  0
  160.6940  200.9540  148.8010 C   0  0  0  0  0  0  0  0  0  0  0  0
  161.2060  200.4990  147.7910 O   0  0  0  0  0  0  0  0  0  0  0  0
  159.2220  201.1730  148.8530 C   0  0  0  0  0  1  0  0  0  0  0  0
  1 19  1  0  0  0  0
  2 23  1  1  0  0  0
  2 26  1  0  0  0  0
  3 11  1  0  0  0  0
  3  4  1  0  0  0  0
  4 20  1  0  0  0  0
  5 27  2  0  0  0  0
  5  6  1  0  0  0  0
  6 24  1  0  0  0  0
  6 17  2  0  0  0  0
  7 18  1  0  0  0  0
  7 23  1  0  0  0  0
  8 16  1  0  0  0  0
  9 25  1  0  0  0  0
  9 15  2  0  0  0  0
 10  1  2  0  0  0  0
 10 16  1  0  0  0  0
 12  8  1  6  0  0  0
 12  2  1  0  0  0  0
 13 11  1  6  0  0  0
 13 12  1  0  0  0  0
 13 21  1  0  0  0  0
 14 26  1  0  0  0  0
 14 22  1  1  0  0  0
 16  7  2  0  0  0  0
 17 15  1  0  0  0  0
 19 28  1  0  0  0  0
 19 18  2  0  0  0  0
 21 20  1  6  0  0  0
 21 14  1  0  0  0  0
 22 27  1  0  0  0  0
 26  5  1  1  0  0  0
 27  9  1  0  0  0  0
 29 28  1  0  0  0  0
 30 32  1  0  0  0  0
 30 29  1  0  0  0  0
 31 30  2  0  0  0  0
M  END
>  <MODEL>
5

>  <REMARK>
 VINA RESULT:      -6.5      3.460      8.162
  Name = 
  3 active torsions:
  status: ('A' for Active; 'I' for Inactive)
    1  A    between atoms: C_1  and  C_10
    2  A    between atoms: C_10  and  C_19
    3  A    between atoms: C_19  and  C_24
                            x       y       z     vdW  Elec       q    Type
                         _______ _______ _______ _____ _____    ______ ____

>  <TORSDO>
F 3

$$$$
=
 OpenBabel11062410373D

 32 37  0  0  1  0  0  0  0  0999 V2000
  159.1100  210.5510  156.0830 C   0  0  0  0  0  3  0  0  0  0  0  0
  161.4010  210.8250  151.4990 C   0  0  2  0  0  3  0  0  0  0  0  0
  161.9560  205.9880  150.1800 C   0  0  0  0  0  2  0  0  0  0  0  0
  161.8110  206.3490  148.7080 C   0  0  0  0  0  2  0  0  0  0  0  0
  161.0490  212.2920  149.3430 C   0  0  0  0  0  0  0  0  0  0  0  0
  160.7200  213.6090  149.6950 C   0  0  0  0  0  0  0  0  0  0  0  0
  160.0440  211.3580  153.5670 C   0  0  0  0  0  0  0  0  0  0  0  0
  160.8530  209.0030  153.1010 C   0  0  0  0  0  2  0  0  0  0  0  0
  160.2140  212.6700  147.1180 C   0  0  0  0  0  0  0  0  0  0  0  0
  159.7020  209.6190  155.2270 C   0  0  0  0  0  3  0  0  0  0  0  0
  161.1730  206.9820  151.0270 C   0  0  0  0  0  2  0  0  0  0  0  0
  160.8540  209.3980  151.6190 C   0  0  2  0  0  3  0  0  0  0  0  0
  161.6950  208.4110  150.8150 C   0  0  2  0  0  3  0  0  0  0  0  0
  162.1310  210.1660  149.0220 C   0  0  1  0  0  3  0  0  0  0  0  0
  159.8150  213.9180  147.4920 N   0  0  0  0  0  0  0  0  0  0  0  0
  160.1550  210.0110  153.9640 C   0  0  0  0  0  0  0  0  0  0  0  0
  160.0650  214.4050  148.7440 C   0  0  0  0  0  3  0  0  0  0  0  0
  159.4420  212.2840  154.4240 C   0  0  0  0  0  3  0  0  0  0  0  0
  158.9810  211.8860  155.6840 C   0  0  0  0  0  0  0  0  0  0  0  0
  162.3400  207.7590  148.4710 C   0  0  0  0  0  2  0  0  0  0  0  0
  161.5870  208.7740  149.3340 C   0  0  1  0  0  3  0  0  0  0  0  0
  161.4950  210.6310  147.7910 N   0  0  0  0  0  2  0  0  0  0  0  0
  160.4560  211.8080  152.1970 C   0  0  0  0  0  2  0  0  0  0  0  0
  161.0800  214.1440  150.8870 F   0  0  0  0  0  0  0  0  0  0  0  0
  159.9900  212.2030  145.7230 C   0  0  0  0  0  1  0  0  0  0  0  0
  161.8750  211.2820  150.0870 C   0  0  2  0  0  3  0  0  0  0  0  0
  160.8580  211.8630  148.0580 C   0  0  0  0  0  0  0  0  0  0  0  0
  158.3260  212.8770  156.5860 C   0  0  0  0  0  2  0  0  0  0  0  0
  156.9400  212.4060  157.0080 C   0  0  0  0  0  2  0  0  0  0  0  0
  156.0150  212.3140  155.8360 C   0  0  0  0  0  0  0  0  0  0  0  0
  155.6020  213.3280  155.2970 O   0  0  0  0  0  0  0  0  0  0  0  0
  155.5810  210.9790  155.3370 C   0  0  0  0  0  1  0  0  0  0  0  0
  2 12  1  0  0  0  0
  2 23  1  6  0  0  0
  3 11  1  0  0  0  0
  4  3  1  0  0  0  0
  5  6  1  0  0  0  0
  6 24  1  0  0  0  0
  7 16  2  0  0  0  0
  7 18  1  0  0  0  0
  8 16  1  0  0  0  0
  9 15  2  0  0  0  0
  9 27  1  0  0  0  0
 10  1  2  0  0  0  0
 12  8  1  1  0  0  0
 13 11  1  6  0  0  0
 13 12  1  0  0  0  0
 14 22  1  6  0  0  0
 14 21  1  0  0  0  0
 14 26  1  0  0  0  0
 15 17  1  0  0  0  0
 16 10  1  0  0  0  0
 17  6  2  0  0  0  0
 18 19  2  0  0  0  0
 19  1  1  0  0  0  0
 19 28  1  0  0  0  0
 20  4  1  0  0  0  0
 21 20  1  6  0  0  0
 21 13  1  0  0  0  0
 22 27  1  0  0  0  0
 23  7  1  0  0  0  0
 25  9  1  0  0  0  0
 26  5  1  6  0  0  0
 26  2  1  0  0  0  0
 27  5  2  0  0  0  0
 28 29  1  0  0  0  0
 30 29  1  0  0  0  0
 31 30  2  0  0  0  0
 32 30  1  0  0  0  0
M  END
>  <MODEL>
6

>  <REMARK>
 VINA RESULT:      -5.5      3.669      7.227
  Name = 
  3 active torsions:
  status: ('A' for Active; 'I' for Inactive)
    1  A    between atoms: C_1  and  C_10
    2  A    between atoms: C_10  and  C_19
    3  A    between atoms: C_19  and  C_24
                            x       y       z     vdW  Elec       q    Type
                         _______ _______ _______ _____ _____    ______ ____

>  <TORSDO>
F 3

$$$$
