=
 OpenBabel11062409203D

 37 38  0  0  1  0  0  0  0  0999 V2000
  159.5960  212.5170  153.0610 C   0  0  0  0  0  0  0  0  0  0  0  0
  160.9190  212.2490  155.9080 C   0  0  0  0  0  2  0  0  0  0  0  0
  159.0650  211.7340  154.2290 C   0  0  1  0  0  3  0  0  0  0  0  0
  160.6990  211.9130  152.2270 C   0  0  1  0  0  3  0  0  0  0  0  0
  160.2000  211.1770  155.1020 C   0  0  1  0  0  3  0  0  0  0  0  0
  161.0980  210.5100  152.7330 C   0  0  2  0  0  3  0  0  0  0  0  0
  161.8240  208.9370  156.6140 S   0  0  0  0  0  0  0  0  0  0  0  0
  161.5620  211.6740  157.1700 C   0  0  0  0  0  2  0  0  0  0  0  0
  159.1760  213.6380  152.8100 O   0  0  0  0  0  0  0  0  0  0  0  0
  161.2610  210.4390  154.2720 C   0  0  2  0  0  3  0  0  0  0  0  0
  162.6000  210.5720  156.9210 C   0  0  2  0  0  3  0  0  0  0  0  0
  161.5150  209.0220  154.7990 C   0  0  2  0  0  3  0  0  0  0  0  0
  163.5310  210.9200  155.9400 O   0  0  0  0  0  0  0  0  0  0  0  0
  164.5070  211.5060  156.6020 O   0  0  0  0  0  1  0  0  0  0  0  0
  162.3510  210.0400  152.0490 C   0  0  0  0  0  0  0  0  0  0  0  0
  163.3610  210.7240  152.1120 O   0  0  0  0  0  0  0  0  0  0  0  0
  162.3680  208.7570  151.2780 C   0  0  0  0  0  2  0  0  0  0  0  0
  162.1500  209.0150  149.8520 C   0  0  0  0  0  0  0  0  0  0  0  0
  161.9710  209.2260  148.6790 C   0  0  0  0  0  3  0  0  0  0  0  0
  157.6760  211.7420  156.3660 C   0  0  0  0  0  1  0  0  0  0  0  0
  157.8520  212.3260  154.9730 C   0  0  2  0  0  3  0  0  0  0  0  0
  156.5700  212.1350  154.1750 C   0  0  0  0  0  2  0  0  0  0  0  0
  155.4260  212.9150  154.8000 C   0  0  0  0  0  2  0  0  0  0  0  0
  153.7100  214.1370  153.7160 F   0  0  0  0  0  0  0  0  0  0  0  0
  155.0770  214.1110  153.9370 C   0  0  2  0  0  3  0  0  0  0  0  0
  155.8130  213.9990  152.6130 C   0  0  0  0  0  2  0  0  0  0  0  0
  154.9350  214.4530  151.4550 C   0  0  0  0  0  2  0  0  0  0  0  0
  156.7760  213.4970  150.2690 O   0  0  0  0  0  1  0  0  0  0  0  0
  155.4560  213.9270  150.1270 C   0  0  0  0  0  2  0  0  0  0  0  0
  160.3560  208.0950  154.4370 C   0  0  0  0  0  2  0  0  0  0  0  0
  160.8250  206.8370  153.7170 C   0  0  0  0  0  0  0  0  0  0  0  0
  162.2040  206.8160  153.6290 F   0  0  0  0  0  0  0  0  0  0  0  0
  160.2790  206.7830  152.4480 F   0  0  0  0  0  0  0  0  0  0  0  0
  160.3650  205.6260  154.5030 C   0  0  0  0  0  1  0  0  0  0  0  0
  160.2680  211.8270  150.7670 C   0  0  0  0  0  2  0  0  0  0  0  0
  160.9440  212.8870  149.9650 C   0  0  0  0  0  3  0  0  0  0  0  0
  160.3450  213.3900  148.8910 C   0  0  0  0  0  2  0  0  0  0  0  0
  1  3  1  0  0  0  0
  2  8  1  0  0  0  0
  3 21  1  1  0  0  0
  3  5  1  0  0  0  0
  4 35  1  6  0  0  0
  4  6  1  0  0  0  0
  4  1  1  0  0  0  0
  5  2  1  6  0  0  0
  6 15  1  6  0  0  0
  6 10  1  0  0  0  0
  7 11  1  0  0  0  0
  9  1  2  0  0  0  0
 10 12  1  0  0  0  0
 10  5  1  0  0  0  0
 11  8  1  0  0  0  0
 12  7  1  0  0  0  0
 13 14  1  0  0  0  0
 13 11  1  0  0  0  0
 15 16  2  0  0  0  0
 17 15  1  0  0  0  0
 18 17  1  0  0  0  0
 19 18  3  0  0  0  0
 21 20  1  0  0  0  0
 22 23  1  0  0  0  0
 22 21  1  0  0  0  0
 24 25  1  0  0  0  0
 25 23  1  0  0  0  0
 26 25  1  0  0  0  0
 27 26  1  0  0  0  0
 29 28  1  0  0  0  0
 29 27  1  0  0  0  0
 30 12  1  0  0  0  0
 31 30  1  0  0  0  0
 31 34  1  0  0  0  0
 32 31  1  0  0  0  0
 33 31  1  0  0  0  0
 36 35  1  0  0  0  0
 37 36  2  0  0  0  0
M  END
>  <MODEL>
1

>  <REMARK>
 VINA RESULT:      -2.4      0.000      0.000
  Name = 
  15 active torsions:
  status: ('A' for Active; 'I' for Inactive)
    1  A    between atoms: C_1  and  C_5
    2  A    between atoms: C_1  and  C_36
    3  A    between atoms: C_2  and  C_18
    4  A    between atoms: C_2  and  C_35
    5  A    between atoms: C_3  and  C_32
    6  A    between atoms: C_6  and  C_31
    7  A    between atoms: C_6  and  C_35
    8  A    between atoms: C_9  and  C_13
    9  A    between atoms: C_9  and  C_16
   10  A    between atoms: C_10  and  C_37
   11  A    between atoms: O_11  and  C_33
   12  A    between atoms: C_18  and  C_19
   13  A    between atoms: C_20  and  C_21
   14  A    between atoms: C_21  and  C_32
   15  A    between atoms: C_31  and  C_37
                            x       y       z     vdW  Elec       q    Type
                         _______ _______ _______ _____ _____    ______ ____

>  <TORSDO>
F 15

$$$$
=
 OpenBabel11062409203D

 37 38  0  0  1  0  0  0  0  0999 V2000
  160.0280  211.0650  152.4490 C   0  0  0  0  0  0  0  0  0  0  0  0
  160.6310  208.2990  153.8310 C   0  0  0  0  0  2  0  0  0  0  0  0
  161.3650  210.5710  152.9260 C   0  0  1  0  0  3  0  0  0  0  0  0
  159.0640  211.6330  153.4600 C   0  0  1  0  0  3  0  0  0  0  0  0
  161.2280  209.6610  154.1560 C   0  0  1  0  0  3  0  0  0  0  0  0
  159.6590  211.6270  154.8850 C   0  0  2  0  0  3  0  0  0  0  0  0
  161.8120  208.7120  157.1060 S   0  0  0  0  0  0  0  0  0  0  0  0
  161.0610  207.2360  154.8410 C   0  0  0  0  0  2  0  0  0  0  0  0
  159.7060  210.9750  151.2720 O   0  0  0  0  0  0  0  0  0  0  0  0
  160.3560  210.2940  155.2510 C   0  0  2  0  0  3  0  0  0  0  0  0
  160.6670  207.5280  156.2950 C   0  0  2  0  0  3  0  0  0  0  0  0
  161.0740  210.3250  156.6050 C   0  0  2  0  0  3  0  0  0  0  0  0
  159.3260  207.8990  156.4250 O   0  0  0  0  0  0  0  0  0  0  0  0
  158.6490  206.8610  155.9800 O   0  0  0  0  0  1  0  0  0  0  0  0
  158.6000  211.9620  155.8990 C   0  0  0  0  0  0  0  0  0  0  0  0
  158.7000  212.9880  156.5540 O   0  0  0  0  0  0  0  0  0  0  0  0
  157.4390  211.0440  156.1260 C   0  0  0  0  0  2  0  0  0  0  0  0
  156.2110  211.8160  156.3330 C   0  0  0  0  0  0  0  0  0  0  0  0
  155.2000  212.4510  156.5020 C   0  0  0  0  0  3  0  0  0  0  0  0
  162.2040  210.8790  150.5390 C   0  0  0  0  0  1  0  0  0  0  0  0
  162.3700  210.1220  151.8470 C   0  0  2  0  0  3  0  0  0  0  0  0
  162.2660  208.6260  151.5850 C   0  0  0  0  0  2  0  0  0  0  0  0
  161.6950  208.3600  150.2020 C   0  0  0  0  0  2  0  0  0  0  0  0
  161.0440  206.4440  151.4340 F   0  0  0  0  0  0  0  0  0  0  0  0
  160.9120  207.0620  150.2020 C   0  0  2  0  0  3  0  0  0  0  0  0
  161.4540  206.1570  149.1080 C   0  0  0  0  0  2  0  0  0  0  0  0
  161.1820  204.6920  149.4220 C   0  0  0  0  0  2  0  0  0  0  0  0
  160.7870  202.5740  148.3880 O   0  0  0  0  0  1  0  0  0  0  0  0
  161.3940  203.8160  148.1970 C   0  0  0  0  0  2  0  0  0  0  0  0
  162.1550  211.4050  156.6180 C   0  0  0  0  0  2  0  0  0  0  0  0
  163.5590  210.8170  156.5440 C   0  0  0  0  0  0  0  0  0  0  0  0
  163.9590  210.6880  155.2270 F   0  0  0  0  0  0  0  0  0  0  0  0
  163.5910  209.5800  157.1600 F   0  0  0  0  0  0  0  0  0  0  0  0
  164.5160  211.7480  157.2590 C   0  0  0  0  0  1  0  0  0  0  0  0
  158.6740  213.0560  153.0750 C   0  0  0  0  0  2  0  0  0  0  0  0
  157.1920  213.1690  152.9500 C   0  0  0  0  0  3  0  0  0  0  0  0
  156.5790  214.2900  153.3160 C   0  0  0  0  0  2  0  0  0  0  0  0
  1  3  1  0  0  0  0
  1  4  1  0  0  0  0
  2  8  1  0  0  0  0
  3 21  1  6  0  0  0
  3  5  1  0  0  0  0
  4 35  1  6  0  0  0
  4  6  1  0  0  0  0
  5  2  1  6  0  0  0
  5 10  1  0  0  0  0
  6 10  1  0  0  0  0
  6 15  1  1  0  0  0
  8 11  1  0  0  0  0
  9  1  2  0  0  0  0
 10 12  1  0  0  0  0
 11 13  1  0  0  0  0
 11  7  1  0  0  0  0
 12 30  1  0  0  0  0
 12  7  1  0  0  0  0
 14 13  1  0  0  0  0
 15 17  1  0  0  0  0
 15 16  2  0  0  0  0
 17 18  1  0  0  0  0
 18 19  3  0  0  0  0
 20 21  1  0  0  0  0
 22 21  1  0  0  0  0
 23 25  1  0  0  0  0
 23 22  1  0  0  0  0
 25 24  1  0  0  0  0
 26 27  1  0  0  0  0
 26 25  1  0  0  0  0
 29 28  1  0  0  0  0
 29 27  1  0  0  0  0
 31 30  1  0  0  0  0
 31 33  1  0  0  0  0
 31 34  1  0  0  0  0
 32 31  1  0  0  0  0
 36 35  1  0  0  0  0
 36 37  2  0  0  0  0
M  END
>  <MODEL>
2

>  <REMARK>
 VINA RESULT:      -2.3      2.953      6.829
  Name = 
  15 active torsions:
  status: ('A' for Active; 'I' for Inactive)
    1  A    between atoms: C_1  and  C_5
    2  A    between atoms: C_1  and  C_36
    3  A    between atoms: C_2  and  C_18
    4  A    between atoms: C_2  and  C_35
    5  A    between atoms: C_3  and  C_32
    6  A    between atoms: C_6  and  C_31
    7  A    between atoms: C_6  and  C_35
    8  A    between atoms: C_9  and  C_13
    9  A    between atoms: C_9  and  C_16
   10  A    between atoms: C_10  and  C_37
   11  A    between atoms: O_11  and  C_33
   12  A    between atoms: C_18  and  C_19
   13  A    between atoms: C_20  and  C_21
   14  A    between atoms: C_21  and  C_32
   15  A    between atoms: C_31  and  C_37
                            x       y       z     vdW  Elec       q    Type
                         _______ _______ _______ _____ _____    ______ ____

>  <TORSDO>
F 15

$$$$
=
 OpenBabel11062409203D

 37 38  0  0  1  0  0  0  0  0999 V2000
  161.5300  208.6390  153.7520 C   0  0  0  0  0  0  0  0  0  0  0  0
  160.9580  210.9720  151.7130 C   0  0  0  0  0  2  0  0  0  0  0  0
  160.4190  208.6980  152.7410 C   0  0  1  0  0  3  0  0  0  0  0  0
  161.3760  209.4050  155.0420 C   0  0  1  0  0  3  0  0  0  0  0  0
  159.9510  210.1410  152.4950 C   0  0  1  0  0  3  0  0  0  0  0  0
  160.0190  210.1400  155.1130 C   0  0  2  0  0  3  0  0  0  0  0  0
  157.8530  212.4860  152.3090 S   0  0  0  0  0  0  0  0  0  0  0  0
  160.2820  212.1150  150.9560 C   0  0  0  0  0  2  0  0  0  0  0  0
  162.5580  208.0170  153.5220 O   0  0  0  0  0  0  0  0  0  0  0  0
  159.6590  210.8860  153.8050 C   0  0  2  0  0  3  0  0  0  0  0  0
  159.5140  213.1090  151.8370 C   0  0  2  0  0  3  0  0  0  0  0  0
  158.2540  211.4980  153.8130 C   0  0  2  0  0  3  0  0  0  0  0  0
  160.2600  213.5430  152.9370 O   0  0  0  0  0  0  0  0  0  0  0  0
  159.4370  214.3170  153.6120 O   0  0  0  0  0  1  0  0  0  0  0  0
  159.9930  211.0850  156.2820 C   0  0  0  0  0  0  0  0  0  0  0  0
  159.3130  210.8120  157.2590 O   0  0  0  0  0  0  0  0  0  0  0  0
  160.7760  212.3610  156.2530 C   0  0  0  0  0  2  0  0  0  0  0  0
  159.9660  213.4680  156.7710 C   0  0  0  0  0  0  0  0  0  0  0  0
  159.2990  214.3770  157.1960 C   0  0  0  0  0  3  0  0  0  0  0  0
  160.7900  206.3380  151.8530 C   0  0  0  0  0  1  0  0  0  0  0  0
  160.5570  207.7980  151.4970 C   0  0  2  0  0  3  0  0  0  0  0  0
  161.6760  208.2840  150.5870 C   0  0  0  0  0  2  0  0  0  0  0  0
  161.3450  208.0040  149.1300 C   0  0  0  0  0  2  0  0  0  0  0  0
  162.8630  206.9610  147.6410 F   0  0  0  0  0  0  0  0  0  0  0  0
  161.9920  206.7080  148.6880 C   0  0  2  0  0  3  0  0  0  0  0  0
  160.9100  205.7410  148.2380 C   0  0  0  0  0  2  0  0  0  0  0  0
  161.0280  205.4360  146.7510 C   0  0  0  0  0  2  0  0  0  0  0  0
  162.8980  204.7540  145.4280 O   0  0  0  0  0  1  0  0  0  0  0  0
  162.0760  204.3660  146.4880 C   0  0  0  0  0  2  0  0  0  0  0  0
  157.1940  210.4150  154.0060 C   0  0  0  0  0  2  0  0  0  0  0  0
  156.0810  210.8560  154.9490 C   0  0  0  0  0  0  0  0  0  0  0  0
  155.4390  211.9730  154.4490 F   0  0  0  0  0  0  0  0  0  0  0  0
  156.6010  211.1420  156.1980 F   0  0  0  0  0  0  0  0  0  0  0  0
  155.0770  209.7300  155.0790 C   0  0  0  0  0  1  0  0  0  0  0  0
  161.5100  208.4630  156.2330 C   0  0  0  0  0  2  0  0  0  0  0  0
  160.5200  207.3530  156.1280 C   0  0  0  0  0  3  0  0  0  0  0  0
  159.7620  207.0390  157.1730 C   0  0  0  0  0  2  0  0  0  0  0  0
  1  4  1  0  0  0  0
  3 21  1  6  0  0  0
  3  1  1  0  0  0  0
  4  6  1  0  0  0  0
  4 35  1  1  0  0  0
  5  2  1  1  0  0  0
  5  3  1  0  0  0  0
  5 10  1  0  0  0  0
  6 15  1  1  0  0  0
  7 12  1  0  0  0  0
  8  2  1  0  0  0  0
  8 11  1  0  0  0  0
  9  1  2  0  0  0  0
 10 12  1  0  0  0  0
 10  6  1  0  0  0  0
 11  7  1  0  0  0  0
 11 13  1  0  0  0  0
 12 30  1  0  0  0  0
 13 14  1  0  0  0  0
 15 16  2  0  0  0  0
 17 15  1  0  0  0  0
 17 18  1  0  0  0  0
 18 19  3  0  0  0  0
 21 20  1  0  0  0  0
 22 21  1  0  0  0  0
 23 22  1  0  0  0  0
 24 25  1  0  0  0  0
 25 23  1  0  0  0  0
 26 25  1  0  0  0  0
 27 26  1  0  0  0  0
 28 29  1  0  0  0  0
 29 27  1  0  0  0  0
 30 31  1  0  0  0  0
 31 34  1  0  0  0  0
 31 33  1  0  0  0  0
 32 31  1  0  0  0  0
 36 35  1  0  0  0  0
 36 37  2  0  0  0  0
M  END
>  <MODEL>
3

>  <REMARK>
 VINA RESULT:      -1.7      3.097      7.637
  Name = 
  15 active torsions:
  status: ('A' for Active; 'I' for Inactive)
    1  A    between atoms: C_1  and  C_5
    2  A    between atoms: C_1  and  C_36
    3  A    between atoms: C_2  and  C_18
    4  A    between atoms: C_2  and  C_35
    5  A    between atoms: C_3  and  C_32
    6  A    between atoms: C_6  and  C_31
    7  A    between atoms: C_6  and  C_35
    8  A    between atoms: C_9  and  C_13
    9  A    between atoms: C_9  and  C_16
   10  A    between atoms: C_10  and  C_37
   11  A    between atoms: O_11  and  C_33
   12  A    between atoms: C_18  and  C_19
   13  A    between atoms: C_20  and  C_21
   14  A    between atoms: C_21  and  C_32
   15  A    between atoms: C_31  and  C_37
                            x       y       z     vdW  Elec       q    Type
                         _______ _______ _______ _____ _____    ______ ____

>  <TORSDO>
F 15

$$$$
=
 OpenBabel11062409203D

 37 38  0  0  1  0  0  0  0  0999 V2000
  160.8770  208.1020  151.7620 C   0  0  0  0  0  0  0  0  0  0  0  0
  159.8940  207.4210  154.6770 C   0  0  0  0  0  2  0  0  0  0  0  0
  161.7240  207.6260  152.9090 C   0  0  1  0  0  3  0  0  0  0  0  0
  160.4820  209.5570  151.7100 C   0  0  1  0  0  3  0  0  0  0  0  0
  161.1810  208.1180  154.2590 C   0  0  1  0  0  3  0  0  0  0  0  0
  161.0670  210.3530  152.8980 C   0  0  2  0  0  3  0  0  0  0  0  0
  161.3290  209.5520  157.0640 S   0  0  0  0  0  0  0  0  0  0  0  0
  159.7130  207.4290  156.1950 C   0  0  0  0  0  2  0  0  0  0  0  0
  160.4790  207.3240  150.9080 O   0  0  0  0  0  0  0  0  0  0  0  0
  160.9050  209.6290  154.2570 C   0  0  2  0  0  3  0  0  0  0  0  0
  159.6600  208.8240  156.8330 C   0  0  2  0  0  3  0  0  0  0  0  0
  161.6070  210.3390  155.4200 C   0  0  2  0  0  3  0  0  0  0  0  0
  158.7820  209.6850  156.1700 O   0  0  0  0  0  0  0  0  0  0  0  0
  158.5640  210.6610  157.0270 O   0  0  0  0  0  1  0  0  0  0  0  0
  160.4620  211.7280  152.9590 C   0  0  0  0  0  0  0  0  0  0  0  0
  160.4240  212.4120  151.9480 O   0  0  0  0  0  0  0  0  0  0  0  0
  159.9260  212.2720  154.2470 C   0  0  0  0  0  2  0  0  0  0  0  0
  158.4660  212.3950  154.1800 C   0  0  0  0  0  0  0  0  0  0  0  0
  157.2660  212.4940  154.1260 C   0  0  0  0  0  3  0  0  0  0  0  0
  163.2950  205.9480  151.8070 C   0  0  0  0  0  1  0  0  0  0  0  0
  162.2160  206.1660  152.8560 C   0  0  2  0  0  3  0  0  0  0  0  0
  161.0610  205.2050  152.6050 C   0  0  0  0  0  2  0  0  0  0  0  0
  161.5390  203.9740  151.8540 C   0  0  0  0  0  2  0  0  0  0  0  0
  160.8220  202.3570  150.2790 F   0  0  0  0  0  0  0  0  0  0  0  0
  160.5780  203.6430  150.7300 C   0  0  2  0  0  3  0  0  0  0  0  0
  160.7780  204.6350  149.5970 C   0  0  0  0  0  2  0  0  0  0  0  0
  161.2830  203.9400  148.3400 C   0  0  0  0  0  2  0  0  0  0  0  0
  162.6310  204.5630  146.4670 O   0  0  0  0  0  1  0  0  0  0  0  0
  161.5110  204.9350  147.2120 C   0  0  0  0  0  2  0  0  0  0  0  0
  163.1080  210.4510  155.1580 C   0  0  0  0  0  2  0  0  0  0  0  0
  163.8580  211.0540  156.3390 C   0  0  0  0  0  0  0  0  0  0  0  0
  164.1870  210.0720  157.2540 F   0  0  0  0  0  0  0  0  0  0  0  0
  163.0810  212.0180  156.9540 F   0  0  0  0  0  0  0  0  0  0  0  0
  165.1310  211.6980  155.8310 C   0  0  0  0  0  1  0  0  0  0  0  0
  160.9440  210.1820  150.3990 C   0  0  0  0  0  2  0  0  0  0  0  0
  162.1890  209.5150  149.9200 C   0  0  0  0  0  3  0  0  0  0  0  0
  162.1470  208.7190  148.8560 C   0  0  0  0  0  2  0  0  0  0  0  0
  1  3  1  0  0  0  0
  2  8  1  0  0  0  0
  3 21  1  1  0  0  0
  3  5  1  0  0  0  0
  4 35  1  6  0  0  0
  4  1  1  0  0  0  0
  4  6  1  0  0  0  0
  5  2  1  6  0  0  0
  6 15  1  1  0  0  0
  6 10  1  0  0  0  0
  8 11  1  0  0  0  0
  9  1  2  0  0  0  0
 10  5  1  0  0  0  0
 10 12  1  0  0  0  0
 11  7  1  0  0  0  0
 12  7  1  0  0  0  0
 13 11  1  0  0  0  0
 13 14  1  0  0  0  0
 15 17  1  0  0  0  0
 16 15  2  0  0  0  0
 18 17  1  0  0  0  0
 19 18  3  0  0  0  0
 20 21  1  0  0  0  0
 22 21  1  0  0  0  0
 23 22  1  0  0  0  0
 24 25  1  0  0  0  0
 25 23  1  0  0  0  0
 26 25  1  0  0  0  0
 27 26  1  0  0  0  0
 28 29  1  0  0  0  0
 29 27  1  0  0  0  0
 30 12  1  0  0  0  0
 30 31  1  0  0  0  0
 31 33  1  0  0  0  0
 31 32  1  0  0  0  0
 34 31  1  0  0  0  0
 36 35  1  0  0  0  0
 37 36  2  0  0  0  0
M  END
>  <MODEL>
4

>  <REMARK>
 VINA RESULT:      -1.4      3.273      7.075
  Name = 
  15 active torsions:
  status: ('A' for Active; 'I' for Inactive)
    1  A    between atoms: C_1  and  C_5
    2  A    between atoms: C_1  and  C_36
    3  A    between atoms: C_2  and  C_18
    4  A    between atoms: C_2  and  C_35
    5  A    between atoms: C_3  and  C_32
    6  A    between atoms: C_6  and  C_31
    7  A    between atoms: C_6  and  C_35
    8  A    between atoms: C_9  and  C_13
    9  A    between atoms: C_9  and  C_16
   10  A    between atoms: C_10  and  C_37
   11  A    between atoms: O_11  and  C_33
   12  A    between atoms: C_18  and  C_19
   13  A    between atoms: C_20  and  C_21
   14  A    between atoms: C_21  and  C_32
   15  A    between atoms: C_31  and  C_37
                            x       y       z     vdW  Elec       q    Type
                         _______ _______ _______ _____ _____    ______ ____

>  <TORSDO>
F 15

$$$$
=
 OpenBabel11062409203D

 37 38  0  0  1  0  0  0  0  0999 V2000
  159.3880  212.7730  152.2890 C   0  0  0  0  0  0  0  0  0  0  0  0
  160.5270  211.8250  155.0700 C   0  0  0  0  0  2  0  0  0  0  0  0
  158.8150  211.7050  153.1790 C   0  0  1  0  0  3  0  0  0  0  0  0
  160.5710  212.4310  151.4180 C   0  0  1  0  0  3  0  0  0  0  0  0
  159.9130  210.9740  153.9670 C   0  0  1  0  0  3  0  0  0  0  0  0
  160.9980  210.9560  151.5830 C   0  0  2  0  0  3  0  0  0  0  0  0
  161.5310  208.4670  154.9870 S   0  0  0  0  0  0  0  0  0  0  0  0
  161.1090  210.9640  156.1920 C   0  0  0  0  0  2  0  0  0  0  0  0
  158.9350  213.9090  152.2980 O   0  0  0  0  0  0  0  0  0  0  0  0
  161.0600  210.5000  153.0620 C   0  0  2  0  0  3  0  0  0  0  0  0
  162.2100  209.9900  155.7540 C   0  0  2  0  0  3  0  0  0  0  0  0
  161.3420  209.0030  153.2330 C   0  0  2  0  0  3  0  0  0  0  0  0
  163.1890  210.6020  154.9670 O   0  0  0  0  0  0  0  0  0  0  0  0
  164.0490  211.0960  155.8310 O   0  0  0  0  0  1  0  0  0  0  0  0
  162.3150  210.7100  150.9010 C   0  0  0  0  0  0  0  0  0  0  0  0
  163.3510  211.0190  151.4680 O   0  0  0  0  0  0  0  0  0  0  0  0
  162.3660  210.1090  149.5300 C   0  0  0  0  0  2  0  0  0  0  0  0
  162.9020  211.0780  148.5690 C   0  0  0  0  0  0  0  0  0  0  0  0
  163.3440  211.8740  147.7790 C   0  0  0  0  0  3  0  0  0  0  0  0
  157.6670  213.3270  154.7730 C   0  0  0  0  0  1  0  0  0  0  0  0
  157.5300  212.0550  153.9530 C   0  0  2  0  0  3  0  0  0  0  0  0
  157.1030  210.9080  154.8590 C   0  0  0  0  0  2  0  0  0  0  0  0
  155.6000  210.9310  155.0840 C   0  0  0  0  0  2  0  0  0  0  0  0
  154.4720  209.5350  156.6300 F   0  0  0  0  0  0  0  0  0  0  0  0
  155.2860  210.6520  156.5400 C   0  0  2  0  0  3  0  0  0  0  0  0
  154.5780  211.8580  157.1340 C   0  0  0  0  0  2  0  0  0  0  0  0
  155.5180  213.0490  157.2450 C   0  0  0  0  0  2  0  0  0  0  0  0
  154.3050  214.3700  155.6650 O   0  0  0  0  0  1  0  0  0  0  0  0
  154.7890  214.3560  156.9740 C   0  0  0  0  0  2  0  0  0  0  0  0
  160.2530  208.1680  152.5610 C   0  0  0  0  0  2  0  0  0  0  0  0
  160.8240  207.1590  151.5740 C   0  0  0  0  0  0  0  0  0  0  0  0
  160.4760  207.4980  150.2800 F   0  0  0  0  0  0  0  0  0  0  0  0
  160.3540  205.8910  151.8630 F   0  0  0  0  0  0  0  0  0  0  0  0
  162.3340  207.1620  151.6920 C   0  0  0  0  0  1  0  0  0  0  0  0
  160.2430  212.7080  149.9550 C   0  0  0  0  0  2  0  0  0  0  0  0
  160.7530  214.0510  149.5570 C   0  0  0  0  0  3  0  0  0  0  0  0
  161.1640  214.2630  148.3110 C   0  0  0  0  0  2  0  0  0  0  0  0
  1  9  2  0  0  0  0
  1  3  1  0  0  0  0
  2  8  1  0  0  0  0
  3 21  1  1  0  0  0
  3  5  1  0  0  0  0
  4 35  1  6  0  0  0
  4  6  1  0  0  0  0
  4  1  1  0  0  0  0
  5  2  1  1  0  0  0
  6 15  1  1  0  0  0
  6 10  1  0  0  0  0
  7 11  1  0  0  0  0
 10 12  1  0  0  0  0
 10  5  1  0  0  0  0
 11  8  1  0  0  0  0
 12  7  1  0  0  0  0
 13 11  1  0  0  0  0
 13 14  1  0  0  0  0
 15 16  2  0  0  0  0
 17 15  1  0  0  0  0
 18 17  1  0  0  0  0
 19 18  3  0  0  0  0
 21 20  1  0  0  0  0
 21 22  1  0  0  0  0
 22 23  1  0  0  0  0
 23 25  1  0  0  0  0
 25 24  1  0  0  0  0
 25 26  1  0  0  0  0
 26 27  1  0  0  0  0
 28 29  1  0  0  0  0
 29 27  1  0  0  0  0
 30 12  1  0  0  0  0
 31 34  1  0  0  0  0
 31 33  1  0  0  0  0
 31 30  1  0  0  0  0
 32 31  1  0  0  0  0
 36 35  1  0  0  0  0
 37 36  2  0  0  0  0
M  END
>  <MODEL>
5

>  <REMARK>
 VINA RESULT:      -1.1      2.065      2.817
  Name = 
  15 active torsions:
  status: ('A' for Active; 'I' for Inactive)
    1  A    between atoms: C_1  and  C_5
    2  A    between atoms: C_1  and  C_36
    3  A    between atoms: C_2  and  C_18
    4  A    between atoms: C_2  and  C_35
    5  A    between atoms: C_3  and  C_32
    6  A    between atoms: C_6  and  C_31
    7  A    between atoms: C_6  and  C_35
    8  A    between atoms: C_9  and  C_13
    9  A    between atoms: C_9  and  C_16
   10  A    between atoms: C_10  and  C_37
   11  A    between atoms: O_11  and  C_33
   12  A    between atoms: C_18  and  C_19
   13  A    between atoms: C_20  and  C_21
   14  A    between atoms: C_21  and  C_32
   15  A    between atoms: C_31  and  C_37
                            x       y       z     vdW  Elec       q    Type
                         _______ _______ _______ _____ _____    ______ ____

>  <TORSDO>
F 15

$$$$
=
 OpenBabel11062409203D

 37 38  0  0  1  0  0  0  0  0999 V2000
  159.6650  209.8830  152.8310 C   0  0  0  0  0  0  0  0  0  0  0  0
  157.1400  210.3170  154.6650 C   0  0  0  0  0  2  0  0  0  0  0  0
  159.6650  210.2250  154.2950 C   0  0  1  0  0  3  0  0  0  0  0  0
  159.4270  210.9860  151.8310 C   0  0  1  0  0  3  0  0  0  0  0  0
  158.4520  211.0880  154.6760 C   0  0  1  0  0  3  0  0  0  0  0  0
  159.2340  212.3540  152.5210 C   0  0  2  0  0  3  0  0  0  0  0  0
  156.9820  213.5920  155.9070 S   0  0  0  0  0  0  0  0  0  0  0  0
  156.1060  210.9450  155.6000 C   0  0  0  0  0  2  0  0  0  0  0  0
  159.8150  208.7300  152.4540 O   0  0  0  0  0  0  0  0  0  0  0  0
  158.2830  212.2950  153.7410 C   0  0  2  0  0  3  0  0  0  0  0  0
  155.7390  212.3980  155.2750 C   0  0  2  0  0  3  0  0  0  0  0  0
  158.1970  213.6130  154.5190 C   0  0  2  0  0  3  0  0  0  0  0  0
  155.4450  212.5900  153.9230 O   0  0  0  0  0  0  0  0  0  0  0  0
  155.0760  213.8510  153.8380 O   0  0  0  0  0  1  0  0  0  0  0  0
  158.7560  213.3800  151.5310 C   0  0  0  0  0  0  0  0  0  0  0  0
  157.6090  213.3250  151.1160 O   0  0  0  0  0  0  0  0  0  0  0  0
  159.6760  214.4530  151.0360 C   0  0  0  0  0  2  0  0  0  0  0  0
  159.7180  214.4530  149.5710 C   0  0  0  0  0  0  0  0  0  0  0  0
  159.7520  214.4510  148.3660 C   0  0  0  0  0  3  0  0  0  0  0  0
  160.3950  209.6190  156.6600 C   0  0  0  0  0  1  0  0  0  0  0  0
  160.0430  209.0980  155.2760 C   0  0  2  0  0  3  0  0  0  0  0  0
  161.1970  208.2640  154.7380 C   0  0  0  0  0  2  0  0  0  0  0  0
  160.7550  206.8320  154.4880 C   0  0  0  0  0  2  0  0  0  0  0  0
  162.3020  207.0450  152.7080 F   0  0  0  0  0  0  0  0  0  0  0  0
  161.7490  206.1280  153.5860 C   0  0  2  0  0  3  0  0  0  0  0  0
  161.0290  205.0380  152.8100 C   0  0  0  0  0  2  0  0  0  0  0  0
  161.6710  204.8160  151.4480 C   0  0  0  0  0  2  0  0  0  0  0  0
  160.8110  202.6490  150.9240 O   0  0  0  0  0  1  0  0  0  0  0  0
  160.7730  203.9910  150.5410 C   0  0  0  0  0  2  0  0  0  0  0  0
  159.5700  214.0160  155.0520 C   0  0  0  0  0  2  0  0  0  0  0  0
  159.8560  213.4200  156.4250 C   0  0  0  0  0  0  0  0  0  0  0  0
  160.5890  212.2540  156.3020 F   0  0  0  0  0  0  0  0  0  0  0  0
  158.6700  213.1530  157.0840 F   0  0  0  0  0  0  0  0  0  0  0  0
  160.6550  214.4190  157.2340 C   0  0  0  0  0  1  0  0  0  0  0  0
  160.5900  211.0670  150.8490 C   0  0  0  0  0  2  0  0  0  0  0  0
  161.6730  210.1250  151.2530 C   0  0  0  0  0  3  0  0  0  0  0  0
  162.4530  209.5750  150.3280 C   0  0  0  0  0  2  0  0  0  0  0  0
  1  3  1  0  0  0  0
  2  8  1  0  0  0  0
  3  5  1  0  0  0  0
  3 21  1  1  0  0  0
  4 35  1  6  0  0  0
  4  6  1  0  0  0  0
  4  1  1  0  0  0  0
  5  2  1  6  0  0  0
  6 15  1  6  0  0  0
  6 10  1  0  0  0  0
  9  1  2  0  0  0  0
 10 12  1  0  0  0  0
 10  5  1  0  0  0  0
 11  8  1  0  0  0  0
 11  7  1  0  0  0  0
 12 30  1  0  0  0  0
 12  7  1  0  0  0  0
 13 11  1  0  0  0  0
 14 13  1  0  0  0  0
 16 15  2  0  0  0  0
 17 15  1  0  0  0  0
 18 17  1  0  0  0  0
 19 18  3  0  0  0  0
 21 20  1  0  0  0  0
 22 21  1  0  0  0  0
 23 22  1  0  0  0  0
 24 25  1  0  0  0  0
 25 23  1  0  0  0  0
 26 25  1  0  0  0  0
 27 26  1  0  0  0  0
 29 28  1  0  0  0  0
 29 27  1  0  0  0  0
 30 31  1  0  0  0  0
 31 33  1  0  0  0  0
 31 34  1  0  0  0  0
 32 31  1  0  0  0  0
 35 36  1  0  0  0  0
 37 36  2  0  0  0  0
M  END
>  <MODEL>
6

>  <REMARK>
 VINA RESULT:      -0.4      3.016      6.913
  Name = 
  15 active torsions:
  status: ('A' for Active; 'I' for Inactive)
    1  A    between atoms: C_1  and  C_5
    2  A    between atoms: C_1  and  C_36
    3  A    between atoms: C_2  and  C_18
    4  A    between atoms: C_2  and  C_35
    5  A    between atoms: C_3  and  C_32
    6  A    between atoms: C_6  and  C_31
    7  A    between atoms: C_6  and  C_35
    8  A    between atoms: C_9  and  C_13
    9  A    between atoms: C_9  and  C_16
   10  A    between atoms: C_10  and  C_37
   11  A    between atoms: O_11  and  C_33
   12  A    between atoms: C_18  and  C_19
   13  A    between atoms: C_20  and  C_21
   14  A    between atoms: C_21  and  C_32
   15  A    between atoms: C_31  and  C_37
                            x       y       z     vdW  Elec       q    Type
                         _______ _______ _______ _____ _____    ______ ____

>  <TORSDO>
F 15

$$$$
=
 OpenBabel11062409203D

 37 38  0  0  1  0  0  0  0  0999 V2000
  161.7700  206.9660  151.8220 C   0  0  0  0  0  0  0  0  0  0  0  0
  162.1240  208.8580  149.3270 C   0  0  0  0  0  2  0  0  0  0  0  0
  160.6830  207.4690  150.9120 C   0  0  1  0  0  3  0  0  0  0  0  0
  162.2970  207.8850  152.8960 C   0  0  1  0  0  3  0  0  0  0  0  0
  161.0060  208.8660  150.3600 C   0  0  1  0  0  3  0  0  0  0  0  0
  161.5740  209.2500  152.8880 C   0  0  2  0  0  3  0  0  0  0  0  0
  160.4660  211.9150  149.7680 S   0  0  0  0  0  0  0  0  0  0  0  0
  162.0180  210.0440  148.3690 C   0  0  0  0  0  2  0  0  0  0  0  0
  162.2490  205.8510  151.6740 O   0  0  0  0  0  0  0  0  0  0  0  0
  161.4130  209.8480  151.4680 C   0  0  2  0  0  3  0  0  0  0  0  0
  162.0760  211.4230  149.0370 C   0  0  2  0  0  3  0  0  0  0  0  0
  160.5720  211.1290  151.4330 C   0  0  2  0  0  3  0  0  0  0  0  0
  163.1370  211.5400  149.9400 O   0  0  0  0  0  0  0  0  0  0  0  0
  164.1440  211.9770  149.2140 O   0  0  0  0  0  1  0  0  0  0  0  0
  162.2780  210.2230  153.7920 C   0  0  0  0  0  0  0  0  0  0  0  0
  163.4380  210.5270  153.5590 O   0  0  0  0  0  0  0  0  0  0  0  0
  161.5790  210.8060  154.9820 C   0  0  0  0  0  2  0  0  0  0  0  0
  162.2020  210.3330  156.2210 C   0  0  0  0  0  0  0  0  0  0  0  0
  162.7130  209.9440  157.2410 C   0  0  0  0  0  3  0  0  0  0  0  0
  160.0970  205.0330  150.4470 C   0  0  0  0  0  1  0  0  0  0  0  0
  160.0810  206.4570  149.9170 C   0  0  2  0  0  3  0  0  0  0  0  0
  160.8010  206.5090  148.5760 C   0  0  0  0  0  2  0  0  0  0  0  0
  161.0700  205.1080  148.0550 C   0  0  0  0  0  2  0  0  0  0  0  0
  162.9230  206.3170  147.2090 F   0  0  0  0  0  0  0  0  0  0  0  0
  162.2250  205.1280  147.0750 C   0  0  2  0  0  3  0  0  0  0  0  0
  161.6790  205.0060  145.6620 C   0  0  0  0  0  2  0  0  0  0  0  0
  160.6010  203.9350  145.5800 C   0  0  0  0  0  2  0  0  0  0  0  0
  160.7180  201.8370  146.7180 O   0  0  0  0  0  1  0  0  0  0  0  0
  161.2030  202.5390  145.6140 C   0  0  0  0  0  2  0  0  0  0  0  0
  159.1630  210.8660  151.9610 C   0  0  0  0  0  2  0  0  0  0  0  0
  158.6490  212.0070  152.8300 C   0  0  0  0  0  0  0  0  0  0  0  0
  157.7150  212.7570  152.1400 F   0  0  0  0  0  0  0  0  0  0  0  0
  159.6980  212.8190  153.2190 F   0  0  0  0  0  0  0  0  0  0  0  0
  157.9950  211.4230  154.0650 C   0  0  0  0  0  1  0  0  0  0  0  0
  162.1460  207.2340  154.2660 C   0  0  0  0  0  2  0  0  0  0  0  0
  160.7090  206.9520  154.5480 C   0  0  0  0  0  3  0  0  0  0  0  0
  160.1850  207.2890  155.7220 C   0  0  0  0  0  2  0  0  0  0  0  0
  1  4  1  0  0  0  0
  3 21  1  6  0  0  0
  3  1  1  0  0  0  0
  4 35  1  1  0  0  0
  5  2  1  6  0  0  0
  5  3  1  0  0  0  0
  5 10  1  0  0  0  0
  6  4  1  0  0  0  0
  6 15  1  1  0  0  0
  7 12  1  0  0  0  0
  8 11  1  0  0  0  0
  8  2  1  0  0  0  0
  9  1  2  0  0  0  0
 10  6  1  0  0  0  0
 11  7  1  0  0  0  0
 11 13  1  0  0  0  0
 12 10  1  0  0  0  0
 12 30  1  0  0  0  0
 14 13  1  0  0  0  0
 15 17  1  0  0  0  0
 16 15  2  0  0  0  0
 17 18  1  0  0  0  0
 18 19  3  0  0  0  0
 21 20  1  0  0  0  0
 22 21  1  0  0  0  0
 23 22  1  0  0  0  0
 25 24  1  0  0  0  0
 25 23  1  0  0  0  0
 26 25  1  0  0  0  0
 27 29  1  0  0  0  0
 27 26  1  0  0  0  0
 29 28  1  0  0  0  0
 30 31  1  0  0  0  0
 31 33  1  0  0  0  0
 31 34  1  0  0  0  0
 32 31  1  0  0  0  0
 35 36  1  0  0  0  0
 36 37  2  0  0  0  0
M  END
>  <MODEL>
7

>  <REMARK>
 VINA RESULT:      -0.2      3.816      8.201
  Name = 
  15 active torsions:
  status: ('A' for Active; 'I' for Inactive)
    1  A    between atoms: C_1  and  C_5
    2  A    between atoms: C_1  and  C_36
    3  A    between atoms: C_2  and  C_18
    4  A    between atoms: C_2  and  C_35
    5  A    between atoms: C_3  and  C_32
    6  A    between atoms: C_6  and  C_31
    7  A    between atoms: C_6  and  C_35
    8  A    between atoms: C_9  and  C_13
    9  A    between atoms: C_9  and  C_16
   10  A    between atoms: C_10  and  C_37
   11  A    between atoms: O_11  and  C_33
   12  A    between atoms: C_18  and  C_19
   13  A    between atoms: C_20  and  C_21
   14  A    between atoms: C_21  and  C_32
   15  A    between atoms: C_31  and  C_37
                            x       y       z     vdW  Elec       q    Type
                         _______ _______ _______ _____ _____    ______ ____

>  <TORSDO>
F 15

$$$$
=
 OpenBabel11062409203D

 37 38  0  0  1  0  0  0  0  0999 V2000
  159.7030  212.1850  152.8400 C   0  0  0  0  0  0  0  0  0  0  0  0
  160.8320  211.8640  155.7640 C   0  0  0  0  0  2  0  0  0  0  0  0
  159.0530  211.4490  153.9790 C   0  0  1  0  0  3  0  0  0  0  0  0
  160.8130  211.5040  152.0790 C   0  0  1  0  0  3  0  0  0  0  0  0
  160.0960  210.8300  154.9230 C   0  0  1  0  0  3  0  0  0  0  0  0
  161.0900  210.0830  152.6180 C   0  0  2  0  0  3  0  0  0  0  0  0
  161.4790  208.5080  156.5460 S   0  0  0  0  0  0  0  0  0  0  0  0
  161.3590  211.2620  157.0660 C   0  0  0  0  0  2  0  0  0  0  0  0
  159.3710  213.3270  152.5560 O   0  0  0  0  0  0  0  0  0  0  0  0
  161.1550  210.0180  154.1640 C   0  0  2  0  0  3  0  0  0  0  0  0
  162.3370  210.0940  156.8890 C   0  0  2  0  0  3  0  0  0  0  0  0
  161.2860  208.5940  154.7150 C   0  0  2  0  0  3  0  0  0  0  0  0
  163.3470  210.3730  155.9640 O   0  0  0  0  0  0  0  0  0  0  0  0
  163.9480  211.4420  156.4410 O   0  0  0  0  0  1  0  0  0  0  0  0
  162.3510  209.5280  152.0140 C   0  0  0  0  0  0  0  0  0  0  0  0
  163.4010  210.1350  152.1550 O   0  0  0  0  0  0  0  0  0  0  0  0
  162.3260  208.2530  151.2290 C   0  0  0  0  0  2  0  0  0  0  0  0
  162.2170  208.5400  149.7950 C   0  0  0  0  0  0  0  0  0  0  0  0
  162.1260  208.7750  148.6170 C   0  0  0  0  0  3  0  0  0  0  0  0
  156.8660  212.7100  153.6320 C   0  0  0  0  0  1  0  0  0  0  0  0
  157.8380  212.1240  154.6440 C   0  0  2  0  0  3  0  0  0  0  0  0
  158.2750  213.2110  155.6170 C   0  0  0  0  0  2  0  0  0  0  0  0
  157.0720  213.8290  156.3090 C   0  0  0  0  0  2  0  0  0  0  0  0
  157.1920  211.6620  157.2580 F   0  0  0  0  0  0  0  0  0  0  0  0
  156.4450  212.8290  157.2590 C   0  0  2  0  0  3  0  0  0  0  0  0
  155.0260  212.5340  156.8050 C   0  0  0  0  0  2  0  0  0  0  0  0
  154.5770  211.1530  157.2610 C   0  0  0  0  0  2  0  0  0  0  0  0
  153.7380  209.2470  156.0890 O   0  0  0  0  0  1  0  0  0  0  0  0
  154.8330  210.1060  156.1880 C   0  0  0  0  0  2  0  0  0  0  0  0
  160.0940  207.7380  154.2890 C   0  0  0  0  0  2  0  0  0  0  0  0
  160.5110  206.3330  153.8720 C   0  0  0  0  0  0  0  0  0  0  0  0
  159.7400  205.8960  152.8110 F   0  0  0  0  0  0  0  0  0  0  0  0
  160.3720  205.4600  154.9350 F   0  0  0  0  0  0  0  0  0  0  0  0
  161.9630  206.3620  153.4450 C   0  0  0  0  0  1  0  0  0  0  0  0
  160.4670  211.4290  150.5960 C   0  0  0  0  0  2  0  0  0  0  0  0
  160.5540  212.7830  149.9770 C   0  0  0  0  0  3  0  0  0  0  0  0
  161.0520  212.9210  148.7530 C   0  0  0  0  0  2  0  0  0  0  0  0
  1  3  1  0  0  0  0
  2  8  1  0  0  0  0
  3 21  1  1  0  0  0
  3  5  1  0  0  0  0
  4 35  1  6  0  0  0
  4  6  1  0  0  0  0
  4  1  1  0  0  0  0
  5  2  1  6  0  0  0
  6 15  1  6  0  0  0
  6 10  1  0  0  0  0
  7 11  1  0  0  0  0
  9  1  2  0  0  0  0
 10 12  1  0  0  0  0
 10  5  1  0  0  0  0
 11  8  1  0  0  0  0
 12  7  1  0  0  0  0
 13 14  1  0  0  0  0
 13 11  1  0  0  0  0
 15 16  2  0  0  0  0
 17 15  1  0  0  0  0
 18 17  1  0  0  0  0
 19 18  3  0  0  0  0
 20 21  1  0  0  0  0
 21 22  1  0  0  0  0
 22 23  1  0  0  0  0
 23 25  1  0  0  0  0
 24 25  1  0  0  0  0
 26 25  1  0  0  0  0
 26 27  1  0  0  0  0
 28 29  1  0  0  0  0
 29 27  1  0  0  0  0
 30 12  1  0  0  0  0
 31 30  1  0  0  0  0
 31 33  1  0  0  0  0
 32 31  1  0  0  0  0
 34 31  1  0  0  0  0
 36 35  1  0  0  0  0
 37 36  2  0  0  0  0
M  END
>  <MODEL>
8

>  <REMARK>
 VINA RESULT:      -0.1      1.953      2.704
  Name = 
  15 active torsions:
  status: ('A' for Active; 'I' for Inactive)
    1  A    between atoms: C_1  and  C_5
    2  A    between atoms: C_1  and  C_36
    3  A    between atoms: C_2  and  C_18
    4  A    between atoms: C_2  and  C_35
    5  A    between atoms: C_3  and  C_32
    6  A    between atoms: C_6  and  C_31
    7  A    between atoms: C_6  and  C_35
    8  A    between atoms: C_9  and  C_13
    9  A    between atoms: C_9  and  C_16
   10  A    between atoms: C_10  and  C_37
   11  A    between atoms: O_11  and  C_33
   12  A    between atoms: C_18  and  C_19
   13  A    between atoms: C_20  and  C_21
   14  A    between atoms: C_21  and  C_32
   15  A    between atoms: C_31  and  C_37
                            x       y       z     vdW  Elec       q    Type
                         _______ _______ _______ _____ _____    ______ ____

>  <TORSDO>
F 15

$$$$
=
 OpenBabel11062409203D

 37 38  0  0  1  0  0  0  0  0999 V2000
  161.4210  206.5720  153.8500 C   0  0  0  0  0  0  0  0  0  0  0  0
  162.2810  208.3220  151.3750 C   0  0  0  0  0  2  0  0  0  0  0  0
  160.5570  206.9690  152.6860 C   0  0  1  0  0  3  0  0  0  0  0  0
  161.6610  207.5770  154.9490 C   0  0  1  0  0  3  0  0  0  0  0  0
  160.9570  208.3430  152.1250 C   0  0  1  0  0  3  0  0  0  0  0  0
  160.9190  208.9050  154.6830 C   0  0  2  0  0  3  0  0  0  0  0  0
  160.4760  211.3230  151.2160 S   0  0  0  0  0  0  0  0  0  0  0  0
  162.3620  209.4420  150.3370 C   0  0  0  0  0  2  0  0  0  0  0  0
  161.9550  205.4720  153.8920 O   0  0  0  0  0  0  0  0  0  0  0  0
  161.0690  209.4080  153.2260 C   0  0  2  0  0  3  0  0  0  0  0  0
  162.2250  210.8600  150.9050 C   0  0  2  0  0  3  0  0  0  0  0  0
  160.2220  210.6460  152.9120 C   0  0  2  0  0  3  0  0  0  0  0  0
  163.0470  211.0790  152.0130 O   0  0  0  0  0  0  0  0  0  0  0  0
  164.2440  210.7010  151.6190 O   0  0  0  0  0  1  0  0  0  0  0  0
  161.3690  209.9620  155.6530 C   0  0  0  0  0  0  0  0  0  0  0  0
  162.4920  210.4310  155.5520 O   0  0  0  0  0  0  0  0  0  0  0  0
  160.4620  210.4300  156.7500 C   0  0  0  0  0  2  0  0  0  0  0  0
  160.4920  211.8920  156.8460 C   0  0  0  0  0  0  0  0  0  0  0  0
  160.5140  213.0950  156.9250 C   0  0  0  0  0  3  0  0  0  0  0  0
  160.2100  204.4800  152.2620 C   0  0  0  0  0  1  0  0  0  0  0  0
  160.2290  205.8730  151.6530 C   0  0  2  0  0  3  0  0  0  0  0  0
  161.2070  205.9050  150.4860 C   0  0  0  0  0  2  0  0  0  0  0  0
  160.4670  205.8200  149.1620 C   0  0  0  0  0  2  0  0  0  0  0  0
  161.5750  203.7280  149.2520 F   0  0  0  0  0  0  0  0  0  0  0  0
  160.9090  204.5890  148.3960 C   0  0  2  0  0  3  0  0  0  0  0  0
  161.8330  205.0130  147.2670 C   0  0  0  0  0  2  0  0  0  0  0  0
  161.2940  206.2400  146.5450 C   0  0  0  0  0  2  0  0  0  0  0  0
  161.0250  204.7530  144.6950 O   0  0  0  0  0  1  0  0  0  0  0  0
  160.4520  205.8490  145.3420 C   0  0  0  0  0  2  0  0  0  0  0  0
  158.7380  210.3530  153.1250 C   0  0  0  0  0  2  0  0  0  0  0  0
  158.0040  211.5240  153.7660 C   0  0  0  0  0  0  0  0  0  0  0  0
  157.1170  212.0880  152.8690 F   0  0  0  0  0  0  0  0  0  0  0  0
  158.9090  212.4800  154.1870 F   0  0  0  0  0  0  0  0  0  0  0  0
  157.2310  211.0160  154.9660 C   0  0  0  0  0  1  0  0  0  0  0  0
  161.2200  207.0050  156.2910 C   0  0  0  0  0  2  0  0  0  0  0  0
  159.7630  207.2440  156.5010 C   0  0  0  0  0  3  0  0  0  0  0  0
  158.8700  206.5820  155.7730 C   0  0  0  0  0  2  0  0  0  0  0  0
  1  9  2  0  0  0  0
  1  4  1  0  0  0  0
  3 21  1  6  0  0  0
  3  1  1  0  0  0  0
  4 35  1  1  0  0  0
  5  2  1  1  0  0  0
  5  3  1  0  0  0  0
  5 10  1  0  0  0  0
  6  4  1  0  0  0  0
  6 15  1  1  0  0  0
  7 12  1  0  0  0  0
  8 11  1  0  0  0  0
  8  2  1  0  0  0  0
 10  6  1  0  0  0  0
 11  7  1  0  0  0  0
 11 13  1  0  0  0  0
 12 30  1  0  0  0  0
 12 10  1  0  0  0  0
 14 13  1  0  0  0  0
 15 17  1  0  0  0  0
 16 15  2  0  0  0  0
 17 18  1  0  0  0  0
 18 19  3  0  0  0  0
 21 20  1  0  0  0  0
 22 21  1  0  0  0  0
 23 22  1  0  0  0  0
 25 23  1  0  0  0  0
 25 24  1  0  0  0  0
 26 25  1  0  0  0  0
 27 26  1  0  0  0  0
 28 29  1  0  0  0  0
 29 27  1  0  0  0  0
 30 31  1  0  0  0  0
 31 33  1  0  0  0  0
 31 34  1  0  0  0  0
 32 31  1  0  0  0  0
 35 36  1  0  0  0  0
 37 36  2  0  0  0  0
M  END
>  <MODEL>
9

>  <REMARK>
 VINA RESULT:      -0.1      3.266      7.693
  Name = 
  15 active torsions:
  status: ('A' for Active; 'I' for Inactive)
    1  A    between atoms: C_1  and  C_5
    2  A    between atoms: C_1  and  C_36
    3  A    between atoms: C_2  and  C_18
    4  A    between atoms: C_2  and  C_35
    5  A    between atoms: C_3  and  C_32
    6  A    between atoms: C_6  and  C_31
    7  A    between atoms: C_6  and  C_35
    8  A    between atoms: C_9  and  C_13
    9  A    between atoms: C_9  and  C_16
   10  A    between atoms: C_10  and  C_37
   11  A    between atoms: O_11  and  C_33
   12  A    between atoms: C_18  and  C_19
   13  A    between atoms: C_20  and  C_21
   14  A    between atoms: C_21  and  C_32
   15  A    between atoms: C_31  and  C_37
                            x       y       z     vdW  Elec       q    Type
                         _______ _______ _______ _____ _____    ______ ____

>  <TORSDO>
F 15

$$$$
