=
 OpenBabel11062410063D

 43 47  0  0  1  0  0  0  0  0999 V2000
  160.0910  206.9290  150.9250 N   0  0  0  0  0  2  0  0  0  0  0  0
  162.4360  207.5210  151.1450 C   0  0  2  0  0  3  0  0  0  0  0  0
  161.1130  207.0610  151.6900 C   0  0  0  0  0  0  0  0  0  0  0  0
  160.9540  209.9890  152.3860 N   0  0  0  0  0  0  0  0  0  0  0  0
  162.4150  208.9800  150.7010 C   0  0  0  0  0  2  0  0  0  0  0  0
  160.1390  208.0930  153.7350 C   0  0  0  0  0  2  0  0  0  0  0  0
  160.9270  209.4010  153.7440 C   0  0  2  0  0  3  0  0  0  0  0  0
  162.3280  209.9130  151.9040 C   0  0  0  0  0  2  0  0  0  0  0  0
  160.9570  206.9400  153.1700 C   0  0  0  0  0  2  0  0  0  0  0  0
  160.4300  212.8090  156.2390 C   0  0  1  0  0  3  0  0  0  0  0  0
  161.5230  210.8550  155.8570 C   0  0  0  0  0  0  0  0  0  0  0  0
  159.1120  212.3060  155.6550 C   0  0  0  0  0  2  0  0  0  0  0  0
  160.1460  213.8920  157.2570 C   0  0  0  0  0  1  0  0  0  0  0  0
  160.4350  210.2870  154.9180 C   0  0  1  0  0  3  0  0  0  0  0  0
  161.1140  211.7490  156.8640 O   0  0  0  0  0  0  0  0  0  0  0  0
  159.4140  211.3530  154.5050 C   0  0  0  0  0  2  0  0  0  0  0  0
  162.4010  209.7680  156.4420 C   0  0  0  0  0  2  0  0  0  0  0  0
  163.0040  210.8270  155.5350 C   0  0  0  0  0  2  0  0  0  0  0  0
  160.5570  211.3960  152.3140 C   0  0  0  0  0  2  0  0  0  0  0  0
  161.2260  212.4460  148.6510 C   0  0  0  0  0  2  0  0  0  0  0  0
  160.3600  213.7060  148.6350 C   0  0  2  0  0  3  0  0  0  0  0  0
  159.3820  213.0740  150.8480 C   0  0  0  0  0  2  0  0  0  0  0  0
  161.5510  212.0450  150.0870 C   0  0  0  0  0  2  0  0  0  0  0  0
  160.2600  211.8240  150.8800 C   0  0  1  0  0  3  0  0  0  0  0  0
  159.0660  213.4560  149.4050 C   0  0  0  0  0  2  0  0  0  0  0  0
  158.5230  214.1380  147.0110 C   0  0  0  0  0  1  0  0  0  0  0  0
  160.0270  214.0940  147.2070 C   0  0  0  0  0  2  0  0  0  0  0  0
  163.0240  206.5780  150.0920 C   0  0  0  0  0  2  0  0  0  0  0  0
  162.4890  206.8080  148.6790 C   0  0  0  0  0  2  0  0  0  0  0  0
  160.3510  206.6220  147.3830 C   0  0  0  0  0  1  0  0  0  0  0  0
  161.2760  205.9380  148.3800 C   0  0  1  0  0  3  0  0  0  0  0  0
  161.7180  204.5390  147.9240 C   0  0  1  0  0  3  0  0  0  0  0  0
  161.3340  203.4180  148.8470 C   0  0  0  0  0  0  0  0  0  0  0  0
  160.8600  201.0600  149.1670 C   0  0  0  0  0  3  0  0  0  0  0  0
  160.6370  202.5970  151.0230 C   0  0  0  0  0  3  0  0  0  0  0  0
  160.5580  201.3000  150.5100 C   0  0  0  0  0  3  0  0  0  0  0  0
  161.0220  203.6530  150.1940 C   0  0  0  0  0  3  0  0  0  0  0  0
  161.2440  202.1180  148.3370 C   0  0  0  0  0  3  0  0  0  0  0  0
  161.5620  204.2250  146.4260 C   0  0  0  0  0  2  0  0  0  0  0  0
  162.7050  204.6920  145.5840 C   0  0  0  0  0  0  0  0  0  0  0  0
  163.9190  204.4450  145.9610 N   0  0  0  0  0  2  0  0  0  0  0  0
  161.1360  205.7350  143.9900 C   0  0  0  0  0  1  0  0  0  0  0  0
  162.4490  205.3780  144.3950 O   0  0  0  0  0  0  0  0  0  0  0  0
  1  3  2  0  0  0  0
  2 28  1  6  0  0  0
  2  3  1  0  0  0  0
  3  9  1  0  0  0  0
  4  7  1  0  0  0  0
  5  2  1  0  0  0  0
  5  8  1  0  0  0  0
  7  6  1  6  0  0  0
  7 14  1  0  0  0  0
  8  4  1  0  0  0  0
  9  6  1  0  0  0  0
 10 15  1  0  0  0  0
 10 13  1  1  0  0  0
 11 17  1  0  0  0  0
 11 15  1  0  0  0  0
 12 10  1  0  0  0  0
 14 16  1  6  0  0  0
 14 11  1  0  0  0  0
 16 12  1  0  0  0  0
 18 11  1  0  0  0  0
 18 17  1  0  0  0  0
 19  4  1  0  0  0  0
 20 23  1  0  0  0  0
 21 27  1  6  0  0  0
 21 20  1  0  0  0  0
 21 25  1  0  0  0  0
 22 24  1  0  0  0  0
 23 24  1  0  0  0  0
 24 19  1  1  0  0  0
 25 22  1  0  0  0  0
 26 27  1  0  0  0  0
 29 28  1  0  0  0  0
 31 30  1  6  0  0  0
 31 29  1  0  0  0  0
 32 39  1  6  0  0  0
 32 31  1  0  0  0  0
 32 33  1  0  0  0  0
 33 37  1  0  0  0  0
 34 36  2  0  0  0  0
 36 35  1  0  0  0  0
 37 35  2  0  0  0  0
 38 33  2  0  0  0  0
 38 34  1  0  0  0  0
 40 41  2  0  0  0  0
 40 39  1  0  0  0  0
 42 43  1  0  0  0  0
 43 40  1  0  0  0  0
M  END
>  <MODEL>
1

>  <REMARK>
 VINA RESULT:      -5.8      0.000      0.000
  Name = 
  12 active torsions:
  status: ('A' for Active; 'I' for Inactive)
    1  A    between atoms: C_1  and  N_8
    2  A    between atoms: C_1  and  C_35
    3  A    between atoms: C_4  and  C_12
    4  A    between atoms: C_4  and  C_14
    5  A    between atoms: C_6  and  C_17
    6  A    between atoms: C_10  and  C_41
    7  A    between atoms: C_10  and  O_42
    8  A    between atoms: C_11  and  C_14
    9  A    between atoms: C_12  and  C_17
   10  A    between atoms: C_14  and  C_41
   11  A    between atoms: C_19  and  C_37
   12  A    between atoms: C_21  and  C_30
                            x       y       z     vdW  Elec       q    Type
                         _______ _______ _______ _____ _____    ______ ____

>  <TORSDO>
F 12

$$$$
=
 OpenBabel11062410063D

 43 47  0  0  1  0  0  0  0  0999 V2000
  162.6510  208.6960  151.9000 N   0  0  0  0  0  2  0  0  0  0  0  0
  161.2090  207.1670  153.1170 C   0  0  2  0  0  3  0  0  0  0  0  0
  161.4660  208.3950  152.2890 C   0  0  0  0  0  0  0  0  0  0  0  0
  161.4130  209.6390  155.0340 N   0  0  0  0  0  0  0  0  0  0  0  0
  161.7870  207.2750  154.5240 C   0  0  0  0  0  2  0  0  0  0  0  0
  160.5260  210.6040  152.9450 C   0  0  0  0  0  2  0  0  0  0  0  0
  160.2510  210.3200  154.4210 C   0  0  2  0  0  3  0  0  0  0  0  0
  161.0000  208.2790  155.3580 C   0  0  0  0  0  2  0  0  0  0  0  0
  160.3450  209.3610  152.0840 C   0  0  0  0  0  2  0  0  0  0  0  0
  157.5270  213.0570  156.2040 C   0  0  1  0  0  3  0  0  0  0  0  0
  158.6240  212.3900  154.3310 C   0  0  0  0  0  0  0  0  0  0  0  0
  158.6700  212.6660  157.1390 C   0  0  0  0  0  2  0  0  0  0  0  0
  156.7190  214.1680  156.8380 C   0  0  0  0  0  1  0  0  0  0  0  0
  159.7140  211.6080  155.0990 C   0  0  1  0  0  3  0  0  0  0  0  0
  158.0440  213.5000  154.9720 O   0  0  0  0  0  0  0  0  0  0  0  0
  159.3620  211.4290  156.5810 C   0  0  0  0  0  2  0  0  0  0  0  0
  159.0630  212.7600  152.9300 C   0  0  0  0  0  2  0  0  0  0  0  0
  157.8790  211.8300  153.1350 C   0  0  0  0  0  2  0  0  0  0  0  0
  161.8990  210.2420  156.2750 C   0  0  0  0  0  2  0  0  0  0  0  0
  165.0620  211.6630  154.5580 C   0  0  0  0  0  2  0  0  0  0  0  0
  165.9540  211.7380  155.7980 C   0  0  2  0  0  3  0  0  0  0  0  0
  163.9830  211.2600  157.2600 C   0  0  0  0  0  2  0  0  0  0  0  0
  163.8950  210.7120  154.8030 C   0  0  0  0  0  2  0  0  0  0  0  0
  163.0900  211.1640  156.0240 C   0  0  1  0  0  3  0  0  0  0  0  0
  165.1400  212.2180  156.9960 C   0  0  0  0  0  2  0  0  0  0  0  0
  168.4230  212.0360  155.9190 C   0  0  0  0  0  1  0  0  0  0  0  0
  167.1060  212.6960  155.5570 C   0  0  0  0  0  2  0  0  0  0  0  0
  161.5860  205.8630  152.4070 C   0  0  0  0  0  2  0  0  0  0  0  0
  160.9230  205.6820  151.0420 C   0  0  0  0  0  2  0  0  0  0  0  0
  160.0280  203.3440  150.9090 C   0  0  0  0  0  1  0  0  0  0  0  0
  161.1470  204.2840  150.4810 C   0  0  1  0  0  3  0  0  0  0  0  0
  161.3320  204.3390  148.9570 C   0  0  1  0  0  3  0  0  0  0  0  0
  161.2050  203.0180  148.2520 C   0  0  0  0  0  0  0  0  0  0  0  0
  161.4070  200.6020  148.3150 C   0  0  0  0  0  3  0  0  0  0  0  0
  160.7690  201.7040  146.2570 C   0  0  0  0  0  3  0  0  0  0  0  0
  161.0460  200.5330  146.9670 C   0  0  0  0  0  3  0  0  0  0  0  0
  160.8500  202.9440  146.8970 C   0  0  0  0  0  3  0  0  0  0  0  0
  161.4890  201.8430  148.9550 C   0  0  0  0  0  3  0  0  0  0  0  0
  160.6780  205.5260  148.2300 C   0  0  0  0  0  2  0  0  0  0  0  0
  161.6360  206.3580  147.4390 C   0  0  0  0  0  0  0  0  0  0  0  0
  162.5090  207.0890  148.0560 N   0  0  0  0  0  2  0  0  0  0  0  0
  162.5520  205.6390  145.2630 C   0  0  0  0  0  1  0  0  0  0  0  0
  161.5860  206.3260  146.0430 O   0  0  0  0  0  0  0  0  0  0  0  0
  1  3  2  0  0  0  0
  2 28  1  6  0  0  0
  2  5  1  0  0  0  0
  3  2  1  0  0  0  0
  4  8  1  0  0  0  0
  4 19  1  0  0  0  0
  5  8  1  0  0  0  0
  7  6  1  6  0  0  0
  7  4  1  0  0  0  0
  7 14  1  0  0  0  0
  9  3  1  0  0  0  0
  9  6  1  0  0  0  0
 10 13  1  1  0  0  0
 10 12  1  0  0  0  0
 11 15  1  0  0  0  0
 11 14  1  0  0  0  0
 14 16  1  1  0  0  0
 15 10  1  0  0  0  0
 16 12  1  0  0  0  0
 17 18  1  0  0  0  0
 17 11  1  0  0  0  0
 18 11  1  0  0  0  0
 20 23  1  0  0  0  0
 20 21  1  0  0  0  0
 21 27  1  6  0  0  0
 21 25  1  0  0  0  0
 23 24  1  0  0  0  0
 24 19  1  1  0  0  0
 24 22  1  0  0  0  0
 25 22  1  0  0  0  0
 27 26  1  0  0  0  0
 29 28  1  0  0  0  0
 31 30  1  6  0  0  0
 31 29  1  0  0  0  0
 32 39  1  6  0  0  0
 32 31  1  0  0  0  0
 33 38  1  0  0  0  0
 33 32  1  0  0  0  0
 34 38  2  0  0  0  0
 35 37  1  0  0  0  0
 35 36  2  0  0  0  0
 36 34  1  0  0  0  0
 37 33  2  0  0  0  0
 40 41  2  0  0  0  0
 40 39  1  0  0  0  0
 42 43  1  0  0  0  0
 43 40  1  0  0  0  0
M  END
>  <MODEL>
2

>  <REMARK>
 VINA RESULT:      -5.0      2.428      4.870
  Name = 
  12 active torsions:
  status: ('A' for Active; 'I' for Inactive)
    1  A    between atoms: C_1  and  N_8
    2  A    between atoms: C_1  and  C_35
    3  A    between atoms: C_4  and  C_12
    4  A    between atoms: C_4  and  C_14
    5  A    between atoms: C_6  and  C_17
    6  A    between atoms: C_10  and  C_41
    7  A    between atoms: C_10  and  O_42
    8  A    between atoms: C_11  and  C_14
    9  A    between atoms: C_12  and  C_17
   10  A    between atoms: C_14  and  C_41
   11  A    between atoms: C_19  and  C_37
   12  A    between atoms: C_21  and  C_30
                            x       y       z     vdW  Elec       q    Type
                         _______ _______ _______ _____ _____    ______ ____

>  <TORSDO>
F 12

$$$$
=
 OpenBabel11062410063D

 43 47  0  0  1  0  0  0  0  0999 V2000
  160.0260  207.5700  150.9090 N   0  0  0  0  0  2  0  0  0  0  0  0
  162.3900  208.1190  151.0060 C   0  0  2  0  0  3  0  0  0  0  0  0
  161.0510  207.8450  151.6310 C   0  0  0  0  0  0  0  0  0  0  0  0
  160.9920  210.8580  151.6180 N   0  0  0  0  0  0  0  0  0  0  0  0
  162.4200  209.4330  150.2320 C   0  0  0  0  0  2  0  0  0  0  0  0
  160.1100  209.3600  153.3670 C   0  0  0  0  0  2  0  0  0  0  0  0
  160.9430  210.6060  153.0760 C   0  0  2  0  0  3  0  0  0  0  0  0
  162.3630  210.6250  151.1810 C   0  0  0  0  0  2  0  0  0  0  0  0
  160.8890  208.0800  153.0970 C   0  0  0  0  0  2  0  0  0  0  0  0
  158.9300  212.6360  156.2250 C   0  0  1  0  0  3  0  0  0  0  0  0
  158.9640  212.0600  154.0290 C   0  0  0  0  0  0  0  0  0  0  0  0
  160.4490  212.7440  156.3280 C   0  0  0  0  0  2  0  0  0  0  0  0
  158.2910  213.5350  157.2610 C   0  0  0  0  0  1  0  0  0  0  0  0
  160.4800  211.7600  154.0040 C   0  0  1  0  0  3  0  0  0  0  0  0
  158.5050  213.0280  154.9420 O   0  0  0  0  0  0  0  0  0  0  0  0
  161.0810  211.7020  155.4140 C   0  0  0  0  0  2  0  0  0  0  0  0
  158.4110  212.3350  152.6460 C   0  0  0  0  0  2  0  0  0  0  0  0
  157.9190  211.1350  153.4370 C   0  0  0  0  0  2  0  0  0  0  0  0
  160.6440  212.2200  151.2140 C   0  0  0  0  0  2  0  0  0  0  0  0
  161.5290  212.7600  147.4860 C   0  0  0  0  0  2  0  0  0  0  0  0
  160.4360  213.7780  147.1590 C   0  0  2  0  0  3  0  0  0  0  0  0
  159.3430  213.3290  149.3630 C   0  0  0  0  0  2  0  0  0  0  0  0
  161.7500  212.6870  148.9940 C   0  0  0  0  0  2  0  0  0  0  0  0
  160.4440  212.3260  149.7050 C   0  0  1  0  0  3  0  0  0  0  0  0
  159.1350  213.3840  147.8530 C   0  0  0  0  0  2  0  0  0  0  0  0
  159.8890  212.4560  145.1210 C   0  0  0  0  0  1  0  0  0  0  0  0
  160.2070  213.8380  145.6610 C   0  0  0  0  0  2  0  0  0  0  0  0
  162.9470  206.9360  150.2100 C   0  0  0  0  0  2  0  0  0  0  0  0
  162.5580  206.9390  148.7320 C   0  0  0  0  0  2  0  0  0  0  0  0
  160.4830  206.6640  147.3520 C   0  0  0  0  0  1  0  0  0  0  0  0
  161.3370  206.0690  148.4630 C   0  0  1  0  0  3  0  0  0  0  0  0
  161.7610  204.6190  148.1820 C   0  0  1  0  0  3  0  0  0  0  0  0
  161.3150  203.6160  149.2070 C   0  0  0  0  0  0  0  0  0  0  0  0
  160.8680  203.0770  151.5290 C   0  0  0  0  0  3  0  0  0  0  0  0
  160.6240  201.3730  149.8280 C   0  0  0  0  0  3  0  0  0  0  0  0
  160.5530  201.7640  151.1680 C   0  0  0  0  0  3  0  0  0  0  0  0
  161.0060  202.2950  148.8510 C   0  0  0  0  0  3  0  0  0  0  0  0
  161.2510  204.0000  150.5510 C   0  0  0  0  0  3  0  0  0  0  0  0
  161.6540  204.1450  146.7230 C   0  0  0  0  0  2  0  0  0  0  0  0
  162.7010  204.7120  145.8200 C   0  0  0  0  0  0  0  0  0  0  0  0
  163.9520  204.5150  146.0900 N   0  0  0  0  0  2  0  0  0  0  0  0
  161.0770  205.2200  144.0330 C   0  0  0  0  0  1  0  0  0  0  0  0
  162.3170  205.4360  144.6890 O   0  0  0  0  0  0  0  0  0  0  0  0
  1  3  2  0  0  0  0
  2 28  1  6  0  0  0
  2  3  1  0  0  0  0
  3  9  1  0  0  0  0
  4  7  1  0  0  0  0
  5  2  1  0  0  0  0
  5  8  1  0  0  0  0
  7  6  1  6  0  0  0
  7 14  1  0  0  0  0
  8  4  1  0  0  0  0
  9  6  1  0  0  0  0
 10 12  1  0  0  0  0
 10 13  1  1  0  0  0
 11 15  1  0  0  0  0
 14 11  1  0  0  0  0
 14 16  1  1  0  0  0
 15 10  1  0  0  0  0
 16 12  1  0  0  0  0
 17 18  1  0  0  0  0
 17 11  1  0  0  0  0
 18 11  1  0  0  0  0
 19  4  1  0  0  0  0
 20 23  1  0  0  0  0
 21 27  1  6  0  0  0
 21 20  1  0  0  0  0
 21 25  1  0  0  0  0
 22 24  1  0  0  0  0
 23 24  1  0  0  0  0
 24 19  1  1  0  0  0
 25 22  1  0  0  0  0
 26 27  1  0  0  0  0
 29 28  1  0  0  0  0
 31 30  1  6  0  0  0
 31 29  1  0  0  0  0
 32 39  1  6  0  0  0
 32 31  1  0  0  0  0
 32 33  1  0  0  0  0
 33 38  1  0  0  0  0
 35 36  2  0  0  0  0
 36 34  1  0  0  0  0
 37 33  2  0  0  0  0
 37 35  1  0  0  0  0
 38 34  2  0  0  0  0
 40 41  2  0  0  0  0
 40 39  1  0  0  0  0
 42 43  1  0  0  0  0
 43 40  1  0  0  0  0
M  END
>  <MODEL>
3

>  <REMARK>
 VINA RESULT:      -4.9      1.121      1.963
  Name = 
  12 active torsions:
  status: ('A' for Active; 'I' for Inactive)
    1  A    between atoms: C_1  and  N_8
    2  A    between atoms: C_1  and  C_35
    3  A    between atoms: C_4  and  C_12
    4  A    between atoms: C_4  and  C_14
    5  A    between atoms: C_6  and  C_17
    6  A    between atoms: C_10  and  C_41
    7  A    between atoms: C_10  and  O_42
    8  A    between atoms: C_11  and  C_14
    9  A    between atoms: C_12  and  C_17
   10  A    between atoms: C_14  and  C_41
   11  A    between atoms: C_19  and  C_37
   12  A    between atoms: C_21  and  C_30
                            x       y       z     vdW  Elec       q    Type
                         _______ _______ _______ _____ _____    ______ ____

>  <TORSDO>
F 12

$$$$
=
 OpenBabel11062410063D

 43 47  0  0  1  0  0  0  0  0999 V2000
  160.1030  206.5270  147.1520 N   0  0  0  0  0  2  0  0  0  0  0  0
  162.4530  206.1930  147.6650 C   0  0  2  0  0  3  0  0  0  0  0  0
  160.9860  206.1070  147.9820 C   0  0  0  0  0  0  0  0  0  0  0  0
  161.6720  208.6490  149.4490 N   0  0  0  0  0  0  0  0  0  0  0  0
  162.9670  207.6290  147.6410 C   0  0  0  0  0  2  0  0  0  0  0  0
  160.0990  206.8920  150.1710 C   0  0  0  0  0  2  0  0  0  0  0  0
  161.2550  207.8000  150.5880 C   0  0  2  0  0  3  0  0  0  0  0  0
  163.0040  208.2160  149.0470 C   0  0  0  0  0  2  0  0  0  0  0  0
  160.5800  205.6970  149.3600 C   0  0  0  0  0  2  0  0  0  0  0  0
  161.7640  209.5990  154.4080 C   0  0  1  0  0  3  0  0  0  0  0  0
  161.2700  207.7270  153.2210 C   0  0  0  0  0  0  0  0  0  0  0  0
  161.1190  210.5390  153.3930 C   0  0  0  0  0  2  0  0  0  0  0  0
  161.7340  210.2420  155.7770 C   0  0  0  0  0  1  0  0  0  0  0  0
  160.9030  208.4930  151.9300 C   0  0  1  0  0  3  0  0  0  0  0  0
  161.0610  208.3800  154.4500 O   0  0  0  0  0  0  0  0  0  0  0  0
  161.3200  209.9680  151.9950 C   0  0  0  0  0  2  0  0  0  0  0  0
  160.6690  206.3370  153.2530 C   0  0  0  0  0  2  0  0  0  0  0  0
  162.1780  206.5140  153.2430 C   0  0  0  0  0  2  0  0  0  0  0  0
  161.7620  210.0790  149.7460 C   0  0  0  0  0  2  0  0  0  0  0  0
  163.3470  212.6240  147.3010 C   0  0  0  0  0  2  0  0  0  0  0  0
  162.0830  213.4280  146.9910 C   0  0  2  0  0  3  0  0  0  0  0  0
  160.6900  211.7030  148.1460 C   0  0  0  0  0  2  0  0  0  0  0  0
  163.1660  211.8300  148.5900 C   0  0  0  0  0  2  0  0  0  0  0  0
  161.9500  210.9060  148.4770 C   0  0  1  0  0  3  0  0  0  0  0  0
  160.8900  212.4870  146.8520 C   0  0  0  0  0  2  0  0  0  0  0  0
  162.4490  213.2540  144.5340 C   0  0  0  0  0  1  0  0  0  0  0  0
  162.2610  214.2060  145.7010 C   0  0  0  0  0  2  0  0  0  0  0  0
  162.8580  205.3850  146.4280 C   0  0  0  0  0  2  0  0  0  0  0  0
  162.6310  203.8800  146.5640 C   0  0  0  0  0  2  0  0  0  0  0  0
  160.7790  203.3660  144.9540 C   0  0  0  0  0  1  0  0  0  0  0  0
  161.1610  203.5100  146.4210 C   0  0  1  0  0  3  0  0  0  0  0  0
  160.8390  202.2570  147.2500 C   0  0  1  0  0  3  0  0  0  0  0  0
  160.9180  200.9590  146.4970 C   0  0  0  0  0  0  0  0  0  0  0  0
  160.1770  199.5870  144.6390 C   0  0  0  0  0  3  0  0  0  0  0  0
  161.7420  198.6890  146.2520 C   0  0  0  0  0  3  0  0  0  0  0  0
  160.9770  198.5350  145.0930 C   0  0  0  0  0  3  0  0  0  0  0  0
  161.7120  199.8970  146.9530 C   0  0  0  0  0  3  0  0  0  0  0  0
  160.1460  200.7960  145.3420 C   0  0  0  0  0  3  0  0  0  0  0  0
  161.4110  202.2140  148.6770 C   0  0  0  0  0  2  0  0  0  0  0  0
  160.4140  201.8230  149.7200 C   0  0  0  0  0  0  0  0  0  0  0  0
  159.2370  201.4210  149.3610 N   0  0  0  0  0  2  0  0  0  0  0  0
  161.3830  203.0290  151.6430 C   0  0  0  0  0  1  0  0  0  0  0  0
  160.7710  201.8850  151.0690 O   0  0  0  0  0  0  0  0  0  0  0  0
  1  3  2  0  0  0  0
  2 28  1  6  0  0  0
  2  3  1  0  0  0  0
  3  9  1  0  0  0  0
  4 19  1  0  0  0  0
  4  7  1  0  0  0  0
  5  2  1  0  0  0  0
  5  8  1  0  0  0  0
  7  6  1  6  0  0  0
  7 14  1  0  0  0  0
  8  4  1  0  0  0  0
  9  6  1  0  0  0  0
 10 15  1  0  0  0  0
 10 13  1  1  0  0  0
 11 18  1  0  0  0  0
 11 17  1  0  0  0  0
 11 15  1  0  0  0  0
 12 10  1  0  0  0  0
 14 16  1  1  0  0  0
 14 11  1  0  0  0  0
 16 12  1  0  0  0  0
 18 17  1  0  0  0  0
 20 23  1  0  0  0  0
 21 27  1  6  0  0  0
 21 20  1  0  0  0  0
 22 24  1  0  0  0  0
 24 23  1  0  0  0  0
 24 19  1  1  0  0  0
 25 21  1  0  0  0  0
 25 22  1  0  0  0  0
 26 27  1  0  0  0  0
 28 29  1  0  0  0  0
 31 30  1  6  0  0  0
 31 29  1  0  0  0  0
 31 32  1  0  0  0  0
 32 39  1  1  0  0  0
 33 37  1  0  0  0  0
 33 32  1  0  0  0  0
 34 36  2  0  0  0  0
 34 38  1  0  0  0  0
 35 37  2  0  0  0  0
 36 35  1  0  0  0  0
 38 33  2  0  0  0  0
 39 40  1  0  0  0  0
 40 43  1  0  0  0  0
 41 40  2  0  0  0  0
 43 42  1  0  0  0  0
M  END
>  <MODEL>
4

>  <REMARK>
 VINA RESULT:      -4.7      2.611      4.253
  Name = 
  12 active torsions:
  status: ('A' for Active; 'I' for Inactive)
    1  A    between atoms: C_1  and  N_8
    2  A    between atoms: C_1  and  C_35
    3  A    between atoms: C_4  and  C_12
    4  A    between atoms: C_4  and  C_14
    5  A    between atoms: C_6  and  C_17
    6  A    between atoms: C_10  and  C_41
    7  A    between atoms: C_10  and  O_42
    8  A    between atoms: C_11  and  C_14
    9  A    between atoms: C_12  and  C_17
   10  A    between atoms: C_14  and  C_41
   11  A    between atoms: C_19  and  C_37
   12  A    between atoms: C_21  and  C_30
                            x       y       z     vdW  Elec       q    Type
                         _______ _______ _______ _____ _____    ______ ____

>  <TORSDO>
F 12

$$$$
=
 OpenBabel11062410063D

 43 47  0  0  1  0  0  0  0  0999 V2000
  162.4990  209.9550  152.9940 N   0  0  0  0  0  2  0  0  0  0  0  0
  160.7900  210.4760  151.3490 C   0  0  2  0  0  3  0  0  0  0  0  0
  161.3700  209.6530  152.4650 C   0  0  0  0  0  0  0  0  0  0  0  0
  162.2480  207.9940  150.1070 N   0  0  0  0  0  0  0  0  0  0  0  0
  161.5810  210.3480  150.0510 C   0  0  0  0  0  2  0  0  0  0  0  0
  161.4850  207.1720  152.3030 C   0  0  0  0  0  2  0  0  0  0  0  0
  161.3610  207.0230  150.7880 C   0  0  2  0  0  3  0  0  0  0  0  0
  161.3940  208.9660  149.4350 C   0  0  0  0  0  2  0  0  0  0  0  0
  160.6980  208.3670  152.8230 C   0  0  0  0  0  2  0  0  0  0  0  0
  160.5210  202.8570  150.6410 C   0  0  1  0  0  3  0  0  0  0  0  0
  161.7350  204.5360  151.5710 C   0  0  0  0  0  0  0  0  0  0  0  0
  160.4570  203.5210  149.2680 C   0  0  0  0  0  2  0  0  0  0  0  0
  160.4020  201.3570  150.4780 C   0  0  0  0  0  1  0  0  0  0  0  0
  161.4870  205.5250  150.4080 C   0  0  1  0  0  3  0  0  0  0  0  0
  161.7440  203.1620  151.2680 O   0  0  0  0  0  0  0  0  0  0  0  0
  160.3920  205.0320  149.4540 C   0  0  0  0  0  2  0  0  0  0  0  0
  162.9560  204.9050  152.3860 C   0  0  0  0  0  2  0  0  0  0  0  0
  161.5810  204.9090  153.0320 C   0  0  0  0  0  2  0  0  0  0  0  0
  163.1230  207.4200  149.0840 C   0  0  0  0  0  2  0  0  0  0  0  0
  162.4950  204.6330  146.4760 C   0  0  0  0  0  2  0  0  0  0  0  0
  161.6920  205.4650  145.4740 C   0  0  2  0  0  3  0  0  0  0  0  0
  161.5340  207.3300  147.1310 C   0  0  0  0  0  2  0  0  0  0  0  0
  163.2910  205.5460  147.4020 C   0  0  0  0  0  2  0  0  0  0  0  0
  162.3530  206.5130  148.1290 C   0  0  1  0  0  3  0  0  0  0  0  0
  160.7420  206.4000  146.2170 C   0  0  0  0  0  2  0  0  0  0  0  0
  160.7980  203.1630  145.1570 C   0  0  0  0  0  1  0  0  0  0  0  0
  160.8890  204.5550  144.5630 C   0  0  0  0  0  2  0  0  0  0  0  0
  160.5080  211.9280  151.7440 C   0  0  0  0  0  2  0  0  0  0  0  0
  159.1430  212.1440  152.3970 C   0  0  0  0  0  2  0  0  0  0  0  0
  158.5770  214.2850  153.5730 C   0  0  0  0  0  1  0  0  0  0  0  0
  159.2510  212.9260  153.6990 C   0  0  1  0  0  3  0  0  0  0  0  0
  158.7070  212.0950  154.8720 C   0  0  1  0  0  3  0  0  0  0  0  0
  159.6850  211.1260  155.4740 C   0  0  0  0  0  0  0  0  0  0  0  0
  160.1480  208.9040  156.3290 C   0  0  0  0  0  3  0  0  0  0  0  0
  161.8680  210.6050  156.4000 C   0  0  0  0  0  3  0  0  0  0  0  0
  161.4490  209.2980  156.6560 C   0  0  0  0  0  3  0  0  0  0  0  0
  160.9890  211.5180  155.8120 C   0  0  0  0  0  3  0  0  0  0  0  0
  159.2680  209.8180  155.7410 C   0  0  0  0  0  3  0  0  0  0  0  0
  157.8260  212.8400  155.8890 C   0  0  0  0  0  2  0  0  0  0  0  0
  156.3760  212.4870  155.8120 C   0  0  0  0  0  0  0  0  0  0  0  0
  155.5540  212.9630  156.6930 N   0  0  0  0  0  2  0  0  0  0  0  0
  155.4810  210.3300  155.0140 C   0  0  0  0  0  1  0  0  0  0  0  0
  155.9230  211.6580  154.7820 O   0  0  0  0  0  0  0  0  0  0  0  0
  2 28  1  1  0  0  0
  2  3  1  0  0  0  0
  3  9  1  0  0  0  0
  3  1  2  0  0  0  0
  4  7  1  0  0  0  0
  5  2  1  0  0  0  0
  6  9  1  0  0  0  0
  7  6  1  1  0  0  0
  8  5  1  0  0  0  0
  8  4  1  0  0  0  0
 10 13  1  6  0  0  0
 10 15  1  0  0  0  0
 11 17  1  0  0  0  0
 11 18  1  0  0  0  0
 12 16  1  0  0  0  0
 12 10  1  0  0  0  0
 14 16  1  1  0  0  0
 14  7  1  0  0  0  0
 14 11  1  0  0  0  0
 15 11  1  0  0  0  0
 17 18  1  0  0  0  0
 19  4  1  0  0  0  0
 20 23  1  0  0  0  0
 21 27  1  6  0  0  0
 21 25  1  0  0  0  0
 21 20  1  0  0  0  0
 22 24  1  0  0  0  0
 23 24  1  0  0  0  0
 24 19  1  6  0  0  0
 25 22  1  0  0  0  0
 27 26  1  0  0  0  0
 28 29  1  0  0  0  0
 29 31  1  0  0  0  0
 31 30  1  6  0  0  0
 31 32  1  0  0  0  0
 32 33  1  0  0  0  0
 32 39  1  1  0  0  0
 33 38  2  0  0  0  0
 33 37  1  0  0  0  0
 34 36  2  0  0  0  0
 35 36  1  0  0  0  0
 37 35  2  0  0  0  0
 38 34  1  0  0  0  0
 40 39  1  0  0  0  0
 40 41  2  0  0  0  0
 43 42  1  0  0  0  0
 43 40  1  0  0  0  0
M  END
>  <MODEL>
5

>  <REMARK>
 VINA RESULT:      -4.6      2.485      9.057
  Name = 
  12 active torsions:
  status: ('A' for Active; 'I' for Inactive)
    1  A    between atoms: C_1  and  N_8
    2  A    between atoms: C_1  and  C_35
    3  A    between atoms: C_4  and  C_12
    4  A    between atoms: C_4  and  C_14
    5  A    between atoms: C_6  and  C_17
    6  A    between atoms: C_10  and  C_41
    7  A    between atoms: C_10  and  O_42
    8  A    between atoms: C_11  and  C_14
    9  A    between atoms: C_12  and  C_17
   10  A    between atoms: C_14  and  C_41
   11  A    between atoms: C_19  and  C_37
   12  A    between atoms: C_21  and  C_30
                            x       y       z     vdW  Elec       q    Type
                         _______ _______ _______ _____ _____    ______ ____

>  <TORSDO>
F 12

$$$$
=
 OpenBabel11062410063D

 43 47  0  0  1  0  0  0  0  0999 V2000
  162.7510  208.7340  152.0120 N   0  0  0  0  0  2  0  0  0  0  0  0
  161.3650  207.2460  153.3400 C   0  0  2  0  0  3  0  0  0  0  0  0
  161.5780  208.4200  152.4260 C   0  0  0  0  0  0  0  0  0  0  0  0
  161.4850  209.8540  155.0760 N   0  0  0  0  0  0  0  0  0  0  0  0
  161.9400  207.4740  154.7340 C   0  0  0  0  0  2  0  0  0  0  0  0
  160.5610  210.6360  152.9270 C   0  0  0  0  0  2  0  0  0  0  0  0
  160.2980  210.4490  154.4200 C   0  0  2  0  0  3  0  0  0  0  0  0
  161.1200  208.5070  155.4980 C   0  0  0  0  0  2  0  0  0  0  0  0
  160.4240  209.3300  152.1570 C   0  0  0  0  0  2  0  0  0  0  0  0
  157.7370  213.0700  156.5790 C   0  0  1  0  0  3  0  0  0  0  0  0
  158.2770  212.1300  154.5830 C   0  0  0  0  0  0  0  0  0  0  0  0
  159.1850  213.1260  157.0630 C   0  0  0  0  0  2  0  0  0  0  0  0
  156.9390  214.1590  157.2610 C   0  0  0  0  0  1  0  0  0  0  0  0
  159.7170  211.7620  155.0060 C   0  0  1  0  0  3  0  0  0  0  0  0
  157.6880  213.2570  155.1850 O   0  0  0  0  0  0  0  0  0  0  0  0
  159.9340  211.9170  156.5160 C   0  0  0  0  0  2  0  0  0  0  0  0
  158.1190  212.1920  153.0790 C   0  0  0  0  0  2  0  0  0  0  0  0
  157.3390  211.1660  153.8840 C   0  0  0  0  0  2  0  0  0  0  0  0
  161.9510  210.5610  156.2690 C   0  0  0  0  0  2  0  0  0  0  0  0
  165.3990  212.0300  157.2250 C   0  0  0  0  0  2  0  0  0  0  0  0
  165.8510  212.4290  155.8200 C   0  0  2  0  0  3  0  0  0  0  0  0
  163.9280  211.1730  154.8330 C   0  0  0  0  0  2  0  0  0  0  0  0
  163.8860  211.8410  157.2610 C   0  0  0  0  0  2  0  0  0  0  0  0
  163.4590  210.7880  156.2350 C   0  0  1  0  0  3  0  0  0  0  0  0
  165.4430  211.3530  154.8170 C   0  0  0  0  0  2  0  0  0  0  0  0
  167.7260  214.0570  156.0040 C   0  0  0  0  0  1  0  0  0  0  0  0
  167.3580  212.6020  155.7840 C   0  0  0  0  0  2  0  0  0  0  0  0
  161.7860  205.9090  152.7240 C   0  0  0  0  0  2  0  0  0  0  0  0
  160.7370  205.2890  151.8010 C   0  0  0  0  0  2  0  0  0  0  0  0
  160.4580  202.8340  152.2280 C   0  0  0  0  0  1  0  0  0  0  0  0
  161.1280  203.8870  151.3550 C   0  0  1  0  0  3  0  0  0  0  0  0
  160.8370  203.6970  149.8590 C   0  0  1  0  0  3  0  0  0  0  0  0
  161.2030  204.8630  148.9860 C   0  0  0  0  0  0  0  0  0  0  0  0
  161.0260  207.2340  148.5050 C   0  0  0  0  0  3  0  0  0  0  0  0
  162.2760  205.7930  147.0160 C   0  0  0  0  0  3  0  0  0  0  0  0
  161.8030  207.0630  147.3560 C   0  0  0  0  0  3  0  0  0  0  0  0
  161.9760  204.6960  147.8270 C   0  0  0  0  0  3  0  0  0  0  0  0
  160.7250  206.1360  149.3160 C   0  0  0  0  0  3  0  0  0  0  0  0
  161.1660  202.3170  149.2660 C   0  0  0  0  0  2  0  0  0  0  0  0
  160.0430  201.7010  148.4960 C   0  0  0  0  0  0  0  0  0  0  0  0
  159.0410  201.1840  149.1320 N   0  0  0  0  0  2  0  0  0  0  0  0
  160.8980  200.8050  146.3610 C   0  0  0  0  0  1  0  0  0  0  0  0
  160.0830  201.7020  147.1000 O   0  0  0  0  0  0  0  0  0  0  0  0
  1  3  2  0  0  0  0
  2 28  1  6  0  0  0
  2  5  1  0  0  0  0
  3  2  1  0  0  0  0
  4  8  1  0  0  0  0
  4 19  1  0  0  0  0
  5  8  1  0  0  0  0
  7  6  1  6  0  0  0
  7 14  1  0  0  0  0
  7  4  1  0  0  0  0
  9  3  1  0  0  0  0
  9  6  1  0  0  0  0
 10 12  1  0  0  0  0
 10 13  1  1  0  0  0
 11 14  1  0  0  0  0
 11 15  1  0  0  0  0
 14 16  1  1  0  0  0
 15 10  1  0  0  0  0
 16 12  1  0  0  0  0
 17 18  1  0  0  0  0
 17 11  1  0  0  0  0
 18 11  1  0  0  0  0
 20 23  1  0  0  0  0
 21 27  1  1  0  0  0
 21 20  1  0  0  0  0
 22 24  1  0  0  0  0
 24 19  1  6  0  0  0
 24 23  1  0  0  0  0
 25 22  1  0  0  0  0
 25 21  1  0  0  0  0
 27 26  1  0  0  0  0
 29 28  1  0  0  0  0
 31 29  1  0  0  0  0
 31 30  1  1  0  0  0
 32 39  1  6  0  0  0
 32 31  1  0  0  0  0
 33 38  1  0  0  0  0
 33 32  1  0  0  0  0
 34 38  2  0  0  0  0
 35 36  2  0  0  0  0
 35 37  1  0  0  0  0
 36 34  1  0  0  0  0
 37 33  2  0  0  0  0
 40 41  2  0  0  0  0
 40 39  1  0  0  0  0
 42 43  1  0  0  0  0
 43 40  1  0  0  0  0
M  END
>  <MODEL>
6

>  <REMARK>
 VINA RESULT:      -4.6      2.801      5.422
  Name = 
  12 active torsions:
  status: ('A' for Active; 'I' for Inactive)
    1  A    between atoms: C_1  and  N_8
    2  A    between atoms: C_1  and  C_35
    3  A    between atoms: C_4  and  C_12
    4  A    between atoms: C_4  and  C_14
    5  A    between atoms: C_6  and  C_17
    6  A    between atoms: C_10  and  C_41
    7  A    between atoms: C_10  and  O_42
    8  A    between atoms: C_11  and  C_14
    9  A    between atoms: C_12  and  C_17
   10  A    between atoms: C_14  and  C_41
   11  A    between atoms: C_19  and  C_37
   12  A    between atoms: C_21  and  C_30
                            x       y       z     vdW  Elec       q    Type
                         _______ _______ _______ _____ _____    ______ ____

>  <TORSDO>
F 12

$$$$
=
 OpenBabel11062410063D

 43 47  0  0  1  0  0  0  0  0999 V2000
  160.0470  208.0020  151.8940 N   0  0  0  0  0  2  0  0  0  0  0  0
  161.9250  209.4940  152.2760 C   0  0  2  0  0  3  0  0  0  0  0  0
  160.8400  208.5600  152.7350 C   0  0  0  0  0  0  0  0  0  0  0  0
  159.4560  211.2000  153.1850 N   0  0  0  0  0  0  0  0  0  0  0  0
  161.3770  210.8050  151.7210 C   0  0  0  0  0  2  0  0  0  0  0  0
  159.3130  209.1840  154.5990 C   0  0  0  0  0  2  0  0  0  0  0  0
  159.5120  210.6980  154.5770 C   0  0  2  0  0  3  0  0  0  0  0  0
  160.7930  211.6650  152.8360 C   0  0  0  0  0  2  0  0  0  0  0  0
  160.5790  208.4380  154.2000 C   0  0  0  0  0  2  0  0  0  0  0  0
  156.9690  213.5580  156.4320 C   0  0  1  0  0  3  0  0  0  0  0  0
  159.0590  212.6900  156.2400 C   0  0  0  0  0  0  0  0  0  0  0  0
  156.2770  212.2190  156.1930 C   0  0  0  0  0  2  0  0  0  0  0  0
  156.0680  214.4480  157.2600 C   0  0  0  0  0  1  0  0  0  0  0  0
  158.5800  211.3520  155.6300 C   0  0  1  0  0  3  0  0  0  0  0  0
  158.1830  213.3580  157.1160 O   0  0  0  0  0  0  0  0  0  0  0  0
  157.1060  211.4030  155.2090 C   0  0  0  0  0  2  0  0  0  0  0  0
  160.4370  212.5780  156.8560 C   0  0  0  0  0  2  0  0  0  0  0  0
  160.2050  213.5040  155.6740 C   0  0  0  0  0  2  0  0  0  0  0  0
  158.5460  212.3240  152.9700 C   0  0  0  0  0  2  0  0  0  0  0  0
  159.0790  213.7220  149.4020 C   0  0  0  0  0  2  0  0  0  0  0  0
  157.6660  214.2640  149.1780 C   0  0  2  0  0  3  0  0  0  0  0  0
  156.8800  213.0950  151.2440 C   0  0  0  0  0  2  0  0  0  0  0  0
  159.3370  213.5170  150.8910 C   0  0  0  0  0  2  0  0  0  0  0  0
  158.2930  212.5680  151.4850 C   0  0  1  0  0  3  0  0  0  0  0  0
  156.6400  213.2900  149.7500 C   0  0  0  0  0  2  0  0  0  0  0  0
  158.5560  213.8870  146.8840 C   0  0  0  0  0  1  0  0  0  0  0  0
  157.4070  214.4530  147.6960 C   0  0  0  0  0  2  0  0  0  0  0  0
  162.9530  208.8300  151.3560 C   0  0  0  0  0  2  0  0  0  0  0  0
  162.5740  207.4170  150.9130 C   0  0  0  0  0  2  0  0  0  0  0  0
  162.0730  208.4610  148.6890 C   0  0  0  0  0  1  0  0  0  0  0  0
  161.6310  207.4290  149.7170 C   0  0  1  0  0  3  0  0  0  0  0  0
  161.4940  206.0170  149.1270 C   0  0  1  0  0  3  0  0  0  0  0  0
  161.2600  204.9260  150.1330 C   0  0  0  0  0  0  0  0  0  0  0  0
  160.6120  202.6360  150.6010 C   0  0  0  0  0  3  0  0  0  0  0  0
  161.1340  204.1380  152.4260 C   0  0  0  0  0  3  0  0  0  0  0  0
  160.7480  202.8740  151.9720 C   0  0  0  0  0  3  0  0  0  0  0  0
  161.3880  205.1610  151.5100 C   0  0  0  0  0  3  0  0  0  0  0  0
  160.8650  203.6620  149.6840 C   0  0  0  0  0  3  0  0  0  0  0  0
  160.6700  205.8920  147.8350 C   0  0  0  0  0  2  0  0  0  0  0  0
  161.4960  205.7640  146.5960 C   0  0  0  0  0  0  0  0  0  0  0  0
  162.7520  205.4650  146.6930 N   0  0  0  0  0  2  0  0  0  0  0  0
  161.2060  205.1450  144.2250 C   0  0  0  0  0  1  0  0  0  0  0  0
  160.8990  205.9560  145.3480 O   0  0  0  0  0  0  0  0  0  0  0  0
  1  3  2  0  0  0  0
  2 28  1  6  0  0  0
  2  3  1  0  0  0  0
  3  9  1  0  0  0  0
  4  7  1  0  0  0  0
  5  2  1  0  0  0  0
  5  8  1  0  0  0  0
  7  6  1  6  0  0  0
  7 14  1  0  0  0  0
  8  4  1  0  0  0  0
  9  6  1  0  0  0  0
 10 15  1  0  0  0  0
 10 13  1  1  0  0  0
 11 17  1  0  0  0  0
 11 15  1  0  0  0  0
 12 10  1  0  0  0  0
 14 16  1  6  0  0  0
 14 11  1  0  0  0  0
 16 12  1  0  0  0  0
 18 11  1  0  0  0  0
 18 17  1  0  0  0  0
 19  4  1  0  0  0  0
 20 23  1  0  0  0  0
 21 27  1  6  0  0  0
 21 20  1  0  0  0  0
 21 25  1  0  0  0  0
 22 24  1  0  0  0  0
 23 24  1  0  0  0  0
 24 19  1  1  0  0  0
 25 22  1  0  0  0  0
 26 27  1  0  0  0  0
 29 28  1  0  0  0  0
 31 30  1  6  0  0  0
 31 29  1  0  0  0  0
 32 39  1  6  0  0  0
 32 31  1  0  0  0  0
 32 33  1  0  0  0  0
 33 37  1  0  0  0  0
 34 36  2  0  0  0  0
 36 35  1  0  0  0  0
 37 35  2  0  0  0  0
 38 33  2  0  0  0  0
 38 34  1  0  0  0  0
 40 41  2  0  0  0  0
 40 39  1  0  0  0  0
 42 43  1  0  0  0  0
 43 40  1  0  0  0  0
M  END
>  <MODEL>
7

>  <REMARK>
 VINA RESULT:      -4.1      1.642      2.443
  Name = 
  12 active torsions:
  status: ('A' for Active; 'I' for Inactive)
    1  A    between atoms: C_1  and  N_8
    2  A    between atoms: C_1  and  C_35
    3  A    between atoms: C_4  and  C_12
    4  A    between atoms: C_4  and  C_14
    5  A    between atoms: C_6  and  C_17
    6  A    between atoms: C_10  and  C_41
    7  A    between atoms: C_10  and  O_42
    8  A    between atoms: C_11  and  C_14
    9  A    between atoms: C_12  and  C_17
   10  A    between atoms: C_14  and  C_41
   11  A    between atoms: C_19  and  C_37
   12  A    between atoms: C_21  and  C_30
                            x       y       z     vdW  Elec       q    Type
                         _______ _______ _______ _____ _____    ______ ____

>  <TORSDO>
F 12

$$$$
=
 OpenBabel11062410063D

 43 47  0  0  1  0  0  0  0  0999 V2000
  160.0040  207.0950  149.5270 N   0  0  0  0  0  2  0  0  0  0  0  0
  162.3890  207.3880  149.1740 C   0  0  2  0  0  3  0  0  0  0  0  0
  161.1830  207.1290  150.0330 C   0  0  0  0  0  0  0  0  0  0  0  0
  161.5280  210.0820  150.5250 N   0  0  0  0  0  0  0  0  0  0  0  0
  162.4340  208.8150  148.6380 C   0  0  0  0  0  2  0  0  0  0  0  0
  160.8330  208.3720  152.1600 C   0  0  0  0  0  2  0  0  0  0  0  0
  161.7480  209.5660  151.8950 C   0  0  2  0  0  3  0  0  0  0  0  0
  162.7350  209.8060  149.7570 C   0  0  0  0  0  2  0  0  0  0  0  0
  161.3600  207.0980  151.5160 C   0  0  0  0  0  2  0  0  0  0  0  0
  160.7030  211.1550  155.7000 C   0  0  1  0  0  3  0  0  0  0  0  0
  160.2220  211.0090  153.4850 C   0  0  0  0  0  0  0  0  0  0  0  0
  162.2120  211.0820  155.4840 C   0  0  0  0  0  2  0  0  0  0  0  0
  160.4150  211.9010  156.9840 C   0  0  0  0  0  1  0  0  0  0  0  0
  161.6450  210.5630  153.0790 C   0  0  1  0  0  3  0  0  0  0  0  0
  160.0940  211.8270  154.6230 O   0  0  0  0  0  0  0  0  0  0  0  0
  162.4970  210.1740  154.2940 C   0  0  0  0  0  2  0  0  0  0  0  0
  159.4540  211.6010  152.3220 C   0  0  0  0  0  2  0  0  0  0  0  0
  158.9600  210.3290  152.9920 C   0  0  0  0  0  2  0  0  0  0  0  0
  161.2910  211.5230  150.4380 C   0  0  0  0  0  2  0  0  0  0  0  0
  162.4200  213.0180  147.0540 C   0  0  0  0  0  2  0  0  0  0  0  0
  161.2870  214.0320  146.8870 C   0  0  2  0  0  3  0  0  0  0  0  0
  160.0620  212.9950  148.8040 C   0  0  0  0  0  2  0  0  0  0  0  0
  162.5290  212.5820  148.5110 C   0  0  0  0  0  2  0  0  0  0  0  0
  161.2000  211.9920  148.9890 C   0  0  1  0  0  3  0  0  0  0  0  0
  159.9670  213.4150  147.3410 C   0  0  0  0  0  2  0  0  0  0  0  0
  162.1330  213.6540  144.5760 C   0  0  0  0  0  1  0  0  0  0  0  0
  161.1710  214.4530  145.4340 C   0  0  0  0  0  2  0  0  0  0  0  0
  162.6050  206.3280  148.0900 C   0  0  0  0  0  2  0  0  0  0  0  0
  161.3320  205.9280  147.3450 C   0  0  0  0  0  2  0  0  0  0  0  0
  162.9340  204.4940  146.0540 C   0  0  0  0  0  1  0  0  0  0  0  0
  161.5090  204.6270  146.5730 C   0  0  1  0  0  3  0  0  0  0  0  0
  161.0700  203.4300  147.4300 C   0  0  1  0  0  3  0  0  0  0  0  0
  160.9090  202.1360  146.6830 C   0  0  0  0  0  0  0  0  0  0  0  0
  161.4160  199.7720  146.4900 C   0  0  0  0  0  3  0  0  0  0  0  0
  160.0890  200.8630  144.7860 C   0  0  0  0  0  3  0  0  0  0  0  0
  160.6970  199.7120  145.2930 C   0  0  0  0  0  3  0  0  0  0  0  0
  160.1960  202.0720  145.4770 C   0  0  0  0  0  3  0  0  0  0  0  0
  161.5240  200.9830  147.1820 C   0  0  0  0  0  3  0  0  0  0  0  0
  161.7290  203.2990  148.8140 C   0  0  0  0  0  2  0  0  0  0  0  0
  160.7580  203.1140  149.9360 C   0  0  0  0  0  0  0  0  0  0  0  0
  160.9040  203.7970  151.0260 N   0  0  0  0  0  2  0  0  0  0  0  0
  159.8120  200.8430  150.1300 C   0  0  0  0  0  1  0  0  0  0  0  0
  159.6990  202.2160  149.7870 O   0  0  0  0  0  0  0  0  0  0  0  0
  1  3  2  0  0  0  0
  2 28  1  6  0  0  0
  2  3  1  0  0  0  0
  3  9  1  0  0  0  0
  4  7  1  0  0  0  0
  5  2  1  0  0  0  0
  5  8  1  0  0  0  0
  7  6  1  1  0  0  0
  7 14  1  0  0  0  0
  8  4  1  0  0  0  0
  9  6  1  0  0  0  0
 10 13  1  1  0  0  0
 11 15  1  0  0  0  0
 12 10  1  0  0  0  0
 14 11  1  0  0  0  0
 14 16  1  1  0  0  0
 15 10  1  0  0  0  0
 16 12  1  0  0  0  0
 17 18  1  0  0  0  0
 17 11  1  0  0  0  0
 18 11  1  0  0  0  0
 19  4  1  0  0  0  0
 20 23  1  0  0  0  0
 21 27  1  6  0  0  0
 21 20  1  0  0  0  0
 21 25  1  0  0  0  0
 22 24  1  0  0  0  0
 23 24  1  0  0  0  0
 24 19  1  1  0  0  0
 25 22  1  0  0  0  0
 26 27  1  0  0  0  0
 29 28  1  0  0  0  0
 31 30  1  1  0  0  0
 31 29  1  0  0  0  0
 31 32  1  0  0  0  0
 32 39  1  1  0  0  0
 33 38  1  0  0  0  0
 33 32  1  0  0  0  0
 34 38  2  0  0  0  0
 35 36  2  0  0  0  0
 35 37  1  0  0  0  0
 36 34  1  0  0  0  0
 37 33  2  0  0  0  0
 39 40  1  0  0  0  0
 40 41  2  0  0  0  0
 43 40  1  0  0  0  0
 43 42  1  0  0  0  0
M  END
>  <MODEL>
8

>  <REMARK>
 VINA RESULT:      -3.8      2.037      3.431
  Name = 
  12 active torsions:
  status: ('A' for Active; 'I' for Inactive)
    1  A    between atoms: C_1  and  N_8
    2  A    between atoms: C_1  and  C_35
    3  A    between atoms: C_4  and  C_12
    4  A    between atoms: C_4  and  C_14
    5  A    between atoms: C_6  and  C_17
    6  A    between atoms: C_10  and  C_41
    7  A    between atoms: C_10  and  O_42
    8  A    between atoms: C_11  and  C_14
    9  A    between atoms: C_12  and  C_17
   10  A    between atoms: C_14  and  C_41
   11  A    between atoms: C_19  and  C_37
   12  A    between atoms: C_21  and  C_30
                            x       y       z     vdW  Elec       q    Type
                         _______ _______ _______ _____ _____    ______ ____

>  <TORSDO>
F 12

$$$$
=
 OpenBabel11062410063D

 43 47  0  0  1  0  0  0  0  0999 V2000
  159.9630  207.3090  150.8960 N   0  0  0  0  0  2  0  0  0  0  0  0
  162.3140  207.8560  151.1650 C   0  0  2  0  0  3  0  0  0  0  0  0
  160.9730  207.4160  151.6810 C   0  0  0  0  0  0  0  0  0  0  0  0
  160.8550  210.3400  152.4000 N   0  0  0  0  0  0  0  0  0  0  0  0
  162.3280  209.3190  150.7340 C   0  0  0  0  0  2  0  0  0  0  0  0
  159.9810  208.4470  153.7170 C   0  0  0  0  0  2  0  0  0  0  0  0
  160.7930  209.7400  153.7530 C   0  0  2  0  0  3  0  0  0  0  0  0
  162.2360  210.2420  151.9440 C   0  0  0  0  0  2  0  0  0  0  0  0
  160.7880  207.2840  153.1570 C   0  0  0  0  0  2  0  0  0  0  0  0
  160.2770  213.1480  156.2450 C   0  0  1  0  0  3  0  0  0  0  0  0
  161.3800  211.1990  155.8650 C   0  0  0  0  0  0  0  0  0  0  0  0
  158.9610  212.6380  155.6600 C   0  0  0  0  0  2  0  0  0  0  0  0
  159.9870  214.2300  157.2610 C   0  0  0  0  0  1  0  0  0  0  0  0
  160.2960  210.6250  154.9260 C   0  0  1  0  0  3  0  0  0  0  0  0
  160.9660  212.0920  156.8710 O   0  0  0  0  0  0  0  0  0  0  0  0
  159.2690  211.6860  154.5110 C   0  0  0  0  0  2  0  0  0  0  0  0
  162.2620  210.1170  156.4510 C   0  0  0  0  0  2  0  0  0  0  0  0
  162.8610  211.1790  155.5440 C   0  0  0  0  0  2  0  0  0  0  0  0
  160.4850  211.7540  152.3350 C   0  0  0  0  0  2  0  0  0  0  0  0
  160.1660  213.1110  148.7260 C   0  0  0  0  0  2  0  0  0  0  0  0
  158.9280  213.9840  148.9420 C   0  0  2  0  0  3  0  0  0  0  0  0
  158.5900  212.9640  151.1990 C   0  0  0  0  0  2  0  0  0  0  0  0
  160.8310  212.7960  150.0620 C   0  0  0  0  0  2  0  0  0  0  0  0
  159.8370  212.1040  150.9990 C   0  0  1  0  0  3  0  0  0  0  0  0
  157.9380  213.2640  149.8530 C   0  0  0  0  0  2  0  0  0  0  0  0
  156.7780  213.9730  147.6860 C   0  0  0  0  0  1  0  0  0  0  0  0
  158.2610  214.2830  147.6130 C   0  0  0  0  0  2  0  0  0  0  0  0
  162.9040  206.9110  150.1140 C   0  0  0  0  0  2  0  0  0  0  0  0
  161.8580  206.1350  149.3150 C   0  0  0  0  0  2  0  0  0  0  0  0
  161.1110  204.3300  150.8870 C   0  0  0  0  0  1  0  0  0  0  0  0
  161.8970  204.6440  149.6220 C   0  0  1  0  0  3  0  0  0  0  0  0
  161.4230  203.8320  148.4070 C   0  0  1  0  0  3  0  0  0  0  0  0
  161.5300  204.5410  147.0870 C   0  0  0  0  0  0  0  0  0  0  0  0
  160.5200  205.9790  145.4150 C   0  0  0  0  0  3  0  0  0  0  0  0
  162.7150  205.0360  145.0260 C   0  0  0  0  0  3  0  0  0  0  0  0
  161.6480  205.8320  144.6020 C   0  0  0  0  0  3  0  0  0  0  0  0
  162.6550  204.3900  146.2640 C   0  0  0  0  0  3  0  0  0  0  0  0
  160.4600  205.3320  146.6530 C   0  0  0  0  0  3  0  0  0  0  0  0
  161.8230  202.3460  148.3770 C   0  0  0  0  0  2  0  0  0  0  0  0
  160.6830  201.4150  148.1170 C   0  0  0  0  0  0  0  0  0  0  0  0
  159.7090  201.3430  148.9680 N   0  0  0  0  0  2  0  0  0  0  0  0
  161.5760  199.5640  146.7510 C   0  0  0  0  0  1  0  0  0  0  0  0
  160.6770  200.6430  146.9530 O   0  0  0  0  0  0  0  0  0  0  0  0
  1  3  2  0  0  0  0
  2 28  1  6  0  0  0
  2  3  1  0  0  0  0
  3  9  1  0  0  0  0
  4  7  1  0  0  0  0
  5  2  1  0  0  0  0
  5  8  1  0  0  0  0
  7  6  1  6  0  0  0
  7 14  1  0  0  0  0
  8  4  1  0  0  0  0
  9  6  1  0  0  0  0
 10 15  1  0  0  0  0
 10 13  1  1  0  0  0
 11 17  1  0  0  0  0
 11 15  1  0  0  0  0
 12 10  1  0  0  0  0
 14 16  1  6  0  0  0
 14 11  1  0  0  0  0
 16 12  1  0  0  0  0
 18 11  1  0  0  0  0
 18 17  1  0  0  0  0
 19  4  1  0  0  0  0
 20 21  1  0  0  0  0
 20 23  1  0  0  0  0
 21 27  1  6  0  0  0
 21 25  1  0  0  0  0
 23 24  1  0  0  0  0
 24 22  1  0  0  0  0
 24 19  1  1  0  0  0
 25 22  1  0  0  0  0
 27 26  1  0  0  0  0
 29 31  1  0  0  0  0
 29 28  1  0  0  0  0
 31 30  1  1  0  0  0
 32 39  1  6  0  0  0
 32 31  1  0  0  0  0
 33 32  1  0  0  0  0
 34 38  2  0  0  0  0
 35 37  1  0  0  0  0
 36 35  2  0  0  0  0
 36 34  1  0  0  0  0
 37 33  2  0  0  0  0
 38 33  1  0  0  0  0
 40 39  1  0  0  0  0
 40 41  2  0  0  0  0
 42 43  1  0  0  0  0
 43 40  1  0  0  0  0
M  END
>  <MODEL>
9

>  <REMARK>
 VINA RESULT:      -3.7      1.524      2.901
  Name = 
  12 active torsions:
  status: ('A' for Active; 'I' for Inactive)
    1  A    between atoms: C_1  and  N_8
    2  A    between atoms: C_1  and  C_35
    3  A    between atoms: C_4  and  C_12
    4  A    between atoms: C_4  and  C_14
    5  A    between atoms: C_6  and  C_17
    6  A    between atoms: C_10  and  C_41
    7  A    between atoms: C_10  and  O_42
    8  A    between atoms: C_11  and  C_14
    9  A    between atoms: C_12  and  C_17
   10  A    between atoms: C_14  and  C_41
   11  A    between atoms: C_19  and  C_37
   12  A    between atoms: C_21  and  C_30
                            x       y       z     vdW  Elec       q    Type
                         _______ _______ _______ _____ _____    ______ ____

>  <TORSDO>
F 12

$$$$
