=
 OpenBabel11062409403D

 34 38  0  0  1  0  0  0  0  0999 V2000
  160.9700  206.7270  150.3340 C   0  0  0  0  0  0  0  0  0  0  0  0
  161.2720  206.2110  154.1430 C   0  0  0  0  0  2  0  0  0  0  0  0
  161.3180  204.6940  152.1690 O   0  0  0  0  0  0  0  0  0  0  0  0
  161.8100  208.2530  148.4690 C   0  0  2  0  0  3  0  0  0  0  0  0
  160.6280  207.8290  149.3600 C   0  0  0  0  0  2  0  0  0  0  0  0
  162.2020  205.8770  147.5480 C   0  0  0  0  0  2  0  0  0  0  0  0
  161.0000  203.7320  148.0380 C   0  0  0  0  0  1  0  0  0  0  0  0
  162.8200  207.1340  148.1750 C   0  0  0  0  0  2  0  0  0  0  0  0
  161.6670  204.4060  150.8140 C   0  0  0  0  0  2  0  0  0  0  0  0
  161.1890  205.4800  149.8710 C   0  0  0  0  0  0  0  0  0  0  0  0
  161.0960  205.2100  148.3820 C   0  0  1  0  0  3  0  0  0  0  0  0
  160.7580  207.5820  154.5790 C   0  0  2  0  0  3  0  0  0  0  0  0
  161.3380  208.6660  153.6840 C   0  0  0  0  0  2  0  0  0  0  0  0
  161.2050  206.0020  152.6530 C   0  0  0  0  0  0  0  0  0  0  0  0
  160.8500  208.4420  152.2590 C   0  0  0  0  0  2  0  0  0  0  0  0
  161.0690  207.0260  151.7820 C   0  0  0  0  0  0  0  0  0  0  0  0
  162.5520  209.4260  149.0950 C   0  0  0  0  0  2  0  0  0  0  0  0
  160.7840  212.3220  147.4220 C   0  0  0  0  0  3  0  0  0  0  0  0
  161.4600  211.4920  149.9970 C   0  0  0  0  0  3  0  0  0  0  0  0
  160.4520  213.1360  148.5170 C   0  0  0  0  0  0  0  0  0  0  0  0
  160.7720  212.7040  149.8210 C   0  0  0  0  0  0  0  0  0  0  0  0
  161.8090  210.7040  148.8980 C   0  0  0  0  0  0  0  0  0  0  0  0
  161.4640  211.1190  147.6100 C   0  0  0  0  0  3  0  0  0  0  0  0
  158.7640  214.2410  147.2820 N   0  0  0  0  0  0  0  0  0  0  0  0
  158.3620  214.2440  148.6340 C   0  0  0  0  0  0  0  0  0  0  0  0
  159.6730  214.4060  148.2900 C   0  0  1  0  0  3  0  0  0  0  0  0
  155.9660  213.9290  149.2270 C   0  0  0  0  0  1  0  0  0  0  0  0
  157.3440  214.1410  149.6230 N   0  0  0  0  0  2  0  0  0  0  0  0
  160.4000  213.4830  150.9230 O   0  0  0  0  0  0  0  0  0  0  0  0
  159.6860  212.9570  152.0340 C   0  0  0  0  0  1  0  0  0  0  0  0
  161.0740  207.8460  156.0490 C   0  0  0  0  0  2  0  0  0  0  0  0
  160.1240  209.7420  157.0230 C   0  0  0  0  0  1  0  0  0  0  0  0
  162.4120  209.3630  157.2150 C   0  0  0  0  0  1  0  0  0  0  0  0
  161.2890  209.2640  156.3000 N   0  0  0  0  0  0  0  0  0  0  0  0
  1 16  1  0  0  0  0
  2 12  1  0  0  0  0
  3 14  1  0  0  0  0
  4 17  1  1  0  0  0
  4  5  1  0  0  0  0
  5  1  1  0  0  0  0
  6  8  1  0  0  0  0
  6 11  1  0  0  0  0
  8  4  1  0  0  0  0
  9  3  1  0  0  0  0
 10  1  2  0  0  0  0
 10  9  1  0  0  0  0
 11  7  1  1  0  0  0
 11 10  1  0  0  0  0
 12 31  1  1  0  0  0
 13 12  1  0  0  0  0
 14  2  1  0  0  0  0
 15 13  1  0  0  0  0
 16 15  1  0  0  0  0
 16 14  2  0  0  0  0
 18 23  2  0  0  0  0
 18 20  1  0  0  0  0
 20 21  2  0  0  0  0
 21 19  1  0  0  0  0
 21 29  1  0  0  0  0
 22 17  1  0  0  0  0
 22 19  2  0  0  0  0
 23 22  1  0  0  0  0
 24 26  1  0  0  0  0
 24 25  2  0  0  0  0
 25 28  1  0  0  0  0
 26 20  1  1  0  0  0
 26 25  1  0  0  0  0
 27 28  1  0  0  0  0
 29 30  1  0  0  0  0
 31 34  1  0  0  0  0
 34 32  1  0  0  0  0
 34 33  1  0  0  0  0
M  END
>  <MODEL>
1

>  <REMARK>
 VINA RESULT:      -6.5      0.000      0.000
  Name = 
  6 active torsions:
  status: ('A' for Active; 'I' for Inactive)
    1  A    between atoms: C_8  and  C_18
    2  A    between atoms: C_14  and  C_16
    3  A    between atoms: C_18  and  C_30
    4  A    between atoms: C_23  and  N_24
    5  A    between atoms: C_23  and  C_25
    6  A    between atoms: O_26  and  C_28
                            x       y       z     vdW  Elec       q    Type
                         _______ _______ _______ _____ _____    ______ ____

>  <TORSDO>
F 6

$$$$
=
 OpenBabel11062409403D

 34 38  0  0  1  0  0  0  0  0999 V2000
  161.6080  210.1150  151.4860 C   0  0  0  0  0  0  0  0  0  0  0  0
  159.3600  211.9220  154.0460 C   0  0  0  0  0  2  0  0  0  0  0  0
  160.2720  212.5110  151.8060 O   0  0  0  0  0  0  0  0  0  0  0  0
  161.9190  207.8350  150.3860 C   0  0  2  0  0  3  0  0  0  0  0  0
  162.4520  208.8680  151.3970 C   0  0  0  0  0  2  0  0  0  0  0  0
  161.9550  209.4860  148.4070 C   0  0  0  0  0  2  0  0  0  0  0  0
  162.6360  211.8980  148.3230 C   0  0  0  0  0  1  0  0  0  0  0  0
  161.1590  208.4400  149.1980 C   0  0  0  0  0  2  0  0  0  0  0  0
  160.6610  212.1630  150.4760 C   0  0  0  0  0  2  0  0  0  0  0  0
  161.6050  210.9870  150.4570 C   0  0  0  0  0  0  0  0  0  0  0  0
  162.4410  210.6920  149.2280 C   0  0  1  0  0  3  0  0  0  0  0  0
  159.6350  211.0110  155.2420 C   0  0  2  0  0  3  0  0  0  0  0  0
  159.6490  209.5570  154.7980 C   0  0  0  0  0  2  0  0  0  0  0  0
  160.1770  211.5650  152.8320 C   0  0  0  0  0  0  0  0  0  0  0  0
  160.7920  209.3530  153.8130 C   0  0  0  0  0  2  0  0  0  0  0  0
  160.7880  210.3690  152.6950 C   0  0  0  0  0  0  0  0  0  0  0  0
  161.0140  206.8280  151.0820 C   0  0  0  0  0  2  0  0  0  0  0  0
  160.7650  203.0970  150.5100 C   0  0  0  0  0  3  0  0  0  0  0  0
  161.5320  205.3810  149.1050 C   0  0  0  0  0  3  0  0  0  0  0  0
  161.2460  202.9680  149.1960 C   0  0  0  0  0  0  0  0  0  0  0  0
  161.6110  204.1270  148.4780 C   0  0  0  0  0  0  0  0  0  0  0  0
  161.0790  205.4930  150.4210 C   0  0  0  0  0  0  0  0  0  0  0  0
  160.6900  204.3490  151.1200 C   0  0  0  0  0  3  0  0  0  0  0  0
  160.0000  201.1350  148.3720 N   0  0  0  0  0  0  0  0  0  0  0  0
  160.7340  201.6610  147.2900 C   0  0  0  0  0  0  0  0  0  0  0  0
  161.2710  201.6100  148.5430 C   0  0  1  0  0  3  0  0  0  0  0  0
  159.7190  201.7530  145.0190 C   0  0  0  0  0  1  0  0  0  0  0  0
  160.8340  202.0030  145.9120 N   0  0  0  0  0  2  0  0  0  0  0  0
  162.0430  204.0140  147.1510 O   0  0  0  0  0  0  0  0  0  0  0  0
  162.8010  205.0240  146.4980 C   0  0  0  0  0  1  0  0  0  0  0  0
  158.6170  211.2430  156.3550 C   0  0  0  0  0  2  0  0  0  0  0  0
  156.3290  211.3240  155.9030 C   0  0  0  0  0  1  0  0  0  0  0  0
  157.3670  213.1200  156.9570 C   0  0  0  0  0  1  0  0  0  0  0  0
  157.5420  212.1220  155.9180 N   0  0  0  0  0  0  0  0  0  0  0  0
  1 16  1  0  0  0  0
  2 12  1  0  0  0  0
  3 14  1  0  0  0  0
  4 17  1  1  0  0  0
  4  5  1  0  0  0  0
  5  1  1  0  0  0  0
  6  8  1  0  0  0  0
  6 11  1  0  0  0  0
  8  4  1  0  0  0  0
  9  3  1  0  0  0  0
 10  9  1  0  0  0  0
 10  1  2  0  0  0  0
 11  7  1  6  0  0  0
 11 10  1  0  0  0  0
 12 31  1  1  0  0  0
 13 12  1  0  0  0  0
 14  2  1  0  0  0  0
 15 13  1  0  0  0  0
 16 14  2  0  0  0  0
 16 15  1  0  0  0  0
 18 23  1  0  0  0  0
 19 22  1  0  0  0  0
 20 18  2  0  0  0  0
 21 19  2  0  0  0  0
 21 20  1  0  0  0  0
 22 17  1  0  0  0  0
 22 23  2  0  0  0  0
 24 26  1  0  0  0  0
 25 24  2  0  0  0  0
 25 26  1  0  0  0  0
 26 20  1  1  0  0  0
 27 28  1  0  0  0  0
 28 25  1  0  0  0  0
 29 21  1  0  0  0  0
 30 29  1  0  0  0  0
 32 34  1  0  0  0  0
 34 31  1  0  0  0  0
 34 33  1  0  0  0  0
M  END
>  <MODEL>
2

>  <REMARK>
 VINA RESULT:      -6.1      3.644      7.643
  Name = 
  6 active torsions:
  status: ('A' for Active; 'I' for Inactive)
    1  A    between atoms: C_8  and  C_18
    2  A    between atoms: C_14  and  C_16
    3  A    between atoms: C_18  and  C_30
    4  A    between atoms: C_23  and  N_24
    5  A    between atoms: C_23  and  C_25
    6  A    between atoms: O_26  and  C_28
                            x       y       z     vdW  Elec       q    Type
                         _______ _______ _______ _____ _____    ______ ____

>  <TORSDO>
F 6

$$$$
=
 OpenBabel11062409403D

 34 38  0  0  1  0  0  0  0  0999 V2000
  157.7970  211.9790  154.1180 C   0  0  0  0  0  0  0  0  0  0  0  0
  158.2230  214.4530  151.1910 C   0  0  0  0  0  2  0  0  0  0  0  0
  156.8000  214.3970  153.2330 O   0  0  0  0  0  0  0  0  0  0  0  0
  159.1770  210.5600  155.7280 C   0  0  2  0  0  3  0  0  0  0  0  0
  158.2420  210.5890  154.5040 C   0  0  0  0  0  2  0  0  0  0  0  0
  157.5050  211.7860  157.2610 C   0  0  0  0  0  2  0  0  0  0  0  0
  155.2060  212.6620  156.7750 C   0  0  0  0  0  1  0  0  0  0  0  0
  158.9430  211.6950  156.7350 C   0  0  0  0  0  2  0  0  0  0  0  0
  156.5900  214.0780  154.6100 C   0  0  0  0  0  2  0  0  0  0  0  0
  156.9310  212.6410  154.9120 C   0  0  0  0  0  0  0  0  0  0  0  0
  156.4280  211.9810  156.1800 C   0  0  1  0  0  3  0  0  0  0  0  0
  158.9870  213.5270  150.2460 C   0  0  2  0  0  3  0  0  0  0  0  0
  160.0260  212.7320  151.0220 C   0  0  0  0  0  2  0  0  0  0  0  0
  157.7820  213.7700  152.4600 C   0  0  0  0  0  0  0  0  0  0  0  0
  159.3130  211.8440  152.0330 C   0  0  0  0  0  2  0  0  0  0  0  0
  158.3190  212.6040  152.8790 C   0  0  0  0  0  0  0  0  0  0  0  0
  160.6330  210.5930  155.2850 C   0  0  0  0  0  2  0  0  0  0  0  0
  160.9890  207.0150  154.1080 C   0  0  0  0  0  3  0  0  0  0  0  0
  161.5990  209.5840  153.2060 C   0  0  0  0  0  3  0  0  0  0  0  0
  161.6470  207.1750  152.8770 C   0  0  0  0  0  0  0  0  0  0  0  0
  161.9330  208.4750  152.4100 C   0  0  0  0  0  0  0  0  0  0  0  0
  160.9700  209.4110  154.4410 C   0  0  0  0  0  0  0  0  0  0  0  0
  160.6610  208.1250  154.8880 C   0  0  0  0  0  3  0  0  0  0  0  0
  160.8140  205.2240  151.8330 N   0  0  0  0  0  0  0  0  0  0  0  0
  161.3320  206.0530  150.8160 C   0  0  0  0  0  0  0  0  0  0  0  0
  161.9460  205.9640  152.0320 C   0  0  1  0  0  3  0  0  0  0  0  0
  160.1790  206.2030  148.6160 C   0  0  0  0  0  1  0  0  0  0  0  0
  161.2600  206.5900  149.5010 N   0  0  0  0  0  2  0  0  0  0  0  0
  162.5410  208.6470  151.1610 O   0  0  0  0  0  0  0  0  0  0  0  0
  162.3000  209.7780  150.3350 C   0  0  0  0  0  1  0  0  0  0  0  0
  159.6270  214.3120  149.1040 C   0  0  0  0  0  2  0  0  0  0  0  0
  159.7710  212.9970  147.1820 C   0  0  0  0  0  1  0  0  0  0  0  0
  161.5610  214.3510  147.7980 C   0  0  0  0  0  1  0  0  0  0  0  0
  160.5280  213.4760  148.3240 N   0  0  0  0  0  0  0  0  0  0  0  0
  1  5  1  0  0  0  0
  1 10  2  0  0  0  0
  2 14  1  0  0  0  0
  3  9  1  0  0  0  0
  4 17  1  6  0  0  0
  4  8  1  0  0  0  0
  5  4  1  0  0  0  0
  8  6  1  0  0  0  0
  9 10  1  0  0  0  0
 10 11  1  0  0  0  0
 11  7  1  1  0  0  0
 11  6  1  0  0  0  0
 12 31  1  6  0  0  0
 12 13  1  0  0  0  0
 12  2  1  0  0  0  0
 13 15  1  0  0  0  0
 14 16  2  0  0  0  0
 14  3  1  0  0  0  0
 15 16  1  0  0  0  0
 16  1  1  0  0  0  0
 18 23  1  0  0  0  0
 19 22  1  0  0  0  0
 20 18  2  0  0  0  0
 21 20  1  0  0  0  0
 21 19  2  0  0  0  0
 22 23  2  0  0  0  0
 22 17  1  0  0  0  0
 24 26  1  0  0  0  0
 25 24  2  0  0  0  0
 25 26  1  0  0  0  0
 26 20  1  1  0  0  0
 27 28  1  0  0  0  0
 28 25  1  0  0  0  0
 29 21  1  0  0  0  0
 30 29  1  0  0  0  0
 32 34  1  0  0  0  0
 33 34  1  0  0  0  0
 34 31  1  0  0  0  0
M  END
>  <MODEL>
3

>  <REMARK>
 VINA RESULT:      -5.7      2.950      8.666
  Name = 
  6 active torsions:
  status: ('A' for Active; 'I' for Inactive)
    1  A    between atoms: C_8  and  C_18
    2  A    between atoms: C_14  and  C_16
    3  A    between atoms: C_18  and  C_30
    4  A    between atoms: C_23  and  N_24
    5  A    between atoms: C_23  and  C_25
    6  A    between atoms: O_26  and  C_28
                            x       y       z     vdW  Elec       q    Type
                         _______ _______ _______ _____ _____    ______ ____

>  <TORSDO>
F 6

$$$$
=
 OpenBabel11062409403D

 34 38  0  0  1  0  0  0  0  0999 V2000
  159.5260  211.7490  152.2740 C   0  0  0  0  0  0  0  0  0  0  0  0
  160.5270  214.4080  149.6670 C   0  0  0  0  0  2  0  0  0  0  0  0
  159.2250  214.4510  151.7890 O   0  0  0  0  0  0  0  0  0  0  0  0
  160.5050  209.7850  153.5770 C   0  0  2  0  0  3  0  0  0  0  0  0
  159.5710  210.2500  152.4430 C   0  0  0  0  0  2  0  0  0  0  0  0
  159.3100  211.1890  155.3790 C   0  0  0  0  0  2  0  0  0  0  0  0
  157.3390  212.7270  155.1900 C   0  0  0  0  0  1  0  0  0  0  0  0
  160.6420  210.7820  154.7360 C   0  0  0  0  0  2  0  0  0  0  0  0
  158.9850  214.0050  153.1250 C   0  0  0  0  0  2  0  0  0  0  0  0
  158.9150  212.5020  153.2110 C   0  0  0  0  0  0  0  0  0  0  0  0
  158.2930  211.8290  154.4190 C   0  0  1  0  0  3  0  0  0  0  0  0
  160.9590  213.4540  148.5540 C   0  0  2  0  0  3  0  0  0  0  0  0
  161.7570  212.2990  149.1380 C   0  0  0  0  0  2  0  0  0  0  0  0
  159.9580  213.6960  150.8670 C   0  0  0  0  0  0  0  0  0  0  0  0
  160.8610  211.5060  150.0780 C   0  0  0  0  0  2  0  0  0  0  0  0
  160.1560  212.3790  151.0890 C   0  0  0  0  0  0  0  0  0  0  0  0
  161.8930  209.4790  153.0300 C   0  0  0  0  0  2  0  0  0  0  0  0
  162.2480  207.5040  149.8220 C   0  0  0  0  0  3  0  0  0  0  0  0
  161.3660  207.1030  152.4380 C   0  0  0  0  0  3  0  0  0  0  0  0
  161.7340  206.2500  150.1910 C   0  0  0  0  0  0  0  0  0  0  0  0
  161.3110  206.0410  151.5210 C   0  0  0  0  0  0  0  0  0  0  0  0
  161.8530  208.3540  152.0520 C   0  0  0  0  0  0  0  0  0  0  0  0
  162.2990  208.5510  150.7440 C   0  0  0  0  0  3  0  0  0  0  0  0
  160.4610  204.8230  148.7990 N   0  0  0  0  0  0  0  0  0  0  0  0
  161.3280  205.5580  147.9640 C   0  0  0  0  0  0  0  0  0  0  0  0
  161.7360  205.1230  149.1910 C   0  0  1  0  0  3  0  0  0  0  0  0
  160.5450  206.3490  145.7380 C   0  0  0  0  0  1  0  0  0  0  0  0
  161.5810  206.2500  146.7460 N   0  0  0  0  0  2  0  0  0  0  0  0
  160.8460  204.7790  151.9120 O   0  0  0  0  0  0  0  0  0  0  0  0
  161.6560  203.6120  151.8700 C   0  0  0  0  0  1  0  0  0  0  0  0
  161.7520  214.1900  147.4770 C   0  0  0  0  0  2  0  0  0  0  0  0
  162.0060  213.5090  145.2590 C   0  0  0  0  0  1  0  0  0  0  0  0
  159.9660  213.2090  146.3380 C   0  0  0  0  0  1  0  0  0  0  0  0
  161.0780  214.1300  146.1870 N   0  0  0  0  0  0  0  0  0  0  0  0
  1  5  1  0  0  0  0
  1 10  2  0  0  0  0
  2 14  1  0  0  0  0
  3  9  1  0  0  0  0
  4 17  1  6  0  0  0
  4  8  1  0  0  0  0
  5  4  1  0  0  0  0
  8  6  1  0  0  0  0
  9 10  1  0  0  0  0
 10 11  1  0  0  0  0
 11  7  1  1  0  0  0
 11  6  1  0  0  0  0
 12 31  1  6  0  0  0
 12 13  1  0  0  0  0
 12  2  1  0  0  0  0
 13 15  1  0  0  0  0
 14 16  2  0  0  0  0
 14  3  1  0  0  0  0
 15 16  1  0  0  0  0
 16  1  1  0  0  0  0
 18 20  2  0  0  0  0
 18 23  1  0  0  0  0
 20 21  1  0  0  0  0
 21 29  1  0  0  0  0
 21 19  2  0  0  0  0
 22 19  1  0  0  0  0
 22 17  1  0  0  0  0
 23 22  2  0  0  0  0
 24 26  1  0  0  0  0
 25 24  2  0  0  0  0
 25 26  1  0  0  0  0
 26 20  1  1  0  0  0
 27 28  1  0  0  0  0
 28 25  1  0  0  0  0
 30 29  1  0  0  0  0
 32 34  1  0  0  0  0
 34 33  1  0  0  0  0
 34 31  1  0  0  0  0
M  END
>  <MODEL>
4

>  <REMARK>
 VINA RESULT:      -5.4      2.715      8.398
  Name = 
  6 active torsions:
  status: ('A' for Active; 'I' for Inactive)
    1  A    between atoms: C_8  and  C_18
    2  A    between atoms: C_14  and  C_16
    3  A    between atoms: C_18  and  C_30
    4  A    between atoms: C_23  and  N_24
    5  A    between atoms: C_23  and  C_25
    6  A    between atoms: O_26  and  C_28
                            x       y       z     vdW  Elec       q    Type
                         _______ _______ _______ _____ _____    ______ ____

>  <TORSDO>
F 6

$$$$
=
 OpenBabel11062409403D

 34 38  0  0  1  0  0  0  0  0999 V2000
  159.1670  211.5520  153.7610 C   0  0  0  0  0  0  0  0  0  0  0  0
  159.4420  214.4400  151.2200 C   0  0  0  0  0  2  0  0  0  0  0  0
  158.6220  214.2520  153.5630 O   0  0  0  0  0  0  0  0  0  0  0  0
  160.5070  209.5810  154.6720 C   0  0  2  0  0  3  0  0  0  0  0  0
  159.3290  210.0520  153.7980 C   0  0  0  0  0  2  0  0  0  0  0  0
  159.6490  210.7760  156.7880 C   0  0  0  0  0  2  0  0  0  0  0  0
  157.6010  212.1810  157.1360 C   0  0  0  0  0  1  0  0  0  0  0  0
  160.8340  210.5060  155.8520 C   0  0  0  0  0  2  0  0  0  0  0  0
  158.6970  213.7040  154.8810 C   0  0  0  0  0  2  0  0  0  0  0  0
  158.7290  212.1970  154.8610 C   0  0  0  0  0  0  0  0  0  0  0  0
  158.4170  211.4050  156.1160 C   0  0  1  0  0  3  0  0  0  0  0  0
  159.6790  213.5930  149.9700 C   0  0  2  0  0  3  0  0  0  0  0  0
  160.6460  212.4620  150.2820 C   0  0  0  0  0  2  0  0  0  0  0  0
  159.1820  213.6130  152.4520 C   0  0  0  0  0  0  0  0  0  0  0  0
  160.0150  211.5470  151.3230 C   0  0  0  0  0  2  0  0  0  0  0  0
  159.4950  212.3010  152.5240 C   0  0  0  0  0  0  0  0  0  0  0  0
  161.7610  209.4100  153.8250 C   0  0  0  0  0  2  0  0  0  0  0  0
  160.9540  206.2110  151.9730 C   0  0  0  0  0  3  0  0  0  0  0  0
  161.7240  208.8280  151.3900 C   0  0  0  0  0  3  0  0  0  0  0  0
  161.1650  206.5850  150.6360 C   0  0  0  0  0  0  0  0  0  0  0  0
  161.5300  207.9150  150.3390 C   0  0  0  0  0  0  0  0  0  0  0  0
  161.5380  208.4370  152.7180 C   0  0  0  0  0  0  0  0  0  0  0  0
  161.1470  207.1280  153.0070 C   0  0  0  0  0  3  0  0  0  0  0  0
  162.0390  204.9000  149.2250 N   0  0  0  0  0  0  0  0  0  0  0  0
  161.0170  204.3100  149.9960 C   0  0  0  0  0  0  0  0  0  0  0  0
  160.9000  205.5900  149.5350 C   0  0  1  0  0  3  0  0  0  0  0  0
  161.2680  201.9800  150.8320 C   0  0  0  0  0  1  0  0  0  0  0  0
  160.4980  203.2030  150.7230 N   0  0  0  0  0  2  0  0  0  0  0  0
  161.6920  208.3120  149.0060 O   0  0  0  0  0  0  0  0  0  0  0  0
  162.0080  209.6460  148.6310 C   0  0  0  0  0  1  0  0  0  0  0  0
  160.1830  214.4520  148.8120 C   0  0  0  0  0  2  0  0  0  0  0  0
  159.0810  213.5760  146.9510 C   0  0  0  0  0  1  0  0  0  0  0  0
  161.2340  214.4310  146.7290 C   0  0  0  0  0  1  0  0  0  0  0  0
  160.3740  213.6590  147.6070 N   0  0  0  0  0  0  0  0  0  0  0  0
  1  5  1  0  0  0  0
  1 10  2  0  0  0  0
  2 14  1  0  0  0  0
  3  9  1  0  0  0  0
  4 17  1  6  0  0  0
  4  8  1  0  0  0  0
  5  4  1  0  0  0  0
  8  6  1  0  0  0  0
 10  9  1  0  0  0  0
 10 11  1  0  0  0  0
 11  6  1  0  0  0  0
 11  7  1  1  0  0  0
 12 31  1  6  0  0  0
 12 13  1  0  0  0  0
 12  2  1  0  0  0  0
 13 15  1  0  0  0  0
 14 16  2  0  0  0  0
 14  3  1  0  0  0  0
 15 16  1  0  0  0  0
 16  1  1  0  0  0  0
 18 23  1  0  0  0  0
 19 22  1  0  0  0  0
 20 18  2  0  0  0  0
 21 20  1  0  0  0  0
 21 19  2  0  0  0  0
 22 23  2  0  0  0  0
 22 17  1  0  0  0  0
 24 26  1  0  0  0  0
 24 25  2  0  0  0  0
 25 28  1  0  0  0  0
 26 25  1  0  0  0  0
 26 20  1  1  0  0  0
 28 27  1  0  0  0  0
 29 21  1  0  0  0  0
 30 29  1  0  0  0  0
 32 34  1  0  0  0  0
 33 34  1  0  0  0  0
 34 31  1  0  0  0  0
M  END
>  <MODEL>
5

>  <REMARK>
 VINA RESULT:      -5.3      2.782      8.494
  Name = 
  6 active torsions:
  status: ('A' for Active; 'I' for Inactive)
    1  A    between atoms: C_8  and  C_18
    2  A    between atoms: C_14  and  C_16
    3  A    between atoms: C_18  and  C_30
    4  A    between atoms: C_23  and  N_24
    5  A    between atoms: C_23  and  C_25
    6  A    between atoms: O_26  and  C_28
                            x       y       z     vdW  Elec       q    Type
                         _______ _______ _______ _____ _____    ______ ____

>  <TORSDO>
F 6

$$$$
=
 OpenBabel11062409403D

 34 38  0  0  1  0  0  0  0  0999 V2000
  160.9950  207.6970  151.4480 C   0  0  0  0  0  0  0  0  0  0  0  0
  162.3580  211.1070  150.2710 C   0  0  0  0  0  2  0  0  0  0  0  0
  161.8300  210.1130  152.4920 O   0  0  0  0  0  0  0  0  0  0  0  0
  161.2890  205.1970  151.0310 C   0  0  2  0  0  3  0  0  0  0  0  0
  160.4020  206.4440  150.8510 C   0  0  0  0  0  2  0  0  0  0  0  0
  161.3820  205.4110  153.5980 C   0  0  0  0  0  2  0  0  0  0  0  0
  160.3470  207.1150  155.1190 C   0  0  0  0  0  1  0  0  0  0  0  0
  162.1630  205.2130  152.2930 C   0  0  0  0  0  2  0  0  0  0  0  0
  161.7790  209.0060  153.3920 C   0  0  0  0  0  2  0  0  0  0  0  0
  161.0630  207.8240  152.7890 C   0  0  0  0  0  0  0  0  0  0  0  0
  160.5500  206.7030  153.6710 C   0  0  1  0  0  3  0  0  0  0  0  0
  162.0010  210.9730  148.7910 C   0  0  2  0  0  3  0  0  0  0  0  0
  162.3150  209.5670  148.3040 C   0  0  0  0  0  2  0  0  0  0  0  0
  161.8700  209.9500  151.1030 C   0  0  0  0  0  0  0  0  0  0  0  0
  161.4410  208.5770  149.0620 C   0  0  0  0  0  2  0  0  0  0  0  0
  161.5030  208.7700  150.5590 C   0  0  0  0  0  0  0  0  0  0  0  0
  162.1880  205.0060  149.8170 C   0  0  0  0  0  2  0  0  0  0  0  0
  160.3880  202.0380  148.3120 C   0  0  0  0  0  3  0  0  0  0  0  0
  161.5890  204.4080  147.4600 C   0  0  0  0  0  3  0  0  0  0  0  0
  160.4310  202.3340  146.9400 C   0  0  0  0  0  0  0  0  0  0  0  0
  161.0160  203.5440  146.5110 C   0  0  0  0  0  0  0  0  0  0  0  0
  161.5640  204.0890  148.8200 C   0  0  0  0  0  0  0  0  0  0  0  0
  160.9580  202.9050  149.2450 C   0  0  0  0  0  3  0  0  0  0  0  0
  160.4500  201.3780  144.7760 N   0  0  0  0  0  0  0  0  0  0  0  0
  160.5510  200.3190  145.7010 C   0  0  0  0  0  0  0  0  0  0  0  0
  159.7640  201.4040  145.9580 C   0  0  1  0  0  3  0  0  0  0  0  0
  162.0070  198.3620  145.2070 C   0  0  0  0  0  1  0  0  0  0  0  0
  161.0870  199.0580  146.0850 N   0  0  0  0  0  2  0  0  0  0  0  0
  161.0180  203.8720  145.1500 O   0  0  0  0  0  0  0  0  0  0  0  0
  161.1980  205.2010  144.6780 C   0  0  0  0  0  1  0  0  0  0  0  0
  162.7230  212.0260  147.9540 C   0  0  0  0  0  2  0  0  0  0  0  0
  161.6810  214.0980  148.2140 C   0  0  0  0  0  1  0  0  0  0  0  0
  162.4030  213.4190  146.1090 C   0  0  0  0  0  1  0  0  0  0  0  0
  161.7830  212.9480  147.3340 N   0  0  0  0  0  0  0  0  0  0  0  0
  1 10  2  0  0  0  0
  2 14  1  0  0  0  0
  3  9  1  0  0  0  0
  4 17  1  6  0  0  0
  4  8  1  0  0  0  0
  5  4  1  0  0  0  0
  5  1  1  0  0  0  0
  6 11  1  0  0  0  0
  8  6  1  0  0  0  0
 10  9  1  0  0  0  0
 10 11  1  0  0  0  0
 11  7  1  1  0  0  0
 12 31  1  6  0  0  0
 12  2  1  0  0  0  0
 13 12  1  0  0  0  0
 13 15  1  0  0  0  0
 14  3  1  0  0  0  0
 15 16  1  0  0  0  0
 16 14  2  0  0  0  0
 16  1  1  0  0  0  0
 18 23  1  0  0  0  0
 19 22  1  0  0  0  0
 20 18  2  0  0  0  0
 21 20  1  0  0  0  0
 21 19  2  0  0  0  0
 22 23  2  0  0  0  0
 22 17  1  0  0  0  0
 24 25  2  0  0  0  0
 24 26  1  0  0  0  0
 25 26  1  0  0  0  0
 25 28  1  0  0  0  0
 26 20  1  1  0  0  0
 27 28  1  0  0  0  0
 29 21  1  0  0  0  0
 30 29  1  0  0  0  0
 33 34  1  0  0  0  0
 34 31  1  0  0  0  0
 34 32  1  0  0  0  0
M  END
>  <MODEL>
6

>  <REMARK>
 VINA RESULT:      -5.3      4.123      8.870
  Name = 
  6 active torsions:
  status: ('A' for Active; 'I' for Inactive)
    1  A    between atoms: C_8  and  C_18
    2  A    between atoms: C_14  and  C_16
    3  A    between atoms: C_18  and  C_30
    4  A    between atoms: C_23  and  N_24
    5  A    between atoms: C_23  and  C_25
    6  A    between atoms: O_26  and  C_28
                            x       y       z     vdW  Elec       q    Type
                         _______ _______ _______ _____ _____    ______ ____

>  <TORSDO>
F 6

$$$$
=
 OpenBabel11062409403D

 34 38  0  0  1  0  0  0  0  0999 V2000
  160.8120  208.3680  152.5270 C   0  0  0  0  0  0  0  0  0  0  0  0
  161.9310  211.3620  150.3690 C   0  0  0  0  0  2  0  0  0  0  0  0
  161.2080  211.0930  152.7370 O   0  0  0  0  0  0  0  0  0  0  0  0
  161.4440  205.9500  153.0390 C   0  0  2  0  0  3  0  0  0  0  0  0
  160.4560  206.9120  152.3520 C   0  0  0  0  0  2  0  0  0  0  0  0
  161.1440  207.0160  155.3660 C   0  0  0  0  0  2  0  0  0  0  0  0
  159.7160  208.9450  156.0920 C   0  0  0  0  0  1  0  0  0  0  0  0
  162.1210  206.5210  154.2920 C   0  0  0  0  0  2  0  0  0  0  0  0
  161.1550  210.3540  153.9580 C   0  0  0  0  0  2  0  0  0  0  0  0
  160.6720  208.9420  153.7390 C   0  0  0  0  0  0  0  0  0  0  0  0
  160.1690  208.1120  154.9040 C   0  0  1  0  0  3  0  0  0  0  0  0
  161.8070  210.6900  149.0030 C   0  0  2  0  0  3  0  0  0  0  0  0
  162.3450  209.2690  149.0690 C   0  0  0  0  0  2  0  0  0  0  0  0
  161.4640  210.4860  151.5030 C   0  0  0  0  0  0  0  0  0  0  0  0
  161.4910  208.4640  150.0380 C   0  0  0  0  0  2  0  0  0  0  0  0
  161.3160  209.1500  151.3720 C   0  0  0  0  0  0  0  0  0  0  0  0
  162.5230  205.5090  152.0590 C   0  0  0  0  0  2  0  0  0  0  0  0
  160.9190  202.8670  149.8780 C   0  0  0  0  0  3  0  0  0  0  0  0
  161.8550  205.4840  149.6460 C   0  0  0  0  0  3  0  0  0  0  0  0
  160.8620  203.5110  148.6310 C   0  0  0  0  0  0  0  0  0  0  0  0
  161.3130  204.8430  148.5190 C   0  0  0  0  0  0  0  0  0  0  0  0
  161.9320  204.8240  150.8740 C   0  0  0  0  0  0  0  0  0  0  0  0
  161.4580  203.5160  150.9890 C   0  0  0  0  0  3  0  0  0  0  0  0
  161.1110  202.7170  146.4160 N   0  0  0  0  0  0  0  0  0  0  0  0
  160.8310  201.6010  147.2310 C   0  0  0  0  0  0  0  0  0  0  0  0
  160.2300  202.8050  147.4580 C   0  0  1  0  0  3  0  0  0  0  0  0
  161.9560  199.4230  146.7980 C   0  0  0  0  0  1  0  0  0  0  0  0
  161.0350  200.2340  147.5700 N   0  0  0  0  0  2  0  0  0  0  0  0
  161.2120  205.5110  147.2930 O   0  0  0  0  0  0  0  0  0  0  0  0
  162.3240  206.1300  146.6590 C   0  0  0  0  0  1  0  0  0  0  0  0
  162.5160  211.5040  147.9230 C   0  0  0  0  0  2  0  0  0  0  0  0
  162.4750  213.3440  146.4880 C   0  0  0  0  0  1  0  0  0  0  0  0
  160.4980  212.2290  147.0030 C   0  0  0  0  0  1  0  0  0  0  0  0
  161.7540  212.6910  147.5660 N   0  0  0  0  0  0  0  0  0  0  0  0
  1 10  2  0  0  0  0
  2 14  1  0  0  0  0
  3  9  1  0  0  0  0
  4 17  1  6  0  0  0
  4  8  1  0  0  0  0
  5  1  1  0  0  0  0
  5  4  1  0  0  0  0
  8  6  1  0  0  0  0
 10  9  1  0  0  0  0
 10 11  1  0  0  0  0
 11  6  1  0  0  0  0
 11  7  1  1  0  0  0
 12 31  1  6  0  0  0
 12 13  1  0  0  0  0
 12  2  1  0  0  0  0
 13 15  1  0  0  0  0
 14  3  1  0  0  0  0
 15 16  1  0  0  0  0
 16 14  2  0  0  0  0
 16  1  1  0  0  0  0
 18 23  1  0  0  0  0
 19 22  1  0  0  0  0
 20 18  2  0  0  0  0
 21 20  1  0  0  0  0
 21 19  2  0  0  0  0
 22 23  2  0  0  0  0
 22 17  1  0  0  0  0
 24 25  2  0  0  0  0
 24 26  1  0  0  0  0
 25 26  1  0  0  0  0
 25 28  1  0  0  0  0
 26 20  1  1  0  0  0
 27 28  1  0  0  0  0
 29 21  1  0  0  0  0
 30 29  1  0  0  0  0
 32 34  1  0  0  0  0
 33 34  1  0  0  0  0
 34 31  1  0  0  0  0
M  END
>  <MODEL>
7

>  <REMARK>
 VINA RESULT:      -5.0      3.437      8.478
  Name = 
  6 active torsions:
  status: ('A' for Active; 'I' for Inactive)
    1  A    between atoms: C_8  and  C_18
    2  A    between atoms: C_14  and  C_16
    3  A    between atoms: C_18  and  C_30
    4  A    between atoms: C_23  and  N_24
    5  A    between atoms: C_23  and  C_25
    6  A    between atoms: O_26  and  C_28
                            x       y       z     vdW  Elec       q    Type
                         _______ _______ _______ _____ _____    ______ ____

>  <TORSDO>
F 6

$$$$
=
 OpenBabel11062409403D

 34 38  0  0  1  0  0  0  0  0999 V2000
  161.8100  208.6360  152.5220 C   0  0  0  0  0  0  0  0  0  0  0  0
  160.8120  204.9130  152.6360 C   0  0  0  0  0  2  0  0  0  0  0  0
  160.4960  206.8500  154.1680 O   0  0  0  0  0  0  0  0  0  0  0  0
  161.8480  210.6290  150.9280 C   0  0  2  0  0  3  0  0  0  0  0  0
  162.6600  209.5590  151.6830 C   0  0  0  0  0  2  0  0  0  0  0  0
  160.7550  211.5680  153.0660 C   0  0  0  0  0  2  0  0  0  0  0  0
  161.0190  210.8690  155.4590 C   0  0  0  0  0  1  0  0  0  0  0  0
  160.5540  211.0610  151.6320 C   0  0  0  0  0  2  0  0  0  0  0  0
  160.2590  208.2390  154.4050 C   0  0  0  0  0  2  0  0  0  0  0  0
  161.2210  209.1110  153.6380 C   0  0  0  0  0  0  0  0  0  0  0  0
  161.4170  210.5640  154.0250 C   0  0  1  0  0  3  0  0  0  0  0  0
  161.7210  204.4210  151.5100 C   0  0  2  0  0  3  0  0  0  0  0  0
  161.7030  205.4090  150.3550 C   0  0  0  0  0  2  0  0  0  0  0  0
  161.0060  206.3720  152.9560 C   0  0  0  0  0  0  0  0  0  0  0  0
  162.2710  206.7380  150.8350 C   0  0  0  0  0  2  0  0  0  0  0  0
  161.6240  207.2240  152.1090 C   0  0  0  0  0  0  0  0  0  0  0  0
  161.5010  210.1410  149.5270 C   0  0  0  0  0  2  0  0  0  0  0  0
  162.9410  212.8300  147.2890 C   0  0  0  0  0  3  0  0  0  0  0  0
  160.4490  211.7440  147.9160 C   0  0  0  0  0  3  0  0  0  0  0  0
  161.7880  213.3590  146.6870 C   0  0  0  0  0  0  0  0  0  0  0  0
  160.5300  212.7930  146.9860 C   0  0  0  0  0  0  0  0  0  0  0  0
  161.6010  211.2450  148.5300 C   0  0  0  0  0  0  0  0  0  0  0  0
  162.8470  211.7860  148.2100 C   0  0  0  0  0  3  0  0  0  0  0  0
  163.1730  214.4460  145.1080 N   0  0  0  0  0  0  0  0  0  0  0  0
  162.0640  213.9310  144.4060 C   0  0  0  0  0  0  0  0  0  0  0  0
  161.9220  214.4530  145.6580 C   0  0  1  0  0  3  0  0  0  0  0  0
  162.3610  212.9720  142.1280 C   0  0  0  0  0  1  0  0  0  0  0  0
  161.5080  213.3130  143.2500 N   0  0  0  0  0  2  0  0  0  0  0  0
  159.3800  213.2790  146.3520 O   0  0  0  0  0  0  0  0  0  0  0  0
  158.6130  212.5000  145.4440 C   0  0  0  0  0  1  0  0  0  0  0  0
  161.3190  203.0210  151.0510 C   0  0  0  0  0  2  0  0  0  0  0  0
  161.3370  203.4960  148.7660 C   0  0  0  0  0  1  0  0  0  0  0  0
  160.0840  201.7070  149.5700 C   0  0  0  0  0  1  0  0  0  0  0  0
  160.4820  203.0720  149.8610 N   0  0  0  0  0  0  0  0  0  0  0  0
  1 10  2  0  0  0  0
  2 14  1  0  0  0  0
  3  9  1  0  0  0  0
  4 17  1  6  0  0  0
  4  8  1  0  0  0  0
  4  5  1  0  0  0  0
  5  1  1  0  0  0  0
  6 11  1  0  0  0  0
  8  6  1  0  0  0  0
 10 11  1  0  0  0  0
 10  9  1  0  0  0  0
 11  7  1  1  0  0  0
 12 31  1  6  0  0  0
 12  2  1  0  0  0  0
 13 15  1  0  0  0  0
 13 12  1  0  0  0  0
 14  3  1  0  0  0  0
 15 16  1  0  0  0  0
 16  1  1  0  0  0  0
 16 14  2  0  0  0  0
 18 23  1  0  0  0  0
 19 22  1  0  0  0  0
 20 21  1  0  0  0  0
 20 18  2  0  0  0  0
 21 19  2  0  0  0  0
 22 17  1  0  0  0  0
 23 22  2  0  0  0  0
 24 26  1  0  0  0  0
 25 24  2  0  0  0  0
 25 26  1  0  0  0  0
 26 20  1  1  0  0  0
 27 28  1  0  0  0  0
 28 25  1  0  0  0  0
 29 21  1  0  0  0  0
 30 29  1  0  0  0  0
 32 34  1  0  0  0  0
 33 34  1  0  0  0  0
 34 31  1  0  0  0  0
M  END
>  <MODEL>
8

>  <REMARK>
 VINA RESULT:      -5.0      2.957      5.666
  Name = 
  6 active torsions:
  status: ('A' for Active; 'I' for Inactive)
    1  A    between atoms: C_8  and  C_18
    2  A    between atoms: C_14  and  C_16
    3  A    between atoms: C_18  and  C_30
    4  A    between atoms: C_23  and  N_24
    5  A    between atoms: C_23  and  C_25
    6  A    between atoms: O_26  and  C_28
                            x       y       z     vdW  Elec       q    Type
                         _______ _______ _______ _____ _____    ______ ____

>  <TORSDO>
F 6

$$$$
=
 OpenBabel11062409403D

 34 38  0  0  1  0  0  0  0  0999 V2000
  161.6670  207.8900  152.4460 C   0  0  0  0  0  0  0  0  0  0  0  0
  161.0490  205.7480  149.2990 C   0  0  0  0  0  2  0  0  0  0  0  0
  160.8460  205.3480  151.7480 O   0  0  0  0  0  0  0  0  0  0  0  0
  161.2300  210.2300  153.3660 C   0  0  2  0  0  3  0  0  0  0  0  0
  162.2610  209.2290  152.8090 C   0  0  0  0  0  2  0  0  0  0  0  0
  160.4690  208.6650  155.2680 C   0  0  0  0  0  2  0  0  0  0  0  0
  161.2310  206.3520  155.8640 C   0  0  0  0  0  1  0  0  0  0  0  0
  160.0540  209.5840  154.1120 C   0  0  0  0  0  2  0  0  0  0  0  0
  160.5320  205.7860  153.0710 C   0  0  0  0  0  2  0  0  0  0  0  0
  161.2530  207.0620  153.4260 C   0  0  0  0  0  0  0  0  0  0  0  0
  161.3850  207.4940  154.8730 C   0  0  1  0  0  3  0  0  0  0  0  0
  161.7770  206.6410  148.2950 C   0  0  2  0  0  3  0  0  0  0  0  0
  161.4570  208.1020  148.5690 C   0  0  0  0  0  2  0  0  0  0  0  0
  161.1660  206.2390  150.7190 C   0  0  0  0  0  0  0  0  0  0  0  0
  161.9810  208.4710  149.9500 C   0  0  0  0  0  2  0  0  0  0  0  0
  161.5370  207.5020  151.0210 C   0  0  0  0  0  0  0  0  0  0  0  0
  160.6780  211.1010  152.2450 C   0  0  0  0  0  2  0  0  0  0  0  0
  157.3050  212.7980  152.4790 C   0  0  0  0  0  3  0  0  0  0  0  0
  159.7230  212.7510  153.8690 C   0  0  0  0  0  3  0  0  0  0  0  0
  157.4670  213.6180  153.6080 C   0  0  0  0  0  0  0  0  0  0  0  0
  158.6810  213.5760  154.3250 C   0  0  0  0  0  0  0  0  0  0  0  0
  159.5600  211.9610  152.7290 C   0  0  0  0  0  0  0  0  0  0  0  0
  158.3470  211.9820  152.0380 C   0  0  0  0  0  3  0  0  0  0  0  0
  155.1320  213.7720  153.9530 N   0  0  0  0  0  0  0  0  0  0  0  0
  155.7500  213.9100  155.2130 C   0  0  0  0  0  0  0  0  0  0  0  0
  156.3090  214.4530  154.0920 C   0  0  1  0  0  3  0  0  0  0  0  0
  154.7100  212.8930  157.2320 C   0  0  0  0  0  1  0  0  0  0  0  0
  155.7750  213.6580  156.6130 N   0  0  0  0  0  2  0  0  0  0  0  0
  158.8340  214.3500  155.4810 O   0  0  0  0  0  0  0  0  0  0  0  0
  159.3640  213.8310  156.6930 C   0  0  0  0  0  1  0  0  0  0  0  0
  161.4260  206.2540  146.8600 C   0  0  0  0  0  2  0  0  0  0  0  0
  160.8420  204.4130  145.5510 C   0  0  0  0  0  1  0  0  0  0  0  0
  163.0810  204.8440  146.0130 C   0  0  0  0  0  1  0  0  0  0  0  0
  161.7500  204.8610  146.5910 N   0  0  0  0  0  0  0  0  0  0  0  0
  1  5  1  0  0  0  0
  1 10  2  0  0  0  0
  2 14  1  0  0  0  0
  3  9  1  0  0  0  0
  4 17  1  6  0  0  0
  4  8  1  0  0  0  0
  5  4  1  0  0  0  0
  8  6  1  0  0  0  0
  9 10  1  0  0  0  0
 10 11  1  0  0  0  0
 11  6  1  0  0  0  0
 11  7  1  1  0  0  0
 12 31  1  6  0  0  0
 12 13  1  0  0  0  0
 12  2  1  0  0  0  0
 13 15  1  0  0  0  0
 14 16  2  0  0  0  0
 14  3  1  0  0  0  0
 15 16  1  0  0  0  0
 16  1  1  0  0  0  0
 17 22  1  0  0  0  0
 18 20  1  0  0  0  0
 19 21  1  0  0  0  0
 20 21  2  0  0  0  0
 21 29  1  0  0  0  0
 22 19  2  0  0  0  0
 23 18  2  0  0  0  0
 23 22  1  0  0  0  0
 24 26  1  0  0  0  0
 24 25  2  0  0  0  0
 25 28  1  0  0  0  0
 26 20  1  6  0  0  0
 26 25  1  0  0  0  0
 28 27  1  0  0  0  0
 29 30  1  0  0  0  0
 32 34  1  0  0  0  0
 33 34  1  0  0  0  0
 34 31  1  0  0  0  0
M  END
>  <MODEL>
9

>  <REMARK>
 VINA RESULT:      -4.8      3.260      6.473
  Name = 
  6 active torsions:
  status: ('A' for Active; 'I' for Inactive)
    1  A    between atoms: C_8  and  C_18
    2  A    between atoms: C_14  and  C_16
    3  A    between atoms: C_18  and  C_30
    4  A    between atoms: C_23  and  N_24
    5  A    between atoms: C_23  and  C_25
    6  A    between atoms: O_26  and  C_28
                            x       y       z     vdW  Elec       q    Type
                         _______ _______ _______ _____ _____    ______ ____

>  <TORSDO>
F 6

$$$$
