=
 OpenBabel11052422583D

 28 31  0  0  1  0  0  0  0  0999 V2000
  161.2520  208.0290  152.4740 C   0  0  0  0  0  0  0  0  0  0  0  0
  161.0300  206.5170  147.4780 C   0  0  0  0  0  3  0  0  0  0  0  0
  160.9340  203.2220  152.6350 O   0  0  0  0  0  0  0  0  0  0  0  0
  161.1820  204.0950  147.6210 C   0  0  0  0  0  0  0  0  0  0  0  0
  160.9170  205.4450  149.7600 C   0  0  2  0  0  3  0  0  0  0  0  0
  161.2260  205.1960  145.4610 C   0  0  0  0  0  0  0  0  0  0  0  0
  161.0990  205.3550  148.2620 C   0  0  0  0  0  0  0  0  0  0  0  0
  160.7380  202.9610  149.8260 C   0  0  0  0  0  2  0  0  0  0  0  0
  161.2660  204.0300  146.2260 C   0  0  0  0  0  3  0  0  0  0  0  0
  161.0790  205.5970  152.6070 C   0  0  0  0  0  0  0  0  0  0  0  0
  161.6140  206.6590  150.3730 C   0  0  0  0  0  2  0  0  0  0  0  0
  161.2720  202.8140  148.4040 C   0  0  0  0  0  2  0  0  0  0  0  0
  160.8180  206.9510  154.6040 C   0  0  0  0  0  3  0  0  0  0  0  0
  161.0940  204.2700  151.9520 C   0  0  0  0  0  0  0  0  0  0  0  0
  160.8400  205.7010  153.9840 C   0  0  0  0  0  3  0  0  0  0  0  0
  161.3060  205.1200  144.0420 N   0  0  0  0  0  1  0  0  0  0  0  0
  161.1020  206.4390  146.0850 C   0  0  0  0  0  3  0  0  0  0  0  0
  161.3890  204.1750  150.4780 C   0  0  2  0  0  3  0  0  0  0  0  0
  161.0280  208.1070  153.8540 C   0  0  0  0  0  3  0  0  0  0  0  0
  161.2890  206.7680  151.8420 C   0  0  0  0  0  0  0  0  0  0  0  0
  161.4880  209.2740  151.7280 C   0  0  0  0  0  0  0  0  0  0  0  0
  160.9100  210.5250  152.1290 N   0  0  0  0  0  2  0  0  0  0  0  0
  162.2260  209.2410  150.7090 O   0  0  0  0  0  0  0  0  0  0  0  0
  160.7910  211.3810  154.4400 C   0  0  0  0  0  1  0  0  0  0  0  0
  160.0350  210.7570  153.2770 C   0  0  1  0  0  3  0  0  0  0  0  0
  158.7960  211.5110  152.8930 C   0  0  0  0  0  0  0  0  0  0  0  0
  158.7980  212.2830  151.7390 O   0  0  0  0  0  0  0  0  0  0  0  0
  157.7580  211.4640  153.6060 O   0  0  0  0  0  1  0  0  0  0  0  0
  1 19  1  0  0  0  0
  2  7  1  0  0  0  0
  4  7  2  0  0  0  0
  4 12  1  0  0  0  0
  5 11  1  1  0  0  0
  5 18  1  0  0  0  0
  6 17  1  0  0  0  0
  6  9  2  0  0  0  0
  7  5  1  0  0  0  0
  9  4  1  0  0  0  0
 10 15  2  0  0  0  0
 11 20  1  0  0  0  0
 12  8  1  0  0  0  0
 14 10  1  0  0  0  0
 14  3  2  0  0  0  0
 15 13  1  0  0  0  0
 16  6  1  0  0  0  0
 17  2  2  0  0  0  0
 18  8  1  6  0  0  0
 18 14  1  0  0  0  0
 19 13  2  0  0  0  0
 20  1  2  0  0  0  0
 20 10  1  0  0  0  0
 21 22  1  0  0  0  0
 21  1  1  0  0  0  0
 22 25  1  0  0  0  0
 23 21  2  0  0  0  0
 25 24  1  1  0  0  0
 26 25  1  0  0  0  0
 26 28  1  0  0  0  0
 27 26  2  0  0  0  0
M  END
>  <MODEL>
1

>  <REMARK>
 VINA RESULT:     -11.0      0.000      0.000
  Name = 
  3 active torsions:
  status: ('A' for Active; 'I' for Inactive)
    1  A    between atoms: C_1  and  C_2
    2  A    between atoms: N_3  and  CA_11
    3  A    between atoms: C_6  and  CA_11
                            x       y       z     vdW  Elec       q    Type
                         _______ _______ _______ _____ _____    ______ ____

>  <TORSDO>
F 3

$$$$
=
 OpenBabel11052422583D

 28 31  0  0  1  0  0  0  0  0999 V2000
  161.7830  209.1330  150.1780 C   0  0  0  0  0  0  0  0  0  0  0  0
  161.1660  204.2320  148.4750 C   0  0  0  0  0  3  0  0  0  0  0  0
  160.9150  206.5320  154.1420 O   0  0  0  0  0  0  0  0  0  0  0  0
  161.0410  202.9400  150.5290 C   0  0  0  0  0  0  0  0  0  0  0  0
  161.0300  205.4790  150.6650 C   0  0  2  0  0  3  0  0  0  0  0  0
  161.1180  201.8160  148.3820 C   0  0  0  0  0  0  0  0  0  0  0  0
  161.1340  204.1930  149.8780 C   0  0  0  0  0  0  0  0  0  0  0  0
  160.5660  204.1230  152.7030 C   0  0  0  0  0  2  0  0  0  0  0  0
  161.0550  201.7620  149.7760 C   0  0  0  0  0  3  0  0  0  0  0  0
  161.3340  207.8600  152.2130 C   0  0  0  0  0  0  0  0  0  0  0  0
  161.8900  206.6030  150.0880 C   0  0  0  0  0  2  0  0  0  0  0  0
  161.0160  202.8290  152.0300 C   0  0  0  0  0  2  0  0  0  0  0  0
  161.3210  210.2870  152.2630 C   0  0  0  0  0  3  0  0  0  0  0  0
  161.1650  206.5630  152.9060 C   0  0  0  0  0  0  0  0  0  0  0  0
  161.1690  209.0620  152.9150 C   0  0  0  0  0  3  0  0  0  0  0  0
  161.1260  200.6120  147.6230 N   0  0  0  0  0  1  0  0  0  0  0  0
  161.1670  203.0500  147.7310 C   0  0  0  0  0  3  0  0  0  0  0  0
  161.3820  205.2830  152.1450 C   0  0  2  0  0  3  0  0  0  0  0  0
  161.6310  210.3210  150.9040 C   0  0  0  0  0  3  0  0  0  0  0  0
  161.6450  207.8920  150.8330 C   0  0  0  0  0  0  0  0  0  0  0  0
  162.1290  209.2200  148.7520 C   0  0  0  0  0  0  0  0  0  0  0  0
  162.2430  210.4770  148.0690 N   0  0  0  0  0  2  0  0  0  0  0  0
  162.3370  208.1560  148.1110 O   0  0  0  0  0  0  0  0  0  0  0  0
  163.2310  212.7170  148.3780 C   0  0  0  0  0  1  0  0  0  0  0  0
  162.0410  211.8070  148.6430 C   0  0  1  0  0  3  0  0  0  0  0  0
  160.7270  212.4010  148.2300 C   0  0  0  0  0  0  0  0  0  0  0  0
  160.0600  213.2510  149.1020 O   0  0  0  0  0  1  0  0  0  0  0  0
  160.2150  212.1330  147.1110 O   0  0  0  0  0  0  0  0  0  0  0  0
  1 20  2  0  0  0  0
  1 19  1  0  0  0  0
  2  7  1  0  0  0  0
  4 12  1  0  0  0  0
  5 11  1  6  0  0  0
  5 18  1  0  0  0  0
  6  9  2  0  0  0  0
  7  4  2  0  0  0  0
  7  5  1  0  0  0  0
  9  4  1  0  0  0  0
 10 14  1  0  0  0  0
 10 15  2  0  0  0  0
 11 20  1  0  0  0  0
 12  8  1  0  0  0  0
 13 15  1  0  0  0  0
 14  3  2  0  0  0  0
 16  6  1  0  0  0  0
 17  6  1  0  0  0  0
 17  2  2  0  0  0  0
 18  8  1  1  0  0  0
 18 14  1  0  0  0  0
 19 13  2  0  0  0  0
 20 10  1  0  0  0  0
 21  1  1  0  0  0  0
 22 25  1  0  0  0  0
 22 21  1  0  0  0  0
 23 21  2  0  0  0  0
 25 24  1  6  0  0  0
 26 25  1  0  0  0  0
 26 27  1  0  0  0  0
 28 26  2  0  0  0  0
M  END
>  <MODEL>
2

>  <REMARK>
 VINA RESULT:      -9.8      2.664      3.786
  Name = 
  3 active torsions:
  status: ('A' for Active; 'I' for Inactive)
    1  A    between atoms: C_1  and  C_2
    2  A    between atoms: N_3  and  CA_11
    3  A    between atoms: C_6  and  CA_11
                            x       y       z     vdW  Elec       q    Type
                         _______ _______ _______ _____ _____    ______ ____

>  <TORSDO>
F 3

$$$$
=
 OpenBabel11052422583D

 28 31  0  0  1  0  0  0  0  0999 V2000
  161.2430  208.4880  152.9630 C   0  0  0  0  0  0  0  0  0  0  0  0
  161.2010  203.7260  150.8140 C   0  0  0  0  0  3  0  0  0  0  0  0
  162.0220  209.2300  148.2650 O   0  0  0  0  0  0  0  0  0  0  0  0
  161.2890  204.1900  148.4300 C   0  0  0  0  0  0  0  0  0  0  0  0
  161.5980  206.1060  150.0730 C   0  0  2  0  0  3  0  0  0  0  0  0
  160.9670  201.9200  149.2210 C   0  0  0  0  0  0  0  0  0  0  0  0
  161.3050  204.6550  149.7660 C   0  0  0  0  0  0  0  0  0  0  0  0
  162.0140  206.4710  147.6440 C   0  0  0  0  0  2  0  0  0  0  0  0
  161.0990  202.8290  148.1690 C   0  0  0  0  0  3  0  0  0  0  0  0
  161.6540  208.9130  150.5950 C   0  0  0  0  0  0  0  0  0  0  0  0
  160.8420  206.6210  151.2980 C   0  0  0  0  0  2  0  0  0  0  0  0
  161.3830  205.1350  147.2620 C   0  0  0  0  0  2  0  0  0  0  0  0
  161.9470  210.6890  152.2230 C   0  0  0  0  0  3  0  0  0  0  0  0
  161.7100  208.4360  149.1940 C   0  0  0  0  0  0  0  0  0  0  0  0
  161.9930  210.2380  150.9030 C   0  0  0  0  0  3  0  0  0  0  0  0
  160.7800  200.5370  148.9470 N   0  0  0  0  0  1  0  0  0  0  0  0
  161.0240  202.3670  150.5430 C   0  0  0  0  0  3  0  0  0  0  0  0
  161.3070  207.0210  148.8770 C   0  0  2  0  0  3  0  0  0  0  0  0
  161.5690  209.8200  153.2460 C   0  0  0  0  0  3  0  0  0  0  0  0
  161.2740  208.0280  151.6310 C   0  0  0  0  0  0  0  0  0  0  0  0
  160.8320  207.6150  154.0730 C   0  0  0  0  0  0  0  0  0  0  0  0
  160.4430  208.1370  155.3520 N   0  0  0  0  0  2  0  0  0  0  0  0
  160.8160  206.3690  153.8920 O   0  0  0  0  0  0  0  0  0  0  0  0
  158.9870  209.9750  156.1200 C   0  0  0  0  0  1  0  0  0  0  0  0
  160.3980  209.5440  155.7460 C   0  0  1  0  0  3  0  0  0  0  0  0
  161.4210  209.8650  156.7930 C   0  0  0  0  0  0  0  0  0  0  0  0
  161.5450  211.1720  157.2470 O   0  0  0  0  0  0  0  0  0  0  0  0
  162.1770  208.9720  157.2600 O   0  0  0  0  0  1  0  0  0  0  0  0
  1 19  1  0  0  0  0
  1 21  1  0  0  0  0
  3 14  2  0  0  0  0
  4  7  1  0  0  0  0
  5 11  1  1  0  0  0
  6 17  2  0  0  0  0
  7  5  1  0  0  0  0
  7  2  2  0  0  0  0
  9  4  2  0  0  0  0
  9  6  1  0  0  0  0
 10 15  2  0  0  0  0
 10 20  1  0  0  0  0
 11 20  1  0  0  0  0
 12  8  1  0  0  0  0
 12  4  1  0  0  0  0
 13 19  2  0  0  0  0
 14 10  1  0  0  0  0
 15 13  1  0  0  0  0
 16  6  1  0  0  0  0
 17  2  1  0  0  0  0
 18  8  1  6  0  0  0
 18 14  1  0  0  0  0
 18  5  1  0  0  0  0
 20  1  2  0  0  0  0
 21 22  1  0  0  0  0
 22 25  1  0  0  0  0
 23 21  2  0  0  0  0
 25 24  1  1  0  0  0
 25 26  1  0  0  0  0
 26 27  2  0  0  0  0
 26 28  1  0  0  0  0
M  END
>  <MODEL>
3

>  <REMARK>
 VINA RESULT:      -9.4      2.615      4.193
  Name = 
  3 active torsions:
  status: ('A' for Active; 'I' for Inactive)
    1  A    between atoms: C_1  and  C_2
    2  A    between atoms: N_3  and  CA_11
    3  A    between atoms: C_6  and  CA_11
                            x       y       z     vdW  Elec       q    Type
                         _______ _______ _______ _____ _____    ______ ____

>  <TORSDO>
F 3

$$$$
=
 OpenBabel11052422583D

 28 31  0  0  1  0  0  0  0  0999 V2000
  161.5820  210.3520  150.4740 C   0  0  0  0  0  0  0  0  0  0  0  0
  161.2770  206.1190  147.4260 C   0  0  0  0  0  3  0  0  0  0  0  0
  160.8200  206.6820  153.5050 O   0  0  0  0  0  0  0  0  0  0  0  0
  161.2030  204.2870  149.0220 C   0  0  0  0  0  0  0  0  0  0  0  0
  161.0400  206.6770  149.8760 C   0  0  2  0  0  3  0  0  0  0  0  0
  161.3720  203.8310  146.6470 C   0  0  0  0  0  0  0  0  0  0  0  0
  161.2300  205.6780  148.7580 C   0  0  0  0  0  0  0  0  0  0  0  0
  160.6310  204.7720  151.4280 C   0  0  0  0  0  2  0  0  0  0  0  0
  161.2960  203.3770  147.9640 C   0  0  0  0  0  3  0  0  0  0  0  0
  161.1840  208.5280  152.0470 C   0  0  0  0  0  0  0  0  0  0  0  0
  161.8400  207.9640  149.6690 C   0  0  0  0  0  2  0  0  0  0  0  0
  161.1650  203.7500  150.4270 C   0  0  0  0  0  2  0  0  0  0  0  0
  161.0270  210.8340  152.7870 C   0  0  0  0  0  3  0  0  0  0  0  0
  161.0830  207.0790  152.3370 C   0  0  0  0  0  0  0  0  0  0  0  0
  160.9400  209.4670  153.0580 C   0  0  0  0  0  3  0  0  0  0  0  0
  161.4610  202.8980  145.5760 N   0  0  0  0  0  1  0  0  0  0  0  0
  161.3570  205.2010  146.3760 C   0  0  0  0  0  3  0  0  0  0  0  0
  161.3840  206.0840  151.2480 C   0  0  2  0  0  3  0  0  0  0  0  0
  161.3510  211.2730  151.5040 C   0  0  0  0  0  3  0  0  0  0  0  0
  161.5090  208.9690  150.7430 C   0  0  0  0  0  0  0  0  0  0  0  0
  161.9400  210.8620  149.1420 C   0  0  0  0  0  0  0  0  0  0  0  0
  161.4890  212.1390  148.6680 N   0  0  0  0  0  2  0  0  0  0  0  0
  162.6710  210.1570  148.3980 O   0  0  0  0  0  0  0  0  0  0  0  0
  161.3130  214.4510  149.5130 C   0  0  0  0  0  1  0  0  0  0  0  0
  160.6420  213.0910  149.3840 C   0  0  1  0  0  3  0  0  0  0  0  0
  159.2600  213.1550  148.8070 C   0  0  0  0  0  0  0  0  0  0  0  0
  159.0800  212.9550  147.4450 O   0  0  0  0  0  0  0  0  0  0  0  0
  158.2610  213.3990  149.5350 O   0  0  0  0  0  1  0  0  0  0  0  0
  1 20  2  0  0  0  0
  1 19  1  0  0  0  0
  2  7  1  0  0  0  0
  4 12  1  0  0  0  0
  5 11  1  6  0  0  0
  5 18  1  0  0  0  0
  6  9  2  0  0  0  0
  7  4  2  0  0  0  0
  7  5  1  0  0  0  0
  9  4  1  0  0  0  0
 10 14  1  0  0  0  0
 10 15  2  0  0  0  0
 11 20  1  0  0  0  0
 12  8  1  0  0  0  0
 13 15  1  0  0  0  0
 14  3  2  0  0  0  0
 16  6  1  0  0  0  0
 17  6  1  0  0  0  0
 17  2  2  0  0  0  0
 18  8  1  1  0  0  0
 18 14  1  0  0  0  0
 19 13  2  0  0  0  0
 20 10  1  0  0  0  0
 21  1  1  0  0  0  0
 22 21  1  0  0  0  0
 22 25  1  0  0  0  0
 23 21  2  0  0  0  0
 25 24  1  6  0  0  0
 26 25  1  0  0  0  0
 26 28  1  0  0  0  0
 27 26  2  0  0  0  0
M  END
>  <MODEL>
4

>  <REMARK>
 VINA RESULT:      -8.8      2.398      3.142
  Name = 
  3 active torsions:
  status: ('A' for Active; 'I' for Inactive)
    1  A    between atoms: C_1  and  C_2
    2  A    between atoms: N_3  and  CA_11
    3  A    between atoms: C_6  and  CA_11
                            x       y       z     vdW  Elec       q    Type
                         _______ _______ _______ _____ _____    ______ ____

>  <TORSDO>
F 3

$$$$
=
 OpenBabel11052422583D

 28 31  0  0  1  0  0  0  0  0999 V2000
  161.2960  205.4040  148.5040 C   0  0  0  0  0  0  0  0  0  0  0  0
  161.3050  209.2800  152.0080 C   0  0  0  0  0  3  0  0  0  0  0  0
  160.8310  203.2260  152.7790 O   0  0  0  0  0  0  0  0  0  0  0  0
  160.7630  208.1510  154.0900 C   0  0  0  0  0  0  0  0  0  0  0  0
  161.2280  206.7580  152.0140 C   0  0  2  0  0  3  0  0  0  0  0  0
  160.9130  210.5700  154.0160 C   0  0  0  0  0  0  0  0  0  0  0  0
  161.0440  208.0900  152.7040 C   0  0  0  0  0  0  0  0  0  0  0  0
  161.0030  205.6470  154.2320 C   0  0  0  0  0  2  0  0  0  0  0  0
  160.6790  209.3920  154.7290 C   0  0  0  0  0  3  0  0  0  0  0  0
  161.0730  204.2550  150.6460 C   0  0  0  0  0  0  0  0  0  0  0  0
  160.7320  206.7620  150.5680 C   0  0  0  0  0  2  0  0  0  0  0  0
  160.4620  206.9130  154.8910 C   0  0  0  0  0  2  0  0  0  0  0  0
  161.5350  202.9930  148.6260 C   0  0  0  0  0  3  0  0  0  0  0  0
  160.8480  204.2950  152.1090 C   0  0  0  0  0  0  0  0  0  0  0  0
  161.3160  203.0340  150.0040 C   0  0  0  0  0  3  0  0  0  0  0  0
  160.8310  211.8280  154.6750 N   0  0  0  0  0  1  0  0  0  0  0  0
  161.2310  210.5150  152.6580 C   0  0  0  0  0  3  0  0  0  0  0  0
  160.5520  205.6120  152.7770 C   0  0  2  0  0  3  0  0  0  0  0  0
  161.5200  204.1710  147.8810 C   0  0  0  0  0  3  0  0  0  0  0  0
  161.0600  205.4530  149.8940 C   0  0  0  0  0  0  0  0  0  0  0  0
  161.2700  206.6170  147.6730 C   0  0  0  0  0  0  0  0  0  0  0  0
  160.9500  206.5780  146.2750 N   0  0  0  0  0  2  0  0  0  0  0  0
  161.5310  207.7260  148.2090 O   0  0  0  0  0  0  0  0  0  0  0  0
  159.2250  205.4900  144.8860 C   0  0  0  0  0  1  0  0  0  0  0  0
  160.6210  205.3930  145.4850 C   0  0  1  0  0  3  0  0  0  0  0  0
  161.6860  205.0780  144.4780 C   0  0  0  0  0  0  0  0  0  0  0  0
  162.8110  204.3680  144.8750 O   0  0  0  0  0  1  0  0  0  0  0  0
  161.5810  205.4550  143.2800 O   0  0  0  0  0  0  0  0  0  0  0  0
  1 20  1  0  0  0  0
  2 17  2  0  0  0  0
  2  7  1  0  0  0  0
  4  9  1  0  0  0  0
  4 12  1  0  0  0  0
  5 11  1  6  0  0  0
  5  7  1  0  0  0  0
  5 18  1  0  0  0  0
  6 16  1  0  0  0  0
  6  9  2  0  0  0  0
  7  4  2  0  0  0  0
  8 12  1  0  0  0  0
 10 14  1  0  0  0  0
 13 15  2  0  0  0  0
 14 18  1  0  0  0  0
 14  3  2  0  0  0  0
 15 10  1  0  0  0  0
 17  6  1  0  0  0  0
 18  8  1  1  0  0  0
 19  1  2  0  0  0  0
 19 13  1  0  0  0  0
 20 11  1  0  0  0  0
 20 10  2  0  0  0  0
 21 23  2  0  0  0  0
 21  1  1  0  0  0  0
 22 21  1  0  0  0  0
 25 24  1  6  0  0  0
 25 22  1  0  0  0  0
 26 27  1  0  0  0  0
 26 25  1  0  0  0  0
 28 26  2  0  0  0  0
M  END
>  <MODEL>
5

>  <REMARK>
 VINA RESULT:      -8.3      2.441      7.326
  Name = 
  3 active torsions:
  status: ('A' for Active; 'I' for Inactive)
    1  A    between atoms: C_1  and  C_2
    2  A    between atoms: N_3  and  CA_11
    3  A    between atoms: C_6  and  CA_11
                            x       y       z     vdW  Elec       q    Type
                         _______ _______ _______ _____ _____    ______ ____

>  <TORSDO>
F 3

$$$$
=
 OpenBabel11052422583D

 28 31  0  0  1  0  0  0  0  0999 V2000
  161.4610  203.0140  148.0930 C   0  0  0  0  0  0  0  0  0  0  0  0
  162.1920  208.1480  148.7310 C   0  0  0  0  0  3  0  0  0  0  0  0
  160.5170  203.8420  152.7470 O   0  0  0  0  0  0  0  0  0  0  0  0
  161.4100  208.5450  150.9980 C   0  0  0  0  0  0  0  0  0  0  0  0
  161.6170  206.1520  150.1630 C   0  0  2  0  0  3  0  0  0  0  0  0
  162.0370  210.4090  149.5780 C   0  0  0  0  0  0  0  0  0  0  0  0
  161.6910  207.6450  149.9420 C   0  0  0  0  0  0  0  0  0  0  0  0
  161.1460  206.5940  152.5700 C   0  0  0  0  0  2  0  0  0  0  0  0
  161.5660  209.9210  150.7990 C   0  0  0  0  0  3  0  0  0  0  0  0
  160.9860  203.3820  150.4590 C   0  0  0  0  0  0  0  0  0  0  0  0
  161.1500  205.3880  148.9240 C   0  0  0  0  0  2  0  0  0  0  0  0
  160.8590  208.0710  152.3150 C   0  0  0  0  0  2  0  0  0  0  0  0
  161.2150  201.1250  149.5960 C   0  0  0  0  0  3  0  0  0  0  0  0
  160.7550  204.3020  151.5960 C   0  0  0  0  0  0  0  0  0  0  0  0
  160.9900  201.9950  150.6640 C   0  0  0  0  0  3  0  0  0  0  0  0
  162.1980  211.8090  149.3860 N   0  0  0  0  0  1  0  0  0  0  0  0
  162.3560  209.5230  148.5470 C   0  0  0  0  0  3  0  0  0  0  0  0
  160.7170  205.7870  151.3510 C   0  0  2  0  0  3  0  0  0  0  0  0
  161.4440  201.6330  148.3170 C   0  0  0  0  0  3  0  0  0  0  0  0
  161.2210  203.9000  149.1640 C   0  0  0  0  0  0  0  0  0  0  0  0
  161.6860  203.5020  146.7230 C   0  0  0  0  0  0  0  0  0  0  0  0
  160.9360  203.0070  145.6040 N   0  0  0  0  0  2  0  0  0  0  0  0
  162.5620  204.3850  146.5300 O   0  0  0  0  0  0  0  0  0  0  0  0
  158.6530  202.4370  144.8620 C   0  0  0  0  0  1  0  0  0  0  0  0
  159.8860  201.9900  145.6340 C   0  0  1  0  0  3  0  0  0  0  0  0
  160.3990  200.6440  145.2190 C   0  0  0  0  0  0  0  0  0  0  0  0
  161.2680  199.9570  146.0570 O   0  0  0  0  0  1  0  0  0  0  0  0
  160.0620  200.1290  144.1190 O   0  0  0  0  0  0  0  0  0  0  0  0
  1 19  2  0  0  0  0
  1 20  1  0  0  0  0
  2  7  1  0  0  0  0
  4 12  1  0  0  0  0
  5 11  1  6  0  0  0
  5 18  1  0  0  0  0
  6  9  2  0  0  0  0
  7  5  1  0  0  0  0
  7  4  2  0  0  0  0
  9  4  1  0  0  0  0
 10 15  1  0  0  0  0
 10 14  1  0  0  0  0
 11 20  1  0  0  0  0
 12  8  1  0  0  0  0
 13 15  2  0  0  0  0
 14  3  2  0  0  0  0
 16  6  1  0  0  0  0
 17  2  2  0  0  0  0
 17  6  1  0  0  0  0
 18 14  1  0  0  0  0
 18  8  1  1  0  0  0
 19 13  1  0  0  0  0
 20 10  2  0  0  0  0
 21  1  1  0  0  0  0
 22 25  1  0  0  0  0
 22 21  1  0  0  0  0
 23 21  2  0  0  0  0
 25 24  1  6  0  0  0
 26 25  1  0  0  0  0
 26 27  1  0  0  0  0
 28 26  2  0  0  0  0
M  END
>  <MODEL>
6

>  <REMARK>
 VINA RESULT:      -8.3      3.108      7.655
  Name = 
  3 active torsions:
  status: ('A' for Active; 'I' for Inactive)
    1  A    between atoms: C_1  and  C_2
    2  A    between atoms: N_3  and  CA_11
    3  A    between atoms: C_6  and  CA_11
                            x       y       z     vdW  Elec       q    Type
                         _______ _______ _______ _____ _____    ______ ____

>  <TORSDO>
F 3

$$$$
=
 OpenBabel11052422583D

 28 31  0  0  1  0  0  0  0  0999 V2000
  161.2130  204.3450  149.9550 C   0  0  0  0  0  0  0  0  0  0  0  0
  161.9560  209.4040  148.8810 C   0  0  0  0  0  3  0  0  0  0  0  0
  160.9160  206.5830  154.2130 O   0  0  0  0  0  0  0  0  0  0  0  0
  161.4910  210.4980  151.0010 C   0  0  0  0  0  0  0  0  0  0  0  0
  161.6130  207.9590  150.9210 C   0  0  2  0  0  3  0  0  0  0  0  0
  161.8890  211.8190  149.0070 C   0  0  0  0  0  0  0  0  0  0  0  0
  161.6350  209.3100  150.2450 C   0  0  0  0  0  0  0  0  0  0  0  0
  161.4760  209.1290  153.1170 C   0  0  0  0  0  2  0  0  0  0  0  0
  161.5990  211.7420  150.3710 C   0  0  0  0  0  3  0  0  0  0  0  0
  161.0680  205.4320  152.1360 C   0  0  0  0  0  0  0  0  0  0  0  0
  160.9890  206.8670  150.0530 C   0  0  0  0  0  2  0  0  0  0  0  0
  161.1350  210.4660  152.4630 C   0  0  0  0  0  2  0  0  0  0  0  0
  161.2050  203.0140  151.9830 C   0  0  0  0  0  3  0  0  0  0  0  0
  160.9840  206.6610  152.9560 C   0  0  0  0  0  0  0  0  0  0  0  0
  161.1200  204.1750  152.7530 C   0  0  0  0  0  3  0  0  0  0  0  0
  162.0020  213.0880  148.3750 N   0  0  0  0  0  1  0  0  0  0  0  0
  162.0730  210.6520  148.2630 C   0  0  0  0  0  3  0  0  0  0  0  0
  160.8920  208.0010  152.2750 C   0  0  2  0  0  3  0  0  0  0  0  0
  161.2470  203.0990  150.5920 C   0  0  0  0  0  3  0  0  0  0  0  0
  161.1130  205.5220  150.7250 C   0  0  0  0  0  0  0  0  0  0  0  0
  161.2390  204.3830  148.4850 C   0  0  0  0  0  0  0  0  0  0  0  0
  161.0570  203.2040  147.6870 N   0  0  0  0  0  2  0  0  0  0  0  0
  161.4210  205.4880  147.9090 O   0  0  0  0  0  0  0  0  0  0  0  0
  159.4670  201.6990  148.8240 C   0  0  0  0  0  1  0  0  0  0  0  0
  160.8350  201.8440  148.1740 C   0  0  1  0  0  3  0  0  0  0  0  0
  161.1060  200.8180  147.1130 C   0  0  0  0  0  0  0  0  0  0  0  0
  160.8030  201.1100  145.7900 O   0  0  0  0  0  0  0  0  0  0  0  0
  161.5950  199.6940  147.4040 O   0  0  0  0  0  1  0  0  0  0  0  0
  1 19  2  0  0  0  0
  1 20  1  0  0  0  0
  2  7  1  0  0  0  0
  4 12  1  0  0  0  0
  5 11  1  6  0  0  0
  5 18  1  0  0  0  0
  6  9  2  0  0  0  0
  7  5  1  0  0  0  0
  7  4  2  0  0  0  0
  9  4  1  0  0  0  0
 10 15  1  0  0  0  0
 10 14  1  0  0  0  0
 11 20  1  0  0  0  0
 12  8  1  0  0  0  0
 13 15  2  0  0  0  0
 14  3  2  0  0  0  0
 16  6  1  0  0  0  0
 17  2  2  0  0  0  0
 17  6  1  0  0  0  0
 18 14  1  0  0  0  0
 18  8  1  1  0  0  0
 19 13  1  0  0  0  0
 20 10  2  0  0  0  0
 21  1  1  0  0  0  0
 22 25  1  0  0  0  0
 22 21  1  0  0  0  0
 23 21  2  0  0  0  0
 25 24  1  6  0  0  0
 26 28  1  0  0  0  0
 26 25  1  0  0  0  0
 27 26  2  0  0  0  0
M  END
>  <MODEL>
7

>  <REMARK>
 VINA RESULT:      -8.2      2.927      7.204
  Name = 
  3 active torsions:
  status: ('A' for Active; 'I' for Inactive)
    1  A    between atoms: C_1  and  C_2
    2  A    between atoms: N_3  and  CA_11
    3  A    between atoms: C_6  and  CA_11
                            x       y       z     vdW  Elec       q    Type
                         _______ _______ _______ _____ _____    ______ ____

>  <TORSDO>
F 3

$$$$
=
 OpenBabel11052422583D

 28 31  0  0  1  0  0  0  0  0999 V2000
  161.1890  204.5610  149.4810 C   0  0  0  0  0  0  0  0  0  0  0  0
  160.4760  206.9700  154.0620 C   0  0  0  0  0  3  0  0  0  0  0  0
  162.2070  209.1950  148.6280 O   0  0  0  0  0  0  0  0  0  0  0  0
  161.2940  209.2200  153.6420 C   0  0  0  0  0  0  0  0  0  0  0  0
  161.0710  207.6020  151.6920 C   0  0  2  0  0  3  0  0  0  0  0  0
  160.6480  208.5540  155.8820 C   0  0  0  0  0  0  0  0  0  0  0  0
  160.9950  207.9200  153.1680 C   0  0  0  0  0  0  0  0  0  0  0  0
  161.5790  210.0040  151.2650 C   0  0  0  0  0  2  0  0  0  0  0  0
  161.1380  209.5180  155.0000 C   0  0  0  0  0  3  0  0  0  0  0  0
  161.7020  206.8980  148.9970 C   0  0  0  0  0  0  0  0  0  0  0  0
  161.5170  206.1670  151.4130 C   0  0  0  0  0  2  0  0  0  0  0  0
  161.8650  210.2790  152.7380 C   0  0  0  0  0  2  0  0  0  0  0  0
  161.4560  205.3020  147.1860 C   0  0  0  0  0  3  0  0  0  0  0  0
  161.9520  208.2820  149.4610 C   0  0  0  0  0  0  0  0  0  0  0  0
  161.6980  206.6040  147.6270 C   0  0  0  0  0  3  0  0  0  0  0  0
  160.4860  208.8680  157.2610 N   0  0  0  0  0  1  0  0  0  0  0  0
  160.3110  207.2820  155.4140 C   0  0  0  0  0  3  0  0  0  0  0  0
  161.9890  208.5730  150.9380 C   0  0  2  0  0  3  0  0  0  0  0  0
  161.2080  204.2860  148.1080 C   0  0  0  0  0  3  0  0  0  0  0  0
  161.4470  205.8710  149.9360 C   0  0  0  0  0  0  0  0  0  0  0  0
  160.9430  203.4530  150.4160 C   0  0  0  0  0  0  0  0  0  0  0  0
  160.9290  202.0830  149.9890 N   0  0  0  0  0  2  0  0  0  0  0  0
  160.7450  203.7170  151.6310 O   0  0  0  0  0  0  0  0  0  0  0  0
  161.9580  200.3050  148.6230 C   0  0  0  0  0  1  0  0  0  0  0  0
  161.1380  201.5870  148.6300 C   0  0  1  0  0  3  0  0  0  0  0  0
  159.8510  201.4800  147.8680 C   0  0  0  0  0  0  0  0  0  0  0  0
  158.6580  201.3300  148.5630 O   0  0  0  0  0  1  0  0  0  0  0  0
  159.8350  201.5140  146.6090 O   0  0  0  0  0  0  0  0  0  0  0  0
  1 20  1  0  0  0  0
  1 21  1  0  0  0  0
  2 17  1  0  0  0  0
  3 14  2  0  0  0  0
  4  9  2  0  0  0  0
  5 11  1  1  0  0  0
  5  7  1  0  0  0  0
  6 16  1  0  0  0  0
  7  4  1  0  0  0  0
  7  2  2  0  0  0  0
  8 12  1  0  0  0  0
  9  6  1  0  0  0  0
 10 14  1  0  0  0  0
 10 20  2  0  0  0  0
 12  4  1  0  0  0  0
 13 15  2  0  0  0  0
 13 19  1  0  0  0  0
 14 18  1  0  0  0  0
 15 10  1  0  0  0  0
 17  6  2  0  0  0  0
 18  8  1  6  0  0  0
 18  5  1  0  0  0  0
 19  1  2  0  0  0  0
 20 11  1  0  0  0  0
 21 23  2  0  0  0  0
 22 21  1  0  0  0  0
 25 24  1  1  0  0  0
 25 22  1  0  0  0  0
 26 27  1  0  0  0  0
 26 25  1  0  0  0  0
 28 26  2  0  0  0  0
M  END
>  <MODEL>
8

>  <REMARK>
 VINA RESULT:      -8.0      2.692      8.201
  Name = 
  3 active torsions:
  status: ('A' for Active; 'I' for Inactive)
    1  A    between atoms: C_1  and  C_2
    2  A    between atoms: N_3  and  CA_11
    3  A    between atoms: C_6  and  CA_11
                            x       y       z     vdW  Elec       q    Type
                         _______ _______ _______ _____ _____    ______ ____

>  <TORSDO>
F 3

$$$$
