=
 OpenBabel11052422023D

 30 33  0  0  1  0  0  0  0  0999 V2000
  160.6620  204.3840  152.1060 C   0  0  0  0  0  0  0  0  0  0  0  0
  161.0310  206.5270  153.2800 C   0  0  0  0  0  3  0  0  0  0  0  0
  162.1240  208.4340  149.6960 O   0  0  0  0  0  0  0  0  0  0  0  0
  159.8890  205.9910  149.0860 O   0  0  0  0  0  1  0  0  0  0  0  0
  161.7180  203.4160  152.1360 N   0  0  0  0  0  0  0  0  0  0  0  0
  160.9280  201.7710  149.1390 C   0  0  1  0  0  0  0  0  0  0  0  0
  160.6680  201.9840  150.5560 N   0  0  0  0  0  2  0  0  0  0  0  0
  162.9120  201.4130  151.5770 C   0  0  0  0  0  1  0  0  0  0  0  0
  162.1700  205.5470  147.1420 C   0  0  2  0  0  3  0  0  0  0  0  0
  162.3430  207.7150  148.5170 C   0  0  0  0  0  0  0  0  0  0  0  0
  161.7200  202.3000  151.4740 C   0  0  0  0  0  0  0  0  0  0  0  0
  160.7090  203.0040  148.2740 C   0  0  2  0  0  3  0  0  0  0  0  0
  161.3960  207.8750  153.2840 C   0  0  0  0  0  3  0  0  0  0  0  0
  162.6560  204.0870  147.0600 C   0  0  0  0  0  2  0  0  0  0  0  0
  161.8360  200.6190  148.7290 C   0  0  0  0  0  1  0  0  0  0  0  0
  159.4550  204.0260  152.0700 O   0  0  0  0  0  0  0  0  0  0  0  0
  161.7400  207.8000  150.8860 C   0  0  0  0  0  0  0  0  0  0  0  0
  161.7490  208.5120  152.0920 C   0  0  0  0  0  0  0  0  0  0  0  0
  159.6860  201.8700  148.2870 C   0  0  0  0  0  2  0  0  0  0  0  0
  161.0060  205.8070  152.0820 C   0  0  0  0  0  0  0  0  0  0  0  0
  161.1820  205.7430  149.5520 C   0  0  1  0  0  3  0  0  0  0  0  0
  162.7110  208.3250  147.4790 O   0  0  0  0  0  0  0  0  0  0  0  0
  162.2330  206.2100  148.5350 C   0  0  1  0  0  3  0  0  0  0  0  0
  160.8190  203.0630  145.8630 O   0  0  0  0  0  1  0  0  0  0  0  0
  162.1170  209.8520  152.1120 O   0  0  0  0  0  1  0  0  0  0  0  0
  161.3540  206.4440  150.8750 C   0  0  0  0  0  0  0  0  0  0  0  0
  161.5860  202.9870  147.0280 C   0  0  2  0  0  3  0  0  0  0  0  0
  161.0770  205.9730  146.1980 C   0  0  0  0  0  0  0  0  0  0  0  0
  161.3050  205.8890  144.7280 C   0  0  0  0  0  1  0  0  0  0  0  0
  160.0010  206.3690  146.6160 O   0  0  0  0  0  0  0  0  0  0  0  0
  1  5  1  0  0  0  0
  2 13  1  0  0  0  0
  3 17  1  0  0  0  0
  6 15  1  6  0  0  0
  6  7  1  0  0  0  0
  7 11  1  0  0  0  0
  9 28  1  1  0  0  0
  9 23  1  0  0  0  0
 10  3  1  0  0  0  0
 11  8  1  0  0  0  0
 11  5  2  0  0  0  0
 12 19  1  6  0  0  0
 12  6  1  0  0  0  0
 14  9  1  0  0  0  0
 16  1  2  0  0  0  0
 17 18  1  0  0  0  0
 18 25  1  0  0  0  0
 18 13  2  0  0  0  0
 19  6  1  0  0  0  0
 20  1  1  0  0  0  0
 20  2  2  0  0  0  0
 21  4  1  6  0  0  0
 21 26  1  0  0  0  0
 22 10  2  0  0  0  0
 23 10  1  6  0  0  0
 23 21  1  0  0  0  0
 26 17  2  0  0  0  0
 26 20  1  0  0  0  0
 27 24  1  6  0  0  0
 27 14  1  0  0  0  0
 27 12  1  0  0  0  0
 28 30  2  0  0  0  0
 29 28  1  0  0  0  0
M  END
>  <MODEL>
1

>  <REMARK>
 VINA RESULT:      -5.4      0.000      0.000
  Name = 
  1 active torsions:
  status: ('A' for Active; 'I' for Inactive)
    1  A    between atoms: C_7  and  C_10
                            x       y       z     vdW  Elec       q    Type
                         _______ _______ _______ _____ _____    ______ ____

>  <TORSDO>
F 1

$$$$
=
 OpenBabel11052422023D

 30 33  0  0  1  0  0  0  0  0999 V2000
  161.9810  210.0370  152.1210 C   0  0  0  0  0  0  0  0  0  0  0  0
  162.0190  211.1730  149.9260 C   0  0  0  0  0  3  0  0  0  0  0  0
  158.6530  213.4830  150.9340 O   0  0  0  0  0  0  0  0  0  0  0  0
  160.4560  212.7790  153.6900 O   0  0  0  0  0  1  0  0  0  0  0  0
  161.3570  208.7500  152.1960 N   0  0  0  0  0  0  0  0  0  0  0  0
  160.4490  208.8670  155.5830 C   0  0  1  0  0  0  0  0  0  0  0  0
  161.4700  208.6540  154.5680 N   0  0  0  0  0  2  0  0  0  0  0  0
  160.4560  206.7730  153.2110 C   0  0  0  0  0  1  0  0  0  0  0  0
  157.5920  212.0470  154.3510 C   0  0  2  0  0  3  0  0  0  0  0  0
  157.8990  213.2220  152.0820 C   0  0  0  0  0  0  0  0  0  0  0  0
  161.1560  208.0850  153.2920 C   0  0  0  0  0  0  0  0  0  0  0  0
  159.8700  210.2750  155.5970 C   0  0  2  0  0  3  0  0  0  0  0  0
  161.4940  212.0880  149.0110 C   0  0  0  0  0  3  0  0  0  0  0  0
  157.4310  210.6690  155.0230 C   0  0  0  0  0  2  0  0  0  0  0  0
  159.7060  207.6580  156.1360 C   0  0  0  0  0  1  0  0  0  0  0  0
  162.9580  210.3280  152.8610 O   0  0  0  0  0  0  0  0  0  0  0  0
  159.7870  212.7250  150.6100 C   0  0  0  0  0  0  0  0  0  0  0  0
  160.3830  212.8630  149.3490 C   0  0  0  0  0  0  0  0  0  0  0  0
  160.8750  209.8350  156.6590 C   0  0  0  0  0  2  0  0  0  0  0  0
  161.4430  211.0330  151.1920 C   0  0  0  0  0  0  0  0  0  0  0  0
  159.7830  211.8050  152.9490 C   0  0  1  0  0  3  0  0  0  0  0  0
  156.8740  213.9140  152.3200 O   0  0  0  0  0  0  0  0  0  0  0  0
  158.2680  212.0520  152.9620 C   0  0  1  0  0  3  0  0  0  0  0  0
  158.3120  211.1350  157.2270 O   0  0  0  0  0  1  0  0  0  0  0  0
  159.8670  213.7640  148.4250 O   0  0  0  0  0  1  0  0  0  0  0  0
  160.3250  211.8160  151.5430 C   0  0  0  0  0  0  0  0  0  0  0  0
  158.4390  210.2950  156.1190 C   0  0  2  0  0  3  0  0  0  0  0  0
  157.7880  213.2410  155.2450 C   0  0  0  0  0  0  0  0  0  0  0  0
  156.6040  213.8810  155.8830 C   0  0  0  0  0  1  0  0  0  0  0  0
  158.9030  213.6840  155.4700 O   0  0  0  0  0  0  0  0  0  0  0  0
  1  5  1  0  0  0  0
  1 16  2  0  0  0  0
  2 20  1  0  0  0  0
  3 10  1  0  0  0  0
  5 11  2  0  0  0  0
  6 12  1  0  0  0  0
  6 15  1  1  0  0  0
  6 19  1  0  0  0  0
  7  6  1  0  0  0  0
  8 11  1  0  0  0  0
  9 14  1  0  0  0  0
  9 28  1  1  0  0  0
 10 22  2  0  0  0  0
 11  7  1  0  0  0  0
 12 27  1  0  0  0  0
 12 19  1  1  0  0  0
 13 18  1  0  0  0  0
 13  2  2  0  0  0  0
 14 27  1  0  0  0  0
 17  3  1  0  0  0  0
 17 26  1  0  0  0  0
 18 17  2  0  0  0  0
 20 26  2  0  0  0  0
 20  1  1  0  0  0  0
 21 23  1  0  0  0  0
 21  4  1  1  0  0  0
 23 10  1  1  0  0  0
 23  9  1  0  0  0  0
 25 18  1  0  0  0  0
 26 21  1  0  0  0  0
 27 24  1  1  0  0  0
 28 30  2  0  0  0  0
 28 29  1  0  0  0  0
M  END
>  <MODEL>
2

>  <REMARK>
 VINA RESULT:      -3.7      5.646      8.898
  Name = 
  1 active torsions:
  status: ('A' for Active; 'I' for Inactive)
    1  A    between atoms: C_7  and  C_10
                            x       y       z     vdW  Elec       q    Type
                         _______ _______ _______ _____ _____    ______ ____

>  <TORSDO>
F 1

$$$$
=
 OpenBabel11052422023D

 30 33  0  0  1  0  0  0  0  0999 V2000
  162.2180  209.0840  148.7110 C   0  0  0  0  0  0  0  0  0  0  0  0
  161.8260  211.3490  147.8030 C   0  0  0  0  0  3  0  0  0  0  0  0
  160.4560  212.7320  151.5300 O   0  0  0  0  0  0  0  0  0  0  0  0
  162.7530  210.3070  151.9550 O   0  0  0  0  0  1  0  0  0  0  0  0
  161.2060  208.0940  148.4930 N   0  0  0  0  0  0  0  0  0  0  0  0
  161.8950  206.0980  151.2950 C   0  0  1  0  0  0  0  0  0  0  0  0
  162.2250  206.5040  149.9370 N   0  0  0  0  0  2  0  0  0  0  0  0
  160.0670  205.9960  148.7150 C   0  0  0  0  0  1  0  0  0  0  0  0
  160.3870  209.5350  153.6830 C   0  0  2  0  0  3  0  0  0  0  0  0
  160.2010  211.8570  152.5910 C   0  0  0  0  0  0  0  0  0  0  0  0
  161.2130  206.9010  149.0040 C   0  0  0  0  0  0  0  0  0  0  0  0
  162.0130  207.2140  152.3240 C   0  0  2  0  0  3  0  0  0  0  0  0
  161.4060  212.6730  147.9510 C   0  0  0  0  0  3  0  0  0  0  0  0
  159.9590  208.0610  153.5460 C   0  0  0  0  0  2  0  0  0  0  0  0
  161.0140  204.8720  151.4970 C   0  0  0  0  0  1  0  0  0  0  0  0
  163.4350  208.7660  148.7750 O   0  0  0  0  0  0  0  0  0  0  0  0
  160.9320  212.2730  150.2940 C   0  0  0  0  0  0  0  0  0  0  0  0
  160.9610  213.1360  149.1910 C   0  0  0  0  0  0  0  0  0  0  0  0
  163.0820  206.1260  152.2270 C   0  0  0  0  0  2  0  0  0  0  0  0
  161.8150  210.4790  148.8970 C   0  0  0  0  0  0  0  0  0  0  0  0
  161.5000  210.0790  151.3830 C   0  0  1  0  0  3  0  0  0  0  0  0
  159.7510  212.3130  153.6750 O   0  0  0  0  0  0  0  0  0  0  0  0
  160.3740  210.3720  152.3860 C   0  0  1  0  0  3  0  0  0  0  0  0
  161.7660  206.9530  154.7110 O   0  0  0  0  0  1  0  0  0  0  0  0
  160.5390  214.4530  149.3210 O   0  0  0  0  0  1  0  0  0  0  0  0
  161.3730  210.9400  150.1530 C   0  0  0  0  0  0  0  0  0  0  0  0
  161.0700  207.0030  153.5010 C   0  0  2  0  0  3  0  0  0  0  0  0
  161.4070  209.8700  154.7390 C   0  0  0  0  0  0  0  0  0  0  0  0
  161.0230  209.7980  156.1760 C   0  0  0  0  0  1  0  0  0  0  0  0
  162.5470  210.1830  154.4370 O   0  0  0  0  0  0  0  0  0  0  0  0
  1 16  2  0  0  0  0
  1 20  1  0  0  0  0
  2 13  2  0  0  0  0
  2 20  1  0  0  0  0
  3 10  1  0  0  0  0
  5  1  1  0  0  0  0
  5 11  2  0  0  0  0
  6 15  1  1  0  0  0
  6 19  1  0  0  0  0
  6 12  1  0  0  0  0
  7  6  1  0  0  0  0
  8 11  1  0  0  0  0
  9 28  1  6  0  0  0
 10 22  2  0  0  0  0
 11  7  1  0  0  0  0
 12 19  1  1  0  0  0
 12 27  1  0  0  0  0
 13 18  1  0  0  0  0
 14  9  1  0  0  0  0
 17  3  1  0  0  0  0
 18 25  1  0  0  0  0
 18 17  2  0  0  0  0
 20 26  2  0  0  0  0
 21  4  1  1  0  0  0
 21 23  1  0  0  0  0
 23 10  1  1  0  0  0
 23  9  1  0  0  0  0
 26 17  1  0  0  0  0
 26 21  1  0  0  0  0
 27 14  1  0  0  0  0
 27 24  1  1  0  0  0
 28 29  1  0  0  0  0
 30 28  2  0  0  0  0
M  END
>  <MODEL>
3

>  <REMARK>
 VINA RESULT:      -3.3      3.254      6.825
  Name = 
  1 active torsions:
  status: ('A' for Active; 'I' for Inactive)
    1  A    between atoms: C_7  and  C_10
                            x       y       z     vdW  Elec       q    Type
                         _______ _______ _______ _____ _____    ______ ____

>  <TORSDO>
F 1

$$$$
=
 OpenBabel11052422023D

 30 33  0  0  1  0  0  0  0  0999 V2000
  160.4920  211.1090  153.0400 C   0  0  0  0  0  0  0  0  0  0  0  0
  160.8310  212.5640  151.0700 C   0  0  0  0  0  3  0  0  0  0  0  0
  162.1840  209.3200  148.7630 O   0  0  0  0  0  0  0  0  0  0  0  0
  159.9420  208.2750  151.0480 O   0  0  0  0  0  1  0  0  0  0  0  0
  161.5250  211.0790  154.0320 N   0  0  0  0  0  0  0  0  0  0  0  0
  160.8890  207.8580  155.2690 C   0  0  1  0  0  0  0  0  0  0  0  0
  160.5460  209.2720  155.2260 N   0  0  0  0  0  2  0  0  0  0  0  0
  162.7100  210.3440  155.9830 C   0  0  0  0  0  1  0  0  0  0  0  0
  162.3300  206.4290  151.3100 C   0  0  2  0  0  3  0  0  0  0  0  0
  162.4610  208.0740  149.3360 C   0  0  0  0  0  0  0  0  0  0  0  0
  161.5450  210.2830  155.0570 C   0  0  0  0  0  0  0  0  0  0  0  0
  160.7500  207.1430  153.9320 C   0  0  2  0  0  3  0  0  0  0  0  0
  161.2220  212.7590  149.7440 C   0  0  0  0  0  3  0  0  0  0  0  0
  162.7900  206.1930  152.7610 C   0  0  0  0  0  2  0  0  0  0  0  0
  161.7970  207.3610  156.3860 C   0  0  0  0  0  1  0  0  0  0  0  0
  159.2830  210.9560  153.3560 O   0  0  0  0  0  0  0  0  0  0  0  0
  161.7130  210.3950  149.5290 C   0  0  0  0  0  0  0  0  0  0  0  0
  161.6620  211.6790  148.9740 C   0  0  0  0  0  0  0  0  0  0  0  0
  159.7060  206.9530  155.0300 C   0  0  0  0  0  2  0  0  0  0  0  0
  160.8650  211.2850  151.6350 C   0  0  0  0  0  0  0  0  0  0  0  0
  161.1970  208.7820  151.3880 C   0  0  1  0  0  3  0  0  0  0  0  0
  162.9050  207.1450  148.6110 O   0  0  0  0  0  0  0  0  0  0  0  0
  162.3200  207.8960  150.8280 C   0  0  1  0  0  3  0  0  0  0  0  0
  161.0110  204.7700  153.5760 O   0  0  0  0  0  1  0  0  0  0  0  0
  162.0550  211.8900  147.6580 O   0  0  0  0  0  1  0  0  0  0  0  0
  161.3010  210.1910  150.8630 C   0  0  0  0  0  0  0  0  0  0  0  0
  161.7020  205.9600  153.8190 C   0  0  2  0  0  3  0  0  0  0  0  0
  161.3070  205.4830  150.7400 C   0  0  0  0  0  0  0  0  0  0  0  0
  161.5810  204.0190  150.7430 C   0  0  0  0  0  1  0  0  0  0  0  0
  160.2490  205.8940  150.2900 O   0  0  0  0  0  0  0  0  0  0  0  0
  1 16  2  0  0  0  0
  1  5  1  0  0  0  0
  2 20  1  0  0  0  0
  3 10  1  0  0  0  0
  3 17  1  0  0  0  0
  5 11  2  0  0  0  0
  6 15  1  1  0  0  0
  7  6  1  0  0  0  0
  9 28  1  1  0  0  0
  9 14  1  0  0  0  0
 11  7  1  0  0  0  0
 11  8  1  0  0  0  0
 12 19  1  1  0  0  0
 12  6  1  0  0  0  0
 13  2  2  0  0  0  0
 14 27  1  0  0  0  0
 17 26  1  0  0  0  0
 18 17  2  0  0  0  0
 18 13  1  0  0  0  0
 19  6  1  0  0  0  0
 20  1  1  0  0  0  0
 21  4  1  6  0  0  0
 22 10  2  0  0  0  0
 23 10  1  6  0  0  0
 23  9  1  0  0  0  0
 23 21  1  0  0  0  0
 25 18  1  0  0  0  0
 26 21  1  0  0  0  0
 26 20  2  0  0  0  0
 27 24  1  6  0  0  0
 27 12  1  0  0  0  0
 28 29  1  0  0  0  0
 30 28  2  0  0  0  0
M  END
>  <MODEL>
4

>  <REMARK>
 VINA RESULT:      -3.3      3.364      6.230
  Name = 
  1 active torsions:
  status: ('A' for Active; 'I' for Inactive)
    1  A    between atoms: C_7  and  C_10
                            x       y       z     vdW  Elec       q    Type
                         _______ _______ _______ _____ _____    ______ ____

>  <TORSDO>
F 1

$$$$
=
 OpenBabel11052422023D

 30 33  0  0  1  0  0  0  0  0999 V2000
  162.0130  211.0410  149.9120 C   0  0  0  0  0  0  0  0  0  0  0  0
  161.5070  212.1440  147.7590 C   0  0  0  0  0  3  0  0  0  0  0  0
  158.1500  214.0690  149.4030 O   0  0  0  0  0  0  0  0  0  0  0  0
  160.5080  213.6120  151.7630 O   0  0  0  0  0  1  0  0  0  0  0  0
  161.5650  209.6930  150.0920 N   0  0  0  0  0  0  0  0  0  0  0  0
  161.3050  209.7500  153.5900 C   0  0  1  0  0  0  0  0  0  0  0  0
  162.1350  209.6420  152.3990 N   0  0  0  0  0  2  0  0  0  0  0  0
  161.1050  207.6400  151.2430 C   0  0  0  0  0  1  0  0  0  0  0  0
  157.9220  212.5670  152.9460 C   0  0  2  0  0  3  0  0  0  0  0  0
  157.6600  213.7390  150.6710 C   0  0  0  0  0  0  0  0  0  0  0  0
  161.6520  209.0240  151.2010 C   0  0  0  0  0  0  0  0  0  0  0  0
  160.5810  211.0830  153.7250 C   0  0  2  0  0  3  0  0  0  0  0  0
  160.7180  212.9810  146.9670 C   0  0  0  0  0  3  0  0  0  0  0  0
  158.0490  211.1890  153.6250 C   0  0  0  0  0  2  0  0  0  0  0  0
  160.8230  208.4720  154.2640 C   0  0  0  0  0  1  0  0  0  0  0  0
  163.0720  211.4520  150.4570 O   0  0  0  0  0  0  0  0  0  0  0  0
  159.2810  213.4410  148.8640 C   0  0  0  0  0  0  0  0  0  0  0  0
  159.6080  213.6290  147.5150 C   0  0  0  0  0  0  0  0  0  0  0  0
  161.8130  210.7750  154.5750 C   0  0  0  0  0  2  0  0  0  0  0  0
  161.1990  211.9560  149.1100 C   0  0  0  0  0  0  0  0  0  0  0  0
  159.8230  212.5580  151.1540 C   0  0  1  0  0  3  0  0  0  0  0  0
  156.6250  214.3120  151.1030 O   0  0  0  0  0  0  0  0  0  0  0  0
  158.3190  212.6310  151.4550 C   0  0  1  0  0  3  0  0  0  0  0  0
  159.2710  211.7810  155.6280 O   0  0  0  0  0  1  0  0  0  0  0  0
  158.8280  214.4530  146.7130 O   0  0  0  0  0  1  0  0  0  0  0  0
  160.0860  212.6110  149.6720 C   0  0  0  0  0  0  0  0  0  0  0  0
  159.2820  210.9470  154.5080 C   0  0  2  0  0  3  0  0  0  0  0  0
  158.1450  213.7880  153.7980 C   0  0  0  0  0  0  0  0  0  0  0  0
  157.0440  214.2850  154.6680 C   0  0  0  0  0  1  0  0  0  0  0  0
  159.2190  214.3680  153.8000 O   0  0  0  0  0  0  0  0  0  0  0  0
  1  5  1  0  0  0  0
  1 16  2  0  0  0  0
  2 20  1  0  0  0  0
  3 10  1  0  0  0  0
  5 11  2  0  0  0  0
  6 12  1  0  0  0  0
  6 15  1  1  0  0  0
  6 19  1  0  0  0  0
  7  6  1  0  0  0  0
  9 14  1  0  0  0  0
  9 28  1  1  0  0  0
 10 22  2  0  0  0  0
 11  8  1  0  0  0  0
 11  7  1  0  0  0  0
 12 27  1  0  0  0  0
 12 19  1  1  0  0  0
 13 18  1  0  0  0  0
 13  2  2  0  0  0  0
 14 27  1  0  0  0  0
 17  3  1  0  0  0  0
 17 26  1  0  0  0  0
 18 17  2  0  0  0  0
 20 26  2  0  0  0  0
 20  1  1  0  0  0  0
 21 23  1  0  0  0  0
 21  4  1  1  0  0  0
 23 10  1  1  0  0  0
 23  9  1  0  0  0  0
 25 18  1  0  0  0  0
 26 21  1  0  0  0  0
 27 24  1  1  0  0  0
 28 30  2  0  0  0  0
 28 29  1  0  0  0  0
M  END
>  <MODEL>
5

>  <REMARK>
 VINA RESULT:      -2.8      5.337      8.957
  Name = 
  1 active torsions:
  status: ('A' for Active; 'I' for Inactive)
    1  A    between atoms: C_7  and  C_10
                            x       y       z     vdW  Elec       q    Type
                         _______ _______ _______ _____ _____    ______ ____

>  <TORSDO>
F 1

$$$$
