=
 OpenBabel11062407483D

 34 38  0  0  1  0  0  0  0  0999 V2000
  157.6240  213.9680  146.1860 C   0  0  0  0  0  0  0  0  0  0  0  0
  159.6030  213.7930  144.6050 C   0  0  1  0  0  3  0  0  0  0  0  0
  159.8450  213.5940  147.1070 C   0  0  0  0  0  0  0  0  0  0  0  0
  163.4820  212.4940  147.8260 C   0  0  0  0  0  1  0  0  0  0  0  0
  159.2690  212.5150  143.8450 C   0  0  0  0  0  1  0  0  0  0  0  0
  161.6560  213.1480  145.4420 C   0  0  0  0  0  2  0  0  0  0  0  0
  159.0060  213.8000  145.9970 C   0  0  0  0  0  0  0  0  0  0  0  0
  161.9590  212.5170  147.9550 C   0  0  1  0  0  0  0  0  0  0  0  0
  159.3190  213.5580  148.4120 C   0  0  0  0  0  0  0  0  0  0  0  0
  157.0990  213.9200  147.4860 C   0  0  0  0  0  3  0  0  0  0  0  0
  160.9960  214.0620  144.5930 O   0  0  0  0  0  0  0  0  0  0  0  0
  161.6460  213.1370  149.3160 C   0  0  0  0  0  2  0  0  0  0  0  0
  160.1980  213.2860  149.5340 N   0  0  0  0  0  0  0  0  0  0  0  0
  161.3280  213.4630  146.9050 C   0  0  2  0  0  3  0  0  0  0  0  0
  157.9350  213.7110  148.5830 C   0  0  0  0  0  3  0  0  0  0  0  0
  159.5480  212.0400  153.0170 C   0  0  0  0  0  0  0  0  0  0  0  0
  158.7640  213.0740  153.5290 C   0  0  0  0  0  3  0  0  0  0  0  0
  159.7270  213.2120  150.8930 C   0  0  0  0  0  0  0  0  0  0  0  0
  158.4500  214.1760  152.7270 C   0  0  0  0  0  3  0  0  0  0  0  0
  160.0240  212.1050  151.7050 C   0  0  0  0  0  3  0  0  0  0  0  0
  158.9280  214.2420  151.4150 C   0  0  0  0  0  3  0  0  0  0  0  0
  159.9420  210.6600  154.0210 Cl  0  0  0  0  0  0  0  0  0  0  0  0
  155.4030  214.4440  145.1970 C   0  0  0  0  0  1  0  0  0  0  0  0
  156.7930  214.1680  145.0770 O   0  0  0  0  0  0  0  0  0  0  0  0
  161.4020  211.2100  147.9530 O   0  0  0  0  0  0  0  0  0  0  0  0
  161.9640  210.4200  148.9680 C   0  0  0  0  0  2  0  0  0  0  0  0
  161.9340  208.9660  148.5460 C   0  0  0  0  0  2  0  0  0  0  0  0
  160.5260  206.4410  148.7620 C   0  0  0  0  0  1  0  0  0  0  0  0
  162.1990  208.0670  149.7480 C   0  0  2  0  0  3  0  0  0  0  0  0
  161.8360  206.5980  149.5460 C   0  0  1  0  0  3  0  0  0  0  0  0
  160.8770  204.8380  151.1440 C   0  0  0  0  0  1  0  0  0  0  0  0
  161.1050  207.2690  151.7670 C   0  0  0  0  0  2  0  0  0  0  0  0
  161.4280  208.5260  150.9740 C   0  0  0  0  0  2  0  0  0  0  0  0
  161.6940  206.1110  150.9820 C   0  0  2  0  0  3  0  0  0  0  0  0
  1 10  1  0  0  0  0
  2  5  1  1  0  0  0
  2  7  1  0  0  0  0
  3  9  2  0  0  0  0
  7  1  2  0  0  0  0
  7  3  1  0  0  0  0
  8  4  1  6  0  0  0
  8 12  1  0  0  0  0
  9 15  1  0  0  0  0
  9 13  1  0  0  0  0
 10 15  2  0  0  0  0
 11  2  1  0  0  0  0
 11  6  1  0  0  0  0
 12 13  1  0  0  0  0
 13 18  1  0  0  0  0
 14  6  1  6  0  0  0
 14  3  1  0  0  0  0
 14  8  1  0  0  0  0
 16 17  1  0  0  0  0
 16 22  1  0  0  0  0
 18 21  2  0  0  0  0
 18 20  1  0  0  0  0
 19 17  2  0  0  0  0
 20 16  2  0  0  0  0
 21 19  1  0  0  0  0
 24 23  1  0  0  0  0
 24  1  1  0  0  0  0
 25  8  1  0  0  0  0
 25 26  1  0  0  0  0
 27 26  1  0  0  0  0
 29 27  1  6  0  0  0
 29 33  1  0  0  0  0
 30 28  1  6  0  0  0
 30 29  1  0  0  0  0
 30 34  1  0  0  0  0
 33 32  1  0  0  0  0
 34 31  1  6  0  0  0
 34 32  1  0  0  0  0
M  END
>  <MODEL>
1

>  <REMARK>
 VINA RESULT:      -6.9      0.000      0.000
  Name = 
  6 active torsions:
  status: ('A' for Active; 'I' for Inactive)
    1  A    between atoms: C_1  and  O_19
    2  A    between atoms: C_3  and  C_13
    3  A    between atoms: C_3  and  C_17
    4  A    between atoms: C_12  and  N_28
    5  A    between atoms: C_17  and  O_29
    6  A    between atoms: C_18  and  O_29
                            x       y       z     vdW  Elec       q    Type
                         _______ _______ _______ _____ _____    ______ ____

>  <TORSDO>
F 6

$$$$
=
 OpenBabel11062407483D

 34 38  0  0  1  0  0  0  0  0999 V2000
  161.4000  206.0450  148.6800 C   0  0  0  0  0  0  0  0  0  0  0  0
  161.6120  205.0320  150.9980 C   0  0  1  0  0  3  0  0  0  0  0  0
  161.8570  207.5060  150.5710 C   0  0  0  0  0  0  0  0  0  0  0  0
  162.0320  209.2550  154.0150 C   0  0  0  0  0  1  0  0  0  0  0  0
  160.1970  204.5140  151.2300 C   0  0  0  0  0  1  0  0  0  0  0  0
  161.7490  206.4350  152.8280 C   0  0  0  0  0  2  0  0  0  0  0  0
  161.6360  206.2160  150.0540 C   0  0  0  0  0  0  0  0  0  0  0  0
  161.6080  209.0260  152.5650 C   0  0  1  0  0  0  0  0  0  0  0  0
  161.8500  208.6320  149.7280 C   0  0  0  0  0  0  0  0  0  0  0  0
  161.3810  207.1700  147.8410 C   0  0  0  0  0  3  0  0  0  0  0  0
  162.2870  205.2790  152.2210 O   0  0  0  0  0  0  0  0  0  0  0  0
  162.2920  210.1110  151.7340 C   0  0  0  0  0  2  0  0  0  0  0  0
  162.0220  209.9570  150.2960 N   0  0  0  0  0  0  0  0  0  0  0  0
  162.1560  207.6800  152.0330 C   0  0  2  0  0  3  0  0  0  0  0  0
  161.5960  208.4460  148.3600 C   0  0  0  0  0  3  0  0  0  0  0  0
  160.9720  213.2630  148.8570 C   0  0  0  0  0  0  0  0  0  0  0  0
  161.9690  213.4680  147.9030 C   0  0  0  0  0  3  0  0  0  0  0  0
  162.0030  211.1550  149.4970 C   0  0  0  0  0  0  0  0  0  0  0  0
  162.9800  212.5180  147.7340 C   0  0  0  0  0  3  0  0  0  0  0  0
  160.9860  212.1110  149.6480 C   0  0  0  0  0  3  0  0  0  0  0  0
  162.9950  211.3660  148.5260 C   0  0  0  0  0  3  0  0  0  0  0  0
  159.7050  214.4530  149.0690 Cl  0  0  0  0  0  0  0  0  0  0  0  0
  161.8990  204.2330  147.0650 C   0  0  0  0  0  1  0  0  0  0  0  0
  161.1760  204.7600  148.1700 O   0  0  0  0  0  0  0  0  0  0  0  0
  160.2080  209.1820  152.3850 O   0  0  0  0  0  0  0  0  0  0  0  0
  159.6560  209.9890  153.3940 C   0  0  0  0  0  2  0  0  0  0  0  0
  158.8900  211.1310  152.7580 C   0  0  0  0  0  2  0  0  0  0  0  0
  156.7410  211.5150  154.6660 C   0  0  0  0  0  1  0  0  0  0  0  0
  158.9160  212.3500  153.6730 C   0  0  2  0  0  3  0  0  0  0  0  0
  158.0750  212.2220  154.9400 C   0  0  1  0  0  3  0  0  0  0  0  0
  156.6890  213.9330  156.2520 C   0  0  0  0  0  1  0  0  0  0  0  0
  157.7470  214.4530  154.0260 C   0  0  0  0  0  2  0  0  0  0  0  0
  158.4190  213.5970  152.9610 C   0  0  0  0  0  2  0  0  0  0  0  0
  157.8700  213.6810  155.3270 C   0  0  2  0  0  3  0  0  0  0  0  0
  1  7  1  0  0  0  0
  2  5  1  1  0  0  0
  2 11  1  0  0  0  0
  3 14  1  0  0  0  0
  7  3  2  0  0  0  0
  7  2  1  0  0  0  0
  8  4  1  1  0  0  0
  9 13  1  0  0  0  0
  9  3  1  0  0  0  0
 10 15  1  0  0  0  0
 10  1  2  0  0  0  0
 11  6  1  0  0  0  0
 12  8  1  0  0  0  0
 13 12  1  0  0  0  0
 14  8  1  0  0  0  0
 14  6  1  1  0  0  0
 15  9  2  0  0  0  0
 16 22  1  0  0  0  0
 16 20  1  0  0  0  0
 17 16  2  0  0  0  0
 18 20  2  0  0  0  0
 18 13  1  0  0  0  0
 19 17  1  0  0  0  0
 19 21  2  0  0  0  0
 21 18  1  0  0  0  0
 23 24  1  0  0  0  0
 24  1  1  0  0  0  0
 25  8  1  0  0  0  0
 25 26  1  0  0  0  0
 27 26  1  0  0  0  0
 29 27  1  6  0  0  0
 29 30  1  0  0  0  0
 30 28  1  6  0  0  0
 30 34  1  0  0  0  0
 32 34  1  0  0  0  0
 33 29  1  0  0  0  0
 33 32  1  0  0  0  0
 34 31  1  1  0  0  0
M  END
>  <MODEL>
2

>  <REMARK>
 VINA RESULT:      -6.6      3.581      7.812
  Name = 
  6 active torsions:
  status: ('A' for Active; 'I' for Inactive)
    1  A    between atoms: C_1  and  O_19
    2  A    between atoms: C_3  and  C_13
    3  A    between atoms: C_3  and  C_17
    4  A    between atoms: C_12  and  N_28
    5  A    between atoms: C_17  and  O_29
    6  A    between atoms: C_18  and  O_29
                            x       y       z     vdW  Elec       q    Type
                         _______ _______ _______ _____ _____    ______ ____

>  <TORSDO>
F 6

$$$$
=
 OpenBabel11062407483D

 34 38  0  0  1  0  0  0  0  0999 V2000
  160.0300  213.2940  150.2730 C   0  0  0  0  0  0  0  0  0  0  0  0
  161.3790  212.2940  148.3690 C   0  0  1  0  0  3  0  0  0  0  0  0
  161.3050  211.2590  150.6680 C   0  0  0  0  0  0  0  0  0  0  0  0
  163.0830  207.8320  150.4440 C   0  0  0  0  0  1  0  0  0  0  0  0
  160.2750  211.8880  147.3990 C   0  0  0  0  0  1  0  0  0  0  0  0
  162.3470  210.2160  148.6490 C   0  0  0  0  0  2  0  0  0  0  0  0
  160.9010  212.2960  149.8060 C   0  0  0  0  0  0  0  0  0  0  0  0
  162.0130  208.8470  150.8440 C   0  0  1  0  0  0  0  0  0  0  0  0
  160.8510  211.2100  151.9990 C   0  0  0  0  0  0  0  0  0  0  0  0
  159.5680  213.2370  151.5970 C   0  0  0  0  0  3  0  0  0  0  0  0
  162.5570  211.5280  148.1740 O   0  0  0  0  0  0  0  0  0  0  0  0
  162.1690  209.0760  152.3470 C   0  0  0  0  0  2  0  0  0  0  0  0
  161.2360  210.0980  152.8490 N   0  0  0  0  0  0  0  0  0  0  0  0
  162.2740  210.2210  150.1790 C   0  0  2  0  0  3  0  0  0  0  0  0
  159.9680  212.2050  152.4450 C   0  0  0  0  0  3  0  0  0  0  0  0
  160.1020  208.6000  156.1010 C   0  0  0  0  0  0  0  0  0  0  0  0
  159.8900  209.7490  156.8650 C   0  0  0  0  0  3  0  0  0  0  0  0
  160.7910  209.9700  154.2130 C   0  0  0  0  0  0  0  0  0  0  0  0
  160.1170  211.0100  156.3070 C   0  0  0  0  0  3  0  0  0  0  0  0
  160.5470  208.7090  154.7810 C   0  0  0  0  0  3  0  0  0  0  0  0
  160.5630  211.1190  154.9870 C   0  0  0  0  0  3  0  0  0  0  0  0
  159.8180  207.0200  156.7990 Cl  0  0  0  0  0  0  0  0  0  0  0  0
  158.2910  214.4530  148.9440 C   0  0  0  0  0  1  0  0  0  0  0  0
  159.6270  214.3200  149.4110 O   0  0  0  0  0  0  0  0  0  0  0  0
  160.6980  208.3520  150.6310 O   0  0  0  0  0  0  0  0  0  0  0  0
  160.6800  206.9480  150.6470 C   0  0  0  0  0  2  0  0  0  0  0  0
  160.2710  206.4380  149.2800 C   0  0  0  0  0  2  0  0  0  0  0  0
  160.5800  206.1960  146.4070 C   0  0  0  0  0  1  0  0  0  0  0  0
  161.3510  205.5170  148.7220 C   0  0  2  0  0  3  0  0  0  0  0  0
  161.7780  205.8210  147.2890 C   0  0  1  0  0  3  0  0  0  0  0  0
  162.4880  204.2940  145.3570 C   0  0  0  0  0  1  0  0  0  0  0  0
  161.5840  203.4080  147.5350 C   0  0  0  0  0  2  0  0  0  0  0  0
  160.9090  204.0640  148.7310 C   0  0  0  0  0  2  0  0  0  0  0  0
  162.3990  204.4970  146.8610 C   0  0  2  0  0  3  0  0  0  0  0  0
  1 10  1  0  0  0  0
  2  5  1  6  0  0  0
  2  7  1  0  0  0  0
  3  9  2  0  0  0  0
  7  1  2  0  0  0  0
  7  3  1  0  0  0  0
  8  4  1  6  0  0  0
  8 12  1  0  0  0  0
  9 15  1  0  0  0  0
  9 13  1  0  0  0  0
 10 15  2  0  0  0  0
 11  2  1  0  0  0  0
 11  6  1  0  0  0  0
 12 13  1  0  0  0  0
 13 18  1  0  0  0  0
 14  6  1  6  0  0  0
 14  3  1  0  0  0  0
 14  8  1  0  0  0  0
 16 22  1  0  0  0  0
 16 17  1  0  0  0  0
 18 20  1  0  0  0  0
 18 21  2  0  0  0  0
 19 17  2  0  0  0  0
 20 16  2  0  0  0  0
 21 19  1  0  0  0  0
 23 24  1  0  0  0  0
 24  1  1  0  0  0  0
 25 26  1  0  0  0  0
 25  8  1  0  0  0  0
 27 26  1  0  0  0  0
 29 33  1  0  0  0  0
 29 27  1  6  0  0  0
 30 28  1  6  0  0  0
 30 29  1  0  0  0  0
 32 33  1  0  0  0  0
 34 31  1  6  0  0  0
 34 30  1  0  0  0  0
 34 32  1  0  0  0  0
M  END
>  <MODEL>
3

>  <REMARK>
 VINA RESULT:      -5.9      2.627      4.573
  Name = 
  6 active torsions:
  status: ('A' for Active; 'I' for Inactive)
    1  A    between atoms: C_1  and  O_19
    2  A    between atoms: C_3  and  C_13
    3  A    between atoms: C_3  and  C_17
    4  A    between atoms: C_12  and  N_28
    5  A    between atoms: C_17  and  O_29
    6  A    between atoms: C_18  and  O_29
                            x       y       z     vdW  Elec       q    Type
                         _______ _______ _______ _____ _____    ______ ____

>  <TORSDO>
F 6

$$$$
=
 OpenBabel11062407483D

 34 38  0  0  1  0  0  0  0  0999 V2000
  158.2010  213.5460  150.7530 C   0  0  0  0  0  0  0  0  0  0  0  0
  159.4260  214.2940  148.6580 C   0  0  1  0  0  3  0  0  0  0  0  0
  160.3590  212.5520  150.2250 C   0  0  0  0  0  0  0  0  0  0  0  0
  163.4910  211.0420  148.5330 C   0  0  0  0  0  1  0  0  0  0  0  0
  158.4850  213.8000  147.5670 C   0  0  0  0  0  1  0  0  0  0  0  0
  161.3210  213.1520  147.9970 C   0  0  0  0  0  2  0  0  0  0  0  0
  159.3270  213.4580  149.9170 C   0  0  0  0  0  0  0  0  0  0  0  0
  162.1740  211.0650  149.3090 C   0  0  1  0  0  0  0  0  0  0  0  0
  160.2820  211.7330  151.3670 C   0  0  0  0  0  0  0  0  0  0  0  0
  158.1200  212.7210  151.8840 C   0  0  0  0  0  3  0  0  0  0  0  0
  160.7560  214.4320  148.1830 O   0  0  0  0  0  0  0  0  0  0  0  0
  162.5150  210.7070  150.7550 C   0  0  0  0  0  2  0  0  0  0  0  0
  161.3330  210.7660  151.6300 N   0  0  0  0  0  0  0  0  0  0  0  0
  161.5830  212.4950  149.3560 C   0  0  2  0  0  3  0  0  0  0  0  0
  159.1440  211.8220  152.1830 C   0  0  0  0  0  3  0  0  0  0  0  0
  161.1560  207.6450  153.7110 C   0  0  0  0  0  0  0  0  0  0  0  0
  161.2310  208.1770  154.9980 C   0  0  0  0  0  3  0  0  0  0  0  0
  161.3090  209.8810  152.7660 C   0  0  0  0  0  0  0  0  0  0  0  0
  161.3350  209.5590  155.1780 C   0  0  0  0  0  3  0  0  0  0  0  0
  161.1920  208.4910  152.5990 C   0  0  0  0  0  3  0  0  0  0  0  0
  161.3720  210.4060  154.0660 C   0  0  0  0  0  3  0  0  0  0  0  0
  161.0260  205.9130  153.4850 Cl  0  0  0  0  0  0  0  0  0  0  0  0
  155.8690  214.0230  150.0650 C   0  0  0  0  0  1  0  0  0  0  0  0
  157.1750  214.4450  150.4390 O   0  0  0  0  0  0  0  0  0  0  0  0
  161.2600  210.0840  148.8400 O   0  0  0  0  0  0  0  0  0  0  0  0
  161.9110  208.8660  148.5880 C   0  0  0  0  0  2  0  0  0  0  0  0
  161.0250  207.7220  149.0370 C   0  0  0  0  0  2  0  0  0  0  0  0
  160.4530  206.3170  146.5670 C   0  0  0  0  0  1  0  0  0  0  0  0
  161.7120  206.3900  148.7630 C   0  0  2  0  0  3  0  0  0  0  0  0
  161.7630  205.9820  147.2940 C   0  0  1  0  0  3  0  0  0  0  0  0
  161.6010  203.6960  146.1470 C   0  0  0  0  0  1  0  0  0  0  0  0
  161.2070  204.0160  148.6140 C   0  0  0  0  0  2  0  0  0  0  0  0
  161.0320  205.2460  149.4950 C   0  0  0  0  0  2  0  0  0  0  0  0
  161.9820  204.4780  147.3940 C   0  0  2  0  0  3  0  0  0  0  0  0
  1 10  1  0  0  0  0
  2  5  1  6  0  0  0
  2  7  1  0  0  0  0
  3  9  2  0  0  0  0
  6 11  1  0  0  0  0
  7  3  1  0  0  0  0
  7  1  2  0  0  0  0
  8  4  1  6  0  0  0
  8 14  1  0  0  0  0
  8 12  1  0  0  0  0
  9 13  1  0  0  0  0
  9 15  1  0  0  0  0
 10 15  2  0  0  0  0
 11  2  1  0  0  0  0
 12 13  1  0  0  0  0
 13 18  1  0  0  0  0
 14  6  1  6  0  0  0
 14  3  1  0  0  0  0
 16 17  1  0  0  0  0
 17 19  2  0  0  0  0
 18 21  2  0  0  0  0
 20 18  1  0  0  0  0
 20 16  2  0  0  0  0
 21 19  1  0  0  0  0
 22 16  1  0  0  0  0
 23 24  1  0  0  0  0
 24  1  1  0  0  0  0
 25  8  1  0  0  0  0
 26 25  1  0  0  0  0
 26 27  1  0  0  0  0
 29 27  1  6  0  0  0
 29 33  1  0  0  0  0
 30 28  1  1  0  0  0
 30 34  1  0  0  0  0
 30 29  1  0  0  0  0
 32 33  1  0  0  0  0
 34 31  1  6  0  0  0
 34 32  1  0  0  0  0
M  END
>  <MODEL>
4

>  <REMARK>
 VINA RESULT:      -5.8      2.360      3.883
  Name = 
  6 active torsions:
  status: ('A' for Active; 'I' for Inactive)
    1  A    between atoms: C_1  and  O_19
    2  A    between atoms: C_3  and  C_13
    3  A    between atoms: C_3  and  C_17
    4  A    between atoms: C_12  and  N_28
    5  A    between atoms: C_17  and  O_29
    6  A    between atoms: C_18  and  O_29
                            x       y       z     vdW  Elec       q    Type
                         _______ _______ _______ _____ _____    ______ ____

>  <TORSDO>
F 6

$$$$
=
 OpenBabel11062407483D

 34 38  0  0  1  0  0  0  0  0999 V2000
  158.7600  213.8470  149.1610 C   0  0  0  0  0  0  0  0  0  0  0  0
  160.9570  212.9330  148.2770 C   0  0  1  0  0  3  0  0  0  0  0  0
  160.1900  212.5590  150.6500 C   0  0  0  0  0  0  0  0  0  0  0  0
  162.6340  210.0350  152.2650 C   0  0  0  0  0  1  0  0  0  0  0  0
  160.4700  211.9340  147.2340 C   0  0  0  0  0  1  0  0  0  0  0  0
  162.1730  211.4700  149.5860 C   0  0  0  0  0  2  0  0  0  0  0  0
  159.9480  213.1330  149.3880 C   0  0  0  0  0  0  0  0  0  0  0  0
  161.2940  210.6770  151.9100 C   0  0  1  0  0  0  0  0  0  0  0  0
  159.2560  212.6940  151.6950 C   0  0  0  0  0  0  0  0  0  0  0  0
  157.8240  213.9700  150.1990 C   0  0  0  0  0  3  0  0  0  0  0  0
  162.2540  212.6060  148.7520 O   0  0  0  0  0  0  0  0  0  0  0  0
  160.7660  211.3200  153.1930 C   0  0  0  0  0  2  0  0  0  0  0  0
  159.5040  212.0430  152.9680 N   0  0  0  0  0  0  0  0  0  0  0  0
  161.4830  211.8380  150.9040 C   0  0  2  0  0  3  0  0  0  0  0  0
  158.0670  213.3960  151.4460 C   0  0  0  0  0  3  0  0  0  0  0  0
  156.6090  211.3210  155.2500 C   0  0  0  0  0  0  0  0  0  0  0  0
  156.7810  212.3100  156.2200 C   0  0  0  0  0  3  0  0  0  0  0  0
  158.5830  212.1180  154.0730 C   0  0  0  0  0  0  0  0  0  0  0  0
  157.8450  213.2100  156.1190 C   0  0  0  0  0  3  0  0  0  0  0  0
  157.5030  211.2280  154.1800 C   0  0  0  0  0  3  0  0  0  0  0  0
  158.7400  213.1160  155.0490 C   0  0  0  0  0  3  0  0  0  0  0  0
  155.2770  210.1920  155.3760 Cl  0  0  0  0  0  0  0  0  0  0  0  0
  157.3850  214.0840  147.1140 C   0  0  0  0  0  1  0  0  0  0  0  0
  158.5220  214.4120  147.9020 O   0  0  0  0  0  0  0  0  0  0  0  0
  160.3320  209.7160  151.4990 O   0  0  0  0  0  0  0  0  0  0  0  0
  160.7860  208.4110  151.7430 C   0  0  0  0  0  2  0  0  0  0  0  0
  161.1820  207.7650  150.4300 C   0  0  0  0  0  2  0  0  0  0  0  0
  162.3870  205.5870  151.9170 C   0  0  0  0  0  1  0  0  0  0  0  0
  160.5750  206.3700  150.3300 C   0  0  2  0  0  3  0  0  0  0  0  0
  160.9230  205.4330  151.4830 C   0  0  1  0  0  3  0  0  0  0  0  0
  161.3580  202.9080  151.5620 C   0  0  0  0  0  1  0  0  0  0  0  0
  161.0640  204.1760  149.4040 C   0  0  0  0  0  2  0  0  0  0  0  0
  161.0100  205.6580  149.0610 C   0  0  0  0  0  2  0  0  0  0  0  0
  160.6610  204.0660  150.8630 C   0  0  2  0  0  3  0  0  0  0  0  0
  1  7  2  0  0  0  0
  1 10  1  0  0  0  0
  2  5  1  6  0  0  0
  2 11  1  0  0  0  0
  2  7  1  0  0  0  0
  3 14  1  0  0  0  0
  3  9  2  0  0  0  0
  7  3  1  0  0  0  0
  8  4  1  1  0  0  0
  8 12  1  0  0  0  0
  9 13  1  0  0  0  0
 10 15  2  0  0  0  0
 11  6  1  0  0  0  0
 13 12  1  0  0  0  0
 13 18  1  0  0  0  0
 14  6  1  6  0  0  0
 14  8  1  0  0  0  0
 15  9  1  0  0  0  0
 16 22  1  0  0  0  0
 16 17  1  0  0  0  0
 18 20  1  0  0  0  0
 18 21  2  0  0  0  0
 19 17  2  0  0  0  0
 20 16  2  0  0  0  0
 21 19  1  0  0  0  0
 23 24  1  0  0  0  0
 24  1  1  0  0  0  0
 25 26  1  0  0  0  0
 25  8  1  0  0  0  0
 27 26  1  0  0  0  0
 29 27  1  1  0  0  0
 29 30  1  0  0  0  0
 30 28  1  6  0  0  0
 32 34  1  0  0  0  0
 33 32  1  0  0  0  0
 33 29  1  0  0  0  0
 34 30  1  0  0  0  0
 34 31  1  1  0  0  0
M  END
>  <MODEL>
5

>  <REMARK>
 VINA RESULT:      -5.7      2.120      3.644
  Name = 
  6 active torsions:
  status: ('A' for Active; 'I' for Inactive)
    1  A    between atoms: C_1  and  O_19
    2  A    between atoms: C_3  and  C_13
    3  A    between atoms: C_3  and  C_17
    4  A    between atoms: C_12  and  N_28
    5  A    between atoms: C_17  and  O_29
    6  A    between atoms: C_18  and  O_29
                            x       y       z     vdW  Elec       q    Type
                         _______ _______ _______ _____ _____    ______ ____

>  <TORSDO>
F 6

$$$$
=
 OpenBabel11062407483D

 34 38  0  0  1  0  0  0  0  0999 V2000
  161.2130  207.4750  155.3500 C   0  0  0  0  0  0  0  0  0  0  0  0
  161.0670  209.8710  156.1770 C   0  0  1  0  0  3  0  0  0  0  0  0
  161.2930  209.2920  153.7330 C   0  0  0  0  0  0  0  0  0  0  0  0
  160.8230  212.5640  151.7270 C   0  0  0  0  0  1  0  0  0  0  0  0
  159.6530  209.9080  156.7440 C   0  0  0  0  0  1  0  0  0  0  0  0
  160.8450  211.5790  154.6380 C   0  0  0  0  0  2  0  0  0  0  0  0
  161.2080  208.8510  155.0660 C   0  0  0  0  0  0  0  0  0  0  0  0
  160.6580  211.0880  152.0830 C   0  0  1  0  0  0  0  0  0  0  0  0
  161.3880  208.3700  152.6730 C   0  0  0  0  0  0  0  0  0  0  0  0
  161.2960  206.5570  154.2920 C   0  0  0  0  0  3  0  0  0  0  0  0
  161.5180  211.1650  155.8070 O   0  0  0  0  0  0  0  0  0  0  0  0
  161.4340  210.2960  151.0300 C   0  0  0  0  0  2  0  0  0  0  0  0
  161.4160  208.8500  151.3030 N   0  0  0  0  0  0  0  0  0  0  0  0
  161.3360  210.7640  153.4370 C   0  0  2  0  0  3  0  0  0  0  0  0
  161.3760  207.0000  152.9720 C   0  0  0  0  0  3  0  0  0  0  0  0
  161.2350  205.7570  149.1800 C   0  0  0  0  0  0  0  0  0  0  0  0
  161.6760  206.2510  147.9520 C   0  0  0  0  0  3  0  0  0  0  0  0
  161.4890  207.9650  150.1700 C   0  0  0  0  0  0  0  0  0  0  0  0
  162.0330  207.5960  147.8270 C   0  0  0  0  0  3  0  0  0  0  0  0
  161.1450  206.6080  150.2850 C   0  0  0  0  0  3  0  0  0  0  0  0
  161.9420  208.4480  148.9310 C   0  0  0  0  0  3  0  0  0  0  0  0
  160.7870  204.0720  149.3380 Cl  0  0  0  0  0  0  0  0  0  0  0  0
  159.9070  206.5920  157.2610 C   0  0  0  0  0  1  0  0  0  0  0  0
  161.1240  207.0420  156.6780 O   0  0  0  0  0  0  0  0  0  0  0  0
  159.3040  210.6660  152.0080 O   0  0  0  0  0  0  0  0  0  0  0  0
  158.4320  211.6970  152.3950 C   0  0  0  0  0  2  0  0  0  0  0  0
  157.6670  211.2690  153.6310 C   0  0  0  0  0  2  0  0  0  0  0  0
  155.5750  211.0820  155.6290 C   0  0  0  0  0  1  0  0  0  0  0  0
  157.3580  212.4830  154.5000 C   0  0  2  0  0  3  0  0  0  0  0  0
  156.6430  212.1700  155.8110 C   0  0  1  0  0  3  0  0  0  0  0  0
  154.8550  213.4470  157.1310 C   0  0  0  0  0  1  0  0  0  0  0  0
  155.6230  214.1520  154.8380 C   0  0  0  0  0  2  0  0  0  0  0  0
  156.4820  213.4870  153.7710 C   0  0  0  0  0  2  0  0  0  0  0  0
  156.0210  213.5170  156.1570 C   0  0  2  0  0  3  0  0  0  0  0  0
  1 24  1  0  0  0  0
  2  5  1  6  0  0  0
  3  7  2  0  0  0  0
  6 11  1  0  0  0  0
  7  1  1  0  0  0  0
  7  2  1  0  0  0  0
  8  4  1  6  0  0  0
  8 14  1  0  0  0  0
  9 15  2  0  0  0  0
  9  3  1  0  0  0  0
 10  1  2  0  0  0  0
 11  2  1  0  0  0  0
 12 13  1  0  0  0  0
 12  8  1  0  0  0  0
 13  9  1  0  0  0  0
 14  3  1  0  0  0  0
 14  6  1  1  0  0  0
 15 10  1  0  0  0  0
 16 22  1  0  0  0  0
 16 20  1  0  0  0  0
 17 16  2  0  0  0  0
 18 20  2  0  0  0  0
 18 13  1  0  0  0  0
 19 17  1  0  0  0  0
 19 21  2  0  0  0  0
 21 18  1  0  0  0  0
 24 23  1  0  0  0  0
 25  8  1  0  0  0  0
 25 26  1  0  0  0  0
 26 27  1  0  0  0  0
 29 27  1  6  0  0  0
 29 30  1  0  0  0  0
 30 28  1  6  0  0  0
 30 34  1  0  0  0  0
 32 34  1  0  0  0  0
 33 29  1  0  0  0  0
 33 32  1  0  0  0  0
 34 31  1  1  0  0  0
M  END
>  <MODEL>
6

>  <REMARK>
 VINA RESULT:      -5.0      4.597      9.115
  Name = 
  6 active torsions:
  status: ('A' for Active; 'I' for Inactive)
    1  A    between atoms: C_1  and  O_19
    2  A    between atoms: C_3  and  C_13
    3  A    between atoms: C_3  and  C_17
    4  A    between atoms: C_12  and  N_28
    5  A    between atoms: C_17  and  O_29
    6  A    between atoms: C_18  and  O_29
                            x       y       z     vdW  Elec       q    Type
                         _______ _______ _______ _____ _____    ______ ____

>  <TORSDO>
F 6

$$$$
=
 OpenBabel11062407483D

 34 38  0  0  1  0  0  0  0  0999 V2000
  160.6480  207.5910  154.6550 C   0  0  0  0  0  0  0  0  0  0  0  0
  161.3750  209.8040  153.6450 C   0  0  1  0  0  3  0  0  0  0  0  0
  161.5810  207.6150  152.4080 C   0  0  0  0  0  0  0  0  0  0  0  0
  162.6180  208.4410  148.7750 C   0  0  0  0  0  1  0  0  0  0  0  0
  160.0420  210.5330  153.5280 C   0  0  0  0  0  1  0  0  0  0  0  0
  161.9820  209.8760  151.4180 C   0  0  0  0  0  2  0  0  0  0  0  0
  161.2080  208.3000  153.5790 C   0  0  0  0  0  0  0  0  0  0  0  0
  161.8560  207.7530  149.9080 C   0  0  1  0  0  0  0  0  0  0  0  0
  161.4060  206.2230  152.2990 C   0  0  0  0  0  0  0  0  0  0  0  0
  160.4620  206.2050  154.5410 C   0  0  0  0  0  3  0  0  0  0  0  0
  162.3280  210.3000  152.7190 O   0  0  0  0  0  0  0  0  0  0  0  0
  162.3540  206.3080  149.9530 C   0  0  0  0  0  2  0  0  0  0  0  0
  161.7460  205.5510  151.0580 N   0  0  0  0  0  0  0  0  0  0  0  0
  162.2240  208.3690  151.2790 C   0  0  2  0  0  3  0  0  0  0  0  0
  160.8300  205.5320  153.3760 C   0  0  0  0  0  3  0  0  0  0  0  0
  161.0260  202.2340  149.4500 C   0  0  0  0  0  0  0  0  0  0  0  0
  161.2050  201.3690  150.5310 C   0  0  0  0  0  3  0  0  0  0  0  0
  161.5720  204.1340  150.8680 C   0  0  0  0  0  0  0  0  0  0  0  0
  161.5580  201.8790  151.7830 C   0  0  0  0  0  3  0  0  0  0  0  0
  161.2050  203.6100  149.6180 C   0  0  0  0  0  3  0  0  0  0  0  0
  161.7380  203.2550  151.9500 C   0  0  0  0  0  3  0  0  0  0  0  0
  160.5840  201.5960  147.8810 Cl  0  0  0  0  0  0  0  0  0  0  0  0
  160.5160  207.7700  157.1220 C   0  0  0  0  0  1  0  0  0  0  0  0
  160.2730  208.2770  155.8160 O   0  0  0  0  0  0  0  0  0  0  0  0
  160.4580  207.7050  149.6600 O   0  0  0  0  0  0  0  0  0  0  0  0
  160.1350  206.6490  148.7940 C   0  0  0  0  0  2  0  0  0  0  0  0
  160.4560  207.0540  147.3690 C   0  0  0  0  0  2  0  0  0  0  0  0
  162.9880  205.7810  146.7590 C   0  0  0  0  0  1  0  0  0  0  0  0
  160.4730  205.8250  146.4680 C   0  0  2  0  0  3  0  0  0  0  0  0
  161.7120  204.9440  146.6040 C   0  0  1  0  0  3  0  0  0  0  0  0
  163.0360  203.5780  144.8860 C   0  0  0  0  0  1  0  0  0  0  0  0
  161.1710  205.1440  144.2400 C   0  0  0  0  0  2  0  0  0  0  0  0
  160.3840  206.2030  145.0000 C   0  0  0  0  0  2  0  0  0  0  0  0
  161.6970  204.1790  145.2860 C   0  0  2  0  0  3  0  0  0  0  0  0
  1 24  1  0  0  0  0
  2  5  1  6  0  0  0
  3  7  1  0  0  0  0
  6 11  1  0  0  0  0
  7  2  1  0  0  0  0
  7  1  2  0  0  0  0
  8  4  1  6  0  0  0
  8 12  1  0  0  0  0
  8 14  1  0  0  0  0
  9  3  2  0  0  0  0
  9 15  1  0  0  0  0
 10  1  1  0  0  0  0
 11  2  1  0  0  0  0
 12 13  1  0  0  0  0
 13  9  1  0  0  0  0
 14  6  1  6  0  0  0
 14  3  1  0  0  0  0
 15 10  2  0  0  0  0
 16 20  2  0  0  0  0
 16 17  1  0  0  0  0
 17 19  2  0  0  0  0
 18 13  1  0  0  0  0
 18 21  2  0  0  0  0
 19 21  1  0  0  0  0
 20 18  1  0  0  0  0
 22 16  1  0  0  0  0
 24 23  1  0  0  0  0
 25  8  1  0  0  0  0
 26 25  1  0  0  0  0
 27 26  1  0  0  0  0
 29 30  1  0  0  0  0
 29 27  1  1  0  0  0
 30 28  1  6  0  0  0
 32 33  1  0  0  0  0
 32 34  1  0  0  0  0
 33 29  1  0  0  0  0
 34 31  1  6  0  0  0
 34 30  1  0  0  0  0
M  END
>  <MODEL>
7

>  <REMARK>
 VINA RESULT:      -4.9      5.383      8.715
  Name = 
  6 active torsions:
  status: ('A' for Active; 'I' for Inactive)
    1  A    between atoms: C_1  and  O_19
    2  A    between atoms: C_3  and  C_13
    3  A    between atoms: C_3  and  C_17
    4  A    between atoms: C_12  and  N_28
    5  A    between atoms: C_17  and  O_29
    6  A    between atoms: C_18  and  O_29
                            x       y       z     vdW  Elec       q    Type
                         _______ _______ _______ _____ _____    ______ ____

>  <TORSDO>
F 6

$$$$
