=
 OpenBabel11052422273D

 31 35  0  0  1  0  0  0  0  0999 V2000
  160.4230  209.8920  154.1010 C   0  0  2  0  0  3  0  0  0  0  0  0
  159.4810  210.9600  154.7170 C   0  0  2  0  0  3  0  0  0  0  0  0
  157.2540  211.3040  155.8340 C   0  0  0  0  0  2  0  0  0  0  0  0
  158.2160  210.2790  155.2380 C   0  0  0  0  0  2  0  0  0  0  0  0
  159.9820  212.6110  153.0210 O   0  0  0  0  0  0  0  0  0  0  0  0
  156.9270  212.3840  154.8410 C   0  0  0  0  0  0  0  0  0  0  0  0
  155.6920  213.0160  154.9070 O   0  0  0  0  0  1  0  0  0  0  0  0
  159.1340  212.1320  153.8190 C   0  0  0  0  0  0  0  0  0  0  0  0
  157.8180  212.7800  153.9300 C   0  0  0  0  0  3  0  0  0  0  0  0
  162.3550  210.9970  156.6160 C   0  0  0  0  0  2  0  0  0  0  0  0
  161.5860  209.5430  154.9380 N   0  0  0  0  0  0  0  0  0  0  0  0
  161.8650  209.8530  157.2510 O   0  0  0  0  0  0  0  0  0  0  0  0
  162.4500  210.6860  155.1510 C   0  0  0  0  0  2  0  0  0  0  0  0
  161.1290  209.1600  156.2720 C   0  0  2  0  0  3  0  0  0  0  0  0
  159.9600  206.9710  156.4470 C   0  0  0  0  0  1  0  0  0  0  0  0
  161.3070  207.6650  156.4630 C   0  0  0  0  0  2  0  0  0  0  0  0
  162.0340  209.3210  152.2440 C   0  0  2  0  0  0  0  0  0  0  0  0
  162.7130  209.9720  151.2160 O   0  0  0  0  0  1  0  0  0  0  0  0
  160.8380  210.1530  152.6500 C   0  0  1  0  0  3  0  0  0  0  0  0
  161.7160  207.8940  151.8040 C   0  0  2  0  0  3  0  0  0  0  0  0
  160.6160  208.9480  151.7660 C   0  0  2  0  0  3  0  0  0  0  0  0
  162.7930  206.1200  153.0840 C   0  0  0  0  0  1  0  0  0  0  0  0
  161.5760  206.8970  152.8970 N   0  0  0  0  0  0  0  0  0  0  0  0
  160.4380  205.9880  152.7920 C   0  0  0  0  0  2  0  0  0  0  0  0
  160.8910  204.5180  149.3310 C   0  0  0  0  0  0  0  0  0  0  0  0
  161.0160  202.7260  150.9560 C   0  0  0  0  0  3  0  0  0  0  0  0
  160.9250  204.9400  148.0450 F   0  0  0  0  0  0  0  0  0  0  0  0
  160.6920  205.4390  150.3640 C   0  0  0  0  0  3  0  0  0  0  0  0
  160.8180  203.6470  151.9880 C   0  0  0  0  0  3  0  0  0  0  0  0
  160.6580  205.0060  151.6940 C   0  0  0  0  0  0  0  0  0  0  0  0
  161.0530  203.1610  149.6280 C   0  0  0  0  0  3  0  0  0  0  0  0
  1 11  1  1  0  0  0
  2  1  1  6  0  0  0
  2  4  1  0  0  0  0
  4  3  1  0  0  0  0
  5  8  2  0  0  0  0
  6  7  1  0  0  0  0
  6  3  1  0  0  0  0
  8  9  1  0  0  0  0
  8  2  1  0  0  0  0
  9  6  2  0  0  0  0
 10 12  1  0  0  0  0
 11 13  1  0  0  0  0
 11 14  1  0  0  0  0
 13 10  1  0  0  0  0
 14 16  1  1  0  0  0
 14 12  1  0  0  0  0
 15 16  1  0  0  0  0
 17 18  1  6  0  0  0
 17 19  1  0  0  0  0
 19  1  1  1  0  0  0
 20 17  1  0  0  0  0
 20 23  1  1  0  0  0
 21 20  1  0  0  0  0
 21 17  1  0  0  0  0
 21 19  1  0  0  0  0
 23 22  1  0  0  0  0
 24 23  1  0  0  0  0
 25 31  2  0  0  0  0
 25 28  1  0  0  0  0
 26 29  2  0  0  0  0
 27 25  1  0  0  0  0
 28 30  2  0  0  0  0
 30 29  1  0  0  0  0
 30 24  1  0  0  0  0
 31 26  1  0  0  0  0
M  END
>  <MODEL>
1

>  <REMARK>
 VINA RESULT:      -6.2      0.000      0.000
  Name = 
  7 active torsions:
  status: ('A' for Active; 'I' for Inactive)
    1  A    between atoms: C_3  and  N_9
    2  A    between atoms: C_3  and  C_22
    3  A    between atoms: C_4  and  C_5
    4  A    between atoms: C_4  and  N_12
    5  A    between atoms: C_4  and  C_21
    6  A    between atoms: N_9  and  C_23
    7  A    between atoms: C_27  and  C_28
                            x       y       z     vdW  Elec       q    Type
                         _______ _______ _______ _____ _____    ______ ____

>  <TORSDO>
F 7

$$$$
=
 OpenBabel11052422273D

 31 35  0  0  1  0  0  0  0  0999 V2000
  158.9100  211.2210  154.9580 C   0  0  2  0  0  3  0  0  0  0  0  0
  158.4290  212.1120  153.7820 C   0  0  2  0  0  3  0  0  0  0  0  0
  158.3990  212.3280  151.2760 C   0  0  0  0  0  2  0  0  0  0  0  0
  158.8380  211.4670  152.4590 C   0  0  0  0  0  2  0  0  0  0  0  0
  158.9430  214.1800  154.9290 O   0  0  0  0  0  0  0  0  0  0  0  0
  158.9360  213.7270  151.3940 C   0  0  0  0  0  0  0  0  0  0  0  0
  159.1980  214.4530  150.2400 O   0  0  0  0  0  1  0  0  0  0  0  0
  158.8630  213.5650  153.8330 C   0  0  0  0  0  0  0  0  0  0  0  0
  159.1190  214.3000  152.5840 C   0  0  0  0  0  3  0  0  0  0  0  0
  157.0950  212.9010  157.2300 C   0  0  0  0  0  2  0  0  0  0  0  0
  157.9240  211.0520  156.0420 N   0  0  0  0  0  0  0  0  0  0  0  0
  156.0280  212.3590  156.5080 O   0  0  0  0  0  0  0  0  0  0  0  0
  158.2210  211.9110  157.1690 C   0  0  0  0  0  2  0  0  0  0  0  0
  156.6080  211.4800  155.5750 C   0  0  2  0  0  3  0  0  0  0  0  0
  154.5280  210.3440  156.3350 C   0  0  0  0  0  1  0  0  0  0  0  0
  155.7120  210.2690  155.3910 C   0  0  0  0  0  2  0  0  0  0  0  0
  160.8740  210.4460  156.3390 C   0  0  2  0  0  0  0  0  0  0  0  0
  161.7760  210.9760  157.2600 O   0  0  0  0  0  1  0  0  0  0  0  0
  160.2940  211.5710  155.5110 C   0  0  1  0  0  3  0  0  0  0  0  0
  161.5660  209.3410  155.5450 C   0  0  2  0  0  3  0  0  0  0  0  0
  161.3840  210.7140  154.9090 C   0  0  2  0  0  3  0  0  0  0  0  0
  159.6900  207.8430  155.9720 C   0  0  0  0  0  1  0  0  0  0  0  0
  160.6770  208.2850  154.9960 N   0  0  0  0  0  0  0  0  0  0  0  0
  161.3440  207.1170  154.4270 C   0  0  0  0  0  2  0  0  0  0  0  0
  161.0880  205.9750  150.8250 C   0  0  0  0  0  0  0  0  0  0  0  0
  161.2360  208.3930  150.8620 C   0  0  0  0  0  3  0  0  0  0  0  0
  160.9840  204.8160  150.1320 F   0  0  0  0  0  0  0  0  0  0  0  0
  161.1570  205.9510  152.2210 C   0  0  0  0  0  3  0  0  0  0  0  0
  161.3040  208.3680  152.2580 C   0  0  0  0  0  3  0  0  0  0  0  0
  161.2620  207.1460  152.9400 C   0  0  0  0  0  0  0  0  0  0  0  0
  161.1280  207.1970  150.1460 C   0  0  0  0  0  3  0  0  0  0  0  0
  1 11  1  1  0  0  0
  2  8  1  0  0  0  0
  2  1  1  1  0  0  0
  3  6  1  0  0  0  0
  3  4  1  0  0  0  0
  4  2  1  0  0  0  0
  6  9  2  0  0  0  0
  7  6  1  0  0  0  0
  8  5  2  0  0  0  0
  9  8  1  0  0  0  0
 11 13  1  0  0  0  0
 12 10  1  0  0  0  0
 13 10  1  0  0  0  0
 14 16  1  1  0  0  0
 14 11  1  0  0  0  0
 14 12  1  0  0  0  0
 16 15  1  0  0  0  0
 17 18  1  1  0  0  0
 19  1  1  6  0  0  0
 19 17  1  0  0  0  0
 20 23  1  6  0  0  0
 20 17  1  0  0  0  0
 21 19  1  0  0  0  0
 21 20  1  0  0  0  0
 21 17  1  0  0  0  0
 23 22  1  0  0  0  0
 24 23  1  0  0  0  0
 25 28  1  0  0  0  0
 26 29  2  0  0  0  0
 27 25  1  0  0  0  0
 28 30  2  0  0  0  0
 29 30  1  0  0  0  0
 30 24  1  0  0  0  0
 31 25  2  0  0  0  0
 31 26  1  0  0  0  0
M  END
>  <MODEL>
2

>  <REMARK>
 VINA RESULT:      -6.2      1.948      4.214
  Name = 
  7 active torsions:
  status: ('A' for Active; 'I' for Inactive)
    1  A    between atoms: C_3  and  N_9
    2  A    between atoms: C_3  and  C_22
    3  A    between atoms: C_4  and  C_5
    4  A    between atoms: C_4  and  N_12
    5  A    between atoms: C_4  and  C_21
    6  A    between atoms: N_9  and  C_23
    7  A    between atoms: C_27  and  C_28
                            x       y       z     vdW  Elec       q    Type
                         _______ _______ _______ _____ _____    ______ ____

>  <TORSDO>
F 7

$$$$
=
 OpenBabel11052422273D

 31 35  0  0  1  0  0  0  0  0999 V2000
  159.5300  211.1240  153.7750 C   0  0  2  0  0  3  0  0  0  0  0  0
  159.7270  211.2780  152.2440 C   0  0  2  0  0  3  0  0  0  0  0  0
  161.4360  211.2260  150.3990 C   0  0  0  0  0  2  0  0  0  0  0  0
  161.2000  211.0610  151.8980 C   0  0  0  0  0  2  0  0  0  0  0  0
  158.1630  213.1160  152.0670 O   0  0  0  0  0  0  0  0  0  0  0  0
  160.9510  212.5650  149.9160 C   0  0  0  0  0  0  0  0  0  0  0  0
  161.5760  213.1630  148.8300 O   0  0  0  0  0  1  0  0  0  0  0  0
  159.2140  212.5710  151.6380 C   0  0  0  0  0  0  0  0  0  0  0  0
  159.9010  213.1650  150.4800 C   0  0  0  0  0  3  0  0  0  0  0  0
  157.3450  211.0670  156.3240 C   0  0  0  0  0  2  0  0  0  0  0  0
  158.3180  211.7740  154.3070 N   0  0  0  0  0  0  0  0  0  0  0  0
  157.8320  212.3600  156.5300 O   0  0  0  0  0  0  0  0  0  0  0  0
  157.3880  210.8050  154.8470 C   0  0  0  0  0  2  0  0  0  0  0  0
  158.6780  212.6260  155.4390 C   0  0  2  0  0  3  0  0  0  0  0  0
  157.0960  214.4520  154.8490 C   0  0  0  0  0  1  0  0  0  0  0  0
  158.5530  214.0850  155.0390 C   0  0  0  0  0  2  0  0  0  0  0  0
  160.9110  210.5170  155.7990 C   0  0  2  0  0  0  0  0  0  0  0  0
  161.6170  211.1640  156.8110 O   0  0  0  0  0  1  0  0  0  0  0  0
  160.7610  211.4570  154.6230 C   0  0  1  0  0  3  0  0  0  0  0  0
  161.5920  209.1870  155.4880 C   0  0  2  0  0  3  0  0  0  0  0  0
  161.8120  210.3730  154.5560 C   0  0  2  0  0  3  0  0  0  0  0  0
  159.5500  207.8870  155.7780 C   0  0  0  0  0  1  0  0  0  0  0  0
  160.7140  208.1240  154.9350 N   0  0  0  0  0  0  0  0  0  0  0  0
  161.3600  206.8480  154.6400 C   0  0  0  0  0  2  0  0  0  0  0  0
  161.1140  204.9080  151.3970 C   0  0  0  0  0  0  0  0  0  0  0  0
  161.1140  207.2760  150.8840 C   0  0  0  0  0  3  0  0  0  0  0  0
  161.0700  203.6190  150.9850 F   0  0  0  0  0  0  0  0  0  0  0  0
  161.2080  205.2040  152.7600 C   0  0  0  0  0  3  0  0  0  0  0  0
  161.2070  207.5710  152.2470 C   0  0  0  0  0  3  0  0  0  0  0  0
  161.2510  206.5350  153.1870 C   0  0  0  0  0  0  0  0  0  0  0  0
  161.0670  205.9450  150.4590 C   0  0  0  0  0  3  0  0  0  0  0  0
  1 11  1  1  0  0  0
  2  1  1  1  0  0  0
  3  4  1  0  0  0  0
  4  2  1  0  0  0  0
  6  3  1  0  0  0  0
  6  9  2  0  0  0  0
  7  6  1  0  0  0  0
  8  5  2  0  0  0  0
  8  2  1  0  0  0  0
  9  8  1  0  0  0  0
 10 12  1  0  0  0  0
 11 13  1  0  0  0  0
 11 14  1  0  0  0  0
 13 10  1  0  0  0  0
 14 16  1  6  0  0  0
 14 12  1  0  0  0  0
 15 16  1  0  0  0  0
 17 18  1  1  0  0  0
 19  1  1  6  0  0  0
 19 17  1  0  0  0  0
 20 23  1  6  0  0  0
 20 17  1  0  0  0  0
 21 19  1  0  0  0  0
 21 20  1  0  0  0  0
 21 17  1  0  0  0  0
 23 22  1  0  0  0  0
 24 23  1  0  0  0  0
 25 28  1  0  0  0  0
 26 29  2  0  0  0  0
 27 25  1  0  0  0  0
 28 30  2  0  0  0  0
 29 30  1  0  0  0  0
 30 24  1  0  0  0  0
 31 26  1  0  0  0  0
 31 25  2  0  0  0  0
M  END
>  <MODEL>
3

>  <REMARK>
 VINA RESULT:      -5.3      2.061      4.490
  Name = 
  7 active torsions:
  status: ('A' for Active; 'I' for Inactive)
    1  A    between atoms: C_3  and  N_9
    2  A    between atoms: C_3  and  C_22
    3  A    between atoms: C_4  and  C_5
    4  A    between atoms: C_4  and  N_12
    5  A    between atoms: C_4  and  C_21
    6  A    between atoms: N_9  and  C_23
    7  A    between atoms: C_27  and  C_28
                            x       y       z     vdW  Elec       q    Type
                         _______ _______ _______ _____ _____    ______ ____

>  <TORSDO>
F 7

$$$$
=
 OpenBabel11052422273D

 31 35  0  0  1  0  0  0  0  0999 V2000
  160.9210  208.3220  153.9010 C   0  0  2  0  0  3  0  0  0  0  0  0
  160.4690  209.7980  153.7410 C   0  0  2  0  0  3  0  0  0  0  0  0
  158.6000  211.2760  152.9350 C   0  0  0  0  0  2  0  0  0  0  0  0
  159.0700  209.8360  153.1260 C   0  0  0  0  0  2  0  0  0  0  0  0
  162.6670  210.5660  153.0830 O   0  0  0  0  0  0  0  0  0  0  0  0
  159.5820  212.0630  152.1120 C   0  0  0  0  0  0  0  0  0  0  0  0
  159.1230  213.1100  151.3250 O   0  0  0  0  0  1  0  0  0  0  0  0
  161.4200  210.7010  152.9780 C   0  0  0  0  0  0  0  0  0  0  0  0
  160.8900  211.8060  152.1630 C   0  0  0  0  0  3  0  0  0  0  0  0
  162.3720  207.7170  150.9340 C   0  0  0  0  0  2  0  0  0  0  0  0
  160.8090  207.5100  152.6750 N   0  0  0  0  0  0  0  0  0  0  0  0
  162.5200  206.4370  151.4740 O   0  0  0  0  0  0  0  0  0  0  0  0
  161.1030  208.2910  151.4920 C   0  0  0  0  0  2  0  0  0  0  0  0
  161.8200  206.4560  152.6940 C   0  0  2  0  0  3  0  0  0  0  0  0
  161.2270  204.2710  151.6620 C   0  0  0  0  0  1  0  0  0  0  0  0
  161.1520  205.1120  152.9200 C   0  0  0  0  0  2  0  0  0  0  0  0
  161.1060  207.8770  156.3780 C   0  0  2  0  0  0  0  0  0  0  0  0
  160.9420  206.8120  157.2610 O   0  0  0  0  0  1  0  0  0  0  0  0
  160.3310  207.5920  155.1110 C   0  0  1  0  0  3  0  0  0  0  0  0
  160.7370  209.1750  157.0910 C   0  0  2  0  0  3  0  0  0  0  0  0
  159.7420  208.5470  156.1230 C   0  0  2  0  0  3  0  0  0  0  0  0
  162.8490  210.2670  156.5480 C   0  0  0  0  0  1  0  0  0  0  0  0
  161.4000  210.4040  156.5810 N   0  0  0  0  0  0  0  0  0  0  0  0
  161.0520  211.6480  157.2600 C   0  0  0  0  0  2  0  0  0  0  0  0
  157.4020  212.1650  156.3910 C   0  0  0  0  0  0  0  0  0  0  0  0
  158.7070  213.8920  155.3050 C   0  0  0  0  0  3  0  0  0  0  0  0
  156.2050  211.5860  156.6490 F   0  0  0  0  0  0  0  0  0  0  0  0
  158.5700  211.6290  156.9420 C   0  0  0  0  0  3  0  0  0  0  0  0
  159.8750  213.3570  155.8580 C   0  0  0  0  0  3  0  0  0  0  0  0
  159.8070  212.2260  156.6790 C   0  0  0  0  0  0  0  0  0  0  0  0
  157.4710  213.2960  155.5720 C   0  0  0  0  0  3  0  0  0  0  0  0
  1 11  1  6  0  0  0
  2  1  1  6  0  0  0
  3  4  1  0  0  0  0
  4  2  1  0  0  0  0
  6  9  2  0  0  0  0
  6  3  1  0  0  0  0
  7  6  1  0  0  0  0
  8  5  2  0  0  0  0
  8  2  1  0  0  0  0
  9  8  1  0  0  0  0
 10 12  1  0  0  0  0
 10 13  1  0  0  0  0
 11 14  1  0  0  0  0
 12 14  1  0  0  0  0
 13 11  1  0  0  0  0
 14 16  1  6  0  0  0
 15 16  1  0  0  0  0
 17 20  1  0  0  0  0
 17 18  1  1  0  0  0
 19  1  1  6  0  0  0
 19 21  1  0  0  0  0
 19 17  1  0  0  0  0
 20 23  1  6  0  0  0
 21 17  1  0  0  0  0
 21 20  1  0  0  0  0
 22 23  1  0  0  0  0
 23 24  1  0  0  0  0
 25 27  1  0  0  0  0
 25 28  1  0  0  0  0
 26 31  1  0  0  0  0
 26 29  2  0  0  0  0
 29 30  1  0  0  0  0
 30 28  2  0  0  0  0
 30 24  1  0  0  0  0
 31 25  2  0  0  0  0
M  END
>  <MODEL>
4

>  <REMARK>
 VINA RESULT:      -5.2      2.755      6.623
  Name = 
  7 active torsions:
  status: ('A' for Active; 'I' for Inactive)
    1  A    between atoms: C_3  and  N_9
    2  A    between atoms: C_3  and  C_22
    3  A    between atoms: C_4  and  C_5
    4  A    between atoms: C_4  and  N_12
    5  A    between atoms: C_4  and  C_21
    6  A    between atoms: N_9  and  C_23
    7  A    between atoms: C_27  and  C_28
                            x       y       z     vdW  Elec       q    Type
                         _______ _______ _______ _____ _____    ______ ____

>  <TORSDO>
F 7

$$$$
=
 OpenBabel11052422273D

 31 35  0  0  1  0  0  0  0  0999 V2000
  161.6290  204.3610  148.5090 C   0  0  2  0  0  3  0  0  0  0  0  0
  161.7080  205.3110  147.2840 C   0  0  2  0  0  3  0  0  0  0  0  0
  160.4220  206.1960  145.3120 C   0  0  0  0  0  2  0  0  0  0  0  0
  160.3740  205.2880  146.5390 C   0  0  0  0  0  2  0  0  0  0  0  0
  163.9910  204.7030  146.7610 O   0  0  0  0  0  0  0  0  0  0  0  0
  161.5620  205.8270  144.4060 C   0  0  0  0  0  0  0  0  0  0  0  0
  161.4470  206.0540  143.0410 O   0  0  0  0  0  1  0  0  0  0  0  0
  162.8640  205.0660  146.3320 C   0  0  0  0  0  0  0  0  0  0  0  0
  162.7010  205.3310  144.8940 C   0  0  0  0  0  3  0  0  0  0  0  0
  160.7680  201.2280  149.3570 C   0  0  0  0  0  2  0  0  0  0  0  0
  161.8860  202.9420  148.2040 N   0  0  0  0  0  0  0  0  0  0  0  0
  160.3390  201.1820  148.0280 O   0  0  0  0  0  0  0  0  0  0  0  0
  161.9560  202.1430  149.4100 C   0  0  0  0  0  2  0  0  0  0  0  0
  160.7620  202.3930  147.4500 C   0  0  2  0  0  3  0  0  0  0  0  0
  160.0810  201.4310  145.2590 C   0  0  0  0  0  1  0  0  0  0  0  0
  161.1800  202.1530  146.0110 C   0  0  0  0  0  2  0  0  0  0  0  0
  160.7200  204.9500  150.7890 C   0  0  2  0  0  0  0  0  0  0  0  0
  159.7060  204.5300  151.6470 O   0  0  0  0  0  1  0  0  0  0  0  0
  160.3780  204.5280  149.3770 C   0  0  1  0  0  3  0  0  0  0  0  0
  160.9490  206.4460  150.9850 C   0  0  2  0  0  3  0  0  0  0  0  0
  160.1490  205.9670  149.7800 C   0  0  2  0  0  3  0  0  0  0  0  0
  163.3430  206.2030  151.3820 C   0  0  0  0  0  1  0  0  0  0  0  0
  162.3140  206.9390  150.6610 N   0  0  0  0  0  0  0  0  0  0  0  0
  162.5360  208.3720  150.8380 C   0  0  0  0  0  2  0  0  0  0  0  0
  160.8310  208.7180  154.2020 C   0  0  0  0  0  0  0  0  0  0  0  0
  160.1010  210.5330  152.7740 C   0  0  0  0  0  3  0  0  0  0  0  0
  160.7930  208.0740  155.3930 F   0  0  0  0  0  0  0  0  0  0  0  0
  161.6380  208.2320  153.1700 C   0  0  0  0  0  3  0  0  0  0  0  0
  160.9090  210.0470  151.7420 C   0  0  0  0  0  3  0  0  0  0  0  0
  161.6810  208.8970  151.9400 C   0  0  0  0  0  0  0  0  0  0  0  0
  160.0620  209.8690  154.0040 C   0  0  0  0  0  3  0  0  0  0  0  0
  1 11  1  6  0  0  0
  2  1  1  1  0  0  0
  3  4  1  0  0  0  0
  4  2  1  0  0  0  0
  6  9  2  0  0  0  0
  6  3  1  0  0  0  0
  7  6  1  0  0  0  0
  8  5  2  0  0  0  0
  8  2  1  0  0  0  0
  9  8  1  0  0  0  0
 10 13  1  0  0  0  0
 11 13  1  0  0  0  0
 12 10  1  0  0  0  0
 14 16  1  6  0  0  0
 14 12  1  0  0  0  0
 14 11  1  0  0  0  0
 15 16  1  0  0  0  0
 17 20  1  0  0  0  0
 17 18  1  1  0  0  0
 19  1  1  6  0  0  0
 19 21  1  0  0  0  0
 19 17  1  0  0  0  0
 20 23  1  6  0  0  0
 21 17  1  0  0  0  0
 21 20  1  0  0  0  0
 23 24  1  0  0  0  0
 23 22  1  0  0  0  0
 24 30  1  0  0  0  0
 25 27  1  0  0  0  0
 26 31  2  0  0  0  0
 28 25  2  0  0  0  0
 29 30  2  0  0  0  0
 29 26  1  0  0  0  0
 30 28  1  0  0  0  0
 31 25  1  0  0  0  0
M  END
>  <MODEL>
5

>  <REMARK>
 VINA RESULT:      -4.3      4.142      9.127
  Name = 
  7 active torsions:
  status: ('A' for Active; 'I' for Inactive)
    1  A    between atoms: C_3  and  N_9
    2  A    between atoms: C_3  and  C_22
    3  A    between atoms: C_4  and  C_5
    4  A    between atoms: C_4  and  N_12
    5  A    between atoms: C_4  and  C_21
    6  A    between atoms: N_9  and  C_23
    7  A    between atoms: C_27  and  C_28
                            x       y       z     vdW  Elec       q    Type
                         _______ _______ _______ _____ _____    ______ ____

>  <TORSDO>
F 7

$$$$
=
 OpenBabel11052422273D

 31 35  0  0  1  0  0  0  0  0999 V2000
  160.8840  208.3000  153.4830 C   0  0  2  0  0  3  0  0  0  0  0  0
  161.4230  207.3440  152.3860 C   0  0  2  0  0  3  0  0  0  0  0  0
  161.1990  206.6970  149.9660 C   0  0  0  0  0  2  0  0  0  0  0  0
  160.7080  207.6340  151.0670 C   0  0  0  0  0  2  0  0  0  0  0  0
  161.5810  205.4530  153.8870 O   0  0  0  0  0  0  0  0  0  0  0  0
  161.0440  205.2570  150.3690 C   0  0  0  0  0  0  0  0  0  0  0  0
  160.8310  204.2970  149.3890 O   0  0  0  0  0  1  0  0  0  0  0  0
  161.3720  205.8640  152.7150 C   0  0  0  0  0  0  0  0  0  0  0  0
  161.1550  204.8800  151.6440 C   0  0  0  0  0  3  0  0  0  0  0  0
  162.7060  210.3980  151.5970 C   0  0  0  0  0  2  0  0  0  0  0  0
  161.1860  209.7260  153.2570 N   0  0  0  0  0  0  0  0  0  0  0  0
  161.4430  210.8570  151.2130 O   0  0  0  0  0  0  0  0  0  0  0  0
  162.5990  209.9390  153.0220 C   0  0  0  0  0  2  0  0  0  0  0  0
  160.5260  210.1760  152.0340 C   0  0  2  0  0  3  0  0  0  0  0  0
  159.7230  212.5310  152.0340 C   0  0  0  0  0  1  0  0  0  0  0  0
  159.3730  211.0990  152.3860 C   0  0  0  0  0  2  0  0  0  0  0  0
  161.2340  209.0660  155.8630 C   0  0  2  0  0  0  0  0  0  0  0  0
  162.0630  208.7690  156.9420 O   0  0  0  0  0  1  0  0  0  0  0  0
  161.2060  207.8820  154.9210 C   0  0  1  0  0  3  0  0  0  0  0  0
  159.8720  209.5120  156.3890 C   0  0  2  0  0  3  0  0  0  0  0  0
  160.0360  208.0950  155.8540 C   0  0  2  0  0  3  0  0  0  0  0  0
  159.4190  211.8200  155.7470 C   0  0  0  0  0  1  0  0  0  0  0  0
  159.1010  210.4210  155.5010 N   0  0  0  0  0  0  0  0  0  0  0  0
  157.6510  210.2490  155.5130 C   0  0  0  0  0  2  0  0  0  0  0  0
  156.1220  213.4780  154.2580 C   0  0  0  0  0  0  0  0  0  0  0  0
  155.9360  213.4210  156.6720 C   0  0  0  0  0  3  0  0  0  0  0  0
  155.9090  214.1110  153.0790 F   0  0  0  0  0  0  0  0  0  0  0  0
  156.7520  212.2300  154.2780 C   0  0  0  0  0  3  0  0  0  0  0  0
  156.5650  212.1730  156.6910 C   0  0  0  0  0  3  0  0  0  0  0  0
  156.9720  211.5750  155.4940 C   0  0  0  0  0  0  0  0  0  0  0  0
  155.7140  214.0740  155.4560 C   0  0  0  0  0  3  0  0  0  0  0  0
  1 11  1  6  0  0  0
  2  8  1  0  0  0  0
  2  1  1  1  0  0  0
  3  6  1  0  0  0  0
  3  4  1  0  0  0  0
  4  2  1  0  0  0  0
  6  9  2  0  0  0  0
  7  6  1  0  0  0  0
  8  5  2  0  0  0  0
  9  8  1  0  0  0  0
 10 13  1  0  0  0  0
 12 10  1  0  0  0  0
 12 14  1  0  0  0  0
 13 11  1  0  0  0  0
 14 16  1  1  0  0  0
 14 11  1  0  0  0  0
 15 16  1  0  0  0  0
 17 20  1  0  0  0  0
 17 18  1  1  0  0  0
 19  1  1  6  0  0  0
 19 21  1  0  0  0  0
 19 17  1  0  0  0  0
 20 23  1  6  0  0  0
 21 17  1  0  0  0  0
 21 20  1  0  0  0  0
 23 24  1  0  0  0  0
 23 22  1  0  0  0  0
 25 28  2  0  0  0  0
 25 31  1  0  0  0  0
 26 29  1  0  0  0  0
 27 25  1  0  0  0  0
 28 30  1  0  0  0  0
 30 24  1  0  0  0  0
 30 29  2  0  0  0  0
 31 26  2  0  0  0  0
M  END
>  <MODEL>
6

>  <REMARK>
 VINA RESULT:      -4.3      2.890      7.601
  Name = 
  7 active torsions:
  status: ('A' for Active; 'I' for Inactive)
    1  A    between atoms: C_3  and  N_9
    2  A    between atoms: C_3  and  C_22
    3  A    between atoms: C_4  and  C_5
    4  A    between atoms: C_4  and  N_12
    5  A    between atoms: C_4  and  C_21
    6  A    between atoms: N_9  and  C_23
    7  A    between atoms: C_27  and  C_28
                            x       y       z     vdW  Elec       q    Type
                         _______ _______ _______ _____ _____    ______ ____

>  <TORSDO>
F 7

$$$$
=
 OpenBabel11052422273D

 31 35  0  0  1  0  0  0  0  0999 V2000
  161.5600  204.1640  148.6430 C   0  0  2  0  0  3  0  0  0  0  0  0
  161.6300  205.1650  147.4590 C   0  0  2  0  0  3  0  0  0  0  0  0
  160.2970  206.2030  145.5950 C   0  0  0  0  0  2  0  0  0  0  0  0
  160.2620  205.2410  146.7810 C   0  0  0  0  0  2  0  0  0  0  0  0
  163.8510  204.4730  146.7970 O   0  0  0  0  0  0  0  0  0  0  0  0
  161.3740  205.8230  144.6180 C   0  0  0  0  0  0  0  0  0  0  0  0
  161.2060  206.1190  143.2720 O   0  0  0  0  0  1  0  0  0  0  0  0
  162.7250  204.9100  146.4410 C   0  0  0  0  0  0  0  0  0  0  0  0
  162.5080  205.2500  145.0260 C   0  0  0  0  0  3  0  0  0  0  0  0
  160.9560  200.9560  149.4300 C   0  0  0  0  0  2  0  0  0  0  0  0
  161.9140  202.7760  148.2940 N   0  0  0  0  0  0  0  0  0  0  0  0
  160.4960  200.9100  148.1110 O   0  0  0  0  0  0  0  0  0  0  0  0
  162.0740  201.9550  149.4770 C   0  0  0  0  0  2  0  0  0  0  0  0
  160.8120  202.1630  147.5550 C   0  0  2  0  0  3  0  0  0  0  0  0
  159.9870  201.6780  145.2580 C   0  0  0  0  0  1  0  0  0  0  0  0
  161.2080  201.9900  146.1000 C   0  0  0  0  0  2  0  0  0  0  0  0
  160.5480  204.3360  150.9480 C   0  0  2  0  0  0  0  0  0  0  0  0
  159.4690  203.8100  151.6550 O   0  0  0  0  0  1  0  0  0  0  0  0
  160.2700  204.2230  149.4660 C   0  0  1  0  0  3  0  0  0  0  0  0
  160.8310  205.7490  151.4520 C   0  0  2  0  0  3  0  0  0  0  0  0
  160.0810  205.5630  150.1390 C   0  0  2  0  0  3  0  0  0  0  0  0
  163.1750  205.3590  151.9980 C   0  0  0  0  0  1  0  0  0  0  0  0
  162.2310  206.2220  151.3000 N   0  0  0  0  0  0  0  0  0  0  0  0
  162.4830  207.6100  151.6750 C   0  0  0  0  0  2  0  0  0  0  0  0
  161.9250  210.7170  149.5820 C   0  0  0  0  0  0  0  0  0  0  0  0
  162.1620  208.8160  148.0990 C   0  0  0  0  0  3  0  0  0  0  0  0
  161.7240  212.0430  149.7670 F   0  0  0  0  0  0  0  0  0  0  0  0
  162.0980  209.8760  150.6860 C   0  0  0  0  0  3  0  0  0  0  0  0
  162.3360  207.9760  149.2030 C   0  0  0  0  0  3  0  0  0  0  0  0
  162.3070  208.5060  150.4980 C   0  0  0  0  0  0  0  0  0  0  0  0
  161.9570  210.1860  148.2890 C   0  0  0  0  0  3  0  0  0  0  0  0
  1 11  1  6  0  0  0
  2  1  1  1  0  0  0
  3  4  1  0  0  0  0
  4  2  1  0  0  0  0
  6  9  2  0  0  0  0
  6  3  1  0  0  0  0
  7  6  1  0  0  0  0
  8  5  2  0  0  0  0
  8  2  1  0  0  0  0
  9  8  1  0  0  0  0
 10 13  1  0  0  0  0
 11 13  1  0  0  0  0
 12 10  1  0  0  0  0
 14 16  1  6  0  0  0
 14 12  1  0  0  0  0
 14 11  1  0  0  0  0
 15 16  1  0  0  0  0
 17 20  1  0  0  0  0
 17 18  1  1  0  0  0
 19  1  1  6  0  0  0
 19 21  1  0  0  0  0
 19 17  1  0  0  0  0
 20 23  1  6  0  0  0
 21 17  1  0  0  0  0
 21 20  1  0  0  0  0
 23 24  1  0  0  0  0
 23 22  1  0  0  0  0
 25 27  1  0  0  0  0
 25 28  1  0  0  0  0
 26 31  1  0  0  0  0
 26 29  2  0  0  0  0
 29 30  1  0  0  0  0
 30 28  2  0  0  0  0
 30 24  1  0  0  0  0
 31 25  2  0  0  0  0
M  END
>  <MODEL>
7

>  <REMARK>
 VINA RESULT:      -3.9      5.048      9.027
  Name = 
  7 active torsions:
  status: ('A' for Active; 'I' for Inactive)
    1  A    between atoms: C_3  and  N_9
    2  A    between atoms: C_3  and  C_22
    3  A    between atoms: C_4  and  C_5
    4  A    between atoms: C_4  and  N_12
    5  A    between atoms: C_4  and  C_21
    6  A    between atoms: N_9  and  C_23
    7  A    between atoms: C_27  and  C_28
                            x       y       z     vdW  Elec       q    Type
                         _______ _______ _______ _____ _____    ______ ____

>  <TORSDO>
F 7

$$$$
=
 OpenBabel11052422273D

 31 35  0  0  1  0  0  0  0  0999 V2000
  160.8020  208.4500  152.9480 C   0  0  2  0  0  3  0  0  0  0  0  0
  160.3810  209.6260  152.0270 C   0  0  2  0  0  3  0  0  0  0  0  0
  161.2530  211.4170  150.4920 C   0  0  0  0  0  2  0  0  0  0  0  0
  161.6270  210.2410  151.3910 C   0  0  0  0  0  2  0  0  0  0  0  0
  158.6500  210.3940  153.5320 O   0  0  0  0  0  0  0  0  0  0  0  0
  160.4570  212.4450  151.2450 C   0  0  0  0  0  0  0  0  0  0  0  0
  160.5420  213.7790  150.8700 O   0  0  0  0  0  1  0  0  0  0  0  0
  159.5190  210.6940  152.6720 C   0  0  0  0  0  0  0  0  0  0  0  0
  159.6340  212.0950  152.2350 C   0  0  0  0  0  3  0  0  0  0  0  0
  161.1220  207.0540  155.9860 C   0  0  0  0  0  2  0  0  0  0  0  0
  160.5510  208.6750  154.3840 N   0  0  0  0  0  0  0  0  0  0  0  0
  161.9440  208.1630  156.2070 O   0  0  0  0  0  0  0  0  0  0  0  0
  160.0480  207.4800  155.0290 C   0  0  0  0  0  2  0  0  0  0  0  0
  161.8140  208.9660  155.0590 C   0  0  2  0  0  3  0  0  0  0  0  0
  163.0530  210.7010  156.3420 C   0  0  0  0  0  1  0  0  0  0  0  0
  161.8540  210.4310  155.4550 C   0  0  0  0  0  2  0  0  0  0  0  0
  162.2170  206.4170  152.4630 C   0  0  2  0  0  0  0  0  0  0  0  0
  163.4580  205.8990  152.8280 O   0  0  0  0  0  1  0  0  0  0  0  0
  162.2140  207.9110  152.7050 C   0  0  1  0  0  3  0  0  0  0  0  0
  161.9010  205.9880  151.0320 C   0  0  2  0  0  3  0  0  0  0  0  0
  162.3980  207.4050  151.2930 C   0  0  2  0  0  3  0  0  0  0  0  0
  159.9360  204.5510  150.8910 C   0  0  0  0  0  1  0  0  0  0  0  0
  160.4580  205.8960  150.6890 N   0  0  0  0  0  0  0  0  0  0  0  0
  160.0860  206.3590  149.3550 C   0  0  0  0  0  2  0  0  0  0  0  0
  162.1300  205.5470  146.2710 C   0  0  0  0  0  0  0  0  0  0  0  0
  161.5880  203.4780  147.4070 C   0  0  0  0  0  3  0  0  0  0  0  0
  162.7240  206.2020  145.2460 F   0  0  0  0  0  0  0  0  0  0  0  0
  161.4400  206.2660  147.2530 C   0  0  0  0  0  3  0  0  0  0  0  0
  160.9000  204.1960  148.3890 C   0  0  0  0  0  3  0  0  0  0  0  0
  160.8270  205.5920  148.3150 C   0  0  0  0  0  0  0  0  0  0  0  0
  162.2030  204.1530  146.3490 C   0  0  0  0  0  3  0  0  0  0  0  0
  1 11  1  1  0  0  0
  2  8  1  0  0  0  0
  2  1  1  1  0  0  0
  3  6  1  0  0  0  0
  3  4  1  0  0  0  0
  4  2  1  0  0  0  0
  6  9  2  0  0  0  0
  7  6  1  0  0  0  0
  8  5  2  0  0  0  0
  9  8  1  0  0  0  0
 10 12  1  0  0  0  0
 11 13  1  0  0  0  0
 11 14  1  0  0  0  0
 13 10  1  0  0  0  0
 14 16  1  1  0  0  0
 14 12  1  0  0  0  0
 16 15  1  0  0  0  0
 17 19  1  0  0  0  0
 17 18  1  1  0  0  0
 19  1  1  6  0  0  0
 20 23  1  1  0  0  0
 20 21  1  0  0  0  0
 20 17  1  0  0  0  0
 21 17  1  0  0  0  0
 21 19  1  0  0  0  0
 23 22  1  0  0  0  0
 24 23  1  0  0  0  0
 25 31  2  0  0  0  0
 25 28  1  0  0  0  0
 26 29  2  0  0  0  0
 27 25  1  0  0  0  0
 28 30  2  0  0  0  0
 30 29  1  0  0  0  0
 30 24  1  0  0  0  0
 31 26  1  0  0  0  0
M  END
>  <MODEL>
8

>  <REMARK>
 VINA RESULT:      -3.8      2.210      3.629
  Name = 
  7 active torsions:
  status: ('A' for Active; 'I' for Inactive)
    1  A    between atoms: C_3  and  N_9
    2  A    between atoms: C_3  and  C_22
    3  A    between atoms: C_4  and  C_5
    4  A    between atoms: C_4  and  N_12
    5  A    between atoms: C_4  and  C_21
    6  A    between atoms: N_9  and  C_23
    7  A    between atoms: C_27  and  C_28
                            x       y       z     vdW  Elec       q    Type
                         _______ _______ _______ _____ _____    ______ ____

>  <TORSDO>
F 7

$$$$
=
 OpenBabel11052422273D

 31 35  0  0  1  0  0  0  0  0999 V2000
  161.0710  203.1960  147.2910 C   0  0  2  0  0  3  0  0  0  0  0  0
  161.4180  203.3480  148.7960 C   0  0  2  0  0  3  0  0  0  0  0  0
  161.7940  202.0770  150.9330 C   0  0  0  0  0  2  0  0  0  0  0  0
  161.4750  201.9660  149.4440 C   0  0  0  0  0  2  0  0  0  0  0  0
  160.0600  205.3320  149.0720 O   0  0  0  0  0  0  0  0  0  0  0  0
  160.8110  202.9720  151.6340 C   0  0  0  0  0  0  0  0  0  0  0  0
  160.5200  202.7440  152.9730 O   0  0  0  0  0  1  0  0  0  0  0  0
  160.5230  204.2820  149.5890 C   0  0  0  0  0  0  0  0  0  0  0  0
  160.2500  204.0080  151.0090 C   0  0  0  0  0  3  0  0  0  0  0  0
  159.3330  201.6980  144.8390 C   0  0  0  0  0  2  0  0  0  0  0  0
  160.3110  201.9770  146.9560 N   0  0  0  0  0  0  0  0  0  0  0  0
  160.3430  200.7400  144.9590 O   0  0  0  0  0  0  0  0  0  0  0  0
  159.1150  202.2870  146.2020 C   0  0  0  0  0  2  0  0  0  0  0  0
  161.1090  201.1330  146.0710 C   0  0  2  0  0  3  0  0  0  0  0  0
  161.5810  198.6950  145.9110 C   0  0  0  0  0  1  0  0  0  0  0  0
  161.5810  199.9040  146.8260 C   0  0  0  0  0  2  0  0  0  0  0  0
  162.1870  204.7500  145.6450 C   0  0  2  0  0  0  0  0  0  0  0  0
  162.8610  204.6700  144.4280 O   0  0  0  0  0  1  0  0  0  0  0  0
  162.2460  203.4030  146.3310 C   0  0  1  0  0  3  0  0  0  0  0  0
  162.7510  205.9180  146.4500 C   0  0  2  0  0  3  0  0  0  0  0  0
  163.1790  204.4970  146.7970 C   0  0  2  0  0  3  0  0  0  0  0  0
  160.5360  206.8650  146.8270 C   0  0  0  0  0  1  0  0  0  0  0  0
  161.8210  206.5380  147.4290 N   0  0  0  0  0  0  0  0  0  0  0  0
  162.3270  207.7070  148.1420 C   0  0  0  0  0  2  0  0  0  0  0  0
  161.0230  208.2070  151.6630 C   0  0  0  0  0  0  0  0  0  0  0  0
  162.6920  206.4520  151.6980 C   0  0  0  0  0  3  0  0  0  0  0  0
  160.1280  208.9880  152.3130 F   0  0  0  0  0  0  0  0  0  0  0  0
  161.2050  208.3520  150.2840 C   0  0  0  0  0  3  0  0  0  0  0  0
  162.8730  206.5960  150.3190 C   0  0  0  0  0  3  0  0  0  0  0  0
  162.1280  207.5450  149.6100 C   0  0  0  0  0  0  0  0  0  0  0  0
  161.7670  207.2570  152.3690 C   0  0  0  0  0  3  0  0  0  0  0  0
  1 11  1  1  0  0  0
  2  1  1  6  0  0  0
  2  4  1  0  0  0  0
  2  8  1  0  0  0  0
  3  6  1  0  0  0  0
  4  3  1  0  0  0  0
  5  8  2  0  0  0  0
  6  7  1  0  0  0  0
  8  9  1  0  0  0  0
  9  6  2  0  0  0  0
 10 12  1  0  0  0  0
 10 13  1  0  0  0  0
 12 14  1  0  0  0  0
 13 11  1  0  0  0  0
 14 16  1  1  0  0  0
 14 11  1  0  0  0  0
 15 16  1  0  0  0  0
 17 18  1  6  0  0  0
 17 19  1  0  0  0  0
 17 20  1  0  0  0  0
 17 21  1  0  0  0  0
 19 21  1  0  0  0  0
 19  1  1  1  0  0  0
 20 21  1  0  0  0  0
 20 23  1  1  0  0  0
 22 23  1  0  0  0  0
 23 24  1  0  0  0  0
 24 30  1  0  0  0  0
 25 27  1  0  0  0  0
 25 31  1  0  0  0  0
 26 31  2  0  0  0  0
 28 25  2  0  0  0  0
 29 26  1  0  0  0  0
 30 28  1  0  0  0  0
 30 29  2  0  0  0  0
M  END
>  <MODEL>
9

>  <REMARK>
 VINA RESULT:      -3.7      4.896      9.377
  Name = 
  7 active torsions:
  status: ('A' for Active; 'I' for Inactive)
    1  A    between atoms: C_3  and  N_9
    2  A    between atoms: C_3  and  C_22
    3  A    between atoms: C_4  and  C_5
    4  A    between atoms: C_4  and  N_12
    5  A    between atoms: C_4  and  C_21
    6  A    between atoms: N_9  and  C_23
    7  A    between atoms: C_27  and  C_28
                            x       y       z     vdW  Elec       q    Type
                         _______ _______ _______ _____ _____    ______ ____

>  <TORSDO>
F 7

$$$$
