=
 OpenBabel11062408113D

 34 37  0  0  1  0  0  0  0  0999 V2000
  160.0600  210.7650  154.9200 C   0  0  1  0  0  0  0  0  0  0  0  0
  160.4850  208.2530  154.9650 C   0  0  0  0  0  1  0  0  0  0  0  0
  160.7120  209.5020  152.7610 C   0  0  1  0  0  3  0  0  0  0  0  0
  160.8520  209.5800  154.3020 C   0  0  1  0  0  3  0  0  0  0  0  0
  161.0400  210.8490  152.1050 C   0  0  2  0  0  3  0  0  0  0  0  0
  160.4060  212.0650  154.1880 C   0  0  0  0  0  2  0  0  0  0  0  0
  158.5550  210.5170  154.8070 C   0  0  0  0  0  1  0  0  0  0  0  0
  160.1630  211.9490  152.6900 C   0  0  0  0  0  2  0  0  0  0  0  0
  161.1600  208.1590  150.6560 C   0  0  0  0  0  2  0  0  0  0  0  0
  161.7440  207.1530  153.0040 C   0  0  0  0  0  2  0  0  0  0  0  0
  160.9770  205.9240  152.5340 C   0  0  0  0  0  2  0  0  0  0  0  0
  161.5510  205.7620  150.0930 C   0  0  0  0  0  2  0  0  0  0  0  0
  162.0910  207.1780  149.9600 C   0  0  0  0  0  2  0  0  0  0  0  0
  161.7920  205.1810  151.4810 C   0  0  2  0  0  3  0  0  0  0  0  0
  161.5610  208.3970  152.1140 C   0  0  2  0  0  3  0  0  0  0  0  0
  161.4150  203.7070  151.4530 C   0  0  0  0  0  2  0  0  0  0  0  0
  160.7410  203.3350  150.1420 C   0  0  0  0  0  2  0  0  0  0  0  0
  160.8630  201.8370  149.8980 C   0  0  2  0  0  3  0  0  0  0  0  0
  161.6530  200.2470  148.1950 O   0  0  0  0  0  1  0  0  0  0  0  0
  161.0650  201.4880  148.4320 C   0  0  1  0  0  0  0  0  0  0  0  0
  159.6880  201.3730  149.0410 C   0  0  0  0  0  2  0  0  0  0  0  0
  160.7650  202.0780  146.1350 O   0  0  0  0  0  1  0  0  0  0  0  0
  161.2160  202.5630  147.3630 C   0  0  0  0  0  2  0  0  0  0  0  0
  160.4230  210.9620  156.3710 C   0  0  0  0  0  0  0  0  0  0  0  0
  159.5310  210.9820  157.2610 O   0  0  0  0  0  1  0  0  0  0  0  0
  161.7580  211.0320  156.7550 O   0  0  0  0  0  0  0  0  0  0  0  0
  160.8260  210.7630  150.6980 O   0  0  0  0  0  0  0  0  0  0  0  0
  162.9290  212.2800  148.0800 C   0  0  0  0  0  0  0  0  0  0  0  0
  162.3340  213.4950  147.9350 N   0  0  0  0  0  0  0  0  0  0  0  0
  161.3180  211.6990  149.7800 C   0  0  0  0  0  0  0  0  0  0  0  0
  161.2510  213.8500  148.6760 C   0  0  0  0  0  3  0  0  0  0  0  0
  162.4300  211.3620  149.0080 C   0  0  0  0  0  3  0  0  0  0  0  0
  160.7220  212.9590  149.6140 C   0  0  0  0  0  3  0  0  0  0  0  0
  164.0100  211.9590  147.3270 F   0  0  0  0  0  0  0  0  0  0  0  0
  1  7  1  6  0  0  0
  1 24  1  0  0  0  0
  3 15  1  6  0  0  0
  3  4  1  0  0  0  0
  4  1  1  0  0  0  0
  4  2  1  1  0  0  0
  5 27  1  6  0  0  0
  5  8  1  0  0  0  0
  5  3  1  0  0  0  0
  6  1  1  0  0  0  0
  8  6  1  0  0  0  0
 11 10  1  0  0  0  0
 12 14  1  0  0  0  0
 13 12  1  0  0  0  0
 13  9  1  0  0  0  0
 14 16  1  6  0  0  0
 14 11  1  0  0  0  0
 15  9  1  6  0  0  0
 15 10  1  0  0  0  0
 17 16  1  0  0  0  0
 18 17  1  6  0  0  0
 20 19  1  6  0  0  0
 20 21  1  0  0  0  0
 20 18  1  0  0  0  0
 21 18  1  0  0  0  0
 22 23  1  0  0  0  0
 23 20  1  0  0  0  0
 24 26  2  0  0  0  0
 24 25  1  0  0  0  0
 28 32  1  0  0  0  0
 29 28  2  0  0  0  0
 29 31  1  0  0  0  0
 30 27  1  0  0  0  0
 31 33  2  0  0  0  0
 32 30  2  0  0  0  0
 33 30  1  0  0  0  0
 34 28  1  0  0  0  0
M  END
>  <MODEL>
1

>  <REMARK>
 VINA RESULT:      -7.7      0.000      0.000
  Name = 
  8 active torsions:
  status: ('A' for Active; 'I' for Inactive)
    1  A    between atoms: C_1  and  C_6
    2  A    between atoms: C_3  and  C_29
    3  A    between atoms: C_3  and  C_33
    4  A    between atoms: C_4  and  C_31
    5  A    between atoms: C_12  and  O_28
    6  A    between atoms: C_13  and  C_33
    7  A    between atoms: C_20  and  C_22
    8  A    between atoms: C_21  and  O_28
                            x       y       z     vdW  Elec       q    Type
                         _______ _______ _______ _____ _____    ______ ____

>  <TORSDO>
F 8

$$$$
=
 OpenBabel11062408113D

 34 37  0  0  1  0  0  0  0  0999 V2000
  160.9910  210.2390  155.2410 C   0  0  1  0  0  0  0  0  0  0  0  0
  161.4760  208.0210  156.3970 C   0  0  0  0  0  1  0  0  0  0  0  0
  160.9760  208.0280  153.9030 C   0  0  1  0  0  3  0  0  0  0  0  0
  161.5840  208.8110  155.0930 C   0  0  1  0  0  3  0  0  0  0  0  0
  161.0490  208.8440  152.6070 C   0  0  2  0  0  3  0  0  0  0  0  0
  161.0590  210.9760  153.9000 C   0  0  0  0  0  2  0  0  0  0  0  0
  159.5320  210.1660  155.6950 C   0  0  0  0  0  1  0  0  0  0  0  0
  160.3670  210.1930  152.7930 C   0  0  0  0  0  2  0  0  0  0  0  0
  162.4260  206.6090  152.3780 C   0  0  0  0  0  2  0  0  0  0  0  0
  160.6540  205.4710  153.9380 C   0  0  0  0  0  2  0  0  0  0  0  0
  160.1990  204.7360  152.6840 C   0  0  0  0  0  2  0  0  0  0  0  0
  162.3400  204.3000  151.4430 C   0  0  0  0  0  2  0  0  0  0  0  0
  163.1840  205.3010  152.2180 C   0  0  0  0  0  2  0  0  0  0  0  0
  161.2380  203.6870  152.2990 C   0  0  2  0  0  3  0  0  0  0  0  0
  161.6130  206.6480  153.6750 C   0  0  2  0  0  3  0  0  0  0  0  0
  160.5930  202.5590  151.5090 C   0  0  0  0  0  2  0  0  0  0  0  0
  160.9040  202.6750  150.0260 C   0  0  0  0  0  2  0  0  0  0  0  0
  160.8400  201.3030  149.3690 C   0  0  2  0  0  3  0  0  0  0  0  0
  161.4910  200.1580  147.2910 O   0  0  0  0  0  1  0  0  0  0  0  0
  161.0600  201.3520  147.8650 C   0  0  1  0  0  0  0  0  0  0  0  0
  159.6550  201.2630  148.4090 C   0  0  0  0  0  2  0  0  0  0  0  0
  161.0560  202.5490  145.7950 O   0  0  0  0  0  1  0  0  0  0  0  0
  161.3970  202.6520  147.1450 C   0  0  0  0  0  2  0  0  0  0  0  0
  161.7800  211.0540  156.2360 C   0  0  0  0  0  0  0  0  0  0  0  0
  161.1940  211.7080  157.1400 O   0  0  0  0  0  1  0  0  0  0  0  0
  163.1700  211.0190  156.2230 O   0  0  0  0  0  0  0  0  0  0  0  0
  160.4120  208.1270  151.5510 O   0  0  0  0  0  0  0  0  0  0  0  0
  161.1900  206.5280  148.3240 C   0  0  0  0  0  0  0  0  0  0  0  0
  162.1230  207.3830  147.8230 N   0  0  0  0  0  0  0  0  0  0  0  0
  161.0050  207.8950  150.3030 C   0  0  0  0  0  0  0  0  0  0  0  0
  162.5200  208.4850  148.5130 C   0  0  0  0  0  3  0  0  0  0  0  0
  160.6170  206.7710  149.5740 C   0  0  0  0  0  3  0  0  0  0  0  0
  161.9690  208.7620  149.7670 C   0  0  0  0  0  3  0  0  0  0  0  0
  160.8170  205.4370  147.6100 F   0  0  0  0  0  0  0  0  0  0  0  0
  1  7  1  1  0  0  0
  1 24  1  0  0  0  0
  3 15  1  6  0  0  0
  3  4  1  0  0  0  0
  4  1  1  0  0  0  0
  4  2  1  1  0  0  0
  5 27  1  6  0  0  0
  5  8  1  0  0  0  0
  5  3  1  0  0  0  0
  6  1  1  0  0  0  0
  8  6  1  0  0  0  0
 11 10  1  0  0  0  0
 12 13  1  0  0  0  0
 12 14  1  0  0  0  0
 13  9  1  0  0  0  0
 14 16  1  6  0  0  0
 14 11  1  0  0  0  0
 15  9  1  6  0  0  0
 15 10  1  0  0  0  0
 17 16  1  0  0  0  0
 18 17  1  1  0  0  0
 20 19  1  6  0  0  0
 20 21  1  0  0  0  0
 20 18  1  0  0  0  0
 21 18  1  0  0  0  0
 22 23  1  0  0  0  0
 23 20  1  0  0  0  0
 24 25  1  0  0  0  0
 26 24  2  0  0  0  0
 28 32  1  0  0  0  0
 29 28  2  0  0  0  0
 29 31  1  0  0  0  0
 30 27  1  0  0  0  0
 31 33  2  0  0  0  0
 32 30  2  0  0  0  0
 33 30  1  0  0  0  0
 34 28  1  0  0  0  0
M  END
>  <MODEL>
2

>  <REMARK>
 VINA RESULT:      -7.3      2.463      2.939
  Name = 
  8 active torsions:
  status: ('A' for Active; 'I' for Inactive)
    1  A    between atoms: C_1  and  C_6
    2  A    between atoms: C_3  and  C_29
    3  A    between atoms: C_3  and  C_33
    4  A    between atoms: C_4  and  C_31
    5  A    between atoms: C_12  and  O_28
    6  A    between atoms: C_13  and  C_33
    7  A    between atoms: C_20  and  C_22
    8  A    between atoms: C_21  and  O_28
                            x       y       z     vdW  Elec       q    Type
                         _______ _______ _______ _____ _____    ______ ____

>  <TORSDO>
F 8

$$$$
=
 OpenBabel11062408113D

 34 37  0  0  1  0  0  0  0  0999 V2000
  160.9530  209.6430  154.9370 C   0  0  1  0  0  0  0  0  0  0  0  0
  161.2670  207.2080  154.2550 C   0  0  0  0  0  1  0  0  0  0  0  0
  161.0550  208.9780  152.4410 C   0  0  1  0  0  3  0  0  0  0  0  0
  161.5360  208.6650  153.8800 C   0  0  1  0  0  3  0  0  0  0  0  0
  161.2880  210.4520  152.0860 C   0  0  2  0  0  3  0  0  0  0  0  0
  161.1850  211.0910  154.4950 C   0  0  0  0  0  2  0  0  0  0  0  0
  159.4500  209.4100  155.1070 C   0  0  0  0  0  1  0  0  0  0  0  0
  160.6110  211.3550  153.1090 C   0  0  0  0  0  2  0  0  0  0  0  0
  161.1650  208.4260  149.9670 C   0  0  0  0  0  2  0  0  0  0  0  0
  161.7500  206.5950  151.7480 C   0  0  0  0  0  2  0  0  0  0  0  0
  160.7840  205.7060  150.9760 C   0  0  0  0  0  2  0  0  0  0  0  0
  161.1680  206.3560  148.5790 C   0  0  0  0  0  2  0  0  0  0  0  0
  161.8960  207.6570  148.8780 C   0  0  0  0  0  2  0  0  0  0  0  0
  161.4130  205.2970  149.6470 C   0  0  2  0  0  3  0  0  0  0  0  0
  161.6910  208.0860  151.3640 C   0  0  2  0  0  3  0  0  0  0  0  0
  160.8260  203.9810  149.1590 C   0  0  0  0  0  2  0  0  0  0  0  0
  161.6350  203.4090  148.0070 C   0  0  0  0  0  2  0  0  0  0  0  0
  161.4410  204.2590  146.7580 C   0  0  2  0  0  3  0  0  0  0  0  0
  160.4290  204.1430  144.5190 O   0  0  0  0  0  1  0  0  0  0  0  0
  161.0780  203.4380  145.5310 C   0  0  1  0  0  0  0  0  0  0  0  0
  162.5060  203.8870  145.7310 C   0  0  0  0  0  2  0  0  0  0  0  0
  159.7640  201.5740  144.8110 O   0  0  0  0  0  1  0  0  0  0  0  0
  160.8520  201.9330  145.6080 C   0  0  0  0  0  2  0  0  0  0  0  0
  161.6360  209.4710  156.2700 C   0  0  0  0  0  0  0  0  0  0  0  0
  161.1110  208.7700  157.1770 O   0  0  0  0  0  1  0  0  0  0  0  0
  162.9000  210.0100  156.4840 O   0  0  0  0  0  0  0  0  0  0  0  0
  160.7650  210.7220  150.7880 O   0  0  0  0  0  0  0  0  0  0  0  0
  162.7790  212.4810  148.2530 C   0  0  0  0  0  0  0  0  0  0  0  0
  162.2150  213.7200  148.2800 N   0  0  0  0  0  0  0  0  0  0  0  0
  161.2380  211.7470  149.9590 C   0  0  0  0  0  0  0  0  0  0  0  0
  161.1820  214.0120  149.1140 C   0  0  0  0  0  3  0  0  0  0  0  0
  162.2990  211.4750  149.0940 C   0  0  0  0  0  3  0  0  0  0  0  0
  160.6730  213.0310  149.9700 C   0  0  0  0  0  3  0  0  0  0  0  0
  163.8100  212.2240  147.4110 F   0  0  0  0  0  0  0  0  0  0  0  0
  1  7  1  1  0  0  0
  1 24  1  0  0  0  0
  3 15  1  6  0  0  0
  3  4  1  0  0  0  0
  4  2  1  1  0  0  0
  4  1  1  0  0  0  0
  5 27  1  6  0  0  0
  5  3  1  0  0  0  0
  5  8  1  0  0  0  0
  6  1  1  0  0  0  0
  8  6  1  0  0  0  0
 11 10  1  0  0  0  0
 12 13  1  0  0  0  0
 12 14  1  0  0  0  0
 13  9  1  0  0  0  0
 14 16  1  6  0  0  0
 14 11  1  0  0  0  0
 15  9  1  6  0  0  0
 15 10  1  0  0  0  0
 17 16  1  0  0  0  0
 18 17  1  1  0  0  0
 20 19  1  6  0  0  0
 20 23  1  0  0  0  0
 20 21  1  0  0  0  0
 20 18  1  0  0  0  0
 21 18  1  0  0  0  0
 22 23  1  0  0  0  0
 24 26  2  0  0  0  0
 24 25  1  0  0  0  0
 28 29  2  0  0  0  0
 28 32  1  0  0  0  0
 29 31  1  0  0  0  0
 30 33  1  0  0  0  0
 30 27  1  0  0  0  0
 31 33  2  0  0  0  0
 32 30  2  0  0  0  0
 34 28  1  0  0  0  0
M  END
>  <MODEL>
3

>  <REMARK>
 VINA RESULT:      -7.2      1.499      2.030
  Name = 
  8 active torsions:
  status: ('A' for Active; 'I' for Inactive)
    1  A    between atoms: C_1  and  C_6
    2  A    between atoms: C_3  and  C_29
    3  A    between atoms: C_3  and  C_33
    4  A    between atoms: C_4  and  C_31
    5  A    between atoms: C_12  and  O_28
    6  A    between atoms: C_13  and  C_33
    7  A    between atoms: C_20  and  C_22
    8  A    between atoms: C_21  and  O_28
                            x       y       z     vdW  Elec       q    Type
                         _______ _______ _______ _____ _____    ______ ____

>  <TORSDO>
F 8

$$$$
=
 OpenBabel11062408113D

 34 37  0  0  1  0  0  0  0  0999 V2000
  162.0010  210.1940  150.6490 C   0  0  1  0  0  0  0  0  0  0  0  0
  162.7010  207.8330  149.9950 C   0  0  0  0  0  1  0  0  0  0  0  0
  161.2230  208.1580  152.0390 C   0  0  1  0  0  3  0  0  0  0  0  0
  161.6110  208.6900  150.6370 C   0  0  1  0  0  3  0  0  0  0  0  0
  160.1600  209.0470  152.6950 C   0  0  2  0  0  3  0  0  0  0  0  0
  160.9160  211.0110  151.3560 C   0  0  0  0  0  2  0  0  0  0  0  0
  163.3300  210.3940  151.3810 C   0  0  0  0  0  1  0  0  0  0  0  0
  160.6450  210.4900  152.7610 C   0  0  0  0  0  2  0  0  0  0  0  0
  161.7480  205.7730  152.7280 C   0  0  0  0  0  2  0  0  0  0  0  0
  160.1700  206.2330  150.6870 C   0  0  0  0  0  2  0  0  0  0  0  0
  161.0550  205.2480  149.9340 C   0  0  0  0  0  2  0  0  0  0  0  0
  161.6270  203.5210  151.6680 C   0  0  0  0  0  2  0  0  0  0  0  0
  161.2150  204.3560  152.8710 C   0  0  0  0  0  2  0  0  0  0  0  0
  160.7870  203.8320  150.4340 C   0  0  2  0  0  3  0  0  0  0  0  0
  160.7410  206.6990  152.0400 C   0  0  2  0  0  3  0  0  0  0  0  0
  161.1250  202.8110  149.3580 C   0  0  0  0  0  2  0  0  0  0  0  0
  160.7240  203.3090  147.9790 C   0  0  0  0  0  2  0  0  0  0  0  0
  161.9530  203.4250  147.0870 C   0  0  2  0  0  3  0  0  0  0  0  0
  163.2220  205.1000  145.8070 O   0  0  0  0  0  1  0  0  0  0  0  0
  161.9650  204.6960  146.2530 C   0  0  1  0  0  0  0  0  0  0  0  0
  161.5140  203.3990  145.6260 C   0  0  0  0  0  2  0  0  0  0  0  0
  160.4620  206.1800  145.1320 O   0  0  0  0  0  1  0  0  0  0  0  0
  160.8840  205.7610  146.3940 C   0  0  0  0  0  2  0  0  0  0  0  0
  162.1210  210.7350  149.2460 C   0  0  0  0  0  0  0  0  0  0  0  0
  161.6780  210.0810  148.2640 O   0  0  0  0  0  0  0  0  0  0  0  0
  162.6410  212.0070  149.0290 O   0  0  0  0  0  1  0  0  0  0  0  0
  159.8840  208.5750  154.0120 O   0  0  0  0  0  0  0  0  0  0  0  0
  162.3290  210.1570  156.2700 C   0  0  0  0  0  0  0  0  0  0  0  0
  162.4610  209.1990  157.2290 N   0  0  0  0  0  0  0  0  0  0  0  0
  160.7480  208.7600  155.0990 C   0  0  0  0  0  0  0  0  0  0  0  0
  161.7710  208.0300  157.1650 C   0  0  0  0  0  3  0  0  0  0  0  0
  161.4700  209.9500  155.1880 C   0  0  0  0  0  3  0  0  0  0  0  0
  160.9010  207.7870  156.0990 C   0  0  0  0  0  3  0  0  0  0  0  0
  163.0340  211.3110  156.3630 F   0  0  0  0  0  0  0  0  0  0  0  0
  1  6  1  0  0  0  0
  1  7  1  1  0  0  0
  3 15  1  6  0  0  0
  3  5  1  0  0  0  0
  4  2  1  1  0  0  0
  4  1  1  0  0  0  0
  4  3  1  0  0  0  0
  5  8  1  0  0  0  0
  5 27  1  1  0  0  0
  6  8  1  0  0  0  0
  9 13  1  0  0  0  0
 11 14  1  0  0  0  0
 11 10  1  0  0  0  0
 12 13  1  0  0  0  0
 14 16  1  6  0  0  0
 14 12  1  0  0  0  0
 15 10  1  6  0  0  0
 15  9  1  0  0  0  0
 17 16  1  0  0  0  0
 18 17  1  1  0  0  0
 20 19  1  6  0  0  0
 20 23  1  0  0  0  0
 20 18  1  0  0  0  0
 21 20  1  0  0  0  0
 21 18  1  0  0  0  0
 22 23  1  0  0  0  0
 24  1  1  0  0  0  0
 25 24  2  0  0  0  0
 26 24  1  0  0  0  0
 27 30  1  0  0  0  0
 28 34  1  0  0  0  0
 28 29  1  0  0  0  0
 30 32  1  0  0  0  0
 30 33  2  0  0  0  0
 31 29  2  0  0  0  0
 32 28  2  0  0  0  0
 33 31  1  0  0  0  0
M  END
>  <MODEL>
4

>  <REMARK>
 VINA RESULT:      -6.9      3.163      5.497
  Name = 
  8 active torsions:
  status: ('A' for Active; 'I' for Inactive)
    1  A    between atoms: C_1  and  C_6
    2  A    between atoms: C_3  and  C_29
    3  A    between atoms: C_3  and  C_33
    4  A    between atoms: C_4  and  C_31
    5  A    between atoms: C_12  and  O_28
    6  A    between atoms: C_13  and  C_33
    7  A    between atoms: C_20  and  C_22
    8  A    between atoms: C_21  and  O_28
                            x       y       z     vdW  Elec       q    Type
                         _______ _______ _______ _____ _____    ______ ____

>  <TORSDO>
F 8

$$$$
=
 OpenBabel11062408113D

 34 37  0  0  1  0  0  0  0  0999 V2000
  161.5900  206.9570  150.7350 C   0  0  1  0  0  0  0  0  0  0  0  0
  161.3610  207.4570  153.2230 C   0  0  0  0  0  1  0  0  0  0  0  0
  161.8110  209.3770  151.6160 C   0  0  1  0  0  3  0  0  0  0  0  0
  161.1470  207.9910  151.8070 C   0  0  1  0  0  3  0  0  0  0  0  0
  161.6300  209.8870  150.1820 C   0  0  2  0  0  3  0  0  0  0  0  0
  161.4200  207.5510  149.3340 C   0  0  0  0  0  2  0  0  0  0  0  0
  163.0570  206.5740  150.9390 C   0  0  0  0  0  1  0  0  0  0  0  0
  162.1700  208.8680  149.1870 C   0  0  0  0  0  2  0  0  0  0  0  0
  161.7280  210.1140  154.0430 C   0  0  0  0  0  2  0  0  0  0  0  0
  159.8580  210.8790  152.3730 C   0  0  0  0  0  2  0  0  0  0  0  0
  158.8800  210.3920  153.4340 C   0  0  0  0  0  2  0  0  0  0  0  0
  159.9970  211.0050  155.5990 C   0  0  0  0  0  2  0  0  0  0  0  0
  161.3800  211.2350  155.0090 C   0  0  0  0  0  2  0  0  0  0  0  0
  158.8840  211.3540  154.6170 C   0  0  2  0  0  3  0  0  0  0  0  0
  161.3180  210.4450  152.6050 C   0  0  2  0  0  3  0  0  0  0  0  0
  157.5570  211.2950  155.3600 C   0  0  0  0  0  2  0  0  0  0  0  0
  157.0660  212.6870  155.7210 C   0  0  0  0  0  2  0  0  0  0  0  0
  155.6830  212.9240  155.1280 C   0  0  2  0  0  3  0  0  0  0  0  0
  154.6120  213.7000  153.0540 O   0  0  0  0  0  1  0  0  0  0  0  0
  155.7070  213.8280  153.9060 C   0  0  1  0  0  0  0  0  0  0  0  0
  155.3340  214.4050  155.2510 C   0  0  0  0  0  2  0  0  0  0  0  0
  157.3660  213.5840  152.2020 O   0  0  0  0  0  1  0  0  0  0  0  0
  157.0130  214.3470  153.3160 C   0  0  0  0  0  2  0  0  0  0  0  0
  160.7390  205.7130  150.7970 C   0  0  0  0  0  0  0  0  0  0  0  0
  159.9540  205.4230  149.8540 O   0  0  0  0  0  0  0  0  0  0  0  0
  160.8770  204.8220  151.8560 O   0  0  0  0  0  1  0  0  0  0  0  0
  162.3180  211.1250  150.0210 O   0  0  0  0  0  0  0  0  0  0  0  0
  160.5320  213.7180  148.1080 C   0  0  0  0  0  0  0  0  0  0  0  0
  161.3840  213.9100  147.0640 N   0  0  0  0  0  0  0  0  0  0  0  0
  162.0230  212.0510  149.0130 C   0  0  0  0  0  0  0  0  0  0  0  0
  162.5430  213.2090  146.9550 C   0  0  0  0  0  3  0  0  0  0  0  0
  160.8390  212.7830  149.0990 C   0  0  0  0  0  3  0  0  0  0  0  0
  162.8860  212.2650  147.9270 C   0  0  0  0  0  3  0  0  0  0  0  0
  159.3820  214.4330  148.1860 F   0  0  0  0  0  0  0  0  0  0  0  0
  1 24  1  0  0  0  0
  1  7  1  1  0  0  0
  1  4  1  0  0  0  0
  3  4  1  0  0  0  0
  3 15  1  1  0  0  0
  4  2  1  1  0  0  0
  5 27  1  1  0  0  0
  5  3  1  0  0  0  0
  6  1  1  0  0  0  0
  8  6  1  0  0  0  0
  8  5  1  0  0  0  0
  9 13  1  0  0  0  0
 10 11  1  0  0  0  0
 11 14  1  0  0  0  0
 13 12  1  0  0  0  0
 14 16  1  1  0  0  0
 14 12  1  0  0  0  0
 15 10  1  1  0  0  0
 15  9  1  0  0  0  0
 16 17  1  0  0  0  0
 18 21  1  0  0  0  0
 18 17  1  1  0  0  0
 20 19  1  6  0  0  0
 20 18  1  0  0  0  0
 20 21  1  0  0  0  0
 22 23  1  0  0  0  0
 23 20  1  0  0  0  0
 24 26  1  0  0  0  0
 25 24  2  0  0  0  0
 28 34  1  0  0  0  0
 28 32  1  0  0  0  0
 29 28  2  0  0  0  0
 30 32  2  0  0  0  0
 30 27  1  0  0  0  0
 31 29  1  0  0  0  0
 31 33  2  0  0  0  0
 33 30  1  0  0  0  0
M  END
>  <MODEL>
5

>  <REMARK>
 VINA RESULT:      -6.9      2.942      7.912
  Name = 
  8 active torsions:
  status: ('A' for Active; 'I' for Inactive)
    1  A    between atoms: C_1  and  C_6
    2  A    between atoms: C_3  and  C_29
    3  A    between atoms: C_3  and  C_33
    4  A    between atoms: C_4  and  C_31
    5  A    between atoms: C_12  and  O_28
    6  A    between atoms: C_13  and  C_33
    7  A    between atoms: C_20  and  C_22
    8  A    between atoms: C_21  and  O_28
                            x       y       z     vdW  Elec       q    Type
                         _______ _______ _______ _____ _____    ______ ____

>  <TORSDO>
F 8

$$$$
=
 OpenBabel11062408113D

 34 37  0  0  1  0  0  0  0  0999 V2000
  160.9260  209.4490  154.4440 C   0  0  1  0  0  0  0  0  0  0  0  0
  161.2510  207.0160  153.7610 C   0  0  0  0  0  1  0  0  0  0  0  0
  161.2270  208.8100  151.9580 C   0  0  1  0  0  3  0  0  0  0  0  0
  161.5780  208.4710  153.4290 C   0  0  1  0  0  3  0  0  0  0  0  0
  161.5180  210.2820  151.6430 C   0  0  2  0  0  3  0  0  0  0  0  0
  161.2220  210.8970  154.0420 C   0  0  0  0  0  2  0  0  0  0  0  0
  159.4100  209.2440  154.4830 C   0  0  0  0  0  1  0  0  0  0  0  0
  160.7730  211.1870  152.6160 C   0  0  0  0  0  2  0  0  0  0  0  0
  161.9250  208.5480  149.5330 C   0  0  0  0  0  2  0  0  0  0  0  0
  161.5520  206.4280  151.0280 C   0  0  0  0  0  2  0  0  0  0  0  0
  160.6800  205.9240  149.8850 C   0  0  0  0  0  2  0  0  0  0  0  0
  161.8750  206.7310  147.8270 C   0  0  0  0  0  2  0  0  0  0  0  0
  162.7530  207.7490  148.5380 C   0  0  0  0  0  2  0  0  0  0  0  0
  161.5610  205.5260  148.7050 C   0  0  2  0  0  3  0  0  0  0  0  0
  161.9360  207.9170  150.9280 C   0  0  2  0  0  3  0  0  0  0  0  0
  160.8660  204.4790  147.8460 C   0  0  0  0  0  2  0  0  0  0  0  0
  161.5620  203.1320  147.9470 C   0  0  0  0  0  2  0  0  0  0  0  0
  160.5380  202.0300  148.1790 C   0  0  2  0  0  3  0  0  0  0  0  0
  159.2790  200.9560  150.0000 O   0  0  0  0  0  1  0  0  0  0  0  0
  160.4710  201.5740  149.6280 C   0  0  1  0  0  0  0  0  0  0  0  0
  161.2600  200.7630  148.6280 C   0  0  0  0  0  2  0  0  0  0  0  0
  160.4640  202.9730  151.5670 O   0  0  0  0  0  1  0  0  0  0  0  0
  161.2980  202.2430  150.7190 C   0  0  0  0  0  2  0  0  0  0  0  0
  161.4900  209.2490  155.8290 C   0  0  0  0  0  0  0  0  0  0  0  0
  160.9180  208.4860  156.6530 O   0  0  0  0  0  1  0  0  0  0  0  0
  162.7010  209.8350  156.1830 O   0  0  0  0  0  0  0  0  0  0  0  0
  161.1110  210.5770  150.3090 O   0  0  0  0  0  0  0  0  0  0  0  0
  162.5260  213.0980  148.0230 C   0  0  0  0  0  0  0  0  0  0  0  0
  161.8310  214.2080  148.3920 N   0  0  0  0  0  0  0  0  0  0  0  0
  161.3390  211.8090  149.6830 C   0  0  0  0  0  0  0  0  0  0  0  0
  160.9000  214.1680  149.3810 C   0  0  0  0  0  3  0  0  0  0  0  0
  162.2920  211.8800  148.6650 C   0  0  0  0  0  3  0  0  0  0  0  0
  160.6360  212.9680  150.0460 C   0  0  0  0  0  3  0  0  0  0  0  0
  163.4510  213.1730  147.0340 F   0  0  0  0  0  0  0  0  0  0  0  0
  1  7  1  1  0  0  0
  1 24  1  0  0  0  0
  3 15  1  6  0  0  0
  3  4  1  0  0  0  0
  4  2  1  1  0  0  0
  4  1  1  0  0  0  0
  5 27  1  6  0  0  0
  5  3  1  0  0  0  0
  5  8  1  0  0  0  0
  6  1  1  0  0  0  0
  8  6  1  0  0  0  0
 11 10  1  0  0  0  0
 12 13  1  0  0  0  0
 12 14  1  0  0  0  0
 13  9  1  0  0  0  0
 14 16  1  6  0  0  0
 14 11  1  0  0  0  0
 15  9  1  6  0  0  0
 15 10  1  0  0  0  0
 16 17  1  0  0  0  0
 18 17  1  1  0  0  0
 18 21  1  0  0  0  0
 18 20  1  0  0  0  0
 20 19  1  1  0  0  0
 20 23  1  0  0  0  0
 21 20  1  0  0  0  0
 23 22  1  0  0  0  0
 24 26  2  0  0  0  0
 24 25  1  0  0  0  0
 28 29  2  0  0  0  0
 28 32  1  0  0  0  0
 29 31  1  0  0  0  0
 30 33  1  0  0  0  0
 30 27  1  0  0  0  0
 31 33  2  0  0  0  0
 32 30  2  0  0  0  0
 34 28  1  0  0  0  0
M  END
>  <MODEL>
6

>  <REMARK>
 VINA RESULT:      -6.9      1.511      2.086
  Name = 
  8 active torsions:
  status: ('A' for Active; 'I' for Inactive)
    1  A    between atoms: C_1  and  C_6
    2  A    between atoms: C_3  and  C_29
    3  A    between atoms: C_3  and  C_33
    4  A    between atoms: C_4  and  C_31
    5  A    between atoms: C_12  and  O_28
    6  A    between atoms: C_13  and  C_33
    7  A    between atoms: C_20  and  C_22
    8  A    between atoms: C_21  and  O_28
                            x       y       z     vdW  Elec       q    Type
                         _______ _______ _______ _____ _____    ______ ____

>  <TORSDO>
F 8

$$$$
=
 OpenBabel11062408113D

 34 37  0  0  1  0  0  0  0  0999 V2000
  161.5110  209.0990  151.9610 C   0  0  1  0  0  0  0  0  0  0  0  0
  160.8970  207.4470  153.8000 C   0  0  0  0  0  1  0  0  0  0  0  0
  160.8320  206.6740  151.3780 C   0  0  1  0  0  3  0  0  0  0  0  0
  161.5080  207.6120  152.4100 C   0  0  1  0  0  3  0  0  0  0  0  0
  161.4210  206.8750  149.9760 C   0  0  2  0  0  3  0  0  0  0  0  0
  162.0700  209.2160  150.5400 C   0  0  0  0  0  2  0  0  0  0  0  0
  160.0900  209.6660  151.9840 C   0  0  0  0  0  1  0  0  0  0  0  0
  161.3060  208.3360  149.5600 C   0  0  0  0  0  2  0  0  0  0  0  0
  162.2920  204.6010  151.4940 C   0  0  0  0  0  2  0  0  0  0  0  0
  159.6920  204.3650  151.2590 C   0  0  0  0  0  2  0  0  0  0  0  0
  160.0040  203.4120  150.1120 C   0  0  0  0  0  2  0  0  0  0  0  0
  162.0570  202.1940  150.8940 C   0  0  0  0  0  2  0  0  0  0  0  0
  162.4160  203.1730  152.0010 C   0  0  0  0  0  2  0  0  0  0  0  0
  160.5530  202.1020  150.6680 C   0  0  2  0  0  3  0  0  0  0  0  0
  160.9000  205.1850  151.7520 C   0  0  2  0  0  3  0  0  0  0  0  0
  160.2840  200.9570  149.7030 C   0  0  0  0  0  2  0  0  0  0  0  0
  161.2000  201.0280  148.4930 C   0  0  0  0  0  2  0  0  0  0  0  0
  160.4300  201.5440  147.2840 C   0  0  2  0  0  3  0  0  0  0  0  0
  159.7100  200.8310  145.0430 O   0  0  0  0  0  1  0  0  0  0  0  0
  160.6980  200.7420  146.0210 C   0  0  1  0  0  0  0  0  0  0  0  0
  161.4200  202.0500  146.2390 C   0  0  0  0  0  2  0  0  0  0  0  0
  160.9700  198.4760  145.3080 O   0  0  0  0  0  1  0  0  0  0  0  0
  161.5830  199.5010  146.0290 C   0  0  0  0  0  2  0  0  0  0  0  0
  162.3930  209.9340  152.8550 C   0  0  0  0  0  0  0  0  0  0  0  0
  163.5080  210.3560  152.4480 O   0  0  0  0  0  0  0  0  0  0  0  0
  161.9440  210.3250  154.1130 O   0  0  0  0  0  1  0  0  0  0  0  0
  160.7250  206.0550  149.0410 O   0  0  0  0  0  0  0  0  0  0  0  0
  162.7350  205.1510  146.0880 C   0  0  0  0  0  0  0  0  0  0  0  0
  161.9250  205.5720  145.0780 N   0  0  0  0  0  0  0  0  0  0  0  0
  161.1090  205.9080  147.7020 C   0  0  0  0  0  0  0  0  0  0  0  0
  160.7220  206.1540  145.3270 C   0  0  0  0  0  3  0  0  0  0  0  0
  162.3390  205.3150  147.4170 C   0  0  0  0  0  3  0  0  0  0  0  0
  160.2910  206.3340  146.6440 C   0  0  0  0  0  3  0  0  0  0  0  0
  163.9300  204.5760  145.8050 F   0  0  0  0  0  0  0  0  0  0  0  0
  1  7  1  1  0  0  0
  1  4  1  0  0  0  0
  1 24  1  0  0  0  0
  3 15  1  1  0  0  0
  3  4  1  0  0  0  0
  4  2  1  1  0  0  0
  5 27  1  6  0  0  0
  5  3  1  0  0  0  0
  6  1  1  0  0  0  0
  8  5  1  0  0  0  0
  8  6  1  0  0  0  0
  9 15  1  0  0  0  0
  9 13  1  0  0  0  0
 11 14  1  0  0  0  0
 11 10  1  0  0  0  0
 12 13  1  0  0  0  0
 14 16  1  6  0  0  0
 14 12  1  0  0  0  0
 15 10  1  6  0  0  0
 17 16  1  0  0  0  0
 18 17  1  1  0  0  0
 20 19  1  6  0  0  0
 20 23  1  0  0  0  0
 20 21  1  0  0  0  0
 20 18  1  0  0  0  0
 21 18  1  0  0  0  0
 22 23  1  0  0  0  0
 24 26  1  0  0  0  0
 25 24  2  0  0  0  0
 28 32  1  0  0  0  0
 29 31  1  0  0  0  0
 29 28  2  0  0  0  0
 30 27  1  0  0  0  0
 31 33  2  0  0  0  0
 32 30  2  0  0  0  0
 33 30  1  0  0  0  0
 34 28  1  0  0  0  0
M  END
>  <MODEL>
7

>  <REMARK>
 VINA RESULT:      -6.8      3.099      4.757
  Name = 
  8 active torsions:
  status: ('A' for Active; 'I' for Inactive)
    1  A    between atoms: C_1  and  C_6
    2  A    between atoms: C_3  and  C_29
    3  A    between atoms: C_3  and  C_33
    4  A    between atoms: C_4  and  C_31
    5  A    between atoms: C_12  and  O_28
    6  A    between atoms: C_13  and  C_33
    7  A    between atoms: C_20  and  C_22
    8  A    between atoms: C_21  and  O_28
                            x       y       z     vdW  Elec       q    Type
                         _______ _______ _______ _____ _____    ______ ____

>  <TORSDO>
F 8

$$$$
=
 OpenBabel11062408113D

 34 37  0  0  1  0  0  0  0  0999 V2000
  160.6370  208.5980  155.4610 C   0  0  1  0  0  0  0  0  0  0  0  0
  160.8320  206.5060  154.0200 C   0  0  0  0  0  1  0  0  0  0  0  0
  161.0290  208.7870  152.9130 C   0  0  1  0  0  3  0  0  0  0  0  0
  161.2750  207.9570  154.1970 C   0  0  1  0  0  3  0  0  0  0  0  0
  161.4360  210.2520  153.1110 C   0  0  2  0  0  3  0  0  0  0  0  0
  161.0520  210.0680  155.5690 C   0  0  0  0  0  2  0  0  0  0  0  0
  159.1100  208.5170  155.3850 C   0  0  0  0  0  1  0  0  0  0  0  0
  160.7030  210.8460  154.3070 C   0  0  0  0  0  2  0  0  0  0  0  0
  161.4320  209.0700  150.4230 C   0  0  0  0  0  2  0  0  0  0  0  0
  161.6090  206.6960  151.5210 C   0  0  0  0  0  2  0  0  0  0  0  0
  160.6880  206.2410  150.3970 C   0  0  0  0  0  2  0  0  0  0  0  0
  161.4520  207.5890  148.4190 C   0  0  0  0  0  2  0  0  0  0  0  0
  162.2390  208.6160  149.2170 C   0  0  0  0  0  2  0  0  0  0  0  0
  161.4570  206.2150  149.0800 C   0  0  2  0  0  3  0  0  0  0  0  0
  161.7300  208.2260  151.6660 C   0  0  2  0  0  3  0  0  0  0  0  0
  160.8330  205.2190  148.1140 C   0  0  0  0  0  2  0  0  0  0  0  0
  161.5830  203.8970  148.1240 C   0  0  0  0  0  2  0  0  0  0  0  0
  160.6040  202.7380  147.9990 C   0  0  2  0  0  3  0  0  0  0  0  0
  159.1270  201.3400  149.3840 O   0  0  0  0  0  1  0  0  0  0  0  0
  160.3250  202.0490  149.3260 C   0  0  1  0  0  0  0  0  0  0  0  0
  161.3170  201.4400  148.3640 C   0  0  0  0  0  2  0  0  0  0  0  0
  161.5740  201.5170  151.2940 O   0  0  0  0  0  1  0  0  0  0  0  0
  160.9170  202.5570  150.6350 C   0  0  0  0  0  2  0  0  0  0  0  0
  161.1090  207.9090  156.7160 C   0  0  0  0  0  0  0  0  0  0  0  0
  160.4270  206.9880  157.2410 O   0  0  0  0  0  0  0  0  0  0  0  0
  162.3510  208.2200  157.2610 O   0  0  0  0  0  1  0  0  0  0  0  0
  161.1240  211.0000  151.9390 O   0  0  0  0  0  0  0  0  0  0  0  0
  157.9070  212.6520  152.6460 C   0  0  0  0  0  0  0  0  0  0  0  0
  157.9470  213.6940  151.7720 N   0  0  0  0  0  0  0  0  0  0  0  0
  160.0660  211.9150  151.8610 C   0  0  0  0  0  0  0  0  0  0  0  0
  159.0050  213.8830  150.9400 C   0  0  0  0  0  3  0  0  0  0  0  0
  158.9670  211.7440  152.7030 C   0  0  0  0  0  3  0  0  0  0  0  0
  160.0860  212.9970  150.9680 C   0  0  0  0  0  3  0  0  0  0  0  0
  156.8350  212.4900  153.4610 F   0  0  0  0  0  0  0  0  0  0  0  0
  1  7  1  6  0  0  0
  1  6  1  0  0  0  0
  1 24  1  0  0  0  0
  3 15  1  6  0  0  0
  3  5  1  0  0  0  0
  3  4  1  0  0  0  0
  4  2  1  6  0  0  0
  4  1  1  0  0  0  0
  5 27  1  6  0  0  0
  5  8  1  0  0  0  0
  8  6  1  0  0  0  0
 10 15  1  0  0  0  0
 11 10  1  0  0  0  0
 12 14  1  0  0  0  0
 12 13  1  0  0  0  0
 13  9  1  0  0  0  0
 14 16  1  6  0  0  0
 14 11  1  0  0  0  0
 15  9  1  6  0  0  0
 16 17  1  0  0  0  0
 18 17  1  1  0  0  0
 18 21  1  0  0  0  0
 18 20  1  0  0  0  0
 20 19  1  1  0  0  0
 20 23  1  0  0  0  0
 21 20  1  0  0  0  0
 23 22  1  0  0  0  0
 24 25  2  0  0  0  0
 24 26  1  0  0  0  0
 28 32  1  0  0  0  0
 28 34  1  0  0  0  0
 29 28  2  0  0  0  0
 30 27  1  0  0  0  0
 30 32  2  0  0  0  0
 31 33  2  0  0  0  0
 31 29  1  0  0  0  0
 33 30  1  0  0  0  0
M  END
>  <MODEL>
8

>  <REMARK>
 VINA RESULT:      -6.7      2.653      3.342
  Name = 
  8 active torsions:
  status: ('A' for Active; 'I' for Inactive)
    1  A    between atoms: C_1  and  C_6
    2  A    between atoms: C_3  and  C_29
    3  A    between atoms: C_3  and  C_33
    4  A    between atoms: C_4  and  C_31
    5  A    between atoms: C_12  and  O_28
    6  A    between atoms: C_13  and  C_33
    7  A    between atoms: C_20  and  C_22
    8  A    between atoms: C_21  and  O_28
                            x       y       z     vdW  Elec       q    Type
                         _______ _______ _______ _____ _____    ______ ____

>  <TORSDO>
F 8

$$$$
=
 OpenBabel11062408113D

 34 37  0  0  1  0  0  0  0  0999 V2000
  160.8930  209.0820  155.2970 C   0  0  1  0  0  0  0  0  0  0  0  0
  160.8990  206.8160  154.1330 C   0  0  0  0  0  1  0  0  0  0  0  0
  161.2200  208.9180  152.7380 C   0  0  1  0  0  3  0  0  0  0  0  0
  161.4470  208.2420  154.1130 C   0  0  1  0  0  3  0  0  0  0  0  0
  161.7330  210.3630  152.7390 C   0  0  2  0  0  3  0  0  0  0  0  0
  161.4130  210.5200  155.2070 C   0  0  0  0  0  2  0  0  0  0  0  0
  159.3640  209.1030  155.2650 C   0  0  0  0  0  1  0  0  0  0  0  0
  161.0800  211.1550  153.8640 C   0  0  0  0  0  2  0  0  0  0  0  0
  161.2960  208.6480  150.2160 C   0  0  0  0  0  2  0  0  0  0  0  0
  161.9100  206.6300  151.7720 C   0  0  0  0  0  2  0  0  0  0  0  0
  160.9340  205.8310  150.9180 C   0  0  0  0  0  2  0  0  0  0  0  0
  161.2820  206.7470  148.6040 C   0  0  0  0  0  2  0  0  0  0  0  0
  162.0130  208.0090  149.0380 C   0  0  0  0  0  2  0  0  0  0  0  0
  161.5450  205.5760  149.5440 C   0  0  2  0  0  3  0  0  0  0  0  0
  161.8430  208.1550  151.5580 C   0  0  2  0  0  3  0  0  0  0  0  0
  160.9530  204.3210  148.9190 C   0  0  0  0  0  2  0  0  0  0  0  0
  161.9100  203.7000  147.9150 C   0  0  0  0  0  2  0  0  0  0  0  0
  161.7450  204.3630  146.5550 C   0  0  2  0  0  3  0  0  0  0  0  0
  160.4200  204.1640  144.4910 O   0  0  0  0  0  1  0  0  0  0  0  0
  161.0210  203.4830  145.5480 C   0  0  1  0  0  0  0  0  0  0  0  0
  162.5280  203.5690  145.5130 C   0  0  0  0  0  2  0  0  0  0  0  0
  159.8430  201.5320  144.8240 O   0  0  0  0  0  1  0  0  0  0  0  0
  160.4560  202.1210  145.9310 C   0  0  0  0  0  2  0  0  0  0  0  0
  161.3550  208.5250  156.6200 C   0  0  0  0  0  0  0  0  0  0  0  0
  162.3570  209.0110  157.2090 O   0  0  0  0  0  0  0  0  0  0  0  0
  160.6220  207.5250  157.2520 O   0  0  0  0  0  1  0  0  0  0  0  0
  161.4390  210.9780  151.4870 O   0  0  0  0  0  0  0  0  0  0  0  0
  158.3810  212.9540  152.0590 C   0  0  0  0  0  0  0  0  0  0  0  0
  158.4580  213.8590  151.0460 N   0  0  0  0  0  0  0  0  0  0  0  0
  160.4470  211.9520  151.3150 C   0  0  0  0  0  0  0  0  0  0  0  0
  159.4890  213.8480  150.1600 C   0  0  0  0  0  3  0  0  0  0  0  0
  159.3760  211.9840  152.2090 C   0  0  0  0  0  3  0  0  0  0  0  0
  160.5040  212.8940  150.2770 C   0  0  0  0  0  3  0  0  0  0  0  0
  157.3380  212.9910  152.9240 F   0  0  0  0  0  0  0  0  0  0  0  0
  1  7  1  6  0  0  0
  1 24  1  0  0  0  0
  3 15  1  6  0  0  0
  3  5  1  0  0  0  0
  3  4  1  0  0  0  0
  4  2  1  6  0  0  0
  4  1  1  0  0  0  0
  5 27  1  6  0  0  0
  5  8  1  0  0  0  0
  6  1  1  0  0  0  0
  8  6  1  0  0  0  0
 11 10  1  0  0  0  0
 12 13  1  0  0  0  0
 12 14  1  0  0  0  0
 13  9  1  0  0  0  0
 14 16  1  6  0  0  0
 14 11  1  0  0  0  0
 15  9  1  6  0  0  0
 15 10  1  0  0  0  0
 17 16  1  0  0  0  0
 18 17  1  1  0  0  0
 20 19  1  6  0  0  0
 20 23  1  0  0  0  0
 20 18  1  0  0  0  0
 21 20  1  0  0  0  0
 21 18  1  0  0  0  0
 22 23  1  0  0  0  0
 24 25  2  0  0  0  0
 24 26  1  0  0  0  0
 28 32  1  0  0  0  0
 28 34  1  0  0  0  0
 29 28  2  0  0  0  0
 30 27  1  0  0  0  0
 30 32  2  0  0  0  0
 31 33  2  0  0  0  0
 31 29  1  0  0  0  0
 33 30  1  0  0  0  0
M  END
>  <MODEL>
9

>  <REMARK>
 VINA RESULT:      -6.5      2.535      3.170
  Name = 
  8 active torsions:
  status: ('A' for Active; 'I' for Inactive)
    1  A    between atoms: C_1  and  C_6
    2  A    between atoms: C_3  and  C_29
    3  A    between atoms: C_3  and  C_33
    4  A    between atoms: C_4  and  C_31
    5  A    between atoms: C_12  and  O_28
    6  A    between atoms: C_13  and  C_33
    7  A    between atoms: C_20  and  C_22
    8  A    between atoms: C_21  and  O_28
                            x       y       z     vdW  Elec       q    Type
                         _______ _______ _______ _____ _____    ______ ____

>  <TORSDO>
F 8

$$$$
