=
 OpenBabel11062409363D

 34 39  0  0  1  0  0  0  0  0999 V2000
  161.0920  208.9840  152.5800 C   0  0  0  0  0  0  0  0  0  0  0  0
  159.8760  212.5750  152.8080 N   0  0  0  0  0  0  0  0  0  0  0  0
  161.0310  211.4670  151.1150 N   0  0  0  0  0  2  0  0  0  0  0  0
  161.5810  206.5760  152.2360 C   0  0  0  0  0  0  0  0  0  0  0  0
  160.8700  207.6950  152.9210 C   0  0  0  0  0  3  0  0  0  0  0  0
  162.4100  208.1830  150.6560 C   0  0  2  0  0  3  0  0  0  0  0  0
  162.2630  208.5440  149.4230 N   0  0  0  0  0  0  0  0  0  0  0  0
  162.2870  206.7960  151.1130 C   0  0  0  0  0  3  0  0  0  0  0  0
  161.7910  210.3430  150.6850 C   0  0  1  0  0  3  0  0  0  0  0  0
  162.2010  209.2900  151.6190 C   0  0  1  0  0  3  0  0  0  0  0  0
  161.8700  209.9170  149.4320 C   0  0  0  0  0  3  0  0  0  0  0  0
  159.2000  212.8770  154.0580 C   0  0  0  0  0  2  0  0  0  0  0  0
  158.1020  211.8760  154.3210 C   0  0  1  0  0  3  0  0  0  0  0  0
  158.7670  210.7770  155.1120 C   0  0  0  0  0  2  0  0  0  0  0  0
  160.4040  211.4520  152.4110 C   0  0  0  0  0  0  0  0  0  0  0  0
  159.5970  209.8690  154.2650 C   0  0  0  0  0  3  0  0  0  0  0  0
  160.3350  210.1310  153.1680 C   0  0  0  0  0  0  0  0  0  0  0  0
  157.0290  212.4890  155.1050 N   0  0  0  0  0  0  0  0  0  0  0  0
  155.7870  212.6610  154.5400 O   0  0  0  0  0  0  0  0  0  0  0  0
  157.1310  212.5460  156.3480 O   0  0  0  0  0  0  0  0  0  0  0  0
  161.4400  205.1850  152.7540 C   0  0  0  0  0  2  0  0  0  0  0  0
  160.8860  201.9890  150.9350 C   0  0  0  0  0  3  0  0  0  0  0  0
  161.3250  204.7380  150.3000 C   0  0  0  0  0  3  0  0  0  0  0  0
  160.8950  202.0400  147.1280 C   0  0  0  0  0  0  0  0  0  0  0  0
  160.8240  201.5990  148.5360 C   0  0  0  0  0  3  0  0  0  0  0  0
  160.9610  202.4580  149.5440 C   0  0  0  0  0  0  0  0  0  0  0  0
  161.2820  204.4100  147.8670 C   0  0  0  0  0  2  0  0  0  0  0  0
  161.1910  203.8950  149.2750 C   0  0  0  0  0  0  0  0  0  0  0  0
  161.1040  203.3320  146.8300 C   0  0  0  0  0  3  0  0  0  0  0  0
  161.2430  204.2580  151.6530 N   0  0  0  0  0  0  0  0  0  0  0  0
  161.0240  202.8650  151.9320 C   0  0  0  0  0  3  0  0  0  0  0  0
  160.7340  201.0500  146.0480 C   0  0  0  0  0  0  0  0  0  0  0  0
  161.2470  199.9030  146.1490 O   0  0  0  0  0  0  0  0  0  0  0  0
  159.9950  201.3800  144.8760 N   0  0  0  0  0  1  0  0  0  0  0  0
  1  5  2  0  0  0  0
  1 17  1  0  0  0  0
  2 12  1  0  0  0  0
  3 15  1  0  0  0  0
  4 21  1  0  0  0  0
  4  5  1  0  0  0  0
  6  8  1  1  0  0  0
  6 10  1  0  0  0  0
  7 11  2  0  0  0  0
  7  6  1  0  0  0  0
  8  4  2  0  0  0  0
  9 11  1  6  0  0  0
  9  3  1  0  0  0  0
  9 10  1  0  0  0  0
 10  1  1  1  0  0  0
 12 13  1  0  0  0  0
 13 18  1  1  0  0  0
 13 14  1  0  0  0  0
 15  2  2  0  0  0  0
 15 17  1  0  0  0  0
 16 14  1  0  0  0  0
 17 16  2  0  0  0  0
 18 20  2  0  0  0  0
 19 18  2  0  0  0  0
 22 31  2  0  0  0  0
 23 30  1  0  0  0  0
 24 25  1  0  0  0  0
 25 26  2  0  0  0  0
 26 22  1  0  0  0  0
 27 28  1  0  0  0  0
 28 26  1  0  0  0  0
 28 23  2  0  0  0  0
 29 24  2  0  0  0  0
 29 27  1  0  0  0  0
 30 31  1  0  0  0  0
 30 21  1  0  0  0  0
 32 33  2  0  0  0  0
 32 24  1  0  0  0  0
 34 32  1  0  0  0  0
M  END
>  <MODEL>
1

>  <REMARK>
 VINA RESULT:     -10.4      0.000      0.000
  Name = 
  4 active torsions:
  status: ('A' for Active; 'I' for Inactive)
    1  A    between atoms: N_3  and  C_25
    2  A    between atoms: C_7  and  C_11
    3  A    between atoms: C_8  and  C_18
    4  A    between atoms: C_18  and  N_30
                            x       y       z     vdW  Elec       q    Type
                         _______ _______ _______ _____ _____    ______ ____

>  <TORSDO>
F 4

$$$$
=
 OpenBabel11062409363D

 34 39  0  0  1  0  0  0  0  0999 V2000
  159.7630  210.7280  154.5710 C   0  0  0  0  0  0  0  0  0  0  0  0
  157.4980  212.4360  157.0970 N   0  0  0  0  0  0  0  0  0  0  0  0
  159.7240  211.7680  157.2610 N   0  0  0  0  0  2  0  0  0  0  0  0
  161.3700  209.9480  152.8500 C   0  0  0  0  0  0  0  0  0  0  0  0
  160.0780  210.5680  153.2670 C   0  0  0  0  0  3  0  0  0  0  0  0
  162.0640  210.0490  155.1460 C   0  0  2  0  0  3  0  0  0  0  0  0
  162.8800  210.6880  155.9200 N   0  0  0  0  0  0  0  0  0  0  0  0
  162.3530  209.7400  153.7430 C   0  0  0  0  0  3  0  0  0  0  0  0
  160.8160  211.0120  156.7490 C   0  0  1  0  0  3  0  0  0  0  0  0
  160.6550  210.1090  155.6060 C   0  0  1  0  0  3  0  0  0  0  0  0
  162.0950  211.3030  156.9430 C   0  0  0  0  0  3  0  0  0  0  0  0
  156.1540  212.6710  156.6000 C   0  0  0  0  0  2  0  0  0  0  0  0
  156.1970  213.3960  155.2770 C   0  0  1  0  0  3  0  0  0  0  0  0
  156.2350  212.3010  154.2410 C   0  0  0  0  0  2  0  0  0  0  0  0
  158.5120  211.8820  156.4940 C   0  0  0  0  0  0  0  0  0  0  0  0
  157.5820  211.6680  154.1090 C   0  0  0  0  0  3  0  0  0  0  0  0
  158.5290  211.4290  155.0390 C   0  0  0  0  0  0  0  0  0  0  0  0
  154.9980  214.2170  155.1050 N   0  0  0  0  0  0  0  0  0  0  0  0
  154.4890  214.4220  153.8430 O   0  0  0  0  0  0  0  0  0  0  0  0
  154.2630  214.4460  156.0880 O   0  0  0  0  0  0  0  0  0  0  0  0
  161.6070  209.6330  151.4120 C   0  0  0  0  0  2  0  0  0  0  0  0
  161.0620  206.0160  152.0850 C   0  0  0  0  0  3  0  0  0  0  0  0
  161.4300  207.7170  149.8210 C   0  0  0  0  0  3  0  0  0  0  0  0
  160.9600  203.6140  149.1320 C   0  0  0  0  0  0  0  0  0  0  0  0
  160.9380  204.1780  150.4980 C   0  0  0  0  0  3  0  0  0  0  0  0
  161.0870  205.4840  150.7150 C   0  0  0  0  0  0  0  0  0  0  0  0
  161.3220  205.9050  148.1670 C   0  0  0  0  0  2  0  0  0  0  0  0
  161.2820  206.4130  149.5800 C   0  0  0  0  0  0  0  0  0  0  0  0
  161.1350  204.4130  148.0680 C   0  0  0  0  0  3  0  0  0  0  0  0
  161.3960  208.2160  151.1680 N   0  0  0  0  0  0  0  0  0  0  0  0
  161.2120  207.3270  152.2830 C   0  0  0  0  0  3  0  0  0  0  0  0
  160.7870  202.1620  148.9440 C   0  0  0  0  0  0  0  0  0  0  0  0
  160.5760  201.6860  147.7960 O   0  0  0  0  0  0  0  0  0  0  0  0
  160.8550  201.2800  150.0610 N   0  0  0  0  0  1  0  0  0  0  0  0
  1 17  1  0  0  0  0
  4  5  1  0  0  0  0
  4  8  2  0  0  0  0
  5  1  2  0  0  0  0
  6  8  1  6  0  0  0
  6 10  1  0  0  0  0
  6  7  1  0  0  0  0
  7 11  2  0  0  0  0
  9 11  1  6  0  0  0
  9  3  1  0  0  0  0
 10  1  1  6  0  0  0
 10  9  1  0  0  0  0
 12  2  1  0  0  0  0
 13 18  1  6  0  0  0
 13 12  1  0  0  0  0
 14 13  1  0  0  0  0
 15  2  2  0  0  0  0
 15  3  1  0  0  0  0
 16 14  1  0  0  0  0
 16 17  2  0  0  0  0
 17 15  1  0  0  0  0
 18 20  2  0  0  0  0
 19 18  2  0  0  0  0
 21  4  1  0  0  0  0
 22 31  2  0  0  0  0
 23 30  1  0  0  0  0
 24 25  1  0  0  0  0
 25 26  2  0  0  0  0
 26 22  1  0  0  0  0
 27 28  1  0  0  0  0
 28 23  2  0  0  0  0
 28 26  1  0  0  0  0
 29 27  1  0  0  0  0
 29 24  2  0  0  0  0
 30 21  1  0  0  0  0
 30 31  1  0  0  0  0
 32 24  1  0  0  0  0
 32 34  1  0  0  0  0
 33 32  2  0  0  0  0
M  END
>  <MODEL>
2

>  <REMARK>
 VINA RESULT:      -9.9      2.126      4.039
  Name = 
  4 active torsions:
  status: ('A' for Active; 'I' for Inactive)
    1  A    between atoms: N_3  and  C_25
    2  A    between atoms: C_7  and  C_11
    3  A    between atoms: C_8  and  C_18
    4  A    between atoms: C_18  and  N_30
                            x       y       z     vdW  Elec       q    Type
                         _______ _______ _______ _____ _____    ______ ____

>  <TORSDO>
F 4

$$$$
=
 OpenBabel11062409363D

 34 39  0  0  1  0  0  0  0  0999 V2000
  160.5320  210.4390  152.0940 C   0  0  0  0  0  0  0  0  0  0  0  0
  158.9900  213.9080  152.2320 N   0  0  0  0  0  0  0  0  0  0  0  0
  160.4570  212.9580  150.6910 N   0  0  0  0  0  2  0  0  0  0  0  0
  161.2710  208.0940  151.7670 C   0  0  0  0  0  0  0  0  0  0  0  0
  160.3780  209.1260  152.3710 C   0  0  0  0  0  3  0  0  0  0  0  0
  162.1660  209.8170  150.3540 C   0  0  2  0  0  3  0  0  0  0  0  0
  162.1590  210.2070  149.1210 N   0  0  0  0  0  0  0  0  0  0  0  0
  162.1020  208.4100  150.7590 C   0  0  0  0  0  3  0  0  0  0  0  0
  161.3640  211.9160  150.3450 C   0  0  1  0  0  3  0  0  0  0  0  0
  161.7310  210.8700  151.3040 C   0  0  1  0  0  3  0  0  0  0  0  0
  161.6500  211.5420  149.1070 C   0  0  0  0  0  3  0  0  0  0  0  0
  158.1250  214.1090  153.3810 C   0  0  0  0  0  2  0  0  0  0  0  0
  157.0920  213.0130  153.4660 C   0  0  1  0  0  3  0  0  0  0  0  0
  157.7350  211.9460  154.3170 C   0  0  0  0  0  2  0  0  0  0  0  0
  159.6620  212.8470  151.8860 C   0  0  0  0  0  0  0  0  0  0  0  0
  158.7500  211.1390  153.5730 C   0  0  0  0  0  3  0  0  0  0  0  0
  159.6050  211.5000  152.5960 C   0  0  0  0  0  0  0  0  0  0  0  0
  155.8730  213.5080  154.1060 N   0  0  0  0  0  0  0  0  0  0  0  0
  154.7720  213.8020  153.3360 O   0  0  0  0  0  0  0  0  0  0  0  0
  155.7160  213.3490  155.3340 O   0  0  0  0  0  0  0  0  0  0  0  0
  161.1810  206.6790  152.2280 C   0  0  0  0  0  2  0  0  0  0  0  0
  161.1530  205.5170  148.6950 C   0  0  0  0  0  3  0  0  0  0  0  0
  161.1310  204.3600  151.3060 C   0  0  0  0  0  3  0  0  0  0  0  0
  161.0080  201.7740  148.0150 C   0  0  0  0  0  0  0  0  0  0  0  0
  161.0610  203.2410  147.8470 C   0  0  0  0  0  3  0  0  0  0  0  0
  161.1010  204.0620  148.8950 C   0  0  2  0  0  3  0  0  0  0  0  0
  161.0300  202.0370  150.5140 C   0  0  0  0  0  3  0  0  0  0  0  0
  161.0910  203.5180  150.2710 C   0  0  0  0  0  0  0  0  0  0  0  0
  160.9960  201.2300  149.2420 C   0  0  0  0  0  3  0  0  0  0  0  0
  161.1870  205.7790  151.0880 N   0  0  0  0  0  0  0  0  0  0  0  0
  161.1930  206.3240  149.7570 C   0  0  0  0  0  3  0  0  0  0  0  0
  160.9700  200.9070  146.8230 C   0  0  0  0  0  0  0  0  0  0  0  0
  161.4240  199.7330  146.8710 O   0  0  0  0  0  0  0  0  0  0  0  0
  160.4180  201.3910  145.6020 N   0  0  0  0  0  1  0  0  0  0  0  0
  1  5  2  0  0  0  0
  1 17  1  0  0  0  0
  2 12  1  0  0  0  0
  3 15  1  0  0  0  0
  4 21  1  0  0  0  0
  4  5  1  0  0  0  0
  6  8  1  6  0  0  0
  6 10  1  0  0  0  0
  7  6  1  0  0  0  0
  8  4  2  0  0  0  0
  9 11  1  6  0  0  0
  9  3  1  0  0  0  0
  9 10  1  0  0  0  0
 10  1  1  6  0  0  0
 11  7  2  0  0  0  0
 12 13  1  0  0  0  0
 13 18  1  1  0  0  0
 13 14  1  0  0  0  0
 15  2  2  0  0  0  0
 15 17  1  0  0  0  0
 16 14  1  0  0  0  0
 17 16  2  0  0  0  0
 18 20  2  0  0  0  0
 19 18  2  0  0  0  0
 22 26  1  0  0  0  0
 22 31  2  0  0  0  0
 24 29  1  0  0  0  0
 25 24  2  0  0  0  0
 26 25  1  1  0  0  0
 26 28  1  0  0  0  0
 28 27  1  0  0  0  0
 28 23  2  0  0  0  0
 29 27  2  0  0  0  0
 30 23  1  0  0  0  0
 30 21  1  0  0  0  0
 31 30  1  0  0  0  0
 32 33  2  0  0  0  0
 32 24  1  0  0  0  0
 34 32  1  0  0  0  0
M  END
>  <MODEL>
3

>  <REMARK>
 VINA RESULT:      -9.8      1.242      1.975
  Name = 
  4 active torsions:
  status: ('A' for Active; 'I' for Inactive)
    1  A    between atoms: N_3  and  C_25
    2  A    between atoms: C_7  and  C_11
    3  A    between atoms: C_8  and  C_18
    4  A    between atoms: C_18  and  N_30
                            x       y       z     vdW  Elec       q    Type
                         _______ _______ _______ _____ _____    ______ ____

>  <TORSDO>
F 4

$$$$
=
 OpenBabel11062409363D

 34 39  0  0  1  0  0  0  0  0999 V2000
  161.0110  205.2570  149.7120 C   0  0  0  0  0  0  0  0  0  0  0  0
  161.0470  203.8100  146.2000 N   0  0  0  0  0  0  0  0  0  0  0  0
  161.7040  205.9020  146.9880 N   0  0  0  0  0  2  0  0  0  0  0  0
  161.3410  206.1090  152.0180 C   0  0  0  0  0  0  0  0  0  0  0  0
  161.1250  205.0080  151.0350 C   0  0  0  0  0  3  0  0  0  0  0  0
  161.6770  207.5900  150.1580 C   0  0  2  0  0  3  0  0  0  0  0  0
  162.6130  208.2480  149.5560 N   0  0  0  0  0  0  0  0  0  0  0  0
  161.6570  207.3480  151.6030 C   0  0  0  0  0  3  0  0  0  0  0  0
  161.7030  206.8740  148.0270 C   0  0  1  0  0  3  0  0  0  0  0  0
  160.9260  206.6830  149.2560 C   0  0  1  0  0  3  0  0  0  0  0  0
  162.6360  207.7990  148.2000 C   0  0  0  0  0  3  0  0  0  0  0  0
  160.5320  202.4530  146.1300 C   0  0  0  0  0  2  0  0  0  0  0  0
  161.2350  201.5680  147.1290 C   0  0  1  0  0  3  0  0  0  0  0  0
  160.4020  201.6670  148.3820 C   0  0  0  0  0  2  0  0  0  0  0  0
  161.1760  204.5860  147.2380 C   0  0  0  0  0  0  0  0  0  0  0  0
  160.6220  202.9410  149.1310 C   0  0  0  0  0  3  0  0  0  0  0  0
  160.8900  204.1830  148.6800 C   0  0  0  0  0  0  0  0  0  0  0  0
  161.2710  200.1860  146.6500 N   0  0  0  0  0  0  0  0  0  0  0  0
  160.7830  199.8860  145.3980 O   0  0  0  0  0  0  0  0  0  0  0  0
  162.0210  199.3600  147.2090 O   0  0  0  0  0  0  0  0  0  0  0  0
  161.2900  205.8150  153.4790 C   0  0  0  0  0  2  0  0  0  0  0  0
  159.7590  207.9050  156.1470 C   0  0  0  0  0  3  0  0  0  0  0  0
  161.0640  208.2970  153.6380 C   0  0  0  0  0  3  0  0  0  0  0  0
  159.7100  211.6850  155.6920 C   0  0  0  0  0  0  0  0  0  0  0  0
  159.5260  210.3230  156.2350 C   0  0  0  0  0  3  0  0  0  0  0  0
  159.9580  209.2470  155.5810 C   0  0  0  0  0  0  0  0  0  0  0  0
  160.8530  210.7430  153.6620 C   0  0  0  0  0  2  0  0  0  0  0  0
  160.6400  209.3890  154.2760 C   0  0  0  0  0  0  0  0  0  0  0  0
  160.3210  211.8690  154.5110 C   0  0  0  0  0  3  0  0  0  0  0  0
  160.8640  206.9950  154.2130 N   0  0  0  0  0  0  0  0  0  0  0  0
  160.1990  206.8380  155.4780 C   0  0  0  0  0  3  0  0  0  0  0  0
  159.2180  212.8450  156.4570 C   0  0  0  0  0  0  0  0  0  0  0  0
  159.8880  213.9110  156.5050 O   0  0  0  0  0  0  0  0  0  0  0  0
  157.9760  212.7720  157.1510 N   0  0  0  0  0  1  0  0  0  0  0  0
  1  5  2  0  0  0  0
  2 15  2  0  0  0  0
  3 15  1  0  0  0  0
  3  9  1  0  0  0  0
  4 21  1  0  0  0  0
  5  4  1  0  0  0  0
  6  8  1  1  0  0  0
  7  6  1  0  0  0  0
  8  4  2  0  0  0  0
  9 11  1  1  0  0  0
  9 10  1  0  0  0  0
 10  1  1  1  0  0  0
 10  6  1  0  0  0  0
 11  7  2  0  0  0  0
 12  2  1  0  0  0  0
 12 13  1  0  0  0  0
 13 18  1  6  0  0  0
 13 14  1  0  0  0  0
 14 16  1  0  0  0  0
 15 17  1  0  0  0  0
 17 16  2  0  0  0  0
 17  1  1  0  0  0  0
 18 20  2  0  0  0  0
 19 18  2  0  0  0  0
 21 30  1  0  0  0  0
 23 30  1  0  0  0  0
 23 28  2  0  0  0  0
 24 25  1  0  0  0  0
 24 32  1  0  0  0  0
 26 22  1  0  0  0  0
 26 25  2  0  0  0  0
 27 28  1  0  0  0  0
 27 29  1  0  0  0  0
 28 26  1  0  0  0  0
 29 24  2  0  0  0  0
 30 31  1  0  0  0  0
 31 22  2  0  0  0  0
 32 33  2  0  0  0  0
 32 34  1  0  0  0  0
M  END
>  <MODEL>
4

>  <REMARK>
 VINA RESULT:      -9.5      2.093      9.909
  Name = 
  4 active torsions:
  status: ('A' for Active; 'I' for Inactive)
    1  A    between atoms: N_3  and  C_25
    2  A    between atoms: C_7  and  C_11
    3  A    between atoms: C_8  and  C_18
    4  A    between atoms: C_18  and  N_30
                            x       y       z     vdW  Elec       q    Type
                         _______ _______ _______ _____ _____    ______ ____

>  <TORSDO>
F 4

$$$$
=
 OpenBabel11062409363D

 34 39  0  0  1  0  0  0  0  0999 V2000
  161.9660  206.4120  150.0900 C   0  0  0  0  0  0  0  0  0  0  0  0
  161.4010  203.4160  147.8250 N   0  0  0  0  0  0  0  0  0  0  0  0
  161.1720  203.6400  150.1330 N   0  0  0  0  0  2  0  0  0  0  0  0
  161.9730  208.4180  151.5490 C   0  0  0  0  0  0  0  0  0  0  0  0
  161.9200  207.7570  150.2120 C   0  0  0  0  0  3  0  0  0  0  0  0
  161.7420  206.2440  152.5400 C   0  0  2  0  0  3  0  0  0  0  0  0
  160.8830  205.5210  153.1830 N   0  0  0  0  0  0  0  0  0  0  0  0
  161.8380  207.7000  152.6770 C   0  0  0  0  0  3  0  0  0  0  0  0
  161.4210  204.3830  151.3210 C   0  0  1  0  0  3  0  0  0  0  0  0
  162.2530  205.5910  151.3110 C   0  0  1  0  0  3  0  0  0  0  0  0
  160.6740  204.3350  152.4140 C   0  0  0  0  0  3  0  0  0  0  0  0
  161.6720  203.6920  146.4250 C   0  0  0  0  0  2  0  0  0  0  0  0
  160.9130  204.9130  145.9690 C   0  0  1  0  0  3  0  0  0  0  0  0
  161.8510  206.0660  146.2300 C   0  0  0  0  0  2  0  0  0  0  0  0
  161.4890  204.2140  148.8510 C   0  0  0  0  0  0  0  0  0  0  0  0
  161.9100  206.4550  147.6710 C   0  0  0  0  0  3  0  0  0  0  0  0
  161.8190  205.7000  148.7840 C   0  0  0  0  0  0  0  0  0  0  0  0
  160.6060  204.8210  144.5410 N   0  0  0  0  0  0  0  0  0  0  0  0
  161.4170  205.4570  143.6290 O   0  0  0  0  0  0  0  0  0  0  0  0
  159.8400  203.9240  144.1340 O   0  0  0  0  0  0  0  0  0  0  0  0
  162.0930  209.9020  151.6340 C   0  0  0  0  0  2  0  0  0  0  0  0
  161.0180  210.7760  155.0850 C   0  0  0  0  0  3  0  0  0  0  0  0
  159.9520  210.9030  152.4390 C   0  0  0  0  0  3  0  0  0  0  0  0
  157.5370  212.2350  155.5890 C   0  0  0  0  0  0  0  0  0  0  0  0
  158.9000  211.7130  155.8240 C   0  0  0  0  0  3  0  0  0  0  0  0
  159.6660  211.2910  154.8200 C   0  0  0  0  0  0  0  0  0  0  0  0
  157.7880  211.8430  153.1200 C   0  0  0  0  0  2  0  0  0  0  0  0
  159.1660  211.3320  153.4290 C   0  0  0  0  0  0  0  0  0  0  0  0
  157.0350  212.2930  154.3460 C   0  0  0  0  0  3  0  0  0  0  0  0
  161.2720  210.4090  152.7200 N   0  0  0  0  0  0  0  0  0  0  0  0
  161.7720  210.3580  154.0670 C   0  0  0  0  0  3  0  0  0  0  0  0
  156.7290  212.6950  156.7340 C   0  0  0  0  0  0  0  0  0  0  0  0
  156.9460  213.8190  157.2600 O   0  0  0  0  0  0  0  0  0  0  0  0
  155.6930  211.8700  157.2570 N   0  0  0  0  0  1  0  0  0  0  0  0
  1  5  2  0  0  0  0
  2 15  2  0  0  0  0
  3  9  1  0  0  0  0
  4 21  1  0  0  0  0
  4  8  2  0  0  0  0
  5  4  1  0  0  0  0
  6  8  1  6  0  0  0
  6  7  1  0  0  0  0
  9 11  1  6  0  0  0
 10  1  1  6  0  0  0
 10  9  1  0  0  0  0
 10  6  1  0  0  0  0
 11  7  2  0  0  0  0
 12  2  1  0  0  0  0
 13 18  1  6  0  0  0
 13 14  1  0  0  0  0
 13 12  1  0  0  0  0
 14 16  1  0  0  0  0
 15  3  1  0  0  0  0
 16 17  2  0  0  0  0
 17 15  1  0  0  0  0
 17  1  1  0  0  0  0
 19 18  2  0  0  0  0
 20 18  2  0  0  0  0
 21 30  1  0  0  0  0
 23 30  1  0  0  0  0
 23 28  2  0  0  0  0
 24 25  1  0  0  0  0
 24 32  1  0  0  0  0
 26 22  1  0  0  0  0
 26 25  2  0  0  0  0
 27 28  1  0  0  0  0
 27 29  1  0  0  0  0
 28 26  1  0  0  0  0
 29 24  2  0  0  0  0
 30 31  1  0  0  0  0
 31 22  2  0  0  0  0
 32 34  1  0  0  0  0
 32 33  2  0  0  0  0
M  END
>  <MODEL>
5

>  <REMARK>
 VINA RESULT:      -9.5      2.151     10.032
  Name = 
  4 active torsions:
  status: ('A' for Active; 'I' for Inactive)
    1  A    between atoms: N_3  and  C_25
    2  A    between atoms: C_7  and  C_11
    3  A    between atoms: C_8  and  C_18
    4  A    between atoms: C_18  and  N_30
                            x       y       z     vdW  Elec       q    Type
                         _______ _______ _______ _____ _____    ______ ____

>  <TORSDO>
F 4

$$$$
=
 OpenBabel11062409363D

 34 39  0  0  1  0  0  0  0  0999 V2000
  160.7280  209.6580  152.3240 C   0  0  0  0  0  0  0  0  0  0  0  0
  160.5450  213.0440  150.6120 N   0  0  0  0  0  0  0  0  0  0  0  0
  160.1070  212.4300  152.8170 N   0  0  0  0  0  2  0  0  0  0  0  0
  161.1770  207.5540  153.5590 C   0  0  0  0  0  0  0  0  0  0  0  0
  161.3420  208.4560  152.3810 C   0  0  0  0  0  3  0  0  0  0  0  0
  160.0620  209.3610  154.6800 C   0  0  2  0  0  3  0  0  0  0  0  0
  160.2410  210.2090  155.6400 N   0  0  0  0  0  0  0  0  0  0  0  0
  160.6040  207.9990  154.6900 C   0  0  0  0  0  3  0  0  0  0  0  0
  159.8630  211.4100  153.7780 C   0  0  1  0  0  3  0  0  0  0  0  0
  159.7270  210.0030  153.3860 C   0  0  1  0  0  3  0  0  0  0  0  0
  160.1160  211.5150  155.0740 C   0  0  0  0  0  3  0  0  0  0  0  0
  160.8880  212.9960  149.2020 C   0  0  0  0  0  2  0  0  0  0  0  0
  162.2220  212.3190  149.0040 C   0  0  1  0  0  3  0  0  0  0  0  0
  161.8870  210.8590  148.8240 C   0  0  0  0  0  2  0  0  0  0  0  0
  160.5110  212.0750  151.4820 C   0  0  0  0  0  0  0  0  0  0  0  0
  161.5600  210.1730  150.1110 C   0  0  0  0  0  3  0  0  0  0  0  0
  160.9370  210.6360  151.2130 C   0  0  0  0  0  0  0  0  0  0  0  0
  162.8860  212.8390  147.8080 N   0  0  0  0  0  0  0  0  0  0  0  0
  162.7260  214.1600  147.4610 O   0  0  0  0  0  0  0  0  0  0  0  0
  163.8360  212.2020  147.3070 O   0  0  0  0  0  0  0  0  0  0  0  0
  161.7290  206.1700  153.5110 C   0  0  0  0  0  2  0  0  0  0  0  0
  161.0320  203.6740  150.8430 C   0  0  0  0  0  3  0  0  0  0  0  0
  161.8190  206.4130  151.0280 C   0  0  0  0  0  3  0  0  0  0  0  0
  161.4330  204.7390  147.2100 C   0  0  0  0  0  0  0  0  0  0  0  0
  161.1740  203.9500  148.4320 C   0  0  0  0  0  3  0  0  0  0  0  0
  161.2960  204.4850  149.6450 C   0  0  0  0  0  0  0  0  0  0  0  0
  161.9890  206.7560  148.6020 C   0  0  0  0  0  2  0  0  0  0  0  0
  161.7020  205.8990  149.8020 C   0  0  0  0  0  0  0  0  0  0  0  0
  161.8050  206.0260  147.2960 C   0  0  0  0  0  3  0  0  0  0  0  0
  161.5490  205.6040  152.1850 N   0  0  0  0  0  0  0  0  0  0  0  0
  161.1590  204.2270  152.0510 C   0  0  0  0  0  3  0  0  0  0  0  0
  161.2800  204.1030  145.8890 C   0  0  0  0  0  0  0  0  0  0  0  0
  161.2410  202.8470  145.7840 O   0  0  0  0  0  0  0  0  0  0  0  0
  161.1750  204.9020  144.7140 N   0  0  0  0  0  1  0  0  0  0  0  0
  1  5  2  0  0  0  0
  2 15  2  0  0  0  0
  3  9  1  0  0  0  0
  4  8  2  0  0  0  0
  5  4  1  0  0  0  0
  6  8  1  6  0  0  0
  6  7  1  0  0  0  0
  9 11  1  1  0  0  0
 10  1  1  6  0  0  0
 10  9  1  0  0  0  0
 10  6  1  0  0  0  0
 11  7  2  0  0  0  0
 12  2  1  0  0  0  0
 13 18  1  6  0  0  0
 13 12  1  0  0  0  0
 14 13  1  0  0  0  0
 14 16  1  0  0  0  0
 15  3  1  0  0  0  0
 16 17  2  0  0  0  0
 17 15  1  0  0  0  0
 17  1  1  0  0  0  0
 19 18  2  0  0  0  0
 20 18  2  0  0  0  0
 21  4  1  0  0  0  0
 22 31  2  0  0  0  0
 23 30  1  0  0  0  0
 24 29  2  0  0  0  0
 24 25  1  0  0  0  0
 25 26  2  0  0  0  0
 26 28  1  0  0  0  0
 26 22  1  0  0  0  0
 27 28  1  0  0  0  0
 28 23  2  0  0  0  0
 29 27  1  0  0  0  0
 30 21  1  0  0  0  0
 31 30  1  0  0  0  0
 32 24  1  0  0  0  0
 33 32  2  0  0  0  0
 34 32  1  0  0  0  0
M  END
>  <MODEL>
6

>  <REMARK>
 VINA RESULT:      -9.5      3.098      4.557
  Name = 
  4 active torsions:
  status: ('A' for Active; 'I' for Inactive)
    1  A    between atoms: N_3  and  C_25
    2  A    between atoms: C_7  and  C_11
    3  A    between atoms: C_8  and  C_18
    4  A    between atoms: C_18  and  N_30
                            x       y       z     vdW  Elec       q    Type
                         _______ _______ _______ _____ _____    ______ ____

>  <TORSDO>
F 4

$$$$
=
 OpenBabel11062409363D

 34 39  0  0  1  0  0  0  0  0999 V2000
  159.7570  211.5230  152.3800 C   0  0  0  0  0  0  0  0  0  0  0  0
  159.1880  214.3210  149.8740 N   0  0  0  0  0  0  0  0  0  0  0  0
  158.3310  214.0030  152.0170 N   0  0  0  0  0  2  0  0  0  0  0  0
  160.3740  209.9210  154.1700 C   0  0  0  0  0  0  0  0  0  0  0  0
  160.6210  210.6040  152.8660 C   0  0  0  0  0  3  0  0  0  0  0  0
  158.5650  211.4560  154.5380 C   0  0  2  0  0  3  0  0  0  0  0  0
  158.2470  212.4740  155.2700 N   0  0  0  0  0  0  0  0  0  0  0  0
  159.4160  210.3580  155.0050 C   0  0  0  0  0  3  0  0  0  0  0  0
  158.1030  213.1450  153.1300 C   0  0  1  0  0  3  0  0  0  0  0  0
  158.4480  211.7210  153.0840 C   0  0  1  0  0  3  0  0  0  0  0  0
  157.9510  213.5530  154.3810 C   0  0  0  0  0  3  0  0  0  0  0  0
  159.9090  214.1330  148.6270 C   0  0  0  0  0  2  0  0  0  0  0  0
  161.3730  213.8840  148.8940 C   0  0  1  0  0  3  0  0  0  0  0  0
  161.4900  212.3850  149.0200 C   0  0  0  0  0  2  0  0  0  0  0  0
  159.1660  213.5610  150.9320 C   0  0  0  0  0  0  0  0  0  0  0  0
  161.0070  211.8710  150.3370 C   0  0  0  0  0  3  0  0  0  0  0  0
  160.0070  212.3040  151.1300 C   0  0  0  0  0  0  0  0  0  0  0  0
  162.1850  214.3650  147.7750 N   0  0  0  0  0  0  0  0  0  0  0  0
  163.5510  214.4530  147.9160 O   0  0  0  0  0  0  0  0  0  0  0  0
  161.7030  214.3730  146.6240 O   0  0  0  0  0  0  0  0  0  0  0  0
  161.2560  208.7940  154.5900 C   0  0  0  0  0  2  0  0  0  0  0  0
  161.2170  205.3600  153.1600 C   0  0  0  0  0  3  0  0  0  0  0  0
  161.2040  208.0520  152.2060 C   0  0  0  0  0  3  0  0  0  0  0  0
  161.2020  204.9700  149.3730 C   0  0  0  0  0  0  0  0  0  0  0  0
  161.2090  204.6890  150.8230 C   0  0  0  0  0  3  0  0  0  0  0  0
  161.2090  205.6710  151.7230 C   0  0  0  0  0  0  0  0  0  0  0  0
  161.2040  207.4410  149.8280 C   0  0  0  0  0  2  0  0  0  0  0  0
  161.2030  207.0850  151.2870 C   0  0  0  0  0  0  0  0  0  0  0  0
  161.1980  206.2350  148.9240 C   0  0  0  0  0  3  0  0  0  0  0  0
  161.2060  207.7260  153.6060 N   0  0  0  0  0  0  0  0  0  0  0  0
  161.2170  206.3570  154.0470 C   0  0  0  0  0  3  0  0  0  0  0  0
  161.1980  203.8480  148.4160 C   0  0  0  0  0  0  0  0  0  0  0  0
  160.8190  202.7010  148.7760 O   0  0  0  0  0  0  0  0  0  0  0  0
  161.6250  204.0490  147.0720 N   0  0  0  0  0  1  0  0  0  0  0  0
  1  5  2  0  0  0  0
  2 15  2  0  0  0  0
  3  9  1  0  0  0  0
  4 21  1  0  0  0  0
  4  8  2  0  0  0  0
  5  4  1  0  0  0  0
  6  8  1  6  0  0  0
  6  7  1  0  0  0  0
  9 11  1  1  0  0  0
 10  1  1  6  0  0  0
 10  9  1  0  0  0  0
 10  6  1  0  0  0  0
 11  7  2  0  0  0  0
 12 13  1  0  0  0  0
 12  2  1  0  0  0  0
 13 18  1  6  0  0  0
 13 14  1  0  0  0  0
 14 16  1  0  0  0  0
 15 17  1  0  0  0  0
 15  3  1  0  0  0  0
 16 17  2  0  0  0  0
 17  1  1  0  0  0  0
 18 19  2  0  0  0  0
 20 18  2  0  0  0  0
 22 31  2  0  0  0  0
 23 30  1  0  0  0  0
 24 25  1  0  0  0  0
 25 26  2  0  0  0  0
 26 22  1  0  0  0  0
 27 28  1  0  0  0  0
 28 26  1  0  0  0  0
 28 23  2  0  0  0  0
 29 24  2  0  0  0  0
 29 27  1  0  0  0  0
 30 31  1  0  0  0  0
 30 21  1  0  0  0  0
 32 33  2  0  0  0  0
 32 24  1  0  0  0  0
 34 32  1  0  0  0  0
M  END
>  <MODEL>
7

>  <REMARK>
 VINA RESULT:      -9.3      3.336      5.378
  Name = 
  4 active torsions:
  status: ('A' for Active; 'I' for Inactive)
    1  A    between atoms: N_3  and  C_25
    2  A    between atoms: C_7  and  C_11
    3  A    between atoms: C_8  and  C_18
    4  A    between atoms: C_18  and  N_30
                            x       y       z     vdW  Elec       q    Type
                         _______ _______ _______ _____ _____    ______ ____

>  <TORSDO>
F 4

$$$$
=
 OpenBabel11062409363D

 34 39  0  0  1  0  0  0  0  0999 V2000
  159.8060  210.0270  156.0920 C   0  0  0  0  0  0  0  0  0  0  0  0
  158.5130  213.5930  156.2970 N   0  0  0  0  0  0  0  0  0  0  0  0
  160.5470  212.6730  156.9660 N   0  0  0  0  0  2  0  0  0  0  0  0
  160.8220  207.8070  155.6540 C   0  0  0  0  0  0  0  0  0  0  0  0
  159.7970  208.8630  155.4060 C   0  0  0  0  0  3  0  0  0  0  0  0
  161.9960  209.3880  157.0280 C   0  0  2  0  0  3  0  0  0  0  0  0
  163.0680  210.1110  157.0320 N   0  0  0  0  0  0  0  0  0  0  0  0
  161.9120  208.0680  156.3960 C   0  0  0  0  0  3  0  0  0  0  0  0
  161.3340  211.5230  157.2560 C   0  0  1  0  0  3  0  0  0  0  0  0
  160.7580  210.1750  157.2410 C   0  0  1  0  0  3  0  0  0  0  0  0
  162.6560  211.4710  157.1780 C   0  0  0  0  0  3  0  0  0  0  0  0
  157.1670  213.7490  155.7750 C   0  0  0  0  0  2  0  0  0  0  0  0
  157.0690  213.1770  154.3830 C   0  0  1  0  0  3  0  0  0  0  0  0
  156.6680  211.7370  154.5870 C   0  0  0  0  0  2  0  0  0  0  0  0
  159.2460  212.5180  156.3720 C   0  0  0  0  0  0  0  0  0  0  0  0
  157.8050  210.8720  155.0260 C   0  0  0  0  0  3  0  0  0  0  0  0
  158.8620  211.1520  155.8130 C   0  0  0  0  0  0  0  0  0  0  0  0
  156.0470  213.8840  153.6110 N   0  0  0  0  0  0  0  0  0  0  0  0
  156.3080  214.2500  152.3100 O   0  0  0  0  0  0  0  0  0  0  0  0
  154.8590  213.8610  153.9950 O   0  0  0  0  0  0  0  0  0  0  0  0
  160.6790  206.4730  155.0030 C   0  0  0  0  0  2  0  0  0  0  0  0
  161.1950  208.0260  151.6640 C   0  0  0  0  0  3  0  0  0  0  0  0
  160.8840  205.4060  152.7550 C   0  0  0  0  0  3  0  0  0  0  0  0
  161.3530  205.7580  148.6100 C   0  0  0  0  0  0  0  0  0  0  0  0
  161.3470  206.9420  149.4930 C   0  0  0  0  0  3  0  0  0  0  0  0
  161.1980  206.8280  150.8110 C   0  0  0  0  0  0  0  0  0  0  0  0
  161.0210  204.2500  150.5930 C   0  0  0  0  0  2  0  0  0  0  0  0
  161.0320  205.4960  151.4320 C   0  0  0  0  0  0  0  0  0  0  0  0
  161.2050  204.5260  149.1230 C   0  0  0  0  0  3  0  0  0  0  0  0
  160.8900  206.5900  153.5710 N   0  0  0  0  0  0  0  0  0  0  0  0
  161.0460  207.8930  152.9830 C   0  0  0  0  0  3  0  0  0  0  0  0
  161.5250  205.9360  147.1570 C   0  0  0  0  0  0  0  0  0  0  0  0
  160.6330  206.5060  146.4720 O   0  0  0  0  0  0  0  0  0  0  0  0
  162.7030  205.4640  146.5100 N   0  0  0  0  0  1  0  0  0  0  0  0
  2 15  2  0  0  0  0
  3  9  1  0  0  0  0
  4  8  2  0  0  0  0
  5  4  1  0  0  0  0
  5  1  2  0  0  0  0
  6  8  1  6  0  0  0
  6  7  1  0  0  0  0
  6 10  1  0  0  0  0
  7 11  2  0  0  0  0
  9 11  1  6  0  0  0
 10  1  1  6  0  0  0
 10  9  1  0  0  0  0
 12  2  1  0  0  0  0
 13 18  1  6  0  0  0
 13 14  1  0  0  0  0
 13 12  1  0  0  0  0
 14 16  1  0  0  0  0
 15  3  1  0  0  0  0
 16 17  2  0  0  0  0
 17  1  1  0  0  0  0
 17 15  1  0  0  0  0
 18 20  2  0  0  0  0
 19 18  2  0  0  0  0
 21  4  1  0  0  0  0
 22 31  2  0  0  0  0
 23 30  1  0  0  0  0
 24 29  2  0  0  0  0
 24 25  1  0  0  0  0
 25 26  2  0  0  0  0
 26 28  1  0  0  0  0
 26 22  1  0  0  0  0
 27 28  1  0  0  0  0
 28 23  2  0  0  0  0
 29 27  1  0  0  0  0
 30 21  1  0  0  0  0
 31 30  1  0  0  0  0
 32 24  1  0  0  0  0
 33 32  2  0  0  0  0
 34 32  1  0  0  0  0
M  END
>  <MODEL>
8

>  <REMARK>
 VINA RESULT:      -9.3      2.871      4.569
  Name = 
  4 active torsions:
  status: ('A' for Active; 'I' for Inactive)
    1  A    between atoms: N_3  and  C_25
    2  A    between atoms: C_7  and  C_11
    3  A    between atoms: C_8  and  C_18
    4  A    between atoms: C_18  and  N_30
                            x       y       z     vdW  Elec       q    Type
                         _______ _______ _______ _____ _____    ______ ____

>  <TORSDO>
F 4

$$$$
=
 OpenBabel11062409363D

 34 39  0  0  1  0  0  0  0  0999 V2000
  159.4320  213.3150  150.4030 C   0  0  0  0  0  0  0  0  0  0  0  0
  156.4100  214.4530  152.4030 N   0  0  0  0  0  0  0  0  0  0  0  0
  156.7960  214.4430  150.1050 N   0  0  0  0  0  2  0  0  0  0  0  0
  161.2210  212.2590  149.0470 C   0  0  0  0  0  0  0  0  0  0  0  0
  160.4720  212.4540  150.3220 C   0  0  0  0  0  3  0  0  0  0  0  0
  159.5350  213.5720  147.9520 C   0  0  2  0  0  3  0  0  0  0  0  0
  158.5470  213.4500  147.1270 N   0  0  0  0  0  0  0  0  0  0  0  0
  160.7490  212.7540  147.8890 C   0  0  0  0  0  3  0  0  0  0  0  0
  157.7060  214.3280  149.0170 C   0  0  1  0  0  3  0  0  0  0  0  0
  159.1510  214.2110  149.2340 C   0  0  1  0  0  3  0  0  0  0  0  0
  157.3800  213.9290  147.7960 C   0  0  0  0  0  3  0  0  0  0  0  0
  156.5790  214.3040  153.8380 C   0  0  0  0  0  2  0  0  0  0  0  0
  157.0010  212.8960  154.1780 C   0  0  1  0  0  3  0  0  0  0  0  0
  158.5090  212.9300  154.1490 C   0  0  0  0  0  2  0  0  0  0  0  0
  157.2410  214.1580  151.4430 C   0  0  0  0  0  0  0  0  0  0  0  0
  159.0660  212.9240  152.7620 C   0  0  0  0  0  3  0  0  0  0  0  0
  158.5910  213.4740  151.6280 C   0  0  0  0  0  0  0  0  0  0  0  0
  156.5260  212.5280  155.5120 N   0  0  0  0  0  0  0  0  0  0  0  0
  155.7320  213.4040  156.2170 O   0  0  0  0  0  0  0  0  0  0  0  0
  156.5540  211.3310  155.8660 O   0  0  0  0  0  0  0  0  0  0  0  0
  162.4630  211.4340  149.0400 C   0  0  0  0  0  2  0  0  0  0  0  0
  162.1170  208.5960  151.4180 C   0  0  0  0  0  3  0  0  0  0  0  0
  161.8150  209.0610  148.6170 C   0  0  0  0  0  3  0  0  0  0  0  0
  161.1380  205.1830  150.0430 C   0  0  0  0  0  0  0  0  0  0  0  0
  161.5210  206.2860  150.9480 C   0  0  0  0  0  3  0  0  0  0  0  0
  161.7360  207.5190  150.4930 C   0  0  0  0  0  0  0  0  0  0  0  0
  161.2160  206.7420  148.0740 C   0  0  0  0  0  2  0  0  0  0  0  0
  161.5950  207.8180  149.0510 C   0  0  0  0  0  0  0  0  0  0  0  0
  160.9990  205.4010  148.7260 C   0  0  0  0  0  3  0  0  0  0  0  0
  162.1810  210.1000  149.5400 N   0  0  0  0  0  0  0  0  0  0  0  0
  162.3270  209.8250  150.9440 C   0  0  0  0  0  3  0  0  0  0  0  0
  160.9080  203.8370  150.5970 C   0  0  0  0  0  0  0  0  0  0  0  0
  160.7630  202.8460  149.8310 O   0  0  0  0  0  0  0  0  0  0  0  0
  160.8450  203.6410  152.0070 N   0  0  0  0  0  1  0  0  0  0  0  0
  1 17  1  0  0  0  0
  2 12  1  0  0  0  0
  3 15  1  0  0  0  0
  4  5  1  0  0  0  0
  5  1  2  0  0  0  0
  6  8  1  1  0  0  0
  6 10  1  0  0  0  0
  7 11  2  0  0  0  0
  7  6  1  0  0  0  0
  8  4  2  0  0  0  0
  9 11  1  1  0  0  0
  9 10  1  0  0  0  0
  9  3  1  0  0  0  0
 10  1  1  1  0  0  0
 12 13  1  0  0  0  0
 13 18  1  1  0  0  0
 14 13  1  0  0  0  0
 15 17  1  0  0  0  0
 15  2  2  0  0  0  0
 16 14  1  0  0  0  0
 17 16  2  0  0  0  0
 18 20  2  0  0  0  0
 18 19  2  0  0  0  0
 21  4  1  0  0  0  0
 21 30  1  0  0  0  0
 23 28  2  0  0  0  0
 23 30  1  0  0  0  0
 24 32  1  0  0  0  0
 24 25  1  0  0  0  0
 26 25  2  0  0  0  0
 26 22  1  0  0  0  0
 27 29  1  0  0  0  0
 27 28  1  0  0  0  0
 28 26  1  0  0  0  0
 29 24  2  0  0  0  0
 30 31  1  0  0  0  0
 31 22  2  0  0  0  0
 32 34  1  0  0  0  0
 33 32  2  0  0  0  0
M  END
>  <MODEL>
9

>  <REMARK>
 VINA RESULT:      -9.1      2.844      5.096
  Name = 
  4 active torsions:
  status: ('A' for Active; 'I' for Inactive)
    1  A    between atoms: N_3  and  C_25
    2  A    between atoms: C_7  and  C_11
    3  A    between atoms: C_8  and  C_18
    4  A    between atoms: C_18  and  N_30
                            x       y       z     vdW  Elec       q    Type
                         _______ _______ _______ _____ _____    ______ ____

>  <TORSDO>
F 4

$$$$
