=
 OpenBabel11062407473D

 34 38  0  0  1  0  0  0  0  0999 V2000
  161.0160  208.6920  154.8590 C   0  0  2  0  0  3  0  0  0  0  0  0
  160.4510  210.8030  153.2810 C   0  0  1  0  0  3  0  0  0  0  0  0
  162.2230  209.1150  152.5750 C   0  0  0  0  0  2  0  0  0  0  0  0
  162.3650  208.2610  150.2180 C   0  0  2  0  0  3  0  0  0  0  0  0
  159.8140  209.5890  152.9630 O   0  0  0  0  0  0  0  0  0  0  0  0
  161.5990  210.7000  150.8480 C   0  0  0  0  0  2  0  0  0  0  0  0
  161.1050  209.4820  153.5380 C   0  0  1  0  0  0  0  0  0  0  0  0
  160.4680  206.6700  152.5260 C   0  0  0  0  0  2  0  0  0  0  0  0
  161.5520  207.2730  154.7370 C   0  0  0  0  0  3  0  0  0  0  0  0
  160.8250  211.5080  151.9350 C   0  0  0  0  0  2  0  0  0  0  0  0
  162.4410  206.8360  150.8150 C   0  0  0  0  0  2  0  0  0  0  0  0
  161.0810  206.2030  151.1860 C   0  0  1  0  0  3  0  0  0  0  0  0
  161.6670  209.2150  151.1840 C   0  0  2  0  0  3  0  0  0  0  0  0
  161.3250  206.3940  153.7350 C   0  0  0  0  0  3  0  0  0  0  0  0
  160.3840  202.6430  149.9750 C   0  0  0  0  0  0  0  0  0  0  0  0
  161.2190  201.8420  150.8730 C   0  0  0  0  0  3  0  0  0  0  0  0
  161.1040  204.7100  151.0500 C   0  0  0  0  0  0  0  0  0  0  0  0
  161.9450  202.4350  151.8210 C   0  0  0  0  0  3  0  0  0  0  0  0
  160.3720  204.1020  150.1070 C   0  0  0  0  0  3  0  0  0  0  0  0
  161.9440  203.9310  152.0360 C   0  0  0  0  0  2  0  0  0  0  0  0
  159.6870  202.0810  149.0900 O   0  0  0  0  0  0  0  0  0  0  0  0
  159.7920  209.4050  156.5630 C   0  0  0  0  0  1  0  0  0  0  0  0
  159.7170  208.6720  155.3780 O   0  0  0  0  0  0  0  0  0  0  0  0
  161.6520  208.2160  148.8740 C   0  0  0  0  0  2  0  0  0  0  0  0
  162.4150  207.3340  147.9000 C   0  0  0  0  0  2  0  0  0  0  0  0
  161.5010  206.2690  147.3220 C   0  0  0  0  0  2  0  0  0  0  0  0
  162.1420  204.8960  147.4470 C   0  0  0  0  0  2  0  0  0  0  0  0
  161.3690  202.1150  146.4490 O   0  0  0  0  0  0  0  0  0  0  0  0
  162.3480  204.2760  146.0740 C   0  0  1  0  0  3  0  0  0  0  0  0
  161.3140  203.2030  145.8190 C   0  0  0  0  0  0  0  0  0  0  0  0
  160.2320  204.5030  144.0710 C   0  0  0  0  0  3  0  0  0  0  0  0
  161.3280  205.4840  144.1370 C   0  0  0  0  0  3  0  0  0  0  0  0
  162.3090  205.3700  145.0380 C   0  0  0  0  0  3  0  0  0  0  0  0
  160.2270  203.4240  144.8540 C   0  0  0  0  0  3  0  0  0  0  0  0
  1 23  1  6  0  0  0
  2 10  1  6  0  0  0
  2  7  1  0  0  0  0
  4 24  1  6  0  0  0
  4 11  1  0  0  0  0
  4 13  1  0  0  0  0
  5  2  1  0  0  0  0
  5  7  1  0  0  0  0
  6 10  1  0  0  0  0
  7  3  1  6  0  0  0
  7  1  1  0  0  0  0
  8 14  1  0  0  0  0
  9  1  1  0  0  0  0
 11 12  1  0  0  0  0
 12 17  1  1  0  0  0
 12  8  1  0  0  0  0
 13  6  1  6  0  0  0
 13  3  1  0  0  0  0
 14  9  2  0  0  0  0
 15 19  1  0  0  0  0
 15 16  1  0  0  0  0
 16 18  2  0  0  0  0
 17 20  1  0  0  0  0
 18 20  1  0  0  0  0
 19 17  2  0  0  0  0
 21 15  2  0  0  0  0
 23 22  1  0  0  0  0
 25 24  1  0  0  0  0
 26 27  1  0  0  0  0
 26 25  1  0  0  0  0
 29 27  1  1  0  0  0
 30 29  1  0  0  0  0
 30 28  2  0  0  0  0
 31 32  1  0  0  0  0
 31 34  2  0  0  0  0
 32 33  2  0  0  0  0
 33 29  1  0  0  0  0
 34 30  1  0  0  0  0
M  END
>  <MODEL>
1

>  <REMARK>
 VINA RESULT:      -7.8      0.000      0.000
  Name = 
  7 active torsions:
  status: ('A' for Active; 'I' for Inactive)
    1  A    between atoms: C_1  and  O_19
    2  A    between atoms: C_3  and  C_13
    3  A    between atoms: C_3  and  C_17
    4  A    between atoms: C_5  and  C_18
    5  A    between atoms: C_12  and  C_28
    6  A    between atoms: C_17  and  C_29
    7  A    between atoms: C_18  and  C_29
                            x       y       z     vdW  Elec       q    Type
                         _______ _______ _______ _____ _____    ______ ____

>  <TORSDO>
F 7

$$$$
=
 OpenBabel11062407473D

 34 38  0  0  1  0  0  0  0  0999 V2000
  160.7210  202.7030  148.5960 C   0  0  2  0  0  3  0  0  0  0  0  0
  162.2280  203.5990  146.5490 C   0  0  1  0  0  3  0  0  0  0  0  0
  160.6030  205.1680  147.7250 C   0  0  0  0  0  2  0  0  0  0  0  0
  161.2450  207.5190  148.3300 C   0  0  2  0  0  3  0  0  0  0  0  0
  162.7100  203.8550  147.8470 O   0  0  0  0  0  0  0  0  0  0  0  0
  162.1270  206.2650  146.1890 C   0  0  0  0  0  2  0  0  0  0  0  0
  161.3010  203.8170  147.7030 C   0  0  1  0  0  0  0  0  0  0  0  0
  161.7670  204.9700  150.4940 C   0  0  0  0  0  2  0  0  0  0  0  0
  160.0300  203.2420  149.8410 C   0  0  0  0  0  3  0  0  0  0  0  0
  162.5440  204.8540  145.6700 C   0  0  0  0  0  2  0  0  0  0  0  0
  160.6860  207.2320  149.7430 C   0  0  0  0  0  2  0  0  0  0  0  0
  161.6550  206.4980  150.6980 C   0  0  1  0  0  3  0  0  0  0  0  0
  161.6680  206.2230  147.6410 C   0  0  2  0  0  3  0  0  0  0  0  0
  160.4710  204.2200  150.6640 C   0  0  0  0  0  3  0  0  0  0  0  0
  160.9130  208.5160  153.8610 C   0  0  0  0  0  0  0  0  0  0  0  0
  160.9850  207.4910  154.9050 C   0  0  0  0  0  3  0  0  0  0  0  0
  161.4190  206.8740  152.1300 C   0  0  0  0  0  0  0  0  0  0  0  0
  161.2760  206.2300  154.5880 C   0  0  0  0  0  3  0  0  0  0  0  0
  161.1360  208.1410  152.4620 C   0  0  0  0  0  3  0  0  0  0  0  0
  161.5570  205.7870  153.1710 C   0  0  0  0  0  2  0  0  0  0  0  0
  160.6540  209.7100  154.1630 O   0  0  0  0  0  0  0  0  0  0  0  0
  161.2910  200.5800  148.3150 C   0  0  0  0  0  1  0  0  0  0  0  0
  161.6870  201.7560  148.9540 O   0  0  0  0  0  0  0  0  0  0  0  0
  162.4060  208.4980  148.4270 C   0  0  0  0  0  2  0  0  0  0  0  0
  161.9990  209.7250  149.2240 C   0  0  0  0  0  2  0  0  0  0  0  0
  161.9990  210.9560  148.3370 C   0  0  0  0  0  2  0  0  0  0  0  0
  161.5170  212.1700  149.1150 C   0  0  0  0  0  2  0  0  0  0  0  0
  163.1380  214.4520  147.8920 O   0  0  0  0  0  0  0  0  0  0  0  0
  161.0660  213.2690  148.1660 C   0  0  1  0  0  3  0  0  0  0  0  0
  162.2320  213.7700  147.3460 C   0  0  0  0  0  0  0  0  0  0  0  0
  161.3190  212.8610  145.2830 C   0  0  0  0  0  3  0  0  0  0  0  0
  160.0720  212.5320  145.9940 C   0  0  0  0  0  3  0  0  0  0  0  0
  159.9450  212.7380  147.3080 C   0  0  0  0  0  3  0  0  0  0  0  0
  162.3340  213.4510  145.9140 C   0  0  0  0  0  3  0  0  0  0  0  0
  1 23  1  1  0  0  0
  1  9  1  0  0  0  0
  2 10  1  6  0  0  0
  2  7  1  0  0  0  0
  2  5  1  0  0  0  0
  4 24  1  1  0  0  0
  4 11  1  0  0  0  0
  7  3  1  1  0  0  0
  7  5  1  0  0  0  0
  7  1  1  0  0  0  0
  8 14  1  0  0  0  0
  8 12  1  0  0  0  0
  9 14  2  0  0  0  0
 10  6  1  0  0  0  0
 11 12  1  0  0  0  0
 12 17  1  1  0  0  0
 13  6  1  6  0  0  0
 13  3  1  0  0  0  0
 13  4  1  0  0  0  0
 15 21  2  0  0  0  0
 15 16  1  0  0  0  0
 17 19  2  0  0  0  0
 17 20  1  0  0  0  0
 18 16  2  0  0  0  0
 19 15  1  0  0  0  0
 20 18  1  0  0  0  0
 22 23  1  0  0  0  0
 24 25  1  0  0  0  0
 26 27  1  0  0  0  0
 26 25  1  0  0  0  0
 29 27  1  1  0  0  0
 30 28  2  0  0  0  0
 30 29  1  0  0  0  0
 31 34  2  0  0  0  0
 31 32  1  0  0  0  0
 32 33  2  0  0  0  0
 33 29  1  0  0  0  0
 34 30  1  0  0  0  0
M  END
>  <MODEL>
2

>  <REMARK>
 VINA RESULT:      -7.7      2.816      7.281
  Name = 
  7 active torsions:
  status: ('A' for Active; 'I' for Inactive)
    1  A    between atoms: C_1  and  O_19
    2  A    between atoms: C_3  and  C_13
    3  A    between atoms: C_3  and  C_17
    4  A    between atoms: C_5  and  C_18
    5  A    between atoms: C_12  and  C_28
    6  A    between atoms: C_17  and  C_29
    7  A    between atoms: C_18  and  C_29
                            x       y       z     vdW  Elec       q    Type
                         _______ _______ _______ _____ _____    ______ ____

>  <TORSDO>
F 7

$$$$
=
 OpenBabel11062407473D

 34 38  0  0  1  0  0  0  0  0999 V2000
  160.7360  202.8010  148.6250 C   0  0  2  0  0  3  0  0  0  0  0  0
  162.2010  203.7420  146.5680 C   0  0  1  0  0  3  0  0  0  0  0  0
  160.5700  205.2740  147.7850 C   0  0  0  0  0  2  0  0  0  0  0  0
  161.1860  207.6270  148.4080 C   0  0  2  0  0  3  0  0  0  0  0  0
  162.6970  203.9900  147.8620 O   0  0  0  0  0  0  0  0  0  0  0  0
  162.0570  206.4100  146.2410 C   0  0  0  0  0  2  0  0  0  0  0  0
  161.2870  203.9340  147.7370 C   0  0  1  0  0  0  0  0  0  0  0  0
  161.7760  205.0610  150.5350 C   0  0  0  0  0  2  0  0  0  0  0  0
  160.0550  203.3150  149.8860 C   0  0  0  0  0  3  0  0  0  0  0  0
  162.4870  205.0120  145.6990 C   0  0  0  0  0  2  0  0  0  0  0  0
  160.6520  207.3160  149.8250 C   0  0  0  0  0  2  0  0  0  0  0  0
  161.6440  206.5850  150.7580 C   0  0  1  0  0  3  0  0  0  0  0  0
  161.6180  206.3450  147.6990 C   0  0  2  0  0  3  0  0  0  0  0  0
  160.4930  204.2900  150.7140 C   0  0  0  0  0  3  0  0  0  0  0  0
  160.9290  208.5570  153.9560 C   0  0  0  0  0  0  0  0  0  0  0  0
  161.0180  207.5190  154.9850 C   0  0  0  0  0  3  0  0  0  0  0  0
  161.4230  206.9410  152.1970 C   0  0  0  0  0  0  0  0  0  0  0  0
  161.3110  206.2640  154.6480 C   0  0  0  0  0  3  0  0  0  0  0  0
  161.1370  208.2020  152.5500 C   0  0  0  0  0  3  0  0  0  0  0  0
  161.5780  205.8410  153.2220 C   0  0  0  0  0  2  0  0  0  0  0  0
  160.6680  209.7460  154.2760 O   0  0  0  0  0  0  0  0  0  0  0  0
  161.2710  200.6610  148.4130 C   0  0  0  0  0  1  0  0  0  0  0  0
  161.7210  201.8640  148.9590 O   0  0  0  0  0  0  0  0  0  0  0  0
  162.3350  208.6210  148.5000 C   0  0  0  0  0  2  0  0  0  0  0  0
  161.9350  209.8130  149.3520 C   0  0  0  0  0  2  0  0  0  0  0  0
  162.2640  211.1100  148.6360 C   0  0  0  0  0  2  0  0  0  0  0  0
  161.2130  211.4150  147.5800 C   0  0  0  0  0  2  0  0  0  0  0  0
  158.9730  212.8610  146.0910 O   0  0  0  0  0  0  0  0  0  0  0  0
  160.8160  212.8830  147.6290 C   0  0  1  0  0  3  0  0  0  0  0  0
  159.3570  213.0470  147.2750 C   0  0  0  0  0  0  0  0  0  0  0  0
  158.7710  213.7470  149.5300 C   0  0  0  0  0  3  0  0  0  0  0  0
  160.2020  213.8010  149.8730 C   0  0  0  0  0  3  0  0  0  0  0  0
  161.1410  213.4260  148.9980 C   0  0  0  0  0  3  0  0  0  0  0  0
  158.3700  213.4020  148.3060 C   0  0  0  0  0  3  0  0  0  0  0  0
  1 23  1  1  0  0  0
  1  9  1  0  0  0  0
  2 10  1  6  0  0  0
  2  7  1  0  0  0  0
  2  5  1  0  0  0  0
  4 24  1  1  0  0  0
  4 11  1  0  0  0  0
  7  3  1  1  0  0  0
  7  5  1  0  0  0  0
  7  1  1  0  0  0  0
  8 14  1  0  0  0  0
  8 12  1  0  0  0  0
  9 14  2  0  0  0  0
 10  6  1  0  0  0  0
 11 12  1  0  0  0  0
 12 17  1  1  0  0  0
 13  6  1  6  0  0  0
 13  3  1  0  0  0  0
 13  4  1  0  0  0  0
 15 21  2  0  0  0  0
 15 16  1  0  0  0  0
 17 19  2  0  0  0  0
 17 20  1  0  0  0  0
 18 16  2  0  0  0  0
 19 15  1  0  0  0  0
 20 18  1  0  0  0  0
 22 23  1  0  0  0  0
 24 25  1  0  0  0  0
 26 25  1  0  0  0  0
 27 26  1  0  0  0  0
 28 30  2  0  0  0  0
 29 27  1  1  0  0  0
 29 33  1  0  0  0  0
 30 29  1  0  0  0  0
 30 34  1  0  0  0  0
 31 32  1  0  0  0  0
 33 32  2  0  0  0  0
 34 31  2  0  0  0  0
M  END
>  <MODEL>
3

>  <REMARK>
 VINA RESULT:      -7.5      2.535      7.358
  Name = 
  7 active torsions:
  status: ('A' for Active; 'I' for Inactive)
    1  A    between atoms: C_1  and  O_19
    2  A    between atoms: C_3  and  C_13
    3  A    between atoms: C_3  and  C_17
    4  A    between atoms: C_5  and  C_18
    5  A    between atoms: C_12  and  C_28
    6  A    between atoms: C_17  and  C_29
    7  A    between atoms: C_18  and  C_29
                            x       y       z     vdW  Elec       q    Type
                         _______ _______ _______ _____ _____    ______ ____

>  <TORSDO>
F 7

$$$$
=
 OpenBabel11062407473D

 34 38  0  0  1  0  0  0  0  0999 V2000
  161.1630  207.5760  154.2610 C   0  0  2  0  0  3  0  0  0  0  0  0
  160.2640  210.1050  154.0130 C   0  0  1  0  0  3  0  0  0  0  0  0
  162.1680  209.2710  152.5390 C   0  0  0  0  0  2  0  0  0  0  0  0
  162.2570  209.7870  150.0840 C   0  0  2  0  0  3  0  0  0  0  0  0
  159.7500  209.1600  153.1050 O   0  0  0  0  0  0  0  0  0  0  0  0
  161.2610  211.4250  151.8890 C   0  0  0  0  0  2  0  0  0  0  0  0
  161.0780  208.9380  153.5460 C   0  0  1  0  0  0  0  0  0  0  0  0
  160.7010  207.0010  151.2140 C   0  0  0  0  0  2  0  0  0  0  0  0
  161.8470  206.5070  153.4200 C   0  0  0  0  0  3  0  0  0  0  0  0
  160.4710  211.4460  153.2340 C   0  0  0  0  0  2  0  0  0  0  0  0
  162.5310  208.2830  149.8510 C   0  0  0  0  0  2  0  0  0  0  0  0
  161.2780  207.3800  149.8300 C   0  0  1  0  0  3  0  0  0  0  0  0
  161.5170  210.0040  151.4020 C   0  0  2  0  0  3  0  0  0  0  0  0
  161.6580  206.2530  152.1060 C   0  0  0  0  0  3  0  0  0  0  0  0
  162.2310  205.1650  146.8610 C   0  0  0  0  0  0  0  0  0  0  0  0
  161.7630  203.8470  147.2960 C   0  0  0  0  0  3  0  0  0  0  0  0
  161.4610  206.1900  148.9360 C   0  0  0  0  0  0  0  0  0  0  0  0
  161.1600  203.7050  148.4760 C   0  0  0  0  0  3  0  0  0  0  0  0
  162.0570  206.3220  147.7430 C   0  0  0  0  0  3  0  0  0  0  0  0
  160.9130  204.8650  149.4130 C   0  0  0  0  0  2  0  0  0  0  0  0
  162.7870  205.3020  145.7400 O   0  0  0  0  0  0  0  0  0  0  0  0
  159.9590  207.1840  156.0800 C   0  0  0  0  0  1  0  0  0  0  0  0
  159.9090  207.1220  154.6870 O   0  0  0  0  0  0  0  0  0  0  0  0
  161.4710  210.3520  148.9100 C   0  0  0  0  0  2  0  0  0  0  0  0
  162.2410  211.4860  148.2540 C   0  0  0  0  0  2  0  0  0  0  0  0
  161.4410  212.7740  148.3160 C   0  0  0  0  0  2  0  0  0  0  0  0
  160.1860  212.6610  147.4660 C   0  0  0  0  0  2  0  0  0  0  0  0
  157.2390  212.9190  146.7020 O   0  0  0  0  0  0  0  0  0  0  0  0
  159.1860  213.7430  147.8420 C   0  0  1  0  0  3  0  0  0  0  0  0
  157.7780  213.1970  147.8050 C   0  0  0  0  0  0  0  0  0  0  0  0
  157.5200  213.3870  150.2160 C   0  0  0  0  0  3  0  0  0  0  0  0
  158.8010  214.1100  150.2850 C   0  0  0  0  0  3  0  0  0  0  0  0
  159.5550  214.2930  149.1970 C   0  0  0  0  0  3  0  0  0  0  0  0
  157.0310  212.9640  149.0510 C   0  0  0  0  0  3  0  0  0  0  0  0
  1 23  1  6  0  0  0
  2 10  1  6  0  0  0
  4 24  1  6  0  0  0
  4 13  1  0  0  0  0
  5  7  1  0  0  0  0
  5  2  1  0  0  0  0
  6 10  1  0  0  0  0
  7  3  1  6  0  0  0
  7  2  1  0  0  0  0
  7  1  1  0  0  0  0
  8 14  1  0  0  0  0
  9  1  1  0  0  0  0
 11  4  1  0  0  0  0
 12 17  1  1  0  0  0
 12 11  1  0  0  0  0
 12  8  1  0  0  0  0
 13  6  1  1  0  0  0
 13  3  1  0  0  0  0
 14  9  2  0  0  0  0
 15 16  1  0  0  0  0
 15 19  1  0  0  0  0
 16 18  2  0  0  0  0
 17 20  1  0  0  0  0
 18 20  1  0  0  0  0
 19 17  2  0  0  0  0
 21 15  2  0  0  0  0
 23 22  1  0  0  0  0
 25 26  1  0  0  0  0
 25 24  1  0  0  0  0
 27 26  1  0  0  0  0
 28 30  2  0  0  0  0
 29 27  1  1  0  0  0
 29 33  1  0  0  0  0
 30 29  1  0  0  0  0
 30 34  1  0  0  0  0
 31 32  1  0  0  0  0
 33 32  2  0  0  0  0
 34 31  2  0  0  0  0
M  END
>  <MODEL>
4

>  <REMARK>
 VINA RESULT:      -7.5      2.774      5.662
  Name = 
  7 active torsions:
  status: ('A' for Active; 'I' for Inactive)
    1  A    between atoms: C_1  and  O_19
    2  A    between atoms: C_3  and  C_13
    3  A    between atoms: C_3  and  C_17
    4  A    between atoms: C_5  and  C_18
    5  A    between atoms: C_12  and  C_28
    6  A    between atoms: C_17  and  C_29
    7  A    between atoms: C_18  and  C_29
                            x       y       z     vdW  Elec       q    Type
                         _______ _______ _______ _____ _____    ______ ____

>  <TORSDO>
F 7

$$$$
=
 OpenBabel11062407473D

 34 38  0  0  1  0  0  0  0  0999 V2000
  161.0600  207.3050  154.6290 C   0  0  2  0  0  3  0  0  0  0  0  0
  160.4250  209.8690  154.0890 C   0  0  1  0  0  3  0  0  0  0  0  0
  162.2140  208.6770  152.7210 C   0  0  0  0  0  2  0  0  0  0  0  0
  162.3260  208.8950  150.2230 C   0  0  2  0  0  3  0  0  0  0  0  0
  159.8050  208.8840  153.2970 O   0  0  0  0  0  0  0  0  0  0  0  0
  161.5270  210.8240  151.8270 C   0  0  0  0  0  2  0  0  0  0  0  0
  161.1080  208.5780  153.7610 C   0  0  1  0  0  0  0  0  0  0  0  0
  160.5040  206.4350  151.6680 C   0  0  0  0  0  2  0  0  0  0  0  0
  161.6200  206.0820  153.9160 C   0  0  0  0  0  3  0  0  0  0  0  0
  160.7600  211.0820  153.1600 C   0  0  0  0  0  2  0  0  0  0  0  0
  162.4400  207.3540  150.1650 C   0  0  0  0  0  2  0  0  0  0  0  0
  161.1000  206.5900  150.2500 C   0  0  1  0  0  3  0  0  0  0  0  0
  161.6290  209.3380  151.5070 C   0  0  2  0  0  3  0  0  0  0  0  0
  161.3890  205.6990  152.6410 C   0  0  0  0  0  3  0  0  0  0  0  0
  161.5630  204.0020  147.4710 C   0  0  0  0  0  0  0  0  0  0  0  0
  161.2070  202.7530  148.1500 C   0  0  0  0  0  3  0  0  0  0  0  0
  161.1480  205.2930  149.4990 C   0  0  0  0  0  0  0  0  0  0  0  0
  160.8240  202.7690  149.4260 C   0  0  0  0  0  3  0  0  0  0  0  0
  161.5220  205.2650  148.2130 C   0  0  0  0  0  3  0  0  0  0  0  0
  160.7210  204.0420  150.2340 C   0  0  0  0  0  2  0  0  0  0  0  0
  161.9090  203.9890  146.2610 O   0  0  0  0  0  0  0  0  0  0  0  0
  159.8770  207.1220  156.4930 C   0  0  0  0  0  1  0  0  0  0  0  0
  159.7720  207.0370  155.1040 O   0  0  0  0  0  0  0  0  0  0  0  0
  161.5880  209.4000  148.9910 C   0  0  0  0  0  2  0  0  0  0  0  0
  162.4130  210.4560  148.2770 C   0  0  0  0  0  2  0  0  0  0  0  0
  161.8750  211.8430  148.5800 C   0  0  0  0  0  2  0  0  0  0  0  0
  162.6720  212.8980  147.8300 C   0  0  0  0  0  2  0  0  0  0  0  0
  162.6680  213.3440  144.8080 O   0  0  0  0  0  0  0  0  0  0  0  0
  161.7510  213.7660  146.9870 C   0  0  1  0  0  3  0  0  0  0  0  0
  161.6750  213.2380  145.5740 C   0  0  0  0  0  0  0  0  0  0  0  0
  159.3450  212.5850  145.8230 C   0  0  0  0  0  3  0  0  0  0  0  0
  159.3050  213.2650  147.1280 C   0  0  0  0  0  3  0  0  0  0  0  0
  160.3990  213.8250  147.6540 C   0  0  0  0  0  3  0  0  0  0  0  0
  160.4550  212.5780  145.0850 C   0  0  0  0  0  3  0  0  0  0  0  0
  1 23  1  6  0  0  0
  2 10  1  6  0  0  0
  4 24  1  6  0  0  0
  4 13  1  0  0  0  0
  5  7  1  0  0  0  0
  5  2  1  0  0  0  0
  6 10  1  0  0  0  0
  7  3  1  6  0  0  0
  7  2  1  0  0  0  0
  7  1  1  0  0  0  0
  8 14  1  0  0  0  0
  9  1  1  0  0  0  0
 11  4  1  0  0  0  0
 11 12  1  0  0  0  0
 12 17  1  1  0  0  0
 12  8  1  0  0  0  0
 13  6  1  1  0  0  0
 13  3  1  0  0  0  0
 14  9  2  0  0  0  0
 15 16  1  0  0  0  0
 15 19  1  0  0  0  0
 16 18  2  0  0  0  0
 17 20  1  0  0  0  0
 18 20  1  0  0  0  0
 19 17  2  0  0  0  0
 21 15  2  0  0  0  0
 23 22  1  0  0  0  0
 25 26  1  0  0  0  0
 25 24  1  0  0  0  0
 27 26  1  0  0  0  0
 28 30  2  0  0  0  0
 29 33  1  0  0  0  0
 29 27  1  1  0  0  0
 30 29  1  0  0  0  0
 31 32  1  0  0  0  0
 32 33  2  0  0  0  0
 34 30  1  0  0  0  0
 34 31  2  0  0  0  0
M  END
>  <MODEL>
5

>  <REMARK>
 VINA RESULT:      -7.3      3.077      4.904
  Name = 
  7 active torsions:
  status: ('A' for Active; 'I' for Inactive)
    1  A    between atoms: C_1  and  O_19
    2  A    between atoms: C_3  and  C_13
    3  A    between atoms: C_3  and  C_17
    4  A    between atoms: C_5  and  C_18
    5  A    between atoms: C_12  and  C_28
    6  A    between atoms: C_17  and  C_29
    7  A    between atoms: C_18  and  C_29
                            x       y       z     vdW  Elec       q    Type
                         _______ _______ _______ _____ _____    ______ ____

>  <TORSDO>
F 7

$$$$
=
 OpenBabel11062407473D

 34 38  0  0  1  0  0  0  0  0999 V2000
  159.4820  211.4120  155.9770 C   0  0  2  0  0  3  0  0  0  0  0  0
  160.6970  209.3690  157.2480 C   0  0  1  0  0  3  0  0  0  0  0  0
  159.6260  209.0030  154.9660 C   0  0  0  0  0  2  0  0  0  0  0  0
  160.7690  207.6690  153.1720 C   0  0  2  0  0  3  0  0  0  0  0  0
  161.4570  210.0520  156.2790 O   0  0  0  0  0  0  0  0  0  0  0  0
  160.9900  207.1550  155.7450 C   0  0  0  0  0  2  0  0  0  0  0  0
  160.0620  209.9860  156.0410 C   0  0  1  0  0  0  0  0  0  0  0  0
  161.2510  211.0100  153.4190 C   0  0  0  0  0  2  0  0  0  0  0  0
  159.1490  211.8530  154.5580 C   0  0  0  0  0  3  0  0  0  0  0  0
  161.0490  207.8480  157.1410 C   0  0  0  0  0  2  0  0  0  0  0  0
  160.4530  208.8330  152.2050 C   0  0  0  0  0  2  0  0  0  0  0  0
  161.4460  210.0160  152.2510 C   0  0  1  0  0  3  0  0  0  0  0  0
  160.8200  208.1640  154.6160 C   0  0  2  0  0  3  0  0  0  0  0  0
  159.9020  211.6820  153.4490 C   0  0  0  0  0  3  0  0  0  0  0  0
  161.0780  212.5610  149.4190 C   0  0  0  0  0  0  0  0  0  0  0  0
  161.8400  211.9320  148.3380 C   0  0  0  0  0  3  0  0  0  0  0  0
  161.5610  210.7020  150.9230 C   0  0  0  0  0  0  0  0  0  0  0  0
  162.4180  210.7460  148.5270 C   0  0  0  0  0  3  0  0  0  0  0  0
  160.9770  211.8900  150.7180 C   0  0  0  0  0  3  0  0  0  0  0  0
  162.3160  209.9840  149.8280 C   0  0  0  0  0  2  0  0  0  0  0  0
  160.5190  213.6740  149.2360 O   0  0  0  0  0  0  0  0  0  0  0  0
  159.7380  213.5890  156.3080 C   0  0  0  0  0  1  0  0  0  0  0  0
  160.3210  212.3520  156.5880 O   0  0  0  0  0  0  0  0  0  0  0  0
  162.0790  207.0070  152.7680 C   0  0  0  0  0  2  0  0  0  0  0  0
  161.9290  205.4960  152.7650 C   0  0  0  0  0  2  0  0  0  0  0  0
  161.2230  205.0360  151.5020 C   0  0  0  0  0  2  0  0  0  0  0  0
  161.5870  205.9370  150.3330 C   0  0  0  0  0  2  0  0  0  0  0  0
  161.2200  207.4630  147.7120 O   0  0  0  0  0  0  0  0  0  0  0  0
  160.8100  205.5380  149.0880 C   0  0  1  0  0  3  0  0  0  0  0  0
  161.3780  206.2240  147.8680 C   0  0  0  0  0  0  0  0  0  0  0  0
  162.1900  204.1310  146.9300 C   0  0  0  0  0  3  0  0  0  0  0  0
  161.4810  203.3940  147.9900 C   0  0  0  0  0  3  0  0  0  0  0  0
  160.8310  204.0350  148.9660 C   0  0  0  0  0  3  0  0  0  0  0  0
  162.1360  205.4620  146.8650 C   0  0  0  0  0  3  0  0  0  0  0  0
  1  7  1  0  0  0  0
  1 23  1  6  0  0  0
  2 10  1  6  0  0  0
  4 24  1  6  0  0  0
  4 13  1  0  0  0  0
  5  2  1  0  0  0  0
  6 10  1  0  0  0  0
  7  3  1  6  0  0  0
  7  5  1  0  0  0  0
  7  2  1  0  0  0  0
  8 14  1  0  0  0  0
  9  1  1  0  0  0  0
 11 12  1  0  0  0  0
 11  4  1  0  0  0  0
 12 17  1  6  0  0  0
 12  8  1  0  0  0  0
 13  3  1  1  0  0  0
 13  6  1  0  0  0  0
 14  9  2  0  0  0  0
 15 19  1  0  0  0  0
 16 18  2  0  0  0  0
 16 15  1  0  0  0  0
 18 20  1  0  0  0  0
 19 17  2  0  0  0  0
 20 17  1  0  0  0  0
 21 15  2  0  0  0  0
 22 23  1  0  0  0  0
 25 24  1  0  0  0  0
 26 25  1  0  0  0  0
 27 26  1  0  0  0  0
 28 30  2  0  0  0  0
 29 27  1  1  0  0  0
 30 29  1  0  0  0  0
 31 32  1  0  0  0  0
 32 33  2  0  0  0  0
 33 29  1  0  0  0  0
 34 31  2  0  0  0  0
 34 30  1  0  0  0  0
M  END
>  <MODEL>
6

>  <REMARK>
 VINA RESULT:      -7.2      2.231      5.572
  Name = 
  7 active torsions:
  status: ('A' for Active; 'I' for Inactive)
    1  A    between atoms: C_1  and  O_19
    2  A    between atoms: C_3  and  C_13
    3  A    between atoms: C_3  and  C_17
    4  A    between atoms: C_5  and  C_18
    5  A    between atoms: C_12  and  C_28
    6  A    between atoms: C_17  and  C_29
    7  A    between atoms: C_18  and  C_29
                            x       y       z     vdW  Elec       q    Type
                         _______ _______ _______ _____ _____    ______ ____

>  <TORSDO>
F 7

$$$$
=
 OpenBabel11062407473D

 34 38  0  0  1  0  0  0  0  0999 V2000
  160.5770  208.6530  153.7420 C   0  0  2  0  0  3  0  0  0  0  0  0
  161.7660  206.2600  153.3890 C   0  0  1  0  0  3  0  0  0  0  0  0
  160.5160  207.3660  151.4640 C   0  0  0  0  0  2  0  0  0  0  0  0
  161.4540  207.4080  149.1360 C   0  0  2  0  0  3  0  0  0  0  0  0
  162.4910  207.3930  152.9740 O   0  0  0  0  0  0  0  0  0  0  0  0
  161.8300  205.4280  150.8300 C   0  0  0  0  0  2  0  0  0  0  0  0
  161.0810  207.4860  152.8710 C   0  0  1  0  0  0  0  0  0  0  0  0
  162.1340  209.9000  151.3230 C   0  0  0  0  0  2  0  0  0  0  0  0
  160.1680  209.8700  152.9230 C   0  0  0  0  0  3  0  0  0  0  0  0
  162.0270  205.1230  152.3470 C   0  0  0  0  0  2  0  0  0  0  0  0
  161.1340  208.9210  149.1110 C   0  0  0  0  0  2  0  0  0  0  0  0
  162.1910  209.8290  149.7800 C   0  0  1  0  0  3  0  0  0  0  0  0
  161.6350  206.9170  150.5700 C   0  0  2  0  0  3  0  0  0  0  0  0
  160.8290  210.4130  151.8770 C   0  0  0  0  0  3  0  0  0  0  0  0
  161.3560  213.4260  148.7820 C   0  0  0  0  0  0  0  0  0  0  0  0
  162.4470  213.7520  147.8610 C   0  0  0  0  0  3  0  0  0  0  0  0
  162.2470  211.1840  149.1400 C   0  0  0  0  0  0  0  0  0  0  0  0
  163.3790  212.8430  147.5770 C   0  0  0  0  0  3  0  0  0  0  0  0
  161.3100  212.1030  149.4100 C   0  0  0  0  0  3  0  0  0  0  0  0
  163.3660  211.4490  148.1590 C   0  0  0  0  0  2  0  0  0  0  0  0
  160.4660  214.2790  149.0380 O   0  0  0  0  0  0  0  0  0  0  0  0
  160.8180  209.9050  155.5550 C   0  0  0  0  0  1  0  0  0  0  0  0
  161.5070  209.0240  154.7210 O   0  0  0  0  0  0  0  0  0  0  0  0
  162.6930  207.1330  148.2970 C   0  0  0  0  0  2  0  0  0  0  0  0
  162.3070  206.4770  146.9820 C   0  0  0  0  0  2  0  0  0  0  0  0
  161.1950  205.4680  147.2010 C   0  0  0  0  0  2  0  0  0  0  0  0
  161.7750  204.0950  147.5000 C   0  0  0  0  0  2  0  0  0  0  0  0
  160.7180  201.7440  145.8590 O   0  0  0  0  0  0  0  0  0  0  0  0
  160.6670  203.1080  147.8360 C   0  0  1  0  0  3  0  0  0  0  0  0
  160.8840  201.8030  147.1060 C   0  0  0  0  0  0  0  0  0  0  0  0
  161.3460  200.5960  149.1670 C   0  0  0  0  0  3  0  0  0  0  0  0
  160.9480  201.7860  149.9390 C   0  0  0  0  0  3  0  0  0  0  0  0
  160.6160  202.9290  149.3320 C   0  0  0  0  0  3  0  0  0  0  0  0
  161.3080  200.5980  147.8340 C   0  0  0  0  0  3  0  0  0  0  0  0
  1 23  1  1  0  0  0
  2 10  1  6  0  0  0
  4 24  1  6  0  0  0
  4 13  1  0  0  0  0
  5  2  1  0  0  0  0
  6 10  1  0  0  0  0
  7  3  1  6  0  0  0
  7  5  1  0  0  0  0
  7  2  1  0  0  0  0
  7  1  1  0  0  0  0
  8 14  1  0  0  0  0
  9  1  1  0  0  0  0
 11  4  1  0  0  0  0
 11 12  1  0  0  0  0
 12 17  1  6  0  0  0
 12  8  1  0  0  0  0
 13  6  1  6  0  0  0
 13  3  1  0  0  0  0
 14  9  2  0  0  0  0
 15 21  2  0  0  0  0
 15 19  1  0  0  0  0
 16 15  1  0  0  0  0
 17 19  2  0  0  0  0
 18 16  2  0  0  0  0
 18 20  1  0  0  0  0
 20 17  1  0  0  0  0
 23 22  1  0  0  0  0
 25 26  1  0  0  0  0
 25 24  1  0  0  0  0
 26 27  1  0  0  0  0
 28 30  2  0  0  0  0
 29 27  1  1  0  0  0
 29 33  1  0  0  0  0
 30 34  1  0  0  0  0
 30 29  1  0  0  0  0
 31 32  1  0  0  0  0
 33 32  2  0  0  0  0
 34 31  2  0  0  0  0
M  END
>  <MODEL>
7

>  <REMARK>
 VINA RESULT:      -7.1      2.203      5.666
  Name = 
  7 active torsions:
  status: ('A' for Active; 'I' for Inactive)
    1  A    between atoms: C_1  and  O_19
    2  A    between atoms: C_3  and  C_13
    3  A    between atoms: C_3  and  C_17
    4  A    between atoms: C_5  and  C_18
    5  A    between atoms: C_12  and  C_28
    6  A    between atoms: C_17  and  C_29
    7  A    between atoms: C_18  and  C_29
                            x       y       z     vdW  Elec       q    Type
                         _______ _______ _______ _____ _____    ______ ____

>  <TORSDO>
F 7

$$$$
=
 OpenBabel11062407473D

 34 38  0  0  1  0  0  0  0  0999 V2000
  161.7200  205.0340  152.4320 C   0  0  2  0  0  3  0  0  0  0  0  0
  161.1670  207.5220  153.3100 C   0  0  1  0  0  3  0  0  0  0  0  0
  162.6810  207.1840  151.2890 C   0  0  0  0  0  2  0  0  0  0  0  0
  162.4650  208.6010  149.2280 C   0  0  2  0  0  3  0  0  0  0  0  0
  160.3890  207.0420  152.2390 O   0  0  0  0  0  0  0  0  0  0  0  0
  162.0050  209.4820  151.6670 C   0  0  0  0  0  2  0  0  0  0  0  0
  161.7230  206.5690  152.2980 C   0  0  1  0  0  0  0  0  0  0  0  0
  160.7170  205.7200  149.5410 C   0  0  0  0  0  2  0  0  0  0  0  0
  162.1060  204.3260  151.1400 C   0  0  0  0  0  3  0  0  0  0  0  0
  161.4430  209.0400  153.0530 C   0  0  0  0  0  2  0  0  0  0  0  0
  162.4810  207.2880  148.4110 C   0  0  0  0  0  2  0  0  0  0  0  0
  161.1220  206.5590  148.3080 C   0  0  1  0  0  3  0  0  0  0  0  0
  161.9760  208.3450  150.6520 C   0  0  2  0  0  3  0  0  0  0  0  0
  161.6820  204.6150  149.8890 C   0  0  0  0  0  3  0  0  0  0  0  0
  161.1420  203.7390  145.7240 C   0  0  0  0  0  0  0  0  0  0  0  0
  160.7140  204.4330  144.5070 C   0  0  0  0  0  3  0  0  0  0  0  0
  160.9930  205.7990  147.0220 C   0  0  0  0  0  0  0  0  0  0  0  0
  160.4550  205.7400  144.5350 C   0  0  0  0  0  3  0  0  0  0  0  0
  161.2590  204.4860  146.9790 C   0  0  0  0  0  3  0  0  0  0  0  0
  160.5970  206.5750  145.7870 C   0  0  0  0  0  2  0  0  0  0  0  0
  161.4010  202.5080  145.6930 O   0  0  0  0  0  0  0  0  0  0  0  0
  160.4570  203.2130  152.4860 C   0  0  0  0  0  1  0  0  0  0  0  0
  160.4940  204.5460  152.8990 O   0  0  0  0  0  0  0  0  0  0  0  0
  161.5980  209.6330  148.5230 C   0  0  0  0  0  2  0  0  0  0  0  0
  162.3280  210.9610  148.4260 C   0  0  0  0  0  2  0  0  0  0  0  0
  161.3370  212.1030  148.2920 C   0  0  0  0  0  2  0  0  0  0  0  0
  160.8980  212.2570  146.8450 C   0  0  0  0  0  2  0  0  0  0  0  0
  158.6930  212.5800  144.7560 O   0  0  0  0  0  0  0  0  0  0  0  0
  159.8450  213.3470  146.7190 C   0  0  1  0  0  3  0  0  0  0  0  0
  158.6290  212.8250  145.9890 C   0  0  0  0  0  0  0  0  0  0  0  0
  157.2350  212.9650  147.9770 C   0  0  0  0  0  3  0  0  0  0  0  0
  158.3250  213.6650  148.6780 C   0  0  0  0  0  3  0  0  0  0  0  0
  159.5120  213.8600  148.0980 C   0  0  0  0  0  3  0  0  0  0  0  0
  157.3720  212.5760  146.7090 C   0  0  0  0  0  3  0  0  0  0  0  0
  1 23  1  6  0  0  0
  2 10  1  6  0  0  0
  4 24  1  6  0  0  0
  4 13  1  0  0  0  0
  5  7  1  0  0  0  0
  5  2  1  0  0  0  0
  6 10  1  0  0  0  0
  7  3  1  6  0  0  0
  7  1  1  0  0  0  0
  7  2  1  0  0  0  0
  8 14  1  0  0  0  0
  9  1  1  0  0  0  0
 11  4  1  0  0  0  0
 12 17  1  6  0  0  0
 12 11  1  0  0  0  0
 12  8  1  0  0  0  0
 13  3  1  1  0  0  0
 13  6  1  0  0  0  0
 14  9  2  0  0  0  0
 15 19  1  0  0  0  0
 16 18  2  0  0  0  0
 16 15  1  0  0  0  0
 18 20  1  0  0  0  0
 19 17  2  0  0  0  0
 20 17  1  0  0  0  0
 21 15  2  0  0  0  0
 22 23  1  0  0  0  0
 25 24  1  0  0  0  0
 26 25  1  0  0  0  0
 27 26  1  0  0  0  0
 28 30  2  0  0  0  0
 29 27  1  1  0  0  0
 29 33  1  0  0  0  0
 30 34  1  0  0  0  0
 30 29  1  0  0  0  0
 31 32  1  0  0  0  0
 33 32  2  0  0  0  0
 34 31  2  0  0  0  0
M  END
>  <MODEL>
8

>  <REMARK>
 VINA RESULT:      -7.1      3.180      6.006
  Name = 
  7 active torsions:
  status: ('A' for Active; 'I' for Inactive)
    1  A    between atoms: C_1  and  O_19
    2  A    between atoms: C_3  and  C_13
    3  A    between atoms: C_3  and  C_17
    4  A    between atoms: C_5  and  C_18
    5  A    between atoms: C_12  and  C_28
    6  A    between atoms: C_17  and  C_29
    7  A    between atoms: C_18  and  C_29
                            x       y       z     vdW  Elec       q    Type
                         _______ _______ _______ _____ _____    ______ ____

>  <TORSDO>
F 7

$$$$
=
 OpenBabel11062407473D

 34 38  0  0  1  0  0  0  0  0999 V2000
  161.7320  205.1360  152.4140 C   0  0  2  0  0  3  0  0  0  0  0  0
  161.1880  207.6410  153.2460 C   0  0  1  0  0  3  0  0  0  0  0  0
  162.6990  207.2610  151.2310 C   0  0  0  0  0  2  0  0  0  0  0  0
  162.4860  208.6400  149.1440 C   0  0  2  0  0  3  0  0  0  0  0  0
  160.4070  207.1450  152.1860 O   0  0  0  0  0  0  0  0  0  0  0  0
  162.0310  209.5680  151.5660 C   0  0  0  0  0  2  0  0  0  0  0  0
  161.7400  206.6680  152.2520 C   0  0  1  0  0  0  0  0  0  0  0  0
  160.7280  205.7710  149.5120 C   0  0  0  0  0  2  0  0  0  0  0  0
  162.1140  204.4030  151.1360 C   0  0  0  0  0  3  0  0  0  0  0  0
  161.4680  209.1540  152.9610 C   0  0  0  0  0  2  0  0  0  0  0  0
  162.4970  207.3130  148.3520 C   0  0  0  0  0  2  0  0  0  0  0  0
  161.1360  206.5860  148.2630 C   0  0  1  0  0  3  0  0  0  0  0  0
  161.9970  208.4130  150.5740 C   0  0  2  0  0  3  0  0  0  0  0  0
  161.6900  204.6700  149.8800 C   0  0  0  0  0  3  0  0  0  0  0  0
  161.1440  203.7190  145.7320 C   0  0  0  0  0  0  0  0  0  0  0  0
  160.7170  204.3910  144.5030 C   0  0  0  0  0  3  0  0  0  0  0  0
  161.0020  205.8020  146.9920 C   0  0  0  0  0  0  0  0  0  0  0  0
  160.4630  205.6990  144.5070 C   0  0  0  0  0  3  0  0  0  0  0  0
  161.2640  204.4880  146.9730 C   0  0  0  0  0  3  0  0  0  0  0  0
  160.6080  206.5570  145.7430 C   0  0  0  0  0  2  0  0  0  0  0  0
  161.3990  202.4860  145.7240 O   0  0  0  0  0  0  0  0  0  0  0  0
  160.4720  203.3160  152.5210 C   0  0  0  0  0  1  0  0  0  0  0  0
  160.5050  204.6610  152.8920 O   0  0  0  0  0  0  0  0  0  0  0  0
  161.6210  209.6620  148.4210 C   0  0  0  0  0  2  0  0  0  0  0  0
  162.1190  211.0700  148.7010 C   0  0  0  0  0  2  0  0  0  0  0  0
  161.4760  212.0580  147.7450 C   0  0  0  0  0  2  0  0  0  0  0  0
  162.5280  212.6890  146.8470 C   0  0  0  0  0  2  0  0  0  0  0  0
  163.6910  213.7080  144.2120 O   0  0  0  0  0  0  0  0  0  0  0  0
  161.8720  213.5420  145.7720 C   0  0  1  0  0  3  0  0  0  0  0  0
  162.5220  213.2940  144.4310 C   0  0  0  0  0  0  0  0  0  0  0  0
  160.5260  212.2340  143.5320 C   0  0  0  0  0  3  0  0  0  0  0  0
  159.7850  212.6310  144.7410 C   0  0  0  0  0  3  0  0  0  0  0  0
  160.3930  213.2490  145.7580 C   0  0  0  0  0  3  0  0  0  0  0  0
  161.8120  212.5520  143.3790 C   0  0  0  0  0  3  0  0  0  0  0  0
  1 23  1  6  0  0  0
  2 10  1  6  0  0  0
  4 24  1  6  0  0  0
  4 13  1  0  0  0  0
  5  7  1  0  0  0  0
  5  2  1  0  0  0  0
  6 10  1  0  0  0  0
  7  3  1  6  0  0  0
  7  1  1  0  0  0  0
  7  2  1  0  0  0  0
  8 14  1  0  0  0  0
  9  1  1  0  0  0  0
 11  4  1  0  0  0  0
 12 17  1  6  0  0  0
 12 11  1  0  0  0  0
 12  8  1  0  0  0  0
 13  3  1  1  0  0  0
 13  6  1  0  0  0  0
 14  9  2  0  0  0  0
 15 19  1  0  0  0  0
 16 18  2  0  0  0  0
 16 15  1  0  0  0  0
 18 20  1  0  0  0  0
 19 17  2  0  0  0  0
 20 17  1  0  0  0  0
 21 15  2  0  0  0  0
 22 23  1  0  0  0  0
 24 25  1  0  0  0  0
 26 25  1  0  0  0  0
 27 26  1  0  0  0  0
 28 30  2  0  0  0  0
 29 27  1  1  0  0  0
 30 29  1  0  0  0  0
 31 32  1  0  0  0  0
 32 33  2  0  0  0  0
 33 29  1  0  0  0  0
 34 31  2  0  0  0  0
 34 30  1  0  0  0  0
M  END
>  <MODEL>
9

>  <REMARK>
 VINA RESULT:      -7.1      3.639      5.805
  Name = 
  7 active torsions:
  status: ('A' for Active; 'I' for Inactive)
    1  A    between atoms: C_1  and  O_19
    2  A    between atoms: C_3  and  C_13
    3  A    between atoms: C_3  and  C_17
    4  A    between atoms: C_5  and  C_18
    5  A    between atoms: C_12  and  C_28
    6  A    between atoms: C_17  and  C_29
    7  A    between atoms: C_18  and  C_29
                            x       y       z     vdW  Elec       q    Type
                         _______ _______ _______ _____ _____    ______ ____

>  <TORSDO>
F 7

$$$$
