=
 OpenBabel11052422123D

 25 29  0  0  1  0  0  0  0  0999 V2000
  161.3770  204.9380  148.6900 C   0  0  0  0  0  0  0  0  0  0  0  0
  161.4400  206.1360  149.4030 C   0  0  0  0  0  0  0  0  0  0  0  0
  161.8380  206.0700  146.6150 C   0  0  0  0  0  3  0  0  0  0  0  0
  161.1420  203.6330  149.0630 C   0  0  0  0  0  0  0  0  0  0  0  0
  160.7620  200.8900  149.0560 C   0  0  0  0  0  3  0  0  0  0  0  0
  161.9010  207.2480  147.3050 N   0  0  0  0  0  0  0  0  0  0  0  0
  161.2130  202.9090  147.8920 C   0  0  0  0  0  0  0  0  0  0  0  0
  161.0410  201.6250  147.8460 N   0  0  0  0  0  0  0  0  0  0  0  0
  161.7840  208.5710  149.3570 N   0  0  0  0  0  0  0  0  0  0  0  0
  162.0590  209.8090  148.6470 C   0  0  0  0  0  1  0  0  0  0  0  0
  161.2540  206.1950  150.7280 C   0  0  0  0  0  3  0  0  0  0  0  0
  160.6740  201.5130  150.2480 C   0  0  0  0  0  3  0  0  0  0  0  0
  161.5720  204.9050  147.3270 C   0  0  0  0  0  0  0  0  0  0  0  0
  161.4710  203.6800  146.8560 O   0  0  0  0  0  0  0  0  0  0  0  0
  161.5820  208.6110  150.7760 C   0  0  0  0  0  3  0  0  0  0  0  0
  160.8600  203.0100  150.3970 C   0  0  0  0  0  3  0  0  0  0  0  0
  161.3270  207.4860  151.4540 C   0  0  0  0  0  0  0  0  0  0  0  0
  161.7110  207.3130  148.6640 C   0  0  2  0  0  3  0  0  0  0  0  0
  161.1240  207.5620  152.9060 C   0  0  0  0  0  3  0  0  0  0  0  0
  160.9640  208.7190  153.5410 C   0  0  0  0  0  3  0  0  0  0  0  0
  160.7640  208.7600  155.0190 C   0  0  2  0  0  3  0  0  0  0  0  0
  161.7840  209.5170  155.5950 O   0  0  0  0  0  1  0  0  0  0  0  0
  160.7880  207.3540  155.6000 C   0  0  0  0  0  3  0  0  0  0  0  0
  159.4270  207.0230  156.1800 C   0  0  0  0  0  2  0  0  0  0  0  0
  160.5610  207.4210  157.0980 C   0  0  0  0  0  2  0  0  0  0  0  0
  1  4  1  0  0  0  0
  1  2  1  0  0  0  0
  2 11  2  0  0  0  0
  3  6  2  0  0  0  0
  3 13  1  0  0  0  0
  4 16  2  0  0  0  0
  5 12  2  0  0  0  0
  7  4  1  0  0  0  0
  8  7  2  0  0  0  0
  8  5  1  0  0  0  0
  9 15  1  0  0  0  0
 10  9  1  0  0  0  0
 11 17  1  0  0  0  0
 12 16  1  0  0  0  0
 13  1  2  0  0  0  0
 14 13  1  0  0  0  0
 14  7  1  0  0  0  0
 15 17  2  0  0  0  0
 17 19  1  0  0  0  0
 18  6  1  1  0  0  0
 18  9  1  0  0  0  0
 18  2  1  0  0  0  0
 19 20  2  0  0  0  0
 20 21  1  0  0  0  0
 21 22  1  1  0  0  0
 21 23  1  0  0  0  0
 23 24  1  0  0  0  0
 23 25  1  0  0  0  0
 24 25  1  0  0  0  0
M  END
>  <MODEL>
1

>  <REMARK>
 VINA RESULT:     -10.2      0.000      0.000
  Name = 
  3 active torsions:
  status: ('A' for Active; 'I' for Inactive)
    1  A    between atoms: C_2  and  C_21
    2  A    between atoms: C_6  and  C_23
    3  A    between atoms: C_15  and  C_21
                            x       y       z     vdW  Elec       q    Type
                         _______ _______ _______ _____ _____    ______ ____

>  <TORSDO>
F 3

$$$$
=
 OpenBabel11052422123D

 25 29  0  0  1  0  0  0  0  0999 V2000
  161.1650  204.4380  149.5090 C   0  0  0  0  0  0  0  0  0  0  0  0
  161.3200  205.7500  149.9610 C   0  0  0  0  0  0  0  0  0  0  0  0
  160.8600  203.6290  151.7560 C   0  0  0  0  0  3  0  0  0  0  0  0
  161.1820  203.8680  148.2550 C   0  0  0  0  0  0  0  0  0  0  0  0
  161.0920  202.0770  146.1440 C   0  0  0  0  0  3  0  0  0  0  0  0
  161.0120  204.9100  152.2070 N   0  0  0  0  0  0  0  0  0  0  0  0
  160.9670  202.5240  148.4730 C   0  0  0  0  0  0  0  0  0  0  0  0
  160.9170  201.6530  147.5130 N   0  0  0  0  0  0  0  0  0  0  0  0
  161.3930  207.3000  151.8690 N   0  0  0  0  0  0  0  0  0  0  0  0
  161.3180  207.5770  153.2930 C   0  0  0  0  0  1  0  0  0  0  0  0
  161.5400  206.7760  149.1280 C   0  0  0  0  0  3  0  0  0  0  0  0
  161.3080  203.3710  145.8360 C   0  0  0  0  0  3  0  0  0  0  0  0
  160.9390  203.4010  150.3860 C   0  0  0  0  0  0  0  0  0  0  0  0
  160.8210  202.2520  149.7540 O   0  0  0  0  0  0  0  0  0  0  0  0
  161.6280  208.3840  150.9590 C   0  0  0  0  0  3  0  0  0  0  0  0
  161.3820  204.4560  146.8910 C   0  0  0  0  0  2  0  0  0  0  0  0
  161.7020  208.1570  149.6430 C   0  0  0  0  0  0  0  0  0  0  0  0
  161.2380  205.9650  151.3570 C   0  0  0  0  0  0  0  0  0  0  0  0
  161.9440  209.2890  148.7400 C   0  0  0  0  0  3  0  0  0  0  0  0
  161.9370  210.5490  149.1620 C   0  0  0  0  0  3  0  0  0  0  0  0
  162.1830  211.6760  148.2160 C   0  0  2  0  0  3  0  0  0  0  0  0
  163.5400  212.0000  148.2380 O   0  0  0  0  0  1  0  0  0  0  0  0
  161.3650  212.8950  148.6150 C   0  0  0  0  0  3  0  0  0  0  0  0
  160.5800  213.3920  147.4170 C   0  0  0  0  0  2  0  0  0  0  0  0
  161.8460  214.1040  147.8370 C   0  0  0  0  0  2  0  0  0  0  0  0
  1  2  1  0  0  0  0
  1 13  1  0  0  0  0
  2 18  1  0  0  0  0
  3  6  1  0  0  0  0
  4  7  1  0  0  0  0
  4  1  2  0  0  0  0
  5  8  1  0  0  0  0
  7 14  1  0  0  0  0
  8  7  2  0  0  0  0
  9 10  1  0  0  0  0
 11 17  1  0  0  0  0
 11  2  2  0  0  0  0
 12  5  2  0  0  0  0
 12 16  1  0  0  0  0
 13  3  2  0  0  0  0
 14 13  1  0  0  0  0
 15  9  1  0  0  0  0
 16  4  1  0  0  0  0
 17 15  2  0  0  0  0
 18  9  1  0  0  0  0
 18  6  2  0  0  0  0
 19 20  2  0  0  0  0
 19 17  1  0  0  0  0
 21 22  1  1  0  0  0
 21 23  1  0  0  0  0
 21 20  1  0  0  0  0
 24 25  1  0  0  0  0
 24 23  1  0  0  0  0
 25 23  1  0  0  0  0
M  END
>  <MODEL>
2

>  <REMARK>
 VINA RESULT:      -9.3      2.618      5.231
  Name = 
  3 active torsions:
  status: ('A' for Active; 'I' for Inactive)
    1  A    between atoms: C_2  and  C_21
    2  A    between atoms: C_6  and  C_23
    3  A    between atoms: C_15  and  C_21
                            x       y       z     vdW  Elec       q    Type
                         _______ _______ _______ _____ _____    ______ ____

>  <TORSDO>
F 3

$$$$
=
 OpenBabel11052422123D

 25 29  0  0  1  0  0  0  0  0999 V2000
  161.2000  204.5050  149.7990 C   0  0  0  0  0  0  0  0  0  0  0  0
  161.3470  205.7150  150.4800 C   0  0  0  0  0  0  0  0  0  0  0  0
  160.8170  203.3150  151.8560 C   0  0  0  0  0  3  0  0  0  0  0  0
  161.2560  204.1650  148.4650 C   0  0  0  0  0  0  0  0  0  0  0  0
  161.2260  202.7760  146.0690 C   0  0  0  0  0  3  0  0  0  0  0  0
  160.9610  204.4940  152.5310 N   0  0  0  0  0  0  0  0  0  0  0  0
  161.0260  202.8060  148.4350 C   0  0  0  0  0  0  0  0  0  0  0  0
  161.0040  202.1190  147.3350 N   0  0  0  0  0  0  0  0  0  0  0  0
  161.3650  206.9030  152.6330 N   0  0  0  0  0  0  0  0  0  0  0  0
  161.2440  206.9240  154.0810 C   0  0  0  0  0  1  0  0  0  0  0  0
  161.6000  206.8690  149.8490 C   0  0  0  0  0  3  0  0  0  0  0  0
  161.4590  204.1010  146.0010 C   0  0  0  0  0  3  0  0  0  0  0  0
  160.9400  203.3320  150.4710 C   0  0  0  0  0  0  0  0  0  0  0  0
  160.8370  202.3140  149.6420 O   0  0  0  0  0  0  0  0  0  0  0  0
  161.6360  208.1280  151.9370 C   0  0  0  0  0  3  0  0  0  0  0  0
  161.5030  204.9820  147.2340 C   0  0  0  0  0  2  0  0  0  0  0  0
  161.7530  208.1360  150.6050 C   0  0  0  0  0  0  0  0  0  0  0  0
  161.2200  205.6800  151.8890 C   0  0  0  0  0  0  0  0  0  0  0  0
  162.0300  209.4060  149.9240 C   0  0  0  0  0  3  0  0  0  0  0  0
  161.5720  210.5690  150.3760 C   0  0  0  0  0  3  0  0  0  0  0  0
  161.8690  211.8420  149.6570 C   0  0  2  0  0  3  0  0  0  0  0  0
  160.7770  212.7010  149.7820 O   0  0  0  0  0  1  0  0  0  0  0  0
  162.1340  211.5730  148.1830 C   0  0  0  0  0  3  0  0  0  0  0  0
  163.3030  212.4190  147.7160 C   0  0  0  0  0  2  0  0  0  0  0  0
  161.8880  212.8380  147.3850 C   0  0  0  0  0  2  0  0  0  0  0  0
  1 13  1  0  0  0  0
  1  2  1  0  0  0  0
  2 18  1  0  0  0  0
  3  6  1  0  0  0  0
  4  1  2  0  0  0  0
  5  8  1  0  0  0  0
  7  4  1  0  0  0  0
  7 14  1  0  0  0  0
  8  7  2  0  0  0  0
  9 10  1  0  0  0  0
 11  2  2  0  0  0  0
 11 17  1  0  0  0  0
 12  5  2  0  0  0  0
 12 16  1  0  0  0  0
 13  3  2  0  0  0  0
 14 13  1  0  0  0  0
 15  9  1  0  0  0  0
 16  4  1  0  0  0  0
 17 15  2  0  0  0  0
 18  6  2  0  0  0  0
 18  9  1  0  0  0  0
 19 20  2  0  0  0  0
 19 17  1  0  0  0  0
 21 22  1  6  0  0  0
 21 20  1  0  0  0  0
 23 21  1  0  0  0  0
 24 23  1  0  0  0  0
 25 24  1  0  0  0  0
 25 23  1  0  0  0  0
M  END
>  <MODEL>
3

>  <REMARK>
 VINA RESULT:      -9.0      2.420      5.092
  Name = 
  3 active torsions:
  status: ('A' for Active; 'I' for Inactive)
    1  A    between atoms: C_2  and  C_21
    2  A    between atoms: C_6  and  C_23
    3  A    between atoms: C_15  and  C_21
                            x       y       z     vdW  Elec       q    Type
                         _______ _______ _______ _____ _____    ______ ____

>  <TORSDO>
F 3

$$$$
=
 OpenBabel11052422123D

 25 29  0  0  1  0  0  0  0  0999 V2000
  161.1630  205.7660  150.4750 C   0  0  0  0  0  0  0  0  0  0  0  0
  161.0700  206.7300  151.4800 C   0  0  0  0  0  0  0  0  0  0  0  0
  161.1860  203.9830  152.0920 C   0  0  0  0  0  3  0  0  0  0  0  0
  161.2160  205.8440  149.1000 C   0  0  0  0  0  0  0  0  0  0  0  0
  161.3610  205.2310  146.4040 C   0  0  0  0  0  3  0  0  0  0  0  0
  161.0960  204.9190  153.0830 N   0  0  0  0  0  0  0  0  0  0  0  0
  161.3020  204.5360  148.6730 C   0  0  0  0  0  0  0  0  0  0  0  0
  161.3720  204.2070  147.4210 N   0  0  0  0  0  0  0  0  0  0  0  0
  160.9430  207.2230  153.8870 N   0  0  0  0  0  0  0  0  0  0  0  0
  160.9070  206.8010  155.2770 C   0  0  0  0  0  1  0  0  0  0  0  0
  161.0130  208.0420  151.2160 C   0  0  0  0  0  3  0  0  0  0  0  0
  161.2800  206.5360  146.7270 C   0  0  0  0  0  3  0  0  0  0  0  0
  161.2190  204.4230  150.7730 C   0  0  0  0  0  0  0  0  0  0  0  0
  161.3030  203.6900  149.6830 O   0  0  0  0  0  0  0  0  0  0  0  0
  160.8840  208.6230  153.5800 C   0  0  0  0  0  3  0  0  0  0  0  0
  161.1950  207.0130  148.1630 C   0  0  0  0  0  2  0  0  0  0  0  0
  160.9160  209.0390  152.3100 C   0  0  0  0  0  0  0  0  0  0  0  0
  161.0380  206.2650  152.8170 C   0  0  0  0  0  0  0  0  0  0  0  0
  160.8540  210.4780  152.0310 C   0  0  0  0  0  3  0  0  0  0  0  0
  159.8600  211.2450  152.4710 C   0  0  0  0  0  3  0  0  0  0  0  0
  159.8260  212.7050  152.1670 C   0  0  2  0  0  3  0  0  0  0  0  0
  159.1750  213.3700  153.2050 O   0  0  0  0  0  1  0  0  0  0  0  0
  159.0880  212.9600  150.8610 C   0  0  0  0  0  3  0  0  0  0  0  0
  159.9780  213.7510  149.9220 C   0  0  0  0  0  2  0  0  0  0  0  0
  158.8740  214.4510  150.6830 C   0  0  0  0  0  2  0  0  0  0  0  0
  1 13  1  0  0  0  0
  1  2  1  0  0  0  0
  2 18  1  0  0  0  0
  3  6  1  0  0  0  0
  4  1  2  0  0  0  0
  5 12  2  0  0  0  0
  5  8  1  0  0  0  0
  7  4  1  0  0  0  0
  7 14  1  0  0  0  0
  8  7  2  0  0  0  0
  9 10  1  0  0  0  0
 11  2  2  0  0  0  0
 11 17  1  0  0  0  0
 12 16  1  0  0  0  0
 13  3  2  0  0  0  0
 14 13  1  0  0  0  0
 15  9  1  0  0  0  0
 16  4  1  0  0  0  0
 17 15  2  0  0  0  0
 18  6  2  0  0  0  0
 18  9  1  0  0  0  0
 19 17  1  0  0  0  0
 19 20  2  0  0  0  0
 21 20  1  0  0  0  0
 21 22  1  1  0  0  0
 23 21  1  0  0  0  0
 24 25  1  0  0  0  0
 24 23  1  0  0  0  0
 25 23  1  0  0  0  0
M  END
>  <MODEL>
4

>  <REMARK>
 VINA RESULT:      -8.1      2.974      4.981
  Name = 
  3 active torsions:
  status: ('A' for Active; 'I' for Inactive)
    1  A    between atoms: C_2  and  C_21
    2  A    between atoms: C_6  and  C_23
    3  A    between atoms: C_15  and  C_21
                            x       y       z     vdW  Elec       q    Type
                         _______ _______ _______ _____ _____    ______ ____

>  <TORSDO>
F 3

$$$$
=
 OpenBabel11052422123D

 25 29  0  0  1  0  0  0  0  0999 V2000
  161.2180  206.5350  152.0580 C   0  0  0  0  0  0  0  0  0  0  0  0
  161.3840  206.7360  150.6870 C   0  0  0  0  0  0  0  0  0  0  0  0
  161.1320  204.1470  151.7660 C   0  0  0  0  0  3  0  0  0  0  0  0
  161.1410  207.3950  153.1320 C   0  0  0  0  0  0  0  0  0  0  0  0
  160.9070  208.4580  155.6780 C   0  0  0  0  0  3  0  0  0  0  0  0
  161.2930  204.3350  150.4220 N   0  0  0  0  0  0  0  0  0  0  0  0
  160.9760  206.5780  154.2300 C   0  0  0  0  0  0  0  0  0  0  0  0
  160.8620  207.0360  155.4380 N   0  0  0  0  0  0  0  0  0  0  0  0
  161.5870  205.7430  148.4460 N   0  0  0  0  0  0  0  0  0  0  0  0
  161.6280  204.5940  147.5570 C   0  0  0  0  0  1  0  0  0  0  0  0
  161.5050  207.9570  150.1490 C   0  0  0  0  0  3  0  0  0  0  0  0
  161.0650  209.3330  154.6660 C   0  0  0  0  0  3  0  0  0  0  0  0
  161.0960  205.2690  152.5860 C   0  0  0  0  0  0  0  0  0  0  0  0
  160.9500  205.3050  153.8940 O   0  0  0  0  0  0  0  0  0  0  0  0
  161.7150  207.0600  147.8910 C   0  0  0  0  0  3  0  0  0  0  0  0
  161.2050  208.8890  153.2230 C   0  0  0  0  0  3  0  0  0  0  0  0
  161.6790  208.1340  148.6860 C   0  0  0  0  0  0  0  0  0  0  0  0
  161.4180  205.5840  149.8660 C   0  0  2  0  0  3  0  0  0  0  0  0
  161.8130  209.4670  148.0870 C   0  0  0  0  0  3  0  0  0  0  0  0
  161.9560  210.5660  148.8210 C   0  0  0  0  0  3  0  0  0  0  0  0
  162.0860  211.9060  148.1790 C   0  0  2  0  0  3  0  0  0  0  0  0
  163.4190  212.3120  148.2410 O   0  0  0  0  0  1  0  0  0  0  0  0
  161.2130  212.9270  148.8940 C   0  0  0  0  0  3  0  0  0  0  0  0
  160.2230  213.5220  147.9120 C   0  0  0  0  0  2  0  0  0  0  0  0
  161.4580  214.3030  148.3060 C   0  0  0  0  0  2  0  0  0  0  0  0
  1 13  2  0  0  0  0
  1  4  1  0  0  0  0
  2  1  1  0  0  0  0
  3 13  1  0  0  0  0
  4 16  2  0  0  0  0
  4  7  1  0  0  0  0
  6  3  2  0  0  0  0
  7  8  2  0  0  0  0
  8  5  1  0  0  0  0
  9 18  1  0  0  0  0
 10  9  1  0  0  0  0
 11  2  2  0  0  0  0
 12  5  2  0  0  0  0
 13 14  1  0  0  0  0
 14  7  1  0  0  0  0
 15  9  1  0  0  0  0
 15 17  2  0  0  0  0
 16 12  1  0  0  0  0
 17 11  1  0  0  0  0
 18  6  1  1  0  0  0
 18  2  1  0  0  0  0
 19 17  1  0  0  0  0
 19 20  2  0  0  0  0
 21 22  1  1  0  0  0
 21 20  1  0  0  0  0
 21 23  1  0  0  0  0
 24 25  1  0  0  0  0
 24 23  1  0  0  0  0
 25 23  1  0  0  0  0
M  END
>  <MODEL>
5

>  <REMARK>
 VINA RESULT:      -7.7      2.927      6.621
  Name = 
  3 active torsions:
  status: ('A' for Active; 'I' for Inactive)
    1  A    between atoms: C_2  and  C_21
    2  A    between atoms: C_6  and  C_23
    3  A    between atoms: C_15  and  C_21
                            x       y       z     vdW  Elec       q    Type
                         _______ _______ _______ _____ _____    ______ ____

>  <TORSDO>
F 3

$$$$
=
 OpenBabel11052422123D

 25 29  0  0  1  0  0  0  0  0999 V2000
  161.4230  207.4140  151.1560 C   0  0  0  0  0  0  0  0  0  0  0  0
  161.2980  206.0570  150.8540 C   0  0  0  0  0  0  0  0  0  0  0  0
  161.0480  206.9970  153.4970 C   0  0  0  0  0  3  0  0  0  0  0  0
  161.6690  208.5290  150.3860 C   0  0  0  0  0  0  0  0  0  0  0  0
  162.1100  211.1240  149.5240 C   0  0  0  0  0  3  0  0  0  0  0  0
  160.9230  205.6660  153.2110 N   0  0  0  0  0  0  0  0  0  0  0  0
  161.6760  209.5820  151.2760 C   0  0  0  0  0  0  0  0  0  0  0  0
  161.8780  210.8100  150.9140 N   0  0  0  0  0  0  0  0  0  0  0  0
  160.9010  203.7700  151.6680 N   0  0  0  0  0  0  0  0  0  0  0  0
  160.6350  202.8240  152.7390 C   0  0  0  0  0  1  0  0  0  0  0  0
  161.4120  205.5840  149.6060 C   0  0  0  0  0  3  0  0  0  0  0  0
  162.1210  210.1610  148.5830 C   0  0  0  0  0  3  0  0  0  0  0  0
  161.3020  207.8740  152.4480 C   0  0  0  0  0  0  0  0  0  0  0  0
  161.4550  209.1800  152.5110 O   0  0  0  0  0  0  0  0  0  0  0  0
  161.0270  203.2860  150.3240 C   0  0  0  0  0  3  0  0  0  0  0  0
  161.8940  208.6990  148.9140 C   0  0  0  0  0  2  0  0  0  0  0  0
  161.2720  204.1360  149.3200 C   0  0  0  0  0  0  0  0  0  0  0  0
  161.0390  205.1780  151.9330 C   0  0  0  0  0  0  0  0  0  0  0  0
  161.3950  203.6080  147.9570 C   0  0  0  0  0  3  0  0  0  0  0  0
  161.3240  204.3890  146.8830 C   0  0  0  0  0  3  0  0  0  0  0  0
  161.4500  203.8190  145.5100 C   0  0  2  0  0  3  0  0  0  0  0  0
  162.7870  203.8680  145.1190 O   0  0  0  0  0  1  0  0  0  0  0  0
  160.6040  204.6110  144.5240 C   0  0  0  0  0  3  0  0  0  0  0  0
  161.4030  205.7930  144.0080 C   0  0  0  0  0  2  0  0  0  0  0  0
  160.3520  206.0010  145.0760 C   0  0  0  0  0  2  0  0  0  0  0  0
  1 13  1  0  0  0  0
  2  1  1  0  0  0  0
  2 18  1  0  0  0  0
  4  1  2  0  0  0  0
  4  7  1  0  0  0  0
  5  8  1  0  0  0  0
  6  3  1  0  0  0  0
  7 14  1  0  0  0  0
  8  7  2  0  0  0  0
  9 18  1  0  0  0  0
  9 10  1  0  0  0  0
 11  2  2  0  0  0  0
 12 16  1  0  0  0  0
 12  5  2  0  0  0  0
 13 14  1  0  0  0  0
 13  3  2  0  0  0  0
 15  9  1  0  0  0  0
 16  4  1  0  0  0  0
 17 11  1  0  0  0  0
 17 15  2  0  0  0  0
 18  6  2  0  0  0  0
 19 17  1  0  0  0  0
 20 19  2  0  0  0  0
 21 22  1  6  0  0  0
 21 20  1  0  0  0  0
 23 25  1  0  0  0  0
 23 21  1  0  0  0  0
 24 23  1  0  0  0  0
 24 25  1  0  0  0  0
M  END
>  <MODEL>
6

>  <REMARK>
 VINA RESULT:      -7.5      2.207      7.869
  Name = 
  3 active torsions:
  status: ('A' for Active; 'I' for Inactive)
    1  A    between atoms: C_2  and  C_21
    2  A    between atoms: C_6  and  C_23
    3  A    between atoms: C_15  and  C_21
                            x       y       z     vdW  Elec       q    Type
                         _______ _______ _______ _____ _____    ______ ____

>  <TORSDO>
F 3

$$$$
=
 OpenBabel11052422123D

 25 29  0  0  1  0  0  0  0  0999 V2000
  161.2370  203.7850  148.1380 C   0  0  0  0  0  0  0  0  0  0  0  0
  161.1990  204.1510  149.4840 C   0  0  0  0  0  0  0  0  0  0  0  0
  160.6680  201.5070  148.6720 C   0  0  0  0  0  3  0  0  0  0  0  0
  161.5000  204.4840  146.9800 C   0  0  0  0  0  0  0  0  0  0  0  0
  161.9010  205.1970  144.3350 C   0  0  0  0  0  3  0  0  0  0  0  0
  160.6290  201.8570  149.9920 N   0  0  0  0  0  0  0  0  0  0  0  0
  161.3790  203.5560  145.9680 C   0  0  0  0  0  0  0  0  0  0  0  0
  161.5590  203.8480  144.7180 N   0  0  0  0  0  0  0  0  0  0  0  0
  160.8330  203.4680  151.8190 N   0  0  0  0  0  0  0  0  0  0  0  0
  160.5140  202.4660  152.8210 C   0  0  0  0  0  1  0  0  0  0  0  0
  161.4470  205.4010  149.8970 C   0  0  0  0  0  3  0  0  0  0  0  0
  162.0410  206.1710  145.2550 C   0  0  0  0  0  3  0  0  0  0  0  0
  160.9770  202.4920  147.7400 C   0  0  0  0  0  0  0  0  0  0  0  0
  161.0650  202.3640  146.4330 O   0  0  0  0  0  0  0  0  0  0  0  0
  161.1030  204.8130  152.2380 C   0  0  0  0  0  3  0  0  0  0  0  0
  161.8500  205.9210  146.7380 C   0  0  0  0  0  2  0  0  0  0  0  0
  161.3990  205.7550  151.3360 C   0  0  0  0  0  0  0  0  0  0  0  0
  160.8830  203.1370  150.4200 C   0  0  0  0  0  0  0  0  0  0  0  0
  161.6700  207.1220  151.7990 C   0  0  0  0  0  3  0  0  0  0  0  0
  160.8820  208.1460  151.4870 C   0  0  0  0  0  3  0  0  0  0  0  0
  161.1890  209.5240  151.9710 C   0  0  2  0  0  3  0  0  0  0  0  0
  162.4990  209.8490  151.6180 O   0  0  0  0  0  1  0  0  0  0  0  0
  161.0390  209.6030  153.4830 C   0  0  0  0  0  3  0  0  0  0  0  0
  159.8650  210.4990  153.8290 C   0  0  0  0  0  2  0  0  0  0  0  0
  161.2770  211.0290  153.9410 C   0  0  0  0  0  2  0  0  0  0  0  0
  1  2  1  0  0  0  0
  2 11  2  0  0  0  0
  2 18  1  0  0  0  0
  3  6  1  0  0  0  0
  4  1  2  0  0  0  0
  5  8  1  0  0  0  0
  5 12  2  0  0  0  0
  6 18  2  0  0  0  0
  7 14  1  0  0  0  0
  7  4  1  0  0  0  0
  8  7  2  0  0  0  0
  9 15  1  0  0  0  0
  9 10  1  0  0  0  0
 11 17  1  0  0  0  0
 12 16  1  0  0  0  0
 13  1  1  0  0  0  0
 13  3  2  0  0  0  0
 14 13  1  0  0  0  0
 16  4  1  0  0  0  0
 17 19  1  0  0  0  0
 17 15  2  0  0  0  0
 18  9  1  0  0  0  0
 20 19  2  0  0  0  0
 20 21  1  0  0  0  0
 21 22  1  1  0  0  0
 21 23  1  0  0  0  0
 23 24  1  0  0  0  0
 23 25  1  0  0  0  0
 24 25  1  0  0  0  0
M  END
>  <MODEL>
7

>  <REMARK>
 VINA RESULT:      -7.4      2.450      4.238
  Name = 
  3 active torsions:
  status: ('A' for Active; 'I' for Inactive)
    1  A    between atoms: C_2  and  C_21
    2  A    between atoms: C_6  and  C_23
    3  A    between atoms: C_15  and  C_21
                            x       y       z     vdW  Elec       q    Type
                         _______ _______ _______ _____ _____    ______ ____

>  <TORSDO>
F 3

$$$$
