=
 OpenBabel11062409133D

 37 42  0  0  1  0  0  0  0  0999 V2000
  160.8840  208.8090  153.3180 C   0  0  1  0  0  3  0  0  0  0  0  0
  161.7640  210.7750  150.5610 O   0  0  0  0  0  1  0  0  0  0  0  0
  159.8030  210.7440  153.7350 C   0  0  1  0  0  3  0  0  0  0  0  0
  160.4570  211.3850  152.4820 C   0  0  1  0  0  3  0  0  0  0  0  0
  160.9780  210.2520  151.5900 C   0  0  2  0  0  3  0  0  0  0  0  0
  160.6580  209.7830  154.3070 O   0  0  0  0  0  0  0  0  0  0  0  0
  161.7440  209.3380  152.3380 O   0  0  0  0  0  0  0  0  0  0  0  0
  155.9190  212.9580  157.1870 C   0  0  0  0  0  2  0  0  0  0  0  0
  159.3680  211.6910  154.7860 N   0  0  1  0  0  0  0  0  0  0  0  0
  158.1130  211.6930  156.8900 C   0  0  1  0  0  3  0  0  0  0  0  0
  158.0970  211.3070  155.4010 C   0  0  1  0  0  3  0  0  0  0  0  0
  159.6010  211.7670  157.2420 C   0  0  2  0  0  3  0  0  0  0  0  0
  156.8670  211.5870  154.5320 C   0  0  0  0  0  2  0  0  0  0  0  0
  155.2810  213.3060  154.8810 O   0  0  0  0  0  0  0  0  0  0  0  0
  161.7010  211.1160  155.8440 C   0  0  0  0  0  1  0  0  0  0  0  0
  160.2670  213.0370  156.6920 C   0  0  0  0  0  2  0  0  0  0  0  0
  156.5610  213.0660  154.3680 C   0  0  0  0  0  2  0  0  0  0  0  0
  160.3180  211.7550  155.9070 C   0  0  1  0  0  0  0  0  0  0  0  0
  157.4330  213.0170  157.2610 C   0  0  0  0  0  2  0  0  0  0  0  0
  155.4580  213.9430  156.1180 C   0  0  0  0  0  2  0  0  0  0  0  0
  161.5150  207.5740  153.9460 C   0  0  1  0  0  3  0  0  0  0  0  0
  161.4390  207.6590  155.3390 O   0  0  0  0  0  0  0  0  0  0  0  0
  160.0740  207.0180  157.1760 C   0  0  0  0  0  1  0  0  0  0  0  0
  160.2310  207.0440  155.6700 C   0  0  0  0  0  2  0  0  0  0  0  0
  160.8390  206.4280  153.5170 O   0  0  0  0  0  0  0  0  0  0  0  0
  161.2220  204.4160  152.3190 C   0  0  0  0  0  2  0  0  0  0  0  0
  161.7000  205.8250  152.5970 C   0  0  0  0  0  3  0  0  0  0  0  0
  160.9360  205.5200  151.3250 C   0  0  0  0  0  2  0  0  0  0  0  0
  159.4530  212.2300  151.7160 C   0  0  0  0  0  2  0  0  0  0  0  0
  160.0860  213.5480  151.3140 C   0  0  0  0  0  2  0  0  0  0  0  0
  158.6340  213.7130  149.2850 C   0  0  0  0  0  3  0  0  0  0  0  0
  159.9130  213.7640  149.8520 C   0  0  0  0  0  0  0  0  0  0  0  0
  161.0300  213.9820  149.0370 C   0  0  0  0  0  3  0  0  0  0  0  0
  162.2900  214.4410  146.6210 S   0  0  0  0  0  1  0  0  0  0  0  0
  159.5880  214.1140  147.0960 C   0  0  0  0  0  3  0  0  0  0  0  0
  160.8660  214.1600  147.6610 C   0  0  0  0  0  0  0  0  0  0  0  0
  158.4720  213.8900  147.9090 C   0  0  0  0  0  3  0  0  0  0  0  0
  1 21  1  1  0  0  0
  1  6  1  0  0  0  0
  3  6  1  1  0  0  0
  4 29  1  6  0  0  0
  4  3  1  0  0  0  0
  5  2  1  6  0  0  0
  5  7  1  0  0  0  0
  5  4  1  0  0  0  0
  7  1  1  0  0  0  0
  8 19  1  0  0  0  0
  9  3  1  6  0  0  0
  9 11  1  0  0  0  0
  9 18  1  0  0  0  0
 10 12  1  0  0  0  0
 10 19  1  6  0  0  0
 11 13  1  6  0  0  0
 11 10  1  0  0  0  0
 12 16  1  6  0  0  0
 14 20  1  0  0  0  0
 17 13  1  0  0  0  0
 17 14  1  0  0  0  0
 18 15  1  6  0  0  0
 18 16  1  0  0  0  0
 18 12  1  0  0  0  0
 20  8  1  0  0  0  0
 21 25  1  6  0  0  0
 21 22  1  0  0  0  0
 22 24  1  0  0  0  0
 24 23  1  0  0  0  0
 26 27  1  0  0  0  0
 27 25  1  0  0  0  0
 28 26  1  0  0  0  0
 28 27  1  0  0  0  0
 30 29  1  0  0  0  0
 31 32  1  0  0  0  0
 32 30  1  0  0  0  0
 33 32  2  0  0  0  0
 34 36  1  0  0  0  0
 35 36  2  0  0  0  0
 35 37  1  0  0  0  0
 36 33  1  0  0  0  0
 37 31  2  0  0  0  0
M  END
>  <MODEL>
1

>  <REMARK>
 VINA RESULT:      -6.0      0.000      0.000
  Name = 
  9 active torsions:
  status: ('A' for Active; 'I' for Inactive)
    1  A    between atoms: C_1  and  C_33
    2  A    between atoms: N_4  and  C_10
    3  A    between atoms: O_5  and  C_23
    4  A    between atoms: O_5  and  C_33
    5  A    between atoms: C_6  and  C_31
    6  A    between atoms: C_14  and  C_37
    7  A    between atoms: O_17  and  C_26
    8  A    between atoms: O_17  and  C_33
    9  A    between atoms: C_31  and  C_37
                            x       y       z     vdW  Elec       q    Type
                         _______ _______ _______ _____ _____    ______ ____

>  <TORSDO>
F 9

$$$$
=
 OpenBabel11062409133D

 37 42  0  0  1  0  0  0  0  0999 V2000
  161.0530  209.0600  151.9390 C   0  0  1  0  0  3  0  0  0  0  0  0
  161.9450  211.6580  149.7730 O   0  0  0  0  0  1  0  0  0  0  0  0
  160.0890  210.8530  152.9080 C   0  0  1  0  0  3  0  0  0  0  0  0
  160.7360  211.7810  151.8450 C   0  0  1  0  0  3  0  0  0  0  0  0
  161.1670  210.9100  150.6580 C   0  0  2  0  0  3  0  0  0  0  0  0
  160.9110  209.7390  153.1620 O   0  0  0  0  0  0  0  0  0  0  0  0
  161.9080  209.7970  151.0990 O   0  0  0  0  0  0  0  0  0  0  0  0
  156.4590  212.1500  157.0360 C   0  0  0  0  0  2  0  0  0  0  0  0
  159.7390  211.4990  154.1940 N   0  0  1  0  0  0  0  0  0  0  0  0
  158.5940  210.9700  156.2930 C   0  0  1  0  0  3  0  0  0  0  0  0
  158.4890  210.9880  154.7590 C   0  0  1  0  0  3  0  0  0  0  0  0
  160.0990  210.9230  156.5670 C   0  0  2  0  0  3  0  0  0  0  0  0
  157.2260  211.5080  154.0650 C   0  0  0  0  0  2  0  0  0  0  0  0
  155.7150  213.1020  154.9420 O   0  0  0  0  0  0  0  0  0  0  0  0
  162.1030  210.6260  154.9290 C   0  0  0  0  0  1  0  0  0  0  0  0
  160.7760  212.2810  156.3300 C   0  0  0  0  0  2  0  0  0  0  0  0
  156.9590  212.9830  154.3110 C   0  0  0  0  0  2  0  0  0  0  0  0
  160.7460  211.2500  155.2350 C   0  0  1  0  0  0  0  0  0  0  0  0
  157.9760  212.1620  157.0350 C   0  0  0  0  0  2  0  0  0  0  0  0
  155.9750  213.3890  156.2890 C   0  0  0  0  0  2  0  0  0  0  0  0
  161.6390  207.6750  152.1840 C   0  0  1  0  0  3  0  0  0  0  0  0
  160.6960  206.8690  152.8260 O   0  0  0  0  0  0  0  0  0  0  0  0
  160.4490  207.1590  155.1720 C   0  0  0  0  0  1  0  0  0  0  0  0
  161.2740  206.5520  154.0560 C   0  0  0  0  0  2  0  0  0  0  0  0
  161.9940  207.0900  150.9650 O   0  0  0  0  0  0  0  0  0  0  0  0
  160.7380  206.7280  148.9850 C   0  0  0  0  0  2  0  0  0  0  0  0
  160.8150  206.5190  150.4830 C   0  0  0  0  0  3  0  0  0  0  0  0
  161.1610  205.3850  149.5390 C   0  0  0  0  0  2  0  0  0  0  0  0
  159.7530  212.8420  151.3790 C   0  0  0  0  0  2  0  0  0  0  0  0
  160.2420  213.4690  150.0890 C   0  0  0  0  0  2  0  0  0  0  0  0
  157.8300  213.6500  149.4570 C   0  0  0  0  0  3  0  0  0  0  0  0
  159.1590  213.4370  149.0700 C   0  0  0  0  0  0  0  0  0  0  0  0
  159.4600  213.1570  147.7320 C   0  0  0  0  0  3  0  0  0  0  0  0
  158.8210  212.7470  145.0750 S   0  0  0  0  0  1  0  0  0  0  0  0
  157.1100  213.3200  147.1680 C   0  0  0  0  0  3  0  0  0  0  0  0
  158.4360  213.1010  146.7830 C   0  0  0  0  0  0  0  0  0  0  0  0
  156.8070  213.5940  148.5060 C   0  0  0  0  0  3  0  0  0  0  0  0
  1 21  1  1  0  0  0
  1  6  1  0  0  0  0
  3  6  1  1  0  0  0
  4 29  1  6  0  0  0
  4  3  1  0  0  0  0
  5  2  1  6  0  0  0
  5  7  1  0  0  0  0
  5  4  1  0  0  0  0
  7  1  1  0  0  0  0
  9  3  1  6  0  0  0
  9 11  1  0  0  0  0
  9 18  1  0  0  0  0
 10 12  1  0  0  0  0
 10 19  1  1  0  0  0
 11 13  1  1  0  0  0
 11 10  1  0  0  0  0
 12 16  1  1  0  0  0
 13 17  1  0  0  0  0
 14 20  1  0  0  0  0
 17 14  1  0  0  0  0
 18 15  1  6  0  0  0
 18 16  1  0  0  0  0
 18 12  1  0  0  0  0
 19  8  1  0  0  0  0
 20  8  1  0  0  0  0
 21 25  1  6  0  0  0
 21 22  1  0  0  0  0
 22 24  1  0  0  0  0
 24 23  1  0  0  0  0
 26 28  1  0  0  0  0
 26 27  1  0  0  0  0
 27 25  1  0  0  0  0
 28 27  1  0  0  0  0
 30 29  1  0  0  0  0
 32 31  1  0  0  0  0
 32 30  1  0  0  0  0
 33 32  2  0  0  0  0
 34 36  1  0  0  0  0
 35 37  1  0  0  0  0
 36 35  2  0  0  0  0
 36 33  1  0  0  0  0
 37 31  2  0  0  0  0
M  END
>  <MODEL>
2

>  <REMARK>
 VINA RESULT:      -5.7      1.385      1.773
  Name = 
  9 active torsions:
  status: ('A' for Active; 'I' for Inactive)
    1  A    between atoms: C_1  and  C_33
    2  A    between atoms: N_4  and  C_10
    3  A    between atoms: O_5  and  C_23
    4  A    between atoms: O_5  and  C_33
    5  A    between atoms: C_6  and  C_31
    6  A    between atoms: C_14  and  C_37
    7  A    between atoms: O_17  and  C_26
    8  A    between atoms: O_17  and  C_33
    9  A    between atoms: C_31  and  C_37
                            x       y       z     vdW  Elec       q    Type
                         _______ _______ _______ _____ _____    ______ ____

>  <TORSDO>
F 9

$$$$
=
 OpenBabel11062409133D

 37 42  0  0  1  0  0  0  0  0999 V2000
  160.7900  206.8130  149.8340 C   0  0  1  0  0  3  0  0  0  0  0  0
  163.1280  208.9080  148.2910 O   0  0  0  0  0  1  0  0  0  0  0  0
  161.0110  208.4830  151.3330 C   0  0  1  0  0  3  0  0  0  0  0  0
  162.1250  209.1230  150.4630 C   0  0  1  0  0  3  0  0  0  0  0  0
  162.0200  208.5310  149.0520 C   0  0  2  0  0  3  0  0  0  0  0  0
  161.0160  207.0820  151.1960 O   0  0  0  0  0  0  0  0  0  0  0  0
  161.9520  207.1260  149.1040 O   0  0  0  0  0  0  0  0  0  0  0  0
  158.9730  211.0940  155.9080 C   0  0  0  0  0  2  0  0  0  0  0  0
  161.0460  208.8270  152.7730 N   0  0  1  0  0  0  0  0  0  0  0  0
  159.5410  208.9200  154.7030 C   0  0  1  0  0  3  0  0  0  0  0  0
  159.7750  209.3730  153.2520 C   0  0  1  0  0  3  0  0  0  0  0  0
  160.3900  207.6540  154.8430 C   0  0  2  0  0  3  0  0  0  0  0  0
  159.5140  210.8230  152.8320 C   0  0  0  0  0  2  0  0  0  0  0  0
  159.6250  212.7190  154.2410 O   0  0  0  0  0  0  0  0  0  0  0  0
  161.7140  206.3040  153.0510 C   0  0  0  0  0  1  0  0  0  0  0  0
  161.8880  207.9690  154.9640 C   0  0  0  0  0  2  0  0  0  0  0  0
  160.4250  211.8280  153.5150 C   0  0  0  0  0  2  0  0  0  0  0  0
  161.2880  207.6520  153.6220 C   0  0  1  0  0  0  0  0  0  0  0  0
  159.9250  209.9180  155.8030 C   0  0  0  0  0  2  0  0  0  0  0  0
  159.7540  212.3660  155.5920 C   0  0  0  0  0  2  0  0  0  0  0  0
  160.4460  205.3410  149.6500 C   0  0  1  0  0  3  0  0  0  0  0  0
  160.4770  205.0130  148.2920 O   0  0  0  0  0  0  0  0  0  0  0  0
  162.1660  204.4600  146.7140 C   0  0  0  0  0  1  0  0  0  0  0  0
  161.6530  204.2800  148.1280 C   0  0  0  0  0  2  0  0  0  0  0  0
  161.3710  204.5490  150.3370 O   0  0  0  0  0  0  0  0  0  0  0  0
  160.8120  202.2620  150.6280 C   0  0  0  0  0  2  0  0  0  0  0  0
  160.5980  203.6810  151.1110 C   0  0  0  0  0  3  0  0  0  0  0  0
  161.5140  202.7480  151.8760 C   0  0  0  0  0  2  0  0  0  0  0  0
  161.9680  210.6340  150.4040 C   0  0  0  0  0  2  0  0  0  0  0  0
  162.2840  211.1320  149.0070 C   0  0  0  0  0  2  0  0  0  0  0  0
  160.7920  213.0750  149.5060 C   0  0  0  0  0  3  0  0  0  0  0  0
  161.2650  212.1300  148.5870 C   0  0  0  0  0  0  0  0  0  0  0  0
  160.7500  212.1040  147.2860 C   0  0  0  0  0  3  0  0  0  0  0  0
  159.1200  212.9960  145.2400 S   0  0  0  0  0  1  0  0  0  0  0  0
  159.3060  213.9740  147.8180 C   0  0  0  0  0  3  0  0  0  0  0  0
  159.7740  213.0280  146.9020 C   0  0  0  0  0  0  0  0  0  0  0  0
  159.8150  213.9980  149.1210 C   0  0  0  0  0  3  0  0  0  0  0  0
  1 21  1  1  0  0  0
  1  6  1  0  0  0  0
  3  6  1  1  0  0  0
  4 29  1  6  0  0  0
  4  3  1  0  0  0  0
  5  2  1  6  0  0  0
  5  7  1  0  0  0  0
  5  4  1  0  0  0  0
  7  1  1  0  0  0  0
  9  3  1  6  0  0  0
  9 11  1  0  0  0  0
  9 18  1  0  0  0  0
 10 12  1  0  0  0  0
 10 19  1  1  0  0  0
 11 13  1  1  0  0  0
 11 10  1  0  0  0  0
 12 16  1  1  0  0  0
 13 17  1  0  0  0  0
 14 20  1  0  0  0  0
 17 14  1  0  0  0  0
 18 15  1  6  0  0  0
 18 12  1  0  0  0  0
 18 16  1  0  0  0  0
 19  8  1  0  0  0  0
 20  8  1  0  0  0  0
 21 22  1  6  0  0  0
 21 25  1  0  0  0  0
 23 24  1  0  0  0  0
 24 22  1  0  0  0  0
 25 27  1  0  0  0  0
 26 27  1  0  0  0  0
 26 28  1  0  0  0  0
 27 28  1  0  0  0  0
 30 29  1  0  0  0  0
 32 30  1  0  0  0  0
 32 31  2  0  0  0  0
 33 32  1  0  0  0  0
 34 36  1  0  0  0  0
 35 37  2  0  0  0  0
 36 33  2  0  0  0  0
 36 35  1  0  0  0  0
 37 31  1  0  0  0  0
M  END
>  <MODEL>
3

>  <REMARK>
 VINA RESULT:      -5.3      2.477      4.401
  Name = 
  9 active torsions:
  status: ('A' for Active; 'I' for Inactive)
    1  A    between atoms: C_1  and  C_33
    2  A    between atoms: N_4  and  C_10
    3  A    between atoms: O_5  and  C_23
    4  A    between atoms: O_5  and  C_33
    5  A    between atoms: C_6  and  C_31
    6  A    between atoms: C_14  and  C_37
    7  A    between atoms: O_17  and  C_26
    8  A    between atoms: O_17  and  C_33
    9  A    between atoms: C_31  and  C_37
                            x       y       z     vdW  Elec       q    Type
                         _______ _______ _______ _____ _____    ______ ____

>  <TORSDO>
F 9

$$$$
=
 OpenBabel11062409133D

 37 42  0  0  1  0  0  0  0  0999 V2000
  161.0910  206.5800  150.0940 C   0  0  1  0  0  3  0  0  0  0  0  0
  162.8580  209.0550  148.3650 O   0  0  0  0  0  1  0  0  0  0  0  0
  161.0280  208.3160  151.5300 C   0  0  1  0  0  3  0  0  0  0  0  0
  161.9380  209.1410  150.5820 C   0  0  1  0  0  3  0  0  0  0  0  0
  161.8920  208.4850  149.1960 C   0  0  2  0  0  3  0  0  0  0  0  0
  161.3200  206.9430  151.4330 O   0  0  0  0  0  0  0  0  0  0  0  0
  162.1230  207.1000  149.2910 O   0  0  0  0  0  0  0  0  0  0  0  0
  159.0050  211.1410  155.9840 C   0  0  0  0  0  2  0  0  0  0  0  0
  161.0590  208.7160  152.9560 N   0  0  1  0  0  0  0  0  0  0  0  0
  159.5430  208.9110  154.8700 C   0  0  1  0  0  3  0  0  0  0  0  0
  159.7940  209.3030  153.4050 C   0  0  1  0  0  3  0  0  0  0  0  0
  160.3690  207.6370  155.0650 C   0  0  2  0  0  3  0  0  0  0  0  0
  159.5620  210.7390  152.9260 C   0  0  0  0  0  2  0  0  0  0  0  0
  159.6960  212.6870  154.2600 O   0  0  0  0  0  0  0  0  0  0  0  0
  161.6810  206.1950  153.3370 C   0  0  0  0  0  1  0  0  0  0  0  0
  161.8720  207.9310  155.1860 C   0  0  0  0  0  2  0  0  0  0  0  0
  160.4860  211.7550  153.5760 C   0  0  0  0  0  2  0  0  0  0  0  0
  161.2750  207.5720  153.8520 C   0  0  1  0  0  0  0  0  0  0  0  0
  159.9380  209.9450  155.9320 C   0  0  0  0  0  2  0  0  0  0  0  0
  159.8110  212.3850  155.6240 C   0  0  0  0  0  2  0  0  0  0  0  0
  161.0550  205.0620  149.9700 C   0  0  1  0  0  3  0  0  0  0  0  0
  160.1780  204.5300  150.9190 O   0  0  0  0  0  0  0  0  0  0  0  0
  161.5330  202.8050  151.8350 C   0  0  0  0  0  1  0  0  0  0  0  0
  160.4060  203.1540  150.8840 C   0  0  0  0  0  2  0  0  0  0  0  0
  160.6240  204.7020  148.6900 O   0  0  0  0  0  0  0  0  0  0  0  0
  161.2950  202.9810  147.2010 C   0  0  0  0  0  2  0  0  0  0  0  0
  161.7430  204.1290  148.0810 C   0  0  0  0  0  3  0  0  0  0  0  0
  161.6440  204.3160  146.5810 C   0  0  0  0  0  2  0  0  0  0  0  0
  161.4650  210.5820  150.4900 C   0  0  0  0  0  2  0  0  0  0  0  0
  162.2830  211.3290  149.4550 C   0  0  0  0  0  2  0  0  0  0  0  0
  160.6070  213.1820  149.5280 C   0  0  0  0  0  3  0  0  0  0  0  0
  161.4300  212.3390  148.7720 C   0  0  0  0  0  0  0  0  0  0  0  0
  161.4210  212.4220  147.3750 C   0  0  0  0  0  3  0  0  0  0  0  0
  160.5900  213.4630  144.9540 S   0  0  0  0  0  1  0  0  0  0  0  0
  159.7810  214.2010  147.4910 C   0  0  0  0  0  3  0  0  0  0  0  0
  160.5990  213.3550  146.7360 C   0  0  0  0  0  0  0  0  0  0  0  0
  159.7850  214.1150  148.8870 C   0  0  0  0  0  3  0  0  0  0  0  0
  1 21  1  1  0  0  0
  1  6  1  0  0  0  0
  3  6  1  1  0  0  0
  4 29  1  6  0  0  0
  4  3  1  0  0  0  0
  5  2  1  6  0  0  0
  5  7  1  0  0  0  0
  5  4  1  0  0  0  0
  7  1  1  0  0  0  0
  9  3  1  6  0  0  0
  9 11  1  0  0  0  0
  9 18  1  0  0  0  0
 10 12  1  0  0  0  0
 10 19  1  1  0  0  0
 11 13  1  1  0  0  0
 11 10  1  0  0  0  0
 12 16  1  1  0  0  0
 13 17  1  0  0  0  0
 14 20  1  0  0  0  0
 17 14  1  0  0  0  0
 18 15  1  6  0  0  0
 18 12  1  0  0  0  0
 18 16  1  0  0  0  0
 19  8  1  0  0  0  0
 20  8  1  0  0  0  0
 21 25  1  6  0  0  0
 21 22  1  0  0  0  0
 24 22  1  0  0  0  0
 24 23  1  0  0  0  0
 26 27  1  0  0  0  0
 27 25  1  0  0  0  0
 28 26  1  0  0  0  0
 28 27  1  0  0  0  0
 30 29  1  0  0  0  0
 32 30  1  0  0  0  0
 32 31  2  0  0  0  0
 33 32  1  0  0  0  0
 34 36  1  0  0  0  0
 35 37  2  0  0  0  0
 36 33  2  0  0  0  0
 36 35  1  0  0  0  0
 37 31  1  0  0  0  0
M  END
>  <MODEL>
4

>  <REMARK>
 VINA RESULT:      -5.3      2.445      4.114
  Name = 
  9 active torsions:
  status: ('A' for Active; 'I' for Inactive)
    1  A    between atoms: C_1  and  C_33
    2  A    between atoms: N_4  and  C_10
    3  A    between atoms: O_5  and  C_23
    4  A    between atoms: O_5  and  C_33
    5  A    between atoms: C_6  and  C_31
    6  A    between atoms: C_14  and  C_37
    7  A    between atoms: O_17  and  C_26
    8  A    between atoms: O_17  and  C_33
    9  A    between atoms: C_31  and  C_37
                            x       y       z     vdW  Elec       q    Type
                         _______ _______ _______ _____ _____    ______ ____

>  <TORSDO>
F 9

$$$$
=
 OpenBabel11062409133D

 37 42  0  0  1  0  0  0  0  0999 V2000
  161.5680  210.1230  149.0980 C   0  0  1  0  0  3  0  0  0  0  0  0
  162.9770  210.3350  152.2930 O   0  0  0  0  0  1  0  0  0  0  0  0
  161.6510  207.9630  149.7370 C   0  0  1  0  0  3  0  0  0  0  0  0
  162.3850  208.3720  151.0420 C   0  0  1  0  0  3  0  0  0  0  0  0
  162.1630  209.8740  151.2570 C   0  0  2  0  0  3  0  0  0  0  0  0
  161.9750  208.8420  148.6870 O   0  0  0  0  0  0  0  0  0  0  0  0
  162.4550  210.5950  150.0840 O   0  0  0  0  0  0  0  0  0  0  0  0
  160.3700  202.4620  149.6560 C   0  0  0  0  0  2  0  0  0  0  0  0
  161.8730  206.5700  149.2880 N   0  0  1  0  0  0  0  0  0  0  0  0
  160.6010  204.6720  148.4040 C   0  0  1  0  0  3  0  0  0  0  0  0
  160.7170  205.7060  149.5360 C   0  0  1  0  0  3  0  0  0  0  0  0
  161.3400  205.3170  147.2290 C   0  0  2  0  0  3  0  0  0  0  0  0
  160.5480  205.2880  151.0010 C   0  0  0  0  0  2  0  0  0  0  0  0
  160.9840  203.1430  151.8930 O   0  0  0  0  0  0  0  0  0  0  0  0
  162.3320  207.7110  146.9690 C   0  0  0  0  0  1  0  0  0  0  0  0
  162.8650  205.2630  147.4010 C   0  0  0  0  0  2  0  0  0  0  0  0
  161.6160  204.3250  151.4870 C   0  0  0  0  0  2  0  0  0  0  0  0
  162.0970  206.4800  147.8380 C   0  0  1  0  0  0  0  0  0  0  0  0
  161.1930  203.2840  148.6820 C   0  0  0  0  0  2  0  0  0  0  0  0
  161.2260  202.1940  150.8900 C   0  0  0  0  0  2  0  0  0  0  0  0
  161.5700  211.0720  147.9060 C   0  0  1  0  0  3  0  0  0  0  0  0
  160.3760  211.7970  147.8760 O   0  0  0  0  0  0  0  0  0  0  0  0
  158.6980  212.5710  146.3810 C   0  0  0  0  0  1  0  0  0  0  0  0
  160.0090  211.8260  146.5300 C   0  0  0  0  0  2  0  0  0  0  0  0
  162.6460  211.9580  148.0090 O   0  0  0  0  0  0  0  0  0  0  0  0
  163.1400  214.2700  148.2110 C   0  0  0  0  0  2  0  0  0  0  0  0
  162.0740  213.2290  147.9350 C   0  0  0  0  0  3  0  0  0  0  0  0
  162.7050  213.9930  146.7890 C   0  0  0  0  0  2  0  0  0  0  0  0
  161.8510  207.5930  152.2330 C   0  0  0  0  0  2  0  0  0  0  0  0
  160.6740  208.3270  152.8450 C   0  0  0  0  0  2  0  0  0  0  0  0
  160.0830  207.3170  155.0540 C   0  0  0  0  0  3  0  0  0  0  0  0
  160.7760  208.2940  154.3290 C   0  0  0  0  0  0  0  0  0  0  0  0
  161.5320  209.2590  155.0040 C   0  0  0  0  0  3  0  0  0  0  0  0
  162.5710  210.4690  157.2600 S   0  0  0  0  0  1  0  0  0  0  0  0
  160.9160  208.2600  157.1230 C   0  0  0  0  0  3  0  0  0  0  0  0
  161.6040  209.2390  156.3990 C   0  0  0  0  0  0  0  0  0  0  0  0
  160.1550  207.2990  156.4500 C   0  0  0  0  0  3  0  0  0  0  0  0
  1 21  1  6  0  0  0
  1  7  1  0  0  0  0
  3  6  1  6  0  0  0
  3  4  1  0  0  0  0
  4  5  1  0  0  0  0
  4 29  1  1  0  0  0
  5  2  1  1  0  0  0
  6  1  1  0  0  0  0
  7  5  1  0  0  0  0
  8 20  1  0  0  0  0
  9 11  1  0  0  0  0
  9  3  1  6  0  0  0
 10 19  1  1  0  0  0
 10 11  1  0  0  0  0
 11 13  1  1  0  0  0
 12 16  1  1  0  0  0
 12 18  1  0  0  0  0
 12 10  1  0  0  0  0
 13 17  1  0  0  0  0
 16 18  1  0  0  0  0
 17 14  1  0  0  0  0
 18 15  1  6  0  0  0
 18  9  1  0  0  0  0
 19  8  1  0  0  0  0
 20 14  1  0  0  0  0
 21 22  1  1  0  0  0
 21 25  1  0  0  0  0
 23 24  1  0  0  0  0
 24 22  1  0  0  0  0
 27 25  1  0  0  0  0
 27 26  1  0  0  0  0
 28 27  1  0  0  0  0
 28 26  1  0  0  0  0
 29 30  1  0  0  0  0
 30 32  1  0  0  0  0
 31 37  1  0  0  0  0
 32 33  1  0  0  0  0
 32 31  2  0  0  0  0
 33 36  2  0  0  0  0
 36 35  1  0  0  0  0
 36 34  1  0  0  0  0
 37 35  2  0  0  0  0
M  END
>  <MODEL>
5

>  <REMARK>
 VINA RESULT:      -4.6      4.265      9.311
  Name = 
  9 active torsions:
  status: ('A' for Active; 'I' for Inactive)
    1  A    between atoms: C_1  and  C_33
    2  A    between atoms: N_4  and  C_10
    3  A    between atoms: O_5  and  C_23
    4  A    between atoms: O_5  and  C_33
    5  A    between atoms: C_6  and  C_31
    6  A    between atoms: C_14  and  C_37
    7  A    between atoms: O_17  and  C_26
    8  A    between atoms: O_17  and  C_33
    9  A    between atoms: C_31  and  C_37
                            x       y       z     vdW  Elec       q    Type
                         _______ _______ _______ _____ _____    ______ ____

>  <TORSDO>
F 9

$$$$
=
 OpenBabel11062409133D

 37 42  0  0  1  0  0  0  0  0999 V2000
  161.1100  206.9500  148.9030 C   0  0  1  0  0  3  0  0  0  0  0  0
  163.0280  209.7140  147.9450 O   0  0  0  0  0  1  0  0  0  0  0  0
  161.3700  208.0600  150.8480 C   0  0  1  0  0  3  0  0  0  0  0  0
  162.2990  209.0850  150.1450 C   0  0  1  0  0  3  0  0  0  0  0  0
  162.0670  208.9720  148.6330 C   0  0  2  0  0  3  0  0  0  0  0  0
  161.4850  206.7910  150.2490 O   0  0  0  0  0  0  0  0  0  0  0  0
  162.1340  207.6290  148.2170 O   0  0  0  0  0  0  0  0  0  0  0  0
  160.0880  209.3160  156.2040 C   0  0  0  0  0  2  0  0  0  0  0  0
  161.5590  207.9220  152.3110 N   0  0  1  0  0  0  0  0  0  0  0  0
  160.2270  207.5840  154.3380 C   0  0  1  0  0  3  0  0  0  0  0  0
  160.4250  208.4410  153.0770 C   0  0  1  0  0  3  0  0  0  0  0  0
  160.8780  206.2440  153.9870 C   0  0  2  0  0  3  0  0  0  0  0  0
  160.3620  209.9700  153.1500 C   0  0  0  0  0  2  0  0  0  0  0  0
  160.8620  211.2920  155.0460 O   0  0  0  0  0  0  0  0  0  0  0  0
  161.8480  205.3790  151.7290 C   0  0  0  0  0  1  0  0  0  0  0  0
  162.4120  206.3150  154.0250 C   0  0  0  0  0  2  0  0  0  0  0  0
  161.4630  210.5850  153.9970 C   0  0  0  0  0  2  0  0  0  0  0  0
  161.6770  206.5180  152.7280 C   0  0  1  0  0  0  0  0  0  0  0  0
  160.8380  208.1250  155.6370 C   0  0  0  0  0  2  0  0  0  0  0  0
  161.0310  210.5150  156.2010 C   0  0  0  0  0  2  0  0  0  0  0  0
  160.8810  205.5840  148.2680 C   0  0  1  0  0  3  0  0  0  0  0  0
  161.5300  205.5220  147.0320 O   0  0  0  0  0  0  0  0  0  0  0  0
  161.1210  205.6990  144.6980 C   0  0  0  0  0  1  0  0  0  0  0  0
  160.5250  205.7470  146.0900 C   0  0  0  0  0  2  0  0  0  0  0  0
  161.3840  204.5840  149.1050 O   0  0  0  0  0  0  0  0  0  0  0  0
  161.2240  202.3460  148.3320 C   0  0  0  0  0  2  0  0  0  0  0  0
  160.4970  203.5150  148.9620 C   0  0  0  0  0  3  0  0  0  0  0  0
  160.9670  202.3590  149.8220 C   0  0  0  0  0  2  0  0  0  0  0  0
  161.9990  210.5000  150.6110 C   0  0  0  0  0  2  0  0  0  0  0  0
  161.9960  211.4450  149.4260 C   0  0  0  0  0  2  0  0  0  0  0  0
  160.5700  213.2920  148.5280 C   0  0  0  0  0  3  0  0  0  0  0  0
  160.9380  212.4750  149.6040 C   0  0  0  0  0  0  0  0  0  0  0  0
  160.3360  212.6540  150.8550 C   0  0  0  0  0  3  0  0  0  0  0  0
  158.5890  213.8660  152.6200 S   0  0  0  0  0  1  0  0  0  0  0  0
  158.9880  214.4510  149.9490 C   0  0  0  0  0  3  0  0  0  0  0  0
  159.3600  213.6400  151.0250 C   0  0  0  0  0  0  0  0  0  0  0  0
  159.5940  214.2770  148.7000 C   0  0  0  0  0  3  0  0  0  0  0  0
  1 21  1  6  0  0  0
  1  6  1  0  0  0  0
  3  6  1  6  0  0  0
  4 29  1  1  0  0  0
  4  3  1  0  0  0  0
  5  2  1  6  0  0  0
  5  4  1  0  0  0  0
  7  5  1  0  0  0  0
  7  1  1  0  0  0  0
  9  3  1  6  0  0  0
  9 18  1  0  0  0  0
  9 11  1  0  0  0  0
 10 19  1  1  0  0  0
 11 13  1  1  0  0  0
 11 10  1  0  0  0  0
 12 16  1  1  0  0  0
 12 10  1  0  0  0  0
 13 17  1  0  0  0  0
 14 20  1  0  0  0  0
 17 14  1  0  0  0  0
 18 15  1  6  0  0  0
 18 12  1  0  0  0  0
 18 16  1  0  0  0  0
 19  8  1  0  0  0  0
 20  8  1  0  0  0  0
 21 22  1  6  0  0  0
 21 25  1  0  0  0  0
 23 24  1  0  0  0  0
 24 22  1  0  0  0  0
 26 27  1  0  0  0  0
 26 28  1  0  0  0  0
 27 25  1  0  0  0  0
 27 28  1  0  0  0  0
 30 32  1  0  0  0  0
 30 29  1  0  0  0  0
 31 37  2  0  0  0  0
 31 32  1  0  0  0  0
 32 33  2  0  0  0  0
 33 36  1  0  0  0  0
 35 36  2  0  0  0  0
 36 34  1  0  0  0  0
 37 35  1  0  0  0  0
M  END
>  <MODEL>
6

>  <REMARK>
 VINA RESULT:      -4.6      3.142      5.516
  Name = 
  9 active torsions:
  status: ('A' for Active; 'I' for Inactive)
    1  A    between atoms: C_1  and  C_33
    2  A    between atoms: N_4  and  C_10
    3  A    between atoms: O_5  and  C_23
    4  A    between atoms: O_5  and  C_33
    5  A    between atoms: C_6  and  C_31
    6  A    between atoms: C_14  and  C_37
    7  A    between atoms: O_17  and  C_26
    8  A    between atoms: O_17  and  C_33
    9  A    between atoms: C_31  and  C_37
                            x       y       z     vdW  Elec       q    Type
                         _______ _______ _______ _____ _____    ______ ____

>  <TORSDO>
F 9

$$$$
=
 OpenBabel11062409133D

 37 42  0  0  1  0  0  0  0  0999 V2000
  161.2550  209.0400  149.9080 C   0  0  1  0  0  3  0  0  0  0  0  0
  163.0160  211.5870  148.2800 O   0  0  0  0  0  1  0  0  0  0  0  0
  160.7330  210.8560  151.1380 C   0  0  1  0  0  3  0  0  0  0  0  0
  161.7020  211.7180  150.2860 C   0  0  1  0  0  3  0  0  0  0  0  0
  161.9850  210.9610  148.9830 C   0  0  2  0  0  3  0  0  0  0  0  0
  161.1930  209.5280  151.2250 O   0  0  0  0  0  0  0  0  0  0  0  0
  162.3520  209.6280  149.2490 O   0  0  0  0  0  0  0  0  0  0  0  0
  157.2400  212.5860  155.2260 C   0  0  0  0  0  2  0  0  0  0  0  0
  160.4570  211.3610  152.5020 N   0  0  1  0  0  0  0  0  0  0  0  0
  158.9670  210.9050  154.3920 C   0  0  1  0  0  3  0  0  0  0  0  0
  159.0530  211.2070  152.8870 C   0  0  1  0  0  3  0  0  0  0  0  0
  160.3390  210.3190  154.7360 C   0  0  2  0  0  3  0  0  0  0  0  0
  158.1070  212.2210  152.2360 C   0  0  0  0  0  2  0  0  0  0  0  0
  157.0820  214.0580  153.3150 O   0  0  0  0  0  0  0  0  0  0  0  0
  162.3240  209.6490  153.1880 C   0  0  0  0  0  1  0  0  0  0  0  0
  161.4310  211.3970  154.8040 C   0  0  0  0  0  2  0  0  0  0  0  0
  158.2910  213.6410  152.7450 C   0  0  0  0  0  2  0  0  0  0  0  0
  161.2060  210.6270  153.5320 C   0  0  1  0  0  0  0  0  0  0  0  0
  158.6730  212.0960  155.3140 C   0  0  0  0  0  2  0  0  0  0  0  0
  157.2610  214.0200  154.7060 C   0  0  0  0  0  2  0  0  0  0  0  0
  161.4160  207.5260  149.9270 C   0  0  1  0  0  3  0  0  0  0  0  0
  162.2020  207.1190  148.8450 O   0  0  0  0  0  0  0  0  0  0  0  0
  161.2760  206.3470  146.7970 C   0  0  0  0  0  1  0  0  0  0  0  0
  161.4960  206.0620  148.2680 C   0  0  0  0  0  2  0  0  0  0  0  0
  162.0320  207.1310  151.1190 O   0  0  0  0  0  0  0  0  0  0  0  0
  161.6390  204.9480  151.9600 C   0  0  0  0  0  2  0  0  0  0  0  0
  161.0810  206.3430  151.7710 C   0  0  0  0  0  3  0  0  0  0  0  0
  161.6270  205.9190  153.1190 C   0  0  0  0  0  2  0  0  0  0  0  0
  161.0920  213.0750  149.9750 C   0  0  0  0  0  2  0  0  0  0  0  0
  159.6550  212.9050  149.5230 C   0  0  0  0  0  2  0  0  0  0  0  0
  160.6300  213.7880  147.3970 C   0  0  0  0  0  3  0  0  0  0  0  0
  159.5000  213.4170  148.1350 C   0  0  0  0  0  0  0  0  0  0  0  0
  158.2240  213.5640  147.5790 C   0  0  0  0  0  3  0  0  0  0  0  0
  156.4530  214.2560  145.5750 S   0  0  0  0  0  1  0  0  0  0  0  0
  159.2100  214.4360  145.5460 C   0  0  0  0  0  3  0  0  0  0  0  0
  158.0810  214.0710  146.2850 C   0  0  0  0  0  0  0  0  0  0  0  0
  160.4850  214.2950  146.1030 C   0  0  0  0  0  3  0  0  0  0  0  0
  1 21  1  1  0  0  0
  1  6  1  0  0  0  0
  3  6  1  1  0  0  0
  4 29  1  6  0  0  0
  4  3  1  0  0  0  0
  5  2  1  1  0  0  0
  5  7  1  0  0  0  0
  5  4  1  0  0  0  0
  7  1  1  0  0  0  0
  8 19  1  0  0  0  0
  9  3  1  6  0  0  0
  9 11  1  0  0  0  0
  9 18  1  0  0  0  0
 10 12  1  0  0  0  0
 10 19  1  1  0  0  0
 11 13  1  1  0  0  0
 11 10  1  0  0  0  0
 12 16  1  1  0  0  0
 13 17  1  0  0  0  0
 14 20  1  0  0  0  0
 17 14  1  0  0  0  0
 18 15  1  6  0  0  0
 18 12  1  0  0  0  0
 18 16  1  0  0  0  0
 20  8  1  0  0  0  0
 21 22  1  6  0  0  0
 21 25  1  0  0  0  0
 23 24  1  0  0  0  0
 24 22  1  0  0  0  0
 25 27  1  0  0  0  0
 26 28  1  0  0  0  0
 27 26  1  0  0  0  0
 27 28  1  0  0  0  0
 30 29  1  0  0  0  0
 31 32  1  0  0  0  0
 32 30  1  0  0  0  0
 33 32  2  0  0  0  0
 34 36  1  0  0  0  0
 35 37  1  0  0  0  0
 35 36  2  0  0  0  0
 36 33  1  0  0  0  0
 37 31  2  0  0  0  0
M  END
>  <MODEL>
7

>  <REMARK>
 VINA RESULT:      -4.0      2.168      3.598
  Name = 
  9 active torsions:
  status: ('A' for Active; 'I' for Inactive)
    1  A    between atoms: C_1  and  C_33
    2  A    between atoms: N_4  and  C_10
    3  A    between atoms: O_5  and  C_23
    4  A    between atoms: O_5  and  C_33
    5  A    between atoms: C_6  and  C_31
    6  A    between atoms: C_14  and  C_37
    7  A    between atoms: O_17  and  C_26
    8  A    between atoms: O_17  and  C_33
    9  A    between atoms: C_31  and  C_37
                            x       y       z     vdW  Elec       q    Type
                         _______ _______ _______ _____ _____    ______ ____

>  <TORSDO>
F 9

$$$$
=
 OpenBabel11062409133D

 37 42  0  0  1  0  0  0  0  0999 V2000
  161.6370  210.3480  154.6520 C   0  0  1  0  0  3  0  0  0  0  0  0
  158.9740  212.1570  153.2830 O   0  0  0  0  0  1  0  0  0  0  0  0
  161.6670  209.7000  152.4930 C   0  0  1  0  0  3  0  0  0  0  0  0
  160.3830  210.5270  152.2210 C   0  0  1  0  0  3  0  0  0  0  0  0
  160.2230  211.5380  153.3630 C   0  0  2  0  0  3  0  0  0  0  0  0
  161.6790  209.2190  153.8160 O   0  0  0  0  0  0  0  0  0  0  0  0
  160.3440  210.9030  154.6130 O   0  0  0  0  0  0  0  0  0  0  0  0
  160.4910  204.5760  150.4270 C   0  0  0  0  0  2  0  0  0  0  0  0
  161.9090  208.5700  151.5660 N   0  0  1  0  0  0  0  0  0  0  0  0
  160.6610  207.0940  150.0620 C   0  0  1  0  0  3  0  0  0  0  0  0
  160.7740  207.6490  151.4920 C   0  0  1  0  0  3  0  0  0  0  0  0
  161.3700  208.1380  149.1970 C   0  0  2  0  0  3  0  0  0  0  0  0
  160.6340  206.7240  152.7050 C   0  0  0  0  0  2  0  0  0  0  0  0
  161.1240  204.4120  152.7540 O   0  0  0  0  0  0  0  0  0  0  0  0
  162.3130  210.4860  149.8180 C   0  0  0  0  0  1  0  0  0  0  0  0
  162.8990  208.0610  149.3270 C   0  0  0  0  0  2  0  0  0  0  0  0
  161.7270  205.6740  152.8010 C   0  0  0  0  0  2  0  0  0  0  0  0
  162.1140  209.0190  150.1810 C   0  0  1  0  0  0  0  0  0  0  0  0
  161.2830  205.7140  149.8120 C   0  0  0  0  0  2  0  0  0  0  0  0
  161.3690  203.8970  151.4730 C   0  0  0  0  0  2  0  0  0  0  0  0
  161.9840  209.9450  156.0800 C   0  0  1  0  0  3  0  0  0  0  0  0
  161.0950  210.5520  156.9720 O   0  0  0  0  0  0  0  0  0  0  0  0
  160.6390  212.8830  157.0520 C   0  0  0  0  0  1  0  0  0  0  0  0
  161.6690  211.7920  157.2590 C   0  0  0  0  0  2  0  0  0  0  0  0
  161.8960  208.5560  156.2130 O   0  0  0  0  0  0  0  0  0  0  0  0
  159.7320  207.5850  156.2730 C   0  0  0  0  0  2  0  0  0  0  0  0
  160.7930  208.3430  157.0430 C   0  0  0  0  0  3  0  0  0  0  0  0
  160.6140  206.8540  157.2590 C   0  0  0  0  0  2  0  0  0  0  0  0
  160.4770  211.2570  150.8910 C   0  0  0  0  0  2  0  0  0  0  0  0
  160.1480  212.7250  151.0840 C   0  0  0  0  0  2  0  0  0  0  0  0
  159.9770  213.3920  148.6800 C   0  0  0  0  0  3  0  0  0  0  0  0
  159.3570  213.2190  149.9240 C   0  0  0  0  0  0  0  0  0  0  0  0
  158.0070  213.5480  150.0830 C   0  0  0  0  0  3  0  0  0  0  0  0
  155.5490  214.4530  149.2010 S   0  0  0  0  0  1  0  0  0  0  0  0
  157.8910  214.2040  147.7550 C   0  0  0  0  0  3  0  0  0  0  0  0
  157.2740  214.0370  148.9980 C   0  0  0  0  0  0  0  0  0  0  0  0
  159.2430  213.8820  147.5960 C   0  0  0  0  0  3  0  0  0  0  0  0
  1 21  1  1  0  0  0
  3  6  1  1  0  0  0
  4 29  1  6  0  0  0
  4  3  1  0  0  0  0
  4  5  1  0  0  0  0
  5  2  1  1  0  0  0
  5  7  1  0  0  0  0
  6  1  1  0  0  0  0
  7  1  1  0  0  0  0
  8 20  1  0  0  0  0
  9  3  1  1  0  0  0
 10 19  1  1  0  0  0
 10 11  1  0  0  0  0
 11  9  1  0  0  0  0
 11 13  1  1  0  0  0
 12 16  1  6  0  0  0
 12 10  1  0  0  0  0
 12 18  1  0  0  0  0
 13 17  1  0  0  0  0
 14 17  1  0  0  0  0
 16 18  1  0  0  0  0
 18 15  1  6  0  0  0
 18  9  1  0  0  0  0
 19  8  1  0  0  0  0
 20 14  1  0  0  0  0
 21 25  1  6  0  0  0
 21 22  1  0  0  0  0
 22 24  1  0  0  0  0
 23 24  1  0  0  0  0
 25 27  1  0  0  0  0
 26 27  1  0  0  0  0
 26 28  1  0  0  0  0
 27 28  1  0  0  0  0
 29 30  1  0  0  0  0
 31 32  1  0  0  0  0
 32 33  2  0  0  0  0
 32 30  1  0  0  0  0
 35 36  2  0  0  0  0
 36 34  1  0  0  0  0
 36 33  1  0  0  0  0
 37 35  1  0  0  0  0
 37 31  2  0  0  0  0
M  END
>  <MODEL>
8

>  <REMARK>
 VINA RESULT:      -3.9      2.620      6.076
  Name = 
  9 active torsions:
  status: ('A' for Active; 'I' for Inactive)
    1  A    between atoms: C_1  and  C_33
    2  A    between atoms: N_4  and  C_10
    3  A    between atoms: O_5  and  C_23
    4  A    between atoms: O_5  and  C_33
    5  A    between atoms: C_6  and  C_31
    6  A    between atoms: C_14  and  C_37
    7  A    between atoms: O_17  and  C_26
    8  A    between atoms: O_17  and  C_33
    9  A    between atoms: C_31  and  C_37
                            x       y       z     vdW  Elec       q    Type
                         _______ _______ _______ _____ _____    ______ ____

>  <TORSDO>
F 9

$$$$
=
 OpenBabel11062409133D

 37 42  0  0  1  0  0  0  0  0999 V2000
  160.8290  208.0910  154.6100 C   0  0  1  0  0  3  0  0  0  0  0  0
  161.8760  205.0770  153.1750 O   0  0  0  0  0  1  0  0  0  0  0  0
  160.5880  208.4930  152.4050 C   0  0  1  0  0  3  0  0  0  0  0  0
  161.2090  207.1090  152.0790 C   0  0  1  0  0  3  0  0  0  0  0  0
  161.1390  206.2500  153.3480 C   0  0  2  0  0  3  0  0  0  0  0  0
  161.1310  209.0150  153.5940 O   0  0  0  0  0  0  0  0  0  0  0  0
  161.6450  206.9540  154.4570 O   0  0  0  0  0  0  0  0  0  0  0  0
  160.4780  213.8210  150.5340 C   0  0  0  0  0  2  0  0  0  0  0  0
  160.6990  209.5120  151.3360 N   0  0  1  0  0  0  0  0  0  0  0  0
  161.7860  211.6670  150.9210 C   0  0  1  0  0  3  0  0  0  0  0  0
  160.8720  210.8660  151.8640 C   0  0  1  0  0  3  0  0  0  0  0  0
  162.5880  210.5970  150.1770 C   0  0  2  0  0  3  0  0  0  0  0  0
  159.5930  211.4890  152.4320 C   0  0  0  0  0  2  0  0  0  0  0  0
  158.3170  213.2050  151.4240 O   0  0  0  0  0  0  0  0  0  0  0  0
  162.7060  208.0200  150.5390 C   0  0  0  0  0  1  0  0  0  0  0  0
  161.7530  209.8870  149.1000 C   0  0  0  0  0  2  0  0  0  0  0  0
  158.5580  211.8270  151.3730 C   0  0  0  0  0  2  0  0  0  0  0  0
  161.8720  209.2950  150.4780 C   0  0  1  0  0  0  0  0  0  0  0  0
  161.0890  212.5820  149.9070 C   0  0  0  0  0  2  0  0  0  0  0  0
  158.9690  213.7670  150.3170 C   0  0  0  0  0  2  0  0  0  0  0  0
  161.0780  208.7240  155.9730 C   0  0  1  0  0  3  0  0  0  0  0  0
  161.9610  209.7990  155.8420 O   0  0  0  0  0  0  0  0  0  0  0  0
  163.4550  211.0780  157.1760 C   0  0  0  0  0  1  0  0  0  0  0  0
  162.7620  209.7450  156.9830 C   0  0  0  0  0  2  0  0  0  0  0  0
  159.8700  209.1810  156.5090 O   0  0  0  0  0  0  0  0  0  0  0  0
  158.2540  210.7520  155.7660 C   0  0  0  0  0  2  0  0  0  0  0  0
  159.7230  210.4780  156.0110 C   0  0  0  0  0  3  0  0  0  0  0  0
  158.9270  211.3030  157.0020 C   0  0  0  0  0  2  0  0  0  0  0  0
  160.4560  206.4270  150.9490 C   0  0  0  0  0  2  0  0  0  0  0  0
  160.6520  204.9250  151.0300 C   0  0  0  0  0  2  0  0  0  0  0  0
  160.9050  202.9970  149.4590 C   0  0  0  0  0  3  0  0  0  0  0  0
  160.9350  204.3800  149.6750 C   0  0  0  0  0  0  0  0  0  0  0  0
  161.2670  205.2440  148.6260 C   0  0  0  0  0  3  0  0  0  0  0  0
  161.9790  205.8290  146.0210 S   0  0  0  0  0  1  0  0  0  0  0  0
  161.5220  203.3460  147.1430 C   0  0  0  0  0  3  0  0  0  0  0  0
  161.5580  204.7260  147.3600 C   0  0  0  0  0  0  0  0  0  0  0  0
  161.1960  202.4810  148.1930 C   0  0  0  0  0  3  0  0  0  0  0  0
  1 21  1  1  0  0  0
  3  6  1  1  0  0  0
  4 29  1  6  0  0  0
  4  3  1  0  0  0  0
  4  5  1  0  0  0  0
  5  2  1  6  0  0  0
  5  7  1  0  0  0  0
  6  1  1  0  0  0  0
  7  1  1  0  0  0  0
  9 11  1  0  0  0  0
  9  3  1  1  0  0  0
 10 19  1  6  0  0  0
 10 11  1  0  0  0  0
 11 13  1  6  0  0  0
 12 16  1  6  0  0  0
 12 18  1  0  0  0  0
 12 10  1  0  0  0  0
 16 18  1  0  0  0  0
 17 14  1  0  0  0  0
 17 13  1  0  0  0  0
 18 15  1  1  0  0  0
 18  9  1  0  0  0  0
 19  8  1  0  0  0  0
 20  8  1  0  0  0  0
 20 14  1  0  0  0  0
 21 22  1  6  0  0  0
 21 25  1  0  0  0  0
 22 24  1  0  0  0  0
 24 23  1  0  0  0  0
 26 27  1  0  0  0  0
 26 28  1  0  0  0  0
 27 25  1  0  0  0  0
 27 28  1  0  0  0  0
 29 30  1  0  0  0  0
 31 32  1  0  0  0  0
 32 30  1  0  0  0  0
 33 32  2  0  0  0  0
 34 36  1  0  0  0  0
 35 36  2  0  0  0  0
 35 37  1  0  0  0  0
 36 33  1  0  0  0  0
 37 31  2  0  0  0  0
M  END
>  <MODEL>
9

>  <REMARK>
 VINA RESULT:      -3.9      2.669      6.732
  Name = 
  9 active torsions:
  status: ('A' for Active; 'I' for Inactive)
    1  A    between atoms: C_1  and  C_33
    2  A    between atoms: N_4  and  C_10
    3  A    between atoms: O_5  and  C_23
    4  A    between atoms: O_5  and  C_33
    5  A    between atoms: C_6  and  C_31
    6  A    between atoms: C_14  and  C_37
    7  A    between atoms: O_17  and  C_26
    8  A    between atoms: O_17  and  C_33
    9  A    between atoms: C_31  and  C_37
                            x       y       z     vdW  Elec       q    Type
                         _______ _______ _______ _____ _____    ______ ____

>  <TORSDO>
F 9

$$$$
