=
 OpenBabel11052422133D

 25 28  0  0  0  0  0  0  0  0999 V2000
  161.3420  205.3710  149.4320 C   0  0  0  0  0  0  0  0  0  0  0  0
  161.3720  206.3980  150.3770 C   0  0  0  0  0  0  0  0  0  0  0  0
  161.8660  206.8780  147.6110 C   0  0  0  0  0  3  0  0  0  0  0  0
  161.1060  204.0170  149.5010 C   0  0  0  0  0  0  0  0  0  0  0  0
  160.7300  201.3260  149.0350 C   0  0  0  0  0  3  0  0  0  0  0  0
  161.9040  207.9370  148.5360 C   0  0  0  0  0  3  0  0  0  0  0  0
  161.2090  203.5100  148.2550 N   0  0  0  0  0  0  0  0  0  0  0  0
  161.0330  202.1950  147.9760 C   0  0  0  0  0  3  0  0  0  0  0  0
  161.6980  208.7730  150.8320 C   0  0  0  0  0  0  0  0  0  0  0  0
  161.9750  210.0690  150.4110 O   0  0  0  0  0  1  0  0  0  0  0  0
  161.1300  206.1710  151.7350 C   0  0  0  0  0  3  0  0  0  0  0  0
  160.6180  201.8370  150.3420 C   0  0  0  0  0  3  0  0  0  0  0  0
  161.5820  205.6040  148.0930 C   0  0  0  0  0  0  0  0  0  0  0  0
  161.4990  204.4620  147.3770 N   0  0  0  0  0  0  0  0  0  0  0  0
  161.4550  208.5300  152.1870 C   0  0  0  0  0  3  0  0  0  0  0  0
  160.8080  203.2040  150.5930 C   0  0  0  0  0  3  0  0  0  0  0  0
  161.1750  207.2350  152.6390 C   0  0  0  0  0  0  0  0  0  0  0  0
  161.6600  207.7120  149.9130 C   0  0  0  0  0  0  0  0  0  0  0  0
  160.8600  206.9450  154.3730 S   0  0  0  0  0  0  0  0  0  0  0  0
  161.1260  208.6930  154.7980 C   0  0  0  0  0  2  0  0  0  0  0  0
  159.9310  209.2400  155.5610 C   0  0  0  0  0  2  0  0  0  0  0  0
  159.5180  210.6060  155.0300 C   0  0  0  0  0  2  0  0  0  0  0  0
  160.6440  211.2590  154.3820 N   0  0  0  0  0  2  0  0  0  0  0  0
  160.1320  211.9130  153.1910 C   0  0  0  0  0  2  0  0  0  0  0  0
  159.1340  211.1250  152.6210 O   0  0  0  0  0  1  0  0  0  0  0  0
  1  4  2  0  0  0  0
  1  2  1  0  0  0  0
  2 11  1  0  0  0  0
  3 13  1  0  0  0  0
  3  6  2  0  0  0  0
  4 16  1  0  0  0  0
  5 12  1  0  0  0  0
  6 18  1  0  0  0  0
  7  4  1  0  0  0  0
  8  7  1  0  0  0  0
  8  5  2  0  0  0  0
  9 15  2  0  0  0  0
 10  9  1  0  0  0  0
 11 17  2  0  0  0  0
 12 16  2  0  0  0  0
 13  1  1  0  0  0  0
 14 13  2  0  0  0  0
 14  7  1  0  0  0  0
 15 17  1  0  0  0  0
 17 19  1  0  0  0  0
 18  2  2  0  0  0  0
 18  9  1  0  0  0  0
 19 20  1  0  0  0  0
 20 21  1  0  0  0  0
 22 21  1  0  0  0  0
 23 22  1  0  0  0  0
 24 23  1  0  0  0  0
 25 24  1  0  0  0  0
M  END
>  <MODEL>
1

>  <REMARK>
 VINA RESULT:      -8.7      0.000      0.000
  Name = 
  6 active torsions:
  status: ('A' for Active; 'I' for Inactive)
    1  A    between atoms: C_2  and  N_12
    2  A    between atoms: S_6  and  C_15
    3  A    between atoms: S_6  and  C_23
    4  A    between atoms: N_12  and  C_25
    5  A    between atoms: C_15  and  C_21
    6  A    between atoms: C_21  and  C_25
                            x       y       z     vdW  Elec       q    Type
                         _______ _______ _______ _____ _____    ______ ____

>  <TORSDO>
F 6

$$$$
=
 OpenBabel11052422133D

 25 28  0  0  0  0  0  0  0  0999 V2000
  161.3340  205.1140  149.2270 C   0  0  0  0  0  0  0  0  0  0  0  0
  161.3740  206.1380  150.1750 C   0  0  0  0  0  0  0  0  0  0  0  0
  161.8390  206.6270  147.4050 C   0  0  0  0  0  3  0  0  0  0  0  0
  161.0990  203.7600  149.2940 C   0  0  0  0  0  0  0  0  0  0  0  0
  160.7170  201.0710  148.8220 C   0  0  0  0  0  3  0  0  0  0  0  0
  161.8870  207.6830  148.3340 C   0  0  0  0  0  3  0  0  0  0  0  0
  161.1890  203.2570  148.0450 N   0  0  0  0  0  0  0  0  0  0  0  0
  161.0100  201.9430  147.7630 C   0  0  0  0  0  3  0  0  0  0  0  0
  161.7060  208.5110  150.6350 C   0  0  0  0  0  0  0  0  0  0  0  0
  161.9780  209.8080  150.2160 O   0  0  0  0  0  1  0  0  0  0  0  0
  161.1470  205.9060  151.5350 C   0  0  0  0  0  3  0  0  0  0  0  0
  160.6200  201.5770  150.1320 C   0  0  0  0  0  3  0  0  0  0  0  0
  161.5600  205.3520  147.8870 C   0  0  0  0  0  0  0  0  0  0  0  0
  161.4700  204.2120  147.1680 N   0  0  0  0  0  0  0  0  0  0  0  0
  161.4760  208.2630  151.9920 C   0  0  0  0  0  3  0  0  0  0  0  0
  160.8120  202.9440  150.3870 C   0  0  0  0  0  3  0  0  0  0  0  0
  161.2020  206.9680  152.4420 C   0  0  0  0  0  0  0  0  0  0  0  0
  161.6570  207.4540  149.7120 C   0  0  0  0  0  0  0  0  0  0  0  0
  160.9050  206.6710  154.1780 S   0  0  0  0  0  0  0  0  0  0  0  0
  160.9280  208.4470  154.5690 C   0  0  0  0  0  2  0  0  0  0  0  0
  159.9840  208.7480  155.7210 C   0  0  0  0  0  2  0  0  0  0  0  0
  160.7550  209.0390  157.0010 C   0  0  0  0  0  2  0  0  0  0  0  0
  162.1780  208.8130  156.7990 N   0  0  0  0  0  2  0  0  0  0  0  0
  162.8710  210.0020  157.2610 C   0  0  0  0  0  2  0  0  0  0  0  0
  163.3130  210.7380  156.1620 O   0  0  0  0  0  1  0  0  0  0  0  0
  1  4  2  0  0  0  0
  1  2  1  0  0  0  0
  2 11  1  0  0  0  0
  3 13  1  0  0  0  0
  3  6  2  0  0  0  0
  4 16  1  0  0  0  0
  5 12  1  0  0  0  0
  6 18  1  0  0  0  0
  7  4  1  0  0  0  0
  8  7  1  0  0  0  0
  8  5  2  0  0  0  0
  9 15  2  0  0  0  0
 10  9  1  0  0  0  0
 11 17  2  0  0  0  0
 12 16  2  0  0  0  0
 13  1  1  0  0  0  0
 14 13  2  0  0  0  0
 14  7  1  0  0  0  0
 15 17  1  0  0  0  0
 17 19  1  0  0  0  0
 18  2  2  0  0  0  0
 18  9  1  0  0  0  0
 19 20  1  0  0  0  0
 20 21  1  0  0  0  0
 21 22  1  0  0  0  0
 23 22  1  0  0  0  0
 23 24  1  0  0  0  0
 25 24  1  0  0  0  0
M  END
>  <MODEL>
2

>  <REMARK>
 VINA RESULT:      -8.7      1.555      1.816
  Name = 
  6 active torsions:
  status: ('A' for Active; 'I' for Inactive)
    1  A    between atoms: C_2  and  N_12
    2  A    between atoms: S_6  and  C_15
    3  A    between atoms: S_6  and  C_23
    4  A    between atoms: N_12  and  C_25
    5  A    between atoms: C_15  and  C_21
    6  A    between atoms: C_21  and  C_25
                            x       y       z     vdW  Elec       q    Type
                         _______ _______ _______ _____ _____    ______ ____

>  <TORSDO>
F 6

$$$$
=
 OpenBabel11052422133D

 25 28  0  0  0  0  0  0  0  0999 V2000
  161.3260  204.6740  149.1120 C   0  0  0  0  0  0  0  0  0  0  0  0
  161.3920  205.5960  150.1590 C   0  0  0  0  0  0  0  0  0  0  0  0
  160.8700  202.8310  150.6140 C   0  0  0  0  0  3  0  0  0  0  0  0
  161.4660  204.7700  147.7460 C   0  0  0  0  0  0  0  0  0  0  0  0
  161.6370  204.3570  145.0260 C   0  0  0  0  0  3  0  0  0  0  0  0
  160.9290  203.7330  151.6920 C   0  0  0  0  0  3  0  0  0  0  0  0
  161.2980  203.5380  147.2220 N   0  0  0  0  0  0  0  0  0  0  0  0
  161.3720  203.2850  145.8920 C   0  0  0  0  0  3  0  0  0  0  0  0
  161.2480  206.0030  152.5590 C   0  0  0  0  0  0  0  0  0  0  0  0
  161.0540  205.5590  153.8630 O   0  0  0  0  0  1  0  0  0  0  0  0
  161.6490  206.9530  149.9430 C   0  0  0  0  0  3  0  0  0  0  0  0
  161.8160  205.6490  145.5550 C   0  0  0  0  0  3  0  0  0  0  0  0
  161.0730  203.3360  149.3330 C   0  0  0  0  0  0  0  0  0  0  0  0
  161.0560  202.6450  148.1730 N   0  0  0  0  0  0  0  0  0  0  0  0
  161.5050  207.3590  152.3280 C   0  0  0  0  0  3  0  0  0  0  0  0
  161.7310  205.8730  146.9380 C   0  0  0  0  0  3  0  0  0  0  0  0
  161.7010  207.8340  151.0270 C   0  0  0  0  0  0  0  0  0  0  0  0
  161.1880  205.1080  151.4800 C   0  0  0  0  0  0  0  0  0  0  0  0
  162.0350  209.5670  150.7520 S   0  0  0  0  0  0  0  0  0  0  0  0
  162.0680  209.9270  152.5340 C   0  0  0  0  0  2  0  0  0  0  0  0
  160.9440  210.8820  152.9020 C   0  0  0  0  0  2  0  0  0  0  0  0
  160.9140  211.1450  154.4010 C   0  0  0  0  0  2  0  0  0  0  0  0
  162.0860  210.5670  155.0400 N   0  0  0  0  0  2  0  0  0  0  0  0
  161.6140  209.7630  156.1530 C   0  0  0  0  0  2  0  0  0  0  0  0
  161.6080  208.4190  155.7850 O   0  0  0  0  0  1  0  0  0  0  0  0
  1 13  1  0  0  0  0
  1  2  1  0  0  0  0
  2 18  1  0  0  0  0
  3  6  2  0  0  0  0
  4  1  2  0  0  0  0
  5 12  1  0  0  0  0
  5  8  2  0  0  0  0
  7  4  1  0  0  0  0
  7 14  1  0  0  0  0
  8  7  1  0  0  0  0
  9 10  1  0  0  0  0
 11  2  2  0  0  0  0
 11 17  1  0  0  0  0
 12 16  2  0  0  0  0
 13  3  1  0  0  0  0
 14 13  2  0  0  0  0
 15  9  1  0  0  0  0
 16  4  1  0  0  0  0
 17 15  2  0  0  0  0
 18  6  1  0  0  0  0
 18  9  2  0  0  0  0
 19 17  1  0  0  0  0
 19 20  1  0  0  0  0
 20 21  1  0  0  0  0
 21 22  1  0  0  0  0
 22 23  1  0  0  0  0
 23 24  1  0  0  0  0
 25 24  1  0  0  0  0
M  END
>  <MODEL>
3

>  <REMARK>
 VINA RESULT:      -8.6      2.230      3.525
  Name = 
  6 active torsions:
  status: ('A' for Active; 'I' for Inactive)
    1  A    between atoms: C_2  and  N_12
    2  A    between atoms: S_6  and  C_15
    3  A    between atoms: S_6  and  C_23
    4  A    between atoms: N_12  and  C_25
    5  A    between atoms: C_15  and  C_21
    6  A    between atoms: C_21  and  C_25
                            x       y       z     vdW  Elec       q    Type
                         _______ _______ _______ _____ _____    ______ ____

>  <TORSDO>
F 6

$$$$
=
 OpenBabel11052422133D

 25 28  0  0  0  0  0  0  0  0999 V2000
  161.3410  204.7730  149.1230 C   0  0  0  0  0  0  0  0  0  0  0  0
  161.4010  205.7040  150.1630 C   0  0  0  0  0  0  0  0  0  0  0  0
  160.8730  202.9430  150.6380 C   0  0  0  0  0  3  0  0  0  0  0  0
  161.4900  204.8570  147.7580 C   0  0  0  0  0  0  0  0  0  0  0  0
  161.6810  204.4210  145.0430 C   0  0  0  0  0  3  0  0  0  0  0  0
  160.9260  203.8540  151.7090 C   0  0  0  0  0  3  0  0  0  0  0  0
  161.3260  203.6210  147.2430 N   0  0  0  0  0  0  0  0  0  0  0  0
  161.4090  203.3560  145.9160 C   0  0  0  0  0  3  0  0  0  0  0  0
  161.2390  206.1320  152.5590 C   0  0  0  0  0  0  0  0  0  0  0  0
  161.0370  205.6990  153.8640 O   0  0  0  0  0  1  0  0  0  0  0  0
  161.6590  207.0590  149.9380 C   0  0  0  0  0  3  0  0  0  0  0  0
  161.8560  205.7180  145.5620 C   0  0  0  0  0  3  0  0  0  0  0  0
  161.0860  203.4370  149.3540 C   0  0  0  0  0  0  0  0  0  0  0  0
  161.0770  202.7360  148.2000 N   0  0  0  0  0  0  0  0  0  0  0  0
  161.4980  207.4850  152.3180 C   0  0  0  0  0  3  0  0  0  0  0  0
  161.7620  205.9540  146.9420 C   0  0  0  0  0  3  0  0  0  0  0  0
  161.7040  207.9490  151.0140 C   0  0  0  0  0  0  0  0  0  0  0  0
  161.1870  205.2270  151.4860 C   0  0  0  0  0  0  0  0  0  0  0  0
  162.0410  209.6790  150.7260 S   0  0  0  0  0  0  0  0  0  0  0  0
  162.1150  209.4480  148.9240 C   0  0  0  0  0  2  0  0  0  0  0  0
  161.6880  210.7190  148.2090 C   0  0  0  0  0  2  0  0  0  0  0  0
  162.2060  211.9560  148.9300 C   0  0  0  0  0  2  0  0  0  0  0  0
  162.7930  212.8870  147.9800 N   0  0  0  0  0  2  0  0  0  0  0  0
  161.9670  212.8590  146.7860 C   0  0  0  0  0  2  0  0  0  0  0  0
  162.7130  213.3010  145.6940 O   0  0  0  0  0  1  0  0  0  0  0  0
  1 13  1  0  0  0  0
  1  2  1  0  0  0  0
  2 18  1  0  0  0  0
  3  6  2  0  0  0  0
  4  1  2  0  0  0  0
  5 12  1  0  0  0  0
  5  8  2  0  0  0  0
  7  4  1  0  0  0  0
  7 14  1  0  0  0  0
  8  7  1  0  0  0  0
  9 10  1  0  0  0  0
 11  2  2  0  0  0  0
 11 17  1  0  0  0  0
 12 16  2  0  0  0  0
 13  3  1  0  0  0  0
 14 13  2  0  0  0  0
 15  9  1  0  0  0  0
 16  4  1  0  0  0  0
 17 15  2  0  0  0  0
 18  6  1  0  0  0  0
 18  9  2  0  0  0  0
 19 17  1  0  0  0  0
 20 19  1  0  0  0  0
 21 20  1  0  0  0  0
 21 22  1  0  0  0  0
 23 22  1  0  0  0  0
 24 23  1  0  0  0  0
 25 24  1  0  0  0  0
M  END
>  <MODEL>
4

>  <REMARK>
 VINA RESULT:      -8.5      2.993      4.672
  Name = 
  6 active torsions:
  status: ('A' for Active; 'I' for Inactive)
    1  A    between atoms: C_2  and  N_12
    2  A    between atoms: S_6  and  C_15
    3  A    between atoms: S_6  and  C_23
    4  A    between atoms: N_12  and  C_25
    5  A    between atoms: C_15  and  C_21
    6  A    between atoms: C_21  and  C_25
                            x       y       z     vdW  Elec       q    Type
                         _______ _______ _______ _____ _____    ______ ____

>  <TORSDO>
F 6

$$$$
=
 OpenBabel11052422133D

 25 28  0  0  0  0  0  0  0  0999 V2000
  161.1500  206.6130  151.9840 C   0  0  0  0  0  0  0  0  0  0  0  0
  161.1480  205.8570  150.8110 C   0  0  0  0  0  0  0  0  0  0  0  0
  161.0350  204.6430  153.3870 C   0  0  0  0  0  3  0  0  0  0  0  0
  161.1980  207.9620  152.2510 C   0  0  0  0  0  0  0  0  0  0  0  0
  161.2750  210.4800  153.3680 C   0  0  0  0  0  3  0  0  0  0  0  0
  161.0310  203.8500  152.2240 C   0  0  0  0  0  3  0  0  0  0  0  0
  161.1720  208.1250  153.5900 N   0  0  0  0  0  0  0  0  0  0  0  0
  161.2080  209.3420  154.1860 C   0  0  0  0  0  3  0  0  0  0  0  0
  161.0820  203.6450  149.7820 C   0  0  0  0  0  0  0  0  0  0  0  0
  161.0220  202.2590  149.8720 O   0  0  0  0  0  1  0  0  0  0  0  0
  161.2030  206.4450  149.5430 C   0  0  0  0  0  3  0  0  0  0  0  0
  161.3020  210.3300  151.9690 C   0  0  0  0  0  3  0  0  0  0  0  0
  161.0950  206.0240  153.2310 C   0  0  0  0  0  0  0  0  0  0  0  0
  161.1100  206.9540  154.2100 N   0  0  0  0  0  0  0  0  0  0  0  0
  161.1380  204.2480  148.5210 C   0  0  0  0  0  3  0  0  0  0  0  0
  161.2640  209.0540  151.3870 C   0  0  0  0  0  3  0  0  0  0  0  0
  161.2010  205.6410  148.4010 C   0  0  0  0  0  0  0  0  0  0  0  0
  161.0870  204.4410  150.9390 C   0  0  0  0  0  0  0  0  0  0  0  0
  161.2650  206.3930  146.7820 S   0  0  0  0  0  0  0  0  0  0  0  0
  162.6920  205.3830  146.2790 C   0  0  0  0  0  2  0  0  0  0  0  0
  162.2680  204.3380  145.2600 C   0  0  0  0  0  2  0  0  0  0  0  0
  160.9390  204.7080  144.6150 C   0  0  0  0  0  2  0  0  0  0  0  0
  160.0840  203.5360  144.5110 N   0  0  0  0  0  2  0  0  0  0  0  0
  160.7240  202.4700  145.2610 C   0  0  0  0  0  2  0  0  0  0  0  0
  159.9260  201.3280  145.2170 O   0  0  0  0  0  1  0  0  0  0  0  0
  1  4  2  0  0  0  0
  1 13  1  0  0  0  0
  2 18  1  0  0  0  0
  2  1  1  0  0  0  0
  4  7  1  0  0  0  0
  5  8  2  0  0  0  0
  6  3  2  0  0  0  0
  7  8  1  0  0  0  0
  7 14  1  0  0  0  0
  9 10  1  0  0  0  0
  9 18  2  0  0  0  0
 11  2  2  0  0  0  0
 12  5  1  0  0  0  0
 13  3  1  0  0  0  0
 13 14  2  0  0  0  0
 15  9  1  0  0  0  0
 16 12  2  0  0  0  0
 16  4  1  0  0  0  0
 17 15  2  0  0  0  0
 17 11  1  0  0  0  0
 18  6  1  0  0  0  0
 19 17  1  0  0  0  0
 20 19  1  0  0  0  0
 21 20  1  0  0  0  0
 22 21  1  0  0  0  0
 23 22  1  0  0  0  0
 23 24  1  0  0  0  0
 25 24  1  0  0  0  0
M  END
>  <MODEL>
5

>  <REMARK>
 VINA RESULT:      -8.3      3.618      7.949
  Name = 
  6 active torsions:
  status: ('A' for Active; 'I' for Inactive)
    1  A    between atoms: C_2  and  N_12
    2  A    between atoms: S_6  and  C_15
    3  A    between atoms: S_6  and  C_23
    4  A    between atoms: N_12  and  C_25
    5  A    between atoms: C_15  and  C_21
    6  A    between atoms: C_21  and  C_25
                            x       y       z     vdW  Elec       q    Type
                         _______ _______ _______ _____ _____    ______ ____

>  <TORSDO>
F 6

$$$$
=
 OpenBabel11052422133D

 25 28  0  0  0  0  0  0  0  0999 V2000
  161.3410  207.6570  151.5610 C   0  0  0  0  0  0  0  0  0  0  0  0
  161.3270  206.6090  150.6380 C   0  0  0  0  0  0  0  0  0  0  0  0
  161.8940  209.2930  149.8640 C   0  0  0  0  0  3  0  0  0  0  0  0
  161.1250  207.7370  152.9170 C   0  0  0  0  0  0  0  0  0  0  0  0
  160.8010  208.4950  155.5480 C   0  0  0  0  0  3  0  0  0  0  0  0
  161.8880  208.2610  148.9070 C   0  0  0  0  0  3  0  0  0  0  0  0
  161.2700  209.0260  153.2890 N   0  0  0  0  0  0  0  0  0  0  0  0
  161.1210  209.4470  154.5680 C   0  0  0  0  0  3  0  0  0  0  0  0
  161.6040  205.8980  148.3210 C   0  0  0  0  0  0  0  0  0  0  0  0
  161.8760  206.1710  146.9850 O   0  0  0  0  0  1  0  0  0  0  0  0
  161.0510  205.2900  151.0100 C   0  0  0  0  0  3  0  0  0  0  0  0
  160.6460  207.1450  155.1790 C   0  0  0  0  0  3  0  0  0  0  0  0
  161.6150  208.9560  151.1840 C   0  0  0  0  0  0  0  0  0  0  0  0
  161.5700  209.7900  152.2460 N   0  0  0  0  0  0  0  0  0  0  0  0
  161.3260  204.5830  148.7080 C   0  0  0  0  0  3  0  0  0  0  0  0
  160.8070  206.7460  153.8440 C   0  0  0  0  0  3  0  0  0  0  0  0
  161.0470  204.2800  150.0450 C   0  0  0  0  0  0  0  0  0  0  0  0
  161.6080  206.9240  149.2790 C   0  0  0  0  0  0  0  0  0  0  0  0
  160.7000  202.5940  150.5230 S   0  0  0  0  0  0  0  0  0  0  0  0
  160.3140  202.1030  148.8140 C   0  0  0  0  0  2  0  0  0  0  0  0
  161.1750  200.9230  148.3960 C   0  0  0  0  0  2  0  0  0  0  0  0
  161.1160  200.7060  146.8900 C   0  0  0  0  0  2  0  0  0  0  0  0
  160.9980  201.9810  146.1990 N   0  0  0  0  0  2  0  0  0  0  0  0
  160.0290  201.8020  145.1330 C   0  0  0  0  0  2  0  0  0  0  0  0
  160.0740  200.4840  144.6810 O   0  0  0  0  0  1  0  0  0  0  0  0
  1  4  2  0  0  0  0
  2 11  1  0  0  0  0
  2  1  1  0  0  0  0
  3 13  1  0  0  0  0
  4  7  1  0  0  0  0
  4 16  1  0  0  0  0
  6 18  1  0  0  0  0
  6  3  2  0  0  0  0
  7  8  1  0  0  0  0
  8  5  2  0  0  0  0
  9 15  2  0  0  0  0
  9 18  1  0  0  0  0
 10  9  1  0  0  0  0
 12  5  1  0  0  0  0
 13  1  1  0  0  0  0
 13 14  2  0  0  0  0
 14  7  1  0  0  0  0
 15 17  1  0  0  0  0
 16 12  2  0  0  0  0
 17 19  1  0  0  0  0
 17 11  2  0  0  0  0
 18  2  2  0  0  0  0
 20 19  1  0  0  0  0
 21 20  1  0  0  0  0
 22 21  1  0  0  0  0
 23 22  1  0  0  0  0
 24 23  1  0  0  0  0
 25 24  1  0  0  0  0
M  END
>  <MODEL>
6

>  <REMARK>
 VINA RESULT:      -8.3      3.079      7.555
  Name = 
  6 active torsions:
  status: ('A' for Active; 'I' for Inactive)
    1  A    between atoms: C_2  and  N_12
    2  A    between atoms: S_6  and  C_15
    3  A    between atoms: S_6  and  C_23
    4  A    between atoms: N_12  and  C_25
    5  A    between atoms: C_15  and  C_21
    6  A    between atoms: C_21  and  C_25
                            x       y       z     vdW  Elec       q    Type
                         _______ _______ _______ _____ _____    ______ ____

>  <TORSDO>
F 6

$$$$
=
 OpenBabel11052422133D

 25 28  0  0  0  0  0  0  0  0999 V2000
  161.2390  204.4610  148.9500 C   0  0  0  0  0  0  0  0  0  0  0  0
  161.3280  205.3370  150.0330 C   0  0  0  0  0  0  0  0  0  0  0  0
  160.8390  202.5510  150.3840 C   0  0  0  0  0  3  0  0  0  0  0  0
  161.3400  204.6150  147.5860 C   0  0  0  0  0  0  0  0  0  0  0  0
  161.4390  204.3200  144.8480 C   0  0  0  0  0  3  0  0  0  0  0  0
  160.9220  203.4060  151.4980 C   0  0  0  0  0  3  0  0  0  0  0  0
  161.1670  203.4050  147.0140 N   0  0  0  0  0  0  0  0  0  0  0  0
  161.2060  203.2100  145.6730 C   0  0  0  0  0  3  0  0  0  0  0  0
  161.2470  205.6410  152.4520 C   0  0  0  0  0  0  0  0  0  0  0  0
  161.0940  205.1400  153.7400 O   0  0  0  0  0  1  0  0  0  0  0  0
  161.5680  206.7050  149.8690 C   0  0  0  0  0  3  0  0  0  0  0  0
  161.6230  205.5900  145.4260 C   0  0  0  0  0  3  0  0  0  0  0  0
  161.0020  203.1120  149.1210 C   0  0  0  0  0  0  0  0  0  0  0  0
  160.9580  202.4710  147.9330 N   0  0  0  0  0  0  0  0  0  0  0  0
  161.4880  207.0070  152.2730 C   0  0  0  0  0  3  0  0  0  0  0  0
  161.5740  205.7540  146.8190 C   0  0  0  0  0  3  0  0  0  0  0  0
  161.6440  207.5380  150.9880 C   0  0  0  0  0  0  0  0  0  0  0  0
  161.1640  204.7920  151.3370 C   0  0  0  0  0  0  0  0  0  0  0  0
  161.9570  209.2840  150.7780 S   0  0  0  0  0  0  0  0  0  0  0  0
  161.7040  209.6260  152.5460 C   0  0  0  0  0  2  0  0  0  0  0  0
  160.5630  210.6110  152.7370 C   0  0  0  0  0  2  0  0  0  0  0  0
  160.2610  210.8240  154.2140 C   0  0  0  0  0  2  0  0  0  0  0  0
  159.6760  212.1380  154.4270 N   0  0  0  0  0  2  0  0  0  0  0  0
  158.5800  212.2770  153.4850 C   0  0  0  0  0  2  0  0  0  0  0  0
  157.3980  211.8380  154.0800 O   0  0  0  0  0  1  0  0  0  0  0  0
  1 13  1  0  0  0  0
  1  2  1  0  0  0  0
  2 18  1  0  0  0  0
  3  6  2  0  0  0  0
  4  1  2  0  0  0  0
  5 12  1  0  0  0  0
  5  8  2  0  0  0  0
  7  4  1  0  0  0  0
  7 14  1  0  0  0  0
  8  7  1  0  0  0  0
  9 10  1  0  0  0  0
 11  2  2  0  0  0  0
 11 17  1  0  0  0  0
 12 16  2  0  0  0  0
 13  3  1  0  0  0  0
 14 13  2  0  0  0  0
 15  9  1  0  0  0  0
 16  4  1  0  0  0  0
 17 15  2  0  0  0  0
 18  6  1  0  0  0  0
 18  9  2  0  0  0  0
 19 17  1  0  0  0  0
 19 20  1  0  0  0  0
 20 21  1  0  0  0  0
 21 22  1  0  0  0  0
 22 23  1  0  0  0  0
 24 25  1  0  0  0  0
 24 23  1  0  0  0  0
M  END
>  <MODEL>
7

>  <REMARK>
 VINA RESULT:      -8.2      2.088      3.395
  Name = 
  6 active torsions:
  status: ('A' for Active; 'I' for Inactive)
    1  A    between atoms: C_2  and  N_12
    2  A    between atoms: S_6  and  C_15
    3  A    between atoms: S_6  and  C_23
    4  A    between atoms: N_12  and  C_25
    5  A    between atoms: C_15  and  C_21
    6  A    between atoms: C_21  and  C_25
                            x       y       z     vdW  Elec       q    Type
                         _______ _______ _______ _____ _____    ______ ____

>  <TORSDO>
F 6

$$$$
=
 OpenBabel11052422133D

 25 28  0  0  0  0  0  0  0  0999 V2000
  161.3250  204.7900  148.5830 C   0  0  0  0  0  0  0  0  0  0  0  0
  161.3860  205.7180  149.6240 C   0  0  0  0  0  0  0  0  0  0  0  0
  161.6260  206.4980  146.8930 C   0  0  0  0  0  3  0  0  0  0  0  0
  161.1590  203.4250  148.5290 C   0  0  0  0  0  0  0  0  0  0  0  0
  160.8690  200.7790  147.8160 C   0  0  0  0  0  3  0  0  0  0  0  0
  161.6920  207.4600  147.9180 C   0  0  0  0  0  3  0  0  0  0  0  0
  161.1810  203.0520  147.2330 N   0  0  0  0  0  0  0  0  0  0  0  0
  161.0430  201.7640  146.8330 C   0  0  0  0  0  3  0  0  0  0  0  0
  161.6390  208.0500  150.2960 C   0  0  0  0  0  0  0  0  0  0  0  0
  161.8210  209.3940  149.9930 O   0  0  0  0  0  1  0  0  0  0  0  0
  161.2690  205.3440  150.9660 C   0  0  0  0  0  3  0  0  0  0  0  0
  160.8430  201.1490  149.1740 C   0  0  0  0  0  3  0  0  0  0  0  0
  161.4420  205.1690  147.2610 C   0  0  0  0  0  0  0  0  0  0  0  0
  161.3530  204.1010  146.4390 N   0  0  0  0  0  0  0  0  0  0  0  0
  161.5210  207.6600  151.6340 C   0  0  0  0  0  3  0  0  0  0  0  0
  160.9900  202.4930  149.5510 C   0  0  0  0  0  3  0  0  0  0  0  0
  161.3400  206.3140  151.9690 C   0  0  0  0  0  0  0  0  0  0  0  0
  161.5740  207.0860  149.2780 C   0  0  0  0  0  0  0  0  0  0  0  0
  161.1840  205.8340  153.6830 S   0  0  0  0  0  0  0  0  0  0  0  0
  161.0150  207.5600  154.2350 C   0  0  0  0  0  2  0  0  0  0  0  0
  160.2870  207.6210  155.5670 C   0  0  0  0  0  2  0  0  0  0  0  0
  159.8780  209.0470  155.9050 C   0  0  0  0  0  2  0  0  0  0  0  0
  160.0980  209.9220  154.7640 N   0  0  0  0  0  2  0  0  0  0  0  0
  159.3040  211.1180  154.9810 C   0  0  0  0  0  2  0  0  0  0  0  0
  158.0870  210.7670  155.5640 O   0  0  0  0  0  1  0  0  0  0  0  0
  1  2  1  0  0  0  0
  2 11  1  0  0  0  0
  3 13  1  0  0  0  0
  3  6  2  0  0  0  0
  4  1  2  0  0  0  0
  4 16  1  0  0  0  0
  5 12  1  0  0  0  0
  6 18  1  0  0  0  0
  7  4  1  0  0  0  0
  8  7  1  0  0  0  0
  8  5  2  0  0  0  0
  9 15  2  0  0  0  0
 10  9  1  0  0  0  0
 11 17  2  0  0  0  0
 12 16  2  0  0  0  0
 13  1  1  0  0  0  0
 14  7  1  0  0  0  0
 14 13  2  0  0  0  0
 15 17  1  0  0  0  0
 17 19  1  0  0  0  0
 18  2  2  0  0  0  0
 18  9  1  0  0  0  0
 19 20  1  0  0  0  0
 20 21  1  0  0  0  0
 21 22  1  0  0  0  0
 23 24  1  0  0  0  0
 23 22  1  0  0  0  0
 24 25  1  0  0  0  0
M  END
>  <MODEL>
8

>  <REMARK>
 VINA RESULT:      -8.1      1.199      1.369
  Name = 
  6 active torsions:
  status: ('A' for Active; 'I' for Inactive)
    1  A    between atoms: C_2  and  N_12
    2  A    between atoms: S_6  and  C_15
    3  A    between atoms: S_6  and  C_23
    4  A    between atoms: N_12  and  C_25
    5  A    between atoms: C_15  and  C_21
    6  A    between atoms: C_21  and  C_25
                            x       y       z     vdW  Elec       q    Type
                         _______ _______ _______ _____ _____    ______ ____

>  <TORSDO>
F 6

$$$$
=
 OpenBabel11052422133D

 25 28  0  0  0  0  0  0  0  0999 V2000
  161.1270  204.6080  151.1660 C   0  0  0  0  0  0  0  0  0  0  0  0
  161.3050  205.9910  151.0870 C   0  0  0  0  0  0  0  0  0  0  0  0
  160.9520  204.6560  153.5810 C   0  0  0  0  0  3  0  0  0  0  0  0
  161.0710  203.5980  150.2330 C   0  0  0  0  0  0  0  0  0  0  0  0
  160.8760  201.2180  148.8570 C   0  0  0  0  0  3  0  0  0  0  0  0
  161.1290  206.0510  153.5370 C   0  0  0  0  0  3  0  0  0  0  0  0
  160.8760  202.4340  150.8880 N   0  0  0  0  0  0  0  0  0  0  0  0
  160.7740  201.2400  150.2560 C   0  0  0  0  0  3  0  0  0  0  0  0
  161.4820  208.1180  152.2680 C   0  0  0  0  0  0  0  0  0  0  0  0
  161.4890  208.8660  153.4390 O   0  0  0  0  0  1  0  0  0  0  0  0
  161.4790  206.6530  149.8680 C   0  0  0  0  0  3  0  0  0  0  0  0
  161.0800  202.4220  148.1560 C   0  0  0  0  0  3  0  0  0  0  0  0
  160.9560  203.9630  152.3740 C   0  0  0  0  0  0  0  0  0  0  0  0
  160.8030  202.6330  152.1980 N   0  0  0  0  0  0  0  0  0  0  0  0
  161.6550  208.7660  151.0400 C   0  0  0  0  0  3  0  0  0  0  0  0
  161.1800  203.6410  148.8450 C   0  0  0  0  0  3  0  0  0  0  0  0
  161.6500  208.0390  149.8450 C   0  0  0  0  0  0  0  0  0  0  0  0
  161.3050  206.7260  152.3050 C   0  0  0  0  0  0  0  0  0  0  0  0
  161.8790  208.8830  148.2870 S   0  0  0  0  0  0  0  0  0  0  0  0
  162.0760  207.3200  147.3770 C   0  0  0  0  0  2  0  0  0  0  0  0
  160.7240  206.8000  146.9200 C   0  0  0  0  0  2  0  0  0  0  0  0
  160.8430  206.0420  145.6050 C   0  0  0  0  0  2  0  0  0  0  0  0
  162.2140  205.6050  145.3940 N   0  0  0  0  0  2  0  0  0  0  0  0
  162.1780  204.1690  145.1790 C   0  0  0  0  0  2  0  0  0  0  0  0
  160.8700  203.7740  144.9040 O   0  0  0  0  0  1  0  0  0  0  0  0
  1 13  1  0  0  0  0
  2  1  1  0  0  0  0
  2 18  1  0  0  0  0
  4  7  1  0  0  0  0
  4  1  2  0  0  0  0
  5  8  2  0  0  0  0
  6  3  2  0  0  0  0
  7 14  1  0  0  0  0
  8  7  1  0  0  0  0
  9 18  2  0  0  0  0
  9 10  1  0  0  0  0
 11  2  2  0  0  0  0
 12 16  2  0  0  0  0
 12  5  1  0  0  0  0
 13  3  1  0  0  0  0
 14 13  2  0  0  0  0
 15  9  1  0  0  0  0
 16  4  1  0  0  0  0
 17 11  1  0  0  0  0
 17 15  2  0  0  0  0
 18  6  1  0  0  0  0
 19 17  1  0  0  0  0
 20 19  1  0  0  0  0
 21 20  1  0  0  0  0
 22 21  1  0  0  0  0
 23 22  1  0  0  0  0
 24 23  1  0  0  0  0
 25 24  1  0  0  0  0
M  END
>  <MODEL>
9

>  <REMARK>
 VINA RESULT:      -8.0      2.990      5.776
  Name = 
  6 active torsions:
  status: ('A' for Active; 'I' for Inactive)
    1  A    between atoms: C_2  and  N_12
    2  A    between atoms: S_6  and  C_15
    3  A    between atoms: S_6  and  C_23
    4  A    between atoms: N_12  and  C_25
    5  A    between atoms: C_15  and  C_21
    6  A    between atoms: C_21  and  C_25
                            x       y       z     vdW  Elec       q    Type
                         _______ _______ _______ _____ _____    ______ ____

>  <TORSDO>
F 6

$$$$
