=
 OpenBabel11052423153D

 27 29  0  0  1  0  0  0  0  0999 V2000
  161.5370  205.7110  148.7060 N   0  0  0  0  0  0  0  0  0  0  0  0
  161.3990  205.6320  144.4070 C   0  0  0  0  0  2  0  0  0  0  0  0
  161.3560  205.4320  147.2690 C   0  0  1  0  0  3  0  0  0  0  0  0
  160.7310  206.5650  146.6050 N   0  0  0  0  0  2  0  0  0  0  0  0
  160.2430  206.1140  145.2970 C   0  0  0  0  0  2  0  0  0  0  0  0
  162.2790  204.6040  145.1430 C   0  0  0  0  0  2  0  0  0  0  0  0
  162.6570  205.1030  146.5280 C   0  0  0  0  0  2  0  0  0  0  0  0
  160.5570  204.9550  149.5250 C   0  0  0  0  0  2  0  0  0  0  0  0
  161.1290  201.3720  150.7130 C   0  0  0  0  0  3  0  0  0  0  0  0
  161.1650  200.6830  149.4960 C   0  0  0  0  0  3  0  0  0  0  0  0
  160.7720  203.4610  149.5320 C   0  0  0  0  0  0  0  0  0  0  0  0
  160.9050  203.4460  152.0620 C   0  0  0  0  0  1  0  0  0  0  0  0
  161.0130  201.3830  148.2930 C   0  0  0  0  0  3  0  0  0  0  0  0
  160.8220  202.7670  148.3170 C   0  0  0  0  0  3  0  0  0  0  0  0
  160.9390  202.7550  150.7370 C   0  0  0  0  0  0  0  0  0  0  0  0
  161.3100  207.0900  148.8970 N   0  0  0  0  0  2  0  0  0  0  0  0
  162.3810  207.6140  149.7310 C   0  0  0  0  0  2  0  0  0  0  0  0
  160.9240  207.3490  153.2100 C   0  0  0  0  0  3  0  0  0  0  0  0
  160.5140  208.9770  154.9260 O   0  0  0  0  0  1  0  0  0  0  0  0
  161.3910  209.6890  152.7750 C   0  0  0  0  0  0  0  0  0  0  0  0
  161.4160  211.0020  153.2390 O   0  0  0  0  0  1  0  0  0  0  0  0
  161.8550  209.3570  151.4770 C   0  0  0  0  0  0  0  0  0  0  0  0
  160.9230  208.6760  153.6300 C   0  0  0  0  0  0  0  0  0  0  0  0
  161.8180  208.0150  151.0620 C   0  0  0  0  0  0  0  0  0  0  0  0
  161.3760  207.0190  151.9360 C   0  0  0  0  0  3  0  0  0  0  0  0
  161.6370  211.1750  149.7590 C   0  0  0  0  0  1  0  0  0  0  0  0
  162.3950  210.3020  150.5830 O   0  0  0  0  0  0  0  0  0  0  0  0
  1 16  1  0  0  0  0
  1  8  1  0  0  0  0
  2  6  1  0  0  0  0
  2  5  1  0  0  0  0
  3  1  1  1  0  0  0
  4  3  1  0  0  0  0
  5  4  1  0  0  0  0
  6  7  1  0  0  0  0
  7  3  1  0  0  0  0
  8 11  1  0  0  0  0
  9 15  1  0  0  0  0
 10  9  2  0  0  0  0
 11 15  2  0  0  0  0
 13 14  2  0  0  0  0
 13 10  1  0  0  0  0
 14 11  1  0  0  0  0
 15 12  1  0  0  0  0
 16 17  1  0  0  0  0
 17 24  1  0  0  0  0
 18 23  1  0  0  0  0
 20 21  1  0  0  0  0
 20 23  2  0  0  0  0
 22 20  1  0  0  0  0
 23 19  1  0  0  0  0
 24 22  2  0  0  0  0
 24 25  1  0  0  0  0
 25 18  2  0  0  0  0
 26 27  1  0  0  0  0
 27 22  1  0  0  0  0
M  END
>  <MODEL>
1

>  <REMARK>
 VINA RESULT:      -8.9      0.000      0.000
  Name = 
  7 active torsions:
  status: ('A' for Active; 'I' for Inactive)
    1  A    between atoms: C_1  and  N_15
    2  A    between atoms: C_1  and  C_18
    3  A    between atoms: N_2  and  C_6
    4  A    between atoms: N_2  and  N_15
    5  A    between atoms: C_6  and  C_17
    6  A    between atoms: C_9  and  N_15
    7  A    between atoms: C_14  and  O_19
                            x       y       z     vdW  Elec       q    Type
                         _______ _______ _______ _____ _____    ______ ____

>  <TORSDO>
F 7

$$$$
=
 OpenBabel11052423153D

 27 29  0  0  1  0  0  0  0  0999 V2000
  161.9130  206.0350  148.8120 N   0  0  0  0  0  0  0  0  0  0  0  0
  161.3640  205.3750  144.5960 C   0  0  0  0  0  2  0  0  0  0  0  0
  161.8030  206.0850  147.3420 C   0  0  1  0  0  3  0  0  0  0  0  0
  162.5550  204.9950  146.7380 N   0  0  0  0  0  2  0  0  0  0  0  0
  162.7230  205.2940  145.3110 C   0  0  0  0  0  2  0  0  0  0  0  0
  160.4020  206.3250  145.3330 C   0  0  0  0  0  2  0  0  0  0  0  0
  160.3630  206.0160  146.8210 C   0  0  0  0  0  2  0  0  0  0  0  0
  160.7180  205.3930  149.4150 C   0  0  0  0  0  2  0  0  0  0  0  0
  161.1730  202.0180  151.1400 C   0  0  0  0  0  3  0  0  0  0  0  0
  161.1180  201.1430  150.0490 C   0  0  0  0  0  3  0  0  0  0  0  0
  160.8600  203.9090  149.6540 C   0  0  0  0  0  0  0  0  0  0  0  0
  161.1140  204.2890  152.1450 C   0  0  0  0  0  1  0  0  0  0  0  0
  160.9420  201.6510  148.7570 C   0  0  0  0  0  3  0  0  0  0  0  0
  160.8190  203.0300  148.5650 C   0  0  0  0  0  3  0  0  0  0  0  0
  161.0510  203.3950  150.9490 C   0  0  0  0  0  0  0  0  0  0  0  0
  161.9860  207.3660  149.2720 N   0  0  0  0  0  2  0  0  0  0  0  0
  162.1990  207.3360  150.7110 C   0  0  0  0  0  2  0  0  0  0  0  0
  161.4790  211.0290  151.0700 C   0  0  0  0  0  3  0  0  0  0  0  0
  160.2480  212.2920  152.7010 O   0  0  0  0  0  1  0  0  0  0  0  0
  160.5120  209.8930  152.9830 C   0  0  0  0  0  0  0  0  0  0  0  0
  159.7590  209.9660  154.1520 O   0  0  0  0  0  1  0  0  0  0  0  0
  160.9980  208.6540  152.4950 C   0  0  0  0  0  0  0  0  0  0  0  0
  160.7640  211.0740  152.2640 C   0  0  0  0  0  0  0  0  0  0  0  0
  161.7450  208.6350  151.3040 C   0  0  0  0  0  0  0  0  0  0  0  0
  161.9590  209.8150  150.5890 C   0  0  0  0  0  3  0  0  0  0  0  0
  161.0780  207.0960  154.4620 C   0  0  0  0  0  1  0  0  0  0  0  0
  160.7380  207.4200  153.1220 O   0  0  0  0  0  0  0  0  0  0  0  0
  1 16  1  0  0  0  0
  1  8  1  0  0  0  0
  2  5  1  0  0  0  0
  2  6  1  0  0  0  0
  3  1  1  1  0  0  0
  4  3  1  0  0  0  0
  5  4  1  0  0  0  0
  6  7  1  0  0  0  0
  7  3  1  0  0  0  0
  8 11  1  0  0  0  0
 10  9  2  0  0  0  0
 11 15  2  0  0  0  0
 13 10  1  0  0  0  0
 14 13  2  0  0  0  0
 14 11  1  0  0  0  0
 15  9  1  0  0  0  0
 15 12  1  0  0  0  0
 16 17  1  0  0  0  0
 17 24  1  0  0  0  0
 18 23  1  0  0  0  0
 20 21  1  0  0  0  0
 22 20  1  0  0  0  0
 22 27  1  0  0  0  0
 23 19  1  0  0  0  0
 23 20  2  0  0  0  0
 24 22  2  0  0  0  0
 25 18  2  0  0  0  0
 25 24  1  0  0  0  0
 27 26  1  0  0  0  0
M  END
>  <MODEL>
2

>  <REMARK>
 VINA RESULT:      -8.6      1.237      2.343
  Name = 
  7 active torsions:
  status: ('A' for Active; 'I' for Inactive)
    1  A    between atoms: C_1  and  N_15
    2  A    between atoms: C_1  and  C_18
    3  A    between atoms: N_2  and  C_6
    4  A    between atoms: N_2  and  N_15
    5  A    between atoms: C_6  and  C_17
    6  A    between atoms: C_9  and  N_15
    7  A    between atoms: C_14  and  O_19
                            x       y       z     vdW  Elec       q    Type
                         _______ _______ _______ _____ _____    ______ ____

>  <TORSDO>
F 7

$$$$
=
 OpenBabel11052423153D

 27 29  0  0  1  0  0  0  0  0999 V2000
  161.6030  205.9610  148.7380 N   0  0  0  0  0  0  0  0  0  0  0  0
  161.5610  205.3420  144.4810 C   0  0  0  0  0  2  0  0  0  0  0  0
  161.6670  206.0260  147.2660 C   0  0  1  0  0  3  0  0  0  0  0  0
  162.4950  204.9500  146.7440 N   0  0  0  0  0  2  0  0  0  0  0  0
  162.8260  205.2640  145.3500 C   0  0  0  0  0  2  0  0  0  0  0  0
  160.5090  206.2760  145.1080 C   0  0  0  0  0  2  0  0  0  0  0  0
  160.2990  205.9520  146.5780 C   0  0  0  0  0  2  0  0  0  0  0  0
  160.4170  205.1890  149.1870 C   0  0  0  0  0  2  0  0  0  0  0  0
  161.1430  201.5670  150.1510 C   0  0  0  0  0  3  0  0  0  0  0  0
  161.3630  201.6890  151.5270 C   0  0  0  0  0  3  0  0  0  0  0  0
  160.7460  203.9550  149.9910 C   0  0  0  0  0  0  0  0  0  0  0  0
  160.6060  202.5090  147.9160 C   0  0  0  0  0  1  0  0  0  0  0  0
  161.2670  202.9430  152.1400 C   0  0  0  0  0  3  0  0  0  0  0  0
  160.9550  204.0680  151.3710 C   0  0  0  0  0  3  0  0  0  0  0  0
  160.8300  202.6900  149.3830 C   0  0  0  0  0  0  0  0  0  0  0  0
  161.4800  207.2840  149.2110 N   0  0  0  0  0  2  0  0  0  0  0  0
  162.5280  207.5130  150.1930 C   0  0  0  0  0  2  0  0  0  0  0  0
  160.9300  207.3610  153.6160 C   0  0  0  0  0  3  0  0  0  0  0  0
  160.4330  209.0480  155.2520 O   0  0  0  0  0  1  0  0  0  0  0  0
  161.3930  209.6880  153.1130 C   0  0  0  0  0  0  0  0  0  0  0  0
  161.3860  211.0180  153.5280 O   0  0  0  0  0  1  0  0  0  0  0  0
  161.9130  209.3140  151.8500 C   0  0  0  0  0  0  0  0  0  0  0  0
  160.8990  208.7030  153.9850 C   0  0  0  0  0  0  0  0  0  0  0  0
  161.9060  207.9570  151.4830 C   0  0  0  0  0  0  0  0  0  0  0  0
  161.4380  206.9890  152.3750 C   0  0  0  0  0  3  0  0  0  0  0  0
  161.7590  210.9880  149.9840 C   0  0  0  0  0  1  0  0  0  0  0  0
  162.4820  210.2310  150.9440 O   0  0  0  0  0  0  0  0  0  0  0  0
  1  8  1  0  0  0  0
  1 16  1  0  0  0  0
  2  6  1  0  0  0  0
  2  5  1  0  0  0  0
  3  1  1  1  0  0  0
  4  3  1  0  0  0  0
  5  4  1  0  0  0  0
  6  7  1  0  0  0  0
  7  3  1  0  0  0  0
  8 11  1  0  0  0  0
  9 10  1  0  0  0  0
 10 13  2  0  0  0  0
 11 14  2  0  0  0  0
 12 15  1  0  0  0  0
 14 13  1  0  0  0  0
 15 11  1  0  0  0  0
 15  9  2  0  0  0  0
 16 17  1  0  0  0  0
 17 24  1  0  0  0  0
 18 23  1  0  0  0  0
 20 21  1  0  0  0  0
 20 23  2  0  0  0  0
 22 20  1  0  0  0  0
 23 19  1  0  0  0  0
 24 22  2  0  0  0  0
 24 25  1  0  0  0  0
 25 18  2  0  0  0  0
 26 27  1  0  0  0  0
 27 22  1  0  0  0  0
M  END
>  <MODEL>
3

>  <REMARK>
 VINA RESULT:      -8.5      0.787      1.746
  Name = 
  7 active torsions:
  status: ('A' for Active; 'I' for Inactive)
    1  A    between atoms: C_1  and  N_15
    2  A    between atoms: C_1  and  C_18
    3  A    between atoms: N_2  and  C_6
    4  A    between atoms: N_2  and  N_15
    5  A    between atoms: C_6  and  C_17
    6  A    between atoms: C_9  and  N_15
    7  A    between atoms: C_14  and  O_19
                            x       y       z     vdW  Elec       q    Type
                         _______ _______ _______ _____ _____    ______ ____

>  <TORSDO>
F 7

$$$$
=
 OpenBabel11052423153D

 27 29  0  0  1  0  0  0  0  0999 V2000
  160.9740  205.0630  149.4100 N   0  0  0  0  0  0  0  0  0  0  0  0
  160.8110  200.7660  149.5350 C   0  0  0  0  0  2  0  0  0  0  0  0
  161.2020  203.6060  149.4030 C   0  0  1  0  0  3  0  0  0  0  0  0
  160.6470  202.9980  150.6030 N   0  0  0  0  0  2  0  0  0  0  0  0
  161.2070  201.6490  150.7300 C   0  0  0  0  0  2  0  0  0  0  0  0
  161.1310  201.4610  148.1990 C   0  0  0  0  0  2  0  0  0  0  0  0
  160.6070  202.8880  148.1860 C   0  0  0  0  0  2  0  0  0  0  0  0
  161.9490  205.7600  148.5330 C   0  0  0  0  0  2  0  0  0  0  0  0
  162.1740  205.0590  144.7870 C   0  0  0  0  0  3  0  0  0  0  0  0
  160.9640  205.5980  144.3350 C   0  0  0  0  0  3  0  0  0  0  0  0
  161.6200  205.6960  147.0610 C   0  0  0  0  0  0  0  0  0  0  0  0
  163.8100  204.5190  146.5760 C   0  0  0  0  0  1  0  0  0  0  0  0
  160.0840  206.1950  145.2440 C   0  0  0  0  0  3  0  0  0  0  0  0
  160.4170  206.2450  146.6010 C   0  0  0  0  0  3  0  0  0  0  0  0
  162.5080  205.1100  146.1410 C   0  0  0  0  0  0  0  0  0  0  0  0
  161.1640  205.5110  150.7340 N   0  0  0  0  0  2  0  0  0  0  0  0
  161.1210  206.9650  150.7300 C   0  0  0  0  0  2  0  0  0  0  0  0
  161.0550  206.9620  154.5100 C   0  0  0  0  0  3  0  0  0  0  0  0
  161.0470  208.7310  156.1350 O   0  0  0  0  0  1  0  0  0  0  0  0
  160.9840  209.2700  153.7660 C   0  0  0  0  0  0  0  0  0  0  0  0
  160.9770  210.6240  154.0930 O   0  0  0  0  0  1  0  0  0  0  0  0
  160.9990  208.8380  152.4170 C   0  0  0  0  0  0  0  0  0  0  0  0
  161.0070  208.3220  154.8040 C   0  0  0  0  0  0  0  0  0  0  0  0
  161.0160  207.4590  152.1420 C   0  0  0  0  0  0  0  0  0  0  0  0
  161.0680  206.5330  153.1860 C   0  0  0  0  0  3  0  0  0  0  0  0
  162.2100  210.3460  150.8150 C   0  0  0  0  0  1  0  0  0  0  0  0
  161.0390  209.7220  151.3210 O   0  0  0  0  0  0  0  0  0  0  0  0
  1 16  1  0  0  0  0
  2  5  1  0  0  0  0
  3  1  1  6  0  0  0
  3  4  1  0  0  0  0
  4  5  1  0  0  0  0
  6  2  1  0  0  0  0
  7  6  1  0  0  0  0
  7  3  1  0  0  0  0
  8  1  1  0  0  0  0
  9 15  1  0  0  0  0
 10  9  2  0  0  0  0
 10 13  1  0  0  0  0
 11  8  1  0  0  0  0
 13 14  2  0  0  0  0
 14 11  1  0  0  0  0
 15 12  1  0  0  0  0
 15 11  2  0  0  0  0
 17 16  1  0  0  0  0
 17 24  1  0  0  0  0
 18 23  1  0  0  0  0
 20 21  1  0  0  0  0
 20 23  2  0  0  0  0
 22 20  1  0  0  0  0
 23 19  1  0  0  0  0
 24 22  2  0  0  0  0
 24 25  1  0  0  0  0
 25 18  2  0  0  0  0
 26 27  1  0  0  0  0
 27 22  1  0  0  0  0
M  END
>  <MODEL>
4

>  <REMARK>
 VINA RESULT:      -8.1      1.253      3.998
  Name = 
  7 active torsions:
  status: ('A' for Active; 'I' for Inactive)
    1  A    between atoms: C_1  and  N_15
    2  A    between atoms: C_1  and  C_18
    3  A    between atoms: N_2  and  C_6
    4  A    between atoms: N_2  and  N_15
    5  A    between atoms: C_6  and  C_17
    6  A    between atoms: C_9  and  N_15
    7  A    between atoms: C_14  and  O_19
                            x       y       z     vdW  Elec       q    Type
                         _______ _______ _______ _____ _____    ______ ____

>  <TORSDO>
F 7

$$$$
=
 OpenBabel11052423153D

 27 29  0  0  1  0  0  0  0  0999 V2000
  161.8300  206.8630  148.4510 N   0  0  0  0  0  0  0  0  0  0  0  0
  161.5770  204.6410  144.7750 C   0  0  0  0  0  2  0  0  0  0  0  0
  161.8580  206.3380  147.0730 C   0  0  1  0  0  3  0  0  0  0  0  0
  162.5170  205.0410  147.0350 N   0  0  0  0  0  2  0  0  0  0  0  0
  162.8460  204.7380  145.6380 C   0  0  0  0  0  2  0  0  0  0  0  0
  160.6810  205.8800  144.9600 C   0  0  0  0  0  2  0  0  0  0  0  0
  160.4720  206.1870  146.4340 C   0  0  0  0  0  2  0  0  0  0  0  0
  160.6270  206.3850  149.1800 C   0  0  0  0  0  2  0  0  0  0  0  0
  161.3390  203.9270  152.0120 C   0  0  0  0  0  3  0  0  0  0  0  0
  161.2070  202.7020  151.3510 C   0  0  0  0  0  3  0  0  0  0  0  0
  160.8340  205.1060  149.9530 C   0  0  0  0  0  0  0  0  0  0  0  0
  161.3090  206.4100  152.0720 C   0  0  0  0  0  1  0  0  0  0  0  0
  160.8970  202.6760  149.9860 C   0  0  0  0  0  3  0  0  0  0  0  0
  160.7160  203.8770  149.2930 C   0  0  0  0  0  3  0  0  0  0  0  0
  161.1600  205.1270  151.3210 C   0  0  0  0  0  0  0  0  0  0  0  0
  161.7700  208.2690  148.3630 N   0  0  0  0  0  2  0  0  0  0  0  0
  162.2790  208.8220  149.6080 C   0  0  0  0  0  2  0  0  0  0  0  0
  161.6030  212.4130  148.6370 C   0  0  0  0  0  3  0  0  0  0  0  0
  160.4880  214.2170  149.7630 O   0  0  0  0  0  1  0  0  0  0  0  0
  160.7570  212.0780  150.8850 C   0  0  0  0  0  0  0  0  0  0  0  0
  160.0820  212.5920  151.9890 O   0  0  0  0  0  1  0  0  0  0  0  0
  161.2030  210.7330  150.8550 C   0  0  0  0  0  0  0  0  0  0  0  0
  160.9670  212.9090  149.7720 C   0  0  0  0  0  0  0  0  0  0  0  0
  161.8710  210.2610  149.7110 C   0  0  0  0  0  0  0  0  0  0  0  0
  162.0450  211.0930  148.6040 C   0  0  0  0  0  3  0  0  0  0  0  0
  161.5810  209.8830  153.1880 C   0  0  0  0  0  1  0  0  0  0  0  0
  160.9780  209.8190  151.9030 O   0  0  0  0  0  0  0  0  0  0  0  0
  1  8  1  0  0  0  0
  2  6  1  0  0  0  0
  2  5  1  0  0  0  0
  3  1  1  1  0  0  0
  4  3  1  0  0  0  0
  5  4  1  0  0  0  0
  6  7  1  0  0  0  0
  7  3  1  0  0  0  0
  8 11  1  0  0  0  0
 10  9  1  0  0  0  0
 11 15  1  0  0  0  0
 13 10  2  0  0  0  0
 14 11  2  0  0  0  0
 14 13  1  0  0  0  0
 15  9  2  0  0  0  0
 15 12  1  0  0  0  0
 16  1  1  0  0  0  0
 16 17  1  0  0  0  0
 17 24  1  0  0  0  0
 18 23  1  0  0  0  0
 19 23  1  0  0  0  0
 20 21  1  0  0  0  0
 22 20  1  0  0  0  0
 22 27  1  0  0  0  0
 23 20  2  0  0  0  0
 24 22  2  0  0  0  0
 25 18  2  0  0  0  0
 25 24  1  0  0  0  0
 27 26  1  0  0  0  0
M  END
>  <MODEL>
5

>  <REMARK>
 VINA RESULT:      -7.8      1.519      3.214
  Name = 
  7 active torsions:
  status: ('A' for Active; 'I' for Inactive)
    1  A    between atoms: C_1  and  N_15
    2  A    between atoms: C_1  and  C_18
    3  A    between atoms: N_2  and  C_6
    4  A    between atoms: N_2  and  N_15
    5  A    between atoms: C_6  and  C_17
    6  A    between atoms: C_9  and  N_15
    7  A    between atoms: C_14  and  O_19
                            x       y       z     vdW  Elec       q    Type
                         _______ _______ _______ _____ _____    ______ ____

>  <TORSDO>
F 7

$$$$
=
 OpenBabel11052423153D

 27 29  0  0  1  0  0  0  0  0999 V2000
  160.8610  205.2630  149.1270 N   0  0  0  0  0  0  0  0  0  0  0  0
  160.8850  201.2200  150.5970 C   0  0  0  0  0  2  0  0  0  0  0  0
  161.1530  203.8910  149.5820 C   0  0  1  0  0  3  0  0  0  0  0  0
  160.5920  203.6630  150.9050 N   0  0  0  0  0  2  0  0  0  0  0  0
  161.2070  202.4520  151.4580 C   0  0  0  0  0  2  0  0  0  0  0  0
  161.2120  201.4750  149.1140 C   0  0  0  0  0  2  0  0  0  0  0  0
  160.6260  202.7970  148.6460 C   0  0  0  0  0  2  0  0  0  0  0  0
  161.9420  205.7750  148.2470 C   0  0  0  0  0  2  0  0  0  0  0  0
  162.2450  204.9070  144.5420 C   0  0  0  0  0  3  0  0  0  0  0  0
  161.0680  205.4670  144.0330 C   0  0  0  0  0  3  0  0  0  0  0  0
  161.6520  205.6600  146.7710 C   0  0  0  0  0  0  0  0  0  0  0  0
  163.8120  204.3890  146.3990 C   0  0  0  0  0  1  0  0  0  0  0  0
  160.1840  206.1320  144.8910 C   0  0  0  0  0  3  0  0  0  0  0  0
  160.4820  206.2290  146.2530 C   0  0  0  0  0  3  0  0  0  0  0  0
  162.5430  205.0050  145.9020 C   0  0  0  0  0  0  0  0  0  0  0  0
  160.7930  206.0800  150.2740 N   0  0  0  0  0  2  0  0  0  0  0  0
  161.9780  206.9230  150.3000 C   0  0  0  0  0  2  0  0  0  0  0  0
  161.6690  210.4790  151.5470 C   0  0  0  0  0  3  0  0  0  0  0  0
  160.8120  211.4160  153.5850 O   0  0  0  0  0  1  0  0  0  0  0  0
  160.8850  209.0040  153.3050 C   0  0  0  0  0  0  0  0  0  0  0  0
  160.3190  208.8570  154.5690 O   0  0  0  0  0  1  0  0  0  0  0  0
  161.1760  207.8790  152.4940 C   0  0  0  0  0  0  0  0  0  0  0  0
  161.1410  210.2980  152.8220 C   0  0  0  0  0  0  0  0  0  0  0  0
  161.7380  208.0820  151.2210 C   0  0  0  0  0  0  0  0  0  0  0  0
  161.9580  209.3770  150.7470 C   0  0  0  0  0  3  0  0  0  0  0  0
  161.5810  205.8310  153.8890 C   0  0  0  0  0  1  0  0  0  0  0  0
  160.8940  206.5530  152.8770 O   0  0  0  0  0  0  0  0  0  0  0  0
  1 16  1  0  0  0  0
  2  5  1  0  0  0  0
  3  1  1  6  0  0  0
  3  4  1  0  0  0  0
  4  5  1  0  0  0  0
  6  2  1  0  0  0  0
  7  6  1  0  0  0  0
  7  3  1  0  0  0  0
  8  1  1  0  0  0  0
  9 15  1  0  0  0  0
 10  9  2  0  0  0  0
 10 13  1  0  0  0  0
 11  8  1  0  0  0  0
 13 14  2  0  0  0  0
 14 11  1  0  0  0  0
 15 12  1  0  0  0  0
 15 11  2  0  0  0  0
 16 17  1  0  0  0  0
 17 24  1  0  0  0  0
 18 23  1  0  0  0  0
 20 21  1  0  0  0  0
 22 27  1  0  0  0  0
 22 20  1  0  0  0  0
 23 20  2  0  0  0  0
 23 19  1  0  0  0  0
 24 22  2  0  0  0  0
 25 24  1  0  0  0  0
 25 18  2  0  0  0  0
 27 26  1  0  0  0  0
M  END
>  <MODEL>
6

>  <REMARK>
 VINA RESULT:      -7.5      1.231      4.502
  Name = 
  7 active torsions:
  status: ('A' for Active; 'I' for Inactive)
    1  A    between atoms: C_1  and  N_15
    2  A    between atoms: C_1  and  C_18
    3  A    between atoms: N_2  and  C_6
    4  A    between atoms: N_2  and  N_15
    5  A    between atoms: C_6  and  C_17
    6  A    between atoms: C_9  and  N_15
    7  A    between atoms: C_14  and  O_19
                            x       y       z     vdW  Elec       q    Type
                         _______ _______ _______ _____ _____    ______ ____

>  <TORSDO>
F 7

$$$$
=
 OpenBabel11052423153D

 27 29  0  0  1  0  0  0  0  0999 V2000
  161.6310  209.3860  149.5750 N   0  0  0  0  0  0  0  0  0  0  0  0
  162.1980  213.4430  148.2600 C   0  0  0  0  0  2  0  0  0  0  0  0
  161.6800  210.6910  148.8910 C   0  0  1  0  0  3  0  0  0  0  0  0
  161.2060  211.7470  149.7730 N   0  0  0  0  0  2  0  0  0  0  0  0
  160.9260  212.9320  148.9560 C   0  0  0  0  0  2  0  0  0  0  0  0
  162.9140  212.3080  147.5050 C   0  0  0  0  0  2  0  0  0  0  0  0
  163.0750  211.0810  148.3870 C   0  0  0  0  0  2  0  0  0  0  0  0
  162.3400  209.4390  150.8790 C   0  0  0  0  0  2  0  0  0  0  0  0
  160.4560  207.8770  153.8090 C   0  0  0  0  0  3  0  0  0  0  0  0
  160.9400  206.5650  153.7770 C   0  0  0  0  0  3  0  0  0  0  0  0
  161.8410  208.4470  151.9000 C   0  0  0  0  0  0  0  0  0  0  0  0
  160.3570  210.2080  152.9550 C   0  0  0  0  0  1  0  0  0  0  0  0
  161.8820  206.1930  152.8110 C   0  0  0  0  0  3  0  0  0  0  0  0
  162.3310  207.1350  151.8810 C   0  0  0  0  0  3  0  0  0  0  0  0
  160.9050  208.8190  152.8810 C   0  0  0  0  0  0  0  0  0  0  0  0
  162.2900  208.4540  148.7460 N   0  0  0  0  0  2  0  0  0  0  0  0
  161.2930  207.8200  147.8970 C   0  0  0  0  0  2  0  0  0  0  0  0
  160.8360  204.4700  149.5890 C   0  0  0  0  0  3  0  0  0  0  0  0
  161.0410  202.2120  148.7990 O   0  0  0  0  0  1  0  0  0  0  0  0
  161.5550  204.0600  147.3090 C   0  0  0  0  0  0  0  0  0  0  0  0
  161.8380  203.1440  146.2980 O   0  0  0  0  0  1  0  0  0  0  0  0
  161.6230  205.4570  147.0770 C   0  0  0  0  0  0  0  0  0  0  0  0
  161.1650  203.5800  148.5700 C   0  0  0  0  0  0  0  0  0  0  0  0
  161.3170  206.3390  148.1280 C   0  0  0  0  0  0  0  0  0  0  0  0
  160.9040  205.8420  149.3660 C   0  0  0  0  0  3  0  0  0  0  0  0
  161.2060  205.8280  144.6290 C   0  0  0  0  0  1  0  0  0  0  0  0
  161.9450  206.0190  145.8260 O   0  0  0  0  0  0  0  0  0  0  0  0
  1  8  1  0  0  0  0
  2  5  1  0  0  0  0
  3  1  1  1  0  0  0
  3  4  1  0  0  0  0
  5  4  1  0  0  0  0
  6  2  1  0  0  0  0
  6  7  1  0  0  0  0
  7  3  1  0  0  0  0
  8 11  1  0  0  0  0
 10  9  1  0  0  0  0
 11 15  1  0  0  0  0
 13 10  2  0  0  0  0
 14 11  2  0  0  0  0
 14 13  1  0  0  0  0
 15 12  1  0  0  0  0
 15  9  2  0  0  0  0
 16  1  1  0  0  0  0
 17 24  1  0  0  0  0
 17 16  1  0  0  0  0
 20 23  1  0  0  0  0
 21 20  1  0  0  0  0
 22 20  2  0  0  0  0
 22 24  1  0  0  0  0
 23 19  1  0  0  0  0
 23 18  2  0  0  0  0
 24 25  2  0  0  0  0
 25 18  1  0  0  0  0
 26 27  1  0  0  0  0
 27 22  1  0  0  0  0
M  END
>  <MODEL>
7

>  <REMARK>
 VINA RESULT:      -7.4      3.221      6.493
  Name = 
  7 active torsions:
  status: ('A' for Active; 'I' for Inactive)
    1  A    between atoms: C_1  and  N_15
    2  A    between atoms: C_1  and  C_18
    3  A    between atoms: N_2  and  C_6
    4  A    between atoms: N_2  and  N_15
    5  A    between atoms: C_6  and  C_17
    6  A    between atoms: C_9  and  N_15
    7  A    between atoms: C_14  and  O_19
                            x       y       z     vdW  Elec       q    Type
                         _______ _______ _______ _____ _____    ______ ____

>  <TORSDO>
F 7

$$$$
=
 OpenBabel11052423153D

 27 29  0  0  1  0  0  0  0  0999 V2000
  161.5600  210.0260  153.0190 N   0  0  0  0  0  0  0  0  0  0  0  0
  161.9770  209.4390  157.2600 C   0  0  0  0  0  2  0  0  0  0  0  0
  161.9150  209.6450  154.3980 C   0  0  1  0  0  3  0  0  0  0  0  0
  162.1340  210.8300  155.2130 N   0  0  0  0  0  2  0  0  0  0  0  0
  162.8290  210.4190  156.4380 C   0  0  0  0  0  2  0  0  0  0  0  0
  161.4780  208.2690  156.3910 C   0  0  0  0  0  2  0  0  0  0  0  0
  160.8640  208.7740  155.0960 C   0  0  0  0  0  2  0  0  0  0  0  0
  160.0870  210.1310  152.8560 C   0  0  0  0  0  2  0  0  0  0  0  0
  158.2420  213.3650  153.7000 C   0  0  0  0  0  3  0  0  0  0  0  0
  158.6280  214.1860  152.6350 C   0  0  0  0  0  3  0  0  0  0  0  0
  159.5670  211.5470  152.7930 C   0  0  0  0  0  0  0  0  0  0  0  0
  158.2630  211.2120  154.9390 C   0  0  0  0  0  1  0  0  0  0  0  0
  159.4780  213.6860  151.6410 C   0  0  0  0  0  3  0  0  0  0  0  0
  159.9400  212.3690  151.7230 C   0  0  0  0  0  3  0  0  0  0  0  0
  158.7020  212.0500  153.7810 C   0  0  0  0  0  0  0  0  0  0  0  0
  162.0310  209.0050  152.1670 N   0  0  0  0  0  2  0  0  0  0  0  0
  160.8830  208.3890  151.5210 C   0  0  0  0  0  2  0  0  0  0  0  0
  161.3210  204.8200  152.6880 C   0  0  0  0  0  3  0  0  0  0  0  0
  161.3190  202.7190  151.5240 O   0  0  0  0  0  1  0  0  0  0  0  0
  161.0960  204.7900  150.2730 C   0  0  0  0  0  0  0  0  0  0  0  0
  161.0050  204.0500  149.0970 O   0  0  0  0  0  1  0  0  0  0  0  0
  160.9900  206.2040  150.2640 C   0  0  0  0  0  0  0  0  0  0  0  0
  161.2660  204.1110  151.4910 C   0  0  0  0  0  0  0  0  0  0  0  0
  161.0790  206.9030  151.4800 C   0  0  0  0  0  0  0  0  0  0  0  0
  161.2190  206.2080  152.6830 C   0  0  0  0  0  3  0  0  0  0  0  0
  161.7620  207.4020  148.1970 C   0  0  0  0  0  1  0  0  0  0  0  0
  160.7570  206.9550  149.0950 O   0  0  0  0  0  0  0  0  0  0  0  0
  3  1  1  6  0  0  0
  3  7  1  0  0  0  0
  3  4  1  0  0  0  0
  4  5  1  0  0  0  0
  5  2  1  0  0  0  0
  6  2  1  0  0  0  0
  7  6  1  0  0  0  0
  8  1  1  0  0  0  0
  9 15  1  0  0  0  0
 10  9  2  0  0  0  0
 11  8  1  0  0  0  0
 11 15  2  0  0  0  0
 13 14  2  0  0  0  0
 13 10  1  0  0  0  0
 14 11  1  0  0  0  0
 15 12  1  0  0  0  0
 16  1  1  0  0  0  0
 17 16  1  0  0  0  0
 20 23  1  0  0  0  0
 21 20  1  0  0  0  0
 22 20  2  0  0  0  0
 22 24  1  0  0  0  0
 23 19  1  0  0  0  0
 23 18  2  0  0  0  0
 24 17  1  0  0  0  0
 24 25  2  0  0  0  0
 25 18  1  0  0  0  0
 26 27  1  0  0  0  0
 27 22  1  0  0  0  0
M  END
>  <MODEL>
8

>  <REMARK>
 VINA RESULT:      -7.4      3.708      8.455
  Name = 
  7 active torsions:
  status: ('A' for Active; 'I' for Inactive)
    1  A    between atoms: C_1  and  N_15
    2  A    between atoms: C_1  and  C_18
    3  A    between atoms: N_2  and  C_6
    4  A    between atoms: N_2  and  N_15
    5  A    between atoms: C_6  and  C_17
    6  A    between atoms: C_9  and  N_15
    7  A    between atoms: C_14  and  O_19
                            x       y       z     vdW  Elec       q    Type
                         _______ _______ _______ _____ _____    ______ ____

>  <TORSDO>
F 7

$$$$
=
 OpenBabel11052423153D

 27 29  0  0  1  0  0  0  0  0999 V2000
  161.2610  207.8470  150.8630 N   0  0  0  0  0  0  0  0  0  0  0  0
  162.3710  211.5220  148.9220 C   0  0  0  0  0  2  0  0  0  0  0  0
  161.3590  209.1290  150.1410 C   0  0  1  0  0  3  0  0  0  0  0  0
  162.0830  210.1080  150.9380 N   0  0  0  0  0  2  0  0  0  0  0  0
  161.8400  211.4340  150.3620 C   0  0  0  0  0  2  0  0  0  0  0  0
  161.8510  210.3530  148.0640 C   0  0  0  0  0  2  0  0  0  0  0  0
  162.0470  209.0240  148.7750 C   0  0  0  0  0  2  0  0  0  0  0  0
  162.1180  207.8490  152.0760 C   0  0  0  0  0  2  0  0  0  0  0  0
  160.2390  206.6800  155.1870 C   0  0  0  0  0  3  0  0  0  0  0  0
  159.9410  207.9010  155.8010 C   0  0  0  0  0  3  0  0  0  0  0  0
  161.3550  207.8500  153.3780 C   0  0  0  0  0  0  0  0  0  0  0  0
  161.2340  205.3200  153.3610 C   0  0  0  0  0  1  0  0  0  0  0  0
  160.3420  209.1000  155.2010 C   0  0  0  0  0  3  0  0  0  0  0  0
  161.0430  209.0690  153.9920 C   0  0  0  0  0  3  0  0  0  0  0  0
  160.9370  206.6490  153.9780 C   0  0  0  0  0  0  0  0  0  0  0  0
  161.7220  206.8380  149.9920 N   0  0  0  0  0  2  0  0  0  0  0  0
  160.5690  206.2560  149.3230 C   0  0  0  0  0  2  0  0  0  0  0  0
  160.8530  202.5330  149.9160 C   0  0  0  0  0  3  0  0  0  0  0  0
  161.2160  200.6770  148.4370 O   0  0  0  0  0  1  0  0  0  0  0  0
  161.2190  202.9400  147.5530 C   0  0  0  0  0  0  0  0  0  0  0  0
  161.4440  202.4240  146.2790 O   0  0  0  0  0  1  0  0  0  0  0  0
  161.0620  204.3320  147.7670 C   0  0  0  0  0  0  0  0  0  0  0  0
  161.1180  202.0510  148.6370 C   0  0  0  0  0  0  0  0  0  0  0  0
  160.8270  204.8010  149.0710 C   0  0  0  0  0  0  0  0  0  0  0  0
  160.7010  203.9000  150.1310 C   0  0  0  0  0  3  0  0  0  0  0  0
  162.2650  205.8180  146.1380 C   0  0  0  0  0  1  0  0  0  0  0  0
  161.0890  205.2830  146.7270 O   0  0  0  0  0  0  0  0  0  0  0  0
  1  8  1  0  0  0  0
  2  5  1  0  0  0  0
  3  1  1  1  0  0  0
  3  4  1  0  0  0  0
  5  4  1  0  0  0  0
  6  7  1  0  0  0  0
  6  2  1  0  0  0  0
  7  3  1  0  0  0  0
  8 11  1  0  0  0  0
  9 10  1  0  0  0  0
 11 15  1  0  0  0  0
 11 14  2  0  0  0  0
 12 15  1  0  0  0  0
 13 10  2  0  0  0  0
 14 13  1  0  0  0  0
 15  9  2  0  0  0  0
 16  1  1  0  0  0  0
 17 16  1  0  0  0  0
 18 25  1  0  0  0  0
 19 23  1  0  0  0  0
 20 22  2  0  0  0  0
 20 23  1  0  0  0  0
 21 20  1  0  0  0  0
 22 24  1  0  0  0  0
 23 18  2  0  0  0  0
 24 17  1  0  0  0  0
 24 25  2  0  0  0  0
 26 27  1  0  0  0  0
 27 22  1  0  0  0  0
M  END
>  <MODEL>
9

>  <REMARK>
 VINA RESULT:      -7.3      3.223      6.701
  Name = 
  7 active torsions:
  status: ('A' for Active; 'I' for Inactive)
    1  A    between atoms: C_1  and  N_15
    2  A    between atoms: C_1  and  C_18
    3  A    between atoms: N_2  and  C_6
    4  A    between atoms: N_2  and  N_15
    5  A    between atoms: C_6  and  C_17
    6  A    between atoms: C_9  and  N_15
    7  A    between atoms: C_14  and  O_19
                            x       y       z     vdW  Elec       q    Type
                         _______ _______ _______ _____ _____    ______ ____

>  <TORSDO>
F 7

$$$$
