=
 OpenBabel11062408323D

 32 34  0  0  1  0  0  0  0  0999 V2000
  161.4840  204.6470  151.1700 N   0  0  0  0  0  2  0  0  0  0  0  0
  160.5620  204.6180  150.1010 N   0  0  0  0  0  0  0  0  0  0  0  0
  162.0810  205.9670  151.1950 C   0  0  1  0  0  3  0  0  0  0  0  0
  161.7180  206.6040  149.8930 C   0  0  2  0  0  3  0  0  0  0  0  0
  159.7020  206.3050  148.7920 C   0  0  0  0  0  1  0  0  0  0  0  0
  160.9300  205.6230  149.1740 N   0  0  0  0  0  0  0  0  0  0  0  0
  161.5380  206.7680  152.3340 C   0  0  0  0  0  0  0  0  0  0  0  0
  161.2430  206.1230  153.5430 C   0  0  0  0  0  3  0  0  0  0  0  0
  160.2250  211.0070  154.1610 C   0  0  0  0  0  3  0  0  0  0  0  0
  161.3580  208.1170  152.2150 N   0  0  0  0  0  0  0  0  0  0  0  0
  160.0820  209.0150  155.5380 C   0  0  0  0  0  3  0  0  0  0  0  0
  160.5710  208.2460  154.4780 C   0  0  0  0  0  0  0  0  0  0  0  0
  160.7550  206.8690  154.6180 C   0  0  0  0  0  3  0  0  0  0  0  0
  160.8860  208.8640  153.2460 C   0  0  0  0  0  0  0  0  0  0  0  0
  159.9090  210.3940  155.3780 C   0  0  0  0  0  3  0  0  0  0  0  0
  160.7140  210.2440  153.0960 C   0  0  0  0  0  3  0  0  0  0  0  0
  160.6990  203.2980  149.4630 C   0  0  2  0  0  3  0  0  0  0  0  0
  161.1740  202.2110  150.4240 C   0  0  0  0  0  1  0  0  0  0  0  0
  161.5760  203.3730  148.1870 C   0  0  0  0  0  2  0  0  0  0  0  0
  161.0030  202.8230  146.9440 N   0  0  0  0  0  0  0  0  0  0  0  0
  161.1910  199.1800  145.8060 C   0  0  0  0  0  1  0  0  0  0  0  0
  161.3610  201.4680  146.8500 N   0  0  0  0  0  2  0  0  0  0  0  0
  160.0230  201.0770  144.9760 O   0  0  0  0  0  0  0  0  0  0  0  0
  160.8170  200.6170  145.8390 C   0  0  0  0  0  0  0  0  0  0  0  0
  161.4890  203.5170  145.7540 C   0  0  0  0  0  2  0  0  0  0  0  0
  162.5000  204.5700  146.1580 C   0  0  0  0  0  2  0  0  0  0  0  0
  162.1050  205.9020  145.5530 C   0  0  0  0  0  2  0  0  0  0  0  0
  160.6740  205.8220  145.0580 C   0  0  0  0  0  1  0  0  0  0  0  0
  162.9730  206.9490  149.1000 C   0  0  0  0  0  2  0  0  0  0  0  0
  162.7380  208.1160  148.2610 N   0  0  0  0  0  2  0  0  0  0  0  0
  162.2490  210.2560  148.5320 O   0  0  0  0  0  1  0  0  0  0  0  0
  161.9560  209.0170  148.9980 N   0  0  0  0  0  2  0  0  0  0  0  0
  1  3  1  0  0  0  0
  2  1  1  0  0  0  0
  3  7  1  1  0  0  0
  4 29  1  6  0  0  0
  4  3  1  0  0  0  0
  5  6  1  0  0  0  0
  6  4  1  0  0  0  0
  6  2  1  0  0  0  0
  7  8  1  0  0  0  0
  8 13  2  0  0  0  0
  9 15  1  0  0  0  0
 10  7  2  0  0  0  0
 10 14  1  0  0  0  0
 12 13  1  0  0  0  0
 12 11  1  0  0  0  0
 14 12  2  0  0  0  0
 15 11  2  0  0  0  0
 16 14  1  0  0  0  0
 16  9  2  0  0  0  0
 17  2  1  0  0  0  0
 17 18  1  1  0  0  0
 19 17  1  0  0  0  0
 20 19  1  0  0  0  0
 21 24  1  0  0  0  0
 22 20  1  0  0  0  0
 23 24  2  0  0  0  0
 24 22  1  0  0  0  0
 25 26  1  0  0  0  0
 25 20  1  0  0  0  0
 27 26  1  0  0  0  0
 28 27  1  0  0  0  0
 30 32  1  0  0  0  0
 30 29  1  0  0  0  0
 31 32  1  0  0  0  0
M  END
>  <MODEL>
1

>  <REMARK>
 VINA RESULT:      -6.7      0.000      0.000
  Name = 
  11 active torsions:
  status: ('A' for Active; 'I' for Inactive)
    1  A    between atoms: C_2  and  C_5
    2  A    between atoms: C_3  and  C_8
    3  A    between atoms: C_3  and  N_20
    4  A    between atoms: N_4  and  C_24
    5  A    between atoms: C_8  and  C_22
    6  A    between atoms: N_13  and  C_18
    7  A    between atoms: N_13  and  N_29
    8  A    between atoms: C_14  and  C_18
    9  A    between atoms: N_15  and  N_20
   10  A    between atoms: C_16  and  N_20
   11  A    between atoms: C_16  and  C_24
                            x       y       z     vdW  Elec       q    Type
                         _______ _______ _______ _____ _____    ______ ____

>  <TORSDO>
F 11

$$$$
=
 OpenBabel11062408323D

 32 34  0  0  1  0  0  0  0  0999 V2000
  160.6120  211.2560  152.0430 N   0  0  0  0  0  2  0  0  0  0  0  0
  159.3470  211.6760  152.5100 N   0  0  0  0  0  0  0  0  0  0  0  0
  161.2030  210.4260  153.0730 C   0  0  1  0  0  3  0  0  0  0  0  0
  160.3790  210.6480  154.2990 C   0  0  2  0  0  3  0  0  0  0  0  0
  158.0870  210.9860  154.3070 C   0  0  0  0  0  1  0  0  0  0  0  0
  159.3500  211.5980  153.9220 N   0  0  0  0  0  0  0  0  0  0  0  0
  161.1640  208.9860  152.6740 C   0  0  0  0  0  0  0  0  0  0  0  0
  161.1120  208.0030  153.6710 C   0  0  0  0  0  3  0  0  0  0  0  0
  161.0190  205.6470  149.2310 C   0  0  0  0  0  3  0  0  0  0  0  0
  161.1490  208.6280  151.3560 N   0  0  0  0  0  0  0  0  0  0  0  0
  160.9900  204.9670  151.5600 C   0  0  0  0  0  3  0  0  0  0  0  0
  161.0450  206.3070  151.9520 C   0  0  0  0  0  0  0  0  0  0  0  0
  161.0550  206.6560  153.3050 C   0  0  0  0  0  3  0  0  0  0  0  0
  161.0920  207.3250  150.9740 C   0  0  0  0  0  0  0  0  0  0  0  0
  160.9780  204.6380  150.2000 C   0  0  0  0  0  3  0  0  0  0  0  0
  161.0740  206.9890  149.6170 C   0  0  0  0  0  3  0  0  0  0  0  0
  159.1950  213.0830  152.1030 C   0  0  2  0  0  3  0  0  0  0  0  0
  158.7310  213.9920  153.2380 C   0  0  0  0  0  1  0  0  0  0  0  0
  158.3000  213.2160  150.8450 C   0  0  0  0  0  2  0  0  0  0  0  0
  158.8850  213.8900  149.6700 N   0  0  0  0  0  0  0  0  0  0  0  0
  157.1930  212.5500  146.5180 C   0  0  0  0  0  1  0  0  0  0  0  0
  158.6010  213.1240  148.5290 N   0  0  0  0  0  2  0  0  0  0  0  0
  156.7350  214.4000  147.9400 O   0  0  0  0  0  0  0  0  0  0  0  0
  157.4800  213.4150  147.6910 C   0  0  0  0  0  0  0  0  0  0  0  0
  160.3340  214.0410  149.7830 C   0  0  0  0  0  2  0  0  0  0  0  0
  161.0210  213.0110  148.9120 C   0  0  0  0  0  2  0  0  0  0  0  0
  162.2090  213.6500  148.2220 C   0  0  0  0  0  2  0  0  0  0  0  0
  163.1920  212.5700  147.8150 C   0  0  0  0  0  1  0  0  0  0  0  0
  161.2350  211.2230  155.4210 C   0  0  0  0  0  2  0  0  0  0  0  0
  161.3450  210.2690  156.5160 N   0  0  0  0  0  2  0  0  0  0  0  0
  163.3850  210.8480  155.8910 O   0  0  0  0  0  1  0  0  0  0  0  0
  162.7090  210.0770  156.7760 N   0  0  0  0  0  2  0  0  0  0  0  0
  1  2  1  0  0  0  0
  1  3  1  0  0  0  0
  2  6  1  0  0  0  0
  3  7  1  6  0  0  0
  3  4  1  0  0  0  0
  4 29  1  1  0  0  0
  6  4  1  0  0  0  0
  6  5  1  0  0  0  0
  7  8  1  0  0  0  0
  9 16  2  0  0  0  0
  9 15  1  0  0  0  0
 10  7  2  0  0  0  0
 11 12  1  0  0  0  0
 12 13  1  0  0  0  0
 13  8  2  0  0  0  0
 14 10  1  0  0  0  0
 14 12  2  0  0  0  0
 15 11  2  0  0  0  0
 16 14  1  0  0  0  0
 17  2  1  0  0  0  0
 17 18  1  1  0  0  0
 19 17  1  0  0  0  0
 20 25  1  0  0  0  0
 20 19  1  0  0  0  0
 21 24  1  0  0  0  0
 22 20  1  0  0  0  0
 24 23  2  0  0  0  0
 24 22  1  0  0  0  0
 26 25  1  0  0  0  0
 27 26  1  0  0  0  0
 28 27  1  0  0  0  0
 29 30  1  0  0  0  0
 30 32  1  0  0  0  0
 31 32  1  0  0  0  0
M  END
>  <MODEL>
2

>  <REMARK>
 VINA RESULT:      -6.6      4.392      8.466
  Name = 
  11 active torsions:
  status: ('A' for Active; 'I' for Inactive)
    1  A    between atoms: C_2  and  C_5
    2  A    between atoms: C_3  and  C_8
    3  A    between atoms: C_3  and  N_20
    4  A    between atoms: N_4  and  C_24
    5  A    between atoms: C_8  and  C_22
    6  A    between atoms: N_13  and  C_18
    7  A    between atoms: N_13  and  N_29
    8  A    between atoms: C_14  and  C_18
    9  A    between atoms: N_15  and  N_20
   10  A    between atoms: C_16  and  N_20
   11  A    between atoms: C_16  and  C_24
                            x       y       z     vdW  Elec       q    Type
                         _______ _______ _______ _____ _____    ______ ____

>  <TORSDO>
F 11

$$$$
=
 OpenBabel11062408323D

 32 34  0  0  1  0  0  0  0  0999 V2000
  161.5490  204.8100  151.2980 N   0  0  0  0  0  2  0  0  0  0  0  0
  160.6240  204.7500  150.2330 N   0  0  0  0  0  0  0  0  0  0  0  0
  162.0900  206.1540  151.3300 C   0  0  1  0  0  3  0  0  0  0  0  0
  161.6950  206.7830  150.0330 C   0  0  2  0  0  3  0  0  0  0  0  0
  159.6880  206.4080  148.9400 C   0  0  0  0  0  1  0  0  0  0  0  0
  160.9450  205.7750  149.3120 N   0  0  0  0  0  0  0  0  0  0  0  0
  161.5210  206.9240  152.4760 C   0  0  0  0  0  0  0  0  0  0  0  0
  161.1370  206.2380  153.6360 C   0  0  0  0  0  3  0  0  0  0  0  0
  160.2840  211.1280  154.4330 C   0  0  0  0  0  3  0  0  0  0  0  0
  161.4020  208.2840  152.4120 N   0  0  0  0  0  0  0  0  0  0  0  0
  159.9890  209.0830  155.7040 C   0  0  0  0  0  3  0  0  0  0  0  0
  160.5020  208.3440  154.6350 C   0  0  0  0  0  0  0  0  0  0  0  0
  160.6220  206.9550  154.7190 C   0  0  0  0  0  3  0  0  0  0  0  0
  160.9060  209.0030  153.4530 C   0  0  0  0  0  0  0  0  0  0  0  0
  159.8800  210.4740  155.6020 C   0  0  0  0  0  3  0  0  0  0  0  0
  160.7980  210.3940  153.3590 C   0  0  0  0  0  3  0  0  0  0  0  0
  160.8120  203.4410  149.5870 C   0  0  2  0  0  3  0  0  0  0  0  0
  161.0640  202.3080  150.5790 C   0  0  0  0  0  1  0  0  0  0  0  0
  161.9000  203.5040  148.4850 C   0  0  0  0  0  2  0  0  0  0  0  0
  161.5850  202.8710  147.1900 N   0  0  0  0  0  0  0  0  0  0  0  0
  161.1640  205.6310  144.5810 C   0  0  0  0  0  1  0  0  0  0  0  0
  161.0140  203.8390  146.3480 N   0  0  0  0  0  2  0  0  0  0  0  0
  163.0390  204.3640  145.3100 O   0  0  0  0  0  0  0  0  0  0  0  0
  161.8040  204.5860  145.4210 C   0  0  0  0  0  0  0  0  0  0  0  0
  160.6460  201.7610  147.3300 C   0  0  0  0  0  2  0  0  0  0  0  0
  160.7470  200.8550  146.1210 C   0  0  0  0  0  2  0  0  0  0  0  0
  161.5200  199.6060  146.4950 C   0  0  0  0  0  2  0  0  0  0  0  0
  161.2790  198.5370  145.4470 C   0  0  0  0  0  1  0  0  0  0  0  0
  162.9310  207.1850  149.2360 C   0  0  0  0  0  2  0  0  0  0  0  0
  162.6150  208.2770  148.3260 N   0  0  0  0  0  2  0  0  0  0  0  0
  162.1940  210.4470  148.3910 O   0  0  0  0  0  1  0  0  0  0  0  0
  162.0090  209.2940  149.0780 N   0  0  0  0  0  2  0  0  0  0  0  0
  1  3  1  0  0  0  0
  2  1  1  0  0  0  0
  3  7  1  1  0  0  0
  4 29  1  6  0  0  0
  4  3  1  0  0  0  0
  5  6  1  0  0  0  0
  6  4  1  0  0  0  0
  6  2  1  0  0  0  0
  7  8  1  0  0  0  0
  8 13  2  0  0  0  0
  9 15  1  0  0  0  0
 10  7  2  0  0  0  0
 10 14  1  0  0  0  0
 12 13  1  0  0  0  0
 12 11  1  0  0  0  0
 14 12  2  0  0  0  0
 15 11  2  0  0  0  0
 16 14  1  0  0  0  0
 16  9  2  0  0  0  0
 17  2  1  0  0  0  0
 17 18  1  1  0  0  0
 19 17  1  0  0  0  0
 20 25  1  0  0  0  0
 20 19  1  0  0  0  0
 21 24  1  0  0  0  0
 22 20  1  0  0  0  0
 23 24  2  0  0  0  0
 24 22  1  0  0  0  0
 26 27  1  0  0  0  0
 26 25  1  0  0  0  0
 28 27  1  0  0  0  0
 30 32  1  0  0  0  0
 30 29  1  0  0  0  0
 31 32  1  0  0  0  0
M  END
>  <MODEL>
3

>  <REMARK>
 VINA RESULT:      -6.3      0.964      2.534
  Name = 
  11 active torsions:
  status: ('A' for Active; 'I' for Inactive)
    1  A    between atoms: C_2  and  C_5
    2  A    between atoms: C_3  and  C_8
    3  A    between atoms: C_3  and  N_20
    4  A    between atoms: N_4  and  C_24
    5  A    between atoms: C_8  and  C_22
    6  A    between atoms: N_13  and  C_18
    7  A    between atoms: N_13  and  N_29
    8  A    between atoms: C_14  and  C_18
    9  A    between atoms: N_15  and  N_20
   10  A    between atoms: C_16  and  N_20
   11  A    between atoms: C_16  and  C_24
                            x       y       z     vdW  Elec       q    Type
                         _______ _______ _______ _____ _____    ______ ____

>  <TORSDO>
F 11

$$$$
=
 OpenBabel11062408323D

 32 34  0  0  1  0  0  0  0  0999 V2000
  160.7210  211.3030  151.9570 N   0  0  0  0  0  2  0  0  0  0  0  0
  159.4300  211.7490  152.3150 N   0  0  0  0  0  0  0  0  0  0  0  0
  161.2350  210.5230  153.0650 C   0  0  1  0  0  3  0  0  0  0  0  0
  160.3300  210.8090  154.2200 C   0  0  2  0  0  3  0  0  0  0  0  0
  158.0450  211.1530  154.0540 C   0  0  0  0  0  1  0  0  0  0  0  0
  159.3360  211.7420  153.7270 N   0  0  0  0  0  0  0  0  0  0  0  0
  161.2140  209.0660  152.7370 C   0  0  0  0  0  0  0  0  0  0  0  0
  161.1790  208.1310  153.7810 C   0  0  0  0  0  3  0  0  0  0  0  0
  161.1040  205.5610  149.4610 C   0  0  0  0  0  3  0  0  0  0  0  0
  161.2000  208.6440  151.4380 N   0  0  0  0  0  0  0  0  0  0  0  0
  161.0920  204.9950  151.8200 C   0  0  0  0  0  3  0  0  0  0  0  0
  161.1300  206.3530  152.1470 C   0  0  0  0  0  0  0  0  0  0  0  0
  161.1380  206.7670  153.4810 C   0  0  0  0  0  3  0  0  0  0  0  0
  161.1590  207.3230  151.1200 C   0  0  0  0  0  0  0  0  0  0  0  0
  161.0800  204.6000  150.4780 C   0  0  0  0  0  3  0  0  0  0  0  0
  161.1430  206.9210  149.7810 C   0  0  0  0  0  3  0  0  0  0  0  0
  159.3140  213.1340  151.8290 C   0  0  2  0  0  3  0  0  0  0  0  0
  159.1460  214.1550  152.9520 C   0  0  0  0  0  1  0  0  0  0  0  0
  158.2110  213.2660  150.7490 C   0  0  0  0  0  2  0  0  0  0  0  0
  158.6510  213.3460  149.3430 N   0  0  0  0  0  0  0  0  0  0  0  0
  162.3330  213.1280  148.3490 C   0  0  0  0  0  1  0  0  0  0  0  0
  160.0420  213.5290  149.3210 N   0  0  0  0  0  2  0  0  0  0  0  0
  160.3410  212.2700  147.3770 O   0  0  0  0  0  0  0  0  0  0  0  0
  160.8600  212.9430  148.3070 C   0  0  0  0  0  0  0  0  0  0  0  0
  158.0220  214.4530  148.6270 C   0  0  0  0  0  2  0  0  0  0  0  0
  156.7100  213.9920  148.0290 C   0  0  0  0  0  2  0  0  0  0  0  0
  156.8290  213.9660  146.5190 C   0  0  0  0  0  2  0  0  0  0  0  0
  157.1410  212.5520  146.0660 C   0  0  0  0  0  1  0  0  0  0  0  0
  161.1120  211.4380  155.3680 C   0  0  0  0  0  2  0  0  0  0  0  0
  160.9920  210.6230  156.5690 N   0  0  0  0  0  2  0  0  0  0  0  0
  163.1700  210.6650  156.1910 O   0  0  0  0  0  1  0  0  0  0  0  0
  162.1830  209.8960  156.7080 N   0  0  0  0  0  2  0  0  0  0  0  0
  1  2  1  0  0  0  0
  1  3  1  0  0  0  0
  2  6  1  0  0  0  0
  3  7  1  6  0  0  0
  3  4  1  0  0  0  0
  4 29  1  1  0  0  0
  6  5  1  0  0  0  0
  6  4  1  0  0  0  0
  7  8  1  0  0  0  0
  9 16  2  0  0  0  0
  9 15  1  0  0  0  0
 10  7  2  0  0  0  0
 11 12  1  0  0  0  0
 12 13  1  0  0  0  0
 13  8  2  0  0  0  0
 14 10  1  0  0  0  0
 14 12  2  0  0  0  0
 15 11  2  0  0  0  0
 16 14  1  0  0  0  0
 17  2  1  0  0  0  0
 17 18  1  1  0  0  0
 19 17  1  0  0  0  0
 20 19  1  0  0  0  0
 22 20  1  0  0  0  0
 23 24  2  0  0  0  0
 24 21  1  0  0  0  0
 24 22  1  0  0  0  0
 25 20  1  0  0  0  0
 26 25  1  0  0  0  0
 27 26  1  0  0  0  0
 28 27  1  0  0  0  0
 29 30  1  0  0  0  0
 30 32  1  0  0  0  0
 31 32  1  0  0  0  0
M  END
>  <MODEL>
4

>  <REMARK>
 VINA RESULT:      -6.3      4.230      8.465
  Name = 
  11 active torsions:
  status: ('A' for Active; 'I' for Inactive)
    1  A    between atoms: C_2  and  C_5
    2  A    between atoms: C_3  and  C_8
    3  A    between atoms: C_3  and  N_20
    4  A    between atoms: N_4  and  C_24
    5  A    between atoms: C_8  and  C_22
    6  A    between atoms: N_13  and  C_18
    7  A    between atoms: N_13  and  N_29
    8  A    between atoms: C_14  and  C_18
    9  A    between atoms: N_15  and  N_20
   10  A    between atoms: C_16  and  N_20
   11  A    between atoms: C_16  and  C_24
                            x       y       z     vdW  Elec       q    Type
                         _______ _______ _______ _____ _____    ______ ____

>  <TORSDO>
F 11

$$$$
=
 OpenBabel11062408323D

 32 34  0  0  1  0  0  0  0  0999 V2000
  160.2980  210.1610  152.3490 N   0  0  0  0  0  2  0  0  0  0  0  0
  159.3430  210.4540  153.3470 N   0  0  0  0  0  0  0  0  0  0  0  0
  161.3740  209.4230  152.9800 C   0  0  1  0  0  3  0  0  0  0  0  0
  161.1730  209.5860  154.4520 C   0  0  2  0  0  3  0  0  0  0  0  0
  159.1090  209.6770  155.5000 C   0  0  0  0  0  1  0  0  0  0  0  0
  159.9900  210.4110  154.6040 N   0  0  0  0  0  0  0  0  0  0  0  0
  161.3120  207.9780  152.6040 C   0  0  0  0  0  0  0  0  0  0  0  0
  161.3520  207.0070  153.6130 C   0  0  0  0  0  3  0  0  0  0  0  0
  160.9020  204.5940  149.2260 C   0  0  0  0  0  3  0  0  0  0  0  0
  161.1880  207.6030  151.2950 N   0  0  0  0  0  0  0  0  0  0  0  0
  161.0760  203.9440  151.5570 C   0  0  0  0  0  3  0  0  0  0  0  0
  161.1530  205.2890  151.9270 C   0  0  0  0  0  0  0  0  0  0  0  0
  161.2740  205.6550  153.2690 C   0  0  0  0  0  3  0  0  0  0  0  0
  161.1090  206.2950  150.9360 C   0  0  0  0  0  0  0  0  0  0  0  0
  160.9510  203.5970  150.2070 C   0  0  0  0  0  3  0  0  0  0  0  0
  160.9800  205.9420  149.5890 C   0  0  0  0  0  3  0  0  0  0  0  0
  158.8750  211.8260  153.0900 C   0  0  2  0  0  3  0  0  0  0  0  0
  159.6340  212.5210  151.9620 C   0  0  0  0  0  1  0  0  0  0  0  0
  158.8580  212.6720  154.3890 C   0  0  0  0  0  2  0  0  0  0  0  0
  157.5370  213.0450  154.9310 N   0  0  0  0  0  0  0  0  0  0  0  0
  155.0810  210.1490  155.3470 C   0  0  0  0  0  1  0  0  0  0  0  0
  156.6310  212.0100  154.6500 N   0  0  0  0  0  2  0  0  0  0  0  0
  156.2140  211.5460  156.9010 O   0  0  0  0  0  0  0  0  0  0  0  0
  155.9990  211.2640  155.6920 C   0  0  0  0  0  0  0  0  0  0  0  0
  157.0280  214.2830  154.3480 C   0  0  0  0  0  2  0  0  0  0  0  0
  155.5310  214.1750  154.1530 C   0  0  0  0  0  2  0  0  0  0  0  0
  155.2190  214.1370  152.6710 C   0  0  0  0  0  2  0  0  0  0  0  0
  156.4780  214.4530  151.8870 C   0  0  0  0  0  1  0  0  0  0  0  0
  162.3770  210.2760  155.0820 C   0  0  0  0  0  2  0  0  0  0  0  0
  161.9760  211.0000  156.2800 N   0  0  0  0  0  2  0  0  0  0  0  0
  164.1620  211.3210  156.3710 O   0  0  0  0  0  1  0  0  0  0  0  0
  163.0820  211.0420  157.1400 N   0  0  0  0  0  2  0  0  0  0  0  0
  1  3  1  0  0  0  0
  1  2  1  0  0  0  0
  2  6  1  0  0  0  0
  3  7  1  1  0  0  0
  3  4  1  0  0  0  0
  4  6  1  0  0  0  0
  4 29  1  6  0  0  0
  6  5  1  0  0  0  0
  7  8  1  0  0  0  0
  9 16  2  0  0  0  0
  9 15  1  0  0  0  0
 10  7  2  0  0  0  0
 11 12  1  0  0  0  0
 12 13  1  0  0  0  0
 13  8  2  0  0  0  0
 14 10  1  0  0  0  0
 14 12  2  0  0  0  0
 15 11  2  0  0  0  0
 16 14  1  0  0  0  0
 17 18  1  6  0  0  0
 17  2  1  0  0  0  0
 17 19  1  0  0  0  0
 19 20  1  0  0  0  0
 21 24  1  0  0  0  0
 22 20  1  0  0  0  0
 22 24  1  0  0  0  0
 24 23  2  0  0  0  0
 25 20  1  0  0  0  0
 26 25  1  0  0  0  0
 27 26  1  0  0  0  0
 28 27  1  0  0  0  0
 29 30  1  0  0  0  0
 30 32  1  0  0  0  0
 31 32  1  0  0  0  0
M  END
>  <MODEL>
5

>  <REMARK>
 VINA RESULT:      -6.2      4.409      9.546
  Name = 
  11 active torsions:
  status: ('A' for Active; 'I' for Inactive)
    1  A    between atoms: C_2  and  C_5
    2  A    between atoms: C_3  and  C_8
    3  A    between atoms: C_3  and  N_20
    4  A    between atoms: N_4  and  C_24
    5  A    between atoms: C_8  and  C_22
    6  A    between atoms: N_13  and  C_18
    7  A    between atoms: N_13  and  N_29
    8  A    between atoms: C_14  and  C_18
    9  A    between atoms: N_15  and  N_20
   10  A    between atoms: C_16  and  N_20
   11  A    between atoms: C_16  and  C_24
                            x       y       z     vdW  Elec       q    Type
                         _______ _______ _______ _____ _____    ______ ____

>  <TORSDO>
F 11

$$$$
=
 OpenBabel11062408323D

 32 34  0  0  1  0  0  0  0  0999 V2000
  159.7710  209.5790  152.7330 N   0  0  0  0  0  2  0  0  0  0  0  0
  160.4200  210.1700  153.8390 N   0  0  0  0  0  0  0  0  0  0  0  0
  160.7990  209.1230  151.8180 C   0  0  1  0  0  3  0  0  0  0  0  0
  162.0660  209.7700  152.2730 C   0  0  2  0  0  3  0  0  0  0  0  0
  162.6290  210.1620  154.4860 C   0  0  0  0  0  1  0  0  0  0  0  0
  161.7140  210.5700  153.4300 N   0  0  0  0  0  0  0  0  0  0  0  0
  160.9260  207.6360  151.8680 C   0  0  0  0  0  0  0  0  0  0  0  0
  161.1100  207.0080  153.1070 C   0  0  0  0  0  3  0  0  0  0  0  0
  160.9300  203.4020  149.6090 C   0  0  0  0  0  3  0  0  0  0  0  0
  160.8370  206.8890  150.7270 N   0  0  0  0  0  0  0  0  0  0  0  0
  161.2200  203.4740  152.0170 C   0  0  0  0  0  3  0  0  0  0  0  0
  161.1210  204.8680  151.9870 C   0  0  0  0  0  0  0  0  0  0  0  0
  161.2100  205.6150  153.1640 C   0  0  0  0  0  3  0  0  0  0  0  0
  160.9300  205.5340  150.7560 C   0  0  0  0  0  0  0  0  0  0  0  0
  161.1250  202.7430  150.8280 C   0  0  0  0  0  3  0  0  0  0  0  0
  160.8320  204.7960  149.5730 C   0  0  0  0  0  3  0  0  0  0  0  0
  159.6350  211.3630  154.1980 C   0  0  2  0  0  3  0  0  0  0  0  0
  158.7500  211.1560  155.4250 C   0  0  0  0  0  1  0  0  0  0  0  0
  158.8350  211.9010  152.9840 C   0  0  0  0  0  2  0  0  0  0  0  0
  158.5220  213.3430  152.9710 N   0  0  0  0  0  0  0  0  0  0  0  0
  155.0730  214.1120  154.4230 C   0  0  0  0  0  1  0  0  0  0  0  0
  157.1330  213.4980  153.1070 N   0  0  0  0  0  2  0  0  0  0  0  0
  157.2790  214.3640  155.2710 O   0  0  0  0  0  0  0  0  0  0  0  0
  156.5500  214.0060  154.3080 C   0  0  0  0  0  0  0  0  0  0  0  0
  158.9460  213.9910  151.7320 C   0  0  0  0  0  2  0  0  0  0  0  0
  157.7400  214.2420  150.8520 C   0  0  0  0  0  2  0  0  0  0  0  0
  158.0150  213.7090  149.4610 C   0  0  0  0  0  2  0  0  0  0  0  0
  156.7420  213.1140  148.8930 C   0  0  0  0  0  1  0  0  0  0  0  0
  162.6350  210.6610  151.1750 C   0  0  0  0  0  2  0  0  0  0  0  0
  161.9560  210.4070  149.9120 N   0  0  0  0  0  2  0  0  0  0  0  0
  161.3900  212.3890  149.1120 O   0  0  0  0  0  1  0  0  0  0  0  0
  162.3310  211.4180  149.0170 N   0  0  0  0  0  2  0  0  0  0  0  0
  1  2  1  0  0  0  0
  2 17  1  0  0  0  0
  3  7  1  1  0  0  0
  3  4  1  0  0  0  0
  3  1  1  0  0  0  0
  4 29  1  6  0  0  0
  4  6  1  0  0  0  0
  6  2  1  0  0  0  0
  6  5  1  0  0  0  0
  7  8  1  0  0  0  0
  8 13  2  0  0  0  0
  9 15  1  0  0  0  0
 10 14  1  0  0  0  0
 10  7  2  0  0  0  0
 12 11  1  0  0  0  0
 12 13  1  0  0  0  0
 14 12  2  0  0  0  0
 15 11  2  0  0  0  0
 16  9  2  0  0  0  0
 16 14  1  0  0  0  0
 17 18  1  1  0  0  0
 19 17  1  0  0  0  0
 20 19  1  0  0  0  0
 20 22  1  0  0  0  0
 22 24  1  0  0  0  0
 24 21  1  0  0  0  0
 24 23  2  0  0  0  0
 25 20  1  0  0  0  0
 26 25  1  0  0  0  0
 27 26  1  0  0  0  0
 28 27  1  0  0  0  0
 30 29  1  0  0  0  0
 32 31  1  0  0  0  0
 32 30  1  0  0  0  0
M  END
>  <MODEL>
6

>  <REMARK>
 VINA RESULT:      -6.0      3.643      8.926
  Name = 
  11 active torsions:
  status: ('A' for Active; 'I' for Inactive)
    1  A    between atoms: C_2  and  C_5
    2  A    between atoms: C_3  and  C_8
    3  A    between atoms: C_3  and  N_20
    4  A    between atoms: N_4  and  C_24
    5  A    between atoms: C_8  and  C_22
    6  A    between atoms: N_13  and  C_18
    7  A    between atoms: N_13  and  N_29
    8  A    between atoms: C_14  and  C_18
    9  A    between atoms: N_15  and  N_20
   10  A    between atoms: C_16  and  N_20
   11  A    between atoms: C_16  and  C_24
                            x       y       z     vdW  Elec       q    Type
                         _______ _______ _______ _____ _____    ______ ____

>  <TORSDO>
F 11

$$$$
=
 OpenBabel11062408323D

 32 34  0  0  1  0  0  0  0  0999 V2000
  161.0420  208.1570  151.1690 N   0  0  0  0  0  2  0  0  0  0  0  0
  162.2220  207.5210  150.7250 N   0  0  0  0  0  0  0  0  0  0  0  0
  160.5170  207.3790  152.2730 C   0  0  1  0  0  3  0  0  0  0  0  0
  161.2520  206.0790  152.2420 C   0  0  2  0  0  3  0  0  0  0  0  0
  163.4800  205.8350  151.6580 C   0  0  0  0  0  1  0  0  0  0  0  0
  162.1680  206.1640  151.1220 N   0  0  0  0  0  0  0  0  0  0  0  0
  160.7550  208.0810  153.5700 C   0  0  0  0  0  0  0  0  0  0  0  0
  161.2400  207.3510  154.6630 C   0  0  0  0  0  3  0  0  0  0  0  0
  160.7630  212.1300  156.1460 C   0  0  0  0  0  3  0  0  0  0  0  0
  160.5310  209.4240  153.6880 N   0  0  0  0  0  0  0  0  0  0  0  0
  161.4790  210.0540  157.1770 C   0  0  0  0  0  3  0  0  0  0  0  0
  161.2450  209.3770  155.9770 C   0  0  0  0  0  0  0  0  0  0  0  0
  161.4840  208.0040  155.8730 C   0  0  0  0  0  3  0  0  0  0  0  0
  160.7620  210.0830  154.8530 C   0  0  0  0  0  0  0  0  0  0  0  0
  161.2380  211.4290  157.2610 C   0  0  0  0  0  3  0  0  0  0  0  0
  160.5260  211.4580  154.9430 C   0  0  0  0  0  3  0  0  0  0  0  0
  162.2130  207.5960  149.2550 C   0  0  2  0  0  3  0  0  0  0  0  0
  162.1910  209.0280  148.7240 C   0  0  0  0  0  1  0  0  0  0  0  0
  161.0770  206.7320  148.6500 C   0  0  0  0  0  2  0  0  0  0  0  0
  161.4710  205.4860  147.9650 N   0  0  0  0  0  0  0  0  0  0  0  0
  161.3360  205.4780  144.1460 C   0  0  0  0  0  1  0  0  0  0  0  0
  160.9980  205.5360  146.6440 N   0  0  0  0  0  2  0  0  0  0  0  0
  163.1010  205.1460  145.7050 O   0  0  0  0  0  0  0  0  0  0  0  0
  161.8750  205.3750  145.5270 C   0  0  0  0  0  0  0  0  0  0  0  0
  160.9220  204.2990  148.6140 C   0  0  0  0  0  2  0  0  0  0  0  0
  161.3820  203.0590  147.8770 C   0  0  0  0  0  2  0  0  0  0  0  0
  160.4980  201.8900  148.2630 C   0  0  0  0  0  2  0  0  0  0  0  0
  161.3170  200.6140  148.2390 C   0  0  0  0  0  1  0  0  0  0  0  0
  160.2810  204.9210  152.0380 C   0  0  0  0  0  2  0  0  0  0  0  0
  160.7300  203.7470  152.7730 N   0  0  0  0  0  2  0  0  0  0  0  0
  162.1790  202.5340  151.6250 O   0  0  0  0  0  1  0  0  0  0  0  0
  160.8540  202.6940  151.8570 N   0  0  0  0  0  2  0  0  0  0  0  0
  1  3  1  0  0  0  0
  2  6  1  0  0  0  0
  2  1  1  0  0  0  0
  3  7  1  1  0  0  0
  4 29  1  6  0  0  0
  4  3  1  0  0  0  0
  6  5  1  0  0  0  0
  6  4  1  0  0  0  0
  7 10  2  0  0  0  0
  7  8  1  0  0  0  0
  8 13  2  0  0  0  0
  9 15  1  0  0  0  0
 10 14  1  0  0  0  0
 11 15  2  0  0  0  0
 12 11  1  0  0  0  0
 13 12  1  0  0  0  0
 14 16  1  0  0  0  0
 14 12  2  0  0  0  0
 16  9  2  0  0  0  0
 17 18  1  1  0  0  0
 17  2  1  0  0  0  0
 19 17  1  0  0  0  0
 20 25  1  0  0  0  0
 20 19  1  0  0  0  0
 21 24  1  0  0  0  0
 22 20  1  0  0  0  0
 24 23  2  0  0  0  0
 24 22  1  0  0  0  0
 26 27  1  0  0  0  0
 26 25  1  0  0  0  0
 28 27  1  0  0  0  0
 29 30  1  0  0  0  0
 31 32  1  0  0  0  0
 32 30  1  0  0  0  0
M  END
>  <MODEL>
7

>  <REMARK>
 VINA RESULT:      -6.0      2.236      4.226
  Name = 
  11 active torsions:
  status: ('A' for Active; 'I' for Inactive)
    1  A    between atoms: C_2  and  C_5
    2  A    between atoms: C_3  and  C_8
    3  A    between atoms: C_3  and  N_20
    4  A    between atoms: N_4  and  C_24
    5  A    between atoms: C_8  and  C_22
    6  A    between atoms: N_13  and  C_18
    7  A    between atoms: N_13  and  N_29
    8  A    between atoms: C_14  and  C_18
    9  A    between atoms: N_15  and  N_20
   10  A    between atoms: C_16  and  N_20
   11  A    between atoms: C_16  and  C_24
                            x       y       z     vdW  Elec       q    Type
                         _______ _______ _______ _____ _____    ______ ____

>  <TORSDO>
F 11

$$$$
=
 OpenBabel11062408323D

 32 34  0  0  1  0  0  0  0  0999 V2000
  159.9270  209.4390  152.4580 N   0  0  0  0  0  2  0  0  0  0  0  0
  160.6360  210.0870  153.4940 N   0  0  0  0  0  0  0  0  0  0  0  0
  160.9030  208.9170  151.5230 C   0  0  1  0  0  3  0  0  0  0  0  0
  162.1980  209.5750  151.8760 C   0  0  2  0  0  3  0  0  0  0  0  0
  162.8730  210.0910  154.0310 C   0  0  0  0  0  1  0  0  0  0  0  0
  161.9110  210.4460  152.9980 N   0  0  0  0  0  0  0  0  0  0  0  0
  161.0200  207.4340  151.6570 C   0  0  0  0  0  0  0  0  0  0  0  0
  161.2170  206.8760  152.9260 C   0  0  0  0  0  3  0  0  0  0  0  0
  160.9540  203.0780  149.6440 C   0  0  0  0  0  3  0  0  0  0  0  0
  160.9070  206.6250  150.5610 N   0  0  0  0  0  0  0  0  0  0  0  0
  161.2810  203.2850  152.0390 C   0  0  0  0  0  3  0  0  0  0  0  0
  161.1940  204.6760  151.9310 C   0  0  0  0  0  0  0  0  0  0  0  0
  161.3060  205.4880  153.0610 C   0  0  0  0  0  3  0  0  0  0  0  0
  160.9890  205.2720  150.6670 C   0  0  0  0  0  0  0  0  0  0  0  0
  161.1620  202.4880  150.8950 C   0  0  0  0  0  3  0  0  0  0  0  0
  160.8660  204.4690  149.5290 C   0  0  0  0  0  3  0  0  0  0  0  0
  159.8810  211.3090  153.8180 C   0  0  2  0  0  3  0  0  0  0  0  0
  159.9930  212.3900  152.7450 C   0  0  0  0  0  1  0  0  0  0  0  0
  160.2450  211.8440  155.2260 C   0  0  0  0  0  2  0  0  0  0  0  0
  159.4670  211.3210  156.3660 N   0  0  0  0  0  0  0  0  0  0  0  0
  159.7830  207.5140  156.2970 C   0  0  0  0  0  1  0  0  0  0  0  0
  159.2000  209.9620  156.1380 N   0  0  0  0  0  2  0  0  0  0  0  0
  161.1140  209.2320  157.2610 O   0  0  0  0  0  0  0  0  0  0  0  0
  160.0830  208.9370  156.5990 C   0  0  0  0  0  0  0  0  0  0  0  0
  158.1980  212.0240  156.5400 C   0  0  0  0  0  2  0  0  0  0  0  0
  157.0660  211.1630  156.0210 C   0  0  0  0  0  2  0  0  0  0  0  0
  155.9690  212.0550  155.4750 C   0  0  0  0  0  2  0  0  0  0  0  0
  156.4800  212.7830  154.2470 C   0  0  0  0  0  1  0  0  0  0  0  0
  162.7210  210.3920  150.6990 C   0  0  0  0  0  2  0  0  0  0  0  0
  161.9480  210.1040  149.4990 N   0  0  0  0  0  2  0  0  0  0  0  0
  161.3940  212.1870  149.0060 O   0  0  0  0  0  1  0  0  0  0  0  0
  162.1640  211.1520  148.5930 N   0  0  0  0  0  2  0  0  0  0  0  0
  1  2  1  0  0  0  0
  2 17  1  0  0  0  0
  3  7  1  1  0  0  0
  3  4  1  0  0  0  0
  3  1  1  0  0  0  0
  4 29  1  6  0  0  0
  4  6  1  0  0  0  0
  6  2  1  0  0  0  0
  6  5  1  0  0  0  0
  7  8  1  0  0  0  0
  8 13  2  0  0  0  0
  9 15  1  0  0  0  0
 10 14  1  0  0  0  0
 10  7  2  0  0  0  0
 12 11  1  0  0  0  0
 12 13  1  0  0  0  0
 14 12  2  0  0  0  0
 15 11  2  0  0  0  0
 16  9  2  0  0  0  0
 16 14  1  0  0  0  0
 17 18  1  6  0  0  0
 17 19  1  0  0  0  0
 19 20  1  0  0  0  0
 20 25  1  0  0  0  0
 21 24  1  0  0  0  0
 22 20  1  0  0  0  0
 22 24  1  0  0  0  0
 24 23  2  0  0  0  0
 26 25  1  0  0  0  0
 27 26  1  0  0  0  0
 28 27  1  0  0  0  0
 30 29  1  0  0  0  0
 32 31  1  0  0  0  0
 32 30  1  0  0  0  0
M  END
>  <MODEL>
8

>  <REMARK>
 VINA RESULT:      -5.9      3.531      8.746
  Name = 
  11 active torsions:
  status: ('A' for Active; 'I' for Inactive)
    1  A    between atoms: C_2  and  C_5
    2  A    between atoms: C_3  and  C_8
    3  A    between atoms: C_3  and  N_20
    4  A    between atoms: N_4  and  C_24
    5  A    between atoms: C_8  and  C_22
    6  A    between atoms: N_13  and  C_18
    7  A    between atoms: N_13  and  N_29
    8  A    between atoms: C_14  and  C_18
    9  A    between atoms: N_15  and  N_20
   10  A    between atoms: C_16  and  N_20
   11  A    between atoms: C_16  and  C_24
                            x       y       z     vdW  Elec       q    Type
                         _______ _______ _______ _____ _____    ______ ____

>  <TORSDO>
F 11

$$$$
=
 OpenBabel11062408323D

 32 34  0  0  1  0  0  0  0  0999 V2000
  159.8450  209.5850  152.1180 N   0  0  0  0  0  2  0  0  0  0  0  0
  160.3860  210.2870  153.2180 N   0  0  0  0  0  0  0  0  0  0  0  0
  160.9520  209.0190  151.3750 C   0  0  1  0  0  3  0  0  0  0  0  0
  162.1800  209.6960  151.8930 C   0  0  2  0  0  3  0  0  0  0  0  0
  162.5120  210.3230  154.0980 C   0  0  0  0  0  1  0  0  0  0  0  0
  161.7260  210.6230  152.9100 N   0  0  0  0  0  0  0  0  0  0  0  0
  161.0380  207.5440  151.6010 C   0  0  0  0  0  0  0  0  0  0  0  0
  161.2170  207.0620  152.9040 C   0  0  0  0  0  3  0  0  0  0  0  0
  160.8920  203.0750  149.8600 C   0  0  0  0  0  3  0  0  0  0  0  0
  160.9130  206.6710  150.5570 N   0  0  0  0  0  0  0  0  0  0  0  0
  161.2120  203.4220  152.2390 C   0  0  0  0  0  3  0  0  0  0  0  0
  161.1540  204.8050  152.0460 C   0  0  0  0  0  0  0  0  0  0  0  0
  161.2770  205.6840  153.1240 C   0  0  0  0  0  3  0  0  0  0  0  0
  160.9670  205.3270  150.7460 C   0  0  0  0  0  0  0  0  0  0  0  0
  161.0820  202.5590  151.1460 C   0  0  0  0  0  3  0  0  0  0  0  0
  160.8330  204.4570  149.6590 C   0  0  0  0  0  3  0  0  0  0  0  0
  159.5970  211.5220  153.3570 C   0  0  2  0  0  3  0  0  0  0  0  0
  159.9790  212.6000  152.3450 C   0  0  0  0  0  1  0  0  0  0  0  0
  159.6260  212.0520  154.8130 C   0  0  0  0  0  2  0  0  0  0  0  0
  159.1460  211.1410  155.8710 N   0  0  0  0  0  0  0  0  0  0  0  0
  155.7260  212.3550  157.0670 C   0  0  0  0  0  1  0  0  0  0  0  0
  158.1390  211.7950  156.5990 N   0  0  0  0  0  2  0  0  0  0  0  0
  156.4010  210.8140  155.3860 O   0  0  0  0  0  0  0  0  0  0  0  0
  156.7550  211.6080  156.2980 C   0  0  0  0  0  0  0  0  0  0  0  0
  160.2100  210.7520  156.7920 C   0  0  0  0  0  2  0  0  0  0  0  0
  159.9840  209.3290  157.2570 C   0  0  0  0  0  2  0  0  0  0  0  0
  160.0600  208.3940  156.0670 C   0  0  0  0  0  2  0  0  0  0  0  0
  160.0720  206.9590  156.5570 C   0  0  0  0  0  1  0  0  0  0  0  0
  162.8850  210.4530  150.7730 C   0  0  0  0  0  2  0  0  0  0  0  0
  162.1530  210.3050  149.5220 N   0  0  0  0  0  2  0  0  0  0  0  0
  162.8580  211.8730  148.1320 O   0  0  0  0  0  1  0  0  0  0  0  0
  161.8850  211.5910  149.0330 N   0  0  0  0  0  2  0  0  0  0  0  0
  1  2  1  0  0  0  0
  2 17  1  0  0  0  0
  3  7  1  1  0  0  0
  3  4  1  0  0  0  0
  3  1  1  0  0  0  0
  4 29  1  6  0  0  0
  4  6  1  0  0  0  0
  6  2  1  0  0  0  0
  6  5  1  0  0  0  0
  7  8  1  0  0  0  0
  8 13  2  0  0  0  0
  9 15  1  0  0  0  0
 10 14  1  0  0  0  0
 10  7  2  0  0  0  0
 12 11  1  0  0  0  0
 12 13  1  0  0  0  0
 14 12  2  0  0  0  0
 15 11  2  0  0  0  0
 16  9  2  0  0  0  0
 16 14  1  0  0  0  0
 17 18  1  6  0  0  0
 17 19  1  0  0  0  0
 19 20  1  0  0  0  0
 20 22  1  0  0  0  0
 20 25  1  0  0  0  0
 23 24  2  0  0  0  0
 24 22  1  0  0  0  0
 24 21  1  0  0  0  0
 25 26  1  0  0  0  0
 27 28  1  0  0  0  0
 27 26  1  0  0  0  0
 30 29  1  0  0  0  0
 31 32  1  0  0  0  0
 32 30  1  0  0  0  0
M  END
>  <MODEL>
9

>  <REMARK>
 VINA RESULT:      -5.9      3.547      8.975
  Name = 
  11 active torsions:
  status: ('A' for Active; 'I' for Inactive)
    1  A    between atoms: C_2  and  C_5
    2  A    between atoms: C_3  and  C_8
    3  A    between atoms: C_3  and  N_20
    4  A    between atoms: N_4  and  C_24
    5  A    between atoms: C_8  and  C_22
    6  A    between atoms: N_13  and  C_18
    7  A    between atoms: N_13  and  N_29
    8  A    between atoms: C_14  and  C_18
    9  A    between atoms: N_15  and  N_20
   10  A    between atoms: C_16  and  N_20
   11  A    between atoms: C_16  and  C_24
                            x       y       z     vdW  Elec       q    Type
                         _______ _______ _______ _____ _____    ______ ____

>  <TORSDO>
F 11

$$$$
