=
 OpenBabel11062408183D

 32 34  0  0  1  0  0  0  0  0999 V2000
  161.2290  207.9020  152.4340 C   0  0  2  0  0  3  0  0  0  0  0  0
  160.5860  207.7950  153.8300 C   0  0  1  0  0  3  0  0  0  0  0  0
  160.5020  206.3460  154.2730 C   0  0  0  0  0  1  0  0  0  0  0  0
  163.0000  210.7010  156.2520 C   0  0  0  0  0  1  0  0  0  0  0  0
  160.8150  210.0120  155.0940 N   0  0  0  0  0  0  0  0  0  0  0  0
  161.5600  210.9240  155.9350 C   0  0  0  0  0  0  0  0  0  0  0  0
  161.0070  211.9600  156.3930 O   0  0  0  0  0  0  0  0  0  0  0  0
  162.1130  208.1310  155.6380 O   0  0  0  0  0  0  0  0  0  0  0  0
  161.2340  208.6460  154.8930 C   0  0  0  0  0  0  0  0  0  0  0  0
  159.7390  212.0310  153.5870 S   0  0  0  0  0  0  0  0  0  0  0  0
  158.0010  212.4630  153.8990 C   0  0  0  0  0  2  0  0  0  0  0  0
  159.5590  210.4420  154.4690 C   0  0  2  0  0  3  0  0  0  0  0  0
  156.4440  211.8000  155.5420 O   0  0  0  0  0  0  0  0  0  0  0  0
  158.4260  210.5250  155.4790 C   0  0  0  0  0  2  0  0  0  0  0  0
  157.5260  211.6090  155.0160 C   0  0  0  0  0  0  0  0  0  0  0  0
  160.9780  209.2340  151.7360 C   0  0  0  0  0  2  0  0  0  0  0  0
  162.2910  209.9550  151.4810 C   0  0  0  0  0  2  0  0  0  0  0  0
  162.4390  210.2660  150.0010 C   0  0  0  0  0  2  0  0  0  0  0  0
  161.8760  211.5120  149.7140 O   0  0  0  0  0  0  0  0  0  0  0  0
  163.0210  212.6180  147.9530 C   0  0  0  0  0  2  0  0  0  0  0  0
  161.0760  213.0100  146.4810 C   0  0  0  0  0  1  0  0  0  0  0  0
  161.9440  211.6200  148.3240 C   0  0  2  0  0  3  0  0  0  0  0  0
  161.5650  213.0330  147.9140 C   0  0  1  0  0  3  0  0  0  0  0  0
  160.9900  206.6940  151.5120 C   0  0  1  0  0  3  0  0  0  0  0  0
  160.7850  207.1170  150.0620 C   0  0  0  0  0  2  0  0  0  0  0  0
  161.9870  207.0920  149.3530 O   0  0  0  0  0  1  0  0  0  0  0  0
  162.0280  205.5780  151.6280 C   0  0  0  0  0  2  0  0  0  0  0  0
  161.8280  203.0110  151.9610 C   0  0  0  0  0  2  0  0  0  0  0  0
  160.4650  203.6720  152.1230 C   0  0  0  0  0  2  0  0  0  0  0  0
  161.4760  204.2430  151.1530 C   0  0  0  0  0  0  0  0  0  0  0  0
  161.0650  204.0720  149.7210 C   0  0  0  0  0  3  0  0  0  0  0  0
  160.9960  202.9660  149.2040 O   0  0  0  0  0  0  0  0  0  0  0  0
  1 16  1  6  0  0  0
  1  2  1  0  0  0  0
  2  3  1  1  0  0  0
  2  9  1  0  0  0  0
  5  6  1  0  0  0  0
  6  4  1  0  0  0  0
  6  7  2  0  0  0  0
  9  5  1  0  0  0  0
  9  8  2  0  0  0  0
 10 11  1  0  0  0  0
 10 12  1  0  0  0  0
 11 15  1  0  0  0  0
 12  5  1  1  0  0  0
 12 14  1  0  0  0  0
 15 14  1  0  0  0  0
 15 13  2  0  0  0  0
 17 16  1  0  0  0  0
 18 17  1  0  0  0  0
 19 18  1  0  0  0  0
 20 22  1  0  0  0  0
 22 19  1  1  0  0  0
 23 21  1  6  0  0  0
 23 20  1  0  0  0  0
 23 22  1  0  0  0  0
 24 25  1  6  0  0  0
 24 27  1  0  0  0  0
 24  1  1  0  0  0  0
 26 25  1  0  0  0  0
 28 29  1  0  0  0  0
 30 27  1  0  0  0  0
 30 28  1  0  0  0  0
 30 29  1  0  0  0  0
 31 30  1  0  0  0  0
 32 31  2  0  0  0  0
M  END
>  <MODEL>
1

>  <REMARK>
 VINA RESULT:      -5.9      0.000      0.000
  Name = 
  13 active torsions:
  status: ('A' for Active; 'I' for Inactive)
    1  A    between atoms: C_1  and  C_5
    2  A    between atoms: C_1  and  C_27
    3  A    between atoms: C_2  and  C_5
    4  A    between atoms: C_2  and  C_28
    5  A    between atoms: C_5  and  C_14
    6  A    between atoms: C_6  and  C_29
    7  A    between atoms: O_10  and  C_12
    8  A    between atoms: O_10  and  C_32
    9  A    between atoms: C_14  and  C_18
   10  A    between atoms: C_14  and  C_21
   11  A    between atoms: C_15  and  N_16
   12  A    between atoms: C_18  and  C_29
   13  A    between atoms: C_28  and  C_32
                            x       y       z     vdW  Elec       q    Type
                         _______ _______ _______ _____ _____    ______ ____

>  <TORSDO>
F 13

$$$$
=
 OpenBabel11062408183D

 32 34  0  0  1  0  0  0  0  0999 V2000
  161.1280  206.9950  151.6630 C   0  0  2  0  0  3  0  0  0  0  0  0
  162.2100  205.9560  151.3130 C   0  0  1  0  0  3  0  0  0  0  0  0
  163.2770  205.9060  152.3900 C   0  0  0  0  0  1  0  0  0  0  0  0
  159.7940  202.2790  150.4210 C   0  0  0  0  0  1  0  0  0  0  0  0
  161.3070  204.2120  149.6670 N   0  0  0  0  0  0  0  0  0  0  0  0
  160.5900  202.9880  149.3780 C   0  0  0  0  0  0  0  0  0  0  0  0
  160.5950  202.5100  148.2120 O   0  0  0  0  0  0  0  0  0  0  0  0
  161.6320  203.7230  151.9420 O   0  0  0  0  0  0  0  0  0  0  0  0
  161.6860  204.5740  151.0120 C   0  0  0  0  0  0  0  0  0  0  0  0
  160.3400  206.0650  147.8960 S   0  0  0  0  0  0  0  0  0  0  0  0
  161.1100  206.1220  146.2510 C   0  0  0  0  0  2  0  0  0  0  0  0
  161.7310  205.0950  148.5740 C   0  0  2  0  0  3  0  0  0  0  0  0
  162.6850  204.7450  145.1590 O   0  0  0  0  0  0  0  0  0  0  0  0
  162.4270  204.3250  147.4640 C   0  0  0  0  0  2  0  0  0  0  0  0
  162.1270  205.0410  146.2010 C   0  0  0  0  0  0  0  0  0  0  0  0
  160.8930  208.0370  150.5750 C   0  0  0  0  0  2  0  0  0  0  0  0
  162.2140  208.4620  149.9540 C   0  0  0  0  0  2  0  0  0  0  0  0
  161.9670  209.4380  148.8160 C   0  0  0  0  0  2  0  0  0  0  0  0
  162.1000  210.7510  149.2740 O   0  0  0  0  0  0  0  0  0  0  0  0
  163.0430  212.4750  147.9410 C   0  0  0  0  0  2  0  0  0  0  0  0
  160.9710  213.7600  147.5390 C   0  0  0  0  0  1  0  0  0  0  0  0
  161.8660  211.5450  148.1500 C   0  0  2  0  0  3  0  0  0  0  0  0
  161.7710  213.0000  148.5750 C   0  0  1  0  0  3  0  0  0  0  0  0
  161.2530  207.6170  153.0650 C   0  0  1  0  0  3  0  0  0  0  0  0
  160.7860  209.0690  153.0860 C   0  0  0  0  0  2  0  0  0  0  0  0
  161.8650  209.9460  153.2090 O   0  0  0  0  0  1  0  0  0  0  0  0
  160.6120  206.8070  154.1910 C   0  0  0  0  0  2  0  0  0  0  0  0
  159.3950  208.3290  155.9070 C   0  0  0  0  0  2  0  0  0  0  0  0
  159.6800  206.9640  156.5200 C   0  0  0  0  0  2  0  0  0  0  0  0
  160.6380  207.5590  155.5120 C   0  0  0  0  0  0  0  0  0  0  0  0
  161.9510  207.9490  156.1230 C   0  0  0  0  0  3  0  0  0  0  0  0
  162.1800  209.1010  156.4630 O   0  0  0  0  0  0  0  0  0  0  0  0
  1 16  1  6  0  0  0
  1 24  1  0  0  0  0
  2  1  1  0  0  0  0
  2  3  1  1  0  0  0
  5  9  1  0  0  0  0
  6  5  1  0  0  0  0
  6  4  1  0  0  0  0
  7  6  2  0  0  0  0
  9  2  1  0  0  0  0
  9  8  2  0  0  0  0
 10 12  1  0  0  0  0
 11 10  1  0  0  0  0
 12  5  1  1  0  0  0
 13 15  2  0  0  0  0
 14 12  1  0  0  0  0
 15 11  1  0  0  0  0
 15 14  1  0  0  0  0
 17 16  1  0  0  0  0
 18 19  1  0  0  0  0
 18 17  1  0  0  0  0
 20 22  1  0  0  0  0
 20 23  1  0  0  0  0
 22 23  1  0  0  0  0
 22 19  1  1  0  0  0
 23 21  1  6  0  0  0
 24 25  1  6  0  0  0
 24 27  1  0  0  0  0
 25 26  1  0  0  0  0
 27 30  1  0  0  0  0
 28 29  1  0  0  0  0
 30 28  1  0  0  0  0
 30 31  1  0  0  0  0
 30 29  1  0  0  0  0
 31 32  2  0  0  0  0
M  END
>  <MODEL>
2

>  <REMARK>
 VINA RESULT:      -5.9      2.987      6.974
  Name = 
  13 active torsions:
  status: ('A' for Active; 'I' for Inactive)
    1  A    between atoms: C_1  and  C_5
    2  A    between atoms: C_1  and  C_27
    3  A    between atoms: C_2  and  C_5
    4  A    between atoms: C_2  and  C_28
    5  A    between atoms: C_5  and  C_14
    6  A    between atoms: C_6  and  C_29
    7  A    between atoms: O_10  and  C_12
    8  A    between atoms: O_10  and  C_32
    9  A    between atoms: C_14  and  C_18
   10  A    between atoms: C_14  and  C_21
   11  A    between atoms: C_15  and  N_16
   12  A    between atoms: C_18  and  C_29
   13  A    between atoms: C_28  and  C_32
                            x       y       z     vdW  Elec       q    Type
                         _______ _______ _______ _____ _____    ______ ____

>  <TORSDO>
F 13

$$$$
=
 OpenBabel11062408183D

 32 34  0  0  1  0  0  0  0  0999 V2000
  160.8030  207.4300  153.2220 C   0  0  2  0  0  3  0  0  0  0  0  0
  160.1610  208.0910  154.4560 C   0  0  1  0  0  3  0  0  0  0  0  0
  159.3680  207.0760  155.2590 C   0  0  0  0  0  1  0  0  0  0  0  0
  163.3210  210.7170  156.2630 C   0  0  0  0  0  1  0  0  0  0  0  0
  160.8670  210.2240  155.6870 N   0  0  0  0  0  0  0  0  0  0  0  0
  161.8680  211.0450  156.3360 C   0  0  0  0  0  0  0  0  0  0  0  0
  161.5280  212.0900  156.9530 O   0  0  0  0  0  0  0  0  0  0  0  0
  162.1200  208.2400  155.8180 O   0  0  0  0  0  0  0  0  0  0  0  0
  161.1200  208.8450  155.3420 C   0  0  0  0  0  0  0  0  0  0  0  0
  159.5870  212.2790  154.4050 S   0  0  0  0  0  0  0  0  0  0  0  0
  158.0680  212.9170  155.1730 C   0  0  0  0  0  2  0  0  0  0  0  0
  159.5280  210.7630  155.4220 C   0  0  2  0  0  3  0  0  0  0  0  0
  157.0120  212.5090  157.2430 O   0  0  0  0  0  0  0  0  0  0  0  0
  158.7590  211.0190  156.7070 C   0  0  0  0  0  2  0  0  0  0  0  0
  157.8680  212.1740  156.4430 C   0  0  0  0  0  0  0  0  0  0  0  0
  161.8010  206.3280  153.5580 C   0  0  0  0  0  2  0  0  0  0  0  0
  161.2010  204.9620  153.2700 C   0  0  0  0  0  2  0  0  0  0  0  0
  161.6350  204.4770  151.8980 C   0  0  0  0  0  2  0  0  0  0  0  0
  160.6600  203.6360  151.3550 O   0  0  0  0  0  0  0  0  0  0  0  0
  160.9400  203.3020  149.0210 C   0  0  0  0  0  2  0  0  0  0  0  0
  161.0420  200.8340  149.0440 C   0  0  0  0  0  1  0  0  0  0  0  0
  161.3420  202.8630  150.4140 C   0  0  2  0  0  3  0  0  0  0  0  0
  160.3390  202.0470  149.6170 C   0  0  1  0  0  3  0  0  0  0  0  0
  161.3320  208.4080  152.1600 C   0  0  1  0  0  3  0  0  0  0  0  0
  161.9110  209.6710  152.7890 C   0  0  0  0  0  2  0  0  0  0  0  0
  162.6900  210.3810  151.8740 O   0  0  0  0  0  1  0  0  0  0  0  0
  162.2960  207.7980  151.1430 C   0  0  0  0  0  2  0  0  0  0  0  0
  161.8700  208.9210  148.8400 C   0  0  0  0  0  2  0  0  0  0  0  0
  162.7340  207.6780  148.6700 C   0  0  0  0  0  2  0  0  0  0  0  0
  161.6800  207.7280  149.7540 C   0  0  0  0  0  0  0  0  0  0  0  0
  160.5360  206.7950  149.4920 C   0  0  0  0  0  3  0  0  0  0  0  0
  160.2210  206.4740  148.3550 O   0  0  0  0  0  0  0  0  0  0  0  0
  1 16  1  1  0  0  0
  1  2  1  0  0  0  0
  2  3  1  1  0  0  0
  2  9  1  0  0  0  0
  4  6  1  0  0  0  0
  5  6  1  0  0  0  0
  6  7  2  0  0  0  0
  9  5  1  0  0  0  0
  9  8  2  0  0  0  0
 10 11  1  0  0  0  0
 10 12  1  0  0  0  0
 11 15  1  0  0  0  0
 12  5  1  1  0  0  0
 12 14  1  0  0  0  0
 15 14  1  0  0  0  0
 15 13  2  0  0  0  0
 17 16  1  0  0  0  0
 18 17  1  0  0  0  0
 19 18  1  0  0  0  0
 20 23  1  0  0  0  0
 20 22  1  0  0  0  0
 22 19  1  1  0  0  0
 23 21  1  6  0  0  0
 23 22  1  0  0  0  0
 24 27  1  1  0  0  0
 24 25  1  0  0  0  0
 24  1  1  0  0  0  0
 26 25  1  0  0  0  0
 28 30  1  0  0  0  0
 29 28  1  0  0  0  0
 29 30  1  0  0  0  0
 30 27  1  0  0  0  0
 31 30  1  0  0  0  0
 32 31  2  0  0  0  0
M  END
>  <MODEL>
3

>  <REMARK>
 VINA RESULT:      -5.8      1.881      4.912
  Name = 
  13 active torsions:
  status: ('A' for Active; 'I' for Inactive)
    1  A    between atoms: C_1  and  C_5
    2  A    between atoms: C_1  and  C_27
    3  A    between atoms: C_2  and  C_5
    4  A    between atoms: C_2  and  C_28
    5  A    between atoms: C_5  and  C_14
    6  A    between atoms: C_6  and  C_29
    7  A    between atoms: O_10  and  C_12
    8  A    between atoms: O_10  and  C_32
    9  A    between atoms: C_14  and  C_18
   10  A    between atoms: C_14  and  C_21
   11  A    between atoms: C_15  and  N_16
   12  A    between atoms: C_18  and  C_29
   13  A    between atoms: C_28  and  C_32
                            x       y       z     vdW  Elec       q    Type
                         _______ _______ _______ _____ _____    ______ ____

>  <TORSDO>
F 13

$$$$
=
 OpenBabel11062408183D

 32 34  0  0  1  0  0  0  0  0999 V2000
  161.5910  208.0390  152.2710 C   0  0  2  0  0  3  0  0  0  0  0  0
  160.7350  207.9020  153.5440 C   0  0  1  0  0  3  0  0  0  0  0  0
  160.5810  206.4430  153.9350 C   0  0  0  0  0  1  0  0  0  0  0  0
  162.7370  210.7400  156.3870 C   0  0  0  0  0  1  0  0  0  0  0  0
  160.7640  210.0900  154.8780 N   0  0  0  0  0  0  0  0  0  0  0  0
  161.3680  210.9790  155.8480 C   0  0  0  0  0  0  0  0  0  0  0  0
  160.7520  212.0080  156.2340 O   0  0  0  0  0  0  0  0  0  0  0  0
  161.9530  208.1890  155.5820 O   0  0  0  0  0  0  0  0  0  0  0  0
  161.2070  208.7250  154.7170 C   0  0  0  0  0  0  0  0  0  0  0  0
  160.0210  212.0410  153.1050 S   0  0  0  0  0  0  0  0  0  0  0  0
  158.2920  212.5980  153.1610 C   0  0  0  0  0  2  0  0  0  0  0  0
  159.6260  210.5410  154.0690 C   0  0  2  0  0  3  0  0  0  0  0  0
  156.5030  212.1600  154.6370 O   0  0  0  0  0  0  0  0  0  0  0  0
  158.3870  210.7710  154.9180 C   0  0  0  0  0  2  0  0  0  0  0  0
  157.6270  211.8650  154.2680 C   0  0  0  0  0  0  0  0  0  0  0  0
  161.1270  209.1430  151.3280 C   0  0  0  0  0  2  0  0  0  0  0  0
  162.3190  209.9260  150.8020 C   0  0  0  0  0  2  0  0  0  0  0  0
  162.0550  210.3870  149.3780 C   0  0  0  0  0  2  0  0  0  0  0  0
  161.7780  211.7560  149.3610 O   0  0  0  0  0  0  0  0  0  0  0  0
  163.3950  212.4920  147.7860 C   0  0  0  0  0  2  0  0  0  0  0  0
  161.9930  214.1580  146.6180 C   0  0  0  0  0  1  0  0  0  0  0  0
  161.9430  212.1350  148.0270 C   0  0  2  0  0  3  0  0  0  0  0  0
  162.3700  213.5910  147.9710 C   0  0  1  0  0  3  0  0  0  0  0  0
  161.8860  206.7180  151.5400 C   0  0  1  0  0  3  0  0  0  0  0  0
  162.5630  205.7020  152.4540 C   0  0  0  0  0  2  0  0  0  0  0  0
  162.3130  204.3950  152.0310 O   0  0  0  0  0  1  0  0  0  0  0  0
  160.6930  206.1040  150.8080 C   0  0  0  0  0  2  0  0  0  0  0  0
  160.7160  206.8910  148.3330 C   0  0  0  0  0  2  0  0  0  0  0  0
  162.1390  206.6810  148.8340 C   0  0  0  0  0  2  0  0  0  0  0  0
  161.0160  205.8090  149.3510 C   0  0  0  0  0  0  0  0  0  0  0  0
  161.1230  204.3890  148.8830 C   0  0  0  0  0  3  0  0  0  0  0  0
  160.5930  203.4730  149.4940 O   0  0  0  0  0  0  0  0  0  0  0  0
  1 16  1  6  0  0  0
  1  2  1  0  0  0  0
  2  3  1  1  0  0  0
  2  9  1  0  0  0  0
  5  6  1  0  0  0  0
  6  7  2  0  0  0  0
  6  4  1  0  0  0  0
  9  5  1  0  0  0  0
  9  8  2  0  0  0  0
 10 11  1  0  0  0  0
 10 12  1  0  0  0  0
 11 15  1  0  0  0  0
 12  5  1  1  0  0  0
 12 14  1  0  0  0  0
 15 13  2  0  0  0  0
 15 14  1  0  0  0  0
 17 16  1  0  0  0  0
 18 17  1  0  0  0  0
 19 18  1  0  0  0  0
 20 23  1  0  0  0  0
 20 22  1  0  0  0  0
 22 19  1  1  0  0  0
 23 21  1  6  0  0  0
 23 22  1  0  0  0  0
 24 27  1  1  0  0  0
 24  1  1  0  0  0  0
 24 25  1  0  0  0  0
 26 25  1  0  0  0  0
 28 29  1  0  0  0  0
 28 30  1  0  0  0  0
 29 30  1  0  0  0  0
 30 27  1  0  0  0  0
 31 30  1  0  0  0  0
 31 32  2  0  0  0  0
M  END
>  <MODEL>
4

>  <REMARK>
 VINA RESULT:      -5.7      1.226      1.743
  Name = 
  13 active torsions:
  status: ('A' for Active; 'I' for Inactive)
    1  A    between atoms: C_1  and  C_5
    2  A    between atoms: C_1  and  C_27
    3  A    between atoms: C_2  and  C_5
    4  A    between atoms: C_2  and  C_28
    5  A    between atoms: C_5  and  C_14
    6  A    between atoms: C_6  and  C_29
    7  A    between atoms: O_10  and  C_12
    8  A    between atoms: O_10  and  C_32
    9  A    between atoms: C_14  and  C_18
   10  A    between atoms: C_14  and  C_21
   11  A    between atoms: C_15  and  N_16
   12  A    between atoms: C_18  and  C_29
   13  A    between atoms: C_28  and  C_32
                            x       y       z     vdW  Elec       q    Type
                         _______ _______ _______ _____ _____    ______ ____

>  <TORSDO>
F 13

$$$$
=
 OpenBabel11062408183D

 32 34  0  0  1  0  0  0  0  0999 V2000
  161.3590  208.8590  153.0510 C   0  0  2  0  0  3  0  0  0  0  0  0
  160.8400  210.1240  153.7630 C   0  0  1  0  0  3  0  0  0  0  0  0
  161.9000  210.6920  154.6890 C   0  0  0  0  0  1  0  0  0  0  0  0
  158.6150  212.6150  150.7660 C   0  0  0  0  0  1  0  0  0  0  0  0
  159.0970  211.9110  153.1880 N   0  0  0  0  0  0  0  0  0  0  0  0
  158.4240  212.7710  152.2370 C   0  0  0  0  0  0  0  0  0  0  0  0
  157.6230  213.6570  152.6400 O   0  0  0  0  0  0  0  0  0  0  0  0
  160.9430  211.4820  151.7980 O   0  0  0  0  0  0  0  0  0  0  0  0
  160.3010  211.1920  152.8450 C   0  0  0  0  0  0  0  0  0  0  0  0
  156.8130  211.4410  154.6250 S   0  0  0  0  0  0  0  0  0  0  0  0
  156.6350  212.3150  156.2090 C   0  0  0  0  0  2  0  0  0  0  0  0
  158.6020  211.8020  154.5650 C   0  0  2  0  0  3  0  0  0  0  0  0
  157.8840  214.0190  157.2610 O   0  0  0  0  0  0  0  0  0  0  0  0
  158.9170  213.0480  155.3770 C   0  0  0  0  0  2  0  0  0  0  0  0
  157.8200  213.1960  156.3640 C   0  0  0  0  0  0  0  0  0  0  0  0
  160.8530  208.7010  151.6220 C   0  0  0  0  0  2  0  0  0  0  0  0
  162.0200  208.5320  150.6620 C   0  0  0  0  0  2  0  0  0  0  0  0
  161.5120  208.1390  149.2850 C   0  0  0  0  0  2  0  0  0  0  0  0
  162.5280  207.5070  148.5630 O   0  0  0  0  0  0  0  0  0  0  0  0
  160.5790  206.2520  148.0460 C   0  0  0  0  0  2  0  0  0  0  0  0
  161.6310  204.6040  146.5350 C   0  0  0  0  0  1  0  0  0  0  0  0
  161.8670  206.8520  147.5210 C   0  0  2  0  0  3  0  0  0  0  0  0
  161.7900  205.3680  147.8330 C   0  0  1  0  0  3  0  0  0  0  0  0
  161.2480  207.5610  153.8680 C   0  0  1  0  0  3  0  0  0  0  0  0
  160.7530  207.8220  155.2860 C   0  0  0  0  0  2  0  0  0  0  0  0
  159.7300  206.9390  155.6360 O   0  0  0  0  0  1  0  0  0  0  0  0
  160.4550  206.4400  153.1960 C   0  0  0  0  0  2  0  0  0  0  0  0
  160.8310  203.9750  152.4740 C   0  0  0  0  0  2  0  0  0  0  0  0
  160.8560  204.8910  151.2580 C   0  0  0  0  0  2  0  0  0  0  0  0
  161.3690  205.3860  152.5920 C   0  0  0  0  0  0  0  0  0  0  0  0
  162.8540  205.5920  152.6010 C   0  0  0  0  0  3  0  0  0  0  0  0
  163.4660  205.8780  151.5810 O   0  0  0  0  0  0  0  0  0  0  0  0
  1 16  1  6  0  0  0
  1  2  1  0  0  0  0
  1 24  1  0  0  0  0
  2  3  1  6  0  0  0
  4  6  1  0  0  0  0
  6  7  2  0  0  0  0
  6  5  1  0  0  0  0
  8  9  2  0  0  0  0
  9  5  1  0  0  0  0
  9  2  1  0  0  0  0
 10 11  1  0  0  0  0
 11 15  1  0  0  0  0
 12  5  1  6  0  0  0
 12 10  1  0  0  0  0
 12 14  1  0  0  0  0
 14 15  1  0  0  0  0
 15 13  2  0  0  0  0
 17 16  1  0  0  0  0
 18 17  1  0  0  0  0
 19 18  1  0  0  0  0
 22 23  1  0  0  0  0
 22 20  1  0  0  0  0
 22 19  1  1  0  0  0
 23 21  1  6  0  0  0
 23 20  1  0  0  0  0
 24 27  1  6  0  0  0
 24 25  1  0  0  0  0
 25 26  1  0  0  0  0
 28 30  1  0  0  0  0
 29 28  1  0  0  0  0
 29 30  1  0  0  0  0
 30 31  1  0  0  0  0
 30 27  1  0  0  0  0
 32 31  2  0  0  0  0
M  END
>  <MODEL>
5

>  <REMARK>
 VINA RESULT:      -5.3      2.462      4.254
  Name = 
  13 active torsions:
  status: ('A' for Active; 'I' for Inactive)
    1  A    between atoms: C_1  and  C_5
    2  A    between atoms: C_1  and  C_27
    3  A    between atoms: C_2  and  C_5
    4  A    between atoms: C_2  and  C_28
    5  A    between atoms: C_5  and  C_14
    6  A    between atoms: C_6  and  C_29
    7  A    between atoms: O_10  and  C_12
    8  A    between atoms: O_10  and  C_32
    9  A    between atoms: C_14  and  C_18
   10  A    between atoms: C_14  and  C_21
   11  A    between atoms: C_15  and  N_16
   12  A    between atoms: C_18  and  C_29
   13  A    between atoms: C_28  and  C_32
                            x       y       z     vdW  Elec       q    Type
                         _______ _______ _______ _____ _____    ______ ____

>  <TORSDO>
F 13

$$$$
=
 OpenBabel11062408183D

 32 34  0  0  1  0  0  0  0  0999 V2000
  161.7840  208.1920  151.7830 C   0  0  2  0  0  3  0  0  0  0  0  0
  161.1810  209.2710  152.7020 C   0  0  1  0  0  3  0  0  0  0  0  0
  161.9570  209.3640  154.0030 C   0  0  0  0  0  1  0  0  0  0  0  0
  159.9660  212.9240  150.3940 C   0  0  0  0  0  1  0  0  0  0  0  0
  160.0590  211.5710  152.5750 N   0  0  0  0  0  0  0  0  0  0  0  0
  159.7240  212.7840  151.8590 C   0  0  0  0  0  0  0  0  0  0  0  0
  159.1790  213.7470  152.4630 O   0  0  0  0  0  0  0  0  0  0  0  0
  161.8010  210.9560  151.1230 O   0  0  0  0  0  0  0  0  0  0  0  0
  161.0310  210.6320  152.0690 C   0  0  0  0  0  0  0  0  0  0  0  0
  157.6420  211.4990  153.8640 S   0  0  0  0  0  0  0  0  0  0  0  0
  157.6230  211.9830  155.6160 C   0  0  0  0  0  2  0  0  0  0  0  0
  159.4570  211.2960  153.8850 C   0  0  2  0  0  3  0  0  0  0  0  0
  159.2460  212.9200  157.0490 O   0  0  0  0  0  0  0  0  0  0  0  0
  160.0720  212.1540  154.9780 C   0  0  0  0  0  2  0  0  0  0  0  0
  159.0030  212.3940  155.9770 C   0  0  0  0  0  0  0  0  0  0  0  0
  161.1940  208.1750  150.3770 C   0  0  0  0  0  2  0  0  0  0  0  0
  162.3020  208.1000  149.3380 C   0  0  0  0  0  2  0  0  0  0  0  0
  161.7450  207.6030  148.0150 C   0  0  0  0  0  2  0  0  0  0  0  0
  162.4280  206.4530  147.6100 O   0  0  0  0  0  0  0  0  0  0  0  0
  160.4530  206.1990  146.3170 C   0  0  0  0  0  2  0  0  0  0  0  0
  161.2240  204.3360  144.8880 C   0  0  0  0  0  1  0  0  0  0  0  0
  161.9680  206.2040  146.3150 C   0  0  2  0  0  3  0  0  0  0  0  0
  161.2110  204.8880  146.2980 C   0  0  1  0  0  3  0  0  0  0  0  0
  161.8810  206.7880  152.4040 C   0  0  1  0  0  3  0  0  0  0  0  0
  160.6100  206.4110  153.1570 C   0  0  0  0  0  2  0  0  0  0  0  0
  160.8650  206.2250  154.5170 O   0  0  0  0  0  1  0  0  0  0  0  0
  162.3070  205.6820  151.4380 C   0  0  0  0  0  2  0  0  0  0  0  0
  160.0950  205.1030  150.2090 C   0  0  0  0  0  2  0  0  0  0  0  0
  161.2070  204.1630  149.7650 C   0  0  0  0  0  2  0  0  0  0  0  0
  161.1820  204.6930  151.1810 C   0  0  0  0  0  0  0  0  0  0  0  0
  160.8790  203.6270  152.1920 C   0  0  0  0  0  3  0  0  0  0  0  0
  161.2040  202.4630  152.0100 O   0  0  0  0  0  0  0  0  0  0  0  0
  1 16  1  6  0  0  0
  1 24  1  0  0  0  0
  1  2  1  0  0  0  0
  2  3  1  1  0  0  0
  4  6  1  0  0  0  0
  6  7  2  0  0  0  0
  6  5  1  0  0  0  0
  8  9  2  0  0  0  0
  9  5  1  0  0  0  0
  9  2  1  0  0  0  0
 10 12  1  0  0  0  0
 10 11  1  0  0  0  0
 11 15  1  0  0  0  0
 12  5  1  6  0  0  0
 12 14  1  0  0  0  0
 14 15  1  0  0  0  0
 15 13  2  0  0  0  0
 17 16  1  0  0  0  0
 18 17  1  0  0  0  0
 19 18  1  0  0  0  0
 22 20  1  0  0  0  0
 22 19  1  1  0  0  0
 23 21  1  6  0  0  0
 23 22  1  0  0  0  0
 23 20  1  0  0  0  0
 24 27  1  6  0  0  0
 24 25  1  0  0  0  0
 25 26  1  0  0  0  0
 28 30  1  0  0  0  0
 29 28  1  0  0  0  0
 29 30  1  0  0  0  0
 30 27  1  0  0  0  0
 30 31  1  0  0  0  0
 32 31  2  0  0  0  0
M  END
>  <MODEL>
6

>  <REMARK>
 VINA RESULT:      -5.2      2.323      4.127
  Name = 
  13 active torsions:
  status: ('A' for Active; 'I' for Inactive)
    1  A    between atoms: C_1  and  C_5
    2  A    between atoms: C_1  and  C_27
    3  A    between atoms: C_2  and  C_5
    4  A    between atoms: C_2  and  C_28
    5  A    between atoms: C_5  and  C_14
    6  A    between atoms: C_6  and  C_29
    7  A    between atoms: O_10  and  C_12
    8  A    between atoms: O_10  and  C_32
    9  A    between atoms: C_14  and  C_18
   10  A    between atoms: C_14  and  C_21
   11  A    between atoms: C_15  and  N_16
   12  A    between atoms: C_18  and  C_29
   13  A    between atoms: C_28  and  C_32
                            x       y       z     vdW  Elec       q    Type
                         _______ _______ _______ _____ _____    ______ ____

>  <TORSDO>
F 13

$$$$
=
 OpenBabel11062408183D

 32 34  0  0  1  0  0  0  0  0999 V2000
  160.5380  209.6310  152.5490 C   0  0  2  0  0  3  0  0  0  0  0  0
  161.2300  208.8590  151.4090 C   0  0  1  0  0  3  0  0  0  0  0  0
  162.4930  209.5750  150.9650 C   0  0  0  0  0  1  0  0  0  0  0  0
  161.1100  204.4760  152.3650 C   0  0  0  0  0  1  0  0  0  0  0  0
  161.3290  206.4040  150.6830 N   0  0  0  0  0  0  0  0  0  0  0  0
  161.3630  204.9890  150.9880 C   0  0  0  0  0  0  0  0  0  0  0  0
  161.5740  204.1490  150.0730 O   0  0  0  0  0  0  0  0  0  0  0  0
  161.9570  207.0890  152.8410 O   0  0  0  0  0  0  0  0  0  0  0  0
  161.5120  207.4080  151.7050 C   0  0  0  0  0  0  0  0  0  0  0  0
  159.6720  206.1690  148.5140 S   0  0  0  0  0  0  0  0  0  0  0  0
  160.4480  206.2060  146.8700 C   0  0  0  0  0  2  0  0  0  0  0  0
  161.1720  206.8580  149.2970 C   0  0  2  0  0  3  0  0  0  0  0  0
  162.6940  206.1870  146.1450 O   0  0  0  0  0  0  0  0  0  0  0  0
  162.3980  206.5410  148.4580 C   0  0  0  0  0  2  0  0  0  0  0  0
  161.9150  206.3060  147.0750 C   0  0  0  0  0  0  0  0  0  0  0  0
  160.3320  211.1130  152.2590 C   0  0  0  0  0  2  0  0  0  0  0  0
  158.8960  211.5160  152.5520 C   0  0  0  0  0  2  0  0  0  0  0  0
  158.8700  212.7610  153.4230 C   0  0  0  0  0  2  0  0  0  0  0  0
  158.4550  212.4310  154.7160 O   0  0  0  0  0  0  0  0  0  0  0  0
  156.3770  212.5300  155.8620 C   0  0  0  0  0  2  0  0  0  0  0  0
  155.4800  210.3500  155.1220 C   0  0  0  0  0  1  0  0  0  0  0  0
  157.0960  212.1350  154.5890 C   0  0  2  0  0  3  0  0  0  0  0  0
  156.7170  211.0760  155.6090 C   0  0  1  0  0  3  0  0  0  0  0  0
  161.1130  209.3730  153.9520 C   0  0  1  0  0  3  0  0  0  0  0  0
  162.2560  210.3270  154.2810 C   0  0  0  0  0  2  0  0  0  0  0  0
  161.9030  211.2030  155.3100 O   0  0  0  0  0  1  0  0  0  0  0  0
  160.0790  209.3300  155.0760 C   0  0  0  0  0  2  0  0  0  0  0  0
  159.1120  207.0470  155.8480 C   0  0  0  0  0  2  0  0  0  0  0  0
  160.4090  206.8380  155.0780 C   0  0  0  0  0  2  0  0  0  0  0  0
  160.2200  208.0770  155.9250 C   0  0  0  0  0  0  0  0  0  0  0  0
  161.1070  208.0910  157.1350 C   0  0  0  0  0  3  0  0  0  0  0  0
  162.0300  208.8860  157.2420 O   0  0  0  0  0  0  0  0  0  0  0  0
  1 16  1  6  0  0  0
  1 24  1  0  0  0  0
  2  3  1  1  0  0  0
  2  9  1  0  0  0  0
  2  1  1  0  0  0  0
  5  6  1  0  0  0  0
  5  9  1  0  0  0  0
  6  4  1  0  0  0  0
  7  6  2  0  0  0  0
  9  8  2  0  0  0  0
 10 12  1  0  0  0  0
 11 15  1  0  0  0  0
 11 10  1  0  0  0  0
 12  5  1  1  0  0  0
 13 15  2  0  0  0  0
 14 12  1  0  0  0  0
 15 14  1  0  0  0  0
 16 17  1  0  0  0  0
 17 18  1  0  0  0  0
 18 19  1  0  0  0  0
 22 19  1  1  0  0  0
 22 23  1  0  0  0  0
 22 20  1  0  0  0  0
 23 21  1  6  0  0  0
 23 20  1  0  0  0  0
 24 25  1  1  0  0  0
 24 27  1  0  0  0  0
 25 26  1  0  0  0  0
 27 30  1  0  0  0  0
 28 30  1  0  0  0  0
 29 28  1  0  0  0  0
 29 30  1  0  0  0  0
 30 31  1  0  0  0  0
 31 32  2  0  0  0  0
M  END
>  <MODEL>
7

>  <REMARK>
 VINA RESULT:      -5.0      2.871      7.302
  Name = 
  13 active torsions:
  status: ('A' for Active; 'I' for Inactive)
    1  A    between atoms: C_1  and  C_5
    2  A    between atoms: C_1  and  C_27
    3  A    between atoms: C_2  and  C_5
    4  A    between atoms: C_2  and  C_28
    5  A    between atoms: C_5  and  C_14
    6  A    between atoms: C_6  and  C_29
    7  A    between atoms: O_10  and  C_12
    8  A    between atoms: O_10  and  C_32
    9  A    between atoms: C_14  and  C_18
   10  A    between atoms: C_14  and  C_21
   11  A    between atoms: C_15  and  N_16
   12  A    between atoms: C_18  and  C_29
   13  A    between atoms: C_28  and  C_32
                            x       y       z     vdW  Elec       q    Type
                         _______ _______ _______ _____ _____    ______ ____

>  <TORSDO>
F 13

$$$$
=
 OpenBabel11062408183D

 32 34  0  0  1  0  0  0  0  0999 V2000
  160.8560  210.9040  153.5530 C   0  0  2  0  0  3  0  0  0  0  0  0
  159.7200  211.9130  153.8110 C   0  0  1  0  0  3  0  0  0  0  0  0
  160.0280  212.7700  155.0250 C   0  0  0  0  0  1  0  0  0  0  0  0
  158.4000  213.6300  149.8800 C   0  0  0  0  0  1  0  0  0  0  0  0
  157.9750  213.0960  152.3550 N   0  0  0  0  0  0  0  0  0  0  0  0
  157.5660  213.7160  151.1130 C   0  0  0  0  0  0  0  0  0  0  0  0
  156.4610  214.3190  151.0390 O   0  0  0  0  0  0  0  0  0  0  0  0
  160.2770  213.2470  151.9060 O   0  0  0  0  0  0  0  0  0  0  0  0
  159.3550  212.7730  152.6260 C   0  0  0  0  0  0  0  0  0  0  0  0
  157.0400  214.1120  154.7210 S   0  0  0  0  0  0  0  0  0  0  0  0
  156.4930  212.9170  155.9780 C   0  0  0  0  0  2  0  0  0  0  0  0
  156.9900  212.8390  153.4120 C   0  0  2  0  0  3  0  0  0  0  0  0
  156.6170  210.5660  156.1310 O   0  0  0  0  0  0  0  0  0  0  0  0
  157.1600  211.4540  154.0150 C   0  0  0  0  0  2  0  0  0  0  0  0
  156.7410  211.5580  155.4340 C   0  0  0  0  0  0  0  0  0  0  0  0
  160.6730  210.0760  152.2860 C   0  0  0  0  0  2  0  0  0  0  0  0
  161.9470  210.0880  151.4560 C   0  0  0  0  0  2  0  0  0  0  0  0
  161.9100  208.9730  150.4260 C   0  0  0  0  0  2  0  0  0  0  0  0
  161.0620  207.9500  150.8570 O   0  0  0  0  0  0  0  0  0  0  0  0
  160.6730  206.4760  149.0360 C   0  0  0  0  0  2  0  0  0  0  0  0
  161.1920  204.3590  150.1990 C   0  0  0  0  0  1  0  0  0  0  0  0
  161.5460  206.7990  150.2310 C   0  0  2  0  0  3  0  0  0  0  0  0
  160.5020  205.7010  150.3250 C   0  0  1  0  0  3  0  0  0  0  0  0
  161.2570  210.0510  154.7690 C   0  0  1  0  0  3  0  0  0  0  0  0
  162.0580  210.8550  155.7870 C   0  0  0  0  0  2  0  0  0  0  0  0
  162.8960  210.0280  156.5370 O   0  0  0  0  0  1  0  0  0  0  0  0
  160.1080  209.2930  155.4330 C   0  0  0  0  0  2  0  0  0  0  0  0
  160.3740  207.2410  157.0020 C   0  0  0  0  0  2  0  0  0  0  0  0
  159.2180  207.0200  156.0350 C   0  0  0  0  0  2  0  0  0  0  0  0
  160.4290  207.8160  155.6010 C   0  0  0  0  0  0  0  0  0  0  0  0
  161.2460  207.1070  154.5630 C   0  0  0  0  0  3  0  0  0  0  0  0
  160.7300  206.3650  153.7410 O   0  0  0  0  0  0  0  0  0  0  0  0
  1 16  1  6  0  0  0
  1  2  1  0  0  0  0
  1 24  1  0  0  0  0
  2  3  1  1  0  0  0
  4  6  1  0  0  0  0
  5  9  1  0  0  0  0
  6  5  1  0  0  0  0
  7  6  2  0  0  0  0
  8  9  2  0  0  0  0
  9  2  1  0  0  0  0
 10 11  1  0  0  0  0
 12  5  1  6  0  0  0
 12 14  1  0  0  0  0
 12 10  1  0  0  0  0
 14 15  1  0  0  0  0
 15 11  1  0  0  0  0
 15 13  2  0  0  0  0
 17 16  1  0  0  0  0
 18 19  1  0  0  0  0
 18 17  1  0  0  0  0
 20 22  1  0  0  0  0
 20 23  1  0  0  0  0
 22 23  1  0  0  0  0
 22 19  1  1  0  0  0
 23 21  1  6  0  0  0
 24 27  1  1  0  0  0
 24 25  1  0  0  0  0
 25 26  1  0  0  0  0
 27 30  1  0  0  0  0
 29 28  1  0  0  0  0
 30 29  1  0  0  0  0
 30 28  1  0  0  0  0
 31 30  1  0  0  0  0
 32 31  2  0  0  0  0
M  END
>  <MODEL>
8

>  <REMARK>
 VINA RESULT:      -4.9      2.496      5.453
  Name = 
  13 active torsions:
  status: ('A' for Active; 'I' for Inactive)
    1  A    between atoms: C_1  and  C_5
    2  A    between atoms: C_1  and  C_27
    3  A    between atoms: C_2  and  C_5
    4  A    between atoms: C_2  and  C_28
    5  A    between atoms: C_5  and  C_14
    6  A    between atoms: C_6  and  C_29
    7  A    between atoms: O_10  and  C_12
    8  A    between atoms: O_10  and  C_32
    9  A    between atoms: C_14  and  C_18
   10  A    between atoms: C_14  and  C_21
   11  A    between atoms: C_15  and  N_16
   12  A    between atoms: C_18  and  C_29
   13  A    between atoms: C_28  and  C_32
                            x       y       z     vdW  Elec       q    Type
                         _______ _______ _______ _____ _____    ______ ____

>  <TORSDO>
F 13

$$$$
=
 OpenBabel11062408183D

 32 34  0  0  1  0  0  0  0  0999 V2000
  160.8690  212.2920  148.5110 C   0  0  2  0  0  3  0  0  0  0  0  0
  160.5380  213.2710  149.6540 C   0  0  1  0  0  3  0  0  0  0  0  0
  161.4990  214.4460  149.6510 C   0  0  0  0  0  1  0  0  0  0  0  0
  156.0760  213.7520  149.6600 C   0  0  0  0  0  1  0  0  0  0  0  0
  158.3250  213.6280  150.8940 N   0  0  0  0  0  0  0  0  0  0  0  0
  156.8960  213.8560  150.9020 C   0  0  0  0  0  0  0  0  0  0  0  0
  156.3010  214.1140  151.9830 O   0  0  0  0  0  0  0  0  0  0  0  0
  158.6210  214.2960  148.6600 O   0  0  0  0  0  0  0  0  0  0  0  0
  159.1080  213.7470  149.6870 C   0  0  0  0  0  0  0  0  0  0  0  0
  158.6710  211.6520  152.7590 S   0  0  0  0  0  0  0  0  0  0  0  0
  158.9120  212.1730  154.4840 C   0  0  0  0  0  2  0  0  0  0  0  0
  159.0340  213.3330  152.1440 C   0  0  2  0  0  3  0  0  0  0  0  0
  158.7660  214.2600  155.5740 O   0  0  0  0  0  0  0  0  0  0  0  0
  158.7330  214.3650  153.2190 C   0  0  0  0  0  2  0  0  0  0  0  0
  158.8060  213.6530  154.5180 C   0  0  0  0  0  0  0  0  0  0  0  0
  162.1260  211.4630  148.7490 C   0  0  0  0  0  2  0  0  0  0  0  0
  161.7730  209.9890  148.8730 C   0  0  0  0  0  2  0  0  0  0  0  0
  162.0430  209.5040  150.2870 C   0  0  0  0  0  2  0  0  0  0  0  0
  161.6810  208.1600  150.4090 O   0  0  0  0  0  0  0  0  0  0  0  0
  162.5780  206.3900  151.7140 C   0  0  0  0  0  2  0  0  0  0  0  0
  161.1420  206.6780  153.7040 C   0  0  0  0  0  1  0  0  0  0  0  0
  162.0490  207.8100  151.7100 C   0  0  2  0  0  3  0  0  0  0  0  0
  161.1680  206.6700  152.1900 C   0  0  1  0  0  3  0  0  0  0  0  0
  160.8160  212.9000  147.0980 C   0  0  1  0  0  3  0  0  0  0  0  0
  162.1100  213.6240  146.7430 C   0  0  0  0  0  2  0  0  0  0  0  0
  162.7080  213.0660  145.6120 O   0  0  0  0  0  1  0  0  0  0  0  0
  160.3970  211.9300  145.9940 C   0  0  0  0  0  2  0  0  0  0  0  0
  157.9390  212.6280  145.5320 C   0  0  0  0  0  2  0  0  0  0  0  0
  158.8340  213.8580  145.5940 C   0  0  0  0  0  2  0  0  0  0  0  0
  159.3750  212.5530  145.0550 C   0  0  0  0  0  0  0  0  0  0  0  0
  159.6480  212.6040  143.5820 C   0  0  0  0  0  3  0  0  0  0  0  0
  159.9900  211.6090  142.9600 O   0  0  0  0  0  0  0  0  0  0  0  0
  1 16  1  1  0  0  0
  1  2  1  0  0  0  0
  2  3  1  6  0  0  0
  2  9  1  0  0  0  0
  4  6  1  0  0  0  0
  5  6  1  0  0  0  0
  6  7  2  0  0  0  0
  8  9  2  0  0  0  0
  9  5  1  0  0  0  0
 10 11  1  0  0  0  0
 11 15  1  0  0  0  0
 12  5  1  6  0  0  0
 12 10  1  0  0  0  0
 12 14  1  0  0  0  0
 14 15  1  0  0  0  0
 15 13  2  0  0  0  0
 16 17  1  0  0  0  0
 17 18  1  0  0  0  0
 18 19  1  0  0  0  0
 20 23  1  0  0  0  0
 22 19  1  6  0  0  0
 22 20  1  0  0  0  0
 22 23  1  0  0  0  0
 23 21  1  1  0  0  0
 24 27  1  6  0  0  0
 24  1  1  0  0  0  0
 25 24  1  0  0  0  0
 26 25  1  0  0  0  0
 28 29  1  0  0  0  0
 30 28  1  0  0  0  0
 30 29  1  0  0  0  0
 30 27  1  0  0  0  0
 31 30  1  0  0  0  0
 32 31  2  0  0  0  0
M  END
>  <MODEL>
9

>  <REMARK>
 VINA RESULT:      -4.8      2.911      7.416
  Name = 
  13 active torsions:
  status: ('A' for Active; 'I' for Inactive)
    1  A    between atoms: C_1  and  C_5
    2  A    between atoms: C_1  and  C_27
    3  A    between atoms: C_2  and  C_5
    4  A    between atoms: C_2  and  C_28
    5  A    between atoms: C_5  and  C_14
    6  A    between atoms: C_6  and  C_29
    7  A    between atoms: O_10  and  C_12
    8  A    between atoms: O_10  and  C_32
    9  A    between atoms: C_14  and  C_18
   10  A    between atoms: C_14  and  C_21
   11  A    between atoms: C_15  and  N_16
   12  A    between atoms: C_18  and  C_29
   13  A    between atoms: C_28  and  C_32
                            x       y       z     vdW  Elec       q    Type
                         _______ _______ _______ _____ _____    ______ ____

>  <TORSDO>
F 13

$$$$
