=
 OpenBabel11062409373D

 34 36  0  0  1  0  0  0  0  0999 V2000
  160.3740  209.9340  153.3900 C   0  0  0  0  0  0  0  0  0  0  0  0
  161.7830  208.1710  152.3330 C   0  0  1  0  0  3  0  0  0  0  0  0
  160.8270  209.3180  152.2930 C   0  0  0  0  0  3  0  0  0  0  0  0
  160.8230  207.0080  154.3040 C   0  0  0  0  0  3  0  0  0  0  0  0
  161.0450  207.9060  156.4860 F   0  0  0  0  0  0  0  0  0  0  0  0
  161.1760  206.9930  153.0190 C   0  0  0  0  0  3  0  0  0  0  0  0
  161.0570  210.4340  155.5950 O   0  0  0  0  0  0  0  0  0  0  0  0
  160.8260  209.5300  154.7490 C   0  0  0  0  0  0  0  0  0  0  0  0
  160.9490  208.1540  155.1600 N   0  0  0  0  0  0  0  0  0  0  0  0
  157.5310  212.4130  153.8890 C   0  0  0  0  0  3  0  0  0  0  0  0
  158.0350  210.3960  155.0260 F   0  0  0  0  0  0  0  0  0  0  0  0
  157.7950  213.3500  152.8860 C   0  0  0  0  0  0  0  0  0  0  0  0
  158.8970  213.1530  152.0430 C   0  0  0  0  0  3  0  0  0  0  0  0
  158.3560  211.2980  154.0640 C   0  0  0  0  0  0  0  0  0  0  0  0
  159.7250  212.0420  152.2100 C   0  0  0  0  0  3  0  0  0  0  0  0
  159.4730  211.1040  153.2250 C   0  0  0  0  0  0  0  0  0  0  0  0
  156.9340  214.4520  152.7630 O   0  0  0  0  0  0  0  0  0  0  0  0
  154.6610  214.3680  153.2460 O   0  0  0  0  0  0  0  0  0  0  0  0
  155.2320  214.4180  150.9470 C   0  0  0  0  0  1  0  0  0  0  0  0
  155.5840  214.4120  152.3910 C   0  0  0  0  0  0  0  0  0  0  0  0
  162.2370  207.8300  151.0210 O   0  0  0  0  0  0  0  0  0  0  0  0
  160.5000  206.3130  148.1040 C   0  0  0  0  0  2  0  0  0  0  0  0
  161.4220  205.5240  150.6540 C   0  0  0  0  0  3  0  0  0  0  0  0
  160.9350  204.8580  148.3280 C   0  0  2  0  0  3  0  0  0  0  0  0
  161.0580  204.5590  149.8050 C   0  0  0  0  0  0  0  0  0  0  0  0
  161.6160  206.9020  150.1750 C   0  0  0  0  0  0  0  0  0  0  0  0
  161.2320  207.2350  148.9750 N   0  0  0  0  0  0  0  0  0  0  0  0
  162.3780  204.2050  146.3610 C   0  0  0  0  0  3  0  0  0  0  0  0
  162.2340  204.5810  147.6370 C   0  0  0  0  0  3  0  0  0  0  0  0
  160.6990  204.9930  144.6080 C   0  0  0  0  0  1  0  0  0  0  0  0
  160.7020  202.6460  145.4310 C   0  0  0  0  0  1  0  0  0  0  0  0
  161.3140  203.9610  145.4270 N   0  0  0  0  0  0  0  0  0  0  0  0
  160.8660  203.2020  150.3300 C   0  0  0  0  0  3  0  0  0  0  0  0
  161.0530  202.9020  151.6090 C   0  0  0  0  0  2  0  0  0  0  0  0
  1  8  1  0  0  0  0
  2 21  1  6  0  0  0
  2  6  1  0  0  0  0
  3  2  1  0  0  0  0
  3  1  2  0  0  0  0
  4  9  1  0  0  0  0
  6  4  2  0  0  0  0
  8  9  1  0  0  0  0
  8  7  2  0  0  0  0
  9  5  1  0  0  0  0
 10 14  1  0  0  0  0
 12 10  2  0  0  0  0
 13 15  2  0  0  0  0
 13 12  1  0  0  0  0
 14 11  1  0  0  0  0
 15 16  1  0  0  0  0
 16  1  1  0  0  0  0
 16 14  2  0  0  0  0
 17 12  1  0  0  0  0
 19 20  1  0  0  0  0
 20 17  1  0  0  0  0
 20 18  2  0  0  0  0
 22 24  1  0  0  0  0
 22 27  1  0  0  0  0
 24 29  1  6  0  0  0
 24 25  1  0  0  0  0
 25 33  1  0  0  0  0
 25 23  2  0  0  0  0
 26 23  1  0  0  0  0
 26 21  1  0  0  0  0
 27 26  2  0  0  0  0
 28 29  2  0  0  0  0
 30 32  1  0  0  0  0
 32 31  1  0  0  0  0
 32 28  1  0  0  0  0
 33 34  2  0  0  0  0
M  END
>  <MODEL>
1

>  <REMARK>
 VINA RESULT:      -8.8      0.000      0.000
  Name = 
  8 active torsions:
  status: ('A' for Active; 'I' for Inactive)
    1  A    between atoms: C_1  and  C_34
    2  A    between atoms: C_7  and  N_21
    3  A    between atoms: C_8  and  O_18
    4  A    between atoms: C_14  and  C_16
    5  A    between atoms: O_18  and  C_30
    6  A    between atoms: O_23  and  C_24
    7  A    between atoms: O_23  and  C_25
    8  A    between atoms: C_26  and  C_28
                            x       y       z     vdW  Elec       q    Type
                         _______ _______ _______ _____ _____    ______ ____

>  <TORSDO>
F 8

$$$$
=
 OpenBabel11062409373D

 34 36  0  0  1  0  0  0  0  0999 V2000
  160.8320  209.3320  153.2840 C   0  0  0  0  0  0  0  0  0  0  0  0
  161.8750  207.0780  153.0790 C   0  0  1  0  0  3  0  0  0  0  0  0
  161.2550  208.3170  152.5210 C   0  0  0  0  0  3  0  0  0  0  0  0
  160.3980  206.8300  155.0570 C   0  0  0  0  0  3  0  0  0  0  0  0
  160.5480  208.3190  156.8940 F   0  0  0  0  0  0  0  0  0  0  0  0
  160.9030  206.3300  153.9300 C   0  0  0  0  0  3  0  0  0  0  0  0
  161.3200  210.3680  155.3480 O   0  0  0  0  0  0  0  0  0  0  0  0
  160.9810  209.3050  154.7630 C   0  0  0  0  0  0  0  0  0  0  0  0
  160.6960  208.1400  155.5620 N   0  0  0  0  0  0  0  0  0  0  0  0
  160.4330  212.3040  150.9410 C   0  0  0  0  0  3  0  0  0  0  0  0
  162.1840  210.7200  151.1380 F   0  0  0  0  0  0  0  0  0  0  0  0
  159.2090  212.8320  151.3610 C   0  0  0  0  0  0  0  0  0  0  0  0
  158.5300  212.2160  152.4220 C   0  0  0  0  0  3  0  0  0  0  0  0
  160.9750  211.1710  151.5560 C   0  0  0  0  0  0  0  0  0  0  0  0
  159.0640  211.0850  153.0420 C   0  0  0  0  0  3  0  0  0  0  0  0
  160.2870  210.5420  152.6150 C   0  0  0  0  0  0  0  0  0  0  0  0
  158.7130  213.9670  150.7020 O   0  0  0  0  0  0  0  0  0  0  0  0
  158.5380  214.2500  148.3990 O   0  0  0  0  0  0  0  0  0  0  0  0
  156.5390  213.6640  149.5280 C   0  0  0  0  0  1  0  0  0  0  0  0
  157.9910  213.9780  149.5000 C   0  0  0  0  0  0  0  0  0  0  0  0
  162.3970  206.2490  152.0380 O   0  0  0  0  0  0  0  0  0  0  0  0
  160.6110  206.4440  148.7810 C   0  0  0  0  0  2  0  0  0  0  0  0
  161.3210  204.4810  150.6840 C   0  0  0  0  0  3  0  0  0  0  0  0
  160.8540  205.0010  148.3170 C   0  0  2  0  0  3  0  0  0  0  0  0
  160.8770  204.0560  149.4970 C   0  0  0  0  0  0  0  0  0  0  0  0
  161.7030  205.8890  150.8750 C   0  0  0  0  0  0  0  0  0  0  0  0
  161.4140  206.7720  149.9620 N   0  0  0  0  0  0  0  0  0  0  0  0
  162.2830  204.3640  146.3340 C   0  0  0  0  0  3  0  0  0  0  0  0
  162.1370  204.8990  147.5530 C   0  0  0  0  0  3  0  0  0  0  0  0
  160.8910  202.3450  145.6270 C   0  0  0  0  0  1  0  0  0  0  0  0
  160.6380  204.5490  144.5010 C   0  0  0  0  0  1  0  0  0  0  0  0
  161.2450  203.7540  145.5500 N   0  0  0  0  0  0  0  0  0  0  0  0
  160.4980  202.6460  149.3570 C   0  0  0  0  0  3  0  0  0  0  0  0
  160.9730  201.6990  150.1560 C   0  0  0  0  0  2  0  0  0  0  0  0
  1  8  1  0  0  0  0
  2 21  1  6  0  0  0
  2  6  1  0  0  0  0
  3  2  1  0  0  0  0
  3  1  2  0  0  0  0
  4  9  1  0  0  0  0
  6  4  2  0  0  0  0
  8  7  2  0  0  0  0
  8  9  1  0  0  0  0
  9  5  1  0  0  0  0
 10 12  2  0  0  0  0
 10 14  1  0  0  0  0
 11 14  1  0  0  0  0
 12 13  1  0  0  0  0
 13 15  2  0  0  0  0
 14 16  2  0  0  0  0
 16 15  1  0  0  0  0
 16  1  1  0  0  0  0
 17 12  1  0  0  0  0
 18 20  2  0  0  0  0
 20 19  1  0  0  0  0
 20 17  1  0  0  0  0
 22 27  1  0  0  0  0
 23 26  1  0  0  0  0
 24 29  1  1  0  0  0
 24 22  1  0  0  0  0
 24 25  1  0  0  0  0
 25 23  2  0  0  0  0
 26 21  1  0  0  0  0
 27 26  2  0  0  0  0
 28 29  2  0  0  0  0
 31 32  1  0  0  0  0
 32 30  1  0  0  0  0
 32 28  1  0  0  0  0
 33 25  1  0  0  0  0
 33 34  2  0  0  0  0
M  END
>  <MODEL>
2

>  <REMARK>
 VINA RESULT:      -8.7      1.687      2.232
  Name = 
  8 active torsions:
  status: ('A' for Active; 'I' for Inactive)
    1  A    between atoms: C_1  and  C_34
    2  A    between atoms: C_7  and  N_21
    3  A    between atoms: C_8  and  O_18
    4  A    between atoms: C_14  and  C_16
    5  A    between atoms: O_18  and  C_30
    6  A    between atoms: O_23  and  C_24
    7  A    between atoms: O_23  and  C_25
    8  A    between atoms: C_26  and  C_28
                            x       y       z     vdW  Elec       q    Type
                         _______ _______ _______ _____ _____    ______ ____

>  <TORSDO>
F 8

$$$$
=
 OpenBabel11062409373D

 34 36  0  0  1  0  0  0  0  0999 V2000
  160.4040  209.7880  153.6330 C   0  0  0  0  0  0  0  0  0  0  0  0
  161.6980  207.6950  153.2440 C   0  0  1  0  0  3  0  0  0  0  0  0
  160.9520  208.9060  152.7900 C   0  0  0  0  0  3  0  0  0  0  0  0
  160.2230  207.0910  155.1450 C   0  0  0  0  0  3  0  0  0  0  0  0
  160.1710  208.3990  157.1200 F   0  0  0  0  0  0  0  0  0  0  0  0
  160.8020  206.7640  153.9900 C   0  0  0  0  0  3  0  0  0  0  0  0
  160.7340  210.6630  155.8010 O   0  0  0  0  0  0  0  0  0  0  0  0
  160.5280  209.6320  155.1070 C   0  0  0  0  0  0  0  0  0  0  0  0
  160.3620  208.3700  155.7820 N   0  0  0  0  0  0  0  0  0  0  0  0
  157.8980  212.5820  153.0080 C   0  0  0  0  0  3  0  0  0  0  0  0
  157.8370  210.7690  154.5320 F   0  0  0  0  0  0  0  0  0  0  0  0
  158.5150  213.2890  151.9730 C   0  0  0  0  0  0  0  0  0  0  0  0
  159.7450  212.8340  151.4770 C   0  0  0  0  0  3  0  0  0  0  0  0
  158.4950  211.4430  153.5560 C   0  0  0  0  0  0  0  0  0  0  0  0
  160.3480  211.6960  152.0170 C   0  0  0  0  0  3  0  0  0  0  0  0
  159.7380  210.9900  153.0670 C   0  0  0  0  0  0  0  0  0  0  0  0
  157.8700  214.4280  151.4680 O   0  0  0  0  0  0  0  0  0  0  0  0
  155.6250  214.4520  150.8600 O   0  0  0  0  0  0  0  0  0  0  0  0
  157.1840  214.4500  149.0750 C   0  0  0  0  0  1  0  0  0  0  0  0
  156.8370  214.4440  150.5200 C   0  0  0  0  0  0  0  0  0  0  0  0
  162.3300  207.0350  152.1440 O   0  0  0  0  0  0  0  0  0  0  0  0
  160.5720  206.8140  148.8740 C   0  0  0  0  0  2  0  0  0  0  0  0
  161.3300  205.0940  150.9820 C   0  0  0  0  0  3  0  0  0  0  0  0
  160.8700  205.3390  148.5690 C   0  0  2  0  0  3  0  0  0  0  0  0
  160.9140  204.5290  149.8450 C   0  0  0  0  0  0  0  0  0  0  0  0
  161.6610  206.5280  151.0220 C   0  0  0  0  0  0  0  0  0  0  0  0
  161.3500  207.2960  150.0170 N   0  0  0  0  0  0  0  0  0  0  0  0
  162.2950  204.8940  146.5320 C   0  0  0  0  0  3  0  0  0  0  0  0
  162.1640  205.2020  147.8290 C   0  0  0  0  0  3  0  0  0  0  0  0
  160.8770  203.2600  145.1810 C   0  0  0  0  0  1  0  0  0  0  0  0
  160.5690  205.7180  144.9700 C   0  0  0  0  0  1  0  0  0  0  0  0
  161.2250  204.6020  145.6210 N   0  0  0  0  0  0  0  0  0  0  0  0
  160.5860  203.0990  149.8550 C   0  0  0  0  0  3  0  0  0  0  0  0
  160.9310  202.2830  148.8670 C   0  0  0  0  0  2  0  0  0  0  0  0
  1  8  1  0  0  0  0
  2 21  1  6  0  0  0
  2  6  1  0  0  0  0
  3  2  1  0  0  0  0
  3  1  2  0  0  0  0
  4  9  1  0  0  0  0
  6  4  2  0  0  0  0
  8  9  1  0  0  0  0
  8  7  2  0  0  0  0
  9  5  1  0  0  0  0
 10 14  1  0  0  0  0
 12 10  2  0  0  0  0
 13 12  1  0  0  0  0
 13 15  2  0  0  0  0
 14 11  1  0  0  0  0
 15 16  1  0  0  0  0
 16 14  2  0  0  0  0
 16  1  1  0  0  0  0
 17 12  1  0  0  0  0
 19 20  1  0  0  0  0
 20 18  2  0  0  0  0
 20 17  1  0  0  0  0
 22 27  1  0  0  0  0
 23 26  1  0  0  0  0
 24 29  1  1  0  0  0
 24 22  1  0  0  0  0
 24 25  1  0  0  0  0
 25 33  1  0  0  0  0
 25 23  2  0  0  0  0
 26 21  1  0  0  0  0
 27 26  2  0  0  0  0
 28 29  2  0  0  0  0
 30 32  1  0  0  0  0
 31 32  1  0  0  0  0
 32 28  1  0  0  0  0
 34 33  2  0  0  0  0
M  END
>  <MODEL>
3

>  <REMARK>
 VINA RESULT:      -8.6      1.052      1.337
  Name = 
  8 active torsions:
  status: ('A' for Active; 'I' for Inactive)
    1  A    between atoms: C_1  and  C_34
    2  A    between atoms: C_7  and  N_21
    3  A    between atoms: C_8  and  O_18
    4  A    between atoms: C_14  and  C_16
    5  A    between atoms: O_18  and  C_30
    6  A    between atoms: O_23  and  C_24
    7  A    between atoms: O_23  and  C_25
    8  A    between atoms: C_26  and  C_28
                            x       y       z     vdW  Elec       q    Type
                         _______ _______ _______ _____ _____    ______ ____

>  <TORSDO>
F 8

$$$$
=
 OpenBabel11062409373D

 34 36  0  0  1  0  0  0  0  0999 V2000
  160.8070  209.1560  152.4080 C   0  0  0  0  0  0  0  0  0  0  0  0
  159.6900  211.0610  153.5620 C   0  0  1  0  0  3  0  0  0  0  0  0
  160.1870  210.3400  152.3520 C   0  0  0  0  0  3  0  0  0  0  0  0
  161.5950  210.5410  155.0640 C   0  0  0  0  0  3  0  0  0  0  0  0
  161.9310  208.3500  155.9050 F   0  0  0  0  0  0  0  0  0  0  0  0
  160.8200  211.4400  154.4600 C   0  0  0  0  0  3  0  0  0  0  0  0
  160.8590  207.2030  153.7330 O   0  0  0  0  0  0  0  0  0  0  0  0
  161.0190  208.4520  153.7010 C   0  0  0  0  0  0  0  0  0  0  0  0
  161.4610  209.1200  154.8980 N   0  0  0  0  0  0  0  0  0  0  0  0
  162.3210  208.5430  148.9710 C   0  0  0  0  0  3  0  0  0  0  0  0
  162.3110  210.4860  150.3270 F   0  0  0  0  0  0  0  0  0  0  0  0
  161.9460  207.2190  148.7300 C   0  0  0  0  0  0  0  0  0  0  0  0
  161.1850  206.5400  149.6930 C   0  0  0  0  0  3  0  0  0  0  0  0
  161.9570  209.1870  150.1570 C   0  0  0  0  0  0  0  0  0  0  0  0
  160.8160  207.1760  150.8790 C   0  0  0  0  0  3  0  0  0  0  0  0
  161.2030  208.5030  151.1330 C   0  0  0  0  0  0  0  0  0  0  0  0
  162.3460  206.6230  147.5230 O   0  0  0  0  0  0  0  0  0  0  0  0
  160.9370  205.8720  145.8320 O   0  0  0  0  0  0  0  0  0  0  0  0
  161.7920  204.2080  147.2860 C   0  0  0  0  0  1  0  0  0  0  0  0
  161.6610  205.6160  146.8290 C   0  0  0  0  0  0  0  0  0  0  0  0
  158.9110  212.2030  153.1990 O   0  0  0  0  0  0  0  0  0  0  0  0
  160.2640  214.3360  150.4690 C   0  0  0  0  0  2  0  0  0  0  0  0
  157.8920  212.9240  151.0640 C   0  0  0  0  0  3  0  0  0  0  0  0
  159.4140  213.7780  149.3190 C   0  0  2  0  0  3  0  0  0  0  0  0
  158.0450  213.3720  149.8140 C   0  0  0  0  0  0  0  0  0  0  0  0
  159.0330  212.9060  151.9930 C   0  0  0  0  0  0  0  0  0  0  0  0
  160.1380  213.5200  151.6780 N   0  0  0  0  0  0  0  0  0  0  0  0
  160.8370  212.6480  147.5640 C   0  0  0  0  0  3  0  0  0  0  0  0
  160.0950  212.6080  148.6780 C   0  0  0  0  0  3  0  0  0  0  0  0
  160.1980  214.2720  145.7030 C   0  0  0  0  0  1  0  0  0  0  0  0
  162.3790  214.4530  146.8830 C   0  0  0  0  0  1  0  0  0  0  0  0
  161.0860  213.8090  146.7570 N   0  0  0  0  0  0  0  0  0  0  0  0
  156.8760  213.3810  148.9270 C   0  0  0  0  0  3  0  0  0  0  0  0
  156.8520  214.0660  147.7900 C   0  0  0  0  0  2  0  0  0  0  0  0
  1  8  1  0  0  0  0
  2 21  1  6  0  0  0
  2  6  1  0  0  0  0
  3  1  2  0  0  0  0
  3  2  1  0  0  0  0
  6  4  2  0  0  0  0
  8  7  2  0  0  0  0
  8  9  1  0  0  0  0
  9  4  1  0  0  0  0
  9  5  1  0  0  0  0
 10 14  1  0  0  0  0
 12 10  2  0  0  0  0
 12 13  1  0  0  0  0
 13 15  2  0  0  0  0
 14 11  1  0  0  0  0
 14 16  2  0  0  0  0
 15 16  1  0  0  0  0
 16  1  1  0  0  0  0
 17 12  1  0  0  0  0
 18 20  2  0  0  0  0
 20 19  1  0  0  0  0
 20 17  1  0  0  0  0
 22 27  1  0  0  0  0
 23 26  1  0  0  0  0
 24 29  1  1  0  0  0
 24 25  1  0  0  0  0
 24 22  1  0  0  0  0
 25 23  2  0  0  0  0
 26 21  1  0  0  0  0
 27 26  2  0  0  0  0
 28 29  2  0  0  0  0
 30 32  1  0  0  0  0
 32 31  1  0  0  0  0
 32 28  1  0  0  0  0
 33 25  1  0  0  0  0
 34 33  2  0  0  0  0
M  END
>  <MODEL>
4

>  <REMARK>
 VINA RESULT:      -7.5      3.374      7.962
  Name = 
  8 active torsions:
  status: ('A' for Active; 'I' for Inactive)
    1  A    between atoms: C_1  and  C_34
    2  A    between atoms: C_7  and  N_21
    3  A    between atoms: C_8  and  O_18
    4  A    between atoms: C_14  and  C_16
    5  A    between atoms: O_18  and  C_30
    6  A    between atoms: O_23  and  C_24
    7  A    between atoms: O_23  and  C_25
    8  A    between atoms: C_26  and  C_28
                            x       y       z     vdW  Elec       q    Type
                         _______ _______ _______ _____ _____    ______ ____

>  <TORSDO>
F 8

$$$$
=
 OpenBabel11062409373D

 34 36  0  0  1  0  0  0  0  0999 V2000
  161.1860  209.4790  153.5130 C   0  0  0  0  0  0  0  0  0  0  0  0
  160.9110  207.1530  154.3620 C   0  0  1  0  0  3  0  0  0  0  0  0
  160.7850  208.2170  153.3220 C   0  0  0  0  0  3  0  0  0  0  0  0
  160.3060  208.5390  156.3300 C   0  0  0  0  0  3  0  0  0  0  0  0
  161.7760  210.2040  157.1550 F   0  0  0  0  0  0  0  0  0  0  0  0
  160.0800  207.4750  155.5600 C   0  0  0  0  0  3  0  0  0  0  0  0
  162.8010  210.6990  154.7290 O   0  0  0  0  0  0  0  0  0  0  0  0
  161.8240  209.9060  154.7870 C   0  0  0  0  0  0  0  0  0  0  0  0
  161.3370  209.5080  156.0830 N   0  0  0  0  0  0  0  0  0  0  0  0
  161.6710  211.1870  150.1470 C   0  0  0  0  0  3  0  0  0  0  0  0
  162.6940  209.2530  151.0560 F   0  0  0  0  0  0  0  0  0  0  0  0
  160.8030  212.2770  150.2570 C   0  0  0  0  0  0  0  0  0  0  0  0
  160.0750  212.4510  151.4420 C   0  0  0  0  0  3  0  0  0  0  0  0
  161.8090  210.2730  151.1950 C   0  0  0  0  0  0  0  0  0  0  0  0
  160.2080  211.5440  152.4940 C   0  0  0  0  0  3  0  0  0  0  0  0
  161.0680  210.4380  152.3840 C   0  0  0  0  0  0  0  0  0  0  0  0
  160.7010  213.1590  149.1690 O   0  0  0  0  0  0  0  0  0  0  0  0
  160.9630  212.4020  146.9850 O   0  0  0  0  0  0  0  0  0  0  0  0
  162.7050  213.7710  147.8250 C   0  0  0  0  0  1  0  0  0  0  0  0
  161.4030  213.0670  147.9590 C   0  0  0  0  0  0  0  0  0  0  0  0
  160.5780  205.8690  153.8300 O   0  0  0  0  0  0  0  0  0  0  0  0
  162.2040  203.6910  151.2910 C   0  0  0  0  0  2  0  0  0  0  0  0
  160.8300  206.1570  151.3860 C   0  0  0  0  0  3  0  0  0  0  0  0
  161.3980  204.1500  150.0670 C   0  0  2  0  0  3  0  0  0  0  0  0
  161.0360  205.6130  150.1840 C   0  0  0  0  0  0  0  0  0  0  0  0
  161.0400  205.3630  152.6080 C   0  0  0  0  0  0  0  0  0  0  0  0
  161.6300  204.2040  152.5370 N   0  0  0  0  0  0  0  0  0  0  0  0
  159.9890  202.3240  149.0380 C   0  0  0  0  0  3  0  0  0  0  0  0
  160.1580  203.3250  149.9110 C   0  0  0  0  0  3  0  0  0  0  0  0
  161.1910  202.5510  146.7990 C   0  0  0  0  0  1  0  0  0  0  0  0
  161.5820  200.5940  148.2830 C   0  0  0  0  0  1  0  0  0  0  0  0
  160.9480  201.8800  148.0660 N   0  0  0  0  0  0  0  0  0  0  0  0
  160.8230  206.4460  148.9950 C   0  0  0  0  0  3  0  0  0  0  0  0
  161.2830  206.1060  147.7970 C   0  0  0  0  0  2  0  0  0  0  0  0
  1  8  1  0  0  0  0
  2 21  1  6  0  0  0
  2  6  1  0  0  0  0
  3  1  2  0  0  0  0
  3  2  1  0  0  0  0
  6  4  2  0  0  0  0
  7  8  2  0  0  0  0
  8  9  1  0  0  0  0
  9  4  1  0  0  0  0
  9  5  1  0  0  0  0
 10 12  2  0  0  0  0
 10 14  1  0  0  0  0
 11 14  1  0  0  0  0
 12 13  1  0  0  0  0
 13 15  2  0  0  0  0
 14 16  2  0  0  0  0
 16 15  1  0  0  0  0
 16  1  1  0  0  0  0
 17 12  1  0  0  0  0
 18 20  2  0  0  0  0
 19 20  1  0  0  0  0
 20 17  1  0  0  0  0
 22 27  1  0  0  0  0
 23 26  1  0  0  0  0
 24 29  1  1  0  0  0
 24 25  1  0  0  0  0
 24 22  1  0  0  0  0
 25 23  2  0  0  0  0
 26 21  1  0  0  0  0
 27 26  2  0  0  0  0
 28 29  2  0  0  0  0
 30 32  1  0  0  0  0
 32 31  1  0  0  0  0
 32 28  1  0  0  0  0
 33 25  1  0  0  0  0
 34 33  2  0  0  0  0
M  END
>  <MODEL>
5

>  <REMARK>
 VINA RESULT:      -7.1      2.866      4.053
  Name = 
  8 active torsions:
  status: ('A' for Active; 'I' for Inactive)
    1  A    between atoms: C_1  and  C_34
    2  A    between atoms: C_7  and  N_21
    3  A    between atoms: C_8  and  O_18
    4  A    between atoms: C_14  and  C_16
    5  A    between atoms: O_18  and  C_30
    6  A    between atoms: O_23  and  C_24
    7  A    between atoms: O_23  and  C_25
    8  A    between atoms: C_26  and  C_28
                            x       y       z     vdW  Elec       q    Type
                         _______ _______ _______ _____ _____    ______ ____

>  <TORSDO>
F 8

$$$$
=
 OpenBabel11062409373D

 34 36  0  0  1  0  0  0  0  0999 V2000
  161.1280  206.3780  150.5650 C   0  0  0  0  0  0  0  0  0  0  0  0
  160.8290  208.2800  152.1460 C   0  0  1  0  0  3  0  0  0  0  0  0
  161.1280  207.6940  150.8050 C   0  0  0  0  0  3  0  0  0  0  0  0
  162.0310  206.5990  153.5190 C   0  0  0  0  0  3  0  0  0  0  0  0
  161.2020  204.3910  153.7570 F   0  0  0  0  0  0  0  0  0  0  0  0
  161.8520  207.8670  153.1510 C   0  0  0  0  0  3  0  0  0  0  0  0
  160.0820  204.4010  151.3230 O   0  0  0  0  0  0  0  0  0  0  0  0
  160.7930  205.3940  151.6300 C   0  0  0  0  0  0  0  0  0  0  0  0
  161.2960  205.4910  152.9760 N   0  0  0  0  0  0  0  0  0  0  0  0
  161.8820  206.3500  146.8350 C   0  0  0  0  0  3  0  0  0  0  0  0
  161.6280  208.1590  148.3430 F   0  0  0  0  0  0  0  0  0  0  0  0
  161.8660  204.9810  146.5540 C   0  0  0  0  0  0  0  0  0  0  0  0
  161.5940  204.0760  147.5910 C   0  0  0  0  0  3  0  0  0  0  0  0
  161.6410  206.8200  148.1290 C   0  0  0  0  0  0  0  0  0  0  0  0
  161.3510  204.5370  148.8860 C   0  0  0  0  0  3  0  0  0  0  0  0
  161.3790  205.9110  149.1760 C   0  0  0  0  0  0  0  0  0  0  0  0
  162.1210  204.5690  145.2370 O   0  0  0  0  0  0  0  0  0  0  0  0
  161.5830  205.4490  143.1520 O   0  0  0  0  0  0  0  0  0  0  0  0
  159.9500  204.0440  144.1380 C   0  0  0  0  0  1  0  0  0  0  0  0
  161.2670  204.7330  144.1380 C   0  0  0  0  0  0  0  0  0  0  0  0
  160.7190  209.7040  152.0740 O   0  0  0  0  0  0  0  0  0  0  0  0
  158.8640  212.4540  153.7570 C   0  0  0  0  0  2  0  0  0  0  0  0
  160.3710  210.1760  154.4770 C   0  0  0  0  0  3  0  0  0  0  0  0
  158.5410  211.7240  155.0680 C   0  0  2  0  0  3  0  0  0  0  0  0
  159.6550  210.7690  155.4360 C   0  0  0  0  0  0  0  0  0  0  0  0
  160.1440  210.5130  153.0620 C   0  0  0  0  0  0  0  0  0  0  0  0
  159.4030  211.5380  152.7480 N   0  0  0  0  0  0  0  0  0  0  0  0
  156.0240  211.5260  155.0280 C   0  0  0  0  0  3  0  0  0  0  0  0
  157.2450  210.9830  154.9560 C   0  0  0  0  0  3  0  0  0  0  0  0
  155.5740  213.4970  156.5840 C   0  0  0  0  0  1  0  0  0  0  0  0
  155.3940  213.7330  154.1150 C   0  0  0  0  0  1  0  0  0  0  0  0
  155.7290  212.9120  155.2620 N   0  0  0  0  0  0  0  0  0  0  0  0
  159.9230  210.4080  156.8330 C   0  0  0  0  0  3  0  0  0  0  0  0
  160.3370  209.1980  157.1870 C   0  0  0  0  0  2  0  0  0  0  0  0
  1  3  2  0  0  0  0
  1  8  1  0  0  0  0
  2 21  1  6  0  0  0
  2  6  1  0  0  0  0
  3  2  1  0  0  0  0
  6  4  2  0  0  0  0
  7  8  2  0  0  0  0
  8  9  1  0  0  0  0
  9  4  1  0  0  0  0
  9  5  1  0  0  0  0
 10 14  1  0  0  0  0
 12 10  2  0  0  0  0
 12 13  1  0  0  0  0
 13 15  2  0  0  0  0
 14 11  1  0  0  0  0
 14 16  2  0  0  0  0
 15 16  1  0  0  0  0
 16  1  1  0  0  0  0
 17 12  1  0  0  0  0
 18 20  2  0  0  0  0
 19 20  1  0  0  0  0
 20 17  1  0  0  0  0
 21 26  1  0  0  0  0
 22 24  1  0  0  0  0
 23 25  2  0  0  0  0
 24 29  1  6  0  0  0
 24 25  1  0  0  0  0
 25 33  1  0  0  0  0
 26 23  1  0  0  0  0
 27 26  2  0  0  0  0
 27 22  1  0  0  0  0
 28 32  1  0  0  0  0
 29 28  2  0  0  0  0
 31 32  1  0  0  0  0
 32 30  1  0  0  0  0
 33 34  2  0  0  0  0
M  END
>  <MODEL>
6

>  <REMARK>
 VINA RESULT:      -6.6      3.250      9.380
  Name = 
  8 active torsions:
  status: ('A' for Active; 'I' for Inactive)
    1  A    between atoms: C_1  and  C_34
    2  A    between atoms: C_7  and  N_21
    3  A    between atoms: C_8  and  O_18
    4  A    between atoms: C_14  and  C_16
    5  A    between atoms: O_18  and  C_30
    6  A    between atoms: O_23  and  C_24
    7  A    between atoms: O_23  and  C_25
    8  A    between atoms: C_26  and  C_28
                            x       y       z     vdW  Elec       q    Type
                         _______ _______ _______ _____ _____    ______ ____

>  <TORSDO>
F 8

$$$$
=
 OpenBabel11062409373D

 34 36  0  0  1  0  0  0  0  0999 V2000
  160.1140  210.0350  154.1160 C   0  0  0  0  0  0  0  0  0  0  0  0
  160.9410  208.1450  152.7180 C   0  0  1  0  0  3  0  0  0  0  0  0
  160.0190  209.2820  153.0140 C   0  0  0  0  0  3  0  0  0  0  0  0
  161.1120  207.2470  155.0240 C   0  0  0  0  0  3  0  0  0  0  0  0
  162.3030  208.4130  156.7090 F   0  0  0  0  0  0  0  0  0  0  0  0
  160.8060  207.0660  153.7400 C   0  0  0  0  0  3  0  0  0  0  0  0
  161.7420  210.8070  155.6420 O   0  0  0  0  0  0  0  0  0  0  0  0
  161.1850  209.8040  155.1230 C   0  0  0  0  0  0  0  0  0  0  0  0
  161.5690  208.4910  155.5760 N   0  0  0  0  0  0  0  0  0  0  0  0
  157.3820  212.3180  155.4580 C   0  0  0  0  0  3  0  0  0  0  0  0
  158.1290  210.2000  156.2120 F   0  0  0  0  0  0  0  0  0  0  0  0
  157.4310  213.3800  154.5500 C   0  0  0  0  0  0  0  0  0  0  0  0
  158.3530  213.3310  153.4950 C   0  0  0  0  0  3  0  0  0  0  0  0
  158.2430  211.2240  155.3290 C   0  0  0  0  0  0  0  0  0  0  0  0
  159.2150  212.2420  153.3580 C   0  0  0  0  0  3  0  0  0  0  0  0
  159.1800  211.1790  154.2750 C   0  0  0  0  0  0  0  0  0  0  0  0
  156.5460  214.4530  154.7340 O   0  0  0  0  0  0  0  0  0  0  0  0
  154.4140  214.4530  155.6650 O   0  0  0  0  0  0  0  0  0  0  0  0
  154.5160  214.2720  153.3050 C   0  0  0  0  0  1  0  0  0  0  0  0
  155.1480  214.4000  154.6440 C   0  0  0  0  0  0  0  0  0  0  0  0
  160.7280  207.6380  151.3980 O   0  0  0  0  0  0  0  0  0  0  0  0
  161.9990  204.1450  151.2770 C   0  0  0  0  0  2  0  0  0  0  0  0
  161.4740  206.2620  149.4830 C   0  0  0  0  0  3  0  0  0  0  0  0
  161.6010  203.8220  149.8300 C   0  0  2  0  0  3  0  0  0  0  0  0
  161.7020  205.0540  148.9600 C   0  0  0  0  0  0  0  0  0  0  0  0
  161.2110  206.4120  150.9230 C   0  0  0  0  0  0  0  0  0  0  0  0
  161.4100  205.4070  151.7290 N   0  0  0  0  0  0  0  0  0  0  0  0
  159.8090  202.2360  149.0200 C   0  0  0  0  0  3  0  0  0  0  0  0
  160.2120  203.2670  149.7750 C   0  0  0  0  0  3  0  0  0  0  0  0
  160.4750  201.5600  146.6520 C   0  0  0  0  0  1  0  0  0  0  0  0
  161.5250  200.5010  148.6430 C   0  0  0  0  0  1  0  0  0  0  0  0
  160.6230  201.4970  148.0980 N   0  0  0  0  0  0  0  0  0  0  0  0
  161.9700  204.9550  147.5200 C   0  0  0  0  0  3  0  0  0  0  0  0
  162.0340  206.0230  146.7340 C   0  0  0  0  0  2  0  0  0  0  0  0
  1 16  1  0  0  0  0
  1  8  1  0  0  0  0
  2 21  1  6  0  0  0
  2  3  1  0  0  0  0
  2  6  1  0  0  0  0
  3  1  2  0  0  0  0
  4  9  1  0  0  0  0
  6  4  2  0  0  0  0
  8  9  1  0  0  0  0
  8  7  2  0  0  0  0
  9  5  1  0  0  0  0
 12 17  1  0  0  0  0
 12 10  2  0  0  0  0
 13 12  1  0  0  0  0
 14 10  1  0  0  0  0
 14 11  1  0  0  0  0
 15 13  2  0  0  0  0
 15 16  1  0  0  0  0
 16 14  2  0  0  0  0
 19 20  1  0  0  0  0
 20 17  1  0  0  0  0
 20 18  2  0  0  0  0
 22 27  1  0  0  0  0
 23 26  1  0  0  0  0
 24 29  1  1  0  0  0
 24 22  1  0  0  0  0
 25 23  2  0  0  0  0
 25 24  1  0  0  0  0
 26 21  1  0  0  0  0
 26 27  2  0  0  0  0
 28 29  2  0  0  0  0
 30 32  1  0  0  0  0
 32 31  1  0  0  0  0
 32 28  1  0  0  0  0
 33 25  1  0  0  0  0
 34 33  2  0  0  0  0
M  END
>  <MODEL>
7

>  <REMARK>
 VINA RESULT:      -6.6      1.608      2.430
  Name = 
  8 active torsions:
  status: ('A' for Active; 'I' for Inactive)
    1  A    between atoms: C_1  and  C_34
    2  A    between atoms: C_7  and  N_21
    3  A    between atoms: C_8  and  O_18
    4  A    between atoms: C_14  and  C_16
    5  A    between atoms: O_18  and  C_30
    6  A    between atoms: O_23  and  C_24
    7  A    between atoms: O_23  and  C_25
    8  A    between atoms: C_26  and  C_28
                            x       y       z     vdW  Elec       q    Type
                         _______ _______ _______ _____ _____    ______ ____

>  <TORSDO>
F 8

$$$$
=
 OpenBabel11062409373D

 34 36  0  0  1  0  0  0  0  0999 V2000
  161.3750  207.7130  151.5140 C   0  0  0  0  0  0  0  0  0  0  0  0
  161.9130  209.9650  150.5940 C   0  0  1  0  0  3  0  0  0  0  0  0
  161.8210  208.4770  150.5100 C   0  0  0  0  0  3  0  0  0  0  0  0
  162.7130  210.1170  152.9380 C   0  0  0  0  0  3  0  0  0  0  0  0
  161.2790  209.6150  154.7570 F   0  0  0  0  0  0  0  0  0  0  0  0
  162.8880  210.3820  151.6440 C   0  0  0  0  0  3  0  0  0  0  0  0
  159.8830  207.8180  153.3410 O   0  0  0  0  0  0  0  0  0  0  0  0
  160.9050  208.3100  152.7930 C   0  0  0  0  0  0  0  0  0  0  0  0
  161.5990  209.3790  153.4650 N   0  0  0  0  0  0  0  0  0  0  0  0
  160.6870  204.3330  149.9090 C   0  0  0  0  0  3  0  0  0  0  0  0
  160.3210  206.5280  149.0960 F   0  0  0  0  0  0  0  0  0  0  0  0
  161.0960  203.4540  150.9150 C   0  0  0  0  0  0  0  0  0  0  0  0
  161.5820  203.9790  152.1210 C   0  0  0  0  0  3  0  0  0  0  0  0
  160.7680  205.7170  150.0880 C   0  0  0  0  0  0  0  0  0  0  0  0
  161.6650  205.3600  152.3090 C   0  0  0  0  0  3  0  0  0  0  0  0
  161.2680  206.2480  151.2950 C   0  0  0  0  0  0  0  0  0  0  0  0
  160.9970  202.0750  150.6750 O   0  0  0  0  0  0  0  0  0  0  0  0
  159.3190  201.4450  149.1920 O   0  0  0  0  0  0  0  0  0  0  0  0
  161.5260  200.8360  148.5820 C   0  0  0  0  0  1  0  0  0  0  0  0
  160.5400  201.4690  149.4960 C   0  0  0  0  0  0  0  0  0  0  0  0
  162.2440  210.5350  149.3240 O   0  0  0  0  0  0  0  0  0  0  0  0
  161.0850  213.0710  146.8630 C   0  0  0  0  0  2  0  0  0  0  0  0
  160.8500  212.5550  149.6290 C   0  0  0  0  0  3  0  0  0  0  0  0
  159.8260  213.5340  147.6090 C   0  0  2  0  0  3  0  0  0  0  0  0
  160.0400  213.4790  149.1050 C   0  0  0  0  0  0  0  0  0  0  0  0
  161.6080  211.6460  148.7550 C   0  0  0  0  0  0  0  0  0  0  0  0
  161.6620  211.8700  147.4730 N   0  0  0  0  0  0  0  0  0  0  0  0
  158.1580  212.5460  145.9900 C   0  0  0  0  0  3  0  0  0  0  0  0
  158.6460  212.6950  147.2280 C   0  0  0  0  0  3  0  0  0  0  0  0
  159.8230  212.7460  144.0670 C   0  0  0  0  0  1  0  0  0  0  0  0
  158.0500  214.4530  144.4250 C   0  0  0  0  0  1  0  0  0  0  0  0
  158.6510  213.1900  144.8050 N   0  0  0  0  0  0  0  0  0  0  0  0
  159.3130  214.3700  150.0160 C   0  0  0  0  0  3  0  0  0  0  0  0
  159.2850  214.1750  151.3280 C   0  0  0  0  0  2  0  0  0  0  0  0
  1  8  1  0  0  0  0
  2 21  1  6  0  0  0
  2  6  1  0  0  0  0
  3  2  1  0  0  0  0
  3  1  2  0  0  0  0
  4  9  1  0  0  0  0
  6  4  2  0  0  0  0
  8  7  2  0  0  0  0
  8  9  1  0  0  0  0
  9  5  1  0  0  0  0
 10 14  2  0  0  0  0
 10 12  1  0  0  0  0
 11 14  1  0  0  0  0
 12 13  2  0  0  0  0
 13 15  1  0  0  0  0
 14 16  1  0  0  0  0
 16  1  1  0  0  0  0
 16 15  2  0  0  0  0
 17 12  1  0  0  0  0
 18 20  2  0  0  0  0
 19 20  1  0  0  0  0
 20 17  1  0  0  0  0
 22 27  1  0  0  0  0
 22 24  1  0  0  0  0
 24 29  1  1  0  0  0
 24 25  1  0  0  0  0
 25 23  2  0  0  0  0
 25 33  1  0  0  0  0
 26 21  1  0  0  0  0
 26 23  1  0  0  0  0
 27 26  2  0  0  0  0
 28 29  2  0  0  0  0
 30 32  1  0  0  0  0
 31 32  1  0  0  0  0
 32 28  1  0  0  0  0
 33 34  2  0  0  0  0
M  END
>  <MODEL>
8

>  <REMARK>
 VINA RESULT:      -6.5      4.057      8.425
  Name = 
  8 active torsions:
  status: ('A' for Active; 'I' for Inactive)
    1  A    between atoms: C_1  and  C_34
    2  A    between atoms: C_7  and  N_21
    3  A    between atoms: C_8  and  O_18
    4  A    between atoms: C_14  and  C_16
    5  A    between atoms: O_18  and  C_30
    6  A    between atoms: O_23  and  C_24
    7  A    between atoms: O_23  and  C_25
    8  A    between atoms: C_26  and  C_28
                            x       y       z     vdW  Elec       q    Type
                         _______ _______ _______ _____ _____    ______ ____

>  <TORSDO>
F 8

$$$$
=
 OpenBabel11062409373D

 34 36  0  0  1  0  0  0  0  0999 V2000
  161.2180  212.1950  148.4040 C   0  0  0  0  0  0  0  0  0  0  0  0
  161.9420  210.5470  150.1260 C   0  0  1  0  0  3  0  0  0  0  0  0
  161.5610  210.9460  148.7390 C   0  0  0  0  0  3  0  0  0  0  0  0
  160.2670  211.9170  151.3380 C   0  0  0  0  0  3  0  0  0  0  0  0
  160.4560  214.2770  151.4420 F   0  0  0  0  0  0  0  0  0  0  0  0
  160.7980  210.7260  151.0670 C   0  0  0  0  0  3  0  0  0  0  0  0
  161.6540  214.4250  149.0490 O   0  0  0  0  0  0  0  0  0  0  0  0
  161.2230  213.2960  149.4050 C   0  0  0  0  0  0  0  0  0  0  0  0
  160.7010  213.1480  150.7400 N   0  0  0  0  0  0  0  0  0  0  0  0
  161.6030  213.2150  144.7580 C   0  0  0  0  0  3  0  0  0  0  0  0
  163.1790  213.1920  146.5270 F   0  0  0  0  0  0  0  0  0  0  0  0
  160.3060  213.0240  144.2740 C   0  0  0  0  0  0  0  0  0  0  0  0
  159.3100  212.5750  145.1520 C   0  0  0  0  0  3  0  0  0  0  0  0
  161.9150  212.9540  146.0950 C   0  0  0  0  0  0  0  0  0  0  0  0
  159.6120  212.3140  146.4900 C   0  0  0  0  0  3  0  0  0  0  0  0
  160.9180  212.4900  146.9790 C   0  0  0  0  0  0  0  0  0  0  0  0
  160.0550  213.2970  142.9200 O   0  0  0  0  0  0  0  0  0  0  0  0
  161.1610  211.5640  141.8330 O   0  0  0  0  0  0  0  0  0  0  0  0
  159.2890  212.4730  140.7000 C   0  0  0  0  0  1  0  0  0  0  0  0
  160.2290  212.4100  141.8490 C   0  0  0  0  0  0  0  0  0  0  0  0
  162.4360  209.2050  150.1600 O   0  0  0  0  0  0  0  0  0  0  0  0
  160.8440  207.0750  147.5600 C   0  0  0  0  0  2  0  0  0  0  0  0
  161.5660  206.8940  150.2840 C   0  0  0  0  0  3  0  0  0  0  0  0
  161.2110  205.7060  148.1500 C   0  0  2  0  0  3  0  0  0  0  0  0
  161.2250  205.7620  149.6610 C   0  0  0  0  0  0  0  0  0  0  0  0
  161.8400  208.1160  149.5110 C   0  0  0  0  0  0  0  0  0  0  0  0
  161.5490  208.1630  148.2430 N   0  0  0  0  0  0  0  0  0  0  0  0
  162.7660  204.6410  146.4690 C   0  0  0  0  0  3  0  0  0  0  0  0
  162.5420  205.2500  147.6400 C   0  0  0  0  0  3  0  0  0  0  0  0
  161.2260  205.1950  144.5110 C   0  0  0  0  0  1  0  0  0  0  0  0
  161.1410  202.9770  145.6350 C   0  0  0  0  0  1  0  0  0  0  0  0
  161.7680  204.2780  145.5020 N   0  0  0  0  0  0  0  0  0  0  0  0
  160.9510  204.5720  150.4730 C   0  0  0  0  0  3  0  0  0  0  0  0
  161.5810  204.3300  151.6160 C   0  0  0  0  0  2  0  0  0  0  0  0
  1  3  2  0  0  0  0
  1  8  1  0  0  0  0
  2 21  1  6  0  0  0
  2  6  1  0  0  0  0
  3  2  1  0  0  0  0
  6  4  2  0  0  0  0
  7  8  2  0  0  0  0
  8  9  1  0  0  0  0
  9  4  1  0  0  0  0
  9  5  1  0  0  0  0
 10 14  1  0  0  0  0
 12 10  2  0  0  0  0
 12 13  1  0  0  0  0
 13 15  2  0  0  0  0
 14 11  1  0  0  0  0
 14 16  2  0  0  0  0
 15 16  1  0  0  0  0
 16  1  1  0  0  0  0
 17 12  1  0  0  0  0
 18 20  2  0  0  0  0
 19 20  1  0  0  0  0
 20 17  1  0  0  0  0
 22 24  1  0  0  0  0
 22 27  1  0  0  0  0
 24 29  1  6  0  0  0
 24 25  1  0  0  0  0
 25 23  2  0  0  0  0
 25 33  1  0  0  0  0
 26 21  1  0  0  0  0
 26 23  1  0  0  0  0
 27 26  2  0  0  0  0
 28 29  2  0  0  0  0
 30 32  1  0  0  0  0
 32 31  1  0  0  0  0
 32 28  1  0  0  0  0
 33 34  2  0  0  0  0
M  END
>  <MODEL>
9

>  <REMARK>
 VINA RESULT:      -6.5      5.123      6.370
  Name = 
  8 active torsions:
  status: ('A' for Active; 'I' for Inactive)
    1  A    between atoms: C_1  and  C_34
    2  A    between atoms: C_7  and  N_21
    3  A    between atoms: C_8  and  O_18
    4  A    between atoms: C_14  and  C_16
    5  A    between atoms: O_18  and  C_30
    6  A    between atoms: O_23  and  C_24
    7  A    between atoms: O_23  and  C_25
    8  A    between atoms: C_26  and  C_28
                            x       y       z     vdW  Elec       q    Type
                         _______ _______ _______ _____ _____    ______ ____

>  <TORSDO>
F 8

$$$$
