=
 OpenBabel11052422313D

 31 36  0  0  1  0  0  0  0  0999 V2000
  161.2760  211.3200  150.1860 C   0  0  0  0  0  0  0  0  0  0  0  0
  161.1660  208.4020  152.5550 C   0  0  0  0  0  0  0  0  0  0  0  0
  160.8710  208.9540  153.8350 C   0  0  0  0  0  0  0  0  0  0  0  0
  161.7510  210.9670  154.9740 C   0  0  0  0  0  3  0  0  0  0  0  0
  161.4270  209.2390  151.3420 C   0  0  0  0  0  0  0  0  0  0  0  0
  161.8710  210.7660  149.0520 C   0  0  0  0  0  3  0  0  0  0  0  0
  160.7310  210.4330  154.0260 C   0  0  0  0  0  2  0  0  0  0  0  0
  161.4790  206.3740  151.0510 C   0  0  2  0  0  3  0  0  0  0  0  0
  160.9050  212.6220  150.1860 F   0  0  0  0  0  0  0  0  0  0  0  0
  160.6270  206.7130  154.7400 C   0  0  0  0  0  3  0  0  0  0  0  0
  161.7690  210.6390  156.2630 C   0  0  0  0  0  3  0  0  0  0  0  0
  162.4530  207.2220  150.2340 C   0  0  0  0  0  2  0  0  0  0  0  0
  161.2240  206.9930  152.4100 C   0  0  0  0  0  0  0  0  0  0  0  0
  161.0680  210.5540  151.2900 N   0  0  0  0  0  0  0  0  0  0  0  0
  160.8600  209.6610  156.8900 C   0  0  0  0  0  3  0  0  0  0  0  0
  162.0120  208.6490  150.2050 C   0  0  0  0  0  0  0  0  0  0  0  0
  162.2430  209.4220  149.0670 C   0  0  0  0  0  3  0  0  0  0  0  0
  160.9150  206.1690  153.4950 C   0  0  0  0  0  3  0  0  0  0  0  0
  160.6290  208.0930  154.9320 C   0  0  0  0  0  0  0  0  0  0  0  0
  160.3610  208.5640  156.3080 C   0  0  0  0  0  3  0  0  0  0  0  0
  162.0050  205.0200  151.1760 N   0  0  0  0  0  2  0  0  0  0  0  0
  161.0810  203.0130  146.4820 C   0  0  0  0  0  0  0  0  0  0  0  0
  161.9030  204.6310  148.1650 C   0  0  0  0  0  3  0  0  0  0  0  0
  160.3320  201.9010  150.0050 C   0  0  0  0  0  3  0  0  0  0  0  0
  160.7480  202.7380  151.1860 C   0  0  0  0  0  2  0  0  0  0  0  0
  160.9810  202.7420  145.2580 O   0  0  0  0  0  0  0  0  0  0  0  0
  161.4090  203.9030  150.5130 C   0  0  0  0  0  0  0  0  0  0  0  0
  161.7580  204.2730  146.8830 C   0  0  0  0  0  3  0  0  0  0  0  0
  160.7110  202.5150  148.8940 C   0  0  0  0  0  0  0  0  0  0  0  0
  161.3770  203.7490  149.2060 C   0  0  0  0  0  0  0  0  0  0  0  0
  160.5040  202.0400  147.4910 C   0  0  0  0  0  2  0  0  0  0  0  0
  1 14  1  0  0  0  0
  2  3  1  0  0  0  0
  3  7  1  0  0  0  0
  3 19  2  0  0  0  0
  4 11  2  0  0  0  0
  5  2  1  0  0  0  0
  6 17  1  0  0  0  0
  6  1  2  0  0  0  0
  7  4  1  0  0  0  0
  8 21  1  1  0  0  0
  8 13  1  0  0  0  0
  9  1  1  0  0  0  0
 10 19  1  0  0  0  0
 11 15  1  0  0  0  0
 12  8  1  0  0  0  0
 13  2  2  0  0  0  0
 13 18  1  0  0  0  0
 14  5  2  0  0  0  0
 16 12  1  0  0  0  0
 16  5  1  0  0  0  0
 17 16  2  0  0  0  0
 18 10  2  0  0  0  0
 19 20  1  0  0  0  0
 20 15  2  0  0  0  0
 22 28  1  0  0  0  0
 22 31  1  0  0  0  0
 23 30  1  0  0  0  0
 24 25  1  0  0  0  0
 26 22  2  0  0  0  0
 27 21  1  0  0  0  0
 27 25  1  0  0  0  0
 28 23  2  0  0  0  0
 29 30  1  0  0  0  0
 29 24  2  0  0  0  0
 30 27  2  0  0  0  0
 31 29  1  0  0  0  0
M  END
>  <MODEL>
1

>  <REMARK>
 VINA RESULT:     -10.4      0.000      0.000
  Name = 
  2 active torsions:
  status: ('A' for Active; 'I' for Inactive)
    1  A    between atoms: C_9  and  N_23
    2  A    between atoms: C_15  and  N_23
                            x       y       z     vdW  Elec       q    Type
                         _______ _______ _______ _____ _____    ______ ____

>  <TORSDO>
F 2

$$$$
=
 OpenBabel11052422313D

 31 36  0  0  1  0  0  0  0  0999 V2000
  160.7940  201.3900  150.0130 C   0  0  0  0  0  0  0  0  0  0  0  0
  161.1170  205.0330  149.1400 C   0  0  0  0  0  0  0  0  0  0  0  0
  161.0530  205.0970  147.7190 C   0  0  0  0  0  0  0  0  0  0  0  0
  162.1170  203.6890  145.9830 C   0  0  0  0  0  3  0  0  0  0  0  0
  161.1550  203.7450  149.9010 C   0  0  0  0  0  0  0  0  0  0  0  0
  161.1790  201.3650  151.3530 C   0  0  0  0  0  3  0  0  0  0  0  0
  160.9460  203.8530  146.8910 C   0  0  0  0  0  2  0  0  0  0  0  0
  161.1620  206.2060  151.3980 C   0  0  2  0  0  3  0  0  0  0  0  0
  160.4250  200.2430  149.3950 F   0  0  0  0  0  0  0  0  0  0  0  0
  160.9820  207.5230  147.8360 C   0  0  0  0  0  3  0  0  0  0  0  0
  162.3650  204.5280  144.9810 C   0  0  0  0  0  3  0  0  0  0  0  0
  161.9730  205.0190  151.9160 C   0  0  0  0  0  2  0  0  0  0  0  0
  161.1520  206.2400  149.8830 C   0  0  0  0  0  0  0  0  0  0  0  0
  160.7890  202.5640  149.3260 N   0  0  0  0  0  0  0  0  0  0  0  0
  161.5850  205.7470  144.6970 C   0  0  0  0  0  3  0  0  0  0  0  0
  161.5290  203.7530  151.2590 C   0  0  0  0  0  0  0  0  0  0  0  0
  161.5510  202.5560  151.9760 C   0  0  0  0  0  3  0  0  0  0  0  0
  161.0450  207.4670  149.2220 C   0  0  0  0  0  3  0  0  0  0  0  0
  161.0140  206.3570  147.0740 C   0  0  0  0  0  0  0  0  0  0  0  0
  160.9940  206.5330  145.6060 C   0  0  0  0  0  3  0  0  0  0  0  0
  161.7070  207.4400  151.9510 N   0  0  0  0  0  2  0  0  0  0  0  0
  159.7710  211.8560  153.8660 C   0  0  0  0  0  0  0  0  0  0  0  0
  160.7300  210.3070  152.1920 C   0  0  0  0  0  3  0  0  0  0  0  0
  160.4590  208.4460  155.3170 C   0  0  0  0  0  3  0  0  0  0  0  0
  161.0430  207.3470  154.4690 C   0  0  0  0  0  3  0  0  0  0  0  0
  159.3380  213.0170  154.0860 O   0  0  0  0  0  0  0  0  0  0  0  0
  161.1940  208.0350  153.1460 C   0  0  0  0  0  0  0  0  0  0  0  0
  160.2560  211.5190  152.5030 C   0  0  0  0  0  3  0  0  0  0  0  0
  160.3200  209.5310  154.5700 C   0  0  0  0  0  0  0  0  0  0  0  0
  160.7720  209.2790  153.2300 C   0  0  0  0  0  0  0  0  0  0  0  0
  159.7780  210.8560  155.0050 C   0  0  0  0  0  3  0  0  0  0  0  0
  1  6  1  0  0  0  0
  2 13  1  0  0  0  0
  2  5  1  0  0  0  0
  3  2  2  0  0  0  0
  4  7  1  0  0  0  0
  5 16  2  0  0  0  0
  6 17  2  0  0  0  0
  7  3  1  0  0  0  0
  8 12  1  0  0  0  0
  8 21  1  1  0  0  0
  9  1  1  0  0  0  0
 10 18  1  0  0  0  0
 11  4  2  0  0  0  0
 13  8  1  0  0  0  0
 14  5  1  0  0  0  0
 14  1  2  0  0  0  0
 15 11  1  0  0  0  0
 15 20  2  0  0  0  0
 16 12  1  0  0  0  0
 16 17  1  0  0  0  0
 18 13  2  0  0  0  0
 19  3  1  0  0  0  0
 19 10  2  0  0  0  0
 20 19  1  0  0  0  0
 21 27  1  0  0  0  0
 22 26  2  0  0  0  0
 22 31  1  0  0  0  0
 23 28  2  0  0  0  0
 23 30  1  0  0  0  0
 25 24  2  0  0  0  0
 27 30  2  0  0  0  0
 27 25  1  0  0  0  0
 28 22  1  0  0  0  0
 29 31  2  0  0  0  0
 29 24  1  0  0  0  0
 30 29  1  0  0  0  0
M  END
>  <MODEL>
2

>  <REMARK>
 VINA RESULT:     -10.2      3.689      8.582
  Name = 
  2 active torsions:
  status: ('A' for Active; 'I' for Inactive)
    1  A    between atoms: C_9  and  N_23
    2  A    between atoms: C_15  and  N_23
                            x       y       z     vdW  Elec       q    Type
                         _______ _______ _______ _____ _____    ______ ____

>  <TORSDO>
F 2

$$$$
=
 OpenBabel11052422313D

 31 36  0  0  1  0  0  0  0  0999 V2000
  160.6330  201.7830  150.3760 C   0  0  0  0  0  0  0  0  0  0  0  0
  161.1600  205.2240  148.9530 C   0  0  0  0  0  0  0  0  0  0  0  0
  161.0310  205.0820  147.5420 C   0  0  0  0  0  0  0  0  0  0  0  0
  161.9090  203.3590  145.9980 C   0  0  0  0  0  3  0  0  0  0  0  0
  161.1470  204.0620  149.8970 C   0  0  0  0  0  0  0  0  0  0  0  0
  161.0810  201.9270  151.6880 C   0  0  0  0  0  3  0  0  0  0  0  0
  160.7980  203.7410  146.9160 C   0  0  0  0  0  2  0  0  0  0  0  0
  161.3960  206.7090  151.0050 C   0  0  2  0  0  3  0  0  0  0  0  0
  160.1570  200.5880  149.9510 F   0  0  0  0  0  0  0  0  0  0  0  0
  161.1300  207.4970  147.2960 C   0  0  0  0  0  3  0  0  0  0  0  0
  162.1640  204.0200  144.8720 C   0  0  0  0  0  3  0  0  0  0  0  0
  162.1480  205.5540  151.6650 C   0  0  0  0  0  2  0  0  0  0  0  0
  161.3140  206.5210  149.5040 C   0  0  0  0  0  0  0  0  0  0  0  0
  160.6740  202.8400  149.5210 N   0  0  0  0  0  0  0  0  0  0  0  0
  161.4560  205.2390  144.4390 C   0  0  0  0  0  3  0  0  0  0  0  0
  161.5880  204.2420  151.2230 C   0  0  0  0  0  0  0  0  0  0  0  0
  161.5640  203.1650  152.1100 C   0  0  0  0  0  3  0  0  0  0  0  0
  161.2580  207.6410  148.6710 C   0  0  0  0  0  3  0  0  0  0  0  0
  161.0450  206.2330  146.7170 C   0  0  0  0  0  0  0  0  0  0  0  0
  160.9650  206.1910  145.2410 C   0  0  0  0  0  3  0  0  0  0  0  0
  162.0500  207.9670  151.3450 N   0  0  0  0  0  2  0  0  0  0  0  0
  160.0840  208.9350  156.0480 C   0  0  0  0  0  0  0  0  0  0  0  0
  161.1730  207.6480  154.2370 C   0  0  0  0  0  3  0  0  0  0  0  0
  160.4270  210.9510  152.8820 C   0  0  0  0  0  3  0  0  0  0  0  0
  161.0650  210.3600  151.6520 C   0  0  0  0  0  3  0  0  0  0  0  0
  159.6820  208.9220  157.2400 O   0  0  0  0  0  0  0  0  0  0  0  0
  161.4060  208.9790  152.1240 C   0  0  0  0  0  0  0  0  0  0  0  0
  160.7210  207.7120  155.4950 C   0  0  0  0  0  3  0  0  0  0  0  0
  160.4310  210.0400  153.8430 C   0  0  0  0  0  0  0  0  0  0  0  0
  161.0350  208.8230  153.3780 C   0  0  0  0  0  0  0  0  0  0  0  0
  159.8970  210.1980  155.2320 C   0  0  0  0  0  3  0  0  0  0  0  0
  1  6  1  0  0  0  0
  2 13  1  0  0  0  0
  2  5  1  0  0  0  0
  3  2  2  0  0  0  0
  4  7  1  0  0  0  0
  5 16  2  0  0  0  0
  6 17  2  0  0  0  0
  7  3  1  0  0  0  0
  8 21  1  6  0  0  0
  8 12  1  0  0  0  0
  9  1  1  0  0  0  0
 10 18  1  0  0  0  0
 11  4  2  0  0  0  0
 13  8  1  0  0  0  0
 14  5  1  0  0  0  0
 14  1  2  0  0  0  0
 15 11  1  0  0  0  0
 15 20  2  0  0  0  0
 16 12  1  0  0  0  0
 16 17  1  0  0  0  0
 18 13  2  0  0  0  0
 19 10  2  0  0  0  0
 19  3  1  0  0  0  0
 20 19  1  0  0  0  0
 21 27  1  0  0  0  0
 22 26  2  0  0  0  0
 23 28  2  0  0  0  0
 24 29  1  0  0  0  0
 25 27  1  0  0  0  0
 25 24  2  0  0  0  0
 27 30  2  0  0  0  0
 28 22  1  0  0  0  0
 29 31  2  0  0  0  0
 30 29  1  0  0  0  0
 30 23  1  0  0  0  0
 31 22  1  0  0  0  0
M  END
>  <MODEL>
3

>  <REMARK>
 VINA RESULT:     -10.1      3.599      8.652
  Name = 
  2 active torsions:
  status: ('A' for Active; 'I' for Inactive)
    1  A    between atoms: C_9  and  N_23
    2  A    between atoms: C_15  and  N_23
                            x       y       z     vdW  Elec       q    Type
                         _______ _______ _______ _____ _____    ______ ____

>  <TORSDO>
F 2

$$$$
=
 OpenBabel11052422313D

 31 36  0  0  1  0  0  0  0  0999 V2000
  160.0150  212.9340  151.5520 C   0  0  0  0  0  0  0  0  0  0  0  0
  160.7520  209.4510  152.7620 C   0  0  0  0  0  0  0  0  0  0  0  0
  160.4320  209.4490  154.1500 C   0  0  0  0  0  0  0  0  0  0  0  0
  160.9070  211.1050  155.9260 C   0  0  0  0  0  3  0  0  0  0  0  0
  160.7240  210.6870  151.9170 C   0  0  0  0  0  0  0  0  0  0  0  0
  160.6370  212.9580  150.3040 C   0  0  0  0  0  3  0  0  0  0  0  0
  159.9700  210.6960  154.8410 C   0  0  0  0  0  2  0  0  0  0  0  0
  161.4110  208.1920  150.6520 C   0  0  2  0  0  3  0  0  0  0  0  0
  159.3550  214.0290  151.9990 F   0  0  0  0  0  0  0  0  0  0  0  0
  160.7760  207.0440  154.2200 C   0  0  0  0  0  3  0  0  0  0  0  0
  161.0940  210.3740  157.0220 C   0  0  0  0  0  3  0  0  0  0  0  0
  162.1020  209.4740  150.1900 C   0  0  0  0  0  2  0  0  0  0  0  0
  161.1210  208.2330  152.1380 C   0  0  0  0  0  0  0  0  0  0  0  0
  160.0700  211.8140  152.3200 N   0  0  0  0  0  0  0  0  0  0  0  0
  160.4820  209.0540  157.2610 C   0  0  0  0  0  3  0  0  0  0  0  0
  161.3440  210.6760  150.6530 C   0  0  0  0  0  0  0  0  0  0  0  0
  161.3080  211.8200  149.8560 C   0  0  0  0  0  3  0  0  0  0  0  0
  161.0900  207.0410  152.8670 C   0  0  0  0  0  3  0  0  0  0  0  0
  160.4750  208.2350  154.8780 C   0  0  0  0  0  0  0  0  0  0  0  0
  160.2070  208.1330  156.3290 C   0  0  0  0  0  3  0  0  0  0  0  0
  162.2420  207.0450  150.3060 N   0  0  0  0  0  2  0  0  0  0  0  0
  160.6740  202.1120  149.9600 C   0  0  0  0  0  0  0  0  0  0  0  0
  161.4600  204.2000  151.0310 C   0  0  0  0  0  3  0  0  0  0  0  0
  161.2070  204.8770  147.4550 C   0  0  0  0  0  3  0  0  0  0  0  0
  161.6830  206.2370  147.8930 C   0  0  0  0  0  3  0  0  0  0  0  0
  160.3260  200.9160  150.1380 O   0  0  0  0  0  0  0  0  0  0  0  0
  161.8200  206.0470  149.3740 C   0  0  0  0  0  0  0  0  0  0  0  0
  161.0780  202.9220  151.1390 C   0  0  0  0  0  3  0  0  0  0  0  0
  161.1050  204.0990  148.5220 C   0  0  0  0  0  0  0  0  0  0  0  0
  161.4820  204.8190  149.7070 C   0  0  0  0  0  0  0  0  0  0  0  0
  160.6670  202.6680  148.5510 C   0  0  0  0  0  3  0  0  0  0  0  0
  1  9  1  0  0  0  0
  1 14  1  0  0  0  0
  2  3  1  0  0  0  0
  3  7  1  0  0  0  0
  3 19  2  0  0  0  0
  4 11  2  0  0  0  0
  5 14  2  0  0  0  0
  5  2  1  0  0  0  0
  6  1  2  0  0  0  0
  7  4  1  0  0  0  0
  8 21  1  1  0  0  0
  8 13  1  0  0  0  0
 10 19  1  0  0  0  0
 11 15  1  0  0  0  0
 12  8  1  0  0  0  0
 12 16  1  0  0  0  0
 13  2  2  0  0  0  0
 13 18  1  0  0  0  0
 16  5  1  0  0  0  0
 17  6  1  0  0  0  0
 17 16  2  0  0  0  0
 18 10  2  0  0  0  0
 19 20  1  0  0  0  0
 20 15  2  0  0  0  0
 22 26  2  0  0  0  0
 22 28  1  0  0  0  0
 23 28  2  0  0  0  0
 24 25  2  0  0  0  0
 24 29  1  0  0  0  0
 25 27  1  0  0  0  0
 27 30  2  0  0  0  0
 27 21  1  0  0  0  0
 29 31  2  0  0  0  0
 29 30  1  0  0  0  0
 30 23  1  0  0  0  0
 31 22  1  0  0  0  0
M  END
>  <MODEL>
4

>  <REMARK>
 VINA RESULT:     -10.0      1.545      2.445
  Name = 
  2 active torsions:
  status: ('A' for Active; 'I' for Inactive)
    1  A    between atoms: C_9  and  N_23
    2  A    between atoms: C_15  and  N_23
                            x       y       z     vdW  Elec       q    Type
                         _______ _______ _______ _____ _____    ______ ____

>  <TORSDO>
F 2

$$$$
=
 OpenBabel11052422313D

 31 36  0  0  1  0  0  0  0  0999 V2000
  161.1240  208.7850  155.1070 C   0  0  0  0  0  0  0  0  0  0  0  0
  161.4630  209.0090  151.3680 C   0  0  0  0  0  0  0  0  0  0  0  0
  161.4280  210.3980  151.0600 C   0  0  0  0  0  0  0  0  0  0  0  0
  159.9770  212.2130  151.9110 C   0  0  0  0  0  3  0  0  0  0  0  0
  161.2290  208.4690  152.7450 C   0  0  0  0  0  0  0  0  0  0  0  0
  160.8460  207.4330  155.3040 C   0  0  0  0  0  3  0  0  0  0  0  0
  161.2230  211.4250  152.1310 C   0  0  0  0  0  2  0  0  0  0  0  0
  161.8250  206.5980  150.6380 C   0  0  2  0  0  3  0  0  0  0  0  0
  161.2090  209.6200  156.1700 F   0  0  0  0  0  0  0  0  0  0  0  0
  161.9880  209.8940  148.7500 C   0  0  0  0  0  3  0  0  0  0  0  0
  159.8230  213.0310  150.8730 C   0  0  0  0  0  3  0  0  0  0  0  0
  160.8380  206.1950  151.7320 C   0  0  0  0  0  2  0  0  0  0  0  0
  161.7250  208.0780  150.3310 C   0  0  0  0  0  0  0  0  0  0  0  0
  161.3090  209.2660  153.8490 N   0  0  0  0  0  0  0  0  0  0  0  0
  160.8050  213.1950  149.7850 C   0  0  0  0  0  3  0  0  0  0  0  0
  160.9700  207.0950  152.9160 C   0  0  0  0  0  0  0  0  0  0  0  0
  160.7660  206.5860  154.1990 C   0  0  0  0  0  3  0  0  0  0  0  0
  162.0220  208.5370  149.0450 C   0  0  0  0  0  3  0  0  0  0  0  0
  161.6670  210.8290  149.7320 C   0  0  0  0  0  0  0  0  0  0  0  0
  161.6080  212.2410  149.2990 C   0  0  0  0  0  3  0  0  0  0  0  0
  161.5800  205.7940  149.4470 N   0  0  0  0  0  2  0  0  0  0  0  0
  160.9180  201.5640  146.5160 C   0  0  0  0  0  0  0  0  0  0  0  0
  161.3580  203.9400  147.0500 C   0  0  0  0  0  3  0  0  0  0  0  0
  160.8120  202.2290  150.2250 C   0  0  0  0  0  3  0  0  0  0  0  0
  161.0550  203.6120  150.7710 C   0  0  0  0  0  2  0  0  0  0  0  0
  160.8050  200.7040  145.6050 O   0  0  0  0  0  0  0  0  0  0  0  0
  161.2890  204.3950  149.5140 C   0  0  0  0  0  0  0  0  0  0  0  0
  161.2230  202.9690  146.1390 C   0  0  0  0  0  3  0  0  0  0  0  0
  160.9040  202.2720  148.9040 C   0  0  0  0  0  0  0  0  0  0  0  0
  161.1990  203.6070  148.4640 C   0  0  0  0  0  0  0  0  0  0  0  0
  160.7350  201.1270  147.9550 C   0  0  0  0  0  2  0  0  0  0  0  0
  1  6  1  0  0  0  0
  1  9  1  0  0  0  0
  2  5  1  0  0  0  0
  3  2  1  0  0  0  0
  3  7  1  0  0  0  0
  4  7  1  0  0  0  0
  5 16  2  0  0  0  0
  5 14  1  0  0  0  0
  8 21  1  6  0  0  0
  8 12  1  0  0  0  0
 10 18  2  0  0  0  0
 10 19  1  0  0  0  0
 11  4  2  0  0  0  0
 12 16  1  0  0  0  0
 13  8  1  0  0  0  0
 13  2  2  0  0  0  0
 14  1  2  0  0  0  0
 15 11  1  0  0  0  0
 16 17  1  0  0  0  0
 17  6  2  0  0  0  0
 18 13  1  0  0  0  0
 19  3  2  0  0  0  0
 20 19  1  0  0  0  0
 20 15  2  0  0  0  0
 21 27  1  0  0  0  0
 22 31  1  0  0  0  0
 23 30  1  0  0  0  0
 24 25  1  0  0  0  0
 26 22  2  0  0  0  0
 27 25  1  0  0  0  0
 28 22  1  0  0  0  0
 28 23  2  0  0  0  0
 29 24  2  0  0  0  0
 30 29  1  0  0  0  0
 30 27  2  0  0  0  0
 31 29  1  0  0  0  0
M  END
>  <MODEL>
5

>  <REMARK>
 VINA RESULT:     -10.0      1.742      4.107
  Name = 
  2 active torsions:
  status: ('A' for Active; 'I' for Inactive)
    1  A    between atoms: C_9  and  N_23
    2  A    between atoms: C_15  and  N_23
                            x       y       z     vdW  Elec       q    Type
                         _______ _______ _______ _____ _____    ______ ____

>  <TORSDO>
F 2

$$$$
=
 OpenBabel11052422313D

 31 36  0  0  1  0  0  0  0  0999 V2000
  160.9390  212.1970  150.7200 C   0  0  0  0  0  0  0  0  0  0  0  0
  161.1660  208.6260  151.8760 C   0  0  0  0  0  0  0  0  0  0  0  0
  160.9420  208.6600  153.2820 C   0  0  0  0  0  0  0  0  0  0  0  0
  161.8000  210.1940  155.0240 C   0  0  0  0  0  3  0  0  0  0  0  0
  161.2880  209.8590  151.0360 C   0  0  0  0  0  0  0  0  0  0  0  0
  161.4730  212.1320  149.4340 C   0  0  0  0  0  3  0  0  0  0  0  0
  160.7400  209.9570  154.0030 C   0  0  0  0  0  2  0  0  0  0  0  0
  161.4680  207.3000  149.7250 C   0  0  2  0  0  3  0  0  0  0  0  0
  160.5010  213.3810  151.2120 F   0  0  0  0  0  0  0  0  0  0  0  0
  160.8870  206.2310  153.3270 C   0  0  0  0  0  3  0  0  0  0  0  0
  161.9350  209.4280  156.1040 C   0  0  0  0  0  3  0  0  0  0  0  0
  162.3300  208.4560  149.2200 C   0  0  0  0  0  2  0  0  0  0  0  0
  161.2870  207.3700  151.2270 C   0  0  0  0  0  0  0  0  0  0  0  0
  160.8580  211.0730  151.4820 N   0  0  0  0  0  0  0  0  0  0  0  0
  161.1290  208.2250  156.3820 C   0  0  0  0  0  3  0  0  0  0  0  0
  161.8140  209.7600  149.7330 C   0  0  0  0  0  0  0  0  0  0  0  0
  161.9160  210.9050  148.9420 C   0  0  0  0  0  3  0  0  0  0  0  0
  161.1070  206.1920  151.9560 C   0  0  0  0  0  3  0  0  0  0  0  0
  160.8310  207.4470  154.0050 C   0  0  0  0  0  0  0  0  0  0  0  0
  160.6460  207.3730  155.4700 C   0  0  0  0  0  3  0  0  0  0  0  0
  162.0730  206.0360  149.3240 N   0  0  0  0  0  2  0  0  0  0  0  0
  160.8310  201.7660  146.6510 C   0  0  0  0  0  0  0  0  0  0  0  0
  161.2240  203.2030  148.6270 C   0  0  0  0  0  3  0  0  0  0  0  0
  161.9250  205.2410  145.6850 C   0  0  0  0  0  3  0  0  0  0  0  0
  162.2170  206.2810  146.7340 C   0  0  0  0  0  2  0  0  0  0  0  0
  160.4900  200.6260  146.2420 O   0  0  0  0  0  0  0  0  0  0  0  0
  161.9540  205.5170  147.9970 C   0  0  0  0  0  0  0  0  0  0  0  0
  160.8720  202.0180  148.1150 C   0  0  0  0  0  3  0  0  0  0  0  0
  161.5660  204.1180  146.2880 C   0  0  0  0  0  0  0  0  0  0  0  0
  161.5820  204.2870  147.7140 C   0  0  0  0  0  0  0  0  0  0  0  0
  161.1860  202.8280  145.6310 C   0  0  0  0  0  2  0  0  0  0  0  0
  1  9  1  0  0  0  0
  1 14  1  0  0  0  0
  2  3  1  0  0  0  0
  3  7  1  0  0  0  0
  3 19  2  0  0  0  0
  4 11  2  0  0  0  0
  5 14  2  0  0  0  0
  5  2  1  0  0  0  0
  6  1  2  0  0  0  0
  7  4  1  0  0  0  0
  8 21  1  1  0  0  0
  8 13  1  0  0  0  0
 10 19  1  0  0  0  0
 11 15  1  0  0  0  0
 12  8  1  0  0  0  0
 12 16  1  0  0  0  0
 13  2  2  0  0  0  0
 13 18  1  0  0  0  0
 16  5  1  0  0  0  0
 17  6  1  0  0  0  0
 17 16  2  0  0  0  0
 18 10  2  0  0  0  0
 19 20  1  0  0  0  0
 20 15  2  0  0  0  0
 22 28  1  0  0  0  0
 24 29  2  0  0  0  0
 24 25  1  0  0  0  0
 25 27  1  0  0  0  0
 26 22  2  0  0  0  0
 27 21  1  0  0  0  0
 28 23  2  0  0  0  0
 29 30  1  0  0  0  0
 30 27  2  0  0  0  0
 30 23  1  0  0  0  0
 31 29  1  0  0  0  0
 31 22  1  0  0  0  0
M  END
>  <MODEL>
6

>  <REMARK>
 VINA RESULT:      -9.7      1.206      2.167
  Name = 
  2 active torsions:
  status: ('A' for Active; 'I' for Inactive)
    1  A    between atoms: C_9  and  N_23
    2  A    between atoms: C_15  and  N_23
                            x       y       z     vdW  Elec       q    Type
                         _______ _______ _______ _____ _____    ______ ____

>  <TORSDO>
F 2

$$$$
=
 OpenBabel11052422313D

 31 36  0  0  1  0  0  0  0  0999 V2000
  162.0840  210.5800  149.2420 C   0  0  0  0  0  0  0  0  0  0  0  0
  161.2450  208.2560  152.0770 C   0  0  0  0  0  0  0  0  0  0  0  0
  161.4500  206.9400  151.5720 C   0  0  0  0  0  0  0  0  0  0  0  0
  160.8340  205.9230  149.4020 C   0  0  0  0  0  3  0  0  0  0  0  0
  161.3440  209.4850  151.2280 C   0  0  0  0  0  0  0  0  0  0  0  0
  161.5670  211.7970  149.6860 C   0  0  0  0  0  3  0  0  0  0  0  0
  161.8550  206.7120  150.1480 C   0  0  0  0  0  2  0  0  0  0  0  0
  160.7590  209.8150  154.0290 C   0  0  2  0  0  3  0  0  0  0  0  0
  162.7060  210.5080  148.0410 F   0  0  0  0  0  0  0  0  0  0  0  0
  161.0980  206.0360  153.7990 C   0  0  0  0  0  3  0  0  0  0  0  0
  160.5560  204.6550  149.6960 C   0  0  0  0  0  3  0  0  0  0  0  0
  160.1100  210.7590  153.0180 C   0  0  0  0  0  2  0  0  0  0  0  0
  160.9270  208.4260  153.4490 C   0  0  0  0  0  0  0  0  0  0  0  0
  161.9650  209.4660  150.0130 N   0  0  0  0  0  0  0  0  0  0  0  0
  161.1450  203.9100  150.8240 C   0  0  0  0  0  3  0  0  0  0  0  0
  160.8300  210.7040  151.7100 C   0  0  0  0  0  0  0  0  0  0  0  0
  160.9330  211.8540  150.9270 C   0  0  0  0  0  3  0  0  0  0  0  0
  160.8960  207.3160  154.2970 C   0  0  0  0  0  3  0  0  0  0  0  0
  161.3460  205.8290  152.4430 C   0  0  0  0  0  0  0  0  0  0  0  0
  161.4930  204.4240  152.0100 C   0  0  0  0  0  3  0  0  0  0  0  0
  159.9580  209.7870  155.2460 N   0  0  0  0  0  2  0  0  0  0  0  0
  155.9470  212.8720  156.3910 C   0  0  0  0  0  0  0  0  0  0  0  0
  157.1600  210.9640  155.3860 C   0  0  0  0  0  3  0  0  0  0  0  0
  159.6140  212.9050  157.2610 C   0  0  0  0  0  3  0  0  0  0  0  0
  160.5400  211.8310  156.7530 C   0  0  0  0  0  3  0  0  0  0  0  0
  154.8370  213.4480  156.5240 O   0  0  0  0  0  0  0  0  0  0  0  0
  159.6020  210.9760  155.9560 C   0  0  0  0  0  0  0  0  0  0  0  0
  156.0170  211.6330  155.5740 C   0  0  0  0  0  3  0  0  0  0  0  0
  158.3930  212.6600  156.8120 C   0  0  0  0  0  0  0  0  0  0  0  0
  158.3830  211.4700  156.0080 C   0  0  0  0  0  0  0  0  0  0  0  0
  157.1620  213.4700  157.0720 C   0  0  0  0  0  3  0  0  0  0  0  0
  1  6  2  0  0  0  0
  1 14  1  0  0  0  0
  2 13  1  0  0  0  0
  3  2  2  0  0  0  0
  3 19  1  0  0  0  0
  4 11  2  0  0  0  0
  4  7  1  0  0  0  0
  5 16  1  0  0  0  0
  5  2  1  0  0  0  0
  6 17  1  0  0  0  0
  7  3  1  0  0  0  0
  8 21  1  1  0  0  0
  9  1  1  0  0  0  0
 10 18  1  0  0  0  0
 11 15  1  0  0  0  0
 12  8  1  0  0  0  0
 13  8  1  0  0  0  0
 13 18  2  0  0  0  0
 14  5  2  0  0  0  0
 15 20  2  0  0  0  0
 16 12  1  0  0  0  0
 17 16  2  0  0  0  0
 19 10  2  0  0  0  0
 20 19  1  0  0  0  0
 21 27  1  0  0  0  0
 22 26  2  0  0  0  0
 22 31  1  0  0  0  0
 23 28  2  0  0  0  0
 23 30  1  0  0  0  0
 25 24  2  0  0  0  0
 27 30  2  0  0  0  0
 27 25  1  0  0  0  0
 28 22  1  0  0  0  0
 29 31  2  0  0  0  0
 29 24  1  0  0  0  0
 30 29  1  0  0  0  0
M  END
>  <MODEL>
7

>  <REMARK>
 VINA RESULT:      -8.8      3.926      8.232
  Name = 
  2 active torsions:
  status: ('A' for Active; 'I' for Inactive)
    1  A    between atoms: C_9  and  N_23
    2  A    between atoms: C_15  and  N_23
                            x       y       z     vdW  Elec       q    Type
                         _______ _______ _______ _____ _____    ______ ____

>  <TORSDO>
F 2

$$$$
=
 OpenBabel11052422313D

 31 36  0  0  1  0  0  0  0  0999 V2000
  162.3400  207.5120  147.8860 C   0  0  0  0  0  0  0  0  0  0  0  0
  161.4090  205.4730  150.9050 C   0  0  0  0  0  0  0  0  0  0  0  0
  161.3830  204.1190  150.4650 C   0  0  0  0  0  0  0  0  0  0  0  0
  160.4560  203.1010  148.4090 C   0  0  0  0  0  3  0  0  0  0  0  0
  161.6140  206.6330  149.9800 C   0  0  0  0  0  0  0  0  0  0  0  0
  162.0380  208.8110  148.2940 C   0  0  0  0  0  3  0  0  0  0  0  0
  161.6360  203.7670  149.0310 C   0  0  0  0  0  2  0  0  0  0  0  0
  161.3090  207.1780  152.7920 C   0  0  2  0  0  3  0  0  0  0  0  0
  162.8470  207.2920  146.6490 F   0  0  0  0  0  0  0  0  0  0  0  0
  161.0860  203.3830  152.7610 C   0  0  0  0  0  3  0  0  0  0  0  0
  160.0250  201.9030  148.7960 C   0  0  0  0  0  3  0  0  0  0  0  0
  160.7220  208.1580  151.7770 C   0  0  0  0  0  2  0  0  0  0  0  0
  161.2290  205.7530  152.2840 C   0  0  0  0  0  0  0  0  0  0  0  0
  162.1250  206.4660  148.7270 N   0  0  0  0  0  0  0  0  0  0  0  0
  160.5900  201.1350  149.9200 C   0  0  0  0  0  3  0  0  0  0  0  0
  161.3180  207.9360  150.4260 C   0  0  0  0  0  0  0  0  0  0  0  0
  161.5210  209.0200  149.5720 C   0  0  0  0  0  3  0  0  0  0  0  0
  161.1090  204.7010  153.1960 C   0  0  0  0  0  3  0  0  0  0  0  0
  161.1920  203.0780  151.4050 C   0  0  0  0  0  0  0  0  0  0  0  0
  161.1020  201.6470  151.0450 C   0  0  0  0  0  3  0  0  0  0  0  0
  160.6110  207.3250  154.0640 N   0  0  0  0  0  2  0  0  0  0  0  0
  160.0740  212.2490  155.6070 C   0  0  0  0  0  0  0  0  0  0  0  0
  159.7420  210.2330  154.2110 C   0  0  0  0  0  3  0  0  0  0  0  0
  162.0160  209.2910  156.9040 C   0  0  0  0  0  3  0  0  0  0  0  0
  161.9560  207.9580  156.2040 C   0  0  0  0  0  3  0  0  0  0  0  0
  159.7830  213.4620  155.7720 O   0  0  0  0  0  0  0  0  0  0  0  0
  161.0310  208.2580  155.0630 C   0  0  0  0  0  0  0  0  0  0  0  0
  159.4810  211.5230  154.4540 C   0  0  0  0  0  3  0  0  0  0  0  0
  161.2510  210.1500  156.2470 C   0  0  0  0  0  0  0  0  0  0  0  0
  160.6410  209.5140  155.1130 C   0  0  0  0  0  0  0  0  0  0  0  0
  161.0160  211.5870  156.5910 C   0  0  0  0  0  3  0  0  0  0  0  0
  1  6  2  0  0  0  0
  1 14  1  0  0  0  0
  2 13  1  0  0  0  0
  3  2  2  0  0  0  0
  3 19  1  0  0  0  0
  4 11  2  0  0  0  0
  4  7  1  0  0  0  0
  5 16  1  0  0  0  0
  5  2  1  0  0  0  0
  6 17  1  0  0  0  0
  7  3  1  0  0  0  0
  8 21  1  1  0  0  0
  9  1  1  0  0  0  0
 10 18  1  0  0  0  0
 11 15  1  0  0  0  0
 12  8  1  0  0  0  0
 13  8  1  0  0  0  0
 13 18  2  0  0  0  0
 14  5  2  0  0  0  0
 15 20  2  0  0  0  0
 16 12  1  0  0  0  0
 17 16  2  0  0  0  0
 19 10  2  0  0  0  0
 20 19  1  0  0  0  0
 21 27  1  0  0  0  0
 22 26  2  0  0  0  0
 22 31  1  0  0  0  0
 23 28  2  0  0  0  0
 23 30  1  0  0  0  0
 25 24  2  0  0  0  0
 27 30  2  0  0  0  0
 27 25  1  0  0  0  0
 28 22  1  0  0  0  0
 29 31  2  0  0  0  0
 29 24  1  0  0  0  0
 30 29  1  0  0  0  0
M  END
>  <MODEL>
8

>  <REMARK>
 VINA RESULT:      -8.6      3.320      7.791
  Name = 
  2 active torsions:
  status: ('A' for Active; 'I' for Inactive)
    1  A    between atoms: C_9  and  N_23
    2  A    between atoms: C_15  and  N_23
                            x       y       z     vdW  Elec       q    Type
                         _______ _______ _______ _____ _____    ______ ____

>  <TORSDO>
F 2

$$$$
=
 OpenBabel11052422313D

 31 36  0  0  1  0  0  0  0  0999 V2000
  159.6530  211.6900  155.0770 C   0  0  0  0  0  0  0  0  0  0  0  0
  160.9360  210.9540  151.6200 C   0  0  0  0  0  0  0  0  0  0  0  0
  160.7020  212.1360  150.8610 C   0  0  0  0  0  0  0  0  0  0  0  0
  158.7340  213.6320  150.7580 C   0  0  0  0  0  3  0  0  0  0  0  0
  160.4560  210.7740  153.0270 C   0  0  0  0  0  0  0  0  0  0  0  0
  159.6160  210.4240  155.6620 C   0  0  0  0  0  3  0  0  0  0  0  0
  160.0080  213.3190  151.4650 C   0  0  0  0  0  2  0  0  0  0  0  0
  161.9700  208.6380  151.8260 C   0  0  2  0  0  3  0  0  0  0  0  0
  159.2750  212.7760  155.7930 F   0  0  0  0  0  0  0  0  0  0  0  0
  161.9560  211.1890  149.0080 C   0  0  0  0  0  3  0  0  0  0  0  0
  158.7010  214.0530  149.4960 C   0  0  0  0  0  3  0  0  0  0  0  0
  160.8280  208.2940  152.7820 C   0  0  0  0  0  2  0  0  0  0  0  0
  161.6540  209.8850  151.0260 C   0  0  0  0  0  0  0  0  0  0  0  0
  160.0680  211.8350  153.7910 N   0  0  0  0  0  0  0  0  0  0  0  0
  159.8850  214.1780  148.6260 C   0  0  0  0  0  3  0  0  0  0  0  0
  160.4470  209.4860  153.5970 C   0  0  0  0  0  0  0  0  0  0  0  0
  160.0130  209.3170  154.9120 C   0  0  0  0  0  3  0  0  0  0  0  0
  162.1870  210.0340  149.7430 C   0  0  0  0  0  3  0  0  0  0  0  0
  161.1970  212.2310  149.5380 C   0  0  0  0  0  0  0  0  0  0  0  0
  160.9680  213.3920  148.6520 C   0  0  0  0  0  3  0  0  0  0  0  0
  162.2260  207.4990  150.9520 N   0  0  0  0  0  2  0  0  0  0  0  0
  160.8090  202.9730  148.8500 C   0  0  0  0  0  0  0  0  0  0  0  0
  161.5410  205.3350  148.9330 C   0  0  0  0  0  3  0  0  0  0  0  0
  161.2080  204.2130  152.3870 C   0  0  0  0  0  3  0  0  0  0  0  0
  161.6490  205.6250  152.6680 C   0  0  0  0  0  2  0  0  0  0  0  0
  160.5050  202.0010  148.1120 O   0  0  0  0  0  0  0  0  0  0  0  0
  161.8090  206.1720  151.2810 C   0  0  0  0  0  0  0  0  0  0  0  0
  161.2040  204.2570  148.2150 C   0  0  0  0  0  3  0  0  0  0  0  0
  161.1470  204.0390  151.0760 C   0  0  0  0  0  0  0  0  0  0  0  0
  161.5180  205.2460  150.3920 C   0  0  0  0  0  0  0  0  0  0  0  0
  160.7550  202.7880  150.3530 C   0  0  0  0  0  2  0  0  0  0  0  0
  1  6  1  0  0  0  0
  1  9  1  0  0  0  0
  2  5  1  0  0  0  0
  3  7  1  0  0  0  0
  3  2  2  0  0  0  0
  4  7  1  0  0  0  0
  5 16  2  0  0  0  0
  5 14  1  0  0  0  0
  8 21  1  6  0  0  0
  8 12  1  0  0  0  0
 10 19  2  0  0  0  0
 10 18  1  0  0  0  0
 11  4  2  0  0  0  0
 12 16  1  0  0  0  0
 13  2  1  0  0  0  0
 13  8  1  0  0  0  0
 14  1  2  0  0  0  0
 15 20  2  0  0  0  0
 15 11  1  0  0  0  0
 16 17  1  0  0  0  0
 17  6  2  0  0  0  0
 18 13  2  0  0  0  0
 19  3  1  0  0  0  0
 20 19  1  0  0  0  0
 21 27  1  0  0  0  0
 22 31  1  0  0  0  0
 23 30  1  0  0  0  0
 24 25  1  0  0  0  0
 26 22  2  0  0  0  0
 27 25  1  0  0  0  0
 28 22  1  0  0  0  0
 28 23  2  0  0  0  0
 29 24  2  0  0  0  0
 30 29  1  0  0  0  0
 30 27  2  0  0  0  0
 31 29  1  0  0  0  0
M  END
>  <MODEL>
9

>  <REMARK>
 VINA RESULT:      -8.5      2.128      4.835
  Name = 
  2 active torsions:
  status: ('A' for Active; 'I' for Inactive)
    1  A    between atoms: C_9  and  N_23
    2  A    between atoms: C_15  and  N_23
                            x       y       z     vdW  Elec       q    Type
                         _______ _______ _______ _____ _____    ______ ____

>  <TORSDO>
F 2

$$$$
