=
 OpenBabel11052423103D

 27 31  0  0  1  0  0  0  0  0999 V2000
  160.9030  203.2600  150.3060 N   0  0  0  0  0  0  0  0  0  0  0  0
  160.8700  205.6000  150.7450 N   0  0  0  0  0  2  0  0  0  0  0  0
  161.4120  203.8470  146.1760 C   0  0  0  0  0  3  0  0  0  0  0  0
  161.4830  205.3610  144.1840 C   0  0  0  0  0  1  0  0  0  0  0  0
  160.8460  202.0640  149.4570 C   0  0  0  0  0  2  0  0  0  0  0  0
  160.8390  206.0140  147.8560 C   0  0  0  0  0  3  0  0  0  0  0  0
  161.0030  206.2170  146.4810 C   0  0  0  0  0  3  0  0  0  0  0  0
  160.8800  204.4800  149.8470 C   0  0  0  0  0  0  0  0  0  0  0  0
  161.2960  205.1360  145.6420 C   0  0  0  0  0  0  0  0  0  0  0  0
  161.2270  203.6420  147.5470 C   0  0  0  0  0  0  0  0  0  0  0  0
  161.1680  204.4360  152.7590 O   0  0  0  0  0  0  0  0  0  0  0  0
  160.9490  204.7240  148.3920 C   0  0  0  0  0  0  0  0  0  0  0  0
  161.3600  202.3370  148.1140 N   0  0  0  0  0  2  0  0  0  0  0  0
  160.9800  205.5390  152.1750 C   0  0  0  0  0  0  0  0  0  0  0  0
  161.1720  206.5570  154.4770 C   0  0  0  0  0  1  0  0  0  0  0  0
  160.8530  206.7890  153.0000 C   0  0  1  0  0  3  0  0  0  0  0  0
  162.5390  207.4780  151.4290 O   0  0  0  0  0  1  0  0  0  0  0  0
  161.6570  207.9560  152.4020 C   0  0  1  0  0  3  0  0  0  0  0  0
  161.5810  210.3380  151.6730 C   0  0  0  0  0  2  0  0  0  0  0  0
  160.6250  210.1750  152.8430 C   0  0  2  0  0  3  0  0  0  0  0  0
  160.7740  209.0560  151.8120 C   0  0  2  0  0  3  0  0  0  0  0  0
  158.9540  213.6810  154.0480 O   0  0  0  0  0  0  0  0  0  0  0  0
  159.4060  211.0850  152.6280 C   0  0  2  0  0  3  0  0  0  0  0  0
  159.8680  212.4610  152.1990 C   0  0  0  0  0  2  0  0  0  0  0  0
  158.7970  213.4330  152.6680 C   0  0  1  0  0  3  0  0  0  0  0  0
  157.9730  212.7360  153.6900 C   0  0  1  0  0  3  0  0  0  0  0  0
  158.5350  211.3320  153.8520 C   0  0  0  0  0  2  0  0  0  0  0  0
  2 14  1  0  0  0  0
  3 10  1  0  0  0  0
  4  9  1  0  0  0  0
  5  1  1  0  0  0  0
  6 12  1  0  0  0  0
  7  6  2  0  0  0  0
  8  1  2  0  0  0  0
  8  2  1  0  0  0  0
  9  3  2  0  0  0  0
  9  7  1  0  0  0  0
 10 13  1  0  0  0  0
 10 12  2  0  0  0  0
 12  8  1  0  0  0  0
 13  5  1  0  0  0  0
 14 11  2  0  0  0  0
 14 16  1  0  0  0  0
 16 15  1  1  0  0  0
 18 17  1  6  0  0  0
 18 16  1  0  0  0  0
 19 21  1  0  0  0  0
 20 19  1  6  0  0  0
 21 18  1  1  0  0  0
 21 20  1  0  0  0  0
 23 24  1  1  0  0  0
 23 20  1  0  0  0  0
 23 27  1  0  0  0  0
 25 24  1  1  0  0  0
 25 26  1  0  0  0  0
 25 22  1  0  0  0  0
 26 27  1  1  0  0  0
 26 22  1  0  0  0  0
M  END
>  <MODEL>
1

>  <REMARK>
 VINA RESULT:      -9.0      0.000      0.000
  Name = 
  4 active torsions:
  status: ('A' for Active; 'I' for Inactive)
    1  A    between atoms: C_9  and  C_15
    2  A    between atoms: C_20  and  C_22
    3  A    between atoms: C_20  and  C_26
    4  A    between atoms: C_22  and  C_24
                            x       y       z     vdW  Elec       q    Type
                         _______ _______ _______ _____ _____    ______ ____

>  <TORSDO>
F 4

$$$$
=
 OpenBabel11052423103D

 27 31  0  0  1  0  0  0  0  0999 V2000
  161.1990  207.8110  150.1600 N   0  0  0  0  0  0  0  0  0  0  0  0
  161.2020  207.4800  152.5180 N   0  0  0  0  0  2  0  0  0  0  0  0
  160.8020  203.6980  149.3910 C   0  0  0  0  0  3  0  0  0  0  0  0
  160.7760  201.3260  150.1880 C   0  0  0  0  0  1  0  0  0  0  0  0
  161.2890  207.3900  148.7560 C   0  0  0  0  0  2  0  0  0  0  0  0
  161.3120  204.6120  151.9890 C   0  0  0  0  0  3  0  0  0  0  0  0
  161.1850  203.2400  151.7400 C   0  0  0  0  0  3  0  0  0  0  0  0
  161.2260  206.9870  151.1700 C   0  0  0  0  0  0  0  0  0  0  0  0
  160.9230  202.7840  150.4430 C   0  0  0  0  0  0  0  0  0  0  0  0
  160.9500  205.0670  149.6360 C   0  0  0  0  0  0  0  0  0  0  0  0
  160.8570  209.7530  152.0530 O   0  0  0  0  0  0  0  0  0  0  0  0
  161.1960  205.5290  150.9350 C   0  0  0  0  0  0  0  0  0  0  0  0
  160.8110  206.0180  148.5790 N   0  0  0  0  0  2  0  0  0  0  0  0
  161.0530  208.8510  152.9150 C   0  0  0  0  0  0  0  0  0  0  0  0
  162.1180  210.3920  154.6070 C   0  0  0  0  0  1  0  0  0  0  0  0
  161.1470  209.2370  154.3640 C   0  0  1  0  0  3  0  0  0  0  0  0
  159.6620  208.8450  156.2150 O   0  0  0  0  0  1  0  0  0  0  0  0
  159.7630  209.4950  154.9810 C   0  0  1  0  0  3  0  0  0  0  0  0
  158.0230  211.1430  155.6680 C   0  0  0  0  0  2  0  0  0  0  0  0
  158.3090  211.3510  154.1900 C   0  0  2  0  0  3  0  0  0  0  0  0
  159.4430  210.9810  155.1470 C   0  0  2  0  0  3  0  0  0  0  0  0
  156.6630  213.9870  151.5680 O   0  0  0  0  0  0  0  0  0  0  0  0
  158.2100  212.8490  153.8640 C   0  0  2  0  0  3  0  0  0  0  0  0
  156.7570  213.2710  153.8530 C   0  0  0  0  0  2  0  0  0  0  0  0
  156.6660  214.4530  152.9000 C   0  0  1  0  0  3  0  0  0  0  0  0
  157.8970  214.4530  152.0660 C   0  0  1  0  0  3  0  0  0  0  0  0
  158.7480  213.2720  152.5040 C   0  0  0  0  0  2  0  0  0  0  0  0
  1  8  2  0  0  0  0
  2 14  1  0  0  0  0
  3 10  2  0  0  0  0
  3  9  1  0  0  0  0
  4  9  1  0  0  0  0
  5  1  1  0  0  0  0
  7  6  1  0  0  0  0
  8  2  1  0  0  0  0
  9  7  2  0  0  0  0
 10 12  1  0  0  0  0
 11 14  2  0  0  0  0
 12  8  1  0  0  0  0
 12  6  2  0  0  0  0
 13  5  1  0  0  0  0
 13 10  1  0  0  0  0
 14 16  1  0  0  0  0
 16 15  1  6  0  0  0
 16 18  1  0  0  0  0
 18 17  1  1  0  0  0
 20 21  1  0  0  0  0
 20 19  1  1  0  0  0
 21 18  1  6  0  0  0
 21 19  1  0  0  0  0
 22 26  1  0  0  0  0
 22 25  1  0  0  0  0
 23 27  1  6  0  0  0
 23 20  1  0  0  0  0
 24 23  1  0  0  0  0
 25 24  1  1  0  0  0
 26 27  1  1  0  0  0
 26 25  1  0  0  0  0
M  END
>  <MODEL>
2

>  <REMARK>
 VINA RESULT:      -9.0      2.521      4.092
  Name = 
  4 active torsions:
  status: ('A' for Active; 'I' for Inactive)
    1  A    between atoms: C_9  and  C_15
    2  A    between atoms: C_20  and  C_22
    3  A    between atoms: C_20  and  C_26
    4  A    between atoms: C_22  and  C_24
                            x       y       z     vdW  Elec       q    Type
                         _______ _______ _______ _____ _____    ______ ____

>  <TORSDO>
F 4

$$$$
=
 OpenBabel11052423103D

 27 31  0  0  1  0  0  0  0  0999 V2000
  160.8220  204.3820  151.6960 N   0  0  0  0  0  0  0  0  0  0  0  0
  161.1020  206.7360  151.4810 N   0  0  0  0  0  2  0  0  0  0  0  0
  161.4270  203.7430  147.5860 C   0  0  0  0  0  3  0  0  0  0  0  0
  161.7120  204.6290  145.2630 C   0  0  0  0  0  1  0  0  0  0  0  0
  160.6090  203.0160  151.2010 C   0  0  0  0  0  2  0  0  0  0  0  0
  161.1420  206.3420  148.5900 C   0  0  0  0  0  3  0  0  0  0  0  0
  161.3390  206.1370  147.2190 C   0  0  0  0  0  3  0  0  0  0  0  0
  160.9660  205.4220  150.9220 C   0  0  0  0  0  0  0  0  0  0  0  0
  161.4890  204.8390  146.7180 C   0  0  0  0  0  0  0  0  0  0  0  0
  161.2090  203.9470  148.9530 C   0  0  0  0  0  0  0  0  0  0  0  0
  161.2300  206.1430  153.7460 O   0  0  0  0  0  0  0  0  0  0  0  0
  161.0750  205.2450  149.4600 C   0  0  0  0  0  0  0  0  0  0  0  0
  161.1620  202.8420  149.8570 N   0  0  0  0  0  2  0  0  0  0  0  0
  161.1950  207.0570  152.8770 C   0  0  0  0  0  0  0  0  0  0  0  0
  160.5370  209.4360  152.3470 C   0  0  0  0  0  1  0  0  0  0  0  0
  161.2330  208.4910  153.3260 C   0  0  1  0  0  3  0  0  0  0  0  0
  161.6930  208.2210  155.6710 O   0  0  0  0  0  1  0  0  0  0  0  0
  160.7210  208.6560  154.7660 C   0  0  1  0  0  3  0  0  0  0  0  0
  160.0960  210.2260  156.5990 C   0  0  0  0  0  2  0  0  0  0  0  0
  158.8920  210.0680  155.6850 C   0  0  2  0  0  3  0  0  0  0  0  0
  160.3030  210.0890  155.0970 C   0  0  2  0  0  3  0  0  0  0  0  0
  155.3880  211.8800  156.6710 O   0  0  0  0  0  0  0  0  0  0  0  0
  158.1430  211.4070  155.6020 C   0  0  2  0  0  3  0  0  0  0  0  0
  157.7630  211.8630  156.9930 C   0  0  0  0  0  2  0  0  0  0  0  0
  156.5140  212.7160  156.8330 C   0  0  1  0  0  3  0  0  0  0  0  0
  155.9390  212.4230  155.4930 C   0  0  1  0  0  3  0  0  0  0  0  0
  156.8330  211.3910  154.8260 C   0  0  0  0  0  2  0  0  0  0  0  0
  2 14  1  0  0  0  0
  3 10  1  0  0  0  0
  4  9  1  0  0  0  0
  5  1  1  0  0  0  0
  6 12  1  0  0  0  0
  7  6  2  0  0  0  0
  8  2  1  0  0  0  0
  8  1  2  0  0  0  0
  9  7  1  0  0  0  0
  9  3  2  0  0  0  0
 10 12  2  0  0  0  0
 10 13  1  0  0  0  0
 12  8  1  0  0  0  0
 13  5  1  0  0  0  0
 14 16  1  0  0  0  0
 14 11  2  0  0  0  0
 16 15  1  6  0  0  0
 16 18  1  0  0  0  0
 18 17  1  1  0  0  0
 20 19  1  1  0  0  0
 21 18  1  1  0  0  0
 21 20  1  0  0  0  0
 21 19  1  0  0  0  0
 22 25  1  0  0  0  0
 23 27  1  6  0  0  0
 23 20  1  0  0  0  0
 23 24  1  0  0  0  0
 25 24  1  6  0  0  0
 26 27  1  6  0  0  0
 26 22  1  0  0  0  0
 26 25  1  0  0  0  0
M  END
>  <MODEL>
3

>  <REMARK>
 VINA RESULT:      -8.9      2.168      2.848
  Name = 
  4 active torsions:
  status: ('A' for Active; 'I' for Inactive)
    1  A    between atoms: C_9  and  C_15
    2  A    between atoms: C_20  and  C_22
    3  A    between atoms: C_20  and  C_26
    4  A    between atoms: C_22  and  C_24
                            x       y       z     vdW  Elec       q    Type
                         _______ _______ _______ _____ _____    ______ ____

>  <TORSDO>
F 4

$$$$
=
 OpenBabel11052423103D

 27 31  0  0  1  0  0  0  0  0999 V2000
  161.2920  204.3210  151.5420 N   0  0  0  0  0  0  0  0  0  0  0  0
  161.7900  205.9740  149.9020 N   0  0  0  0  0  2  0  0  0  0  0  0
  160.9470  201.2870  148.6550 C   0  0  0  0  0  3  0  0  0  0  0  0
  160.8400  200.5580  146.2630 C   0  0  0  0  0  1  0  0  0  0  0  0
  160.8240  203.0120  152.0130 C   0  0  0  0  0  2  0  0  0  0  0  0
  161.1790  203.9660  147.8740 C   0  0  0  0  0  3  0  0  0  0  0  0
  161.0610  202.9610  146.9070 C   0  0  0  0  0  3  0  0  0  0  0  0
  161.3890  204.6500  150.2840 C   0  0  0  0  0  0  0  0  0  0  0  0
  160.9520  201.6220  147.2960 C   0  0  0  0  0  0  0  0  0  0  0  0
  161.0440  202.2930  149.6210 C   0  0  0  0  0  0  0  0  0  0  0  0
  162.3190  206.8070  152.0290 O   0  0  0  0  0  0  0  0  0  0  0  0
  161.1700  203.6330  149.2350 C   0  0  0  0  0  0  0  0  0  0  0  0
  161.0590  201.9690  151.0130 N   0  0  0  0  0  2  0  0  0  0  0  0
  162.2100  207.0210  150.7900 C   0  0  0  0  0  0  0  0  0  0  0  0
  161.8900  208.6420  148.8820 C   0  0  0  0  0  1  0  0  0  0  0  0
  162.5060  208.3950  150.2590 C   0  0  1  0  0  3  0  0  0  0  0  0
  161.9380  210.7060  150.6060 O   0  0  0  0  0  1  0  0  0  0  0  0
  162.1410  209.4930  151.2710 C   0  0  1  0  0  3  0  0  0  0  0  0
  160.3330  210.4230  152.7130 C   0  0  0  0  0  2  0  0  0  0  0  0
  161.2000  209.5190  153.5730 C   0  0  2  0  0  3  0  0  0  0  0  0
  160.9140  209.1500  152.1170 C   0  0  2  0  0  3  0  0  0  0  0  0
  161.2650  207.8070  157.2610 O   0  0  0  0  0  0  0  0  0  0  0  0
  160.3150  208.8000  154.6020 C   0  0  2  0  0  3  0  0  0  0  0  0
  160.3400  209.5580  155.9110 C   0  0  0  0  0  2  0  0  0  0  0  0
  160.0810  208.5300  157.0010 C   0  0  1  0  0  3  0  0  0  0  0  0
  160.3240  207.1850  156.4170 C   0  0  1  0  0  3  0  0  0  0  0  0
  160.7320  207.3820  154.9650 C   0  0  0  0  0  2  0  0  0  0  0  0
  1  5  1  0  0  0  0
  2  8  1  0  0  0  0
  2 14  1  0  0  0  0
  3 10  1  0  0  0  0
  4  9  1  0  0  0  0
  6 12  1  0  0  0  0
  7  9  1  0  0  0  0
  7  6  2  0  0  0  0
  8  1  2  0  0  0  0
  9  3  2  0  0  0  0
 10 13  1  0  0  0  0
 12 10  2  0  0  0  0
 12  8  1  0  0  0  0
 13  5  1  0  0  0  0
 14 11  2  0  0  0  0
 16 15  1  6  0  0  0
 16 14  1  0  0  0  0
 16 18  1  0  0  0  0
 18 17  1  6  0  0  0
 20 19  1  6  0  0  0
 20 23  1  0  0  0  0
 21 18  1  6  0  0  0
 21 19  1  0  0  0  0
 21 20  1  0  0  0  0
 23 27  1  1  0  0  0
 23 24  1  0  0  0  0
 25 24  1  6  0  0  0
 25 22  1  0  0  0  0
 26 27  1  6  0  0  0
 26 25  1  0  0  0  0
 26 22  1  0  0  0  0
M  END
>  <MODEL>
4

>  <REMARK>
 VINA RESULT:      -8.8      2.217      3.722
  Name = 
  4 active torsions:
  status: ('A' for Active; 'I' for Inactive)
    1  A    between atoms: C_9  and  C_15
    2  A    between atoms: C_20  and  C_22
    3  A    between atoms: C_20  and  C_26
    4  A    between atoms: C_22  and  C_24
                            x       y       z     vdW  Elec       q    Type
                         _______ _______ _______ _____ _____    ______ ____

>  <TORSDO>
F 4

$$$$
=
 OpenBabel11052423103D

 27 31  0  0  1  0  0  0  0  0999 V2000
  161.3100  205.7540  147.1750 N   0  0  0  0  0  0  0  0  0  0  0  0
  161.1390  204.9690  149.4160 N   0  0  0  0  0  2  0  0  0  0  0  0
  161.0210  201.8710  145.5910 C   0  0  0  0  0  3  0  0  0  0  0  0
  160.9630  199.3900  145.9070 C   0  0  0  0  0  1  0  0  0  0  0  0
  161.5110  205.6140  145.7270 C   0  0  0  0  0  2  0  0  0  0  0  0
  161.3220  202.2590  148.3490 C   0  0  0  0  0  3  0  0  0  0  0  0
  161.2300  200.9630  147.8290 C   0  0  0  0  0  3  0  0  0  0  0  0
  161.2700  204.7490  148.0050 C   0  0  0  0  0  0  0  0  0  0  0  0
  161.0730  200.7690  146.4520 C   0  0  0  0  0  0  0  0  0  0  0  0
  161.1340  203.1660  146.1100 C   0  0  0  0  0  0  0  0  0  0  0  0
  160.8030  207.2900  149.3780 O   0  0  0  0  0  0  0  0  0  0  0  0
  161.2750  203.3650  147.4880 C   0  0  0  0  0  0  0  0  0  0  0  0
  161.0640  204.3050  145.2500 N   0  0  0  0  0  2  0  0  0  0  0  0
  160.9430  206.2370  150.0600 C   0  0  0  0  0  0  0  0  0  0  0  0
  161.3420  205.0290  152.2410 C   0  0  0  0  0  1  0  0  0  0  0  0
  160.9230  206.3320  151.5600 C   0  0  1  0  0  3  0  0  0  0  0  0
  162.7210  207.8760  151.1510 O   0  0  0  0  0  1  0  0  0  0  0  0
  161.7210  207.5430  152.0690 C   0  0  1  0  0  3  0  0  0  0  0  0
  161.7270  209.9950  152.5230 C   0  0  0  0  0  2  0  0  0  0  0  0
  161.1740  209.2920  153.7510 C   0  0  2  0  0  3  0  0  0  0  0  0
  160.8460  208.7650  152.3530 C   0  0  2  0  0  3  0  0  0  0  0  0
  160.3340  211.5870  157.0010 O   0  0  0  0  0  0  0  0  0  0  0  0
  160.0770  210.1640  154.3810 C   0  0  2  0  0  3  0  0  0  0  0  0
  160.6130  211.5580  154.6210 C   0  0  0  0  0  2  0  0  0  0  0  0
  159.8260  212.1180  155.7960 C   0  0  1  0  0  3  0  0  0  0  0  0
  159.1740  210.9730  156.4870 C   0  0  1  0  0  3  0  0  0  0  0  0
  159.5580  209.7070  155.7370 C   0  0  0  0  0  2  0  0  0  0  0  0
  1  8  2  0  0  0  0
  2 14  1  0  0  0  0
  3 10  2  0  0  0  0
  3  9  1  0  0  0  0
  4  9  1  0  0  0  0
  5  1  1  0  0  0  0
  7  6  1  0  0  0  0
  8  2  1  0  0  0  0
  9  7  2  0  0  0  0
 10 12  1  0  0  0  0
 11 14  2  0  0  0  0
 12  8  1  0  0  0  0
 12  6  2  0  0  0  0
 13  5  1  0  0  0  0
 13 10  1  0  0  0  0
 14 16  1  0  0  0  0
 16 18  1  0  0  0  0
 16 15  1  1  0  0  0
 18 17  1  6  0  0  0
 20 19  1  6  0  0  0
 20 23  1  0  0  0  0
 21 18  1  1  0  0  0
 21 19  1  0  0  0  0
 21 20  1  0  0  0  0
 23 24  1  1  0  0  0
 23 27  1  0  0  0  0
 25 24  1  6  0  0  0
 25 26  1  0  0  0  0
 25 22  1  0  0  0  0
 26 27  1  6  0  0  0
 26 22  1  0  0  0  0
M  END
>  <MODEL>
5

>  <REMARK>
 VINA RESULT:      -8.7      2.162      3.163
  Name = 
  4 active torsions:
  status: ('A' for Active; 'I' for Inactive)
    1  A    between atoms: C_9  and  C_15
    2  A    between atoms: C_20  and  C_22
    3  A    between atoms: C_20  and  C_26
    4  A    between atoms: C_22  and  C_24
                            x       y       z     vdW  Elec       q    Type
                         _______ _______ _______ _____ _____    ______ ____

>  <TORSDO>
F 4

$$$$
=
 OpenBabel11052423103D

 27 31  0  0  1  0  0  0  0  0999 V2000
  161.3630  206.1970  146.0890 N   0  0  0  0  0  0  0  0  0  0  0  0
  161.7470  205.7590  148.3980 N   0  0  0  0  0  2  0  0  0  0  0  0
  160.6440  202.1420  145.2440 C   0  0  0  0  0  3  0  0  0  0  0  0
  160.6390  199.7400  145.9440 C   0  0  0  0  0  1  0  0  0  0  0  0
  161.1950  205.8360  144.6750 C   0  0  0  0  0  2  0  0  0  0  0  0
  161.6270  202.9160  147.7500 C   0  0  0  0  0  3  0  0  0  0  0  0
  161.3940  201.5630  147.4750 C   0  0  0  0  0  3  0  0  0  0  0  0
  161.5200  205.3270  147.0480 C   0  0  0  0  0  0  0  0  0  0  0  0
  160.8960  201.1770  146.2250 C   0  0  0  0  0  0  0  0  0  0  0  0
  160.8980  203.4920  145.5120 C   0  0  0  0  0  0  0  0  0  0  0  0
  161.4380  208.0620  148.0840 O   0  0  0  0  0  0  0  0  0  0  0  0
  161.3800  203.8840  146.7670 C   0  0  0  0  0  0  0  0  0  0  0  0
  160.6290  204.4940  144.5300 N   0  0  0  0  0  2  0  0  0  0  0  0
  161.7320  207.1160  148.8660 C   0  0  0  0  0  0  0  0  0  0  0  0
  161.9720  208.9210  150.6140 C   0  0  0  0  0  1  0  0  0  0  0  0
  162.0880  207.4310  150.2920 C   0  0  1  0  0  3  0  0  0  0  0  0
  161.3080  205.2250  150.8490 O   0  0  0  0  0  1  0  0  0  0  0  0
  161.3090  206.5530  151.2850 C   0  0  1  0  0  3  0  0  0  0  0  0
  161.0920  205.6580  153.6010 C   0  0  0  0  0  2  0  0  0  0  0  0
  160.7390  207.1360  153.6350 C   0  0  2  0  0  3  0  0  0  0  0  0
  161.8500  206.6330  152.7130 C   0  0  2  0  0  3  0  0  0  0  0  0
  159.6590  209.6650  156.6300 O   0  0  0  0  0  0  0  0  0  0  0  0
  161.2290  207.7420  154.9580 C   0  0  2  0  0  3  0  0  0  0  0  0
  160.2480  207.4130  156.0620 C   0  0  0  0  0  2  0  0  0  0  0  0
  160.3680  208.5320  157.0840 C   0  0  1  0  0  3  0  0  0  0  0  0
  161.0530  209.6740  156.4210 C   0  0  1  0  0  3  0  0  0  0  0  0
  161.3560  209.2590  154.9900 C   0  0  0  0  0  2  0  0  0  0  0  0
  1  8  2  0  0  0  0
  2 14  1  0  0  0  0
  3 10  2  0  0  0  0
  3  9  1  0  0  0  0
  4  9  1  0  0  0  0
  5  1  1  0  0  0  0
  7  6  1  0  0  0  0
  8  2  1  0  0  0  0
  9  7  2  0  0  0  0
 10 12  1  0  0  0  0
 11 14  2  0  0  0  0
 12  8  1  0  0  0  0
 12  6  2  0  0  0  0
 13  5  1  0  0  0  0
 13 10  1  0  0  0  0
 14 16  1  0  0  0  0
 16 15  1  1  0  0  0
 16 18  1  0  0  0  0
 18 17  1  6  0  0  0
 20 19  1  1  0  0  0
 20 23  1  0  0  0  0
 21 18  1  6  0  0  0
 21 19  1  0  0  0  0
 21 20  1  0  0  0  0
 22 25  1  0  0  0  0
 23 27  1  6  0  0  0
 23 24  1  0  0  0  0
 25 24  1  6  0  0  0
 26 27  1  6  0  0  0
 26 22  1  0  0  0  0
 26 25  1  0  0  0  0
M  END
>  <MODEL>
6

>  <REMARK>
 VINA RESULT:      -8.6      2.727      4.290
  Name = 
  4 active torsions:
  status: ('A' for Active; 'I' for Inactive)
    1  A    between atoms: C_9  and  C_15
    2  A    between atoms: C_20  and  C_22
    3  A    between atoms: C_20  and  C_26
    4  A    between atoms: C_22  and  C_24
                            x       y       z     vdW  Elec       q    Type
                         _______ _______ _______ _____ _____    ______ ____

>  <TORSDO>
F 4

$$$$
=
 OpenBabel11052423103D

 27 31  0  0  1  0  0  0  0  0999 V2000
  161.5220  207.7090  149.6880 N   0  0  0  0  0  0  0  0  0  0  0  0
  160.9700  207.2000  151.9480 N   0  0  0  0  0  2  0  0  0  0  0  0
  161.0210  203.7190  148.4670 C   0  0  0  0  0  3  0  0  0  0  0  0
  160.6500  201.3050  149.0120 C   0  0  0  0  0  1  0  0  0  0  0  0
  161.8960  207.3900  148.3050 C   0  0  0  0  0  2  0  0  0  0  0  0
  160.9950  204.3820  151.1880 C   0  0  0  0  0  3  0  0  0  0  0  0
  160.8310  203.0500  150.7890 C   0  0  0  0  0  3  0  0  0  0  0  0
  161.2630  206.8110  150.5980 C   0  0  0  0  0  0  0  0  0  0  0  0
  160.8370  202.7190  149.4290 C   0  0  0  0  0  0  0  0  0  0  0  0
  161.2060  205.0460  148.8670 C   0  0  0  0  0  0  0  0  0  0  0  0
  160.8990  209.5230  151.6360 O   0  0  0  0  0  0  0  0  0  0  0  0
  161.1840  205.3840  150.2260 C   0  0  0  0  0  0  0  0  0  0  0  0
  161.3760  206.0830  147.8990 N   0  0  0  0  0  2  0  0  0  0  0  0
  160.8310  208.5440  152.4300 C   0  0  0  0  0  0  0  0  0  0  0  0
  160.8540  207.5680  154.7580 C   0  0  0  0  0  1  0  0  0  0  0  0
  160.6230  208.8080  153.8950 C   0  0  1  0  0  3  0  0  0  0  0  0
  162.5120  210.2490  153.5220 O   0  0  0  0  0  1  0  0  0  0  0  0
  161.4330  210.0210  154.3810 C   0  0  1  0  0  3  0  0  0  0  0  0
  160.6950  211.8230  155.9370 C   0  0  0  0  0  2  0  0  0  0  0  0
  159.4650  211.0370  155.5130 C   0  0  2  0  0  3  0  0  0  0  0  0
  160.5950  211.2930  154.5140 C   0  0  2  0  0  3  0  0  0  0  0  0
  155.5470  211.4670  156.5100 O   0  0  0  0  0  0  0  0  0  0  0  0
  158.2720  211.9950  155.3890 C   0  0  2  0  0  3  0  0  0  0  0  0
  157.7600  212.3500  156.7680 C   0  0  0  0  0  2  0  0  0  0  0  0
  156.2820  212.6680  156.6030 C   0  0  1  0  0  3  0  0  0  0  0  0
  155.8470  212.1140  155.2940 C   0  0  1  0  0  3  0  0  0  0  0  0
  157.0560  211.4530  154.6510 C   0  0  0  0  0  2  0  0  0  0  0  0
  1  8  2  0  0  0  0
  2 14  1  0  0  0  0
  3 10  2  0  0  0  0
  3  9  1  0  0  0  0
  4  9  1  0  0  0  0
  5  1  1  0  0  0  0
  7  6  1  0  0  0  0
  8  2  1  0  0  0  0
  9  7  2  0  0  0  0
 10 12  1  0  0  0  0
 11 14  2  0  0  0  0
 12  8  1  0  0  0  0
 12  6  2  0  0  0  0
 13  5  1  0  0  0  0
 13 10  1  0  0  0  0
 14 16  1  0  0  0  0
 16 18  1  0  0  0  0
 16 15  1  1  0  0  0
 18 17  1  6  0  0  0
 20 19  1  1  0  0  0
 21 18  1  1  0  0  0
 21 20  1  0  0  0  0
 21 19  1  0  0  0  0
 22 25  1  0  0  0  0
 23 27  1  6  0  0  0
 23 20  1  0  0  0  0
 23 24  1  0  0  0  0
 25 24  1  6  0  0  0
 26 27  1  6  0  0  0
 26 22  1  0  0  0  0
 26 25  1  0  0  0  0
M  END
>  <MODEL>
7

>  <REMARK>
 VINA RESULT:      -8.5      2.582      3.789
  Name = 
  4 active torsions:
  status: ('A' for Active; 'I' for Inactive)
    1  A    between atoms: C_9  and  C_15
    2  A    between atoms: C_20  and  C_22
    3  A    between atoms: C_20  and  C_26
    4  A    between atoms: C_22  and  C_24
                            x       y       z     vdW  Elec       q    Type
                         _______ _______ _______ _____ _____    ______ ____

>  <TORSDO>
F 4

$$$$
=
 OpenBabel11052423103D

 27 31  0  0  1  0  0  0  0  0999 V2000
  162.0960  206.7540  147.5050 N   0  0  0  0  0  0  0  0  0  0  0  0
  161.8530  207.4900  149.7560 N   0  0  0  0  0  2  0  0  0  0  0  0
  160.8710  202.8460  148.4500 C   0  0  0  0  0  3  0  0  0  0  0  0
  160.2710  201.1010  150.1400 C   0  0  0  0  0  1  0  0  0  0  0  0
  162.1960  205.7530  146.4350 C   0  0  0  0  0  2  0  0  0  0  0  0
  161.3740  204.7050  150.4840 C   0  0  0  0  0  3  0  0  0  0  0  0
  160.9700  203.4040  150.8060 C   0  0  0  0  0  3  0  0  0  0  0  0
  161.8680  206.4620  148.7550 C   0  0  0  0  0  0  0  0  0  0  0  0
  160.7120  202.4760  149.7910 C   0  0  0  0  0  0  0  0  0  0  0  0
  161.2960  204.1390  148.1290 C   0  0  0  0  0  0  0  0  0  0  0  0
  162.0450  209.3540  148.3460 O   0  0  0  0  0  0  0  0  0  0  0  0
  161.5390  205.0750  149.1420 C   0  0  0  0  0  0  0  0  0  0  0  0
  161.4450  204.5410  146.7660 N   0  0  0  0  0  2  0  0  0  0  0  0
  161.9760  208.9010  149.5220 C   0  0  0  0  0  0  0  0  0  0  0  0
  161.8470  211.3140  150.2510 C   0  0  0  0  0  1  0  0  0  0  0  0
  162.0440  209.8600  150.6770 C   0  0  1  0  0  3  0  0  0  0  0  0
  161.6180  208.3350  152.4880 O   0  0  0  0  0  1  0  0  0  0  0  0
  161.1020  209.4490  151.8200 C   0  0  1  0  0  3  0  0  0  0  0  0
  160.0580  210.0350  154.0070 C   0  0  0  0  0  2  0  0  0  0  0  0
  159.3260  210.8020  152.9180 C   0  0  2  0  0  3  0  0  0  0  0  0
  160.8360  210.5780  152.8170 C   0  0  2  0  0  3  0  0  0  0  0  0
  156.0900  213.0970  153.8060 O   0  0  0  0  0  0  0  0  0  0  0  0
  158.9180  212.1800  153.4590 C   0  0  2  0  0  3  0  0  0  0  0  0
  158.0380  212.0060  154.6770 C   0  0  0  0  0  2  0  0  0  0  0  0
  157.1450  213.2360  154.7330 C   0  0  1  0  0  3  0  0  0  0  0  0
  157.1860  213.8830  153.3950 C   0  0  1  0  0  3  0  0  0  0  0  0
  158.1050  213.0530  152.5130 C   0  0  0  0  0  2  0  0  0  0  0  0
  1  8  2  0  0  0  0
  3  9  1  0  0  0  0
  5 13  1  0  0  0  0
  5  1  1  0  0  0  0
  6  7  1  0  0  0  0
  8 12  1  0  0  0  0
  8  2  1  0  0  0  0
  9  4  1  0  0  0  0
  9  7  2  0  0  0  0
 10  3  2  0  0  0  0
 10 12  1  0  0  0  0
 11 14  2  0  0  0  0
 12  6  2  0  0  0  0
 13 10  1  0  0  0  0
 14  2  1  0  0  0  0
 14 16  1  0  0  0  0
 16 15  1  6  0  0  0
 16 18  1  0  0  0  0
 18 17  1  1  0  0  0
 20 23  1  0  0  0  0
 20 19  1  1  0  0  0
 21 18  1  6  0  0  0
 21 20  1  0  0  0  0
 21 19  1  0  0  0  0
 22 25  1  0  0  0  0
 23 27  1  6  0  0  0
 23 24  1  0  0  0  0
 25 24  1  6  0  0  0
 26 27  1  6  0  0  0
 26 22  1  0  0  0  0
 26 25  1  0  0  0  0
M  END
>  <MODEL>
8

>  <REMARK>
 VINA RESULT:      -8.4      1.987      3.661
  Name = 
  4 active torsions:
  status: ('A' for Active; 'I' for Inactive)
    1  A    between atoms: C_9  and  C_15
    2  A    between atoms: C_20  and  C_22
    3  A    between atoms: C_20  and  C_26
    4  A    between atoms: C_22  and  C_24
                            x       y       z     vdW  Elec       q    Type
                         _______ _______ _______ _____ _____    ______ ____

>  <TORSDO>
F 4

$$$$
=
 OpenBabel11052423103D

 27 31  0  0  1  0  0  0  0  0999 V2000
  160.9230  203.9120  150.7350 N   0  0  0  0  0  0  0  0  0  0  0  0
  161.1320  206.2800  150.8660 N   0  0  0  0  0  2  0  0  0  0  0  0
  161.2550  203.9220  146.5450 C   0  0  0  0  0  3  0  0  0  0  0  0
  161.3550  205.1580  144.3720 C   0  0  0  0  0  1  0  0  0  0  0  0
  160.7080  202.6300  150.0520 C   0  0  0  0  0  2  0  0  0  0  0  0
  160.9790  206.3280  147.9520 C   0  0  0  0  0  3  0  0  0  0  0  0
  161.0850  206.3400  146.5560 C   0  0  0  0  0  3  0  0  0  0  0  0
  160.9880  205.0610  150.1220 C   0  0  0  0  0  0  0  0  0  0  0  0
  161.2300  205.1380  145.8530 C   0  0  0  0  0  0  0  0  0  0  0  0
  161.1270  203.9100  147.9380 C   0  0  0  0  0  0  0  0  0  0  0  0
  161.4310  205.3550  153.0000 O   0  0  0  0  0  0  0  0  0  0  0  0
  160.9990  205.1110  148.6460 C   0  0  0  0  0  0  0  0  0  0  0  0
  161.1700  202.6800  148.6640 N   0  0  0  0  0  2  0  0  0  0  0  0
  161.3150  206.3890  152.2850 C   0  0  0  0  0  0  0  0  0  0  0  0
  161.0050  208.8760  151.9840 C   0  0  0  0  0  1  0  0  0  0  0  0
  161.3510  207.7390  152.9450 C   0  0  1  0  0  3  0  0  0  0  0  0
  160.6150  206.5590  154.9070 O   0  0  0  0  0  1  0  0  0  0  0  0
  160.5020  207.7750  154.2260 C   0  0  1  0  0  3  0  0  0  0  0  0
  160.0850  208.8030  156.4590 C   0  0  0  0  0  2  0  0  0  0  0  0
  159.6190  209.7840  155.3960 C   0  0  2  0  0  3  0  0  0  0  0  0
  160.8660  208.9300  155.1590 C   0  0  2  0  0  3  0  0  0  0  0  0
  157.9660  213.4880  155.6780 O   0  0  0  0  0  0  0  0  0  0  0  0
  159.9050  211.2160  155.8730 C   0  0  2  0  0  3  0  0  0  0  0  0
  158.8660  211.6280  156.8920 C   0  0  0  0  0  2  0  0  0  0  0  0
  158.7550  213.1420  156.7960 C   0  0  1  0  0  3  0  0  0  0  0  0
  159.3630  213.5560  155.5040 C   0  0  1  0  0  3  0  0  0  0  0  0
  159.8500  212.2980  154.8030 C   0  0  0  0  0  2  0  0  0  0  0  0
  2 14  1  0  0  0  0
  3 10  1  0  0  0  0
  4  9  1  0  0  0  0
  5  1  1  0  0  0  0
  6 12  1  0  0  0  0
  7  6  2  0  0  0  0
  8  1  2  0  0  0  0
  8  2  1  0  0  0  0
  9  3  2  0  0  0  0
  9  7  1  0  0  0  0
 10 12  2  0  0  0  0
 10 13  1  0  0  0  0
 12  8  1  0  0  0  0
 13  5  1  0  0  0  0
 14 16  1  0  0  0  0
 14 11  2  0  0  0  0
 16 15  1  6  0  0  0
 16 18  1  0  0  0  0
 18 17  1  1  0  0  0
 20 23  1  0  0  0  0
 20 19  1  1  0  0  0
 21 18  1  6  0  0  0
 21 20  1  0  0  0  0
 21 19  1  0  0  0  0
 22 25  1  0  0  0  0
 23 27  1  6  0  0  0
 23 24  1  0  0  0  0
 25 24  1  6  0  0  0
 26 27  1  6  0  0  0
 26 22  1  0  0  0  0
 26 25  1  0  0  0  0
M  END
>  <MODEL>
9

>  <REMARK>
 VINA RESULT:      -8.2      1.707      2.363
  Name = 
  4 active torsions:
  status: ('A' for Active; 'I' for Inactive)
    1  A    between atoms: C_9  and  C_15
    2  A    between atoms: C_20  and  C_22
    3  A    between atoms: C_20  and  C_26
    4  A    between atoms: C_22  and  C_24
                            x       y       z     vdW  Elec       q    Type
                         _______ _______ _______ _____ _____    ______ ____

>  <TORSDO>
F 4

$$$$
