=
 OpenBabel11062409413D

 34 40  0  0  0  0  0  0  0  0999 V2000
  161.0700  207.8700  151.2110 C   0  0  0  0  0  0  0  0  0  0  0  0
  161.6940  211.5440  150.5110 C   0  0  0  0  0  3  0  0  0  0  0  0
  160.3990  210.5470  152.7150 S   0  0  0  0  0  0  0  0  0  0  0  0
  161.1270  205.4350  152.4990 N   0  0  0  0  0  0  0  0  0  0  0  0
  161.0810  206.6980  150.5170 N   0  0  0  0  0  0  0  0  0  0  0  0
  161.1260  206.5670  153.2460 C   0  0  0  0  0  0  0  0  0  0  0  0
  161.2450  207.6490  155.4070 C   0  0  0  0  0  3  0  0  0  0  0  0
  161.2460  206.4850  154.6350 C   0  0  0  0  0  3  0  0  0  0  0  0
  161.0740  205.4890  151.1410 C   0  0  0  0  0  0  0  0  0  0  0  0
  160.9630  208.9910  153.4060 C   0  0  0  0  0  0  0  0  0  0  0  0
  161.0290  207.8270  152.6180 C   0  0  0  0  0  0  0  0  0  0  0  0
  161.0870  208.8950  154.7960 C   0  0  0  0  0  3  0  0  0  0  0  0
  162.2180  211.4910  149.2180 C   0  0  0  0  0  0  0  0  0  0  0  0
  162.2820  210.2590  148.5510 C   0  0  0  0  0  3  0  0  0  0  0  0
  161.2500  210.3820  151.1490 C   0  0  0  0  0  0  0  0  0  0  0  0
  161.8510  209.0940  149.1880 C   0  0  0  0  0  3  0  0  0  0  0  0
  161.3360  209.1390  150.4920 C   0  0  0  0  0  0  0  0  0  0  0  0
  161.0140  201.8150  150.2400 C   0  0  0  0  0  3  0  0  0  0  0  0
  161.1110  204.2990  148.9460 C   0  0  0  0  0  3  0  0  0  0  0  0
  161.0920  200.7470  146.6930 C   0  0  0  0  0  0  0  0  0  0  0  0
  161.0500  200.6930  148.0940 C   0  0  0  0  0  3  0  0  0  0  0  0
  161.0560  201.8700  148.8460 C   0  0  0  0  0  0  0  0  0  0  0  0
  161.1470  203.1780  146.7990 C   0  0  0  0  0  3  0  0  0  0  0  0
  161.1050  203.1220  148.1940 C   0  0  0  0  0  0  0  0  0  0  0  0
  161.1410  201.9960  146.0530 C   0  0  0  0  0  3  0  0  0  0  0  0
  161.0680  204.2460  150.3480 C   0  0  0  0  0  0  0  0  0  0  0  0
  161.0190  202.9970  150.9870 C   0  0  0  0  0  3  0  0  0  0  0  0
  161.0860  199.5350  145.9250 N   0  0  0  0  0  0  0  0  0  0  0  0
  161.7600  198.5500  146.2910 O   0  0  0  0  0  0  0  0  0  0  0  0
  160.3360  199.4460  144.7750 O   0  0  0  0  0  0  0  0  0  0  0  0
  162.6550  212.6750  148.6150 O   0  0  0  0  0  0  0  0  0  0  0  0
  161.7710  213.7310  148.2640 C   0  0  0  0  0  3  0  0  0  0  0  0
  162.2560  214.3840  146.9860 C   0  0  0  0  0  2  0  0  0  0  0  0
  161.1050  213.4020  146.9450 C   0  0  0  0  0  2  0  0  0  0  0  0
  1 11  1  0  0  0  0
  2 15  1  0  0  0  0
  3 10  1  0  0  0  0
  4  6  1  0  0  0  0
  5  9  1  0  0  0  0
  5  1  2  0  0  0  0
  6  8  1  0  0  0  0
  8  7  2  0  0  0  0
  9  4  2  0  0  0  0
 10 12  2  0  0  0  0
 11  6  2  0  0  0  0
 11 10  1  0  0  0  0
 12  7  1  0  0  0  0
 13  2  2  0  0  0  0
 14 16  2  0  0  0  0
 14 13  1  0  0  0  0
 15  3  1  0  0  0  0
 16 17  1  0  0  0  0
 17 15  2  0  0  0  0
 17  1  1  0  0  0  0
 18 27  1  0  0  0  0
 19 26  1  0  0  0  0
 20 21  2  0  0  0  0
 21 22  1  0  0  0  0
 22 18  2  0  0  0  0
 23 24  1  0  0  0  0
 24 22  1  0  0  0  0
 24 19  2  0  0  0  0
 25 20  1  0  0  0  0
 25 23  2  0  0  0  0
 26 27  2  0  0  0  0
 26  9  1  0  0  0  0
 28 29  2  0  0  0  0
 28 20  1  0  0  0  0
 30 28  2  0  0  0  0
 31 13  1  0  0  0  0
 32 31  1  0  0  0  0
 33 32  1  0  0  0  0
 34 33  1  0  0  0  0
 34 32  1  0  0  0  0
M  END
>  <MODEL>
1

>  <REMARK>
 VINA RESULT:      -9.1      0.000      0.000
  Name = 
  4 active torsions:
  status: ('A' for Active; 'I' for Inactive)
    1  A    between atoms: C_3  and  O_25
    2  A    between atoms: C_7  and  N_11
    3  A    between atoms: C_18  and  C_30
    4  A    between atoms: C_23  and  O_25
                            x       y       z     vdW  Elec       q    Type
                         _______ _______ _______ _____ _____    ______ ____

>  <TORSDO>
F 4

$$$$
=
 OpenBabel11062409413D

 34 40  0  0  0  0  0  0  0  0999 V2000
  161.0060  210.6900  151.4570 C   0  0  0  0  0  0  0  0  0  0  0  0
  161.1000  207.3840  153.3120 C   0  0  0  0  0  3  0  0  0  0  0  0
  160.8710  209.8550  154.4840 S   0  0  0  0  0  0  0  0  0  0  0  0
  160.0910  213.1300  150.5640 N   0  0  0  0  0  0  0  0  0  0  0  0
  161.3190  211.1560  150.2160 N   0  0  0  0  0  0  0  0  0  0  0  0
  159.7390  212.7180  151.8060 C   0  0  0  0  0  0  0  0  0  0  0  0
  158.4880  213.0620  153.8490 C   0  0  0  0  0  3  0  0  0  0  0  0
  158.8540  213.4840  152.5690 C   0  0  0  0  0  3  0  0  0  0  0  0
  160.9030  212.3740  149.7750 C   0  0  0  0  0  0  0  0  0  0  0  0
  159.9250  211.1190  153.6330 C   0  0  0  0  0  0  0  0  0  0  0  0
  160.2460  211.5050  152.3180 C   0  0  0  0  0  0  0  0  0  0  0  0
  159.0360  211.8930  154.3850 C   0  0  0  0  0  3  0  0  0  0  0  0
  161.3930  206.4970  152.2750 C   0  0  0  0  0  0  0  0  0  0  0  0
  161.6430  206.9990  150.9890 C   0  0  0  0  0  3  0  0  0  0  0  0
  161.0400  208.7610  153.0770 C   0  0  0  0  0  0  0  0  0  0  0  0
  161.5710  208.3720  150.7470 C   0  0  0  0  0  3  0  0  0  0  0  0
  161.2660  209.2670  151.7820 C   0  0  0  0  0  0  0  0  0  0  0  0
  162.7230  214.1790  146.9930 C   0  0  0  0  0  3  0  0  0  0  0  0
  160.5650  212.4170  147.3020 C   0  0  0  0  0  3  0  0  0  0  0  0
  161.6520  213.7670  143.4690 C   0  0  0  0  0  0  0  0  0  0  0  0
  162.3670  214.1970  144.5970 C   0  0  0  0  0  3  0  0  0  0  0  0
  162.0100  213.7500  145.8720 C   0  0  0  0  0  0  0  0  0  0  0  0
  160.2090  212.4340  144.9060 C   0  0  0  0  0  3  0  0  0  0  0  0
  160.9230  212.8630  146.0270 C   0  0  0  0  0  0  0  0  0  0  0  0
  160.5720  212.8850  143.6340 C   0  0  0  0  0  3  0  0  0  0  0  0
  161.2810  212.8450  148.4310 C   0  0  0  0  0  0  0  0  0  0  0  0
  162.3600  213.7280  148.2660 C   0  0  0  0  0  3  0  0  0  0  0  0
  162.0230  214.2290  142.1630 N   0  0  0  0  0  0  0  0  0  0  0  0
  161.1530  214.4310  141.2910 O   0  0  0  0  0  0  0  0  0  0  0  0
  163.3460  214.4530  141.8560 O   0  0  0  0  0  0  0  0  0  0  0  0
  161.4410  205.1260  152.5490 O   0  0  0  0  0  0  0  0  0  0  0  0
  161.7550  204.1550  151.5610 C   0  0  0  0  0  3  0  0  0  0  0  0
  161.1380  202.8270  151.9510 C   0  0  0  0  0  2  0  0  0  0  0  0
  160.4760  203.6900  150.8980 C   0  0  0  0  0  2  0  0  0  0  0  0
  1 17  1  0  0  0  0
  1 11  1  0  0  0  0
  4  6  1  0  0  0  0
  5  1  2  0  0  0  0
  6 11  2  0  0  0  0
  6  8  1  0  0  0  0
  7 12  1  0  0  0  0
  8  7  2  0  0  0  0
  9  5  1  0  0  0  0
  9  4  2  0  0  0  0
 10 12  2  0  0  0  0
 10  3  1  0  0  0  0
 11 10  1  0  0  0  0
 13 31  1  0  0  0  0
 13  2  2  0  0  0  0
 14 13  1  0  0  0  0
 15  2  1  0  0  0  0
 15  3  1  0  0  0  0
 16 14  2  0  0  0  0
 16 17  1  0  0  0  0
 17 15  2  0  0  0  0
 18 27  1  0  0  0  0
 19 26  1  0  0  0  0
 20 25  1  0  0  0  0
 20 21  2  0  0  0  0
 21 22  1  0  0  0  0
 22 24  1  0  0  0  0
 22 18  2  0  0  0  0
 23 24  1  0  0  0  0
 24 19  2  0  0  0  0
 25 23  2  0  0  0  0
 26  9  1  0  0  0  0
 27 26  2  0  0  0  0
 28 20  1  0  0  0  0
 29 28  2  0  0  0  0
 30 28  2  0  0  0  0
 32 33  1  0  0  0  0
 32 31  1  0  0  0  0
 34 32  1  0  0  0  0
 34 33  1  0  0  0  0
M  END
>  <MODEL>
2

>  <REMARK>
 VINA RESULT:      -7.5      4.160      9.210
  Name = 
  4 active torsions:
  status: ('A' for Active; 'I' for Inactive)
    1  A    between atoms: C_3  and  O_25
    2  A    between atoms: C_7  and  N_11
    3  A    between atoms: C_18  and  C_30
    4  A    between atoms: C_23  and  O_25
                            x       y       z     vdW  Elec       q    Type
                         _______ _______ _______ _____ _____    ______ ____

>  <TORSDO>
F 4

$$$$
=
 OpenBabel11062409413D

 34 40  0  0  0  0  0  0  0  0999 V2000
  159.4120  212.8420  152.2360 C   0  0  0  0  0  0  0  0  0  0  0  0
  159.7810  211.1430  155.6060 C   0  0  0  0  0  3  0  0  0  0  0  0
  158.3000  213.4010  155.1220 S   0  0  0  0  0  0  0  0  0  0  0  0
  158.2230  213.8770  149.9770 N   0  0  0  0  0  0  0  0  0  0  0  0
  160.0470  212.8350  151.0320 N   0  0  0  0  0  0  0  0  0  0  0  0
  157.5360  213.9070  151.1460 C   0  0  0  0  0  0  0  0  0  0  0  0
  155.5090  214.4020  152.3700 C   0  0  0  0  0  3  0  0  0  0  0  0
  156.2190  214.3710  151.1680 C   0  0  0  0  0  3  0  0  0  0  0  0
  159.4850  213.3730  149.9150 C   0  0  0  0  0  0  0  0  0  0  0  0
  157.4450  213.5420  153.5510 C   0  0  0  0  0  0  0  0  0  0  0  0
  158.1440  213.4460  152.3330 C   0  0  0  0  0  0  0  0  0  0  0  0
  156.1260  214.0060  153.5600 C   0  0  0  0  0  3  0  0  0  0  0  0
  160.7500  210.1790  155.3210 C   0  0  0  0  0  0  0  0  0  0  0  0
  161.3380  210.1490  154.0490 C   0  0  0  0  0  3  0  0  0  0  0  0
  159.3850  212.0650  154.6320 C   0  0  0  0  0  0  0  0  0  0  0  0
  160.9360  211.0580  153.0690 C   0  0  0  0  0  3  0  0  0  0  0  0
  159.9550  212.0220  153.3450 C   0  0  0  0  0  0  0  0  0  0  0  0
  162.2450  213.7960  147.3630 C   0  0  0  0  0  3  0  0  0  0  0  0
  159.5920  212.8980  147.4670 C   0  0  0  0  0  3  0  0  0  0  0  0
  161.6890  212.8620  143.8200 C   0  0  0  0  0  0  0  0  0  0  0  0
  162.3140  213.3230  144.9880 C   0  0  0  0  0  3  0  0  0  0  0  0
  161.6210  213.3370  146.2010 C   0  0  0  0  0  0  0  0  0  0  0  0
  159.6600  212.4250  145.0920 C   0  0  0  0  0  3  0  0  0  0  0  0
  160.2840  212.8850  146.2530 C   0  0  0  0  0  0  0  0  0  0  0  0
  160.3590  212.4140  143.8810 C   0  0  0  0  0  3  0  0  0  0  0  0
  160.2170  213.3590  148.6360 C   0  0  0  0  0  0  0  0  0  0  0  0
  161.5460  213.8060  148.5730 C   0  0  0  0  0  3  0  0  0  0  0  0
  162.4050  212.8500  142.5770 N   0  0  0  0  0  0  0  0  0  0  0  0
  162.4090  211.8290  141.8580 O   0  0  0  0  0  0  0  0  0  0  0  0
  163.0950  213.9660  142.1630 O   0  0  0  0  0  0  0  0  0  0  0  0
  161.1180  209.2730  156.3210 O   0  0  0  0  0  0  0  0  0  0  0  0
  161.1430  207.8670  156.1130 C   0  0  0  0  0  3  0  0  0  0  0  0
  160.4320  207.1790  157.2610 C   0  0  0  0  0  2  0  0  0  0  0  0
  159.7250  207.3670  155.9350 C   0  0  0  0  0  2  0  0  0  0  0  0
  1 11  1  0  0  0  0
  1 17  1  0  0  0  0
  4  6  1  0  0  0  0
  5  1  2  0  0  0  0
  6  8  2  0  0  0  0
  6 11  1  0  0  0  0
  7 12  2  0  0  0  0
  8  7  1  0  0  0  0
  9  4  2  0  0  0  0
  9  5  1  0  0  0  0
 10 12  1  0  0  0  0
 10  3  1  0  0  0  0
 11 10  2  0  0  0  0
 13  2  1  0  0  0  0
 13 31  1  0  0  0  0
 14 13  2  0  0  0  0
 15  3  1  0  0  0  0
 15  2  2  0  0  0  0
 16 17  2  0  0  0  0
 16 14  1  0  0  0  0
 17 15  1  0  0  0  0
 18 27  1  0  0  0  0
 19 26  1  0  0  0  0
 20 25  1  0  0  0  0
 20 21  2  0  0  0  0
 21 22  1  0  0  0  0
 22 24  1  0  0  0  0
 22 18  2  0  0  0  0
 23 24  1  0  0  0  0
 24 19  2  0  0  0  0
 25 23  2  0  0  0  0
 26  9  1  0  0  0  0
 27 26  2  0  0  0  0
 28 20  1  0  0  0  0
 29 28  2  0  0  0  0
 30 28  2  0  0  0  0
 32 31  1  0  0  0  0
 32 33  1  0  0  0  0
 34 32  1  0  0  0  0
 34 33  1  0  0  0  0
M  END
>  <MODEL>
3

>  <REMARK>
 VINA RESULT:      -7.1      6.984      9.475
  Name = 
  4 active torsions:
  status: ('A' for Active; 'I' for Inactive)
    1  A    between atoms: C_3  and  O_25
    2  A    between atoms: C_7  and  N_11
    3  A    between atoms: C_18  and  C_30
    4  A    between atoms: C_23  and  O_25
                            x       y       z     vdW  Elec       q    Type
                         _______ _______ _______ _____ _____    ______ ____

>  <TORSDO>
F 4

$$$$
=
 OpenBabel11062409413D

 34 40  0  0  0  0  0  0  0  0999 V2000
  160.5650  209.3640  152.5460 C   0  0  0  0  0  0  0  0  0  0  0  0
  160.5350  213.0710  151.7440 C   0  0  0  0  0  3  0  0  0  0  0  0
  159.7650  211.9580  154.1310 S   0  0  0  0  0  0  0  0  0  0  0  0
  161.1770  206.9970  153.8150 N   0  0  0  0  0  0  0  0  0  0  0  0
  160.6330  208.1880  151.8630 N   0  0  0  0  0  0  0  0  0  0  0  0
  161.1320  208.1360  154.5490 C   0  0  0  0  0  0  0  0  0  0  0  0
  161.4390  209.2800  156.6590 C   0  0  0  0  0  3  0  0  0  0  0  0
  161.4830  208.1080  155.9010 C   0  0  0  0  0  3  0  0  0  0  0  0
  160.9000  207.0070  152.4830 C   0  0  0  0  0  0  0  0  0  0  0  0
  160.6500  210.5160  154.7270 C   0  0  0  0  0  0  0  0  0  0  0  0
  160.7560  209.3530  153.9410 C   0  0  0  0  0  0  0  0  0  0  0  0
  161.0070  210.4750  156.0780 C   0  0  0  0  0  3  0  0  0  0  0  0
  160.8470  213.0580  150.3820 C   0  0  0  0  0  0  0  0  0  0  0  0
  160.9800  211.8310  149.7180 C   0  0  0  0  0  3  0  0  0  0  0  0
  160.3690  211.8740  152.4480 C   0  0  0  0  0  0  0  0  0  0  0  0
  160.8290  210.6330  150.4200 C   0  0  0  0  0  3  0  0  0  0  0  0
  160.5270  210.6390  151.7900 C   0  0  0  0  0  0  0  0  0  0  0  0
  160.9470  203.3220  151.6260 C   0  0  0  0  0  3  0  0  0  0  0  0
  161.0320  205.7930  150.3050 C   0  0  0  0  0  3  0  0  0  0  0  0
  161.1620  202.2160  148.0950 C   0  0  0  0  0  0  0  0  0  0  0  0
  161.0770  202.1780  149.4950 C   0  0  0  0  0  3  0  0  0  0  0  0
  161.0330  203.3630  150.2330 C   0  0  0  0  0  0  0  0  0  0  0  0
  161.1610  204.6490  148.1740 C   0  0  0  0  0  3  0  0  0  0  0  0
  161.0760  204.6080  149.5670 C   0  0  0  0  0  0  0  0  0  0  0  0
  161.2050  203.4590  147.4420 C   0  0  0  0  0  3  0  0  0  0  0  0
  160.9450  205.7550  151.7050 C   0  0  0  0  0  0  0  0  0  0  0  0
  160.9040  204.5130  152.3570 C   0  0  0  0  0  3  0  0  0  0  0  0
  161.2070  200.9960  147.3430 N   0  0  0  0  0  0  0  0  0  0  0  0
  161.6040  199.9380  147.8740 O   0  0  0  0  0  0  0  0  0  0  0  0
  160.8110  200.9790  146.0250 O   0  0  0  0  0  0  0  0  0  0  0  0
  161.0070  214.2750  149.7130 O   0  0  0  0  0  0  0  0  0  0  0  0
  160.9370  214.3910  148.2980 C   0  0  0  0  0  3  0  0  0  0  0  0
  162.3410  214.4500  147.7320 C   0  0  0  0  0  2  0  0  0  0  0  0
  161.5530  213.1590  147.6700 C   0  0  0  0  0  2  0  0  0  0  0  0
  1 11  1  0  0  0  0
  2 15  1  0  0  0  0
  3 10  1  0  0  0  0
  4  6  1  0  0  0  0
  5  9  1  0  0  0  0
  5  1  2  0  0  0  0
  6  8  1  0  0  0  0
  8  7  2  0  0  0  0
  9  4  2  0  0  0  0
 10 12  2  0  0  0  0
 11  6  2  0  0  0  0
 11 10  1  0  0  0  0
 12  7  1  0  0  0  0
 13  2  2  0  0  0  0
 14 13  1  0  0  0  0
 14 16  2  0  0  0  0
 15  3  1  0  0  0  0
 16 17  1  0  0  0  0
 17 15  2  0  0  0  0
 17  1  1  0  0  0  0
 18 27  1  0  0  0  0
 19 26  1  0  0  0  0
 20 21  2  0  0  0  0
 21 22  1  0  0  0  0
 22 18  2  0  0  0  0
 23 24  1  0  0  0  0
 24 22  1  0  0  0  0
 24 19  2  0  0  0  0
 25 20  1  0  0  0  0
 25 23  2  0  0  0  0
 26 27  2  0  0  0  0
 26  9  1  0  0  0  0
 28 29  2  0  0  0  0
 28 20  1  0  0  0  0
 30 28  2  0  0  0  0
 31 13  1  0  0  0  0
 32 31  1  0  0  0  0
 33 32  1  0  0  0  0
 34 33  1  0  0  0  0
 34 32  1  0  0  0  0
M  END
>  <MODEL>
4

>  <REMARK>
 VINA RESULT:      -6.5      1.479      2.030
  Name = 
  4 active torsions:
  status: ('A' for Active; 'I' for Inactive)
    1  A    between atoms: C_3  and  O_25
    2  A    between atoms: C_7  and  N_11
    3  A    between atoms: C_18  and  C_30
    4  A    between atoms: C_23  and  O_25
                            x       y       z     vdW  Elec       q    Type
                         _______ _______ _______ _____ _____    ______ ____

>  <TORSDO>
F 4

$$$$
=
 OpenBabel11062409413D

 34 40  0  0  0  0  0  0  0  0999 V2000
  161.3860  204.8350  148.3450 C   0  0  0  0  0  0  0  0  0  0  0  0
  161.4640  204.2350  144.6010 C   0  0  0  0  0  3  0  0  0  0  0  0
  161.9790  202.3450  146.5220 S   0  0  0  0  0  0  0  0  0  0  0  0
  160.6640  204.5800  150.9920 N   0  0  0  0  0  0  0  0  0  0  0  0
  161.4060  205.9000  149.1930 N   0  0  0  0  0  0  0  0  0  0  0  0
  160.6160  203.4840  150.1950 C   0  0  0  0  0  0  0  0  0  0  0  0
  160.0680  201.1480  149.8800 C   0  0  0  0  0  3  0  0  0  0  0  0
  160.1190  202.2790  150.6980 C   0  0  0  0  0  3  0  0  0  0  0  0
  161.0850  205.7810  150.5100 C   0  0  0  0  0  0  0  0  0  0  0  0
  161.0500  202.4080  148.0540 C   0  0  0  0  0  0  0  0  0  0  0  0
  161.0430  203.5670  148.8530 C   0  0  0  0  0  0  0  0  0  0  0  0
  160.5470  201.2090  148.5690 C   0  0  0  0  0  3  0  0  0  0  0  0
  161.3030  205.5340  144.1130 C   0  0  0  0  0  0  0  0  0  0  0  0
  161.2570  206.6070  145.0140 C   0  0  0  0  0  3  0  0  0  0  0  0
  161.5640  203.9980  145.9760 C   0  0  0  0  0  0  0  0  0  0  0  0
  161.3430  206.3740  146.3880 C   0  0  0  0  0  3  0  0  0  0  0  0
  161.4930  205.0710  146.8850 C   0  0  0  0  0  0  0  0  0  0  0  0
  161.3560  209.3640  151.6930 C   0  0  0  0  0  3  0  0  0  0  0  0
  161.0270  206.8050  152.7870 C   0  0  0  0  0  3  0  0  0  0  0  0
  161.1830  210.1700  155.3060 C   0  0  0  0  0  0  0  0  0  0  0  0
  161.2950  210.3240  153.9160 C   0  0  0  0  0  3  0  0  0  0  0  0
  161.2440  209.2090  153.0760 C   0  0  0  0  0  0  0  0  0  0  0  0
  160.9660  207.7640  155.0100 C   0  0  0  0  0  3  0  0  0  0  0  0
  161.0790  207.9190  153.6270 C   0  0  0  0  0  0  0  0  0  0  0  0
  161.0190  208.8840  155.8450 C   0  0  0  0  0  3  0  0  0  0  0  0
  161.1390  206.9580  151.3960 C   0  0  0  0  0  0  0  0  0  0  0  0
  161.3030  208.2440  150.8580 C   0  0  0  0  0  3  0  0  0  0  0  0
  161.2360  211.3180  156.1640 N   0  0  0  0  0  0  0  0  0  0  0  0
  162.0980  211.3970  157.0630 O   0  0  0  0  0  0  0  0  0  0  0  0
  160.3360  212.3470  156.0040 O   0  0  0  0  0  0  0  0  0  0  0  0
  161.2040  205.7310  142.7320 O   0  0  0  0  0  0  0  0  0  0  0  0
  162.2250  206.3620  141.9700 C   0  0  0  0  0  3  0  0  0  0  0  0
  162.1390  205.8900  140.5330 C   0  0  0  0  0  2  0  0  0  0  0  0
  161.5850  207.2450  140.9200 C   0  0  0  0  0  2  0  0  0  0  0  0
  1 11  1  0  0  0  0
  1  5  2  0  0  0  0
  2 15  1  0  0  0  0
  3 10  1  0  0  0  0
  5  9  1  0  0  0  0
  6  8  1  0  0  0  0
  6  4  1  0  0  0  0
  7  8  2  0  0  0  0
  9  4  2  0  0  0  0
  9 26  1  0  0  0  0
 10 12  2  0  0  0  0
 10 11  1  0  0  0  0
 11  6  2  0  0  0  0
 12  7  1  0  0  0  0
 13  2  2  0  0  0  0
 13 14  1  0  0  0  0
 14 16  2  0  0  0  0
 15  3  1  0  0  0  0
 15 17  2  0  0  0  0
 16 17  1  0  0  0  0
 17  1  1  0  0  0  0
 18 22  1  0  0  0  0
 19 24  1  0  0  0  0
 20 25  1  0  0  0  0
 20 28  1  0  0  0  0
 21 20  2  0  0  0  0
 22 24  2  0  0  0  0
 22 21  1  0  0  0  0
 23 25  2  0  0  0  0
 24 23  1  0  0  0  0
 26 19  2  0  0  0  0
 27 26  1  0  0  0  0
 27 18  2  0  0  0  0
 28 29  2  0  0  0  0
 30 28  2  0  0  0  0
 31 13  1  0  0  0  0
 32 31  1  0  0  0  0
 33 34  1  0  0  0  0
 33 32  1  0  0  0  0
 34 32  1  0  0  0  0
M  END
>  <MODEL>
5

>  <REMARK>
 VINA RESULT:      -6.5      3.977      8.910
  Name = 
  4 active torsions:
  status: ('A' for Active; 'I' for Inactive)
    1  A    between atoms: C_3  and  O_25
    2  A    between atoms: C_7  and  N_11
    3  A    between atoms: C_18  and  C_30
    4  A    between atoms: C_23  and  O_25
                            x       y       z     vdW  Elec       q    Type
                         _______ _______ _______ _____ _____    ______ ____

>  <TORSDO>
F 4

$$$$
=
 OpenBabel11062409413D

 34 40  0  0  0  0  0  0  0  0999 V2000
  161.8410  207.8830  150.7050 C   0  0  0  0  0  0  0  0  0  0  0  0
  161.5870  208.9000  154.3500 C   0  0  0  0  0  3  0  0  0  0  0  0
  162.8150  210.3590  152.3780 S   0  0  0  0  0  0  0  0  0  0  0  0
  161.5570  207.9800  147.9670 N   0  0  0  0  0  0  0  0  0  0  0  0
  161.6950  206.7500  149.9650 N   0  0  0  0  0  0  0  0  0  0  0  0
  161.6910  209.1440  148.6490 C   0  0  0  0  0  0  0  0  0  0  0  0
  161.7270  211.5640  148.6730 C   0  0  0  0  0  3  0  0  0  0  0  0
  161.5910  210.3630  147.9730 C   0  0  0  0  0  3  0  0  0  0  0  0
  161.5890  206.7810  148.6090 C   0  0  0  0  0  0  0  0  0  0  0  0
  162.1070  210.3360  150.7300 C   0  0  0  0  0  0  0  0  0  0  0  0
  161.9050  209.1250  150.0430 C   0  0  0  0  0  0  0  0  0  0  0  0
  162.0010  211.5490  150.0430 C   0  0  0  0  0  3  0  0  0  0  0  0
  161.0350  207.7490  154.9170 C   0  0  0  0  0  0  0  0  0  0  0  0
  160.8300  206.6170  154.1150 C   0  0  0  0  0  3  0  0  0  0  0  0
  161.9210  208.9360  152.9920 C   0  0  0  0  0  0  0  0  0  0  0  0
  161.1510  206.6520  152.7560 C   0  0  0  0  0  3  0  0  0  0  0  0
  161.6940  207.8090  152.1790 C   0  0  0  0  0  0  0  0  0  0  0  0
  161.2720  204.3630  145.7160 C   0  0  0  0  0  3  0  0  0  0  0  0
  161.3640  204.2960  148.5170 C   0  0  0  0  0  3  0  0  0  0  0  0
  160.9700  200.7220  146.3340 C   0  0  0  0  0  0  0  0  0  0  0  0
  161.0550  201.9510  145.6650 C   0  0  0  0  0  3  0  0  0  0  0  0
  161.1870  203.1410  146.3850 C   0  0  0  0  0  0  0  0  0  0  0  0
  161.1470  201.8840  148.4650 C   0  0  0  0  0  3  0  0  0  0  0  0
  161.2320  203.1070  147.7960 C   0  0  0  0  0  0  0  0  0  0  0  0
  161.0160  200.6980  147.7380 C   0  0  0  0  0  3  0  0  0  0  0  0
  161.4510  205.5260  147.8470 C   0  0  0  0  0  0  0  0  0  0  0  0
  161.4040  205.5490  146.4440 C   0  0  0  0  0  3  0  0  0  0  0  0
  160.8350  199.5040  145.5900 N   0  0  0  0  0  0  0  0  0  0  0  0
  160.0460  199.4350  144.6240 O   0  0  0  0  0  0  0  0  0  0  0  0
  161.5750  198.3950  145.9320 O   0  0  0  0  0  0  0  0  0  0  0  0
  160.7110  207.7530  156.2770 O   0  0  0  0  0  0  0  0  0  0  0  0
  159.6230  208.4980  156.8070 C   0  0  0  0  0  3  0  0  0  0  0  0
  160.1220  209.8550  157.2610 C   0  0  0  0  0  2  0  0  0  0  0  0
  159.3910  209.7190  155.9420 C   0  0  0  0  0  2  0  0  0  0  0  0
  1 17  1  0  0  0  0
  2 13  1  0  0  0  0
  3 15  1  0  0  0  0
  4  9  2  0  0  0  0
  4  6  1  0  0  0  0
  5  1  2  0  0  0  0
  6 11  1  0  0  0  0
  7 12  2  0  0  0  0
  8  6  2  0  0  0  0
  8  7  1  0  0  0  0
  9  5  1  0  0  0  0
 10  3  1  0  0  0  0
 11  1  1  0  0  0  0
 11 10  2  0  0  0  0
 12 10  1  0  0  0  0
 13 31  1  0  0  0  0
 14 13  2  0  0  0  0
 15  2  2  0  0  0  0
 16 14  1  0  0  0  0
 17 16  2  0  0  0  0
 17 15  1  0  0  0  0
 18 22  2  0  0  0  0
 18 27  1  0  0  0  0
 20 25  1  0  0  0  0
 21 20  2  0  0  0  0
 21 22  1  0  0  0  0
 22 24  1  0  0  0  0
 24 23  1  0  0  0  0
 24 19  2  0  0  0  0
 25 23  2  0  0  0  0
 26 19  1  0  0  0  0
 26  9  1  0  0  0  0
 27 26  2  0  0  0  0
 28 30  2  0  0  0  0
 28 20  1  0  0  0  0
 29 28  2  0  0  0  0
 31 32  1  0  0  0  0
 32 33  1  0  0  0  0
 34 32  1  0  0  0  0
 34 33  1  0  0  0  0
M  END
>  <MODEL>
6

>  <REMARK>
 VINA RESULT:      -6.2      2.113      5.159
  Name = 
  4 active torsions:
  status: ('A' for Active; 'I' for Inactive)
    1  A    between atoms: C_3  and  O_25
    2  A    between atoms: C_7  and  N_11
    3  A    between atoms: C_18  and  C_30
    4  A    between atoms: C_23  and  O_25
                            x       y       z     vdW  Elec       q    Type
                         _______ _______ _______ _____ _____    ______ ____

>  <TORSDO>
F 4

$$$$
