=
 OpenBabel11062410423D

 32 36  0  0  1  0  0  0  0  0999 V2000
  161.3970  210.4510  154.5800 C   0  0  1  0  0  3  0  0  0  0  0  0
  160.2060  206.1600  153.7800 C   0  0  0  0  0  2  0  0  0  0  0  0
  161.9800  209.0660  149.1240 C   0  0  0  0  0  2  0  0  0  0  0  0
  161.3130  207.8390  148.4830 C   0  0  0  0  0  2  0  0  0  0  0  0
  160.1870  208.3340  154.8650 N   0  0  2  0  0  0  0  0  0  0  0  0
  162.3350  208.3940  153.6820 O   0  0  0  0  0  0  0  0  0  0  0  0
  162.6580  211.0290  154.4220 O   0  0  0  0  0  1  0  0  0  0  0  0
  161.6980  209.1660  150.6220 C   0  0  0  0  0  2  0  0  0  0  0  0
  161.5430  207.7890  152.6920 C   0  0  1  0  0  3  0  0  0  0  0  0
  162.1960  207.9070  151.3370 C   0  0  1  0  0  3  0  0  0  0  0  0
  161.2410  205.7090  151.6990 C   0  0  2  0  0  3  0  0  0  0  0  0
  159.4780  210.4520  155.8840 C   0  0  1  0  0  3  0  0  0  0  0  0
  161.5330  208.9320  154.7300 C   0  0  1  0  0  3  0  0  0  0  0  0
  159.5340  208.9260  156.0280 C   0  0  0  0  0  2  0  0  0  0  0  0
  160.7710  211.0080  155.7180 O   0  0  0  0  0  0  0  0  0  0  0  0
  160.8140  206.8080  149.5000 C   0  0  0  0  0  2  0  0  0  0  0  0
  161.8330  206.6050  150.6210 C   0  0  1  0  0  3  0  0  0  0  0  0
  160.2980  206.9020  155.1130 C   0  0  0  0  0  2  0  0  0  0  0  0
  161.4180  206.3660  152.9900 N   0  0  2  0  0  0  0  0  0  0  0  0
  158.5020  210.8870  154.7900 C   0  0  0  0  0  2  0  0  0  0  0  0
  157.2000  211.3020  155.3840 C   0  0  0  0  0  0  0  0  0  0  0  0
  157.1700  211.9270  156.6230 O   0  0  0  0  0  1  0  0  0  0  0  0
  156.1300  211.1130  154.7490 O   0  0  0  0  0  0  0  0  0  0  0  0
  161.8830  204.3180  151.6930 C   0  0  0  0  0  2  0  0  0  0  0  0
  161.6360  203.8580  149.2380 C   0  0  0  0  0  3  0  0  0  0  0  0
  161.1740  203.0700  148.1800 C   0  0  0  0  0  0  0  0  0  0  0  0
  160.2670  201.4770  149.7640 C   0  0  0  0  0  3  0  0  0  0  0  0
  160.4940  201.8760  148.4440 C   0  0  0  0  0  3  0  0  0  0  0  0
  160.7240  202.2690  150.8220 C   0  0  0  0  0  3  0  0  0  0  0  0
  161.4120  203.4600  150.5610 C   0  0  0  0  0  0  0  0  0  0  0  0
  161.4300  203.4860  146.7730 C   0  0  0  0  0  2  0  0  0  0  0  0
  162.3480  204.6110  146.7530 N   0  0  0  0  0  1  0  0  0  0  0  0
  1  7  1  1  0  0  0
  1 13  1  0  0  0  0
  1 15  1  0  0  0  0
  2 18  1  0  0  0  0
  3  8  1  0  0  0  0
  4  3  1  0  0  0  0
  4 16  1  0  0  0  0
  5 18  1  1  0  0  0
  5 14  1  0  0  0  0
  9 19  1  0  0  0  0
  9  6  1  1  0  0  0
 10  8  1  6  0  0  0
 10  9  1  0  0  0  0
 11 24  1  1  0  0  0
 11 19  1  0  0  0  0
 12 20  1  6  0  0  0
 12 14  1  0  0  0  0
 13  6  1  6  0  0  0
 13  5  1  0  0  0  0
 15 12  1  0  0  0  0
 17 16  1  6  0  0  0
 17 10  1  0  0  0  0
 17 11  1  0  0  0  0
 19  2  1  1  0  0  0
 20 21  1  0  0  0  0
 21 22  1  0  0  0  0
 23 21  2  0  0  0  0
 25 30  1  0  0  0  0
 26 28  1  0  0  0  0
 26 25  2  0  0  0  0
 27 29  1  0  0  0  0
 28 27  2  0  0  0  0
 30 29  2  0  0  0  0
 30 24  1  0  0  0  0
 31 26  1  0  0  0  0
 32 31  1  0  0  0  0
M  END
>  <MODEL>
1

>  <REMARK>
 VINA RESULT:      -7.2      0.000      0.000
  Name = 
  5 active torsions:
  status: ('A' for Active; 'I' for Inactive)
    1  A    between atoms: C_1  and  C_17
    2  A    between atoms: C_7  and  C_22
    3  A    between atoms: C_16  and  C_27
    4  A    between atoms: C_17  and  C_19
    5  A    between atoms: C_27  and  C_32
                            x       y       z     vdW  Elec       q    Type
                         _______ _______ _______ _____ _____    ______ ____

>  <TORSDO>
F 5

$$$$
=
 OpenBabel11062410423D

 32 36  0  0  1  0  0  0  0  0999 V2000
  161.7520  210.3480  153.5230 C   0  0  1  0  0  3  0  0  0  0  0  0
  160.2570  206.0790  153.4370 C   0  0  0  0  0  2  0  0  0  0  0  0
  161.6790  208.2270  148.2770 C   0  0  0  0  0  2  0  0  0  0  0  0
  160.8840  206.9740  147.8780 C   0  0  0  0  0  2  0  0  0  0  0  0
  160.4680  208.3720  154.2110 N   0  0  2  0  0  0  0  0  0  0  0  0
  162.4790  208.1330  152.8270 O   0  0  0  0  0  0  0  0  0  0  0  0
  163.0180  210.8150  153.1650 O   0  0  0  0  0  1  0  0  0  0  0  0
  161.5640  208.5400  149.7670 C   0  0  0  0  0  2  0  0  0  0  0  0
  161.5560  207.4580  152.0110 C   0  0  1  0  0  3  0  0  0  0  0  0
  162.0660  207.3550  150.5950 C   0  0  1  0  0  3  0  0  0  0  0  0
  161.0390  205.2920  151.3460 C   0  0  2  0  0  3  0  0  0  0  0  0
  159.9850  210.6480  154.9960 C   0  0  1  0  0  3  0  0  0  0  0  0
  161.8220  208.8550  153.8650 C   0  0  1  0  0  3  0  0  0  0  0  0
  159.9750  209.1530  155.3410 C   0  0  0  0  0  2  0  0  0  0  0  0
  161.2810  211.0890  154.6300 O   0  0  0  0  0  0  0  0  0  0  0  0
  160.4410  206.1200  149.0700 C   0  0  0  0  0  2  0  0  0  0  0  0
  161.5610  205.9980  150.1030 C   0  0  1  0  0  3  0  0  0  0  0  0
  160.5280  206.9800  154.6410 C   0  0  0  0  0  2  0  0  0  0  0  0
  161.3870  206.0980  152.5120 N   0  0  2  0  0  0  0  0  0  0  0  0
  158.9230  211.0010  153.9530 C   0  0  0  0  0  2  0  0  0  0  0  0
  158.0700  212.1230  154.4340 C   0  0  0  0  0  0  0  0  0  0  0  0
  158.0490  212.4510  155.7830 O   0  0  0  0  0  1  0  0  0  0  0  0
  157.3900  212.7930  153.6150 O   0  0  0  0  0  0  0  0  0  0  0  0
  161.6020  203.8720  151.4670 C   0  0  0  0  0  2  0  0  0  0  0  0
  161.5330  203.4330  148.9970 C   0  0  0  0  0  3  0  0  0  0  0  0
  161.1860  202.6340  147.9040 C   0  0  0  0  0  0  0  0  0  0  0  0
  160.2910  200.9630  149.4130 C   0  0  0  0  0  3  0  0  0  0  0  0
  160.5700  201.3950  148.1130 C   0  0  0  0  0  3  0  0  0  0  0  0
  160.6310  201.7660  150.5050 C   0  0  0  0  0  3  0  0  0  0  0  0
  161.2560  203.0020  150.2990 C   0  0  0  0  0  0  0  0  0  0  0  0
  161.4990  203.0850  146.5200 C   0  0  0  0  0  2  0  0  0  0  0  0
  160.9100  202.1690  145.5600 N   0  0  0  0  0  1  0  0  0  0  0  0
  1  7  1  1  0  0  0
  1 13  1  0  0  0  0
  1 15  1  0  0  0  0
  2 18  1  0  0  0  0
  3  8  1  0  0  0  0
  4  3  1  0  0  0  0
  4 16  1  0  0  0  0
  5 18  1  1  0  0  0
  5 14  1  0  0  0  0
  9 19  1  0  0  0  0
  9  6  1  1  0  0  0
 10  8  1  6  0  0  0
 10  9  1  0  0  0  0
 11 24  1  1  0  0  0
 11 19  1  0  0  0  0
 12 20  1  6  0  0  0
 12 14  1  0  0  0  0
 13  6  1  6  0  0  0
 13  5  1  0  0  0  0
 15 12  1  0  0  0  0
 17 16  1  6  0  0  0
 17 10  1  0  0  0  0
 17 11  1  0  0  0  0
 19  2  1  1  0  0  0
 20 21  1  0  0  0  0
 21 22  1  0  0  0  0
 23 21  2  0  0  0  0
 25 30  1  0  0  0  0
 26 28  1  0  0  0  0
 26 25  2  0  0  0  0
 27 29  1  0  0  0  0
 28 27  2  0  0  0  0
 30 29  2  0  0  0  0
 30 24  1  0  0  0  0
 31 26  1  0  0  0  0
 32 31  1  0  0  0  0
M  END
>  <MODEL>
2

>  <REMARK>
 VINA RESULT:      -6.3      1.079      1.104
  Name = 
  5 active torsions:
  status: ('A' for Active; 'I' for Inactive)
    1  A    between atoms: C_1  and  C_17
    2  A    between atoms: C_7  and  C_22
    3  A    between atoms: C_16  and  C_27
    4  A    between atoms: C_17  and  C_19
    5  A    between atoms: C_27  and  C_32
                            x       y       z     vdW  Elec       q    Type
                         _______ _______ _______ _____ _____    ______ ____

>  <TORSDO>
F 5

$$$$
=
 OpenBabel11062410423D

 32 36  0  0  1  0  0  0  0  0999 V2000
  161.4260  210.9400  155.9500 C   0  0  1  0  0  3  0  0  0  0  0  0
  159.8950  206.8890  154.6440 C   0  0  0  0  0  2  0  0  0  0  0  0
  162.3890  209.9740  150.4580 C   0  0  0  0  0  2  0  0  0  0  0  0
  161.6670  208.8860  149.6470 C   0  0  0  0  0  2  0  0  0  0  0  0
  159.9890  208.9510  155.9250 N   0  0  2  0  0  0  0  0  0  0  0  0
  162.2360  208.8790  154.9440 O   0  0  0  0  0  0  0  0  0  0  0  0
  162.7480  211.3900  155.9580 O   0  0  0  0  0  1  0  0  0  0  0  0
  161.9760  209.9760  151.9280 C   0  0  0  0  0  2  0  0  0  0  0  0
  161.4860  208.4500  153.8360 C   0  0  1  0  0  3  0  0  0  0  0  0
  162.2750  208.6130  152.5600 C   0  0  1  0  0  3  0  0  0  0  0  0
  161.0740  206.5090  152.6270 C   0  0  2  0  0  3  0  0  0  0  0  0
  159.4010  211.0380  157.0770 C   0  0  1  0  0  3  0  0  0  0  0  0
  161.3940  209.4080  155.9650 C   0  0  1  0  0  3  0  0  0  0  0  0
  159.2900  209.5070  157.0800 C   0  0  0  0  0  2  0  0  0  0  0  0
  160.7530  211.4620  157.0780 O   0  0  0  0  0  0  0  0  0  0  0  0
  160.9720  207.8320  150.5140 C   0  0  0  0  0  2  0  0  0  0  0  0
  161.8540  207.4240  151.6950 C   0  0  1  0  0  3  0  0  0  0  0  0
  159.9320  207.4980  156.0450 C   0  0  0  0  0  2  0  0  0  0  0  0
  161.1910  207.0290  153.9850 N   0  0  2  0  0  0  0  0  0  0  0  0
  158.5830  211.6680  155.9500 C   0  0  0  0  0  2  0  0  0  0  0  0
  157.1250  211.5580  156.2350 C   0  0  0  0  0  0  0  0  0  0  0  0
  156.3050  210.8270  155.3860 O   0  0  0  0  0  0  0  0  0  0  0  0
  156.6410  212.1020  157.2610 O   0  0  0  0  0  1  0  0  0  0  0  0
  161.5710  205.0620  152.5430 C   0  0  0  0  0  2  0  0  0  0  0  0
  161.1500  203.0430  151.1130 C   0  0  0  0  0  3  0  0  0  0  0  0
  160.9370  202.4480  149.8660 C   0  0  0  0  0  0  0  0  0  0  0  0
  161.0460  204.6260  148.8100 C   0  0  0  0  0  3  0  0  0  0  0  0
  160.8790  203.2420  148.7150 C   0  0  0  0  0  3  0  0  0  0  0  0
  161.2660  205.2200  150.0570 C   0  0  0  0  0  3  0  0  0  0  0  0
  161.3150  204.4290  151.2120 C   0  0  0  0  0  0  0  0  0  0  0  0
  160.7430  200.9760  149.7650 C   0  0  0  0  0  2  0  0  0  0  0  0
  161.2770  200.4940  148.5030 N   0  0  0  0  0  1  0  0  0  0  0  0
  1  7  1  1  0  0  0
  1 13  1  0  0  0  0
  1 15  1  0  0  0  0
  2 18  1  0  0  0  0
  3  8  1  0  0  0  0
  4  3  1  0  0  0  0
  4 16  1  0  0  0  0
  5 13  1  0  0  0  0
  5 18  1  1  0  0  0
  5 14  1  0  0  0  0
  9 19  1  0  0  0  0
  9  6  1  1  0  0  0
 10  8  1  6  0  0  0
 10  9  1  0  0  0  0
 11 24  1  1  0  0  0
 11 19  1  0  0  0  0
 12 20  1  6  0  0  0
 12 15  1  0  0  0  0
 12 14  1  0  0  0  0
 13  6  1  6  0  0  0
 17 16  1  6  0  0  0
 17 10  1  0  0  0  0
 17 11  1  0  0  0  0
 19  2  1  1  0  0  0
 20 21  1  0  0  0  0
 21 23  1  0  0  0  0
 22 21  2  0  0  0  0
 25 30  1  0  0  0  0
 26 25  2  0  0  0  0
 27 29  1  0  0  0  0
 28 27  2  0  0  0  0
 28 26  1  0  0  0  0
 29 30  2  0  0  0  0
 30 24  1  0  0  0  0
 31 26  1  0  0  0  0
 32 31  1  0  0  0  0
M  END
>  <MODEL>
3

>  <REMARK>
 VINA RESULT:      -6.0      1.412      1.941
  Name = 
  5 active torsions:
  status: ('A' for Active; 'I' for Inactive)
    1  A    between atoms: C_1  and  C_17
    2  A    between atoms: C_7  and  C_22
    3  A    between atoms: C_16  and  C_27
    4  A    between atoms: C_17  and  C_19
    5  A    between atoms: C_27  and  C_32
                            x       y       z     vdW  Elec       q    Type
                         _______ _______ _______ _____ _____    ______ ____

>  <TORSDO>
F 5

$$$$
=
 OpenBabel11062410423D

 32 36  0  0  1  0  0  0  0  0999 V2000
  160.0690  209.3070  155.4120 C   0  0  1  0  0  3  0  0  0  0  0  0
  161.9490  209.7070  151.3170 C   0  0  0  0  0  2  0  0  0  0  0  0
  161.3250  204.2740  153.1500 C   0  0  0  0  0  2  0  0  0  0  0  0
  162.2950  204.0900  151.9730 C   0  0  0  0  0  2  0  0  0  0  0  0
  161.3820  210.3150  153.5990 N   0  0  2  0  0  0  0  0  0  0  0  0
  159.6970  208.5990  153.1150 O   0  0  0  0  0  0  0  0  0  0  0  0
  158.8550  208.7000  155.7380 O   0  0  0  0  0  1  0  0  0  0  0  0
  161.1290  205.7420  153.5190 C   0  0  0  0  0  2  0  0  0  0  0  0
  160.8170  208.0000  152.5130 C   0  0  1  0  0  3  0  0  0  0  0  0
  160.5930  206.5210  152.3140 C   0  0  1  0  0  3  0  0  0  0  0  0
  161.6500  207.5490  150.3900 C   0  0  2  0  0  3  0  0  0  0  0  0
  161.4930  211.0630  155.9350 C   0  0  1  0  0  3  0  0  0  0  0  0
  160.0770  209.7030  153.9320 C   0  0  1  0  0  3  0  0  0  0  0  0
  161.5780  211.4770  154.4600 C   0  0  0  0  0  2  0  0  0  0  0  0
  160.2530  210.4440  156.2310 O   0  0  0  0  0  0  0  0  0  0  0  0
  162.5840  205.3840  151.2050 C   0  0  0  0  0  2  0  0  0  0  0  0
  161.3070  206.1980  151.0010 C   0  0  1  0  0  3  0  0  0  0  0  0
  161.3720  210.7940  152.2220 C   0  0  0  0  0  2  0  0  0  0  0  0
  161.0150  208.5900  151.1930 N   0  0  2  0  0  0  0  0  0  0  0  0
  162.6940  210.2180  156.3620 C   0  0  0  0  0  2  0  0  0  0  0  0
  163.9540  211.0040  156.2530 C   0  0  0  0  0  0  0  0  0  0  0  0
  164.6080  211.1030  155.0320 O   0  0  0  0  0  0  0  0  0  0  0  0
  164.4100  211.6050  157.2600 O   0  0  0  0  0  1  0  0  0  0  0  0
  161.2100  207.6340  148.9250 C   0  0  0  0  0  2  0  0  0  0  0  0
  160.9960  205.1630  148.5410 C   0  0  0  0  0  3  0  0  0  0  0  0
  161.3120  204.0020  147.8290 C   0  0  0  0  0  0  0  0  0  0  0  0
  162.6840  205.3060  146.3150 C   0  0  0  0  0  3  0  0  0  0  0  0
  162.1510  204.0750  146.7120 C   0  0  0  0  0  3  0  0  0  0  0  0
  162.3730  206.4650  147.0330 C   0  0  0  0  0  3  0  0  0  0  0  0
  161.5260  206.3960  148.1450 C   0  0  0  0  0  0  0  0  0  0  0  0
  160.7320  202.6940  148.2390 C   0  0  0  0  0  2  0  0  0  0  0  0
  160.5300  202.6760  149.6780 N   0  0  0  0  0  1  0  0  0  0  0  0
  1  7  1  1  0  0  0
  1 15  1  0  0  0  0
  2 18  1  0  0  0  0
  3  8  1  0  0  0  0
  4  3  1  0  0  0  0
  5 18  1  6  0  0  0
  5 13  1  0  0  0  0
  5 14  1  0  0  0  0
  9  6  1  6  0  0  0
 10  9  1  0  0  0  0
 10  8  1  1  0  0  0
 11 24  1  6  0  0  0
 11 17  1  0  0  0  0
 11 19  1  0  0  0  0
 12 15  1  0  0  0  0
 12 20  1  6  0  0  0
 13  6  1  6  0  0  0
 13  1  1  0  0  0  0
 14 12  1  0  0  0  0
 16  4  1  0  0  0  0
 17 16  1  1  0  0  0
 17 10  1  0  0  0  0
 19  2  1  1  0  0  0
 19  9  1  0  0  0  0
 21 20  1  0  0  0  0
 21 23  1  0  0  0  0
 22 21  2  0  0  0  0
 26 31  1  0  0  0  0
 26 25  2  0  0  0  0
 27 28  2  0  0  0  0
 27 29  1  0  0  0  0
 28 26  1  0  0  0  0
 29 30  2  0  0  0  0
 30 25  1  0  0  0  0
 30 24  1  0  0  0  0
 31 32  1  0  0  0  0
M  END
>  <MODEL>
4

>  <REMARK>
 VINA RESULT:      -4.6      1.976      4.174
  Name = 
  5 active torsions:
  status: ('A' for Active; 'I' for Inactive)
    1  A    between atoms: C_1  and  C_17
    2  A    between atoms: C_7  and  C_22
    3  A    between atoms: C_16  and  C_27
    4  A    between atoms: C_17  and  C_19
    5  A    between atoms: C_27  and  C_32
                            x       y       z     vdW  Elec       q    Type
                         _______ _______ _______ _____ _____    ______ ____

>  <TORSDO>
F 5

$$$$
