=
 OpenBabel11062410153D

 43 47  0  0  1  0  0  0  0  0999 V2000
  161.0280  202.5250  146.8930 C   0  0  0  0  0  0  0  0  0  0  0  0
  161.2740  206.0740  150.4920 C   0  0  0  0  0  0  0  0  0  0  0  0
  161.9460  208.4260  149.1650 C   0  0  0  0  0  0  0  0  0  0  0  0
  160.9760  203.7070  149.0060 C   0  0  0  0  0  0  0  0  0  0  0  0
  161.3860  203.7050  146.2350 C   0  0  0  0  0  3  0  0  0  0  0  0
  160.8760  201.3490  146.1700 O   0  0  0  0  0  1  0  0  0  0  0  0
  161.3360  204.9070  148.3460 C   0  0  0  0  0  0  0  0  0  0  0  0
  160.8230  202.5250  148.2750 C   0  0  0  0  0  3  0  0  0  0  0  0
  161.5390  204.8920  146.9570 C   0  0  0  0  0  3  0  0  0  0  0  0
  161.8110  207.2640  148.4740 N   0  0  0  0  0  0  0  0  0  0  0  0
  161.4810  206.0930  149.0900 C   0  0  0  0  0  0  0  0  0  0  0  0
  160.9180  204.8750  151.1240 C   0  0  0  0  0  3  0  0  0  0  0  0
  161.4260  207.2680  151.2190 C   0  0  0  0  0  0  0  0  0  0  0  0
  161.7600  208.4450  150.5470 C   0  0  0  0  0  3  0  0  0  0  0  0
  160.7700  203.7000  150.3870 C   0  0  0  0  0  3  0  0  0  0  0  0
  162.3130  209.6770  148.4510 C   0  0  0  0  0  2  0  0  0  0  0  0
  161.9220  210.8930  149.2850 C   0  0  0  0  0  2  0  0  0  0  0  0
  160.9120  213.1770  149.2530 C   0  0  0  0  0  1  0  0  0  0  0  0
  161.6930  212.1490  148.4440 C   0  0  0  0  0  0  0  0  0  0  0  0
  163.0350  212.7390  148.0260 C   0  0  0  0  0  1  0  0  0  0  0  0
  160.8860  211.7320  147.2100 C   0  0  0  0  0  2  0  0  0  0  0  0
  160.3810  212.9010  146.3690 C   0  0  2  0  0  3  0  0  0  0  0  0
  159.2980  213.0770  143.5490 C   0  0  0  0  0  2  0  0  0  0  0  0
  160.6740  212.4530  143.8760 C   0  0  2  0  0  3  0  0  0  0  0  0
  158.9080  212.6640  146.0160 C   0  0  0  0  0  2  0  0  0  0  0  0
  161.2770  213.1010  145.1360 C   0  0  1  0  0  3  0  0  0  0  0  0
  161.4950  214.4530  144.9290 F   0  0  0  0  0  0  0  0  0  0  0  0
  158.4980  213.4830  144.7930 C   0  0  0  0  0  2  0  0  0  0  0  0
  161.5920  212.5340  142.7260 N   0  0  0  0  0  0  0  0  0  0  0  0
  160.1250  211.4030  141.0680 C   0  0  0  0  0  2  0  0  0  0  0  0
  160.0320  213.6490  141.1470 C   0  0  0  0  0  2  0  0  0  0  0  0
  160.1010  212.5560  140.2680 O   0  0  0  0  0  0  0  0  0  0  0  0
  161.3380  213.7590  141.9430 C   0  0  0  0  0  2  0  0  0  0  0  0
  161.4370  211.3500  141.8600 C   0  0  0  0  0  2  0  0  0  0  0  0
  161.1850  207.3400  152.9970 S   0  0  0  0  0  0  0  0  0  0  0  0
  161.3380  209.1560  153.0380 C   0  0  1  0  0  3  0  0  0  0  0  0
  160.0630  209.8040  152.5280 C   0  0  0  0  0  1  0  0  0  0  0  0
  161.7170  209.6580  154.4340 C   0  0  0  0  0  2  0  0  0  0  0  0
  160.5050  209.9460  155.3190 C   0  0  2  0  0  3  0  0  0  0  0  0
  160.4050  211.3150  155.5850 O   0  0  0  0  0  1  0  0  0  0  0  0
  160.0770  207.7140  156.4480 C   0  0  0  0  0  1  0  0  0  0  0  0
  162.0090  209.1150  157.1320 C   0  0  0  0  0  1  0  0  0  0  0  0
  160.5840  209.1390  156.6150 C   0  0  0  0  0  3  0  0  0  0  0  0
  1  8  1  0  0  0  0
  2 12  1  0  0  0  0
  2 13  1  0  0  0  0
  3 14  1  0  0  0  0
  4 15  1  0  0  0  0
  5  1  2  0  0  0  0
  5  9  1  0  0  0  0
  6  1  1  0  0  0  0
  7  4  1  0  0  0  0
  7 11  1  0  0  0  0
  8  4  2  0  0  0  0
  9  7  2  0  0  0  0
 10 11  1  0  0  0  0
 10  3  2  0  0  0  0
 11  2  2  0  0  0  0
 13 35  1  0  0  0  0
 14 13  2  0  0  0  0
 15 12  2  0  0  0  0
 16  3  1  0  0  0  0
 16 17  1  0  0  0  0
 19 18  1  0  0  0  0
 19 17  1  0  0  0  0
 20 19  1  0  0  0  0
 21 19  1  0  0  0  0
 22 21  1  6  0  0  0
 23 24  1  0  0  0  0
 23 28  1  0  0  0  0
 24 29  1  6  0  0  0
 24 26  1  0  0  0  0
 25 22  1  0  0  0  0
 26 27  1  6  0  0  0
 26 22  1  0  0  0  0
 28 25  1  0  0  0  0
 30 34  1  0  0  0  0
 31 33  1  0  0  0  0
 32 30  1  0  0  0  0
 32 31  1  0  0  0  0
 33 29  1  0  0  0  0
 34 29  1  0  0  0  0
 35 36  1  0  0  0  0
 36 37  1  1  0  0  0
 36 38  1  0  0  0  0
 38 39  1  0  0  0  0
 39 40  1  1  0  0  0
 39 43  1  0  0  0  0
 41 43  1  0  0  0  0
 43 42  1  0  0  0  0
M  END
>  <MODEL>
1

>  <REMARK>
 VINA RESULT:      -9.1      0.000      0.000
  Name = 
  11 active torsions:
  status: ('A' for Active; 'I' for Inactive)
    1  A    between atoms: C_1  and  C_9
    2  A    between atoms: C_1  and  S_35
    3  A    between atoms: C_2  and  C_6
    4  A    between atoms: C_2  and  C_13
    5  A    between atoms: C_3  and  C_4
    6  A    between atoms: C_3  and  C_12
    7  A    between atoms: C_6  and  C_12
    8  A    between atoms: C_9  and  C_32
    9  A    between atoms: N_11  and  C_14
   10  A    between atoms: C_32  and  C_37
   11  A    between atoms: C_34  and  S_35
                            x       y       z     vdW  Elec       q    Type
                         _______ _______ _______ _____ _____    ______ ____

>  <TORSDO>
F 11

$$$$
=
 OpenBabel11062410153D

 43 47  0  0  1  0  0  0  0  0999 V2000
  161.0080  201.8510  147.9360 C   0  0  0  0  0  0  0  0  0  0  0  0
  161.5090  206.6490  149.4660 C   0  0  0  0  0  0  0  0  0  0  0  0
  161.1330  206.5880  152.2230 C   0  0  0  0  0  0  0  0  0  0  0  0
  161.3580  204.2470  148.0160 C   0  0  0  0  0  0  0  0  0  0  0  0
  160.7990  201.8310  149.3180 C   0  0  0  0  0  3  0  0  0  0  0  0
  160.9380  200.6720  147.2080 O   0  0  0  0  0  1  0  0  0  0  0  0
  161.1500  204.2330  149.4160 C   0  0  0  0  0  0  0  0  0  0  0  0
  161.2870  203.0570  147.2860 C   0  0  0  0  0  3  0  0  0  0  0  0
  160.8700  203.0150  150.0560 C   0  0  0  0  0  3  0  0  0  0  0  0
  161.0490  205.4440  151.4950 N   0  0  0  0  0  0  0  0  0  0  0  0
  161.2300  205.4350  150.1430 C   0  0  0  0  0  0  0  0  0  0  0  0
  161.7120  206.6390  148.0800 C   0  0  0  0  0  3  0  0  0  0  0  0
  161.5830  207.8410  150.2090 C   0  0  0  0  0  0  0  0  0  0  0  0
  161.3950  207.8030  151.5920 C   0  0  0  0  0  3  0  0  0  0  0  0
  161.6370  205.4470  147.3590 C   0  0  0  0  0  3  0  0  0  0  0  0
  160.9220  206.5490  153.6940 C   0  0  0  0  0  2  0  0  0  0  0  0
  160.8130  207.9670  154.2470 C   0  0  0  0  0  2  0  0  0  0  0  0
  159.8010  206.7560  156.1820 C   0  0  0  0  0  1  0  0  0  0  0  0
  160.5580  208.0050  155.7540 C   0  0  0  0  0  0  0  0  0  0  0  0
  161.8870  208.0790  156.4980 C   0  0  0  0  0  1  0  0  0  0  0  0
  159.7160  209.2530  156.0440 C   0  0  0  0  0  2  0  0  0  0  0  0
  160.4710  210.5690  155.8790 C   0  0  2  0  0  3  0  0  0  0  0  0
  159.7300  213.4410  156.4750 C   0  0  0  0  0  2  0  0  0  0  0  0
  158.8700  212.5300  155.5710 C   0  0  2  0  0  3  0  0  0  0  0  0
  160.6530  211.2170  157.2560 C   0  0  0  0  0  2  0  0  0  0  0  0
  159.7490  211.4780  154.8710 C   0  0  1  0  0  3  0  0  0  0  0  0
  160.6770  212.0910  154.0460 F   0  0  0  0  0  0  0  0  0  0  0  0
  160.9150  212.7170  157.1260 C   0  0  0  0  0  2  0  0  0  0  0  0
  158.0820  213.3150  154.6050 N   0  0  0  0  0  0  0  0  0  0  0  0
  155.9240  212.1180  154.9070 C   0  0  0  0  0  2  0  0  0  0  0  0
  156.2450  213.9700  156.1440 C   0  0  0  0  0  2  0  0  0  0  0  0
  155.3040  213.2980  155.3460 O   0  0  0  0  0  0  0  0  0  0  0  0
  157.4150  214.4470  155.2760 C   0  0  0  0  0  2  0  0  0  0  0  0
  157.0720  212.4620  153.9510 C   0  0  0  0  0  2  0  0  0  0  0  0
  161.9300  209.4250  149.4380 S   0  0  0  0  0  0  0  0  0  0  0  0
  161.5230  210.3560  150.9520 C   0  0  1  0  0  3  0  0  0  0  0  0
  162.6750  210.2870  151.9390 C   0  0  0  0  0  1  0  0  0  0  0  0
  161.1250  211.8000  150.6360 C   0  0  0  0  0  2  0  0  0  0  0  0
  161.3560  212.1820  149.1740 C   0  0  2  0  0  3  0  0  0  0  0  0
  162.7120  212.0850  148.8500 O   0  0  0  0  0  1  0  0  0  0  0  0
  161.4320  214.2060  147.6460 C   0  0  0  0  0  1  0  0  0  0  0  0
  159.3140  213.5620  148.7690 C   0  0  0  0  0  1  0  0  0  0  0  0
  160.8240  213.5870  148.8970 C   0  0  0  0  0  3  0  0  0  0  0  0
  1  5  1  0  0  0  0
  2 11  1  0  0  0  0
  2 13  1  0  0  0  0
  3 16  1  0  0  0  0
  4  7  1  0  0  0  0
  5  9  2  0  0  0  0
  6  1  1  0  0  0  0
  7  9  1  0  0  0  0
  7 11  2  0  0  0  0
  8  1  2  0  0  0  0
  8  4  1  0  0  0  0
 10  3  2  0  0  0  0
 11 10  1  0  0  0  0
 12  2  2  0  0  0  0
 13 14  2  0  0  0  0
 14  3  1  0  0  0  0
 15  4  2  0  0  0  0
 15 12  1  0  0  0  0
 16 17  1  0  0  0  0
 17 19  1  0  0  0  0
 19 21  1  0  0  0  0
 19 18  1  0  0  0  0
 19 20  1  0  0  0  0
 22 21  1  1  0  0  0
 22 25  1  0  0  0  0
 23 28  1  0  0  0  0
 24 29  1  6  0  0  0
 24 23  1  0  0  0  0
 26 27  1  1  0  0  0
 26 24  1  0  0  0  0
 26 22  1  0  0  0  0
 28 25  1  0  0  0  0
 29 33  1  0  0  0  0
 30 32  1  0  0  0  0
 32 31  1  0  0  0  0
 33 31  1  0  0  0  0
 34 29  1  0  0  0  0
 34 30  1  0  0  0  0
 35 13  1  0  0  0  0
 35 36  1  0  0  0  0
 36 37  1  1  0  0  0
 38 36  1  0  0  0  0
 39 40  1  1  0  0  0
 39 38  1  0  0  0  0
 41 43  1  0  0  0  0
 42 43  1  0  0  0  0
 43 39  1  0  0  0  0
M  END
>  <MODEL>
2

>  <REMARK>
 VINA RESULT:      -9.0      3.897      8.420
  Name = 
  11 active torsions:
  status: ('A' for Active; 'I' for Inactive)
    1  A    between atoms: C_1  and  C_9
    2  A    between atoms: C_1  and  S_35
    3  A    between atoms: C_2  and  C_6
    4  A    between atoms: C_2  and  C_13
    5  A    between atoms: C_3  and  C_4
    6  A    between atoms: C_3  and  C_12
    7  A    between atoms: C_6  and  C_12
    8  A    between atoms: C_9  and  C_32
    9  A    between atoms: N_11  and  C_14
   10  A    between atoms: C_32  and  C_37
   11  A    between atoms: C_34  and  S_35
                            x       y       z     vdW  Elec       q    Type
                         _______ _______ _______ _____ _____    ______ ____

>  <TORSDO>
F 11

$$$$
=
 OpenBabel11062410153D

 43 47  0  0  1  0  0  0  0  0999 V2000
  161.1710  204.1240  148.6100 C   0  0  0  0  0  0  0  0  0  0  0  0
  161.5390  208.4370  151.2310 C   0  0  0  0  0  0  0  0  0  0  0  0
  162.0520  210.4110  149.3380 C   0  0  0  0  0  0  0  0  0  0  0  0
  161.2180  205.7790  150.3790 C   0  0  0  0  0  0  0  0  0  0  0  0
  161.4500  205.1170  147.6670 C   0  0  0  0  0  3  0  0  0  0  0  0
  161.0090  202.8070  148.2020 O   0  0  0  0  0  1  0  0  0  0  0  0
  161.4990  206.7900  149.4280 C   0  0  0  0  0  0  0  0  0  0  0  0
  161.0550  204.4540  149.9640 C   0  0  0  0  0  3  0  0  0  0  0  0
  161.6130  206.4440  148.0720 C   0  0  0  0  0  3  0  0  0  0  0  0
  161.9090  209.1150  148.9550 N   0  0  0  0  0  0  0  0  0  0  0  0
  161.6550  208.1220  149.8540 C   0  0  0  0  0  0  0  0  0  0  0  0
  161.2610  207.4210  152.1550 C   0  0  0  0  0  3  0  0  0  0  0  0
  161.7010  209.7730  151.6400 C   0  0  0  0  0  0  0  0  0  0  0  0
  161.9550  210.7590  150.6850 C   0  0  0  0  0  3  0  0  0  0  0  0
  161.1020  206.1010  151.7320 C   0  0  0  0  0  3  0  0  0  0  0  0
  162.3350  211.4590  148.3220 C   0  0  0  0  0  2  0  0  0  0  0  0
  161.0480  211.8600  147.6090 C   0  0  0  0  0  2  0  0  0  0  0  0
  159.5480  213.6630  148.4690 C   0  0  0  0  0  1  0  0  0  0  0  0
  160.7900  213.3670  147.6380 C   0  0  0  0  0  0  0  0  0  0  0  0
  161.9930  214.0820  148.2430 C   0  0  0  0  0  1  0  0  0  0  0  0
  160.5720  213.8220  146.1910 C   0  0  0  0  0  2  0  0  0  0  0  0
  161.1970  212.9030  145.1460 C   0  0  2  0  0  3  0  0  0  0  0  0
  161.8430  213.2770  142.2140 C   0  0  0  0  0  2  0  0  0  0  0  0
  160.4280  213.5070  142.7920 C   0  0  2  0  0  3  0  0  0  0  0  0
  162.5030  213.5300  144.6450 C   0  0  0  0  0  2  0  0  0  0  0  0
  160.1920  212.6100  144.0200 C   0  0  1  0  0  3  0  0  0  0  0  0
  160.2620  211.2730  143.6650 F   0  0  0  0  0  0  0  0  0  0  0  0
  162.8970  212.9610  143.2820 C   0  0  0  0  0  2  0  0  0  0  0  0
  159.3870  213.3150  141.7660 N   0  0  0  0  0  0  0  0  0  0  0  0
  160.5850  214.4190  139.8870 C   0  0  0  0  0  2  0  0  0  0  0  0
  160.8100  212.1880  140.0700 C   0  0  0  0  0  2  0  0  0  0  0  0
  160.5790  213.2240  139.1500 O   0  0  0  0  0  0  0  0  0  0  0  0
  159.6150  212.0610  141.0220 C   0  0  0  0  0  2  0  0  0  0  0  0
  159.3740  214.4530  140.8270 C   0  0  0  0  0  2  0  0  0  0  0  0
  161.5730  210.2670  153.3610 S   0  0  0  0  0  0  0  0  0  0  0  0
  160.2450  211.4670  153.0160 C   0  0  1  0  0  3  0  0  0  0  0  0
  158.9610  210.7420  152.6520 C   0  0  0  0  0  1  0  0  0  0  0  0
  160.0430  212.4380  154.1820 C   0  0  0  0  0  2  0  0  0  0  0  0
  158.5720  212.7340  154.4710 C   0  0  2  0  0  3  0  0  0  0  0  0
  158.2900  214.0840  154.2420 O   0  0  0  0  0  1  0  0  0  0  0  0
  157.1640  211.2360  155.9570 C   0  0  0  0  0  1  0  0  0  0  0  0
  159.4580  211.8870  156.6480 C   0  0  0  0  0  1  0  0  0  0  0  0
  158.2160  212.3340  155.9030 C   0  0  0  0  0  3  0  0  0  0  0  0
  1  8  1  0  0  0  0
  2 13  1  0  0  0  0
  2 12  1  0  0  0  0
  3 14  1  0  0  0  0
  4 15  1  0  0  0  0
  5  9  1  0  0  0  0
  5  1  2  0  0  0  0
  6  1  1  0  0  0  0
  7 11  1  0  0  0  0
  7  4  1  0  0  0  0
  8  4  2  0  0  0  0
  9  7  2  0  0  0  0
 10  3  2  0  0  0  0
 10 11  1  0  0  0  0
 11  2  2  0  0  0  0
 13 35  1  0  0  0  0
 14 13  2  0  0  0  0
 15 12  2  0  0  0  0
 16  3  1  0  0  0  0
 17 19  1  0  0  0  0
 17 16  1  0  0  0  0
 19 20  1  0  0  0  0
 19 18  1  0  0  0  0
 21 19  1  0  0  0  0
 22 21  1  1  0  0  0
 23 24  1  0  0  0  0
 23 28  1  0  0  0  0
 24 29  1  6  0  0  0
 24 26  1  0  0  0  0
 25 22  1  0  0  0  0
 26 27  1  6  0  0  0
 26 22  1  0  0  0  0
 28 25  1  0  0  0  0
 30 34  1  0  0  0  0
 31 33  1  0  0  0  0
 32 30  1  0  0  0  0
 32 31  1  0  0  0  0
 33 29  1  0  0  0  0
 34 29  1  0  0  0  0
 36 37  1  1  0  0  0
 36 35  1  0  0  0  0
 36 38  1  0  0  0  0
 38 39  1  0  0  0  0
 39 40  1  1  0  0  0
 39 43  1  0  0  0  0
 43 41  1  0  0  0  0
 43 42  1  0  0  0  0
M  END
>  <MODEL>
3

>  <REMARK>
 VINA RESULT:      -8.1      1.916      2.735
  Name = 
  11 active torsions:
  status: ('A' for Active; 'I' for Inactive)
    1  A    between atoms: C_1  and  C_9
    2  A    between atoms: C_1  and  S_35
    3  A    between atoms: C_2  and  C_6
    4  A    between atoms: C_2  and  C_13
    5  A    between atoms: C_3  and  C_4
    6  A    between atoms: C_3  and  C_12
    7  A    between atoms: C_6  and  C_12
    8  A    between atoms: C_9  and  C_32
    9  A    between atoms: N_11  and  C_14
   10  A    between atoms: C_32  and  C_37
   11  A    between atoms: C_34  and  S_35
                            x       y       z     vdW  Elec       q    Type
                         _______ _______ _______ _____ _____    ______ ____

>  <TORSDO>
F 11

$$$$
=
 OpenBabel11062410153D

 43 47  0  0  1  0  0  0  0  0999 V2000
  161.0470  203.4630  148.7970 C   0  0  0  0  0  0  0  0  0  0  0  0
  161.8760  208.4000  149.5370 C   0  0  0  0  0  0  0  0  0  0  0  0
  161.0640  208.9020  152.1510 C   0  0  0  0  0  0  0  0  0  0  0  0
  161.6680  205.7890  148.5210 C   0  0  0  0  0  0  0  0  0  0  0  0
  160.6220  203.7260  150.1020 C   0  0  0  0  0  3  0  0  0  0  0  0
  160.9510  202.1770  148.2830 O   0  0  0  0  0  1  0  0  0  0  0  0
  161.2400  206.0620  149.8430 C   0  0  0  0  0  0  0  0  0  0  0  0
  161.5700  204.4920  148.0080 C   0  0  0  0  0  3  0  0  0  0  0  0
  160.7170  205.0180  150.6250 C   0  0  0  0  0  3  0  0  0  0  0  0
  160.9590  207.6510  151.6290 N   0  0  0  0  0  0  0  0  0  0  0  0
  161.3490  207.3690  150.3530 C   0  0  0  0  0  0  0  0  0  0  0  0
  162.2930  208.1080  148.2310 C   0  0  0  0  0  3  0  0  0  0  0  0
  161.9750  209.7010  150.0620 C   0  0  0  0  0  0  0  0  0  0  0  0
  161.5680  209.9450  151.3760 C   0  0  0  0  0  3  0  0  0  0  0  0
  162.1900  206.8110  147.7270 C   0  0  0  0  0  3  0  0  0  0  0  0
  160.6200  209.1640  153.5450 C   0  0  0  0  0  2  0  0  0  0  0  0
  161.6210  210.0710  154.2540 C   0  0  0  0  0  2  0  0  0  0  0  0
  161.4990  208.4430  156.1440 C   0  0  0  0  0  1  0  0  0  0  0  0
  161.5980  209.9170  155.7750 C   0  0  0  0  0  0  0  0  0  0  0  0
  162.8690  210.5110  156.3710 C   0  0  0  0  0  1  0  0  0  0  0  0
  160.3660  210.6690  156.2920 C   0  0  0  0  0  2  0  0  0  0  0  0
  160.2100  212.0770  155.7240 C   0  0  2  0  0  3  0  0  0  0  0  0
  158.3380  214.3580  156.3940 C   0  0  0  0  0  2  0  0  0  0  0  0
  157.8320  212.9450  156.0230 C   0  0  2  0  0  3  0  0  0  0  0  0
  160.4890  213.0980  156.8350 C   0  0  0  0  0  2  0  0  0  0  0  0
  158.8250  212.2450  155.0790 C   0  0  1  0  0  3  0  0  0  0  0  0
  158.9440  212.9470  153.8910 F   0  0  0  0  0  0  0  0  0  0  0  0
  159.8650  214.4520  156.5030 C   0  0  0  0  0  2  0  0  0  0  0  0
  156.4740  212.9900  155.4530 N   0  0  0  0  0  0  0  0  0  0  0  0
  156.0870  210.5360  155.3590 C   0  0  0  0  0  2  0  0  0  0  0  0
  155.3480  211.6160  157.1900 C   0  0  0  0  0  2  0  0  0  0  0  0
  154.9930  210.6510  156.2330 O   0  0  0  0  0  0  0  0  0  0  0  0
  155.4590  212.9930  156.5240 C   0  0  0  0  0  2  0  0  0  0  0  0
  156.2520  211.8350  154.5620 C   0  0  0  0  0  2  0  0  0  0  0  0
  162.6280  211.0710  149.1030 S   0  0  0  0  0  0  0  0  0  0  0  0
  160.9940  211.8650  148.9490 C   0  0  1  0  0  3  0  0  0  0  0  0
  160.6320  212.5780  150.2400 C   0  0  0  0  0  1  0  0  0  0  0  0
  160.9340  212.8010  147.7400 C   0  0  0  0  0  2  0  0  0  0  0  0
  159.6520  213.6330  147.6860 C   0  0  2  0  0  3  0  0  0  0  0  0
  158.6170  212.9830  148.3640 O   0  0  0  0  0  1  0  0  0  0  0  0
  159.7500  212.8500  145.2750 C   0  0  0  0  0  1  0  0  0  0  0  0
  157.7590  214.0700  146.1170 C   0  0  0  0  0  1  0  0  0  0  0  0
  159.2630  213.9230  146.2380 C   0  0  0  0  0  3  0  0  0  0  0  0
  1  5  1  0  0  0  0
  2 13  2  0  0  0  0
  2 11  1  0  0  0  0
  3 16  1  0  0  0  0
  4  7  2  0  0  0  0
  5  9  2  0  0  0  0
  6  1  1  0  0  0  0
  7 11  1  0  0  0  0
  7  9  1  0  0  0  0
  8  4  1  0  0  0  0
  8  1  2  0  0  0  0
 10  3  1  0  0  0  0
 11 10  2  0  0  0  0
 12  2  1  0  0  0  0
 13 14  1  0  0  0  0
 14  3  2  0  0  0  0
 15 12  2  0  0  0  0
 15  4  1  0  0  0  0
 16 17  1  0  0  0  0
 17 19  1  0  0  0  0
 19 18  1  0  0  0  0
 19 21  1  0  0  0  0
 19 20  1  0  0  0  0
 22 21  1  1  0  0  0
 22 25  1  0  0  0  0
 23 28  1  0  0  0  0
 24 29  1  6  0  0  0
 24 23  1  0  0  0  0
 26 27  1  6  0  0  0
 26 22  1  0  0  0  0
 26 24  1  0  0  0  0
 28 25  1  0  0  0  0
 29 33  1  0  0  0  0
 30 32  1  0  0  0  0
 32 31  1  0  0  0  0
 33 31  1  0  0  0  0
 34 30  1  0  0  0  0
 34 29  1  0  0  0  0
 35 13  1  0  0  0  0
 36 35  1  0  0  0  0
 36 37  1  1  0  0  0
 38 36  1  0  0  0  0
 39 38  1  0  0  0  0
 39 40  1  6  0  0  0
 41 43  1  0  0  0  0
 42 43  1  0  0  0  0
 43 39  1  0  0  0  0
M  END
>  <MODEL>
4

>  <REMARK>
 VINA RESULT:      -7.9      3.635      8.967
  Name = 
  11 active torsions:
  status: ('A' for Active; 'I' for Inactive)
    1  A    between atoms: C_1  and  C_9
    2  A    between atoms: C_1  and  S_35
    3  A    between atoms: C_2  and  C_6
    4  A    between atoms: C_2  and  C_13
    5  A    between atoms: C_3  and  C_4
    6  A    between atoms: C_3  and  C_12
    7  A    between atoms: C_6  and  C_12
    8  A    between atoms: C_9  and  C_32
    9  A    between atoms: N_11  and  C_14
   10  A    between atoms: C_32  and  C_37
   11  A    between atoms: C_34  and  S_35
                            x       y       z     vdW  Elec       q    Type
                         _______ _______ _______ _____ _____    ______ ____

>  <TORSDO>
F 11

$$$$
=
 OpenBabel11062410153D

 43 47  0  0  1  0  0  0  0  0999 V2000
  160.9240  201.6860  147.3160 C   0  0  0  0  0  0  0  0  0  0  0  0
  161.5790  206.5200  148.6640 C   0  0  0  0  0  0  0  0  0  0  0  0
  161.1320  206.5880  151.4100 C   0  0  0  0  0  0  0  0  0  0  0  0
  161.3680  204.0680  147.3080 C   0  0  0  0  0  0  0  0  0  0  0  0
  160.6800  201.7310  148.6910 C   0  0  0  0  0  3  0  0  0  0  0  0
  160.8250  200.4820  146.6340 O   0  0  0  0  0  1  0  0  0  0  0  0
  161.1250  204.1200  148.7020 C   0  0  0  0  0  0  0  0  0  0  0  0
  161.2680  202.8520  146.6250 C   0  0  0  0  0  3  0  0  0  0  0  0
  160.7800  202.9410  149.3830 C   0  0  0  0  0  3  0  0  0  0  0  0
  161.0210  205.4190  150.7260 N   0  0  0  0  0  0  0  0  0  0  0  0
  161.2350  205.3470  149.3820 C   0  0  0  0  0  0  0  0  0  0  0  0
  161.8150  206.4460  147.2850 C   0  0  0  0  0  3  0  0  0  0  0  0
  161.6820  207.7390  149.3590 C   0  0  0  0  0  0  0  0  0  0  0  0
  161.4590  207.7650  150.7370 C   0  0  0  0  0  3  0  0  0  0  0  0
  161.7110  205.2280  146.6110 C   0  0  0  0  0  3  0  0  0  0  0  0
  160.8840  206.6190  152.8760 C   0  0  0  0  0  2  0  0  0  0  0  0
  160.4350  208.0120  153.3040 C   0  0  0  0  0  2  0  0  0  0  0  0
  160.8550  206.9480  155.5240 C   0  0  0  0  0  1  0  0  0  0  0  0
  160.6140  208.2670  154.8010 C   0  0  0  0  0  0  0  0  0  0  0  0
  161.7990  209.1990  155.0250 C   0  0  0  0  0  1  0  0  0  0  0  0
  159.3230  208.9150  155.3120 C   0  0  0  0  0  2  0  0  0  0  0  0
  159.5410  210.1880  156.1240 C   0  0  2  0  0  3  0  0  0  0  0  0
  158.2530  212.9240  156.0280 C   0  0  0  0  0  2  0  0  0  0  0  0
  158.9060  212.2660  154.7910 C   0  0  2  0  0  3  0  0  0  0  0  0
  158.2450  210.5360  156.8680 C   0  0  0  0  0  2  0  0  0  0  0  0
  160.0450  211.3230  155.2180 C   0  0  1  0  0  3  0  0  0  0  0  0
  161.0450  212.0300  155.8650 F   0  0  0  0  0  0  0  0  0  0  0  0
  158.2180  212.0120  157.2600 C   0  0  0  0  0  2  0  0  0  0  0  0
  159.3670  213.2760  153.8220 N   0  0  0  0  0  0  0  0  0  0  0  0
  158.0030  212.5080  151.8900 C   0  0  0  0  0  2  0  0  0  0  0  0
  157.1310  214.1400  153.1690 C   0  0  0  0  0  2  0  0  0  0  0  0
  157.3380  213.7430  151.8380 O   0  0  0  0  0  0  0  0  0  0  0  0
  158.4770  214.4530  153.8340 C   0  0  0  0  0  2  0  0  0  0  0  0
  159.4110  212.7020  152.4630 C   0  0  0  0  0  2  0  0  0  0  0  0
  162.1110  209.2740  148.5350 S   0  0  0  0  0  0  0  0  0  0  0  0
  161.6560  210.2870  149.9810 C   0  0  1  0  0  3  0  0  0  0  0  0
  162.5900  209.9950  151.1430 C   0  0  0  0  0  1  0  0  0  0  0  0
  161.6190  211.7780  149.6370 C   0  0  0  0  0  2  0  0  0  0  0  0
  161.8930  212.0610  148.1600 C   0  0  2  0  0  3  0  0  0  0  0  0
  163.1870  212.5620  147.9890 O   0  0  0  0  0  1  0  0  0  0  0  0
  160.9460  214.4140  148.2200 C   0  0  0  0  0  1  0  0  0  0  0  0
  160.9930  213.1350  146.0930 C   0  0  0  0  0  1  0  0  0  0  0  0
  160.8520  213.0280  147.5980 C   0  0  0  0  0  3  0  0  0  0  0  0
  1  5  1  0  0  0  0
  2 13  1  0  0  0  0
  2 11  1  0  0  0  0
  3 16  1  0  0  0  0
  4  7  1  0  0  0  0
  5  9  2  0  0  0  0
  6  1  1  0  0  0  0
  7 11  2  0  0  0  0
  7  9  1  0  0  0  0
  8  4  1  0  0  0  0
  8  1  2  0  0  0  0
 10  3  2  0  0  0  0
 11 10  1  0  0  0  0
 12  2  2  0  0  0  0
 13 14  2  0  0  0  0
 14  3  1  0  0  0  0
 15 12  1  0  0  0  0
 15  4  2  0  0  0  0
 16 17  1  0  0  0  0
 17 19  1  0  0  0  0
 19 20  1  0  0  0  0
 19 21  1  0  0  0  0
 19 18  1  0  0  0  0
 22 21  1  6  0  0  0
 22 25  1  0  0  0  0
 23 28  1  0  0  0  0
 24 29  1  6  0  0  0
 24 26  1  0  0  0  0
 24 23  1  0  0  0  0
 25 28  1  0  0  0  0
 26 27  1  1  0  0  0
 26 22  1  0  0  0  0
 29 33  1  0  0  0  0
 30 34  1  0  0  0  0
 31 33  1  0  0  0  0
 32 30  1  0  0  0  0
 32 31  1  0  0  0  0
 34 29  1  0  0  0  0
 35 13  1  0  0  0  0
 35 36  1  0  0  0  0
 36 37  1  1  0  0  0
 38 36  1  0  0  0  0
 39 40  1  1  0  0  0
 39 38  1  0  0  0  0
 42 43  1  0  0  0  0
 43 39  1  0  0  0  0
 43 41  1  0  0  0  0
M  END
>  <MODEL>
5

>  <REMARK>
 VINA RESULT:      -7.6      3.528      7.893
  Name = 
  11 active torsions:
  status: ('A' for Active; 'I' for Inactive)
    1  A    between atoms: C_1  and  C_9
    2  A    between atoms: C_1  and  S_35
    3  A    between atoms: C_2  and  C_6
    4  A    between atoms: C_2  and  C_13
    5  A    between atoms: C_3  and  C_4
    6  A    between atoms: C_3  and  C_12
    7  A    between atoms: C_6  and  C_12
    8  A    between atoms: C_9  and  C_32
    9  A    between atoms: N_11  and  C_14
   10  A    between atoms: C_32  and  C_37
   11  A    between atoms: C_34  and  S_35
                            x       y       z     vdW  Elec       q    Type
                         _______ _______ _______ _____ _____    ______ ____

>  <TORSDO>
F 11

$$$$
=
 OpenBabel11062410153D

 43 47  0  0  1  0  0  0  0  0999 V2000
  161.5620  204.2650  146.8410 C   0  0  0  0  0  0  0  0  0  0  0  0
  161.2620  207.1180  151.0100 C   0  0  0  0  0  0  0  0  0  0  0  0
  161.8780  209.7030  150.1820 C   0  0  0  0  0  0  0  0  0  0  0  0
  161.2520  205.0440  149.1140 C   0  0  0  0  0  0  0  0  0  0  0  0
  161.8910  205.5610  146.4360 C   0  0  0  0  0  3  0  0  0  0  0  0
  161.5520  203.2320  145.9140 O   0  0  0  0  0  1  0  0  0  0  0  0
  161.5830  206.3600  148.7100 C   0  0  0  0  0  0  0  0  0  0  0  0
  161.2430  204.0060  148.1770 C   0  0  0  0  0  3  0  0  0  0  0  0
  161.9020  206.6060  147.3640 C   0  0  0  0  0  3  0  0  0  0  0  0
  161.8820  208.6770  149.2890 N   0  0  0  0  0  0  0  0  0  0  0  0
  161.5830  207.4000  149.6590 C   0  0  0  0  0  0  0  0  0  0  0  0
  160.9380  205.8080  151.3880 C   0  0  0  0  0  3  0  0  0  0  0  0
  161.2700  208.1680  151.9450 C   0  0  0  0  0  0  0  0  0  0  0  0
  161.5780  209.4630  151.5230 C   0  0  0  0  0  3  0  0  0  0  0  0
  160.9330  204.7780  150.4460 C   0  0  0  0  0  3  0  0  0  0  0  0
  162.2170  211.0790  149.7350 C   0  0  0  0  0  2  0  0  0  0  0  0
  162.0570  211.1940  148.2220 C   0  0  0  0  0  2  0  0  0  0  0  0
  160.4640  213.0080  148.8620 C   0  0  0  0  0  1  0  0  0  0  0  0
  161.4210  212.5140  147.7850 C   0  0  0  0  0  0  0  0  0  0  0  0
  162.5090  213.5550  147.5500 C   0  0  0  0  0  1  0  0  0  0  0  0
  160.6530  212.2440  146.4870 C   0  0  0  0  0  2  0  0  0  0  0  0
  160.5810  213.4400  145.5420 C   0  0  2  0  0  3  0  0  0  0  0  0
  159.7510  213.7140  142.6450 C   0  0  0  0  0  2  0  0  0  0  0  0
  160.8450  212.7250  143.1090 C   0  0  2  0  0  3  0  0  0  0  0  0
  159.1270  213.6410  145.0980 C   0  0  0  0  0  2  0  0  0  0  0  0
  161.5550  213.2550  144.3670 C   0  0  1  0  0  3  0  0  0  0  0  0
  162.1950  214.4520  144.0960 F   0  0  0  0  0  0  0  0  0  0  0  0
  159.0560  214.4450  143.8000 C   0  0  0  0  0  2  0  0  0  0  0  0
  161.7990  212.4270  142.0260 N   0  0  0  0  0  0  0  0  0  0  0  0
  160.2570  211.0950  140.6010 C   0  0  0  0  0  2  0  0  0  0  0  0
  160.4290  213.2910  140.1420 C   0  0  0  0  0  2  0  0  0  0  0  0
  160.3920  212.0180  139.5510 O   0  0  0  0  0  0  0  0  0  0  0  0
  161.7150  213.4470  140.9630 C   0  0  0  0  0  2  0  0  0  0  0  0
  161.5290  211.0930  141.4560 C   0  0  0  0  0  2  0  0  0  0  0  0
  160.8780  207.9070  153.6770 S   0  0  0  0  0  0  0  0  0  0  0  0
  160.7870  209.6950  154.0230 C   0  0  1  0  0  3  0  0  0  0  0  0
  162.1280  210.3530  153.7510 C   0  0  0  0  0  1  0  0  0  0  0  0
  159.6520  210.3630  153.2440 C   0  0  0  0  0  2  0  0  0  0  0  0
  158.9530  211.4720  154.0310 C   0  0  2  0  0  3  0  0  0  0  0  0
  157.7850  210.9880  154.6280 O   0  0  0  0  0  1  0  0  0  0  0  0
  158.5110  213.9660  153.9010 C   0  0  0  0  0  1  0  0  0  0  0  0
  159.7360  212.8140  152.0760 C   0  0  0  0  0  1  0  0  0  0  0  0
  158.6530  212.6650  153.1250 C   0  0  0  0  0  3  0  0  0  0  0  0
  1  8  1  0  0  0  0
  2 12  1  0  0  0  0
  2 13  1  0  0  0  0
  3 14  1  0  0  0  0
  4 15  1  0  0  0  0
  5  1  2  0  0  0  0
  5  9  1  0  0  0  0
  6  1  1  0  0  0  0
  7  4  1  0  0  0  0
  7 11  1  0  0  0  0
  8  4  2  0  0  0  0
  9  7  2  0  0  0  0
 10 11  1  0  0  0  0
 10  3  2  0  0  0  0
 11  2  2  0  0  0  0
 13 35  1  0  0  0  0
 14 13  2  0  0  0  0
 15 12  2  0  0  0  0
 16  3  1  0  0  0  0
 17 16  1  0  0  0  0
 19 17  1  0  0  0  0
 19 18  1  0  0  0  0
 20 19  1  0  0  0  0
 21 19  1  0  0  0  0
 22 21  1  1  0  0  0
 23 24  1  0  0  0  0
 23 28  1  0  0  0  0
 24 29  1  6  0  0  0
 24 26  1  0  0  0  0
 25 22  1  0  0  0  0
 26 27  1  6  0  0  0
 26 22  1  0  0  0  0
 28 25  1  0  0  0  0
 30 34  1  0  0  0  0
 31 33  1  0  0  0  0
 32 31  1  0  0  0  0
 32 30  1  0  0  0  0
 33 29  1  0  0  0  0
 34 29  1  0  0  0  0
 35 36  1  0  0  0  0
 36 37  1  6  0  0  0
 38 36  1  0  0  0  0
 38 39  1  0  0  0  0
 39 40  1  6  0  0  0
 42 43  1  0  0  0  0
 43 41  1  0  0  0  0
 43 39  1  0  0  0  0
M  END
>  <MODEL>
6

>  <REMARK>
 VINA RESULT:      -7.5      1.499      2.191
  Name = 
  11 active torsions:
  status: ('A' for Active; 'I' for Inactive)
    1  A    between atoms: C_1  and  C_9
    2  A    between atoms: C_1  and  S_35
    3  A    between atoms: C_2  and  C_6
    4  A    between atoms: C_2  and  C_13
    5  A    between atoms: C_3  and  C_4
    6  A    between atoms: C_3  and  C_12
    7  A    between atoms: C_6  and  C_12
    8  A    between atoms: C_9  and  C_32
    9  A    between atoms: N_11  and  C_14
   10  A    between atoms: C_32  and  C_37
   11  A    between atoms: C_34  and  S_35
                            x       y       z     vdW  Elec       q    Type
                         _______ _______ _______ _____ _____    ______ ____

>  <TORSDO>
F 11

$$$$
=
 OpenBabel11062410153D

 43 47  0  0  1  0  0  0  0  0999 V2000
  157.3750  212.8650  155.0220 C   0  0  0  0  0  0  0  0  0  0  0  0
  159.0140  213.4610  150.2710 C   0  0  0  0  0  0  0  0  0  0  0  0
  161.1350  211.6820  149.9920 C   0  0  0  0  0  0  0  0  0  0  0  0
  157.6590  213.5940  152.7290 C   0  0  0  0  0  0  0  0  0  0  0  0
  158.4550  211.9880  154.8820 C   0  0  0  0  0  3  0  0  0  0  0  0
  156.6970  212.9390  156.2300 O   0  0  0  0  0  1  0  0  0  0  0  0
  158.7520  212.7070  152.5800 C   0  0  0  0  0  0  0  0  0  0  0  0
  156.9770  213.6660  153.9480 C   0  0  0  0  0  3  0  0  0  0  0  0
  159.1420  211.9080  153.6670 C   0  0  0  0  0  3  0  0  0  0  0  0
  160.4730  211.7790  151.1750 N   0  0  0  0  0  0  0  0  0  0  0  0
  159.4280  212.6370  151.3470 C   0  0  0  0  0  0  0  0  0  0  0  0
  157.9290  214.3320  150.4410 C   0  0  0  0  0  3  0  0  0  0  0  0
  159.7020  213.3800  149.0470 C   0  0  0  0  0  0  0  0  0  0  0  0
  160.7640  212.4830  148.9130 C   0  0  0  0  0  3  0  0  0  0  0  0
  157.2560  214.3980  151.6620 C   0  0  0  0  0  3  0  0  0  0  0  0
  162.2730  210.7350  149.8530 C   0  0  0  0  0  2  0  0  0  0  0  0
  161.7720  209.2970  149.9310 C   0  0  0  0  0  2  0  0  0  0  0  0
  162.8510  209.5250  152.1710 C   0  0  0  0  0  1  0  0  0  0  0  0
  161.8880  208.6960  151.3320 C   0  0  0  0  0  0  0  0  0  0  0  0
  160.5170  208.6750  151.9970 C   0  0  0  0  0  1  0  0  0  0  0  0
  162.4260  207.2700  151.1750 C   0  0  0  0  0  2  0  0  0  0  0  0
  161.3500  206.1880  151.2090 C   0  0  2  0  0  3  0  0  0  0  0  0
  161.1050  203.5000  149.8410 C   0  0  0  0  0  2  0  0  0  0  0  0
  161.3410  204.8140  149.0610 C   0  0  2  0  0  3  0  0  0  0  0  0
  161.9540  204.8980  151.7740 C   0  0  0  0  0  2  0  0  0  0  0  0
  160.7280  206.0080  149.8140 C   0  0  1  0  0  3  0  0  0  0  0  0
  159.3560  205.8570  149.9300 F   0  0  0  0  0  0  0  0  0  0  0  0
  161.1280  203.6800  151.3640 C   0  0  0  0  0  2  0  0  0  0  0  0
  160.8360  204.7210  147.6800 N   0  0  0  0  0  0  0  0  0  0  0  0
  162.0260  206.7060  146.7710 C   0  0  0  0  0  2  0  0  0  0  0  0
  163.0390  204.7110  146.5310 C   0  0  0  0  0  2  0  0  0  0  0  0
  162.7200  205.9000  145.8540 O   0  0  0  0  0  0  0  0  0  0  0  0
  161.7570  203.9290  146.8420 C   0  0  0  0  0  2  0  0  0  0  0  0
  160.6720  206.0680  147.1000 C   0  0  0  0  0  2  0  0  0  0  0  0
  159.2500  214.3850  147.6300 S   0  0  0  0  0  0  0  0  0  0  0  0
  160.0530  213.2500  146.4510 C   0  0  1  0  0  3  0  0  0  0  0  0
  159.0120  212.5750  145.5760 C   0  0  0  0  0  1  0  0  0  0  0  0
  161.1230  213.9630  145.6210 C   0  0  0  0  0  2  0  0  0  0  0  0
  161.6950  213.0940  144.5000 C   0  0  2  0  0  3  0  0  0  0  0  0
  163.0850  213.0050  144.6090 O   0  0  0  0  0  1  0  0  0  0  0  0
  162.4370  214.3180  142.4060 C   0  0  0  0  0  1  0  0  0  0  0  0
  160.7180  212.5330  142.2710 C   0  0  0  0  0  1  0  0  0  0  0  0
  161.2840  213.6430  143.1350 C   0  0  0  0  0  3  0  0  0  0  0  0
  1  6  1  0  0  0  0
  2 12  1  0  0  0  0
  2 11  1  0  0  0  0
  3 10  1  0  0  0  0
  4  8  1  0  0  0  0
  5  1  1  0  0  0  0
  7  4  2  0  0  0  0
  7  9  1  0  0  0  0
  8  1  2  0  0  0  0
  9  5  2  0  0  0  0
 10 11  2  0  0  0  0
 11  7  1  0  0  0  0
 12 15  2  0  0  0  0
 13  2  2  0  0  0  0
 14 13  1  0  0  0  0
 14  3  2  0  0  0  0
 15  4  1  0  0  0  0
 16 17  1  0  0  0  0
 16  3  1  0  0  0  0
 17 19  1  0  0  0  0
 19 20  1  0  0  0  0
 19 18  1  0  0  0  0
 21 19  1  0  0  0  0
 22 21  1  6  0  0  0
 22 25  1  0  0  0  0
 23 28  1  0  0  0  0
 24 29  1  6  0  0  0
 24 26  1  0  0  0  0
 24 23  1  0  0  0  0
 26 27  1  1  0  0  0
 26 22  1  0  0  0  0
 28 25  1  0  0  0  0
 30 34  1  0  0  0  0
 31 33  1  0  0  0  0
 32 31  1  0  0  0  0
 32 30  1  0  0  0  0
 33 29  1  0  0  0  0
 34 29  1  0  0  0  0
 35 13  1  0  0  0  0
 36 37  1  6  0  0  0
 36 35  1  0  0  0  0
 38 36  1  0  0  0  0
 39 40  1  6  0  0  0
 39 38  1  0  0  0  0
 41 43  1  0  0  0  0
 42 43  1  0  0  0  0
 43 39  1  0  0  0  0
M  END
>  <MODEL>
7

>  <REMARK>
 VINA RESULT:      -7.1      3.287      9.789
  Name = 
  11 active torsions:
  status: ('A' for Active; 'I' for Inactive)
    1  A    between atoms: C_1  and  C_9
    2  A    between atoms: C_1  and  S_35
    3  A    between atoms: C_2  and  C_6
    4  A    between atoms: C_2  and  C_13
    5  A    between atoms: C_3  and  C_4
    6  A    between atoms: C_3  and  C_12
    7  A    between atoms: C_6  and  C_12
    8  A    between atoms: C_9  and  C_32
    9  A    between atoms: N_11  and  C_14
   10  A    between atoms: C_32  and  C_37
   11  A    between atoms: C_34  and  S_35
                            x       y       z     vdW  Elec       q    Type
                         _______ _______ _______ _____ _____    ______ ____

>  <TORSDO>
F 11

$$$$
=
 OpenBabel11062410153D

 43 47  0  0  1  0  0  0  0  0999 V2000
  161.9800  211.3500  148.7260 C   0  0  0  0  0  0  0  0  0  0  0  0
  160.8650  209.6250  153.3510 C   0  0  0  0  0  0  0  0  0  0  0  0
  161.2810  206.8760  153.2350 C   0  0  0  0  0  0  0  0  0  0  0  0
  161.3320  211.1740  151.0540 C   0  0  0  0  0  0  0  0  0  0  0  0
  162.1670  209.9660  148.6680 C   0  0  0  0  0  3  0  0  0  0  0  0
  162.2090  212.1270  147.5990 O   0  0  0  0  0  1  0  0  0  0  0  0
  161.5220  209.7720  151.0030 C   0  0  0  0  0  0  0  0  0  0  0  0
  161.5640  211.9540  149.9160 C   0  0  0  0  0  3  0  0  0  0  0  0
  161.9400  209.1790  149.8010 C   0  0  0  0  0  3  0  0  0  0  0  0
  161.4840  207.6470  152.1340 N   0  0  0  0  0  0  0  0  0  0  0  0
  161.2920  208.9970  152.1550 C   0  0  0  0  0  0  0  0  0  0  0  0
  160.6830  211.0140  153.3790 C   0  0  0  0  0  3  0  0  0  0  0  0
  160.6380  208.8350  154.4920 C   0  0  0  0  0  0  0  0  0  0  0  0
  160.8510  207.4560  154.4270 C   0  0  0  0  0  3  0  0  0  0  0  0
  160.9160  211.7840  152.2380 C   0  0  0  0  0  3  0  0  0  0  0  0
  161.4970  205.4070  153.1630 C   0  0  0  0  0  2  0  0  0  0  0  0
  161.8710  205.0000  151.7410 C   0  0  0  0  0  2  0  0  0  0  0  0
  162.3320  202.5910  151.2700 C   0  0  0  0  0  1  0  0  0  0  0  0
  161.2540  203.6660  151.3170 C   0  0  0  0  0  0  0  0  0  0  0  0
  160.1710  203.2630  152.3100 C   0  0  0  0  0  1  0  0  0  0  0  0
  160.6520  203.8640  149.9220 C   0  0  0  0  0  2  0  0  0  0  0  0
  161.3590  204.9220  149.0800 C   0  0  2  0  0  3  0  0  0  0  0  0
  160.7970  206.0660  146.3360 C   0  0  0  0  0  2  0  0  0  0  0  0
  160.9620  204.5500  146.5890 C   0  0  2  0  0  3  0  0  0  0  0  0
  160.3990  206.0920  148.8360 C   0  0  0  0  0  2  0  0  0  0  0  0
  161.9010  204.3000  147.7820 C   0  0  1  0  0  3  0  0  0  0  0  0
  163.1660  204.7970  147.5170 F   0  0  0  0  0  0  0  0  0  0  0  0
  160.8280  206.9080  147.6170 C   0  0  0  0  0  2  0  0  0  0  0  0
  161.4170  203.8470  145.3770 N   0  0  0  0  0  0  0  0  0  0  0  0
  160.2180  201.7070  145.7820 C   0  0  0  0  0  2  0  0  0  0  0  0
  159.1760  203.2330  144.4980 C   0  0  0  0  0  2  0  0  0  0  0  0
  159.4840  201.8660  144.5950 O   0  0  0  0  0  0  0  0  0  0  0  0
  160.4600  204.0410  144.2710 C   0  0  0  0  0  2  0  0  0  0  0  0
  161.5760  202.4050  145.6480 C   0  0  0  0  0  2  0  0  0  0  0  0
  160.0950  209.5410  156.0500 S   0  0  0  0  0  0  0  0  0  0  0  0
  158.7990  210.5450  155.2520 C   0  0  1  0  0  3  0  0  0  0  0  0
  157.5430  209.7170  155.0480 C   0  0  0  0  0  1  0  0  0  0  0  0
  158.5170  211.8290  156.0350 C   0  0  0  0  0  2  0  0  0  0  0  0
  158.3810  213.0620  155.1410 C   0  0  2  0  0  3  0  0  0  0  0  0
  158.1060  214.1970  155.9080 O   0  0  0  0  0  1  0  0  0  0  0  0
  155.9380  213.3530  154.5230 C   0  0  0  0  0  1  0  0  0  0  0  0
  157.6970  213.5030  152.7790 C   0  0  0  0  0  1  0  0  0  0  0  0
  157.3010  212.8390  154.0830 C   0  0  0  0  0  3  0  0  0  0  0  0
  1  8  1  0  0  0  0
  2 12  1  0  0  0  0
  2 13  1  0  0  0  0
  3 14  1  0  0  0  0
  4 15  1  0  0  0  0
  5  1  2  0  0  0  0
  5  9  1  0  0  0  0
  6  1  1  0  0  0  0
  7  4  1  0  0  0  0
  7 11  1  0  0  0  0
  8  4  2  0  0  0  0
  9  7  2  0  0  0  0
 10 11  1  0  0  0  0
 10  3  2  0  0  0  0
 11  2  2  0  0  0  0
 13 35  1  0  0  0  0
 14 13  2  0  0  0  0
 15 12  2  0  0  0  0
 16  3  1  0  0  0  0
 17 16  1  0  0  0  0
 18 19  1  0  0  0  0
 19 17  1  0  0  0  0
 19 20  1  0  0  0  0
 21 19  1  0  0  0  0
 22 21  1  6  0  0  0
 23 24  1  0  0  0  0
 23 28  1  0  0  0  0
 24 29  1  6  0  0  0
 24 26  1  0  0  0  0
 25 22  1  0  0  0  0
 26 27  1  6  0  0  0
 26 22  1  0  0  0  0
 28 25  1  0  0  0  0
 29 34  1  0  0  0  0
 31 32  1  0  0  0  0
 32 30  1  0  0  0  0
 33 31  1  0  0  0  0
 33 29  1  0  0  0  0
 34 30  1  0  0  0  0
 36 37  1  1  0  0  0
 36 38  1  0  0  0  0
 36 35  1  0  0  0  0
 39 40  1  1  0  0  0
 39 38  1  0  0  0  0
 42 43  1  0  0  0  0
 43 41  1  0  0  0  0
 43 39  1  0  0  0  0
M  END
>  <MODEL>
8

>  <REMARK>
 VINA RESULT:      -6.8      4.067      7.642
  Name = 
  11 active torsions:
  status: ('A' for Active; 'I' for Inactive)
    1  A    between atoms: C_1  and  C_9
    2  A    between atoms: C_1  and  S_35
    3  A    between atoms: C_2  and  C_6
    4  A    between atoms: C_2  and  C_13
    5  A    between atoms: C_3  and  C_4
    6  A    between atoms: C_3  and  C_12
    7  A    between atoms: C_6  and  C_12
    8  A    between atoms: C_9  and  C_32
    9  A    between atoms: N_11  and  C_14
   10  A    between atoms: C_32  and  C_37
   11  A    between atoms: C_34  and  S_35
                            x       y       z     vdW  Elec       q    Type
                         _______ _______ _______ _____ _____    ______ ____

>  <TORSDO>
F 11

$$$$
=
 OpenBabel11062410153D

 43 47  0  0  1  0  0  0  0  0999 V2000
  162.3220  211.4370  148.7530 C   0  0  0  0  0  0  0  0  0  0  0  0
  160.9520  206.8090  150.2740 C   0  0  0  0  0  0  0  0  0  0  0  0
  161.0990  206.8700  153.0520 C   0  0  0  0  0  0  0  0  0  0  0  0
  161.5970  209.1260  148.8220 C   0  0  0  0  0  0  0  0  0  0  0  0
  162.4150  211.4550  150.1480 C   0  0  0  0  0  3  0  0  0  0  0  0
  162.6370  212.5750  148.0240 O   0  0  0  0  0  1  0  0  0  0  0  0
  161.6860  209.1380  150.2350 C   0  0  0  0  0  0  0  0  0  0  0  0
  161.9140  210.2750  148.0910 C   0  0  0  0  0  3  0  0  0  0  0  0
  162.0980  210.3120  150.8870 C   0  0  0  0  0  3  0  0  0  0  0  0
  161.4210  207.9720  152.3240 N   0  0  0  0  0  0  0  0  0  0  0  0
  161.3580  207.9790  150.9630 C   0  0  0  0  0  0  0  0  0  0  0  0
  160.8700  206.8190  148.8750 C   0  0  0  0  0  3  0  0  0  0  0  0
  160.6300  205.6580  151.0170 C   0  0  0  0  0  0  0  0  0  0  0  0
  160.7040  205.6970  152.4110 C   0  0  0  0  0  3  0  0  0  0  0  0
  161.1910  207.9700  148.1540 C   0  0  0  0  0  3  0  0  0  0  0  0
  161.1890  206.9070  154.5360 C   0  0  0  0  0  2  0  0  0  0  0  0
  161.2530  208.3520  155.0220 C   0  0  0  0  0  2  0  0  0  0  0  0
  160.4450  207.1830  157.0760 C   0  0  0  0  0  1  0  0  0  0  0  0
  160.9910  208.4920  156.5220 C   0  0  0  0  0  0  0  0  0  0  0  0
  162.2870  208.8520  157.2380 C   0  0  0  0  0  1  0  0  0  0  0  0
  159.9550  209.6080  156.7020 C   0  0  0  0  0  2  0  0  0  0  0  0
  159.9340  210.6290  155.5690 C   0  0  2  0  0  3  0  0  0  0  0  0
  158.4940  213.2680  155.2190 C   0  0  0  0  0  2  0  0  0  0  0  0
  157.7530  211.9510  155.5450 C   0  0  2  0  0  3  0  0  0  0  0  0
  160.4830  211.9640  156.0880 C   0  0  0  0  0  2  0  0  0  0  0  0
  158.5200  210.7430  154.9760 C   0  0  1  0  0  3  0  0  0  0  0  0
  158.5960  210.8230  153.5960 F   0  0  0  0  0  0  0  0  0  0  0  0
  160.0210  213.1260  155.2090 C   0  0  0  0  0  2  0  0  0  0  0  0
  156.3570  211.9850  155.0740 N   0  0  0  0  0  0  0  0  0  0  0  0
  155.4050  210.4580  156.7900 C   0  0  0  0  0  2  0  0  0  0  0  0
  155.3080  212.6640  157.2210 C   0  0  0  0  0  2  0  0  0  0  0  0
  154.5610  211.4760  157.2610 O   0  0  0  0  0  0  0  0  0  0  0  0
  155.6000  213.0460  155.7640 C   0  0  0  0  0  2  0  0  0  0  0  0
  155.7060  210.6810  155.3040 C   0  0  0  0  0  2  0  0  0  0  0  0
  160.1070  204.1310  150.2320 S   0  0  0  0  0  0  0  0  0  0  0  0
  161.8120  203.5000  150.1080 C   0  0  1  0  0  3  0  0  0  0  0  0
  162.1200  202.5800  151.2760 C   0  0  0  0  0  1  0  0  0  0  0  0
  162.0650  202.8190  148.7610 C   0  0  0  0  0  2  0  0  0  0  0  0
  160.8640  202.8870  147.8170 C   0  0  2  0  0  3  0  0  0  0  0  0
  160.5250  201.6100  147.3620 O   0  0  0  0  0  1  0  0  0  0  0  0
  162.4890  204.5450  146.7930 C   0  0  0  0  0  1  0  0  0  0  0  0
  161.1270  203.0630  145.3390 C   0  0  0  0  0  1  0  0  0  0  0  0
  161.1540  203.8270  146.6480 C   0  0  0  0  0  3  0  0  0  0  0  0
  1  5  1  0  0  0  0
  2 11  1  0  0  0  0
  2 13  1  0  0  0  0
  3 16  1  0  0  0  0
  4  7  1  0  0  0  0
  5  9  2  0  0  0  0
  6  1  1  0  0  0  0
  7  9  1  0  0  0  0
  7 11  2  0  0  0  0
  8  1  2  0  0  0  0
  8  4  1  0  0  0  0
 10  3  2  0  0  0  0
 11 10  1  0  0  0  0
 12  2  2  0  0  0  0
 13 14  2  0  0  0  0
 14  3  1  0  0  0  0
 15  4  2  0  0  0  0
 15 12  1  0  0  0  0
 16 17  1  0  0  0  0
 17 19  1  0  0  0  0
 19 21  1  0  0  0  0
 19 18  1  0  0  0  0
 19 20  1  0  0  0  0
 22 25  1  0  0  0  0
 22 21  1  1  0  0  0
 23 24  1  0  0  0  0
 24 29  1  6  0  0  0
 26 27  1  6  0  0  0
 26 24  1  0  0  0  0
 26 22  1  0  0  0  0
 28 23  1  0  0  0  0
 28 25  1  0  0  0  0
 29 34  1  0  0  0  0
 29 33  1  0  0  0  0
 30 32  1  0  0  0  0
 31 32  1  0  0  0  0
 33 31  1  0  0  0  0
 34 30  1  0  0  0  0
 35 13  1  0  0  0  0
 36 35  1  0  0  0  0
 36 37  1  1  0  0  0
 38 36  1  0  0  0  0
 39 40  1  6  0  0  0
 39 38  1  0  0  0  0
 42 43  1  0  0  0  0
 43 41  1  0  0  0  0
 43 39  1  0  0  0  0
M  END
>  <MODEL>
9

>  <REMARK>
 VINA RESULT:      -6.6      4.152      9.839
  Name = 
  11 active torsions:
  status: ('A' for Active; 'I' for Inactive)
    1  A    between atoms: C_1  and  C_9
    2  A    between atoms: C_1  and  S_35
    3  A    between atoms: C_2  and  C_6
    4  A    between atoms: C_2  and  C_13
    5  A    between atoms: C_3  and  C_4
    6  A    between atoms: C_3  and  C_12
    7  A    between atoms: C_6  and  C_12
    8  A    between atoms: C_9  and  C_32
    9  A    between atoms: N_11  and  C_14
   10  A    between atoms: C_32  and  C_37
   11  A    between atoms: C_34  and  S_35
                            x       y       z     vdW  Elec       q    Type
                         _______ _______ _______ _____ _____    ______ ____

>  <TORSDO>
F 11

$$$$
