=
 OpenBabel11062409353D

 34 37  0  0  1  0  0  0  0  0999 V2000
  160.1870  211.1820  155.3680 C   0  0  1  0  0  0  0  0  0  0  0  0
  159.1470  211.9970  151.5510 C   0  0  0  0  0  2  0  0  0  0  0  0
  158.3110  212.0540  152.8220 C   0  0  0  0  0  2  0  0  0  0  0  0
  159.6310  209.8890  155.4520 O   0  0  0  0  0  0  0  0  0  0  0  0
  161.5540  211.1600  155.6530 O   0  0  0  0  0  1  0  0  0  0  0  0
  160.6320  211.9140  151.8710 C   0  0  0  0  0  2  0  0  0  0  0  0
  161.0700  210.4530  151.9510 C   0  0  2  0  0  3  0  0  0  0  0  0
  158.3320  210.7360  153.5870 C   0  0  0  0  0  2  0  0  0  0  0  0
  160.7750  209.7460  153.2910 C   0  0  1  0  0  3  0  0  0  0  0  0
  159.7190  210.4500  154.1600 C   0  0  1  0  0  0  0  0  0  0  0  0
  159.8830  213.4820  156.3610 C   0  0  0  0  0  3  0  0  0  0  0  0
  157.7430  214.1730  157.2600 C   0  0  0  0  0  3  0  0  0  0  0  0
  159.0820  214.4530  156.9690 C   0  0  0  0  0  3  0  0  0  0  0  0
  158.0060  211.9520  156.3310 C   0  0  0  0  0  3  0  0  0  0  0  0
  159.3500  212.2220  156.0500 C   0  0  0  0  0  0  0  0  0  0  0  0
  157.2050  212.9240  156.9400 C   0  0  0  0  0  3  0  0  0  0  0  0
  161.5520  207.4800  152.7200 C   0  0  1  0  0  3  0  0  0  0  0  0
  160.3690  208.2960  153.0230 C   0  0  1  0  0  3  0  0  0  0  0  0
  160.8990  207.2110  154.4230 S   0  0  0  0  0  0  0  0  0  0  0  0
  161.2210  206.3420  151.7370 C   0  0  2  0  0  3  0  0  0  0  0  0
  161.8320  204.9680  152.0450 C   0  0  0  0  0  2  0  0  0  0  0  0
  160.7570  203.8990  152.1590 C   0  0  0  0  0  2  0  0  0  0  0  0
  161.1530  202.6670  151.3680 C   0  0  0  0  0  1  0  0  0  0  0  0
  161.4740  206.7710  150.2930 C   0  0  0  0  0  2  0  0  0  0  0  0
  160.5750  206.0310  149.3120 C   0  0  0  0  0  2  0  0  0  0  0  0
  161.4110  205.2750  148.2920 C   0  0  1  0  0  3  0  0  0  0  0  0
  160.8150  203.8930  148.0760 C   0  0  0  0  0  1  0  0  0  0  0  0
  161.5170  206.0600  146.9820 C   0  0  1  0  0  3  0  0  0  0  0  0
  162.6430  205.5280  146.1170 C   0  0  0  0  0  1  0  0  0  0  0  0
  160.3150  206.0250  146.2730 O   0  0  0  0  0  1  0  0  0  0  0  0
  162.5560  210.3510  151.6440 C   0  0  0  0  0  2  0  0  0  0  0  0
  162.7870  209.8620  150.2230 C   0  0  0  0  0  2  0  0  0  0  0  0
  161.7040  210.3920  149.3030 C   0  0  0  0  0  2  0  0  0  0  0  0
  162.2290  211.5910  148.5420 C   0  0  0  0  0  1  0  0  0  0  0  0
  1  4  1  0  0  0  0
  1  5  1  1  0  0  0
  1 15  1  0  0  0  0
  2  6  1  0  0  0  0
  2  3  1  0  0  0  0
  3  8  1  0  0  0  0
  6  7  1  0  0  0  0
  7 31  1  1  0  0  0
  7  9  1  0  0  0  0
  9 18  1  6  0  0  0
  9 10  1  0  0  0  0
 10  8  1  6  0  0  0
 10  1  1  0  0  0  0
 10  4  1  0  0  0  0
 11 13  1  0  0  0  0
 13 12  2  0  0  0  0
 14 16  2  0  0  0  0
 15 14  1  0  0  0  0
 15 11  2  0  0  0  0
 16 12  1  0  0  0  0
 17 20  1  6  0  0  0
 17 18  1  0  0  0  0
 17 19  1  0  0  0  0
 18 19  1  1  0  0  0
 20 24  1  6  0  0  0
 20 21  1  0  0  0  0
 21 22  1  0  0  0  0
 23 22  1  0  0  0  0
 25 24  1  0  0  0  0
 26 27  1  6  0  0  0
 26 25  1  0  0  0  0
 28 29  1  6  0  0  0
 28 26  1  0  0  0  0
 30 28  1  0  0  0  0
 32 31  1  0  0  0  0
 33 32  1  0  0  0  0
 34 33  1  0  0  0  0
M  END
>  <MODEL>
1

>  <REMARK>
 VINA RESULT:      -5.3      0.000      0.000
  Name = 
  12 active torsions:
  status: ('A' for Active; 'I' for Inactive)
    1  A    between atoms: C_1  and  C_20
    2  A    between atoms: C_3  and  C_13
    3  A    between atoms: C_4  and  C_16
    4  A    between atoms: C_6  and  C_28
    5  A    between atoms: C_7  and  C_11
    6  A    between atoms: C_7  and  C_29
    7  A    between atoms: C_13  and  C_27
    8  A    between atoms: C_16  and  C_28
    9  A    between atoms: C_18  and  C_33
   10  A    between atoms: C_25  and  C_27
   11  A    between atoms: C_26  and  C_28
   12  A    between atoms: C_26  and  C_29
                            x       y       z     vdW  Elec       q    Type
                         _______ _______ _______ _____ _____    ______ ____

>  <TORSDO>
F 12

$$$$
=
 OpenBabel11062409353D

 34 37  0  0  1  0  0  0  0  0999 V2000
  160.4480  211.0260  154.8180 C   0  0  1  0  0  0  0  0  0  0  0  0
  159.1410  212.3180  151.2200 C   0  0  0  0  0  2  0  0  0  0  0  0
  158.3800  212.1390  152.5270 C   0  0  0  0  0  2  0  0  0  0  0  0
  159.9690  209.7030  154.7370 O   0  0  0  0  0  0  0  0  0  0  0  0
  161.8290  211.0480  155.0260 O   0  0  0  0  0  1  0  0  0  0  0  0
  160.6450  212.2820  151.4490 C   0  0  0  0  0  2  0  0  0  0  0  0
  161.1650  210.8540  151.2900 C   0  0  2  0  0  3  0  0  0  0  0  0
  158.5170  210.7280  153.0860 C   0  0  0  0  0  2  0  0  0  0  0  0
  160.9890  209.9450  152.5240 C   0  0  1  0  0  3  0  0  0  0  0  0
  159.9500  210.4490  153.5400 C   0  0  1  0  0  0  0  0  0  0  0  0
  159.9130  213.2590  155.8660 C   0  0  0  0  0  3  0  0  0  0  0  0
  157.9530  213.5370  157.2600 C   0  0  0  0  0  3  0  0  0  0  0  0
  159.0950  214.0720  156.6550 C   0  0  0  0  0  3  0  0  0  0  0  0
  158.4470  211.3770  156.2840 C   0  0  0  0  0  3  0  0  0  0  0  0
  159.5980  211.9030  155.6870 C   0  0  0  0  0  0  0  0  0  0  0  0
  157.6280  212.1910  157.0730 C   0  0  0  0  0  3  0  0  0  0  0  0
  161.8720  207.7720  151.7730 C   0  0  1  0  0  3  0  0  0  0  0  0
  160.6470  208.5270  152.0650 C   0  0  1  0  0  3  0  0  0  0  0  0
  161.0940  207.3020  153.3760 S   0  0  0  0  0  0  0  0  0  0  0  0
  161.6520  206.7460  150.6460 C   0  0  2  0  0  3  0  0  0  0  0  0
  161.1790  207.2990  149.2940 C   0  0  0  0  0  2  0  0  0  0  0  0
  162.2930  207.2550  148.2600 C   0  0  0  0  0  2  0  0  0  0  0  0
  161.8850  206.3920  147.0820 C   0  0  0  0  0  1  0  0  0  0  0  0
  160.7860  205.5810  151.1240 C   0  0  0  0  0  2  0  0  0  0  0  0
  160.5960  204.5300  150.0380 C   0  0  0  0  0  2  0  0  0  0  0  0
  161.3710  203.2680  150.3790 C   0  0  1  0  0  3  0  0  0  0  0  0
  160.9930  202.8060  151.7770 C   0  0  0  0  0  1  0  0  0  0  0  0
  161.1250  202.1780  149.3330 C   0  0  1  0  0  3  0  0  0  0  0  0
  160.2210  201.0900  149.8820 C   0  0  0  0  0  1  0  0  0  0  0  0
  160.5740  202.7100  148.1660 O   0  0  0  0  0  1  0  0  0  0  0  0
  162.6340  210.8910  150.8960 C   0  0  0  0  0  2  0  0  0  0  0  0
  162.7930  211.1710  149.4100 C   0  0  0  0  0  2  0  0  0  0  0  0
  161.5180  210.8160  148.6700 C   0  0  0  0  0  2  0  0  0  0  0  0
  161.1810  211.9170  147.6870 C   0  0  0  0  0  1  0  0  0  0  0  0
  1  5  1  1  0  0  0
  1 15  1  0  0  0  0
  2  6  1  0  0  0  0
  2  3  1  0  0  0  0
  3  8  1  0  0  0  0
  4  1  1  0  0  0  0
  7 31  1  1  0  0  0
  7  6  1  0  0  0  0
  7  9  1  0  0  0  0
  9 18  1  6  0  0  0
  9 10  1  0  0  0  0
 10  8  1  6  0  0  0
 10  4  1  0  0  0  0
 10  1  1  0  0  0  0
 11 13  1  0  0  0  0
 13 12  2  0  0  0  0
 14 16  2  0  0  0  0
 15 11  2  0  0  0  0
 15 14  1  0  0  0  0
 16 12  1  0  0  0  0
 17 20  1  6  0  0  0
 17 18  1  0  0  0  0
 17 19  1  0  0  0  0
 18 19  1  1  0  0  0
 20 21  1  6  0  0  0
 20 24  1  0  0  0  0
 22 21  1  0  0  0  0
 23 22  1  0  0  0  0
 25 26  1  0  0  0  0
 25 24  1  0  0  0  0
 26 27  1  1  0  0  0
 28 29  1  1  0  0  0
 28 26  1  0  0  0  0
 30 28  1  0  0  0  0
 32 31  1  0  0  0  0
 33 32  1  0  0  0  0
 34 33  1  0  0  0  0
M  END
>  <MODEL>
2

>  <REMARK>
 VINA RESULT:      -4.9      1.214      2.402
  Name = 
  12 active torsions:
  status: ('A' for Active; 'I' for Inactive)
    1  A    between atoms: C_1  and  C_20
    2  A    between atoms: C_3  and  C_13
    3  A    between atoms: C_4  and  C_16
    4  A    between atoms: C_6  and  C_28
    5  A    between atoms: C_7  and  C_11
    6  A    between atoms: C_7  and  C_29
    7  A    between atoms: C_13  and  C_27
    8  A    between atoms: C_16  and  C_28
    9  A    between atoms: C_18  and  C_33
   10  A    between atoms: C_25  and  C_27
   11  A    between atoms: C_26  and  C_28
   12  A    between atoms: C_26  and  C_29
                            x       y       z     vdW  Elec       q    Type
                         _______ _______ _______ _____ _____    ______ ____

>  <TORSDO>
F 12

$$$$
=
 OpenBabel11062409353D

 34 37  0  0  1  0  0  0  0  0999 V2000
  162.5070  206.7260  148.2240 C   0  0  1  0  0  0  0  0  0  0  0  0
  160.0860  204.6770  150.7260 C   0  0  0  0  0  2  0  0  0  0  0  0
  159.9180  204.9890  149.2460 C   0  0  0  0  0  2  0  0  0  0  0  0
  161.8040  207.9480  148.2270 O   0  0  0  0  0  0  0  0  0  0  0  0
  163.8280  206.9060  148.6410 O   0  0  0  0  0  1  0  0  0  0  0  0
  161.5140  204.9320  151.1840 C   0  0  0  0  0  2  0  0  0  0  0  0
  161.6500  206.3620  151.7060 C   0  0  2  0  0  3  0  0  0  0  0  0
  160.0130  206.4830  148.9560 C   0  0  0  0  0  2  0  0  0  0  0  0
  161.8380  207.4460  150.6240 C   0  0  1  0  0  3  0  0  0  0  0  0
  161.4260  207.0060  149.2080 C   0  0  1  0  0  0  0  0  0  0  0  0
  162.9820  204.7310  146.7530 C   0  0  0  0  0  3  0  0  0  0  0  0
  161.7610  204.3930  144.6890 C   0  0  0  0  0  3  0  0  0  0  0  0
  162.7300  203.9730  145.6060 C   0  0  0  0  0  3  0  0  0  0  0  0
  161.2930  206.3260  146.0690 C   0  0  0  0  0  3  0  0  0  0  0  0
  162.2720  205.9190  146.9830 C   0  0  0  0  0  0  0  0  0  0  0  0
  161.0420  205.5680  144.9210 C   0  0  0  0  0  3  0  0  0  0  0  0
  161.8490  209.4640  152.0340 C   0  0  1  0  0  3  0  0  0  0  0  0
  161.0830  208.7110  151.0340 C   0  0  1  0  0  3  0  0  0  0  0  0
  161.9210  210.2100  150.3500 S   0  0  0  0  0  0  0  0  0  0  0  0
  160.9250  210.2150  153.0110 C   0  0  2  0  0  3  0  0  0  0  0  0
  160.3540  211.5550  152.5260 C   0  0  0  0  0  2  0  0  0  0  0  0
  158.8370  211.5030  152.4220 C   0  0  0  0  0  2  0  0  0  0  0  0
  158.2910  212.8580  152.0180 C   0  0  0  0  0  1  0  0  0  0  0  0
  161.5640  210.3320  154.3930 C   0  0  0  0  0  2  0  0  0  0  0  0
  160.8090  211.3030  155.2910 C   0  0  0  0  0  2  0  0  0  0  0  0
  159.6480  210.6010  155.9760 C   0  0  1  0  0  3  0  0  0  0  0  0
  160.1390  209.9520  157.2600 C   0  0  0  0  0  1  0  0  0  0  0  0
  158.4970  211.5750  156.2350 C   0  0  1  0  0  3  0  0  0  0  0  0
  158.8730  212.9860  155.8200 C   0  0  0  0  0  1  0  0  0  0  0  0
  157.3360  211.1770  155.5680 O   0  0  0  0  0  1  0  0  0  0  0  0
  162.8020  206.4340  152.6970 C   0  0  0  0  0  2  0  0  0  0  0  0
  162.2890  206.5890  154.1190 C   0  0  0  0  0  2  0  0  0  0  0  0
  160.7770  206.7240  154.1200 C   0  0  0  0  0  2  0  0  0  0  0  0
  160.2850  206.8830  155.5430 C   0  0  0  0  0  1  0  0  0  0  0  0
  1  4  1  0  0  0  0
  1  5  1  1  0  0  0
  1 10  1  0  0  0  0
  2  6  1  0  0  0  0
  3  2  1  0  0  0  0
  4 10  1  0  0  0  0
  6  7  1  0  0  0  0
  7 31  1  1  0  0  0
  8  3  1  0  0  0  0
  9 18  1  1  0  0  0
  9  7  1  0  0  0  0
 10  8  1  6  0  0  0
 10  9  1  0  0  0  0
 11 15  1  0  0  0  0
 12 16  2  0  0  0  0
 12 13  1  0  0  0  0
 13 11  2  0  0  0  0
 14 15  2  0  0  0  0
 15  1  1  0  0  0  0
 16 14  1  0  0  0  0
 17 20  1  1  0  0  0
 18 19  1  6  0  0  0
 18 17  1  0  0  0  0
 19 17  1  0  0  0  0
 20 21  1  6  0  0  0
 20 24  1  0  0  0  0
 22 21  1  0  0  0  0
 23 22  1  0  0  0  0
 24 25  1  0  0  0  0
 25 26  1  0  0  0  0
 26 28  1  0  0  0  0
 26 27  1  1  0  0  0
 28 29  1  6  0  0  0
 30 28  1  0  0  0  0
 31 32  1  0  0  0  0
 32 33  1  0  0  0  0
 33 34  1  0  0  0  0
M  END
>  <MODEL>
3

>  <REMARK>
 VINA RESULT:      -4.7      2.012      9.120
  Name = 
  12 active torsions:
  status: ('A' for Active; 'I' for Inactive)
    1  A    between atoms: C_1  and  C_20
    2  A    between atoms: C_3  and  C_13
    3  A    between atoms: C_4  and  C_16
    4  A    between atoms: C_6  and  C_28
    5  A    between atoms: C_7  and  C_11
    6  A    between atoms: C_7  and  C_29
    7  A    between atoms: C_13  and  C_27
    8  A    between atoms: C_16  and  C_28
    9  A    between atoms: C_18  and  C_33
   10  A    between atoms: C_25  and  C_27
   11  A    between atoms: C_26  and  C_28
   12  A    between atoms: C_26  and  C_29
                            x       y       z     vdW  Elec       q    Type
                         _______ _______ _______ _____ _____    ______ ____

>  <TORSDO>
F 12

$$$$
=
 OpenBabel11062409353D

 34 37  0  0  1  0  0  0  0  0999 V2000
  157.5040  211.6610  155.0290 C   0  0  1  0  0  0  0  0  0  0  0  0
  160.6760  213.1850  157.0130 C   0  0  0  0  0  2  0  0  0  0  0  0
  159.5010  213.8990  156.3590 C   0  0  0  0  0  2  0  0  0  0  0  0
  157.9590  211.9010  153.7170 O   0  0  0  0  0  0  0  0  0  0  0  0
  157.2360  210.3050  155.2270 O   0  0  0  0  0  1  0  0  0  0  0  0
  160.3980  211.6980  157.1710 C   0  0  0  0  0  2  0  0  0  0  0  0
  160.9120  210.9360  155.9500 C   0  0  2  0  0  3  0  0  0  0  0  0
  159.3360  213.5150  154.8920 C   0  0  0  0  0  2  0  0  0  0  0  0
  159.9780  210.9470  154.7220 C   0  0  1  0  0  3  0  0  0  0  0  0
  158.9110  212.0550  154.7470 C   0  0  1  0  0  0  0  0  0  0  0  0
  155.8460  213.5040  154.5590 C   0  0  0  0  0  3  0  0  0  0  0  0
  154.4900  214.4360  156.3350 C   0  0  0  0  0  3  0  0  0  0  0  0
  154.8620  214.3990  154.9870 C   0  0  0  0  0  3  0  0  0  0  0  0
  156.0840  212.6810  156.8240 C   0  0  0  0  0  3  0  0  0  0  0  0
  156.4700  212.6490  155.4790 C   0  0  0  0  0  0  0  0  0  0  0  0
  155.0990  213.5760  157.2530 C   0  0  0  0  0  3  0  0  0  0  0  0
  160.4300  209.9800  152.5030 C   0  0  1  0  0  3  0  0  0  0  0  0
  160.8160  211.0370  153.4460 C   0  0  1  0  0  3  0  0  0  0  0  0
  159.7800  211.6410  152.0390 S   0  0  0  0  0  0  0  0  0  0  0  0
  161.6250  209.5150  151.6500 C   0  0  2  0  0  3  0  0  0  0  0  0
  161.5750  209.8540  150.1540 C   0  0  0  0  0  2  0  0  0  0  0  0
  162.3410  211.1330  149.8520 C   0  0  0  0  0  2  0  0  0  0  0  0
  162.0090  211.6280  148.4580 C   0  0  0  0  0  1  0  0  0  0  0  0
  161.9340  208.0390  151.8930 C   0  0  0  0  0  2  0  0  0  0  0  0
  162.0780  207.2640  150.5890 C   0  0  0  0  0  2  0  0  0  0  0  0
  160.9840  206.2170  150.4690 C   0  0  1  0  0  3  0  0  0  0  0  0
  160.5010  206.1550  149.0290 C   0  0  0  0  0  1  0  0  0  0  0  0
  161.4760  204.8540  150.9630 C   0  0  1  0  0  3  0  0  0  0  0  0
  161.1160  204.6410  152.4220 C   0  0  0  0  0  1  0  0  0  0  0  0
  160.9560  203.8160  150.1880 O   0  0  0  0  0  1  0  0  0  0  0  0
  161.2160  209.4980  156.3400 C   0  0  0  0  0  2  0  0  0  0  0  0
  159.9550  208.7780  156.7920 C   0  0  0  0  0  2  0  0  0  0  0  0
  160.0930  207.2840  156.5630 C   0  0  0  0  0  2  0  0  0  0  0  0
  160.3160  207.0180  155.0890 C   0  0  0  0  0  1  0  0  0  0  0  0
  1  5  1  1  0  0  0
  1 15  1  0  0  0  0
  2  6  1  0  0  0  0
  3  2  1  0  0  0  0
  4 10  1  0  0  0  0
  4  1  1  0  0  0  0
  7 31  1  1  0  0  0
  7  6  1  0  0  0  0
  8  3  1  0  0  0  0
  9 18  1  6  0  0  0
  9 10  1  0  0  0  0
  9  7  1  0  0  0  0
 10  8  1  1  0  0  0
 10  1  1  0  0  0  0
 11 13  2  0  0  0  0
 11 15  1  0  0  0  0
 12 16  2  0  0  0  0
 13 12  1  0  0  0  0
 14 16  1  0  0  0  0
 15 14  2  0  0  0  0
 17 20  1  6  0  0  0
 17 18  1  0  0  0  0
 18 19  1  6  0  0  0
 19 17  1  0  0  0  0
 20 21  1  6  0  0  0
 20 24  1  0  0  0  0
 22 21  1  0  0  0  0
 23 22  1  0  0  0  0
 25 24  1  0  0  0  0
 26 27  1  6  0  0  0
 26 25  1  0  0  0  0
 26 28  1  0  0  0  0
 28 29  1  1  0  0  0
 30 28  1  0  0  0  0
 31 32  1  0  0  0  0
 33 32  1  0  0  0  0
 34 33  1  0  0  0  0
M  END
>  <MODEL>
4

>  <REMARK>
 VINA RESULT:      -4.7      2.144      4.736
  Name = 
  12 active torsions:
  status: ('A' for Active; 'I' for Inactive)
    1  A    between atoms: C_1  and  C_20
    2  A    between atoms: C_3  and  C_13
    3  A    between atoms: C_4  and  C_16
    4  A    between atoms: C_6  and  C_28
    5  A    between atoms: C_7  and  C_11
    6  A    between atoms: C_7  and  C_29
    7  A    between atoms: C_13  and  C_27
    8  A    between atoms: C_16  and  C_28
    9  A    between atoms: C_18  and  C_33
   10  A    between atoms: C_25  and  C_27
   11  A    between atoms: C_26  and  C_28
   12  A    between atoms: C_26  and  C_29
                            x       y       z     vdW  Elec       q    Type
                         _______ _______ _______ _____ _____    ______ ____

>  <TORSDO>
F 12

$$$$
=
 OpenBabel11062409353D

 34 37  0  0  1  0  0  0  0  0999 V2000
  159.4120  210.8730  154.1760 C   0  0  1  0  0  0  0  0  0  0  0  0
  162.0370  208.8080  156.4490 C   0  0  0  0  0  2  0  0  0  0  0  0
  161.8100  210.3090  156.3430 C   0  0  0  0  0  2  0  0  0  0  0  0
  160.3020  211.2670  153.1560 O   0  0  0  0  0  0  0  0  0  0  0  0
  158.3360  210.1530  153.6530 O   0  0  0  0  0  1  0  0  0  0  0  0
  160.8870  208.0310  155.8230 C   0  0  0  0  0  2  0  0  0  0  0  0
  161.1880  207.7420  154.3530 C   0  0  2  0  0  3  0  0  0  0  0  0
  161.9170  210.8110  154.9080 C   0  0  0  0  0  2  0  0  0  0  0  0
  160.8930  208.9000  153.3770 C   0  0  1  0  0  3  0  0  0  0  0  0
  160.7700  210.2790  154.0490 C   0  0  1  0  0  0  0  0  0  0  0  0
  159.3940  213.3120  154.8230 C   0  0  0  0  0  3  0  0  0  0  0  0
  158.4620  214.0280  156.9410 C   0  0  0  0  0  3  0  0  0  0  0  0
  159.0770  214.3340  155.7220 C   0  0  0  0  0  3  0  0  0  0  0  0
  158.4790  211.6780  156.3580 C   0  0  0  0  0  3  0  0  0  0  0  0
  159.1070  211.9770  155.1440 C   0  0  0  0  0  0  0  0  0  0  0  0
  158.1620  212.7010  157.2580 C   0  0  0  0  0  3  0  0  0  0  0  0
  161.3420  209.0860  150.9640 C   0  0  1  0  0  3  0  0  0  0  0  0
  161.9630  208.9290  152.2850 C   0  0  1  0  0  3  0  0  0  0  0  0
  162.1230  210.6340  151.5880 S   0  0  0  0  0  0  0  0  0  0  0  0
  162.1540  208.3740  149.8660 C   0  0  2  0  0  3  0  0  0  0  0  0
  162.6570  209.2470  148.7070 C   0  0  0  0  0  2  0  0  0  0  0  0
  161.6470  210.3280  148.3520 C   0  0  0  0  0  2  0  0  0  0  0  0
  162.3440  211.6640  148.1820 C   0  0  0  0  0  1  0  0  0  0  0  0
  161.4310  207.1240  149.3690 C   0  0  0  0  0  2  0  0  0  0  0  0
  162.0120  206.6120  148.0570 C   0  0  0  0  0  2  0  0  0  0  0  0
  161.0670  205.6130  147.4110 C   0  0  1  0  0  3  0  0  0  0  0  0
  160.6260  206.1410  146.0550 C   0  0  0  0  0  1  0  0  0  0  0  0
  161.7230  204.2340  147.2990 C   0  0  1  0  0  3  0  0  0  0  0  0
  161.1750  203.2840  148.3470 C   0  0  0  0  0  1  0  0  0  0  0  0
  161.5450  203.6910  146.0250 O   0  0  0  0  0  1  0  0  0  0  0  0
  160.4220  206.5050  153.9130 C   0  0  0  0  0  2  0  0  0  0  0  0
  161.3690  205.4260  153.4120 C   0  0  0  0  0  2  0  0  0  0  0  0
  160.9730  204.9880  152.0140 C   0  0  0  0  0  2  0  0  0  0  0  0
  160.7710  203.4880  151.9940 C   0  0  0  0  0  1  0  0  0  0  0  0
  1  5  1  6  0  0  0
  1 15  1  0  0  0  0
  3  2  1  0  0  0  0
  4 10  1  0  0  0  0
  4  1  1  0  0  0  0
  6  2  1  0  0  0  0
  7 31  1  6  0  0  0
  7  6  1  0  0  0  0
  8  3  1  0  0  0  0
  9 18  1  6  0  0  0
  9 10  1  0  0  0  0
  9  7  1  0  0  0  0
 10  1  1  0  0  0  0
 10  8  1  1  0  0  0
 11 15  2  0  0  0  0
 11 13  1  0  0  0  0
 12 16  1  0  0  0  0
 13 12  2  0  0  0  0
 14 16  2  0  0  0  0
 15 14  1  0  0  0  0
 17 20  1  6  0  0  0
 17 19  1  0  0  0  0
 17 18  1  0  0  0  0
 18 19  1  1  0  0  0
 20 21  1  6  0  0  0
 22 21  1  0  0  0  0
 23 22  1  0  0  0  0
 24 20  1  0  0  0  0
 25 24  1  0  0  0  0
 26 27  1  6  0  0  0
 26 25  1  0  0  0  0
 28 26  1  0  0  0  0
 28 29  1  1  0  0  0
 30 28  1  0  0  0  0
 32 31  1  0  0  0  0
 33 32  1  0  0  0  0
 34 33  1  0  0  0  0
M  END
>  <MODEL>
5

>  <REMARK>
 VINA RESULT:      -4.5      1.752      4.173
  Name = 
  12 active torsions:
  status: ('A' for Active; 'I' for Inactive)
    1  A    between atoms: C_1  and  C_20
    2  A    between atoms: C_3  and  C_13
    3  A    between atoms: C_4  and  C_16
    4  A    between atoms: C_6  and  C_28
    5  A    between atoms: C_7  and  C_11
    6  A    between atoms: C_7  and  C_29
    7  A    between atoms: C_13  and  C_27
    8  A    between atoms: C_16  and  C_28
    9  A    between atoms: C_18  and  C_33
   10  A    between atoms: C_25  and  C_27
   11  A    between atoms: C_26  and  C_28
   12  A    between atoms: C_26  and  C_29
                            x       y       z     vdW  Elec       q    Type
                         _______ _______ _______ _____ _____    ______ ____

>  <TORSDO>
F 12

$$$$
=
 OpenBabel11062409353D

 34 37  0  0  1  0  0  0  0  0999 V2000
  158.3160  210.7080  156.1940 C   0  0  1  0  0  0  0  0  0  0  0  0
  159.9650  212.6820  153.0790 C   0  0  0  0  0  2  0  0  0  0  0  0
  158.5010  212.5150  153.4620 C   0  0  0  0  0  2  0  0  0  0  0  0
  157.9290  209.5400  155.5040 O   0  0  0  0  0  0  0  0  0  0  0  0
  159.1640  210.4040  157.2610 O   0  0  0  0  0  1  0  0  0  0  0  0
  160.8830  212.2920  154.2280 C   0  0  0  0  0  2  0  0  0  0  0  0
  161.2610  210.8160  154.1190 C   0  0  2  0  0  3  0  0  0  0  0  0
  158.1070  211.0500  153.6140 C   0  0  0  0  0  2  0  0  0  0  0  0
  160.2120  209.8230  154.6630 C   0  0  1  0  0  3  0  0  0  0  0  0
  158.8000  210.4140  154.8180 C   0  0  1  0  0  0  0  0  0  0  0  0
  155.8590  211.1450  156.5750 C   0  0  0  0  0  3  0  0  0  0  0  0
  155.0520  213.3840  157.0220 C   0  0  0  0  0  3  0  0  0  0  0  0
  154.8040  212.0190  156.8510 C   0  0  0  0  0  3  0  0  0  0  0  0
  157.4130  213.0020  156.6430 C   0  0  0  0  0  3  0  0  0  0  0  0
  157.1680  211.6370  156.4580 C   0  0  0  0  0  0  0  0  0  0  0  0
  156.3570  213.8760  156.9200 C   0  0  0  0  0  3  0  0  0  0  0  0
  161.5260  208.0130  153.6330 C   0  0  1  0  0  3  0  0  0  0  0  0
  160.1790  208.5800  153.7730 C   0  0  1  0  0  3  0  0  0  0  0  0
  160.4510  207.0570  154.7850 S   0  0  0  0  0  0  0  0  0  0  0  0
  161.7220  207.3440  152.2600 C   0  0  2  0  0  3  0  0  0  0  0  0
  160.9940  207.9870  151.0710 C   0  0  0  0  0  2  0  0  0  0  0  0
  161.9670  208.7140  150.1560 C   0  0  0  0  0  2  0  0  0  0  0  0
  161.7570  208.2850  148.7170 C   0  0  0  0  0  1  0  0  0  0  0  0
  161.4700  205.8390  152.3400 C   0  0  0  0  0  2  0  0  0  0  0  0
  160.8310  205.3000  151.0670 C   0  0  0  0  0  2  0  0  0  0  0  0
  161.3270  203.8920  150.7790 C   0  0  1  0  0  3  0  0  0  0  0  0
  160.9240  202.9720  151.9210 C   0  0  0  0  0  1  0  0  0  0  0  0
  160.7990  203.3930  149.4320 C   0  0  1  0  0  3  0  0  0  0  0  0
  161.3920  204.1900  148.2850 C   0  0  0  0  0  1  0  0  0  0  0  0
  161.0670  202.0340  149.2550 O   0  0  0  0  0  1  0  0  0  0  0  0
  162.5900  210.5790  154.8200 C   0  0  0  0  0  2  0  0  0  0  0  0
  162.3780  210.0120  156.2150 C   0  0  0  0  0  2  0  0  0  0  0  0
  162.6440  211.0790  157.2610 C   0  0  0  0  0  2  0  0  0  0  0  0
  164.1150  211.4350  157.2550 C   0  0  0  0  0  1  0  0  0  0  0  0
  1 15  1  0  0  0  0
  1  5  1  1  0  0  0
  2  3  1  0  0  0  0
  2  6  1  0  0  0  0
  3  8  1  0  0  0  0
  4  1  1  0  0  0  0
  7  6  1  0  0  0  0
  7  9  1  0  0  0  0
  7 31  1  1  0  0  0
  9 18  1  6  0  0  0
  9 10  1  0  0  0  0
 10  8  1  6  0  0  0
 10  4  1  0  0  0  0
 10  1  1  0  0  0  0
 11 13  1  0  0  0  0
 13 12  2  0  0  0  0
 14 16  2  0  0  0  0
 15 11  2  0  0  0  0
 15 14  1  0  0  0  0
 16 12  1  0  0  0  0
 17 20  1  6  0  0  0
 17 18  1  0  0  0  0
 17 19  1  0  0  0  0
 18 19  1  1  0  0  0
 20 21  1  6  0  0  0
 20 24  1  0  0  0  0
 22 21  1  0  0  0  0
 23 22  1  0  0  0  0
 25 24  1  0  0  0  0
 26 25  1  0  0  0  0
 26 27  1  1  0  0  0
 28 29  1  6  0  0  0
 28 26  1  0  0  0  0
 30 28  1  0  0  0  0
 31 32  1  0  0  0  0
 32 33  1  0  0  0  0
 34 33  1  0  0  0  0
M  END
>  <MODEL>
6

>  <REMARK>
 VINA RESULT:      -4.5      1.911      3.634
  Name = 
  12 active torsions:
  status: ('A' for Active; 'I' for Inactive)
    1  A    between atoms: C_1  and  C_20
    2  A    between atoms: C_3  and  C_13
    3  A    between atoms: C_4  and  C_16
    4  A    between atoms: C_6  and  C_28
    5  A    between atoms: C_7  and  C_11
    6  A    between atoms: C_7  and  C_29
    7  A    between atoms: C_13  and  C_27
    8  A    between atoms: C_16  and  C_28
    9  A    between atoms: C_18  and  C_33
   10  A    between atoms: C_25  and  C_27
   11  A    between atoms: C_26  and  C_28
   12  A    between atoms: C_26  and  C_29
                            x       y       z     vdW  Elec       q    Type
                         _______ _______ _______ _____ _____    ______ ____

>  <TORSDO>
F 12

$$$$
=
 OpenBabel11062409353D

 34 37  0  0  1  0  0  0  0  0999 V2000
  162.5590  206.7960  148.3140 C   0  0  1  0  0  0  0  0  0  0  0  0
  160.1020  204.7380  150.7730 C   0  0  0  0  0  2  0  0  0  0  0  0
  159.9400  205.0830  149.2990 C   0  0  0  0  0  2  0  0  0  0  0  0
  161.8760  208.0290  148.3400 O   0  0  0  0  0  0  0  0  0  0  0  0
  163.8820  206.9460  148.7350 O   0  0  0  0  0  1  0  0  0  0  0  0
  161.5330  204.9610  151.2370 C   0  0  0  0  0  2  0  0  0  0  0  0
  161.6920  206.3780  151.7870 C   0  0  2  0  0  3  0  0  0  0  0  0
  160.0600  206.5800  149.0390 C   0  0  0  0  0  2  0  0  0  0  0  0
  161.8990  207.4800  150.7270 C   0  0  1  0  0  3  0  0  0  0  0  0
  161.4820  207.0750  149.3020 C   0  0  1  0  0  0  0  0  0  0  0  0
  163.0200  204.8360  146.7930 C   0  0  0  0  0  3  0  0  0  0  0  0
  161.7800  204.5450  144.7330 C   0  0  0  0  0  3  0  0  0  0  0  0
  162.7580  204.1040  145.6310 C   0  0  0  0  0  3  0  0  0  0  0  0
  161.3250  206.4460  146.1620 C   0  0  0  0  0  3  0  0  0  0  0  0
  162.3120  206.0180  147.0570 C   0  0  0  0  0  0  0  0  0  0  0  0
  161.0620  205.7140  144.9990 C   0  0  0  0  0  3  0  0  0  0  0  0
  161.9880  209.5240  152.0960 C   0  0  1  0  0  3  0  0  0  0  0  0
  161.1640  208.7480  151.1610 C   0  0  1  0  0  3  0  0  0  0  0  0
  161.9480  210.2380  150.3980 S   0  0  0  0  0  0  0  0  0  0  0  0
  161.1240  210.2880  153.1160 C   0  0  2  0  0  3  0  0  0  0  0  0
  161.3050  209.9070  154.5930 C   0  0  0  0  0  2  0  0  0  0  0  0
  162.4300  210.7040  155.2340 C   0  0  0  0  0  2  0  0  0  0  0  0
  162.5160  210.3950  156.7160 C   0  0  0  0  0  1  0  0  0  0  0  0
  159.6540  210.2890  152.7010 C   0  0  0  0  0  2  0  0  0  0  0  0
  159.1170  211.7020  152.5100 C   0  0  0  0  0  2  0  0  0  0  0  0
  158.7240  212.3070  153.8470 C   0  0  1  0  0  3  0  0  0  0  0  0
  158.2970  213.7520  153.6410 C   0  0  0  0  0  1  0  0  0  0  0  0
  157.6250  211.4790  154.5190 C   0  0  1  0  0  3  0  0  0  0  0  0
  158.0250  211.0830  155.9280 C   0  0  0  0  0  1  0  0  0  0  0  0
  156.4130  212.1730  154.5460 O   0  0  0  0  0  1  0  0  0  0  0  0
  162.8430  206.4110  152.7800 C   0  0  0  0  0  2  0  0  0  0  0  0
  162.3310  206.5370  154.2060 C   0  0  0  0  0  2  0  0  0  0  0  0
  160.8140  206.5790  154.2160 C   0  0  0  0  0  2  0  0  0  0  0  0
  160.3290  206.9530  155.6000 C   0  0  0  0  0  1  0  0  0  0  0  0
  1  4  1  0  0  0  0
  1  5  1  1  0  0  0
  1 10  1  0  0  0  0
  2  6  1  0  0  0  0
  3  2  1  0  0  0  0
  4 10  1  0  0  0  0
  6  7  1  0  0  0  0
  7 31  1  1  0  0  0
  8  3  1  0  0  0  0
  9 18  1  1  0  0  0
  9  7  1  0  0  0  0
 10  8  1  6  0  0  0
 10  9  1  0  0  0  0
 11 15  1  0  0  0  0
 12 16  2  0  0  0  0
 12 13  1  0  0  0  0
 13 11  2  0  0  0  0
 14 15  2  0  0  0  0
 15  1  1  0  0  0  0
 16 14  1  0  0  0  0
 17 20  1  1  0  0  0
 18 19  1  6  0  0  0
 18 17  1  0  0  0  0
 19 17  1  0  0  0  0
 20 24  1  6  0  0  0
 20 21  1  0  0  0  0
 21 22  1  0  0  0  0
 22 23  1  0  0  0  0
 25 24  1  0  0  0  0
 25 26  1  0  0  0  0
 26 27  1  6  0  0  0
 26 28  1  0  0  0  0
 28 30  1  0  0  0  0
 28 29  1  1  0  0  0
 31 32  1  0  0  0  0
 32 33  1  0  0  0  0
 33 34  1  0  0  0  0
M  END
>  <MODEL>
7

>  <REMARK>
 VINA RESULT:      -4.4      2.371      8.920
  Name = 
  12 active torsions:
  status: ('A' for Active; 'I' for Inactive)
    1  A    between atoms: C_1  and  C_20
    2  A    between atoms: C_3  and  C_13
    3  A    between atoms: C_4  and  C_16
    4  A    between atoms: C_6  and  C_28
    5  A    between atoms: C_7  and  C_11
    6  A    between atoms: C_7  and  C_29
    7  A    between atoms: C_13  and  C_27
    8  A    between atoms: C_16  and  C_28
    9  A    between atoms: C_18  and  C_33
   10  A    between atoms: C_25  and  C_27
   11  A    between atoms: C_26  and  C_28
   12  A    between atoms: C_26  and  C_29
                            x       y       z     vdW  Elec       q    Type
                         _______ _______ _______ _____ _____    ______ ____

>  <TORSDO>
F 12

$$$$
=
 OpenBabel11062409353D

 34 37  0  0  1  0  0  0  0  0999 V2000
  162.5330  206.8860  148.2040 C   0  0  1  0  0  0  0  0  0  0  0  0
  160.1960  204.7940  150.7500 C   0  0  0  0  0  2  0  0  0  0  0  0
  160.0580  205.0020  149.2490 C   0  0  0  0  0  2  0  0  0  0  0  0
  161.7330  208.0420  148.1070 O   0  0  0  0  0  0  0  0  0  0  0  0
  163.8180  207.2000  148.6510 O   0  0  0  0  0  1  0  0  0  0  0  0
  161.5800  205.1960  151.2370 C   0  0  0  0  0  2  0  0  0  0  0  0
  161.5790  206.6600  151.6720 C   0  0  2  0  0  3  0  0  0  0  0  0
  160.0420  206.4790  148.8690 C   0  0  0  0  0  2  0  0  0  0  0  0
  161.7180  207.6900  150.5310 C   0  0  1  0  0  3  0  0  0  0  0  0
  161.3970  207.1330  149.1330 C   0  0  1  0  0  0  0  0  0  0  0  0
  163.2500  204.8750  146.8580 C   0  0  0  0  0  3  0  0  0  0  0  0
  162.1140  204.2900  144.8010 C   0  0  0  0  0  3  0  0  0  0  0  0
  163.1040  204.0310  145.7540 C   0  0  0  0  0  3  0  0  0  0  0  0
  161.4130  206.2360  146.0590 C   0  0  0  0  0  3  0  0  0  0  0  0
  162.4110  205.9890  147.0090 C   0  0  0  0  0  0  0  0  0  0  0  0
  161.2670  205.3910  144.9540 C   0  0  0  0  0  3  0  0  0  0  0  0
  161.2340  209.5080  152.1190 C   0  0  1  0  0  3  0  0  0  0  0  0
  160.8470  208.9080  150.8360 C   0  0  1  0  0  3  0  0  0  0  0  0
  161.8320  210.4630  150.6600 S   0  0  0  0  0  0  0  0  0  0  0  0
  160.0310  210.1480  152.8350 C   0  0  2  0  0  3  0  0  0  0  0  0
  159.6850  211.5910  152.4430 C   0  0  0  0  0  2  0  0  0  0  0  0
  158.2550  211.9400  152.8240 C   0  0  0  0  0  2  0  0  0  0  0  0
  157.9280  213.3590  152.4010 C   0  0  0  0  0  1  0  0  0  0  0  0
  160.1350  209.9750  154.3490 C   0  0  0  0  0  2  0  0  0  0  0  0
  161.5640  210.1450  154.8460 C   0  0  0  0  0  2  0  0  0  0  0  0
  161.6140  211.1440  155.9900 C   0  0  1  0  0  3  0  0  0  0  0  0
  160.2060  211.3790  156.5150 C   0  0  0  0  0  1  0  0  0  0  0  0
  162.5600  210.6630  157.0930 C   0  0  1  0  0  3  0  0  0  0  0  0
  162.5200  209.1520  157.2250 C   0  0  0  0  0  1  0  0  0  0  0  0
  163.8700  211.0860  156.8570 O   0  0  0  0  0  1  0  0  0  0  0  0
  162.6830  206.8870  152.6930 C   0  0  0  0  0  2  0  0  0  0  0  0
  162.2060  206.5500  154.0970 C   0  0  0  0  0  2  0  0  0  0  0  0
  160.6900  206.4900  154.1350 C   0  0  0  0  0  2  0  0  0  0  0  0
  160.2080  206.8080  155.5340 C   0  0  0  0  0  1  0  0  0  0  0  0
  1  5  1  1  0  0  0
  1 10  1  0  0  0  0
  2  6  1  0  0  0  0
  3  2  1  0  0  0  0
  4  1  1  0  0  0  0
  4 10  1  0  0  0  0
  6  7  1  0  0  0  0
  7 31  1  1  0  0  0
  8  3  1  0  0  0  0
  9 18  1  1  0  0  0
  9  7  1  0  0  0  0
 10  8  1  6  0  0  0
 10  9  1  0  0  0  0
 11 15  1  0  0  0  0
 12 16  2  0  0  0  0
 12 13  1  0  0  0  0
 13 11  2  0  0  0  0
 14 15  2  0  0  0  0
 15  1  1  0  0  0  0
 16 14  1  0  0  0  0
 17 20  1  1  0  0  0
 18 19  1  6  0  0  0
 18 17  1  0  0  0  0
 19 17  1  0  0  0  0
 20 21  1  1  0  0  0
 20 24  1  0  0  0  0
 21 22  1  0  0  0  0
 23 22  1  0  0  0  0
 24 25  1  0  0  0  0
 25 26  1  0  0  0  0
 26 27  1  1  0  0  0
 26 28  1  0  0  0  0
 28 29  1  6  0  0  0
 30 28  1  0  0  0  0
 31 32  1  0  0  0  0
 32 33  1  0  0  0  0
 33 34  1  0  0  0  0
M  END
>  <MODEL>
8

>  <REMARK>
 VINA RESULT:      -4.4      2.245      9.140
  Name = 
  12 active torsions:
  status: ('A' for Active; 'I' for Inactive)
    1  A    between atoms: C_1  and  C_20
    2  A    between atoms: C_3  and  C_13
    3  A    between atoms: C_4  and  C_16
    4  A    between atoms: C_6  and  C_28
    5  A    between atoms: C_7  and  C_11
    6  A    between atoms: C_7  and  C_29
    7  A    between atoms: C_13  and  C_27
    8  A    between atoms: C_16  and  C_28
    9  A    between atoms: C_18  and  C_33
   10  A    between atoms: C_25  and  C_27
   11  A    between atoms: C_26  and  C_28
   12  A    between atoms: C_26  and  C_29
                            x       y       z     vdW  Elec       q    Type
                         _______ _______ _______ _____ _____    ______ ____

>  <TORSDO>
F 12

$$$$
=
 OpenBabel11062409353D

 34 37  0  0  1  0  0  0  0  0999 V2000
  161.6960  212.6380  142.5290 C   0  0  1  0  0  0  0  0  0  0  0  0
  158.8900  214.0140  139.9690 C   0  0  0  0  0  2  0  0  0  0  0  0
  158.7270  213.3620  141.3350 C   0  0  0  0  0  2  0  0  0  0  0  0
  161.5850  211.2660  142.2230 O   0  0  0  0  0  0  0  0  0  0  0  0
  163.0010  213.0930  142.3290 O   0  0  0  0  0  1  0  0  0  0  0  0
  160.3280  214.4530  139.7360 C   0  0  0  0  0  2  0  0  0  0  0  0
  161.1100  213.3390  139.0420 C   0  0  2  0  0  3  0  0  0  0  0  0
  159.4210  212.0070  141.4140 C   0  0  0  0  0  2  0  0  0  0  0  0
  161.6360  212.2230  139.9690 C   0  0  1  0  0  3  0  0  0  0  0  0
  160.9400  212.1580  141.3400 C   0  0  1  0  0  0  0  0  0  0  0  0
  159.9720  212.2250  144.3250 C   0  0  0  0  0  3  0  0  0  0  0  0
  159.8170  213.6790  146.2550 C   0  0  0  0  0  3  0  0  0  0  0  0
  159.3700  212.5640  145.5390 C   0  0  0  0  0  3  0  0  0  0  0  0
  161.4710  214.1140  144.5410 C   0  0  0  0  0  3  0  0  0  0  0  0
  161.0190  213.0070  143.8140 C   0  0  0  0  0  0  0  0  0  0  0  0
  160.8690  214.4530  145.7570 C   0  0  0  0  0  3  0  0  0  0  0  0
  160.3340  210.8320  138.4100 C   0  0  1  0  0  3  0  0  0  0  0  0
  161.5350  210.8770  139.2520 C   0  0  1  0  0  3  0  0  0  0  0  0
  161.8860  211.0820  137.4490 S   0  0  0  0  0  0  0  0  0  0  0  0
  159.7600  209.4070  138.3130 C   0  0  2  0  0  3  0  0  0  0  0  0
  160.6120  208.3720  137.5640 C   0  0  0  0  0  2  0  0  0  0  0  0
  161.5330  207.6230  138.5140 C   0  0  0  0  0  2  0  0  0  0  0  0
  162.3430  206.5890  137.7580 C   0  0  0  0  0  1  0  0  0  0  0  0
  158.3160  209.4280  137.8150 C   0  0  0  0  0  2  0  0  0  0  0  0
  157.4510  210.3930  138.6150 C   0  0  0  0  0  2  0  0  0  0  0  0
  155.9820  210.1930  138.2790 C   0  0  1  0  0  3  0  0  0  0  0  0
  155.6610  208.7070  138.2870 C   0  0  0  0  0  1  0  0  0  0  0  0
  155.0900  210.9730  139.2490 C   0  0  1  0  0  3  0  0  0  0  0  0
  154.6270  212.2800  138.6320 C   0  0  0  0  0  1  0  0  0  0  0  0
  153.9840  210.2150  139.6410 O   0  0  0  0  0  1  0  0  0  0  0  0
  162.2730  213.9420  138.2700 C   0  0  0  0  0  2  0  0  0  0  0  0
  163.4710  214.1690  139.1770 C   0  0  0  0  0  2  0  0  0  0  0  0
  164.6530  213.3440  138.7040 C   0  0  0  0  0  2  0  0  0  0  0  0
  165.9250  214.1510  138.8510 C   0  0  0  0  0  1  0  0  0  0  0  0
  1  5  1  6  0  0  0
  1 15  1  0  0  0  0
  2  3  1  0  0  0  0
  3  8  1  0  0  0  0
  4  1  1  0  0  0  0
  6  2  1  0  0  0  0
  7 31  1  1  0  0  0
  7  6  1  0  0  0  0
  7  9  1  0  0  0  0
  9 18  1  6  0  0  0
  9 10  1  0  0  0  0
 10  8  1  1  0  0  0
 10  4  1  0  0  0  0
 10  1  1  0  0  0  0
 11 13  1  0  0  0  0
 13 12  2  0  0  0  0
 14 16  2  0  0  0  0
 15 11  2  0  0  0  0
 15 14  1  0  0  0  0
 16 12  1  0  0  0  0
 17 20  1  6  0  0  0
 17 18  1  0  0  0  0
 18 19  1  6  0  0  0
 19 17  1  0  0  0  0
 20 21  1  6  0  0  0
 21 22  1  0  0  0  0
 23 22  1  0  0  0  0
 24 20  1  0  0  0  0
 24 25  1  0  0  0  0
 26 27  1  1  0  0  0
 26 25  1  0  0  0  0
 26 28  1  0  0  0  0
 28 29  1  6  0  0  0
 28 30  1  0  0  0  0
 31 32  1  0  0  0  0
 33 34  1  0  0  0  0
 33 32  1  0  0  0  0
M  END
>  <MODEL>
9

>  <REMARK>
 VINA RESULT:      -3.2      9.283     12.852
  Name = 
  12 active torsions:
  status: ('A' for Active; 'I' for Inactive)
    1  A    between atoms: C_1  and  C_20
    2  A    between atoms: C_3  and  C_13
    3  A    between atoms: C_4  and  C_16
    4  A    between atoms: C_6  and  C_28
    5  A    between atoms: C_7  and  C_11
    6  A    between atoms: C_7  and  C_29
    7  A    between atoms: C_13  and  C_27
    8  A    between atoms: C_16  and  C_28
    9  A    between atoms: C_18  and  C_33
   10  A    between atoms: C_25  and  C_27
   11  A    between atoms: C_26  and  C_28
   12  A    between atoms: C_26  and  C_29
                            x       y       z     vdW  Elec       q    Type
                         _______ _______ _______ _____ _____    ______ ____

>  <TORSDO>
F 12

$$$$
