=
 OpenBabel11062409293D

 34 38  0  0  1  0  0  0  0  0999 V2000
  160.7640  210.7160  153.1540 C   0  0  2  0  0  3  0  0  0  0  0  0
  157.3560  212.4660  153.5180 C   0  0  0  0  0  2  0  0  0  0  0  0
  158.8590  211.4630  155.2010 C   0  0  0  0  0  2  0  0  0  0  0  0
  162.5320  210.5880  154.9370 C   0  0  0  0  0  3  0  0  0  0  0  0
  162.0110  211.0310  157.2610 C   0  0  0  0  0  3  0  0  0  0  0  0
  162.9370  210.6820  156.2720 C   0  0  0  0  0  3  0  0  0  0  0  0
  160.2770  211.2010  155.5790 C   0  0  0  0  0  0  0  0  0  0  0  0
  161.2050  210.8510  154.5860 C   0  0  0  0  0  0  0  0  0  0  0  0
  160.6800  211.2850  156.9160 C   0  0  0  0  0  3  0  0  0  0  0  0
  157.1760  213.6820  152.6200 C   0  0  0  0  0  2  0  0  0  0  0  0
  157.8140  213.4750  151.3180 N   0  0  0  0  0  0  0  0  0  0  0  0
  159.2060  213.8810  151.5060 C   0  0  0  0  0  2  0  0  0  0  0  0
  158.8130  212.2920  153.9220 C   0  0  1  0  0  3  0  0  0  0  0  0
  160.1130  212.6700  151.7290 C   0  0  0  0  0  2  0  0  0  0  0  0
  159.5980  211.6460  152.7520 C   0  0  1  0  0  3  0  0  0  0  0  0
  157.1960  214.4030  150.3590 C   0  0  0  0  0  3  0  0  0  0  0  0
  157.7970  214.2460  148.9700 C   0  0  0  0  0  1  0  0  0  0  0  0
  155.6990  214.1540  150.2400 C   0  0  0  0  0  1  0  0  0  0  0  0
  160.4520  209.2630  152.8080 C   0  0  0  0  0  2  0  0  0  0  0  0
  161.6170  208.5800  152.4390 O   0  0  0  0  0  0  0  0  0  0  0  0
  161.7850  208.8550  151.0800 C   0  0  0  0  0  2  0  0  0  0  0  0
  161.2960  206.5610  148.0240 C   0  0  0  0  0  2  0  0  0  0  0  0
  161.3050  206.5000  150.8730 N   0  0  0  0  0  0  0  0  0  0  0  0
  160.8420  202.8590  148.7620 C   0  0  0  0  0  0  0  0  0  0  0  0
  161.0190  204.0610  148.0610 C   0  0  0  0  0  3  0  0  0  0  0  0
  161.1960  205.2590  148.7580 C   0  0  0  0  0  0  0  0  0  0  0  0
  160.9700  204.0710  150.8610 C   0  0  0  0  0  3  0  0  0  0  0  0
  161.1630  205.2650  150.1620 C   0  0  0  0  0  0  0  0  0  0  0  0
  160.8120  202.8700  150.1620 C   0  0  0  0  0  3  0  0  0  0  0  0
  161.6520  207.6030  150.2800 C   0  0  0  0  0  0  0  0  0  0  0  0
  162.0800  207.5960  148.8350 C   0  0  0  0  0  2  0  0  0  0  0  0
  160.6770  201.5590  148.0440 C   0  0  1  0  0  3  0  0  0  0  0  0
  160.8450  201.7420  146.5460 C   0  0  0  0  0  1  0  0  0  0  0  0
  161.5970  200.6190  148.5180 O   0  0  0  0  0  1  0  0  0  0  0  0
  1 19  1  1  0  0  0
  1  8  1  0  0  0  0
  3  7  1  0  0  0  0
  4  6  1  0  0  0  0
  6  5  2  0  0  0  0
  7  9  2  0  0  0  0
  8  4  2  0  0  0  0
  8  7  1  0  0  0  0
  9  5  1  0  0  0  0
 10  2  1  0  0  0  0
 11 12  1  0  0  0  0
 11 10  1  0  0  0  0
 12 14  1  0  0  0  0
 13  2  1  6  0  0  0
 13  3  1  0  0  0  0
 15 14  1  6  0  0  0
 15  1  1  0  0  0  0
 15 13  1  0  0  0  0
 16 11  1  0  0  0  0
 17 16  1  0  0  0  0
 18 16  1  0  0  0  0
 20 19  1  0  0  0  0
 21 20  1  0  0  0  0
 22 26  1  0  0  0  0
 22 31  1  0  0  0  0
 24 29  1  0  0  0  0
 25 26  1  0  0  0  0
 25 24  2  0  0  0  0
 26 28  2  0  0  0  0
 28 27  1  0  0  0  0
 28 23  1  0  0  0  0
 29 27  2  0  0  0  0
 30 23  2  0  0  0  0
 30 21  1  0  0  0  0
 31 30  1  0  0  0  0
 32 33  1  6  0  0  0
 32 34  1  0  0  0  0
 32 24  1  0  0  0  0
M  END
>  <MODEL>
1

>  <REMARK>
 VINA RESULT:      -9.0      0.000      0.000
  Name = 
  6 active torsions:
  status: ('A' for Active; 'I' for Inactive)
    1  A    between atoms: C_1  and  C_9
    2  A    between atoms: C_3  and  N_25
    3  A    between atoms: C_7  and  C_11
    4  A    between atoms: O_8  and  C_9
    5  A    between atoms: O_8  and  C_18
    6  A    between atoms: C_18  and  C_30
                            x       y       z     vdW  Elec       q    Type
                         _______ _______ _______ _____ _____    ______ ____

>  <TORSDO>
F 6

$$$$
=
 OpenBabel11062409293D

 34 38  0  0  1  0  0  0  0  0999 V2000
  160.7350  210.6120  153.1840 C   0  0  2  0  0  3  0  0  0  0  0  0
  157.4410  212.5740  153.5020 C   0  0  0  0  0  2  0  0  0  0  0  0
  158.9490  211.6360  155.2180 C   0  0  0  0  0  2  0  0  0  0  0  0
  162.5580  210.5370  154.9140 C   0  0  0  0  0  3  0  0  0  0  0  0
  162.1460  211.2040  157.2060 C   0  0  0  0  0  3  0  0  0  0  0  0
  163.0160  210.7210  156.2230 C   0  0  0  0  0  3  0  0  0  0  0  0
  160.3640  211.3270  155.5720 C   0  0  0  0  0  0  0  0  0  0  0  0
  161.2340  210.8430  154.5840 C   0  0  0  0  0  0  0  0  0  0  0  0
  160.8180  211.5020  156.8830 C   0  0  0  0  0  3  0  0  0  0  0  0
  157.2930  213.7180  152.5080 C   0  0  0  0  0  2  0  0  0  0  0  0
  157.8700  213.3660  151.2100 N   0  0  0  0  0  0  0  0  0  0  0  0
  159.2880  213.7080  151.3170 C   0  0  0  0  0  2  0  0  0  0  0  0
  158.9000  212.3540  153.8740 C   0  0  1  0  0  3  0  0  0  0  0  0
  160.1370  212.4710  151.6160 C   0  0  0  0  0  2  0  0  0  0  0  0
  159.6070  211.5690  152.7400 C   0  0  1  0  0  3  0  0  0  0  0  0
  157.2680  214.2420  150.1940 C   0  0  0  0  0  3  0  0  0  0  0  0
  157.5780  213.7540  148.7870 C   0  0  0  0  0  1  0  0  0  0  0  0
  155.7540  214.2900  150.3380 C   0  0  0  0  0  1  0  0  0  0  0  0
  160.3340  209.1540  152.9750 C   0  0  0  0  0  2  0  0  0  0  0  0
  161.3460  208.4520  152.3090 O   0  0  0  0  0  0  0  0  0  0  0  0
  161.1690  207.1180  152.6830 C   0  0  0  0  0  2  0  0  0  0  0  0
  161.3230  203.9190  150.5420 C   0  0  0  0  0  2  0  0  0  0  0  0
  161.3920  206.7590  150.3080 N   0  0  0  0  0  0  0  0  0  0  0  0
  161.4060  204.4260  146.7740 C   0  0  0  0  0  0  0  0  0  0  0  0
  161.3360  203.8010  148.0290 C   0  0  0  0  0  3  0  0  0  0  0  0
  161.3070  204.5730  149.1940 C   0  0  0  0  0  0  0  0  0  0  0  0
  161.4680  206.5940  147.8620 C   0  0  0  0  0  3  0  0  0  0  0  0
  161.3820  205.9730  149.1100 C   0  0  0  0  0  0  0  0  0  0  0  0
  161.4780  205.8220  146.6970 C   0  0  0  0  0  3  0  0  0  0  0  0
  161.1460  206.2420  151.4750 C   0  0  0  0  0  0  0  0  0  0  0  0
  160.6770  204.8160  151.6010 C   0  0  0  0  0  2  0  0  0  0  0  0
  161.4110  203.6280  145.5100 C   0  0  1  0  0  3  0  0  0  0  0  0
  160.8790  202.2270  145.7510 C   0  0  0  0  0  1  0  0  0  0  0  0
  160.6510  204.2670  144.5270 O   0  0  0  0  0  1  0  0  0  0  0  0
  1 19  1  1  0  0  0
  1  8  1  0  0  0  0
  3  7  1  0  0  0  0
  4  6  1  0  0  0  0
  6  5  2  0  0  0  0
  7  9  2  0  0  0  0
  8  4  2  0  0  0  0
  8  7  1  0  0  0  0
  9  5  1  0  0  0  0
 10  2  1  0  0  0  0
 11 12  1  0  0  0  0
 11 10  1  0  0  0  0
 12 14  1  0  0  0  0
 13  2  1  6  0  0  0
 13  3  1  0  0  0  0
 15 14  1  6  0  0  0
 15  1  1  0  0  0  0
 15 13  1  0  0  0  0
 16 18  1  0  0  0  0
 16 11  1  0  0  0  0
 17 16  1  0  0  0  0
 20 21  1  0  0  0  0
 20 19  1  0  0  0  0
 22 31  1  0  0  0  0
 23 30  2  0  0  0  0
 24 25  1  0  0  0  0
 25 26  2  0  0  0  0
 26 22  1  0  0  0  0
 27 28  2  0  0  0  0
 28 26  1  0  0  0  0
 28 23  1  0  0  0  0
 29 24  2  0  0  0  0
 29 27  1  0  0  0  0
 30 31  1  0  0  0  0
 30 21  1  0  0  0  0
 32 33  1  1  0  0  0
 32 24  1  0  0  0  0
 34 32  1  0  0  0  0
M  END
>  <MODEL>
2

>  <REMARK>
 VINA RESULT:      -8.9      1.275      1.954
  Name = 
  6 active torsions:
  status: ('A' for Active; 'I' for Inactive)
    1  A    between atoms: C_1  and  C_9
    2  A    between atoms: C_3  and  N_25
    3  A    between atoms: C_7  and  C_11
    4  A    between atoms: O_8  and  C_9
    5  A    between atoms: O_8  and  C_18
    6  A    between atoms: C_18  and  C_30
                            x       y       z     vdW  Elec       q    Type
                         _______ _______ _______ _____ _____    ______ ____

>  <TORSDO>
F 6

$$$$
=
 OpenBabel11062409293D

 34 38  0  0  1  0  0  0  0  0999 V2000
  161.8520  213.1110  147.5770 C   0  0  2  0  0  3  0  0  0  0  0  0
  159.9440  212.0800  144.3990 C   0  0  0  0  0  2  0  0  0  0  0  0
  159.2020  212.3030  146.7430 C   0  0  0  0  0  2  0  0  0  0  0  0
  160.8220  214.1540  149.6200 C   0  0  0  0  0  3  0  0  0  0  0  0
  158.4350  214.0490  150.0180 C   0  0  0  0  0  3  0  0  0  0  0  0
  159.7130  214.4520  150.4180 C   0  0  0  0  0  3  0  0  0  0  0  0
  159.3720  213.0570  148.0180 C   0  0  0  0  0  0  0  0  0  0  0  0
  160.6550  213.4610  148.4170 C   0  0  0  0  0  0  0  0  0  0  0  0
  158.2640  213.3470  148.8210 C   0  0  0  0  0  3  0  0  0  0  0  0
  160.3110  212.8830  143.1580 C   0  0  0  0  0  2  0  0  0  0  0  0
  161.7390  213.2060  143.1420 N   0  0  0  0  0  0  0  0  0  0  0  0
  161.8600  214.4400  143.9170 C   0  0  0  0  0  2  0  0  0  0  0  0
  160.0740  212.9240  145.6580 C   0  0  1  0  0  3  0  0  0  0  0  0
  162.3170  214.1560  145.3480 C   0  0  0  0  0  2  0  0  0  0  0  0
  161.5680  213.0200  146.0610 C   0  0  1  0  0  3  0  0  0  0  0  0
  162.1200  213.5020  141.7530 C   0  0  0  0  0  3  0  0  0  0  0  0
  163.4500  214.2400  141.6890 C   0  0  0  0  0  1  0  0  0  0  0  0
  162.2670  212.2250  140.9390 C   0  0  0  0  0  1  0  0  0  0  0  0
  162.5320  211.8430  148.0850 C   0  0  0  0  0  2  0  0  0  0  0  0
  161.5800  210.8820  148.4480 O   0  0  0  0  0  0  0  0  0  0  0  0
  162.1050  210.2630  149.5850 C   0  0  0  0  0  2  0  0  0  0  0  0
  161.5830  206.6520  150.8220 C   0  0  0  0  0  2  0  0  0  0  0  0
  162.0580  208.1410  148.4380 N   0  0  0  0  0  0  0  0  0  0  0  0
  161.4050  203.9690  148.1330 C   0  0  0  0  0  0  0  0  0  0  0  0
  161.3540  204.5990  149.3850 C   0  0  0  0  0  3  0  0  0  0  0  0
  161.5460  205.9800  149.4830 C   0  0  0  0  0  0  0  0  0  0  0  0
  161.8910  206.1030  147.0850 C   0  0  0  0  0  3  0  0  0  0  0  0
  161.8230  206.7330  148.3300 C   0  0  0  0  0  0  0  0  0  0  0  0
  161.6800  204.7250  146.9860 C   0  0  0  0  0  3  0  0  0  0  0  0
  161.8420  208.7950  149.5410 C   0  0  0  0  0  0  0  0  0  0  0  0
  161.1760  208.1240  150.7140 C   0  0  0  0  0  2  0  0  0  0  0  0
  161.1780  202.4980  147.9940 C   0  0  1  0  0  3  0  0  0  0  0  0
  160.2000  202.0000  149.0430 C   0  0  0  0  0  1  0  0  0  0  0  0
  160.7050  202.1960  146.7140 O   0  0  0  0  0  1  0  0  0  0  0  0
  1 19  1  1  0  0  0
  1  8  1  0  0  0  0
  3  7  1  0  0  0  0
  4  6  1  0  0  0  0
  5  6  2  0  0  0  0
  7  8  1  0  0  0  0
  7  9  2  0  0  0  0
  8  4  2  0  0  0  0
  9  5  1  0  0  0  0
 10  2  1  0  0  0  0
 11 10  1  0  0  0  0
 11 12  1  0  0  0  0
 12 14  1  0  0  0  0
 13  2  1  6  0  0  0
 13 15  1  0  0  0  0
 13  3  1  0  0  0  0
 15 14  1  6  0  0  0
 15  1  1  0  0  0  0
 16 11  1  0  0  0  0
 17 16  1  0  0  0  0
 18 16  1  0  0  0  0
 19 20  1  0  0  0  0
 20 21  1  0  0  0  0
 23 30  2  0  0  0  0
 24 25  1  0  0  0  0
 25 26  2  0  0  0  0
 26 22  1  0  0  0  0
 27 28  2  0  0  0  0
 28 23  1  0  0  0  0
 28 26  1  0  0  0  0
 29 27  1  0  0  0  0
 29 24  2  0  0  0  0
 30 21  1  0  0  0  0
 30 31  1  0  0  0  0
 31 22  1  0  0  0  0
 32 24  1  0  0  0  0
 32 33  1  1  0  0  0
 34 32  1  0  0  0  0
M  END
>  <MODEL>
3

>  <REMARK>
 VINA RESULT:      -8.2      4.333      6.496
  Name = 
  6 active torsions:
  status: ('A' for Active; 'I' for Inactive)
    1  A    between atoms: C_1  and  C_9
    2  A    between atoms: C_3  and  N_25
    3  A    between atoms: C_7  and  C_11
    4  A    between atoms: O_8  and  C_9
    5  A    between atoms: O_8  and  C_18
    6  A    between atoms: C_18  and  C_30
                            x       y       z     vdW  Elec       q    Type
                         _______ _______ _______ _____ _____    ______ ____

>  <TORSDO>
F 6

$$$$
=
 OpenBabel11062409293D

 34 38  0  0  1  0  0  0  0  0999 V2000
  159.9690  211.7130  153.1380 C   0  0  2  0  0  3  0  0  0  0  0  0
  157.1730  213.3620  151.0720 C   0  0  0  0  0  2  0  0  0  0  0  0
  157.3780  212.9530  153.4980 C   0  0  0  0  0  2  0  0  0  0  0  0
  160.4570  212.1790  155.5610 C   0  0  0  0  0  3  0  0  0  0  0  0
  158.8260  213.2620  156.9870 C   0  0  0  0  0  3  0  0  0  0  0  0
  160.0840  212.6740  156.8140 C   0  0  0  0  0  3  0  0  0  0  0  0
  158.3180  212.8660  154.6540 C   0  0  0  0  0  0  0  0  0  0  0  0
  159.5790  212.2770  154.4770 C   0  0  0  0  0  0  0  0  0  0  0  0
  157.9400  213.3530  155.9090 C   0  0  0  0  0  3  0  0  0  0  0  0
  157.6700  214.2550  149.9430 C   0  0  0  0  0  2  0  0  0  0  0  0
  158.8750  213.7010  149.3250 N   0  0  0  0  0  0  0  0  0  0  0  0
  159.9840  214.1970  150.1390 C   0  0  0  0  0  2  0  0  0  0  0  0
  158.1410  213.3690  152.2460 C   0  0  1  0  0  3  0  0  0  0  0  0
  160.4560  213.1390  151.1380 C   0  0  0  0  0  2  0  0  0  0  0  0
  159.3410  212.4400  151.9290 C   0  0  1  0  0  3  0  0  0  0  0  0
  159.0030  214.2840  147.9810 C   0  0  0  0  0  3  0  0  0  0  0  0
  160.4150  214.1200  147.4380 C   0  0  0  0  0  1  0  0  0  0  0  0
  158.0550  213.6130  146.9980 C   0  0  0  0  0  1  0  0  0  0  0  0
  159.7040  210.2110  153.0740 C   0  0  0  0  0  2  0  0  0  0  0  0
  160.8220  209.4920  153.5150 O   0  0  0  0  0  0  0  0  0  0  0  0
  161.5150  209.1500  152.3520 C   0  0  0  0  0  2  0  0  0  0  0  0
  161.3650  205.3300  152.8330 C   0  0  0  0  0  2  0  0  0  0  0  0
  161.3400  207.3190  150.7910 N   0  0  0  0  0  0  0  0  0  0  0  0
  160.8000  203.2660  149.6900 C   0  0  0  0  0  0  0  0  0  0  0  0
  160.9550  203.6130  151.0400 C   0  0  0  0  0  3  0  0  0  0  0  0
  161.1090  204.9540  151.4060 C   0  0  0  0  0  0  0  0  0  0  0  0
  161.0040  205.6040  149.0700 C   0  0  0  0  0  3  0  0  0  0  0  0
  161.1420  205.9510  150.4170 C   0  0  0  0  0  0  0  0  0  0  0  0
  160.8310  204.2650  148.7090 C   0  0  0  0  0  3  0  0  0  0  0  0
  161.3050  207.7080  152.0300 C   0  0  0  0  0  0  0  0  0  0  0  0
  160.8900  206.7560  153.1230 C   0  0  0  0  0  2  0  0  0  0  0  0
  160.6070  201.8440  149.2720 C   0  0  1  0  0  3  0  0  0  0  0  0
  161.1760  201.6050  147.8850 C   0  0  0  0  0  1  0  0  0  0  0  0
  161.2060  200.9800  150.1920 O   0  0  0  0  0  1  0  0  0  0  0  0
  1 19  1  1  0  0  0
  1  8  1  0  0  0  0
  3  7  1  0  0  0  0
  4  6  1  0  0  0  0
  6  5  2  0  0  0  0
  7  9  2  0  0  0  0
  8  7  1  0  0  0  0
  8  4  2  0  0  0  0
  9  5  1  0  0  0  0
 10  2  1  0  0  0  0
 11 10  1  0  0  0  0
 11 12  1  0  0  0  0
 12 14  1  0  0  0  0
 13  2  1  6  0  0  0
 13  3  1  0  0  0  0
 15 14  1  1  0  0  0
 15 13  1  0  0  0  0
 15  1  1  0  0  0  0
 16 11  1  0  0  0  0
 17 16  1  0  0  0  0
 18 16  1  0  0  0  0
 19 20  1  0  0  0  0
 21 20  1  0  0  0  0
 22 31  1  0  0  0  0
 23 30  2  0  0  0  0
 24 25  1  0  0  0  0
 25 26  2  0  0  0  0
 26 22  1  0  0  0  0
 27 28  2  0  0  0  0
 28 23  1  0  0  0  0
 28 26  1  0  0  0  0
 29 27  1  0  0  0  0
 29 24  2  0  0  0  0
 30 21  1  0  0  0  0
 30 31  1  0  0  0  0
 32 33  1  6  0  0  0
 32 24  1  0  0  0  0
 32 34  1  0  0  0  0
M  END
>  <MODEL>
4

>  <REMARK>
 VINA RESULT:      -8.1      1.474      2.549
  Name = 
  6 active torsions:
  status: ('A' for Active; 'I' for Inactive)
    1  A    between atoms: C_1  and  C_9
    2  A    between atoms: C_3  and  N_25
    3  A    between atoms: C_7  and  C_11
    4  A    between atoms: O_8  and  C_9
    5  A    between atoms: O_8  and  C_18
    6  A    between atoms: C_18  and  C_30
                            x       y       z     vdW  Elec       q    Type
                         _______ _______ _______ _____ _____    ______ ____

>  <TORSDO>
F 6

$$$$
=
 OpenBabel11062409293D

 34 38  0  0  1  0  0  0  0  0999 V2000
  160.9340  212.6990  147.7880 C   0  0  2  0  0  3  0  0  0  0  0  0
  159.1220  212.5610  144.3970 C   0  0  0  0  0  2  0  0  0  0  0  0
  158.2570  212.8180  146.6950 C   0  0  0  0  0  2  0  0  0  0  0  0
  160.0720  213.8460  149.8540 C   0  0  0  0  0  3  0  0  0  0  0  0
  157.7370  214.4520  150.0740 C   0  0  0  0  0  3  0  0  0  0  0  0
  159.0320  214.4080  150.6010 C   0  0  0  0  0  3  0  0  0  0  0  0
  158.5210  213.3800  148.0510 C   0  0  0  0  0  0  0  0  0  0  0  0
  159.8220  213.3350  148.5760 C   0  0  0  0  0  0  0  0  0  0  0  0
  157.4800  213.9340  148.8010 C   0  0  0  0  0  3  0  0  0  0  0  0
  159.8330  213.3050  143.2750 C   0  0  0  0  0  2  0  0  0  0  0  0
  161.2860  213.1720  143.3900 N   0  0  0  0  0  0  0  0  0  0  0  0
  161.6970  214.2430  144.2960 C   0  0  0  0  0  2  0  0  0  0  0  0
  159.3770  213.2220  145.7440 C   0  0  1  0  0  3  0  0  0  0  0  0
  161.9060  213.7200  145.7180 C   0  0  0  0  0  2  0  0  0  0  0  0
  160.7840  212.8200  146.2560 C   0  0  1  0  0  3  0  0  0  0  0  0
  161.8720  213.4440  142.0700 C   0  0  0  0  0  3  0  0  0  0  0  0
  162.4270  212.1760  141.4380 C   0  0  0  0  0  1  0  0  0  0  0  0
  160.8330  214.0130  141.1140 C   0  0  0  0  0  1  0  0  0  0  0  0
  161.1470  211.2470  148.2070 C   0  0  0  0  0  2  0  0  0  0  0  0
  162.3450  211.1080  148.9190 O   0  0  0  0  0  0  0  0  0  0  0  0
  161.9690  210.6210  150.1720 C   0  0  0  0  0  2  0  0  0  0  0  0
  161.4310  207.0830  148.7460 C   0  0  0  0  0  2  0  0  0  0  0  0
  161.5400  208.4920  151.2210 N   0  0  0  0  0  0  0  0  0  0  0  0
  161.0950  204.2820  151.2950 C   0  0  0  0  0  0  0  0  0  0  0  0
  161.2180  204.9540  150.0700 C   0  0  0  0  0  3  0  0  0  0  0  0
  161.3890  206.3420  150.0470 C   0  0  0  0  0  0  0  0  0  0  0  0
  161.2650  206.3990  152.4700 C   0  0  0  0  0  3  0  0  0  0  0  0
  161.4040  207.0660  151.2500 C   0  0  0  0  0  0  0  0  0  0  0  0
  161.1130  205.0100  152.4920 C   0  0  0  0  0  3  0  0  0  0  0  0
  161.8390  209.1350  150.1330 C   0  0  0  0  0  0  0  0  0  0  0  0
  162.2170  208.3900  148.8790 C   0  0  0  0  0  2  0  0  0  0  0  0
  160.9380  202.7970  151.3520 C   0  0  1  0  0  3  0  0  0  0  0  0
  160.4040  202.2570  150.0380 C   0  0  0  0  0  1  0  0  0  0  0  0
  162.1580  202.1880  151.6590 O   0  0  0  0  0  1  0  0  0  0  0  0
  1 19  1  6  0  0  0
  1  8  1  0  0  0  0
  3  7  1  0  0  0  0
  4  6  1  0  0  0  0
  5  6  2  0  0  0  0
  7  8  1  0  0  0  0
  7  9  2  0  0  0  0
  8  4  2  0  0  0  0
  9  5  1  0  0  0  0
 10 11  1  0  0  0  0
 10  2  1  0  0  0  0
 11 12  1  0  0  0  0
 12 14  1  0  0  0  0
 13  2  1  6  0  0  0
 13 15  1  0  0  0  0
 13  3  1  0  0  0  0
 15 14  1  1  0  0  0
 15  1  1  0  0  0  0
 16 11  1  0  0  0  0
 17 16  1  0  0  0  0
 18 16  1  0  0  0  0
 19 20  1  0  0  0  0
 20 21  1  0  0  0  0
 22 31  1  0  0  0  0
 22 26  1  0  0  0  0
 23 28  1  0  0  0  0
 24 32  1  0  0  0  0
 24 29  1  0  0  0  0
 25 24  2  0  0  0  0
 26 25  1  0  0  0  0
 26 28  2  0  0  0  0
 27 29  2  0  0  0  0
 28 27  1  0  0  0  0
 30 21  1  0  0  0  0
 30 23  2  0  0  0  0
 31 30  1  0  0  0  0
 32 33  1  6  0  0  0
 32 34  1  0  0  0  0
M  END
>  <MODEL>
5

>  <REMARK>
 VINA RESULT:      -7.7      4.029      6.347
  Name = 
  6 active torsions:
  status: ('A' for Active; 'I' for Inactive)
    1  A    between atoms: C_1  and  C_9
    2  A    between atoms: C_3  and  N_25
    3  A    between atoms: C_7  and  C_11
    4  A    between atoms: O_8  and  C_9
    5  A    between atoms: O_8  and  C_18
    6  A    between atoms: C_18  and  C_30
                            x       y       z     vdW  Elec       q    Type
                         _______ _______ _______ _____ _____    ______ ____

>  <TORSDO>
F 6

$$$$
=
 OpenBabel11062409293D

 34 38  0  0  1  0  0  0  0  0999 V2000
  161.1980  210.3880  152.6360 C   0  0  2  0  0  3  0  0  0  0  0  0
  158.4440  212.6940  151.2550 C   0  0  0  0  0  2  0  0  0  0  0  0
  159.0320  212.0650  153.5700 C   0  0  0  0  0  2  0  0  0  0  0  0
  162.2320  210.5620  154.9210 C   0  0  0  0  0  3  0  0  0  0  0  0
  161.1630  211.8190  156.6940 C   0  0  0  0  0  3  0  0  0  0  0  0
  162.2180  211.0200  156.2430 C   0  0  0  0  0  3  0  0  0  0  0  0
  160.1410  211.7120  154.5020 C   0  0  0  0  0  0  0  0  0  0  0  0
  161.1980  210.9100  154.0470 C   0  0  0  0  0  0  0  0  0  0  0  0
  160.1210  212.1610  155.8260 C   0  0  0  0  0  3  0  0  0  0  0  0
  158.8820  213.5610  150.0830 C   0  0  0  0  0  2  0  0  0  0  0  0
  159.8070  212.8390  149.2080 N   0  0  0  0  0  0  0  0  0  0  0  0
  161.1300  213.0500  149.7950 C   0  0  0  0  0  2  0  0  0  0  0  0
  159.6040  212.4250  152.2040 C   0  0  1  0  0  3  0  0  0  0  0  0
  161.5650  211.8470  150.6340 C   0  0  0  0  0  2  0  0  0  0  0  0
  160.5070  211.3130  151.6100 C   0  0  1  0  0  3  0  0  0  0  0  0
  159.7860  213.4910  147.8900 C   0  0  0  0  0  3  0  0  0  0  0  0
  161.0860  213.2560  147.1360 C   0  0  0  0  0  1  0  0  0  0  0  0
  158.6540  212.9500  147.0290 C   0  0  0  0  0  1  0  0  0  0  0  0
  160.6290  208.9730  152.5710 C   0  0  0  0  0  2  0  0  0  0  0  0
  161.6460  208.0410  152.3270 O   0  0  0  0  0  0  0  0  0  0  0  0
  161.0980  206.8060  152.6800 C   0  0  0  0  0  2  0  0  0  0  0  0
  160.7860  205.6250  149.0260 C   0  0  0  0  0  2  0  0  0  0  0  0
  160.9090  204.6150  151.6880 N   0  0  0  0  0  0  0  0  0  0  0  0
  160.8280  201.8640  148.4710 C   0  0  0  0  0  0  0  0  0  0  0  0
  160.8260  203.2430  148.2170 C   0  0  0  0  0  3  0  0  0  0  0  0
  160.8770  204.1510  149.2780 C   0  0  0  0  0  0  0  0  0  0  0  0
  160.8820  202.3090  150.8570 C   0  0  0  0  0  3  0  0  0  0  0  0
  160.8970  203.6820  150.6020 C   0  0  0  0  0  0  0  0  0  0  0  0
  160.8500  201.4020  149.7930 C   0  0  0  0  0  3  0  0  0  0  0  0
  161.0920  205.8880  151.5030 C   0  0  0  0  0  0  0  0  0  0  0  0
  161.4640  206.4220  150.1440 C   0  0  0  0  0  2  0  0  0  0  0  0
  160.8010  200.8690  147.3560 C   0  0  1  0  0  3  0  0  0  0  0  0
  160.9000  201.5630  146.0090 C   0  0  0  0  0  1  0  0  0  0  0  0
  161.8420  199.9470  147.4980 O   0  0  0  0  0  1  0  0  0  0  0  0
  1 19  1  1  0  0  0
  1  8  1  0  0  0  0
  3  7  1  0  0  0  0
  4  6  1  0  0  0  0
  6  5  2  0  0  0  0
  7  9  2  0  0  0  0
  8  7  1  0  0  0  0
  8  4  2  0  0  0  0
  9  5  1  0  0  0  0
 10  2  1  0  0  0  0
 11 12  1  0  0  0  0
 11 10  1  0  0  0  0
 12 14  1  0  0  0  0
 13  2  1  6  0  0  0
 13  3  1  0  0  0  0
 15 14  1  1  0  0  0
 15 13  1  0  0  0  0
 15  1  1  0  0  0  0
 16 11  1  0  0  0  0
 17 16  1  0  0  0  0
 18 16  1  0  0  0  0
 20 19  1  0  0  0  0
 20 21  1  0  0  0  0
 22 26  1  0  0  0  0
 22 31  1  0  0  0  0
 24 29  1  0  0  0  0
 25 24  2  0  0  0  0
 25 26  1  0  0  0  0
 26 28  2  0  0  0  0
 28 27  1  0  0  0  0
 28 23  1  0  0  0  0
 29 27  2  0  0  0  0
 30 23  2  0  0  0  0
 30 21  1  0  0  0  0
 31 30  1  0  0  0  0
 32 33  1  6  0  0  0
 32 34  1  0  0  0  0
 32 24  1  0  0  0  0
M  END
>  <MODEL>
6

>  <REMARK>
 VINA RESULT:      -7.6      1.535      2.013
  Name = 
  6 active torsions:
  status: ('A' for Active; 'I' for Inactive)
    1  A    between atoms: C_1  and  C_9
    2  A    between atoms: C_3  and  N_25
    3  A    between atoms: C_7  and  C_11
    4  A    between atoms: O_8  and  C_9
    5  A    between atoms: O_8  and  C_18
    6  A    between atoms: C_18  and  C_30
                            x       y       z     vdW  Elec       q    Type
                         _______ _______ _______ _____ _____    ______ ____

>  <TORSDO>
F 6

$$$$
=
 OpenBabel11062409293D

 34 38  0  0  1  0  0  0  0  0999 V2000
  160.9130  207.6650  152.8350 C   0  0  2  0  0  3  0  0  0  0  0  0
  161.9300  210.9610  154.5380 C   0  0  0  0  0  2  0  0  0  0  0  0
  162.5190  210.0190  152.3330 C   0  0  0  0  0  2  0  0  0  0  0  0
  160.8230  207.2760  150.3520 C   0  0  0  0  0  3  0  0  0  0  0  0
  161.9550  208.7570  148.8050 C   0  0  0  0  0  3  0  0  0  0  0  0
  161.1680  207.6250  149.0430 C   0  0  0  0  0  3  0  0  0  0  0  0
  162.0460  209.1960  151.1840 C   0  0  0  0  0  0  0  0  0  0  0  0
  161.2560  208.0610  151.4250 C   0  0  0  0  0  0  0  0  0  0  0  0
  162.3980  209.5400  149.8750 C   0  0  0  0  0  3  0  0  0  0  0  0
  160.8070  211.6420  155.3090 C   0  0  0  0  0  2  0  0  0  0  0  0
  159.9440  210.6570  155.9640 N   0  0  0  0  0  0  0  0  0  0  0  0
  158.9570  210.2810  154.9530 C   0  0  0  0  0  2  0  0  0  0  0  0
  161.3890  210.1940  153.3410 C   0  0  1  0  0  3  0  0  0  0  0  0
  159.3290  208.9600  154.2780 C   0  0  0  0  0  2  0  0  0  0  0  0
  160.7910  208.8460  153.8220 C   0  0  1  0  0  3  0  0  0  0  0  0
  159.2360  211.3340  157.0610 C   0  0  0  0  0  3  0  0  0  0  0  0
  159.7510  212.7520  157.2610 C   0  0  0  0  0  1  0  0  0  0  0  0
  157.7440  211.4260  156.7770 C   0  0  0  0  0  1  0  0  0  0  0  0
  161.8810  206.6070  153.3610 C   0  0  0  0  0  2  0  0  0  0  0  0
  162.1720  205.6640  152.3680 O   0  0  0  0  0  0  0  0  0  0  0  0
  161.3670  204.5620  152.6670 C   0  0  0  0  0  2  0  0  0  0  0  0
  160.8760  201.4490  150.4520 C   0  0  0  0  0  2  0  0  0  0  0  0
  161.4240  204.2400  150.2780 N   0  0  0  0  0  0  0  0  0  0  0  0
  160.8840  202.0460  146.6970 C   0  0  0  0  0  0  0  0  0  0  0  0
  160.7610  201.4050  147.9390 C   0  0  0  0  0  3  0  0  0  0  0  0
  160.9160  202.1350  149.1220 C   0  0  0  0  0  0  0  0  0  0  0  0
  161.3670  204.1380  147.8280 C   0  0  0  0  0  3  0  0  0  0  0  0
  161.2270  203.5040  149.0650 C   0  0  0  0  0  0  0  0  0  0  0  0
  161.1930  203.4110  146.6470 C   0  0  0  0  0  3  0  0  0  0  0  0
  161.1420  203.7390  151.4430 C   0  0  0  0  0  0  0  0  0  0  0  0
  160.4390  202.4120  151.5600 C   0  0  0  0  0  2  0  0  0  0  0  0
  160.6980  201.2970  145.4170 C   0  0  1  0  0  3  0  0  0  0  0  0
  160.8310  199.8010  145.6400 C   0  0  0  0  0  1  0  0  0  0  0  0
  159.4510  201.5890  144.8580 O   0  0  0  0  0  1  0  0  0  0  0  0
  1 19  1  1  0  0  0
  1 15  1  0  0  0  0
  2 10  1  0  0  0  0
  4  8  1  0  0  0  0
  5  6  1  0  0  0  0
  5  9  2  0  0  0  0
  6  4  2  0  0  0  0
  7  8  2  0  0  0  0
  7  3  1  0  0  0  0
  8  1  1  0  0  0  0
  9  7  1  0  0  0  0
 10 11  1  0  0  0  0
 11 16  1  0  0  0  0
 12 11  1  0  0  0  0
 13  3  1  6  0  0  0
 13 15  1  0  0  0  0
 13  2  1  0  0  0  0
 14 12  1  0  0  0  0
 15 14  1  6  0  0  0
 16 17  1  0  0  0  0
 18 16  1  0  0  0  0
 20 21  1  0  0  0  0
 20 19  1  0  0  0  0
 22 31  1  0  0  0  0
 23 30  2  0  0  0  0
 24 25  1  0  0  0  0
 25 26  2  0  0  0  0
 26 22  1  0  0  0  0
 27 28  2  0  0  0  0
 28 26  1  0  0  0  0
 28 23  1  0  0  0  0
 29 24  2  0  0  0  0
 29 27  1  0  0  0  0
 30 31  1  0  0  0  0
 30 21  1  0  0  0  0
 32 33  1  1  0  0  0
 32 24  1  0  0  0  0
 34 32  1  0  0  0  0
M  END
>  <MODEL>
7

>  <REMARK>
 VINA RESULT:      -7.4      2.987      5.020
  Name = 
  6 active torsions:
  status: ('A' for Active; 'I' for Inactive)
    1  A    between atoms: C_1  and  C_9
    2  A    between atoms: C_3  and  N_25
    3  A    between atoms: C_7  and  C_11
    4  A    between atoms: O_8  and  C_9
    5  A    between atoms: O_8  and  C_18
    6  A    between atoms: C_18  and  C_30
                            x       y       z     vdW  Elec       q    Type
                         _______ _______ _______ _____ _____    ______ ____

>  <TORSDO>
F 6

$$$$
=
 OpenBabel11062409293D

 34 38  0  0  1  0  0  0  0  0999 V2000
  160.7080  211.2190  153.7590 C   0  0  2  0  0  3  0  0  0  0  0  0
  157.0820  210.5100  154.8320 C   0  0  0  0  0  2  0  0  0  0  0  0
  159.2280  209.6040  155.6500 C   0  0  0  0  0  2  0  0  0  0  0  0
  162.7370  210.9580  155.2220 C   0  0  0  0  0  3  0  0  0  0  0  0
  162.6580  209.6520  157.2610 C   0  0  0  0  0  3  0  0  0  0  0  0
  163.3730  210.4420  156.3560 C   0  0  0  0  0  3  0  0  0  0  0  0
  160.6670  209.8980  155.9060 C   0  0  0  0  0  0  0  0  0  0  0  0
  161.3820  210.6920  154.9960 C   0  0  0  0  0  0  0  0  0  0  0  0
  161.3060  209.3750  157.0340 C   0  0  0  0  0  3  0  0  0  0  0  0
  156.1870  211.7410  154.8730 C   0  0  0  0  0  2  0  0  0  0  0  0
  156.5140  212.6680  153.7870 N   0  0  0  0  0  0  0  0  0  0  0  0
  157.5990  213.4980  154.3070 C   0  0  0  0  0  2  0  0  0  0  0  0
  158.5230  210.8660  155.1660 C   0  0  1  0  0  3  0  0  0  0  0  0
  158.9600  213.0120  153.8080 C   0  0  0  0  0  2  0  0  0  0  0  0
  159.1980  211.4990  153.9220 C   0  0  1  0  0  3  0  0  0  0  0  0
  155.3470  213.5330  153.5630 C   0  0  0  0  0  3  0  0  0  0  0  0
  155.0680  214.4120  154.7740 C   0  0  0  0  0  1  0  0  0  0  0  0
  155.5650  214.4530  152.3710 C   0  0  0  0  0  1  0  0  0  0  0  0
  160.9730  210.3140  152.5590 C   0  0  0  0  0  2  0  0  0  0  0  0
  160.2590  209.1150  152.6750 O   0  0  0  0  0  0  0  0  0  0  0  0
  161.2310  208.1300  152.8590 C   0  0  0  0  0  2  0  0  0  0  0  0
  161.6610  204.8590  150.8700 C   0  0  0  0  0  2  0  0  0  0  0  0
  161.3250  207.6640  150.4940 N   0  0  0  0  0  0  0  0  0  0  0  0
  161.3960  205.1500  147.0870 C   0  0  0  0  0  0  0  0  0  0  0  0
  161.5050  204.5970  148.3720 C   0  0  0  0  0  3  0  0  0  0  0  0
  161.4570  205.4250  149.4980 C   0  0  0  0  0  0  0  0  0  0  0  0
  161.2430  207.3680  148.0610 C   0  0  0  0  0  3  0  0  0  0  0  0
  161.3340  206.8150  149.3400 C   0  0  0  0  0  0  0  0  0  0  0  0
  161.2720  206.5370  146.9370 C   0  0  0  0  0  3  0  0  0  0  0  0
  161.2390  207.1890  151.7000 C   0  0  0  0  0  0  0  0  0  0  0  0
  160.9780  205.7230  151.9330 C   0  0  0  0  0  2  0  0  0  0  0  0
  161.4180  204.2880  145.8670 C   0  0  1  0  0  3  0  0  0  0  0  0
  160.4660  204.8190  144.8110 C   0  0  0  0  0  1  0  0  0  0  0  0
  162.7130  204.2080  145.3480 O   0  0  0  0  0  1  0  0  0  0  0  0
  1 19  1  6  0  0  0
  1 15  1  0  0  0  0
  1  8  1  0  0  0  0
  2 10  1  0  0  0  0
  3  7  1  0  0  0  0
  4  6  1  0  0  0  0
  6  5  2  0  0  0  0
  7  9  2  0  0  0  0
  8  4  2  0  0  0  0
  8  7  1  0  0  0  0
  9  5  1  0  0  0  0
 11 12  1  0  0  0  0
 11 10  1  0  0  0  0
 13  2  1  6  0  0  0
 13  3  1  0  0  0  0
 14 12  1  0  0  0  0
 15 14  1  1  0  0  0
 15 13  1  0  0  0  0
 16 11  1  0  0  0  0
 16 17  1  0  0  0  0
 18 16  1  0  0  0  0
 19 20  1  0  0  0  0
 20 21  1  0  0  0  0
 22 31  1  0  0  0  0
 23 30  2  0  0  0  0
 24 25  1  0  0  0  0
 25 26  2  0  0  0  0
 26 22  1  0  0  0  0
 27 28  2  0  0  0  0
 28 26  1  0  0  0  0
 28 23  1  0  0  0  0
 29 24  2  0  0  0  0
 29 27  1  0  0  0  0
 30 31  1  0  0  0  0
 30 21  1  0  0  0  0
 32 33  1  6  0  0  0
 32 24  1  0  0  0  0
 34 32  1  0  0  0  0
M  END
>  <MODEL>
8

>  <REMARK>
 VINA RESULT:      -7.3      1.951      2.772
  Name = 
  6 active torsions:
  status: ('A' for Active; 'I' for Inactive)
    1  A    between atoms: C_1  and  C_9
    2  A    between atoms: C_3  and  N_25
    3  A    between atoms: C_7  and  C_11
    4  A    between atoms: O_8  and  C_9
    5  A    between atoms: O_8  and  C_18
    6  A    between atoms: C_18  and  C_30
                            x       y       z     vdW  Elec       q    Type
                         _______ _______ _______ _____ _____    ______ ____

>  <TORSDO>
F 6

$$$$
=
 OpenBabel11062409293D

 34 38  0  0  1  0  0  0  0  0999 V2000
  161.2920  208.7930  151.6300 C   0  0  2  0  0  3  0  0  0  0  0  0
  162.0580  205.0240  151.7130 C   0  0  0  0  0  2  0  0  0  0  0  0
  161.6460  206.6410  153.5320 C   0  0  0  0  0  2  0  0  0  0  0  0
  160.0310  210.0620  153.3970 C   0  0  0  0  0  3  0  0  0  0  0  0
  159.7060  209.1430  155.6150 C   0  0  0  0  0  3  0  0  0  0  0  0
  159.5220  210.1810  154.6940 C   0  0  0  0  0  3  0  0  0  0  0  0
  160.8990  207.8660  153.9410 C   0  0  0  0  0  0  0  0  0  0  0  0
  160.7160  208.9050  153.0150 C   0  0  0  0  0  0  0  0  0  0  0  0
  160.3990  207.9880  155.2400 C   0  0  0  0  0  3  0  0  0  0  0  0
  161.3650  204.2190  150.6220 C   0  0  0  0  0  2  0  0  0  0  0  0
  161.2980  204.9750  149.3700 N   0  0  0  0  0  0  0  0  0  0  0  0
  160.0840  205.7820  149.4780 C   0  0  0  0  0  2  0  0  0  0  0  0
  161.2160  206.2200  152.1320 C   0  0  1  0  0  3  0  0  0  0  0  0
  160.4050  207.2170  149.8980 C   0  0  0  0  0  2  0  0  0  0  0  0
  161.3720  207.3510  151.0830 C   0  0  1  0  0  3  0  0  0  0  0  0
  161.1100  204.0160  148.2720 C   0  0  0  0  0  3  0  0  0  0  0  0
  162.0360  204.3230  147.1040 C   0  0  0  0  0  1  0  0  0  0  0  0
  161.4050  202.5940  148.7270 C   0  0  0  0  0  1  0  0  0  0  0  0
  162.6460  209.4920  151.5380 C   0  0  0  0  0  2  0  0  0  0  0  0
  162.8290  210.0520  150.2680 O   0  0  0  0  0  0  0  0  0  0  0  0
  161.8310  211.0220  150.1510 C   0  0  0  0  0  2  0  0  0  0  0  0
  163.0740  213.3050  147.3080 C   0  0  0  0  0  2  0  0  0  0  0  0
  160.8330  211.7150  148.0670 N   0  0  0  0  0  0  0  0  0  0  0  0
  160.8230  213.5540  144.2530 C   0  0  0  0  0  0  0  0  0  0  0  0
  161.9280  213.7060  145.1040 C   0  0  0  0  0  3  0  0  0  0  0  0
  161.9410  213.0790  146.3530 C   0  0  0  0  0  0  0  0  0  0  0  0
  159.7250  212.1860  145.9310 C   0  0  0  0  0  3  0  0  0  0  0  0
  160.8330  212.3240  146.7700 C   0  0  0  0  0  0  0  0  0  0  0  0
  159.7220  212.7980  144.6740 C   0  0  0  0  0  3  0  0  0  0  0  0
  161.8980  211.6750  148.8110 C   0  0  0  0  0  0  0  0  0  0  0  0
  163.2310  212.1250  148.2700 C   0  0  0  0  0  2  0  0  0  0  0  0
  160.7920  214.1900  142.9010 C   0  0  1  0  0  3  0  0  0  0  0  0
  162.1980  214.4190  142.3770 C   0  0  0  0  0  1  0  0  0  0  0  0
  160.0700  213.3970  142.0050 O   0  0  0  0  0  1  0  0  0  0  0  0
  1 19  1  1  0  0  0
  1  8  1  0  0  0  0
  3  7  1  0  0  0  0
  4  6  1  0  0  0  0
  6  5  2  0  0  0  0
  7  9  2  0  0  0  0
  8  4  2  0  0  0  0
  8  7  1  0  0  0  0
  9  5  1  0  0  0  0
 10  2  1  0  0  0  0
 11 12  1  0  0  0  0
 11 10  1  0  0  0  0
 12 14  1  0  0  0  0
 13  2  1  6  0  0  0
 13  3  1  0  0  0  0
 15 14  1  6  0  0  0
 15  1  1  0  0  0  0
 15 13  1  0  0  0  0
 16 18  1  0  0  0  0
 16 11  1  0  0  0  0
 17 16  1  0  0  0  0
 20 19  1  0  0  0  0
 21 20  1  0  0  0  0
 22 31  1  0  0  0  0
 23 30  2  0  0  0  0
 24 29  2  0  0  0  0
 24 25  1  0  0  0  0
 25 26  2  0  0  0  0
 26 28  1  0  0  0  0
 26 22  1  0  0  0  0
 27 28  2  0  0  0  0
 28 23  1  0  0  0  0
 29 27  1  0  0  0  0
 30 21  1  0  0  0  0
 31 30  1  0  0  0  0
 32 33  1  6  0  0  0
 32 24  1  0  0  0  0
 34 32  1  0  0  0  0
M  END
>  <MODEL>
9

>  <REMARK>
 VINA RESULT:      -7.2      3.985      8.201
  Name = 
  6 active torsions:
  status: ('A' for Active; 'I' for Inactive)
    1  A    between atoms: C_1  and  C_9
    2  A    between atoms: C_3  and  N_25
    3  A    between atoms: C_7  and  C_11
    4  A    between atoms: O_8  and  C_9
    5  A    between atoms: O_8  and  C_18
    6  A    between atoms: C_18  and  C_30
                            x       y       z     vdW  Elec       q    Type
                         _______ _______ _______ _____ _____    ______ ____

>  <TORSDO>
F 6

$$$$
