=
 OpenBabel11062408233D

 32 37  0  0  0  0  0  0  0  0999 V2000
  161.0900  205.3190  150.7230 C   0  0  0  0  0  0  0  0  0  0  0  0
  161.4130  207.6860  151.4940 C   0  0  0  0  0  0  0  0  0  0  0  0
  160.9060  203.9490  150.9780 C   0  0  0  0  0  3  0  0  0  0  0  0
  161.2070  206.2410  151.8220 C   0  0  0  0  0  0  0  0  0  0  0  0
  161.5400  208.7190  152.3740 C   0  0  0  0  0  0  0  0  0  0  0  0
  162.0130  211.0850  147.9710 C   0  0  0  0  0  3  0  0  0  0  0  0
  161.4910  208.0300  150.0420 C   0  0  0  0  0  0  0  0  0  0  0  0
  162.0150  211.6590  150.3210 C   0  0  0  0  0  3  0  0  0  0  0  0
  161.8130  210.3160  150.6550 C   0  0  0  0  0  0  0  0  0  0  0  0
  161.3450  207.6570  154.5510 C   0  0  0  0  0  0  0  0  0  0  0  0
  161.1270  205.7130  153.1400 C   0  0  0  0  0  0  0  0  0  0  0  0
  161.7300  209.9630  151.9260 O   0  0  0  0  0  0  0  0  0  0  0  0
  161.1950  206.3810  154.2700 O   0  0  0  0  0  0  0  0  0  0  0  0
  160.9510  204.3400  153.3280 C   0  0  0  0  0  3  0  0  0  0  0  0
  161.3540  207.0350  149.0880 C   0  0  0  0  0  3  0  0  0  0  0  0
  161.3470  207.9790  155.8020 N   0  0  0  0  0  2  0  0  0  0  0  0
  161.1580  205.7390  149.4190 N   0  0  0  0  0  0  0  0  0  0  0  0
  161.7020  209.3530  149.6490 C   0  0  0  0  0  0  0  0  0  0  0  0
  161.4990  208.6420  153.6900 O   0  0  0  0  0  0  0  0  0  0  0  0
  160.8370  203.4600  152.2660 C   0  0  0  0  0  3  0  0  0  0  0  0
  162.1140  212.0440  148.9810 C   0  0  0  0  0  3  0  0  0  0  0  0
  161.8040  209.7420  148.3020 C   0  0  0  0  0  3  0  0  0  0  0  0
  161.3880  204.7270  145.8540 C   0  0  0  0  0  0  0  0  0  0  0  0
  160.9040  201.1600  145.5980 C   0  0  0  0  0  1  0  0  0  0  0  0
  161.2630  205.3190  144.6350 F   0  0  0  0  0  0  0  0  0  0  0  0
  160.6890  202.3900  147.6860 C   0  0  0  0  0  3  0  0  0  0  0  0
  161.0340  204.8140  148.3260 C   0  0  0  0  0  0  0  0  0  0  0  0
  162.0920  203.4100  145.9290 C   0  0  0  0  0  2  0  0  0  0  0  0
  160.8640  203.5120  148.6270 C   0  0  0  0  0  3  0  0  0  0  0  0
  160.9560  205.3710  146.9460 C   0  0  0  0  0  0  0  0  0  0  0  0
  160.4300  206.6510  146.7910 O   0  0  0  0  0  1  0  0  0  0  0  0
  161.1820  202.3470  146.4480 C   0  0  0  0  0  0  0  0  0  0  0  0
  1  3  2  0  0  0  0
  1  4  1  0  0  0  0
  2  4  1  0  0  0  0
  2  5  2  0  0  0  0
  3 20  1  0  0  0  0
  4 11  2  0  0  0  0
  5 19  1  0  0  0  0
  6 22  2  0  0  0  0
  6 21  1  0  0  0  0
  7  2  1  0  0  0  0
  8  9  1  0  0  0  0
  9 12  1  0  0  0  0
 10 16  2  0  0  0  0
 11 14  1  0  0  0  0
 11 13  1  0  0  0  0
 12  5  1  0  0  0  0
 13 10  1  0  0  0  0
 15 17  1  0  0  0  0
 15  7  2  0  0  0  0
 17  1  1  0  0  0  0
 18  7  1  0  0  0  0
 18  9  2  0  0  0  0
 19 10  1  0  0  0  0
 20 14  2  0  0  0  0
 21  8  2  0  0  0  0
 22 18  1  0  0  0  0
 23 28  1  0  0  0  0
 23 30  2  0  0  0  0
 24 32  1  0  0  0  0
 25 23  1  0  0  0  0
 26 29  1  0  0  0  0
 27 29  2  0  0  0  0
 27 17  1  0  0  0  0
 28 32  1  0  0  0  0
 30 27  1  0  0  0  0
 31 30  1  0  0  0  0
 32 26  2  0  0  0  0
M  END
>  <MODEL>
1

>  <REMARK>
 VINA RESULT:      -9.6      0.000      0.000
  Name = 
  1 active torsions:
  status: ('A' for Active; 'I' for Inactive)
    1  A    between atoms: C_16  and  N_27
                            x       y       z     vdW  Elec       q    Type
                         _______ _______ _______ _____ _____    ______ ____

>  <TORSDO>
F 1

$$$$
=
 OpenBabel11062408233D

 32 37  0  0  0  0  0  0  0  0999 V2000
  160.8790  207.6790  152.6120 C   0  0  0  0  0  0  0  0  0  0  0  0
  160.8550  210.1690  152.2990 C   0  0  0  0  0  0  0  0  0  0  0  0
  160.7670  206.5320  153.4170 C   0  0  0  0  0  3  0  0  0  0  0  0
  160.7140  208.9830  153.1990 C   0  0  0  0  0  0  0  0  0  0  0  0
  160.7300  211.4820  152.6440 C   0  0  0  0  0  0  0  0  0  0  0  0
  161.8060  211.8250  147.7520 C   0  0  0  0  0  3  0  0  0  0  0  0
  161.1700  209.8800  150.8680 C   0  0  0  0  0  0  0  0  0  0  0  0
  161.3270  213.3250  149.5880 C   0  0  0  0  0  3  0  0  0  0  0  0
  161.1800  212.2320  150.4490 C   0  0  0  0  0  0  0  0  0  0  0  0
  160.2270  211.4160  155.0200 C   0  0  0  0  0  0  0  0  0  0  0  0
  160.4370  209.0510  154.5920 C   0  0  0  0  0  0  0  0  0  0  0  0
  160.8950  212.4370  151.7240 O   0  0  0  0  0  0  0  0  0  0  0  0
  160.2390  210.1330  155.3120 O   0  0  0  0  0  0  0  0  0  0  0  0
  160.3450  207.8750  155.3400 C   0  0  0  0  0  3  0  0  0  0  0  0
  161.2960  208.5690  150.4390 C   0  0  0  0  0  3  0  0  0  0  0  0
  159.9710  212.2290  155.9900 N   0  0  0  0  0  2  0  0  0  0  0  0
  161.1510  207.5190  151.2770 N   0  0  0  0  0  0  0  0  0  0  0  0
  161.3380  210.9320  149.9640 C   0  0  0  0  0  0  0  0  0  0  0  0
  160.4540  211.9600  153.8420 O   0  0  0  0  0  0  0  0  0  0  0  0
  160.5030  206.6240  154.7680 C   0  0  0  0  0  3  0  0  0  0  0  0
  161.6390  213.1220  148.2410 C   0  0  0  0  0  3  0  0  0  0  0  0
  161.6540  210.7300  148.6090 C   0  0  0  0  0  3  0  0  0  0  0  0
  161.8930  203.8820  151.3780 C   0  0  0  0  0  0  0  0  0  0  0  0
  161.0370  202.4060  148.1980 C   0  0  0  0  0  1  0  0  0  0  0  0
  162.6770  203.0400  152.1050 F   0  0  0  0  0  0  0  0  0  0  0  0
  160.9130  204.7950  148.6370 C   0  0  0  0  0  3  0  0  0  0  0  0
  161.3090  206.2140  150.6960 C   0  0  0  0  0  0  0  0  0  0  0  0
  160.7660  203.2930  150.5910 C   0  0  0  0  0  2  0  0  0  0  0  0
  160.8440  206.0280  149.4450 C   0  0  0  0  0  3  0  0  0  0  0  0
  162.0990  205.2040  151.4540 C   0  0  0  0  0  0  0  0  0  0  0  0
  163.0900  205.6670  152.3150 O   0  0  0  0  0  1  0  0  0  0  0  0
  160.9390  203.5580  149.1320 C   0  0  0  0  0  0  0  0  0  0  0  0
  1  4  2  0  0  0  0
  1  3  1  0  0  0  0
  2  5  2  0  0  0  0
  2  4  1  0  0  0  0
  3 20  2  0  0  0  0
  4 11  1  0  0  0  0
  5 19  1  0  0  0  0
  6 21  2  0  0  0  0
  6 22  1  0  0  0  0
  7  2  1  0  0  0  0
  8  9  2  0  0  0  0
  9 12  1  0  0  0  0
 10 13  1  0  0  0  0
 10 16  2  0  0  0  0
 11 13  1  0  0  0  0
 11 14  2  0  0  0  0
 12  5  1  0  0  0  0
 15  7  2  0  0  0  0
 15 17  1  0  0  0  0
 17  1  1  0  0  0  0
 18  9  1  0  0  0  0
 18  7  1  0  0  0  0
 19 10  1  0  0  0  0
 20 14  1  0  0  0  0
 21  8  1  0  0  0  0
 22 18  2  0  0  0  0
 23 30  2  0  0  0  0
 23 25  1  0  0  0  0
 24 32  1  0  0  0  0
 26 32  2  0  0  0  0
 26 29  1  0  0  0  0
 27 17  1  0  0  0  0
 27 30  1  0  0  0  0
 28 23  1  0  0  0  0
 29 27  2  0  0  0  0
 30 31  1  0  0  0  0
 32 28  1  0  0  0  0
M  END
>  <MODEL>
2

>  <REMARK>
 VINA RESULT:      -8.1      2.522      3.582
  Name = 
  1 active torsions:
  status: ('A' for Active; 'I' for Inactive)
    1  A    between atoms: C_16  and  N_27
                            x       y       z     vdW  Elec       q    Type
                         _______ _______ _______ _____ _____    ______ ____

>  <TORSDO>
F 1

$$$$
=
 OpenBabel11062408233D

 32 37  0  0  0  0  0  0  0  0999 V2000
  161.4330  208.1630  150.6280 C   0  0  0  0  0  0  0  0  0  0  0  0
  161.4000  205.9070  149.5300 C   0  0  0  0  0  0  0  0  0  0  0  0
  161.6320  209.5540  150.5910 C   0  0  0  0  0  3  0  0  0  0  0  0
  161.6140  207.3840  149.4320 C   0  0  0  0  0  0  0  0  0  0  0  0
  161.5100  204.9910  148.5260 C   0  0  0  0  0  0  0  0  0  0  0  0
  160.3090  202.0670  152.4260 C   0  0  0  0  0  3  0  0  0  0  0  0
  161.0290  205.3800  150.8780 C   0  0  0  0  0  0  0  0  0  0  0  0
  160.7760  201.8020  150.0680 C   0  0  0  0  0  3  0  0  0  0  0  0
  160.9730  203.1820  149.9470 C   0  0  0  0  0  0  0  0  0  0  0  0
  162.1160  206.3230  146.5860 C   0  0  0  0  0  0  0  0  0  0  0  0
  161.9910  208.0710  148.2450 C   0  0  0  0  0  0  0  0  0  0  0  0
  161.2960  203.6950  148.7720 O   0  0  0  0  0  0  0  0  0  0  0  0
  162.1910  207.5500  147.0540 O   0  0  0  0  0  0  0  0  0  0  0  0
  162.1810  209.4540  148.2750 C   0  0  0  0  0  3  0  0  0  0  0  0
  160.8820  206.2530  151.9440 C   0  0  0  0  0  3  0  0  0  0  0  0
  162.3620  206.1670  145.3280 N   0  0  0  0  0  2  0  0  0  0  0  0
  161.0730  207.5850  151.8180 N   0  0  0  0  0  0  0  0  0  0  0  0
  160.8300  204.0100  151.0610 C   0  0  0  0  0  0  0  0  0  0  0  0
  161.8220  205.2350  147.2680 O   0  0  0  0  0  0  0  0  0  0  0  0
  162.0030  210.1980  149.4280 C   0  0  0  0  0  3  0  0  0  0  0  0
  160.4450  201.2440  151.3050 C   0  0  0  0  0  3  0  0  0  0  0  0
  160.4980  203.4470  152.3060 C   0  0  0  0  0  3  0  0  0  0  0  0
  161.5800  208.3850  155.4080 C   0  0  0  0  0  0  0  0  0  0  0  0
  160.2550  211.6720  156.0910 C   0  0  0  0  0  1  0  0  0  0  0  0
  161.7960  207.7030  156.5660 F   0  0  0  0  0  0  0  0  0  0  0  0
  160.0420  210.5690  153.9340 C   0  0  0  0  0  3  0  0  0  0  0  0
  160.8870  208.3700  153.0070 C   0  0  0  0  0  0  0  0  0  0  0  0
  161.9090  209.8430  155.3780 C   0  0  0  0  0  2  0  0  0  0  0  0
  160.3490  209.5970  152.8670 C   0  0  0  0  0  3  0  0  0  0  0  0
  161.1630  207.7230  154.3210 C   0  0  0  0  0  0  0  0  0  0  0  0
  161.0080  206.3430  154.4100 O   0  0  0  0  0  1  0  0  0  0  0  0
  160.6910  210.6600  155.0940 C   0  0  0  0  0  0  0  0  0  0  0  0
  1 17  1  0  0  0  0
  2  7  1  0  0  0  0
  3  1  1  0  0  0  0
  4  2  1  0  0  0  0
  4  1  2  0  0  0  0
  5 12  1  0  0  0  0
  5  2  2  0  0  0  0
  7 18  1  0  0  0  0
  7 15  2  0  0  0  0
  8 21  1  0  0  0  0
  9  8  2  0  0  0  0
  9 18  1  0  0  0  0
 10 13  1  0  0  0  0
 10 19  1  0  0  0  0
 11 14  2  0  0  0  0
 11  4  1  0  0  0  0
 12  9  1  0  0  0  0
 13 11  1  0  0  0  0
 14 20  1  0  0  0  0
 16 10  2  0  0  0  0
 17 15  1  0  0  0  0
 17 27  1  0  0  0  0
 18 22  2  0  0  0  0
 19  5  1  0  0  0  0
 20  3  2  0  0  0  0
 21  6  2  0  0  0  0
 22  6  1  0  0  0  0
 23 25  1  0  0  0  0
 26 32  2  0  0  0  0
 27 30  1  0  0  0  0
 28 23  1  0  0  0  0
 29 27  2  0  0  0  0
 29 26  1  0  0  0  0
 30 31  1  0  0  0  0
 30 23  2  0  0  0  0
 32 28  1  0  0  0  0
 32 24  1  0  0  0  0
M  END
>  <MODEL>
3

>  <REMARK>
 VINA RESULT:      -7.9      2.937      8.132
  Name = 
  1 active torsions:
  status: ('A' for Active; 'I' for Inactive)
    1  A    between atoms: C_16  and  N_27
                            x       y       z     vdW  Elec       q    Type
                         _______ _______ _______ _____ _____    ______ ____

>  <TORSDO>
F 1

$$$$
=
 OpenBabel11062408233D

 32 37  0  0  0  0  0  0  0  0999 V2000
  160.8210  209.1430  152.3480 C   0  0  0  0  0  0  0  0  0  0  0  0
  161.5850  209.7130  150.0270 C   0  0  0  0  0  0  0  0  0  0  0  0
  160.5730  208.2170  153.3770 C   0  0  0  0  0  3  0  0  0  0  0  0
  161.3510  208.6880  151.0900 C   0  0  0  0  0  0  0  0  0  0  0  0
  162.0860  209.5020  148.7770 C   0  0  0  0  0  0  0  0  0  0  0  0
  161.2580  214.4530  148.7050 C   0  0  0  0  0  3  0  0  0  0  0  0
  161.2290  211.1210  150.3760 C   0  0  0  0  0  0  0  0  0  0  0  0
  162.1220  212.7610  147.2080 C   0  0  0  0  0  3  0  0  0  0  0  0
  161.9210  211.7840  148.1890 C   0  0  0  0  0  0  0  0  0  0  0  0
  162.4980  207.1080  148.7100 C   0  0  0  0  0  0  0  0  0  0  0  0
  161.6080  207.2960  150.9450 C   0  0  0  0  0  0  0  0  0  0  0  0
  162.2290  210.5250  147.9290 O   0  0  0  0  0  0  0  0  0  0  0  0
  162.1020  206.6850  149.8910 O   0  0  0  0  0  0  0  0  0  0  0  0
  161.3330  206.4260  152.0020 C   0  0  0  0  0  3  0  0  0  0  0  0
  160.7300  211.4160  151.6350 C   0  0  0  0  0  3  0  0  0  0  0  0
  162.9630  206.2160  147.9010 N   0  0  0  0  0  2  0  0  0  0  0  0
  160.5410  210.4660  152.5770 N   0  0  0  0  0  0  0  0  0  0  0  0
  161.3970  212.1380  149.4340 C   0  0  0  0  0  0  0  0  0  0  0  0
  162.4660  208.3480  148.2650 O   0  0  0  0  0  0  0  0  0  0  0  0
  160.8250  206.8710  153.2100 C   0  0  0  0  0  3  0  0  0  0  0  0
  161.7910  214.0950  147.4650 C   0  0  0  0  0  3  0  0  0  0  0  0
  161.0630  213.4790  149.6900 C   0  0  0  0  0  3  0  0  0  0  0  0
  160.8010  211.9840  155.9550 C   0  0  0  0  0  0  0  0  0  0  0  0
  157.4850  212.5540  157.2610 C   0  0  0  0  0  1  0  0  0  0  0  0
  161.7300  212.0680  156.9460 F   0  0  0  0  0  0  0  0  0  0  0  0
  157.9130  211.4230  155.1500 C   0  0  0  0  0  3  0  0  0  0  0  0
  160.0170  210.9140  153.8380 C   0  0  0  0  0  0  0  0  0  0  0  0
  159.6660  212.9560  155.9690 C   0  0  0  0  0  2  0  0  0  0  0  0
  158.6790  211.0130  153.9570 C   0  0  0  0  0  3  0  0  0  0  0  0
  160.9730  211.0980  154.9650 C   0  0  0  0  0  0  0  0  0  0  0  0
  162.1290  210.3220  154.9690 O   0  0  0  0  0  1  0  0  0  0  0  0
  158.3580  212.2490  156.0970 C   0  0  0  0  0  0  0  0  0  0  0  0
  1 17  1  0  0  0  0
  1  3  1  0  0  0  0
  2  7  1  0  0  0  0
  2  4  1  0  0  0  0
  4  1  2  0  0  0  0
  5  2  2  0  0  0  0
  6 22  1  0  0  0  0
  7 15  2  0  0  0  0
  8 21  1  0  0  0  0
  8  9  2  0  0  0  0
  9 18  1  0  0  0  0
 10 13  1  0  0  0  0
 11  4  1  0  0  0  0
 11 14  2  0  0  0  0
 12  9  1  0  0  0  0
 12  5  1  0  0  0  0
 13 11  1  0  0  0  0
 14 20  1  0  0  0  0
 15 17  1  0  0  0  0
 16 10  2  0  0  0  0
 17 27  1  0  0  0  0
 18 22  2  0  0  0  0
 18  7  1  0  0  0  0
 19 10  1  0  0  0  0
 19  5  1  0  0  0  0
 20  3  2  0  0  0  0
 21  6  2  0  0  0  0
 23 28  1  0  0  0  0
 23 25  1  0  0  0  0
 26 32  2  0  0  0  0
 27 29  2  0  0  0  0
 27 30  1  0  0  0  0
 28 32  1  0  0  0  0
 29 26  1  0  0  0  0
 30 31  1  0  0  0  0
 30 23  2  0  0  0  0
 32 24  1  0  0  0  0
M  END
>  <MODEL>
4

>  <REMARK>
 VINA RESULT:      -7.9      3.927      7.719
  Name = 
  1 active torsions:
  status: ('A' for Active; 'I' for Inactive)
    1  A    between atoms: C_16  and  N_27
                            x       y       z     vdW  Elec       q    Type
                         _______ _______ _______ _____ _____    ______ ____

>  <TORSDO>
F 1

$$$$
=
 OpenBabel11062408233D

 32 37  0  0  0  0  0  0  0  0999 V2000
  161.1900  206.6000  151.1330 C   0  0  0  0  0  0  0  0  0  0  0  0
  161.3490  209.0810  151.4780 C   0  0  0  0  0  0  0  0  0  0  0  0
  161.0880  205.2870  151.6240 C   0  0  0  0  0  3  0  0  0  0  0  0
  161.2300  207.7060  152.0540 C   0  0  0  0  0  0  0  0  0  0  0  0
  161.3950  210.2590  152.1640 C   0  0  0  0  0  0  0  0  0  0  0  0
  161.7900  211.8430  147.4160 C   0  0  0  0  0  3  0  0  0  0  0  0
  161.4290  209.1700  149.9890 C   0  0  0  0  0  0  0  0  0  0  0  0
  161.7160  212.8190  149.6280 C   0  0  0  0  0  3  0  0  0  0  0  0
  161.5950  211.5440  150.1920 C   0  0  0  0  0  0  0  0  0  0  0  0
  161.2320  209.5840  154.4930 C   0  0  0  0  0  0  0  0  0  0  0  0
  161.1610  207.4120  153.4440 C   0  0  0  0  0  0  0  0  0  0  0  0
  161.5140  211.4150  151.5050 O   0  0  0  0  0  0  0  0  0  0  0  0
  161.1680  208.2710  154.4390 O   0  0  0  0  0  0  0  0  0  0  0  0
  161.0700  206.0850  153.8690 C   0  0  0  0  0  3  0  0  0  0  0  0
  161.3720  208.0170  149.2240 C   0  0  0  0  0  3  0  0  0  0  0  0
  161.1920  210.1190  155.6670 N   0  0  0  0  0  2  0  0  0  0  0  0
  161.2520  206.7900  149.7770 N   0  0  0  0  0  0  0  0  0  0  0  0
  161.5620  210.4150  149.3710 C   0  0  0  0  0  0  0  0  0  0  0  0
  161.3370  210.4110  153.4720 O   0  0  0  0  0  0  0  0  0  0  0  0
  161.0290  205.0270  152.9780 C   0  0  0  0  0  3  0  0  0  0  0  0
  161.8140  212.9690  148.2420 C   0  0  0  0  0  3  0  0  0  0  0  0
  161.6620  210.5680  147.9770 C   0  0  0  0  0  3  0  0  0  0  0  0
  161.6460  205.1770  146.4550 C   0  0  0  0  0  0  0  0  0  0  0  0
  161.3260  201.6010  146.8250 C   0  0  0  0  0  1  0  0  0  0  0  0
  161.5360  205.5380  145.1470 F   0  0  0  0  0  0  0  0  0  0  0  0
  160.9880  203.1680  148.6540 C   0  0  0  0  0  3  0  0  0  0  0  0
  161.2060  205.6810  148.8620 C   0  0  0  0  0  0  0  0  0  0  0  0
  162.4040  203.9300  146.7810 C   0  0  0  0  0  2  0  0  0  0  0  0
  161.0820  204.4460  149.3860 C   0  0  0  0  0  3  0  0  0  0  0  0
  161.1500  205.9820  147.4040 C   0  0  0  0  0  0  0  0  0  0  0  0
  160.5750  207.1870  147.0110 O   0  0  0  0  0  1  0  0  0  0  0  0
  161.5230  202.9320  147.4570 C   0  0  0  0  0  0  0  0  0  0  0  0
  1  3  2  0  0  0  0
  1  4  1  0  0  0  0
  2  4  1  0  0  0  0
  2  5  2  0  0  0  0
  3 20  1  0  0  0  0
  4 11  2  0  0  0  0
  5 19  1  0  0  0  0
  6 22  2  0  0  0  0
  6 21  1  0  0  0  0
  7  2  1  0  0  0  0
  8  9  1  0  0  0  0
  9 12  1  0  0  0  0
 10 16  2  0  0  0  0
 11 14  1  0  0  0  0
 11 13  1  0  0  0  0
 12  5  1  0  0  0  0
 13 10  1  0  0  0  0
 15 17  1  0  0  0  0
 15  7  2  0  0  0  0
 17  1  1  0  0  0  0
 18  7  1  0  0  0  0
 18  9  2  0  0  0  0
 19 10  1  0  0  0  0
 20 14  2  0  0  0  0
 21  8  2  0  0  0  0
 22 18  1  0  0  0  0
 23 28  1  0  0  0  0
 23 30  2  0  0  0  0
 24 32  1  0  0  0  0
 25 23  1  0  0  0  0
 26 29  1  0  0  0  0
 27 29  2  0  0  0  0
 27 17  1  0  0  0  0
 28 32  1  0  0  0  0
 30 27  1  0  0  0  0
 31 30  1  0  0  0  0
 32 26  2  0  0  0  0
M  END
>  <MODEL>
5

>  <REMARK>
 VINA RESULT:      -7.9      1.077      1.367
  Name = 
  1 active torsions:
  status: ('A' for Active; 'I' for Inactive)
    1  A    between atoms: C_16  and  N_27
                            x       y       z     vdW  Elec       q    Type
                         _______ _______ _______ _____ _____    ______ ____

>  <TORSDO>
F 1

$$$$
=
 OpenBabel11062408233D

 32 37  0  0  0  0  0  0  0  0999 V2000
  161.1310  205.6220  151.0660 C   0  0  0  0  0  0  0  0  0  0  0  0
  161.0770  204.1660  149.0230 C   0  0  0  0  0  0  0  0  0  0  0  0
  161.1310  205.7970  152.4610 C   0  0  0  0  0  3  0  0  0  0  0  0
  161.0850  204.2940  150.5130 C   0  0  0  0  0  0  0  0  0  0  0  0
  161.0450  203.0130  148.2970 C   0  0  0  0  0  0  0  0  0  0  0  0
  161.0570  206.4850  144.6700 C   0  0  0  0  0  3  0  0  0  0  0  0
  161.1040  205.4440  148.2490 C   0  0  0  0  0  0  0  0  0  0  0  0
  161.0300  204.0720  144.8370 C   0  0  0  0  0  3  0  0  0  0  0  0
  161.0470  204.1640  146.2330 C   0  0  0  0  0  0  0  0  0  0  0  0
  161.0130  201.2630  149.9820 C   0  0  0  0  0  0  0  0  0  0  0  0
  161.0440  203.2000  151.4210 C   0  0  0  0  0  0  0  0  0  0  0  0
  161.0310  203.0600  146.9610 O   0  0  0  0  0  0  0  0  0  0  0  0
  161.0130  201.9200  151.1220 O   0  0  0  0  0  0  0  0  0  0  0  0
  161.0370  203.4400  152.7970 C   0  0  0  0  0  3  0  0  0  0  0  0
  161.1530  206.6560  148.9180 C   0  0  0  0  0  3  0  0  0  0  0  0
  161.0000  199.9740  150.0560 N   0  0  0  0  0  2  0  0  0  0  0  0
  161.1710  206.7350  150.2670 N   0  0  0  0  0  0  0  0  0  0  0  0
  161.0780  205.4150  146.8530 C   0  0  0  0  0  0  0  0  0  0  0  0
  161.0210  201.7830  148.7720 O   0  0  0  0  0  0  0  0  0  0  0  0
  161.0840  204.7190  153.3220 C   0  0  0  0  0  3  0  0  0  0  0  0
  161.0350  205.2300  144.0560 C   0  0  0  0  0  3  0  0  0  0  0  0
  161.0810  206.5790  146.0650 C   0  0  0  0  0  3  0  0  0  0  0  0
  161.7390  210.4020  150.1310 C   0  0  0  0  0  0  0  0  0  0  0  0
  160.5900  211.8980  153.2080 C   0  0  0  0  0  1  0  0  0  0  0  0
  162.5310  211.2680  149.4410 F   0  0  0  0  0  0  0  0  0  0  0  0
  160.6150  209.4970  152.8180 C   0  0  0  0  0  3  0  0  0  0  0  0
  161.2230  208.0580  150.8260 C   0  0  0  0  0  0  0  0  0  0  0  0
  160.5330  210.9490  150.8230 C   0  0  0  0  0  2  0  0  0  0  0  0
  160.6630  208.2460  152.0370 C   0  0  0  0  0  3  0  0  0  0  0  0
  162.0150  209.0910  150.1020 C   0  0  0  0  0  0  0  0  0  0  0  0
  163.0860  208.6610  149.3230 O   0  0  0  0  0  1  0  0  0  0  0  0
  160.6140  210.7230  152.2970 C   0  0  0  0  0  0  0  0  0  0  0  0
  1  3  1  0  0  0  0
  2  4  1  0  0  0  0
  3 20  2  0  0  0  0
  4  1  2  0  0  0  0
  4 11  1  0  0  0  0
  5 19  1  0  0  0  0
  5  2  2  0  0  0  0
  6 22  1  0  0  0  0
  7 15  2  0  0  0  0
  7  2  1  0  0  0  0
  8  9  2  0  0  0  0
  9 18  1  0  0  0  0
  9 12  1  0  0  0  0
 10 16  2  0  0  0  0
 10 13  1  0  0  0  0
 11 14  2  0  0  0  0
 12  5  1  0  0  0  0
 13 11  1  0  0  0  0
 14 20  1  0  0  0  0
 15 17  1  0  0  0  0
 17 27  1  0  0  0  0
 17  1  1  0  0  0  0
 18  7  1  0  0  0  0
 19 10  1  0  0  0  0
 21  6  2  0  0  0  0
 21  8  1  0  0  0  0
 22 18  2  0  0  0  0
 23 28  1  0  0  0  0
 25 23  1  0  0  0  0
 27 29  2  0  0  0  0
 28 32  1  0  0  0  0
 29 26  1  0  0  0  0
 30 23  2  0  0  0  0
 30 27  1  0  0  0  0
 31 30  1  0  0  0  0
 32 26  2  0  0  0  0
 32 24  1  0  0  0  0
M  END
>  <MODEL>
6

>  <REMARK>
 VINA RESULT:      -7.8      2.628      6.544
  Name = 
  1 active torsions:
  status: ('A' for Active; 'I' for Inactive)
    1  A    between atoms: C_16  and  N_27
                            x       y       z     vdW  Elec       q    Type
                         _______ _______ _______ _____ _____    ______ ____

>  <TORSDO>
F 1

$$$$
=
 OpenBabel11062408233D

 32 37  0  0  0  0  0  0  0  0999 V2000
  161.5530  207.0330  149.8130 C   0  0  0  0  0  0  0  0  0  0  0  0
  161.1830  208.7260  151.6280 C   0  0  0  0  0  0  0  0  0  0  0  0
  161.8200  206.6900  148.4760 C   0  0  0  0  0  3  0  0  0  0  0  0
  161.4810  208.4180  150.1950 C   0  0  0  0  0  0  0  0  0  0  0  0
  161.0800  209.9590  152.2000 C   0  0  0  0  0  0  0  0  0  0  0  0
  160.1460  206.9540  156.1120 C   0  0  0  0  0  3  0  0  0  0  0  0
  160.9730  207.5510  152.5270 C   0  0  0  0  0  0  0  0  0  0  0  0
  160.3060  209.3280  155.6770 C   0  0  0  0  0  3  0  0  0  0  0  0
  160.5960  209.0670  154.3340 C   0  0  0  0  0  0  0  0  0  0  0  0
  161.4970  211.4920  150.3610 C   0  0  0  0  0  0  0  0  0  0  0  0
  161.6920  209.3960  149.1830 C   0  0  0  0  0  0  0  0  0  0  0  0
  160.7960  210.0750  153.5010 O   0  0  0  0  0  0  0  0  0  0  0  0
  161.6830  210.7020  149.3260 O   0  0  0  0  0  0  0  0  0  0  0  0
  161.9450  208.9910  147.8700 C   0  0  0  0  0  3  0  0  0  0  0  0
  161.0790  206.2660  152.0200 C   0  0  0  0  0  3  0  0  0  0  0  0
  161.5810  212.7620  150.1450 N   0  0  0  0  0  2  0  0  0  0  0  0
  161.3610  206.0230  150.7210 N   0  0  0  0  0  0  0  0  0  0  0  0
  160.6710  207.7500  153.8750 C   0  0  0  0  0  0  0  0  0  0  0  0
  161.2290  211.1220  151.5970 O   0  0  0  0  0  0  0  0  0  0  0  0
  162.0150  207.6570  147.5110 C   0  0  0  0  0  3  0  0  0  0  0  0
  160.0810  208.2730  156.5660 C   0  0  0  0  0  3  0  0  0  0  0  0
  160.4420  206.6900  154.7710 C   0  0  0  0  0  3  0  0  0  0  0  0
  161.5940  202.3760  151.3770 C   0  0  0  0  0  0  0  0  0  0  0  0
  161.0860  200.5780  148.2890 C   0  0  0  0  0  1  0  0  0  0  0  0
  162.1310  201.5620  152.3260 F   0  0  0  0  0  0  0  0  0  0  0  0
  161.2060  203.0040  148.4170 C   0  0  0  0  0  3  0  0  0  0  0  0
  161.4400  204.6410  150.3340 C   0  0  0  0  0  0  0  0  0  0  0  0
  160.5450  201.8110  150.4750 C   0  0  0  0  0  2  0  0  0  0  0  0
  161.1670  204.3370  149.0510 C   0  0  0  0  0  3  0  0  0  0  0  0
  161.9560  203.6650  151.3340 C   0  0  0  0  0  0  0  0  0  0  0  0
  162.8440  204.1320  152.2990 O   0  0  0  0  0  1  0  0  0  0  0  0
  160.9880  201.8520  149.0500 C   0  0  0  0  0  0  0  0  0  0  0  0
  1  4  1  0  0  0  0
  1 17  1  0  0  0  0
  2  5  2  0  0  0  0
  2  7  1  0  0  0  0
  3  1  2  0  0  0  0
  4  2  1  0  0  0  0
  5 12  1  0  0  0  0
  6 21  1  0  0  0  0
  7 18  1  0  0  0  0
  8 21  2  0  0  0  0
  9  8  1  0  0  0  0
 10 19  1  0  0  0  0
 11 13  1  0  0  0  0
 11  4  2  0  0  0  0
 12  9  1  0  0  0  0
 13 10  1  0  0  0  0
 14 11  1  0  0  0  0
 15  7  2  0  0  0  0
 16 10  2  0  0  0  0
 17 15  1  0  0  0  0
 18  9  2  0  0  0  0
 18 22  1  0  0  0  0
 19  5  1  0  0  0  0
 20 14  2  0  0  0  0
 20  3  1  0  0  0  0
 22  6  2  0  0  0  0
 23 25  1  0  0  0  0
 24 32  1  0  0  0  0
 26 32  2  0  0  0  0
 26 29  1  0  0  0  0
 27 17  1  0  0  0  0
 27 30  1  0  0  0  0
 28 23  1  0  0  0  0
 29 27  2  0  0  0  0
 30 23  2  0  0  0  0
 30 31  1  0  0  0  0
 32 28  1  0  0  0  0
M  END
>  <MODEL>
7

>  <REMARK>
 VINA RESULT:      -7.7      2.538      5.087
  Name = 
  1 active torsions:
  status: ('A' for Active; 'I' for Inactive)
    1  A    between atoms: C_16  and  N_27
                            x       y       z     vdW  Elec       q    Type
                         _______ _______ _______ _____ _____    ______ ____

>  <TORSDO>
F 1

$$$$
=
 OpenBabel11062408233D

 32 37  0  0  0  0  0  0  0  0999 V2000
  161.3150  207.6990  151.0380 C   0  0  0  0  0  0  0  0  0  0  0  0
  161.2520  205.5440  149.7530 C   0  0  0  0  0  0  0  0  0  0  0  0
  161.3150  208.4210  152.2440 C   0  0  0  0  0  3  0  0  0  0  0  0
  161.2600  206.2610  151.0650 C   0  0  0  0  0  0  0  0  0  0  0  0
  161.2120  204.1970  149.5520 C   0  0  0  0  0  0  0  0  0  0  0  0
  161.2510  205.9150  144.8350 C   0  0  0  0  0  3  0  0  0  0  0  0
  161.2880  206.4020  148.5300 C   0  0  0  0  0  0  0  0  0  0  0  0
  161.2070  203.7740  145.9590 C   0  0  0  0  0  3  0  0  0  0  0  0
  161.2240  204.4200  147.2000 C   0  0  0  0  0  0  0  0  0  0  0  0
  161.1670  203.2730  151.7990 C   0  0  0  0  0  0  0  0  0  0  0  0
  161.2110  205.6250  152.3370 C   0  0  0  0  0  0  0  0  0  0  0  0
  161.2000  203.7020  148.3110 O   0  0  0  0  0  0  0  0  0  0  0  0
  161.1710  204.3330  152.5780 O   0  0  0  0  0  0  0  0  0  0  0  0
  161.2050  206.3980  153.5000 C   0  0  0  0  0  3  0  0  0  0  0  0
  161.3460  207.7810  148.6550 C   0  0  0  0  0  3  0  0  0  0  0  0
  161.1460  202.1230  152.3850 N   0  0  0  0  0  2  0  0  0  0  0  0
  161.3630  208.3960  149.8580 N   0  0  0  0  0  0  0  0  0  0  0  0
  161.2630  205.8140  147.2640 C   0  0  0  0  0  0  0  0  0  0  0  0
  161.1790  203.2620  150.4820 O   0  0  0  0  0  0  0  0  0  0  0  0
  161.2600  207.7800  153.4660 C   0  0  0  0  0  3  0  0  0  0  0  0
  161.2210  204.5200  144.7780 C   0  0  0  0  0  3  0  0  0  0  0  0
  161.2740  206.5630  146.0740 C   0  0  0  0  0  3  0  0  0  0  0  0
  161.9600  211.6950  148.2610 C   0  0  0  0  0  0  0  0  0  0  0  0
  160.8140  214.3090  150.4690 C   0  0  0  0  0  1  0  0  0  0  0  0
  162.7600  212.2050  147.2850 F   0  0  0  0  0  0  0  0  0  0  0  0
  160.8210  211.9550  151.0790 C   0  0  0  0  0  3  0  0  0  0  0  0
  161.4240  209.8320  149.8380 C   0  0  0  0  0  0  0  0  0  0  0  0
  160.7560  212.4810  148.6680 C   0  0  0  0  0  2  0  0  0  0  0  0
  160.8620  210.4950  150.8680 C   0  0  0  0  0  3  0  0  0  0  0  0
  162.2250  210.4810  148.7630 C   0  0  0  0  0  0  0  0  0  0  0  0
  163.2950  209.7680  148.2290 O   0  0  0  0  0  1  0  0  0  0  0  0
  160.8320  212.8670  150.1080 C   0  0  0  0  0  0  0  0  0  0  0  0
  1  4  2  0  0  0  0
  1  3  1  0  0  0  0
  2  4  1  0  0  0  0
  3 20  2  0  0  0  0
  4 11  1  0  0  0  0
  5  2  2  0  0  0  0
  5 19  1  0  0  0  0
  6 22  1  0  0  0  0
  7 15  2  0  0  0  0
  7  2  1  0  0  0  0
  8  9  2  0  0  0  0
  9 18  1  0  0  0  0
  9 12  1  0  0  0  0
 10 16  2  0  0  0  0
 10 13  1  0  0  0  0
 11 13  1  0  0  0  0
 11 14  2  0  0  0  0
 12  5  1  0  0  0  0
 15 17  1  0  0  0  0
 17  1  1  0  0  0  0
 18  7  1  0  0  0  0
 19 10  1  0  0  0  0
 20 14  1  0  0  0  0
 21  6  2  0  0  0  0
 21  8  1  0  0  0  0
 22 18  2  0  0  0  0
 23 28  1  0  0  0  0
 23 30  2  0  0  0  0
 25 23  1  0  0  0  0
 27 17  1  0  0  0  0
 27 29  2  0  0  0  0
 28 32  1  0  0  0  0
 29 26  1  0  0  0  0
 30 27  1  0  0  0  0
 31 30  1  0  0  0  0
 32 24  1  0  0  0  0
 32 26  2  0  0  0  0
M  END
>  <MODEL>
8

>  <REMARK>
 VINA RESULT:      -7.5      2.428      6.394
  Name = 
  1 active torsions:
  status: ('A' for Active; 'I' for Inactive)
    1  A    between atoms: C_16  and  N_27
                            x       y       z     vdW  Elec       q    Type
                         _______ _______ _______ _____ _____    ______ ____

>  <TORSDO>
F 1

$$$$
=
 OpenBabel11062408233D

 32 37  0  0  0  0  0  0  0  0999 V2000
  161.5070  208.7050  150.0350 C   0  0  0  0  0  0  0  0  0  0  0  0
  161.3470  207.7840  152.3640 C   0  0  0  0  0  0  0  0  0  0  0  0
  161.5990  208.5380  148.6420 C   0  0  0  0  0  3  0  0  0  0  0  0
  161.4330  207.5500  150.8890 C   0  0  0  0  0  0  0  0  0  0  0  0
  161.2600  206.8400  153.3430 C   0  0  0  0  0  0  0  0  0  0  0  0
  161.2690  211.0790  156.0320 C   0  0  0  0  0  3  0  0  0  0  0  0
  161.3600  209.2100  152.8080 C   0  0  0  0  0  0  0  0  0  0  0  0
  161.1460  208.6990  156.4440 C   0  0  0  0  0  3  0  0  0  0  0  0
  161.2150  208.4520  155.0690 C   0  0  0  0  0  0  0  0  0  0  0  0
  161.2720  204.7360  152.1270 C   0  0  0  0  0  0  0  0  0  0  0  0
  161.4540  206.2680  150.2720 C   0  0  0  0  0  0  0  0  0  0  0  0
  161.2000  207.2060  154.6270 O   0  0  0  0  0  0  0  0  0  0  0  0
  161.3810  205.0980  150.8670 O   0  0  0  0  0  0  0  0  0  0  0  0
  161.5550  206.1680  148.8830 C   0  0  0  0  0  3  0  0  0  0  0  0
  161.4300  210.2260  151.8690 C   0  0  0  0  0  3  0  0  0  0  0  0
  161.2030  203.4680  152.3620 N   0  0  0  0  0  2  0  0  0  0  0  0
  161.4950  209.9790  150.5420 N   0  0  0  0  0  0  0  0  0  0  0  0
  161.3040  209.5170  154.1700 C   0  0  0  0  0  0  0  0  0  0  0  0
  161.2290  205.5320  153.1760 O   0  0  0  0  0  0  0  0  0  0  0  0
  161.6240  207.2840  148.0670 C   0  0  0  0  0  3  0  0  0  0  0  0
  161.1720  210.0100  156.9260 C   0  0  0  0  0  3  0  0  0  0  0  0
  161.3320  210.8360  154.6570 C   0  0  0  0  0  3  0  0  0  0  0  0
  160.8380  213.5200  149.6370 C   0  0  0  0  0  0  0  0  0  0  0  0
  162.7170  214.3560  146.6720 C   0  0  0  0  0  1  0  0  0  0  0  0
  159.8780  214.4530  149.8780 F   0  0  0  0  0  0  0  0  0  0  0  0
  162.6400  212.1160  147.6150 C   0  0  0  0  0  3  0  0  0  0  0  0
  161.5640  211.1290  149.6830 C   0  0  0  0  0  0  0  0  0  0  0  0
  162.1720  213.9900  149.1530 C   0  0  0  0  0  2  0  0  0  0  0  0
  162.4150  211.0780  148.6400 C   0  0  0  0  0  3  0  0  0  0  0  0
  160.5910  212.2330  149.9160 C   0  0  0  0  0  0  0  0  0  0  0  0
  159.3630  211.9070  150.4860 O   0  0  0  0  0  1  0  0  0  0  0  0
  162.4800  213.4250  147.8060 C   0  0  0  0  0  0  0  0  0  0  0  0
  1 17  1  0  0  0  0
  1  4  1  0  0  0  0
  2  7  1  0  0  0  0
  2  5  2  0  0  0  0
  3  1  2  0  0  0  0
  4  2  1  0  0  0  0
  5 12  1  0  0  0  0
  6 21  1  0  0  0  0
  7 18  1  0  0  0  0
  8 21  2  0  0  0  0
  9  8  1  0  0  0  0
 10 16  2  0  0  0  0
 10 19  1  0  0  0  0
 11 13  1  0  0  0  0
 11  4  2  0  0  0  0
 12  9  1  0  0  0  0
 13 10  1  0  0  0  0
 14 11  1  0  0  0  0
 15  7  2  0  0  0  0
 17 15  1  0  0  0  0
 18 22  1  0  0  0  0
 18  9  2  0  0  0  0
 19  5  1  0  0  0  0
 20  3  1  0  0  0  0
 20 14  2  0  0  0  0
 22  6  2  0  0  0  0
 23 25  1  0  0  0  0
 23 30  2  0  0  0  0
 24 32  1  0  0  0  0
 26 32  2  0  0  0  0
 26 29  1  0  0  0  0
 27 30  1  0  0  0  0
 27 17  1  0  0  0  0
 28 23  1  0  0  0  0
 29 27  2  0  0  0  0
 30 31  1  0  0  0  0
 32 28  1  0  0  0  0
M  END
>  <MODEL>
9

>  <REMARK>
 VINA RESULT:      -7.4      3.210      6.709
  Name = 
  1 active torsions:
  status: ('A' for Active; 'I' for Inactive)
    1  A    between atoms: C_16  and  N_27
                            x       y       z     vdW  Elec       q    Type
                         _______ _______ _______ _____ _____    ______ ____

>  <TORSDO>
F 1

$$$$
