=
 OpenBabel11062410453D

 32 36  0  0  1  0  0  0  0  0999 V2000
  161.1820  205.8640  149.4210 C   0  0  0  0  0  0  0  0  0  0  0  0
  160.4580  201.3080  151.0160 C   0  0  0  0  0  3  0  0  0  0  0  0
  160.5000  200.8210  149.5960 C   0  0  0  0  0  2  0  0  0  0  0  0
  162.0060  206.3150  147.0460 C   0  0  0  0  0  0  0  0  0  0  0  0
  162.2160  205.8130  145.6520 C   0  0  1  0  0  3  0  0  0  0  0  0
  160.6360  202.6010  151.2960 C   0  0  0  0  0  3  0  0  0  0  0  0
  160.8770  204.9550  150.4570 C   0  0  0  0  0  0  0  0  0  0  0  0
  161.3640  203.0900  148.9670 C   0  0  0  0  0  0  0  0  0  0  0  0
  161.6880  203.9840  147.9320 C   0  0  0  0  0  0  0  0  0  0  0  0
  161.5360  201.5990  148.7830 C   0  0  0  0  0  2  0  0  0  0  0  0
  160.9670  203.5730  150.2270 C   0  0  0  0  0  0  0  0  0  0  0  0
  162.0600  203.4060  146.5840 C   0  0  0  0  0  2  0  0  0  0  0  0
  162.1910  207.5420  147.2590 O   0  0  0  0  0  0  0  0  0  0  0  0
  163.5650  204.0430  144.8910 O   0  0  0  0  0  0  0  0  0  0  0  0
  161.6050  205.3850  148.1500 C   0  0  0  0  0  0  0  0  0  0  0  0
  162.6990  204.4020  145.6710 C   0  0  0  0  0  0  0  0  0  0  0  0
  161.0270  205.8150  143.5860 O   0  0  0  0  0  0  0  0  0  0  0  0
  159.7480  206.2130  145.4460 O   0  0  0  0  0  1  0  0  0  0  0  0
  160.9700  205.9500  144.8360 C   0  0  0  0  0  0  0  0  0  0  0  0
  160.4260  205.4610  151.7990 C   0  0  0  0  0  2  0  0  0  0  0  0
  161.5950  205.5040  152.7650 C   0  0  0  0  0  2  0  0  0  0  0  0
  161.0760  205.7070  154.1740 C   0  0  0  0  0  2  0  0  0  0  0  0
  160.8080  207.1820  154.4370 C   0  0  0  0  0  2  0  0  0  0  0  0
  159.9480  207.3820  155.6780 C   0  0  0  0  0  2  0  0  0  0  0  0
  161.2110  209.3810  155.9010 C   0  0  0  0  0  0  0  0  0  0  0  0
  161.1820  210.4260  155.2020 O   0  0  0  0  0  0  0  0  0  0  0  0
  161.9740  208.2430  156.5840 N   0  0  0  0  0  2  0  0  0  0  0  0
  160.5880  208.3790  156.6290 C   0  0  2  0  0  3  0  0  0  0  0  0
  161.0010  207.3340  149.6800 C   0  0  0  0  0  2  0  0  0  0  0  0
  162.2450  207.9090  150.3320 C   0  0  0  0  0  3  0  0  0  0  0  0
  162.2530  209.4100  150.1270 C   0  0  0  0  0  2  0  0  0  0  0  0
  161.8280  208.8330  151.4580 C   0  0  0  0  0  2  0  0  0  0  0  0
  1 29  1  0  0  0  0
  1  7  1  0  0  0  0
  2  6  2  0  0  0  0
  3  2  1  0  0  0  0
  4 13  2  0  0  0  0
  4 15  1  0  0  0  0
  5 19  1  6  0  0  0
  5 16  1  0  0  0  0
  5  4  1  0  0  0  0
  7 20  1  0  0  0  0
  8 11  1  0  0  0  0
  9 15  1  0  0  0  0
  9  8  2  0  0  0  0
 10  8  1  0  0  0  0
 10  3  1  0  0  0  0
 11  7  2  0  0  0  0
 11  6  1  0  0  0  0
 12  9  1  0  0  0  0
 14 16  2  0  0  0  0
 15  1  2  0  0  0  0
 16 12  1  0  0  0  0
 17 19  2  0  0  0  0
 19 18  1  0  0  0  0
 20 21  1  0  0  0  0
 21 22  1  0  0  0  0
 22 23  1  0  0  0  0
 23 24  1  0  0  0  0
 25 27  1  0  0  0  0
 25 28  1  0  0  0  0
 26 25  2  0  0  0  0
 27 28  1  0  0  0  0
 28 24  1  6  0  0  0
 29 30  1  0  0  0  0
 30 32  1  0  0  0  0
 31 30  1  0  0  0  0
 31 32  1  0  0  0  0
M  END
>  <MODEL>
1

>  <REMARK>
 VINA RESULT:      -8.0      0.000      0.000
  Name = 
  9 active torsions:
  status: ('A' for Active; 'I' for Inactive)
    1  A    between atoms: C_2  and  C_10
    2  A    between atoms: C_2  and  C_12
    3  A    between atoms: C_3  and  C_28
    4  A    between atoms: C_7  and  C_22
    5  A    between atoms: C_8  and  C_28
    6  A    between atoms: C_9  and  C_14
    7  A    between atoms: C_9  and  C_21
    8  A    between atoms: C_10  and  CA_24
    9  A    between atoms: C_12  and  C_21
                            x       y       z     vdW  Elec       q    Type
                         _______ _______ _______ _____ _____    ______ ____

>  <TORSDO>
F 9

$$$$
=
 OpenBabel11062410453D

 32 36  0  0  1  0  0  0  0  0999 V2000
  161.8760  208.7870  151.3980 C   0  0  0  0  0  0  0  0  0  0  0  0
  161.4810  203.9560  150.8200 C   0  0  0  0  0  3  0  0  0  0  0  0
  161.3740  203.8020  152.3100 C   0  0  0  0  0  2  0  0  0  0  0  0
  161.2530  209.9060  153.6080 C   0  0  0  0  0  0  0  0  0  0  0  0
  160.9780  209.7710  155.0730 C   0  0  1  0  0  3  0  0  0  0  0  0
  161.5960  205.1660  150.2690 C   0  0  0  0  0  3  0  0  0  0  0  0
  161.9300  207.6350  150.5850 C   0  0  0  0  0  0  0  0  0  0  0  0
  161.0750  206.2900  152.4280 C   0  0  0  0  0  0  0  0  0  0  0  0
  160.9980  207.4320  153.2430 C   0  0  0  0  0  0  0  0  0  0  0  0
  160.5710  204.9520  152.9210 C   0  0  0  0  0  2  0  0  0  0  0  0
  161.5320  206.3910  151.1010 C   0  0  0  0  0  0  0  0  0  0  0  0
  160.5460  207.2530  154.6760 C   0  0  0  0  0  2  0  0  0  0  0  0
  161.3490  211.0690  153.1370 O   0  0  0  0  0  0  0  0  0  0  0  0
  159.2830  208.5620  156.1680 O   0  0  0  0  0  0  0  0  0  0  0  0
  161.3950  208.6970  152.7340 C   0  0  0  0  0  0  0  0  0  0  0  0
  160.1830  208.5380  155.3450 C   0  0  0  0  0  0  0  0  0  0  0  0
  163.1210  210.6580  155.6230 O   0  0  0  0  0  0  0  0  0  0  0  0
  162.4660  208.8500  156.8700 O   0  0  0  0  0  1  0  0  0  0  0  0
  162.2480  209.7850  155.8640 C   0  0  0  0  0  0  0  0  0  0  0  0
  162.4430  207.7280  149.1750 C   0  0  0  0  0  2  0  0  0  0  0  0
  161.3060  207.5330  148.1880 C   0  0  0  0  0  2  0  0  0  0  0  0
  161.8120  206.7660  146.9830 C   0  0  0  0  0  2  0  0  0  0  0  0
  160.8010  205.7120  146.5570 C   0  0  0  0  0  2  0  0  0  0  0  0
  161.2660  204.9590  145.3180 C   0  0  0  0  0  2  0  0  0  0  0  0
  160.9150  202.6330  145.6480 C   0  0  0  0  0  0  0  0  0  0  0  0
  160.1670  201.8410  145.0210 O   0  0  0  0  0  0  0  0  0  0  0  0
  161.4360  203.2380  146.9550 N   0  0  0  0  0  2  0  0  0  0  0  0
  161.8850  203.6230  145.6930 C   0  0  2  0  0  3  0  0  0  0  0  0
  162.3820  210.0870  150.8370 C   0  0  0  0  0  2  0  0  0  0  0  0
  161.4220  210.6120  149.7850 C   0  0  0  0  0  3  0  0  0  0  0  0
  161.5150  212.1240  149.7530 C   0  0  0  0  0  2  0  0  0  0  0  0
  162.2160  211.3030  148.6950 C   0  0  0  0  0  2  0  0  0  0  0  0
  1 15  1  0  0  0  0
  2  3  1  0  0  0  0
  3 10  1  0  0  0  0
  4  5  1  0  0  0  0
  5 16  1  0  0  0  0
  5 19  1  1  0  0  0
  6  2  2  0  0  0  0
  6 11  1  0  0  0  0
  7 11  1  0  0  0  0
  7  1  2  0  0  0  0
  8 10  1  0  0  0  0
  8  9  1  0  0  0  0
  9 12  1  0  0  0  0
 11  8  2  0  0  0  0
 12 16  1  0  0  0  0
 13  4  2  0  0  0  0
 15  9  2  0  0  0  0
 15  4  1  0  0  0  0
 16 14  2  0  0  0  0
 17 19  2  0  0  0  0
 19 18  1  0  0  0  0
 20  7  1  0  0  0  0
 21 20  1  0  0  0  0
 22 21  1  0  0  0  0
 23 22  1  0  0  0  0
 24 23  1  0  0  0  0
 25 28  1  0  0  0  0
 25 27  1  0  0  0  0
 26 25  2  0  0  0  0
 28 24  1  6  0  0  0
 28 27  1  0  0  0  0
 29  1  1  0  0  0  0
 30 29  1  0  0  0  0
 31 30  1  0  0  0  0
 32 31  1  0  0  0  0
 32 30  1  0  0  0  0
M  END
>  <MODEL>
2

>  <REMARK>
 VINA RESULT:      -7.2      2.979      8.150
  Name = 
  9 active torsions:
  status: ('A' for Active; 'I' for Inactive)
    1  A    between atoms: C_2  and  C_10
    2  A    between atoms: C_2  and  C_12
    3  A    between atoms: C_3  and  C_28
    4  A    between atoms: C_7  and  C_22
    5  A    between atoms: C_8  and  C_28
    6  A    between atoms: C_9  and  C_14
    7  A    between atoms: C_9  and  C_21
    8  A    between atoms: C_10  and  CA_24
    9  A    between atoms: C_12  and  C_21
                            x       y       z     vdW  Elec       q    Type
                         _______ _______ _______ _____ _____    ______ ____

>  <TORSDO>
F 9

$$$$
=
 OpenBabel11062410453D

 32 36  0  0  1  0  0  0  0  0999 V2000
  161.0230  206.6560  151.4230 C   0  0  0  0  0  0  0  0  0  0  0  0
  161.9380  210.4960  148.5520 C   0  0  0  0  0  3  0  0  0  0  0  0
  161.7160  211.4070  149.7260 C   0  0  0  0  0  2  0  0  0  0  0  0
  161.0320  206.8800  153.9670 C   0  0  0  0  0  0  0  0  0  0  0  0
  160.9780  207.7690  155.1700 C   0  0  1  0  0  3  0  0  0  0  0  0
  161.8510  209.1720  148.6940 C   0  0  0  0  0  3  0  0  0  0  0  0
  161.2500  207.2140  150.1470 C   0  0  0  0  0  0  0  0  0  0  0  0
  161.7730  209.3600  151.1740 C   0  0  0  0  0  0  0  0  0  0  0  0
  161.5680  208.8130  152.4530 C   0  0  0  0  0  0  0  0  0  0  0  0
  162.2610  210.7820  151.0110 C   0  0  0  0  0  2  0  0  0  0  0  0
  161.6230  208.5620  150.0260 C   0  0  0  0  0  0  0  0  0  0  0  0
  161.6960  209.7320  153.6480 C   0  0  0  0  0  2  0  0  0  0  0  0
  160.9500  205.6380  154.1560 O   0  0  0  0  0  0  0  0  0  0  0  0
  162.4740  209.4510  155.8500 O   0  0  0  0  0  0  0  0  0  0  0  0
  161.1940  207.4500  152.5910 C   0  0  0  0  0  0  0  0  0  0  0  0
  161.7890  209.0010  154.9470 C   0  0  0  0  0  0  0  0  0  0  0  0
  158.7430  207.1810  155.7540 O   0  0  0  0  0  1  0  0  0  0  0  0
  159.1560  209.4320  155.6250 O   0  0  0  0  0  0  0  0  0  0  0  0
  159.5650  208.1060  155.5280 C   0  0  0  0  0  0  0  0  0  0  0  0
  161.0660  206.3770  148.9120 C   0  0  0  0  0  2  0  0  0  0  0  0
  162.4060  206.1110  148.2510 C   0  0  0  0  0  2  0  0  0  0  0  0
  162.2460  206.1740  146.7460 C   0  0  0  0  0  2  0  0  0  0  0  0
  160.8430  205.7450  146.3390 C   0  0  0  0  0  2  0  0  0  0  0  0
  160.8740  204.7580  145.1800 C   0  0  0  0  0  2  0  0  0  0  0  0
  160.7360  202.4090  145.5030 C   0  0  0  0  0  0  0  0  0  0  0  0
  160.0790  201.5520  144.8590 O   0  0  0  0  0  0  0  0  0  0  0  0
  161.1690  203.0580  146.8210 N   0  0  0  0  0  2  0  0  0  0  0  0
  161.6080  203.4850  145.5690 C   0  0  2  0  0  3  0  0  0  0  0  0
  160.5520  205.2310  151.5100 C   0  0  0  0  0  2  0  0  0  0  0  0
  161.7100  204.2800  151.2710 C   0  0  0  0  0  3  0  0  0  0  0  0
  161.3850  202.9460  151.9090 C   0  0  0  0  0  2  0  0  0  0  0  0
  161.2310  203.1250  150.4160 C   0  0  0  0  0  2  0  0  0  0  0  0
  1 29  1  0  0  0  0
  1 15  1  0  0  0  0
  2  6  2  0  0  0  0
  2  3  1  0  0  0  0
  3 10  1  0  0  0  0
  4 13  2  0  0  0  0
  4  5  1  0  0  0  0
  5 19  1  6  0  0  0
  6 11  1  0  0  0  0
  7  1  2  0  0  0  0
  8  9  1  0  0  0  0
  9 15  2  0  0  0  0
  9 12  1  0  0  0  0
 10  8  1  0  0  0  0
 11  7  1  0  0  0  0
 11  8  2  0  0  0  0
 12 16  1  0  0  0  0
 15  4  1  0  0  0  0
 16  5  1  0  0  0  0
 16 14  2  0  0  0  0
 19 18  2  0  0  0  0
 19 17  1  0  0  0  0
 20  7  1  0  0  0  0
 21 20  1  0  0  0  0
 22 21  1  0  0  0  0
 23 22  1  0  0  0  0
 24 23  1  0  0  0  0
 25 28  1  0  0  0  0
 25 27  1  0  0  0  0
 26 25  2  0  0  0  0
 28 24  1  6  0  0  0
 28 27  1  0  0  0  0
 30 29  1  0  0  0  0
 30 31  1  0  0  0  0
 32 30  1  0  0  0  0
 32 31  1  0  0  0  0
M  END
>  <MODEL>
3

>  <REMARK>
 VINA RESULT:      -7.0      2.952      8.699
  Name = 
  9 active torsions:
  status: ('A' for Active; 'I' for Inactive)
    1  A    between atoms: C_2  and  C_10
    2  A    between atoms: C_2  and  C_12
    3  A    between atoms: C_3  and  C_28
    4  A    between atoms: C_7  and  C_22
    5  A    between atoms: C_8  and  C_28
    6  A    between atoms: C_9  and  C_14
    7  A    between atoms: C_9  and  C_21
    8  A    between atoms: C_10  and  CA_24
    9  A    between atoms: C_12  and  C_21
                            x       y       z     vdW  Elec       q    Type
                         _______ _______ _______ _____ _____    ______ ____

>  <TORSDO>
F 9

$$$$
=
 OpenBabel11062410453D

 32 36  0  0  1  0  0  0  0  0999 V2000
  161.7240  205.6520  150.2980 C   0  0  0  0  0  0  0  0  0  0  0  0
  162.1760  210.4830  150.8290 C   0  0  0  0  0  3  0  0  0  0  0  0
  162.3600  210.6140  149.3440 C   0  0  0  0  0  2  0  0  0  0  0  0
  161.2880  204.6130  148.0060 C   0  0  0  0  0  0  0  0  0  0  0  0
  161.3000  204.7560  146.5170 C   0  0  1  0  0  3  0  0  0  0  0  0
  161.9590  209.2890  151.3830 C   0  0  0  0  0  3  0  0  0  0  0  0
  161.8590  206.7950  151.1150 C   0  0  0  0  0  0  0  0  0  0  0  0
  161.6110  208.2270  149.1600 C   0  0  0  0  0  0  0  0  0  0  0  0
  161.4560  207.0990  148.3370 C   0  0  0  0  0  0  0  0  0  0  0  0
  161.4670  209.6230  148.5950 C   0  0  0  0  0  2  0  0  0  0  0  0
  161.8030  208.0770  150.5450 C   0  0  0  0  0  0  0  0  0  0  0  0
  161.3020  207.3210  146.8480 C   0  0  0  0  0  2  0  0  0  0  0  0
  161.0740  203.4660  148.4800 O   0  0  0  0  0  0  0  0  0  0  0  0
  160.0860  206.2370  145.1500 O   0  0  0  0  0  0  0  0  0  0  0  0
  161.5070  205.7950  148.8990 C   0  0  0  0  0  0  0  0  0  0  0  0
  160.8180  206.1110  146.1170 C   0  0  0  0  0  0  0  0  0  0  0  0
  162.7710  203.9450  144.8250 O   0  0  0  0  0  0  0  0  0  0  0  0
  163.8030  204.8150  146.6770 O   0  0  0  0  0  1  0  0  0  0  0  0
  162.6610  204.4790  145.9590 C   0  0  0  0  0  0  0  0  0  0  0  0
  162.0930  206.6440  152.5930 C   0  0  0  0  0  2  0  0  0  0  0  0
  160.8010  206.8710  153.3550 C   0  0  0  0  0  2  0  0  0  0  0  0
  161.1220  207.2920  154.7750 C   0  0  0  0  0  2  0  0  0  0  0  0
  161.1730  208.8100  154.8850 C   0  0  0  0  0  2  0  0  0  0  0  0
  159.8830  209.3720  155.4660 C   0  0  0  0  0  2  0  0  0  0  0  0
  159.6540  211.0300  153.7800 C   0  0  0  0  0  0  0  0  0  0  0  0
  159.0210  210.9830  152.6950 O   0  0  0  0  0  0  0  0  0  0  0  0
  160.9260  211.3210  154.5820 N   0  0  0  0  0  2  0  0  0  0  0  0
  159.7440  210.8520  155.1520 C   0  0  2  0  0  3  0  0  0  0  0  0
  161.8650  204.2960  150.9310 C   0  0  0  0  0  2  0  0  0  0  0  0
  160.5030  203.7620  151.3350 C   0  0  0  0  0  3  0  0  0  0  0  0
  160.6180  202.2720  151.5840 C   0  0  0  0  0  2  0  0  0  0  0  0
  160.5830  203.2310  152.7520 C   0  0  0  0  0  2  0  0  0  0  0  0
  1 29  1  0  0  0  0
  1  7  1  0  0  0  0
  2  6  2  0  0  0  0
  3  2  1  0  0  0  0
  4 13  2  0  0  0  0
  4 15  1  0  0  0  0
  5 19  1  1  0  0  0
  5  4  1  0  0  0  0
  7 20  1  0  0  0  0
  8 11  1  0  0  0  0
  9 15  1  0  0  0  0
  9  8  2  0  0  0  0
 10  8  1  0  0  0  0
 10  3  1  0  0  0  0
 11  7  2  0  0  0  0
 11  6  1  0  0  0  0
 12  9  1  0  0  0  0
 14 16  2  0  0  0  0
 15  1  2  0  0  0  0
 16  5  1  0  0  0  0
 16 12  1  0  0  0  0
 17 19  2  0  0  0  0
 19 18  1  0  0  0  0
 20 21  1  0  0  0  0
 21 22  1  0  0  0  0
 22 23  1  0  0  0  0
 23 24  1  0  0  0  0
 25 27  1  0  0  0  0
 25 28  1  0  0  0  0
 26 25  2  0  0  0  0
 27 28  1  0  0  0  0
 28 24  1  6  0  0  0
 29 30  1  0  0  0  0
 30 31  1  0  0  0  0
 30 32  1  0  0  0  0
 31 32  1  0  0  0  0
M  END
>  <MODEL>
4

>  <REMARK>
 VINA RESULT:      -7.0      1.734      4.497
  Name = 
  9 active torsions:
  status: ('A' for Active; 'I' for Inactive)
    1  A    between atoms: C_2  and  C_10
    2  A    between atoms: C_2  and  C_12
    3  A    between atoms: C_3  and  C_28
    4  A    between atoms: C_7  and  C_22
    5  A    between atoms: C_8  and  C_28
    6  A    between atoms: C_9  and  C_14
    7  A    between atoms: C_9  and  C_21
    8  A    between atoms: C_10  and  CA_24
    9  A    between atoms: C_12  and  C_21
                            x       y       z     vdW  Elec       q    Type
                         _______ _______ _______ _____ _____    ______ ____

>  <TORSDO>
F 9

$$$$
=
 OpenBabel11062410453D

 32 36  0  0  1  0  0  0  0  0999 V2000
  161.1350  205.5760  148.8900 C   0  0  0  0  0  0  0  0  0  0  0  0
  160.9990  208.2120  152.9960 C   0  0  0  0  0  3  0  0  0  0  0  0
  160.6680  206.9660  153.7670 C   0  0  0  0  0  2  0  0  0  0  0  0
  161.2740  203.0270  148.9640 C   0  0  0  0  0  0  0  0  0  0  0  0
  161.1130  201.7630  149.7480 C   0  0  1  0  0  3  0  0  0  0  0  0
  161.2090  208.1600  151.6790 C   0  0  0  0  0  3  0  0  0  0  0  0
  161.1480  206.8200  149.5570 C   0  0  0  0  0  0  0  0  0  0  0  0
  161.2660  205.6720  151.7030 C   0  0  0  0  0  0  0  0  0  0  0  0
  161.2730  204.4270  151.0510 C   0  0  0  0  0  0  0  0  0  0  0  0
  161.4230  205.7610  153.2040 C   0  0  0  0  0  2  0  0  0  0  0  0
  161.2110  206.8650  150.9590 C   0  0  0  0  0  0  0  0  0  0  0  0
  161.2830  203.1780  151.9060 C   0  0  0  0  0  2  0  0  0  0  0  0
  161.4750  202.9230  147.7250 O   0  0  0  0  0  0  0  0  0  0  0  0
  162.2550  201.0480  151.6760 O   0  0  0  0  0  0  0  0  0  0  0  0
  161.2120  204.3660  149.6340 C   0  0  0  0  0  0  0  0  0  0  0  0
  161.6220  201.9410  151.1390 C   0  0  0  0  0  0  0  0  0  0  0  0
  159.2710  200.5730  150.6810 O   0  0  0  0  0  1  0  0  0  0  0  0
  158.8230  201.6870  148.7290 O   0  0  0  0  0  0  0  0  0  0  0  0
  159.6890  201.3040  149.7460 C   0  0  0  0  0  0  0  0  0  0  0  0
  161.0620  208.0990  148.7720 C   0  0  0  0  0  2  0  0  0  0  0  0
  162.3660  208.8680  148.8760 C   0  0  0  0  0  2  0  0  0  0  0  0
  162.0930  210.2490  149.4370 C   0  0  0  0  0  2  0  0  0  0  0  0
  162.2770  211.3090  148.3600 C   0  0  0  0  0  2  0  0  0  0  0  0
  161.4770  212.5670  148.6710 C   0  0  0  0  0  2  0  0  0  0  0  0
  160.8290  212.6910  146.3890 C   0  0  0  0  0  0  0  0  0  0  0  0
  159.8830  212.1140  145.7960 O   0  0  0  0  0  0  0  0  0  0  0  0
  162.3040  213.0850  146.4990 N   0  0  0  0  0  2  0  0  0  0  0  0
  161.3380  213.4430  147.4370 C   0  0  2  0  0  3  0  0  0  0  0  0
  160.9900  205.5650  147.3940 C   0  0  0  0  0  2  0  0  0  0  0  0
  162.2650  206.0640  146.7400 C   0  0  0  0  0  3  0  0  0  0  0  0
  163.0450  204.8720  146.2230 C   0  0  0  0  0  2  0  0  0  0  0  0
  162.2320  205.7120  145.2660 C   0  0  0  0  0  2  0  0  0  0  0  0
  1  7  2  0  0  0  0
  1 15  1  0  0  0  0
  2  3  1  0  0  0  0
  4 15  1  0  0  0  0
  4  5  1  0  0  0  0
  5 19  1  1  0  0  0
  5 16  1  0  0  0  0
  6  2  2  0  0  0  0
  7 11  1  0  0  0  0
  8 10  1  0  0  0  0
  9  8  1  0  0  0  0
  9 12  1  0  0  0  0
 10  3  1  0  0  0  0
 11  6  1  0  0  0  0
 11  8  2  0  0  0  0
 13  4  2  0  0  0  0
 15  9  2  0  0  0  0
 16 14  2  0  0  0  0
 16 12  1  0  0  0  0
 18 19  2  0  0  0  0
 19 17  1  0  0  0  0
 20 21  1  0  0  0  0
 20  7  1  0  0  0  0
 21 22  1  0  0  0  0
 23 24  1  0  0  0  0
 23 22  1  0  0  0  0
 25 27  1  0  0  0  0
 25 28  1  0  0  0  0
 26 25  2  0  0  0  0
 27 28  1  0  0  0  0
 28 24  1  1  0  0  0
 29  1  1  0  0  0  0
 30 29  1  0  0  0  0
 31 30  1  0  0  0  0
 32 31  1  0  0  0  0
 32 30  1  0  0  0  0
M  END
>  <MODEL>
5

>  <REMARK>
 VINA RESULT:      -6.7      3.567      6.461
  Name = 
  9 active torsions:
  status: ('A' for Active; 'I' for Inactive)
    1  A    between atoms: C_2  and  C_10
    2  A    between atoms: C_2  and  C_12
    3  A    between atoms: C_3  and  C_28
    4  A    between atoms: C_7  and  C_22
    5  A    between atoms: C_8  and  C_28
    6  A    between atoms: C_9  and  C_14
    7  A    between atoms: C_9  and  C_21
    8  A    between atoms: C_10  and  CA_24
    9  A    between atoms: C_12  and  C_21
                            x       y       z     vdW  Elec       q    Type
                         _______ _______ _______ _____ _____    ______ ____

>  <TORSDO>
F 9

$$$$
=
 OpenBabel11062410453D

 32 36  0  0  1  0  0  0  0  0999 V2000
  161.8240  204.9540  147.7440 C   0  0  0  0  0  0  0  0  0  0  0  0
  160.8360  204.1180  152.4500 C   0  0  0  0  0  3  0  0  0  0  0  0
  160.1570  202.8350  152.0640 C   0  0  0  0  0  2  0  0  0  0  0  0
  161.6370  203.0920  146.0060 C   0  0  0  0  0  0  0  0  0  0  0  0
  161.1140  201.7390  145.6370 C   0  0  1  0  0  3  0  0  0  0  0  0
  161.4040  204.8920  151.5230 C   0  0  0  0  0  3  0  0  0  0  0  0
  161.7910  205.3770  149.0900 C   0  0  0  0  0  0  0  0  0  0  0  0
  161.1610  203.1280  149.7840 C   0  0  0  0  0  0  0  0  0  0  0  0
  161.2080  202.6890  148.4500 C   0  0  0  0  0  0  0  0  0  0  0  0
  160.8960  202.1540  150.9100 C   0  0  0  0  0  2  0  0  0  0  0  0
  161.4600  204.4650  150.1050 C   0  0  0  0  0  0  0  0  0  0  0  0
  160.8290  201.2530  148.1610 C   0  0  0  0  0  2  0  0  0  0  0  0
  162.1680  203.7810  145.0950 O   0  0  0  0  0  0  0  0  0  0  0  0
  161.5710  199.6470  146.6100 O   0  0  0  0  0  0  0  0  0  0  0  0
  161.5450  203.5990  147.4130 C   0  0  0  0  0  0  0  0  0  0  0  0
  161.2250  200.8020  146.7930 C   0  0  0  0  0  0  0  0  0  0  0  0
  158.8750  200.9380  145.4730 O   0  0  0  0  0  1  0  0  0  0  0  0
  159.3040  202.8730  144.3220 O   0  0  0  0  0  0  0  0  0  0  0  0
  159.7060  201.8230  145.1390 C   0  0  0  0  0  0  0  0  0  0  0  0
  162.0820  206.8100  149.4400 C   0  0  0  0  0  2  0  0  0  0  0  0
  160.9120  207.4140  150.1950 C   0  0  0  0  0  2  0  0  0  0  0  0
  161.4070  208.5580  151.0560 C   0  0  0  0  0  2  0  0  0  0  0  0
  160.6120  208.6340  152.3530 C   0  0  0  0  0  2  0  0  0  0  0  0
  161.1460  207.6590  153.3940 C   0  0  0  0  0  2  0  0  0  0  0  0
  160.1240  207.9090  155.5220 C   0  0  0  0  0  0  0  0  0  0  0  0
  159.5070  207.0620  156.2160 O   0  0  0  0  0  0  0  0  0  0  0  0
  160.2270  209.2890  154.8650 N   0  0  0  0  0  2  0  0  0  0  0  0
  161.2140  208.3100  154.7650 C   0  0  2  0  0  3  0  0  0  0  0  0
  162.1080  205.9750  146.6780 C   0  0  0  0  0  2  0  0  0  0  0  0
  160.8610  206.7910  146.3880 C   0  0  0  0  0  3  0  0  0  0  0  0
  160.4560  206.5660  144.9460 C   0  0  0  0  0  2  0  0  0  0  0  0
  159.7220  205.8490  146.0560 C   0  0  0  0  0  2  0  0  0  0  0  0
  1  7  1  0  0  0  0
  3  2  1  0  0  0  0
  4 15  1  0  0  0  0
  5 19  1  1  0  0  0
  5  4  1  0  0  0  0
  5 16  1  0  0  0  0
  6  2  2  0  0  0  0
  7 20  1  0  0  0  0
  7 11  2  0  0  0  0
  8 11  1  0  0  0  0
  8 10  1  0  0  0  0
  9  8  2  0  0  0  0
 10  3  1  0  0  0  0
 11  6  1  0  0  0  0
 12  9  1  0  0  0  0
 13  4  2  0  0  0  0
 14 16  2  0  0  0  0
 15  1  2  0  0  0  0
 15  9  1  0  0  0  0
 16 12  1  0  0  0  0
 18 19  2  0  0  0  0
 19 17  1  0  0  0  0
 20 21  1  0  0  0  0
 21 22  1  0  0  0  0
 22 23  1  0  0  0  0
 23 24  1  0  0  0  0
 25 26  2  0  0  0  0
 27 25  1  0  0  0  0
 28 24  1  6  0  0  0
 28 27  1  0  0  0  0
 28 25  1  0  0  0  0
 29  1  1  0  0  0  0
 30 29  1  0  0  0  0
 31 32  1  0  0  0  0
 31 30  1  0  0  0  0
 32 30  1  0  0  0  0
M  END
>  <MODEL>
6

>  <REMARK>
 VINA RESULT:      -6.1      2.049      3.545
  Name = 
  9 active torsions:
  status: ('A' for Active; 'I' for Inactive)
    1  A    between atoms: C_2  and  C_10
    2  A    between atoms: C_2  and  C_12
    3  A    between atoms: C_3  and  C_28
    4  A    between atoms: C_7  and  C_22
    5  A    between atoms: C_8  and  C_28
    6  A    between atoms: C_9  and  C_14
    7  A    between atoms: C_9  and  C_21
    8  A    between atoms: C_10  and  CA_24
    9  A    between atoms: C_12  and  C_21
                            x       y       z     vdW  Elec       q    Type
                         _______ _______ _______ _____ _____    ______ ____

>  <TORSDO>
F 9

$$$$
=
 OpenBabel11062410453D

 32 36  0  0  1  0  0  0  0  0999 V2000
  161.2860  210.4200  152.1730 C   0  0  0  0  0  0  0  0  0  0  0  0
  160.8560  212.8290  147.9490 C   0  0  0  0  0  3  0  0  0  0  0  0
  159.6860  213.5820  148.5150 C   0  0  0  0  0  2  0  0  0  0  0  0
  160.1170  211.2470  154.2880 C   0  0  0  0  0  0  0  0  0  0  0  0
  159.0650  212.1110  154.9090 C   0  0  1  0  0  3  0  0  0  0  0  0
  161.5120  211.9350  148.6920 C   0  0  0  0  0  3  0  0  0  0  0  0
  161.6420  210.6090  150.8200 C   0  0  0  0  0  0  0  0  0  0  0  0
  160.3290  212.6610  150.7580 C   0  0  0  0  0  0  0  0  0  0  0  0
  159.9810  212.4950  152.1090 C   0  0  0  0  0  0  0  0  0  0  0  0
  159.9050  213.8960  149.9960 C   0  0  0  0  0  2  0  0  0  0  0  0
  161.1630  211.7260  150.1170 C   0  0  0  0  0  0  0  0  0  0  0  0
  159.0420  213.5050  152.7310 C   0  0  0  0  0  2  0  0  0  0  0  0
  160.7100  210.4230  155.0320 O   0  0  0  0  0  0  0  0  0  0  0  0
  158.8460  214.4530  154.8750 O   0  0  0  0  0  0  0  0  0  0  0  0
  160.4610  211.3710  152.8350 C   0  0  0  0  0  0  0  0  0  0  0  0
  159.0020  213.4350  154.2220 C   0  0  0  0  0  0  0  0  0  0  0  0
  157.4970  210.5140  155.7270 O   0  0  0  0  0  1  0  0  0  0  0  0
  156.7500  211.8100  153.9910 O   0  0  0  0  0  0  0  0  0  0  0  0
  157.7330  211.4310  154.8990 C   0  0  0  0  0  0  0  0  0  0  0  0
  162.5100  209.6020  150.1190 C   0  0  0  0  0  2  0  0  0  0  0  0
  161.6910  208.8100  149.1160 C   0  0  0  0  0  2  0  0  0  0  0  0
  162.2750  207.4180  148.9780 C   0  0  0  0  0  2  0  0  0  0  0  0
  161.1820  206.3660  149.1050 C   0  0  0  0  0  2  0  0  0  0  0  0
  161.3260  205.2800  148.0470 C   0  0  0  0  0  2  0  0  0  0  0  0
  161.1580  205.7860  145.7330 C   0  0  0  0  0  0  0  0  0  0  0  0
  160.1830  206.2430  145.0850 O   0  0  0  0  0  0  0  0  0  0  0  0
  162.2810  204.7640  145.9280 N   0  0  0  0  0  2  0  0  0  0  0  0
  162.0300  205.8130  146.8110 C   0  0  2  0  0  3  0  0  0  0  0  0
  161.7550  209.1740  152.8710 C   0  0  0  0  0  2  0  0  0  0  0  0
  160.7670  208.0440  152.6470 C   0  0  0  0  0  3  0  0  0  0  0  0
  161.5240  206.7330  152.6220 C   0  0  0  0  0  2  0  0  0  0  0  0
  160.7670  207.1420  153.8640 C   0  0  0  0  0  2  0  0  0  0  0  0
  1 15  1  0  0  0  0
  1 29  1  0  0  0  0
  2  3  1  0  0  0  0
  2  6  2  0  0  0  0
  3 10  1  0  0  0  0
  4  5  1  0  0  0  0
  4 13  2  0  0  0  0
  5 19  1  6  0  0  0
  6 11  1  0  0  0  0
  7  1  2  0  0  0  0
  8  9  1  0  0  0  0
  9 12  1  0  0  0  0
  9 15  2  0  0  0  0
 10  8  1  0  0  0  0
 11  8  2  0  0  0  0
 11  7  1  0  0  0  0
 12 16  1  0  0  0  0
 15  4  1  0  0  0  0
 16 14  2  0  0  0  0
 16  5  1  0  0  0  0
 18 19  2  0  0  0  0
 19 17  1  0  0  0  0
 20  7  1  0  0  0  0
 21 20  1  0  0  0  0
 22 23  1  0  0  0  0
 22 21  1  0  0  0  0
 24 23  1  0  0  0  0
 25 27  1  0  0  0  0
 25 28  1  0  0  0  0
 26 25  2  0  0  0  0
 27 28  1  0  0  0  0
 28 24  1  1  0  0  0
 30 29  1  0  0  0  0
 30 32  1  0  0  0  0
 31 30  1  0  0  0  0
 31 32  1  0  0  0  0
M  END
>  <MODEL>
7

>  <REMARK>
 VINA RESULT:      -6.0      3.642      9.504
  Name = 
  9 active torsions:
  status: ('A' for Active; 'I' for Inactive)
    1  A    between atoms: C_2  and  C_10
    2  A    between atoms: C_2  and  C_12
    3  A    between atoms: C_3  and  C_28
    4  A    between atoms: C_7  and  C_22
    5  A    between atoms: C_8  and  C_28
    6  A    between atoms: C_9  and  C_14
    7  A    between atoms: C_9  and  C_21
    8  A    between atoms: C_10  and  CA_24
    9  A    between atoms: C_12  and  C_21
                            x       y       z     vdW  Elec       q    Type
                         _______ _______ _______ _____ _____    ______ ____

>  <TORSDO>
F 9

$$$$
=
 OpenBabel11062410453D

 32 36  0  0  1  0  0  0  0  0999 V2000
  162.2190  206.1950  150.0510 C   0  0  0  0  0  0  0  0  0  0  0  0
  160.3620  202.3190  152.3640 C   0  0  0  0  0  3  0  0  0  0  0  0
  159.7840  201.8380  151.0640 C   0  0  0  0  0  2  0  0  0  0  0  0
  162.3890  206.2530  147.5030 C   0  0  0  0  0  0  0  0  0  0  0  0
  161.9630  205.6920  146.1830 C   0  0  1  0  0  3  0  0  0  0  0  0
  161.0870  203.4380  152.4130 C   0  0  0  0  0  3  0  0  0  0  0  0
  161.9260  205.4930  151.2400 C   0  0  0  0  0  0  0  0  0  0  0  0
  161.2010  203.5710  149.9310 C   0  0  0  0  0  0  0  0  0  0  0  0
  161.5070  204.2500  148.7390 C   0  0  0  0  0  0  0  0  0  0  0  0
  160.7370  202.1310  149.9040 C   0  0  0  0  0  2  0  0  0  0  0  0
  161.4170  204.1860  151.1770 C   0  0  0  0  0  0  0  0  0  0  0  0
  161.2070  203.5560  147.4280 C   0  0  0  0  0  2  0  0  0  0  0  0
  163.0760  207.3080  147.4940 O   0  0  0  0  0  0  0  0  0  0  0  0
  162.2500  203.5230  145.3200 O   0  0  0  0  0  0  0  0  0  0  0  0
  162.0250  205.5720  148.7870 C   0  0  0  0  0  0  0  0  0  0  0  0
  161.8620  204.2060  146.2530 C   0  0  0  0  0  0  0  0  0  0  0  0
  159.7840  206.5760  146.5750 O   0  0  0  0  0  1  0  0  0  0  0  0
  160.4580  206.5820  144.3840 O   0  0  0  0  0  0  0  0  0  0  0  0
  160.6740  206.3030  145.7290 C   0  0  0  0  0  0  0  0  0  0  0  0
  162.1270  206.1520  152.5760 C   0  0  0  0  0  2  0  0  0  0  0  0
  160.8630  206.8760  153.0010 C   0  0  0  0  0  2  0  0  0  0  0  0
  160.7440  206.8360  154.5110 C   0  0  0  0  0  2  0  0  0  0  0  0
  160.6760  208.2460  155.0800 C   0  0  0  0  0  2  0  0  0  0  0  0
  160.8310  209.2970  153.9890 C   0  0  0  0  0  2  0  0  0  0  0  0
  161.9880  210.6970  155.5190 C   0  0  0  0  0  0  0  0  0  0  0  0
  163.2070  210.7070  155.8280 O   0  0  0  0  0  0  0  0  0  0  0  0
  160.5050  210.6740  155.9030 N   0  0  0  0  0  2  0  0  0  0  0  0
  160.9620  210.6880  154.5860 C   0  0  2  0  0  3  0  0  0  0  0  0
  162.6900  207.6190  150.1550 C   0  0  0  0  0  2  0  0  0  0  0  0
  161.5150  208.5700  150.0180 C   0  0  0  0  0  3  0  0  0  0  0  0
  161.8590  209.8710  150.7130 C   0  0  0  0  0  2  0  0  0  0  0  0
  161.9490  209.7750  149.2080 C   0  0  0  0  0  2  0  0  0  0  0  0
  1 29  1  0  0  0  0
  1  7  1  0  0  0  0
  2  6  2  0  0  0  0
  3  2  1  0  0  0  0
  4 15  1  0  0  0  0
  5 19  1  1  0  0  0
  5 16  1  0  0  0  0
  5  4  1  0  0  0  0
  7 20  1  0  0  0  0
  8 11  1  0  0  0  0
  9 15  1  0  0  0  0
  9  8  2  0  0  0  0
 10  8  1  0  0  0  0
 10  3  1  0  0  0  0
 11  7  2  0  0  0  0
 11  6  1  0  0  0  0
 12  9  1  0  0  0  0
 13  4  2  0  0  0  0
 14 16  2  0  0  0  0
 15  1  2  0  0  0  0
 16 12  1  0  0  0  0
 18 19  2  0  0  0  0
 19 17  1  0  0  0  0
 20 21  1  0  0  0  0
 21 22  1  0  0  0  0
 22 23  1  0  0  0  0
 24 23  1  0  0  0  0
 25 26  2  0  0  0  0
 25 27  1  0  0  0  0
 28 24  1  6  0  0  0
 28 25  1  0  0  0  0
 28 27  1  0  0  0  0
 30 29  1  0  0  0  0
 30 31  1  0  0  0  0
 32 30  1  0  0  0  0
 32 31  1  0  0  0  0
M  END
>  <MODEL>
8

>  <REMARK>
 VINA RESULT:      -5.8      1.280      1.692
  Name = 
  9 active torsions:
  status: ('A' for Active; 'I' for Inactive)
    1  A    between atoms: C_2  and  C_10
    2  A    between atoms: C_2  and  C_12
    3  A    between atoms: C_3  and  C_28
    4  A    between atoms: C_7  and  C_22
    5  A    between atoms: C_8  and  C_28
    6  A    between atoms: C_9  and  C_14
    7  A    between atoms: C_9  and  C_21
    8  A    between atoms: C_10  and  CA_24
    9  A    between atoms: C_12  and  C_21
                            x       y       z     vdW  Elec       q    Type
                         _______ _______ _______ _____ _____    ______ ____

>  <TORSDO>
F 9

$$$$
=
 OpenBabel11062410453D

 32 36  0  0  1  0  0  0  0  0999 V2000
  159.9950  210.9330  154.4950 C   0  0  0  0  0  0  0  0  0  0  0  0
  159.9720  213.1530  150.1480 C   0  0  0  0  0  3  0  0  0  0  0  0
  158.5930  213.6720  150.4370 C   0  0  0  0  0  2  0  0  0  0  0  0
  158.2930  211.5470  156.2980 C   0  0  0  0  0  0  0  0  0  0  0  0
  156.9960  212.1990  156.6580 C   0  0  1  0  0  3  0  0  0  0  0  0
  160.6230  212.4140  151.0490 C   0  0  0  0  0  3  0  0  0  0  0  0
  160.5720  211.1690  153.2290 C   0  0  0  0  0  0  0  0  0  0  0  0
  158.9370  212.9250  152.8070 C   0  0  0  0  0  0  0  0  0  0  0  0
  158.3640  212.7140  154.0720 C   0  0  0  0  0  0  0  0  0  0  0  0
  158.4490  214.0440  151.9130 C   0  0  0  0  0  2  0  0  0  0  0  0
  160.0420  212.1620  152.3890 C   0  0  0  0  0  0  0  0  0  0  0  0
  157.1470  213.5320  154.4470 C   0  0  0  0  0  2  0  0  0  0  0  0
  158.8690  210.8640  157.1850 O   0  0  0  0  0  0  0  0  0  0  0  0
  156.3530  214.4530  156.4610 O   0  0  0  0  0  0  0  0  0  0  0  0
  158.8910  211.7160  154.9340 C   0  0  0  0  0  0  0  0  0  0  0  0
  156.8240  213.4750  155.9040 C   0  0  0  0  0  0  0  0  0  0  0  0
  154.9030  211.2300  157.2610 O   0  0  0  0  0  1  0  0  0  0  0  0
  155.7980  210.4690  155.2930 O   0  0  0  0  0  0  0  0  0  0  0  0
  155.8440  211.2730  156.4260 C   0  0  0  0  0  0  0  0  0  0  0  0
  161.7360  210.3400  152.7620 C   0  0  0  0  0  2  0  0  0  0  0  0
  161.3100  209.4310  151.6230 C   0  0  0  0  0  2  0  0  0  0  0  0
  161.9580  208.0720  151.7960 C   0  0  0  0  0  2  0  0  0  0  0  0
  160.9650  206.9620  151.4820 C   0  0  0  0  0  2  0  0  0  0  0  0
  161.5780  205.9010  150.5780 C   0  0  0  0  0  2  0  0  0  0  0  0
  161.1560  204.8340  148.4990 C   0  0  0  0  0  0  0  0  0  0  0  0
  161.8430  203.9780  147.8870 O   0  0  0  0  0  0  0  0  0  0  0  0
  160.3750  206.1510  148.5390 N   0  0  0  0  0  2  0  0  0  0  0  0
  160.5350  205.3140  149.6420 C   0  0  2  0  0  3  0  0  0  0  0  0
  160.5400  209.8120  155.3350 C   0  0  0  0  0  2  0  0  0  0  0  0
  159.8690  208.5030  154.9610 C   0  0  0  0  0  3  0  0  0  0  0  0
  160.8650  207.3760  155.1430 C   0  0  0  0  0  2  0  0  0  0  0  0
  159.8000  207.6170  156.1880 C   0  0  0  0  0  2  0  0  0  0  0  0
  1 15  1  0  0  0  0
  1 29  1  0  0  0  0
  2  3  1  0  0  0  0
  2  6  2  0  0  0  0
  3 10  1  0  0  0  0
  4  5  1  0  0  0  0
  4 13  2  0  0  0  0
  5 19  1  6  0  0  0
  6 11  1  0  0  0  0
  7  1  2  0  0  0  0
  8  9  1  0  0  0  0
  9 12  1  0  0  0  0
  9 15  2  0  0  0  0
 10  8  1  0  0  0  0
 11  8  2  0  0  0  0
 11  7  1  0  0  0  0
 12 16  1  0  0  0  0
 15  4  1  0  0  0  0
 16 14  2  0  0  0  0
 16  5  1  0  0  0  0
 18 19  2  0  0  0  0
 19 17  1  0  0  0  0
 20  7  1  0  0  0  0
 21 22  1  0  0  0  0
 21 20  1  0  0  0  0
 23 22  1  0  0  0  0
 24 23  1  0  0  0  0
 25 27  1  0  0  0  0
 25 28  1  0  0  0  0
 26 25  2  0  0  0  0
 27 28  1  0  0  0  0
 28 24  1  1  0  0  0
 30 31  1  0  0  0  0
 30 29  1  0  0  0  0
 30 32  1  0  0  0  0
 31 32  1  0  0  0  0
M  END
>  <MODEL>
9

>  <REMARK>
 VINA RESULT:      -5.8      4.179     10.202
  Name = 
  9 active torsions:
  status: ('A' for Active; 'I' for Inactive)
    1  A    between atoms: C_2  and  C_10
    2  A    between atoms: C_2  and  C_12
    3  A    between atoms: C_3  and  C_28
    4  A    between atoms: C_7  and  C_22
    5  A    between atoms: C_8  and  C_28
    6  A    between atoms: C_9  and  C_14
    7  A    between atoms: C_9  and  C_21
    8  A    between atoms: C_10  and  CA_24
    9  A    between atoms: C_12  and  C_21
                            x       y       z     vdW  Elec       q    Type
                         _______ _______ _______ _____ _____    ______ ____

>  <TORSDO>
F 9

$$$$
