=
 OpenBabel11062409123D

 37 41  0  0  1  0  0  0  0  0999 V2000
  161.3550  210.8540  155.2940 C   0  0  2  0  0  3  0  0  0  0  0  0
  160.7120  208.4010  155.3640 C   0  0  0  0  0  3  0  0  0  0  0  0
  160.7150  210.2750  152.8680 C   0  0  1  0  0  3  0  0  0  0  0  0
  161.0630  208.7660  152.9020 C   0  0  1  0  0  3  0  0  0  0  0  0
  160.4270  208.1040  154.0920 C   0  0  0  0  0  3  0  0  0  0  0  0
  161.6060  211.0910  153.8070 C   0  0  0  0  0  2  0  0  0  0  0  0
  161.7120  209.4400  155.7710 C   0  0  0  0  0  2  0  0  0  0  0  0
  158.0230  213.5950  149.0940 O   0  0  0  0  0  0  0  0  0  0  0  0
  160.6510  210.9610  151.4760 C   0  0  1  0  0  3  0  0  0  0  0  0
  160.1690  213.1700  150.0670 C   0  0  1  0  0  3  0  0  0  0  0  0
  159.9640  212.3590  151.3610 C   0  0  2  0  0  0  0  0  0  0  0  0
  161.5920  213.0260  149.5400 C   0  0  0  0  0  2  0  0  0  0  0  0
  159.7990  213.2060  152.6070 C   0  0  0  0  0  2  0  0  0  0  0  0
  157.6150  213.4570  151.4490 C   0  0  0  0  0  2  0  0  0  0  0  0
  162.5140  209.1930  150.5290 Cl  0  0  0  0  0  0  0  0  0  0  0  0
  161.9670  211.5600  149.3880 C   0  0  0  0  0  2  0  0  0  0  0  0
  158.5960  212.4570  152.0520 C   0  0  1  0  0  3  0  0  0  0  0  0
  162.0080  210.8870  150.7520 C   0  0  1  0  0  3  0  0  0  0  0  0
  159.1530  212.7730  148.9980 C   0  0  0  0  0  2  0  0  0  0  0  0
  157.1890  213.0090  150.0560 C   0  0  0  0  0  2  0  0  0  0  0  0
  160.0600  211.4900  155.8280 C   0  0  1  0  0  3  0  0  0  0  0  0
  159.9830  213.0080  155.6760 C   0  0  0  0  0  2  0  0  0  0  0  0
  158.8810  214.4220  157.2600 O   0  0  0  0  0  1  0  0  0  0  0  0
  160.0490  213.6960  157.0290 C   0  0  0  0  0  2  0  0  0  0  0  0
  158.7940  210.7560  155.3690 C   0  0  0  0  0  2  0  0  0  0  0  0
  156.4900  211.0670  154.5150 C   0  0  0  0  0  1  0  0  0  0  0  0
  157.5250  211.5920  155.4870 C   0  0  0  0  0  3  0  0  0  0  0  0
  156.9660  211.5110  156.8940 C   0  0  0  0  0  1  0  0  0  0  0  0
  160.5980  208.0180  151.6610 C   0  0  0  0  0  2  0  0  0  0  0  0
  160.7910  206.5230  151.8360 C   0  0  0  0  0  2  0  0  0  0  0  0
  161.0480  204.4820  150.4130 C   0  0  0  0  0  3  0  0  0  0  0  0
  160.8640  205.8670  150.5020 C   0  0  0  0  0  0  0  0  0  0  0  0
  160.7900  206.6380  149.3360 C   0  0  0  0  0  3  0  0  0  0  0  0
  160.8100  206.7690  146.9560 F   0  0  0  0  0  0  0  0  0  0  0  0
  161.0640  204.6390  147.9960 C   0  0  0  0  0  3  0  0  0  0  0  0
  160.8860  206.0240  148.0840 C   0  0  0  0  0  0  0  0  0  0  0  0
  161.1450  203.8680  149.1610 C   0  0  0  0  0  3  0  0  0  0  0  0
  1  7  1  0  0  0  0
  1 21  1  6  0  0  0
  2  7  1  0  0  0  0
  3  4  1  0  0  0  0
  3  6  1  1  0  0  0
  4 29  1  6  0  0  0
  4  5  1  0  0  0  0
  5  2  2  0  0  0  0
  6  1  1  0  0  0  0
  8 20  1  0  0  0  0
  9  3  1  1  0  0  0
 10 19  1  6  0  0  0
 10 11  1  0  0  0  0
 11  9  1  0  0  0  0
 11 17  1  0  0  0  0
 11 13  1  1  0  0  0
 12 10  1  0  0  0  0
 16 12  1  0  0  0  0
 16 18  1  0  0  0  0
 17 14  1  6  0  0  0
 17 13  1  0  0  0  0
 18 15  1  6  0  0  0
 18  9  1  0  0  0  0
 19  8  1  0  0  0  0
 20 14  1  0  0  0  0
 21 25  1  6  0  0  0
 22 21  1  0  0  0  0
 22 24  1  0  0  0  0
 24 23  1  0  0  0  0
 25 27  1  0  0  0  0
 26 27  1  0  0  0  0
 27 28  1  0  0  0  0
 29 30  1  0  0  0  0
 31 32  1  0  0  0  0
 32 30  1  0  0  0  0
 33 32  2  0  0  0  0
 34 36  1  0  0  0  0
 35 36  2  0  0  0  0
 35 37  1  0  0  0  0
 36 33  1  0  0  0  0
 37 31  2  0  0  0  0
M  END
>  <MODEL>
1

>  <REMARK>
 VINA RESULT:      -5.3      0.000      0.000
  Name = 
  9 active torsions:
  status: ('A' for Active; 'I' for Inactive)
    1  A    between atoms: C_1  and  C_33
    2  A    between atoms: C_4  and  C_10
    3  A    between atoms: C_5  and  C_23
    4  A    between atoms: C_5  and  C_33
    5  A    between atoms: C_6  and  C_31
    6  A    between atoms: C_14  and  C_37
    7  A    between atoms: C_17  and  C_26
    8  A    between atoms: C_17  and  C_33
    9  A    between atoms: C_31  and  C_37
                            x       y       z     vdW  Elec       q    Type
                         _______ _______ _______ _____ _____    ______ ____

>  <TORSDO>
F 9

$$$$
=
 OpenBabel11062409123D

 37 41  0  0  1  0  0  0  0  0999 V2000
  160.8620  211.2250  155.2110 C   0  0  2  0  0  3  0  0  0  0  0  0
  160.4810  208.7180  155.2880 C   0  0  0  0  0  3  0  0  0  0  0  0
  160.5220  210.5390  152.7540 C   0  0  1  0  0  3  0  0  0  0  0  0
  161.0250  209.0780  152.8610 C   0  0  1  0  0  3  0  0  0  0  0  0
  160.3530  208.3700  154.0030 C   0  0  0  0  0  3  0  0  0  0  0  0
  161.2270  211.4630  153.7490 C   0  0  0  0  0  2  0  0  0  0  0  0
  161.3200  209.8670  155.7580 C   0  0  0  0  0  2  0  0  0  0  0  0
  157.9410  213.6550  148.7370 O   0  0  0  0  0  0  0  0  0  0  0  0
  160.5180  211.1900  151.3440 C   0  0  1  0  0  3  0  0  0  0  0  0
  160.0360  213.3450  149.8530 C   0  0  1  0  0  3  0  0  0  0  0  0
  159.7830  212.5540  151.1500 C   0  0  2  0  0  0  0  0  0  0  0  0
  161.4940  213.2510  149.4190 C   0  0  0  0  0  2  0  0  0  0  0  0
  159.5040  213.4220  152.3620 C   0  0  0  0  0  2  0  0  0  0  0  0
  157.3900  213.5530  151.0640 C   0  0  0  0  0  2  0  0  0  0  0  0
  162.5100  209.4830  150.5590 Cl  0  0  0  0  0  0  0  0  0  0  0  0
  161.9390  211.7990  149.3270 C   0  0  0  0  0  2  0  0  0  0  0  0
  158.3710  212.6090  151.7530 C   0  0  1  0  0  3  0  0  0  0  0  0
  161.9200  211.1590  150.7080 C   0  0  1  0  0  3  0  0  0  0  0  0
  159.1080  212.8810  148.7320 C   0  0  0  0  0  2  0  0  0  0  0  0
  157.0720  213.0560  149.6590 C   0  0  0  0  0  2  0  0  0  0  0  0
  159.4600  211.7240  155.6050 C   0  0  1  0  0  3  0  0  0  0  0  0
  158.3250  210.7470  155.3020 C   0  0  0  0  0  2  0  0  0  0  0  0
  155.9740  211.1640  155.4480 O   0  0  0  0  0  1  0  0  0  0  0  0
  157.1230  211.4710  154.7190 C   0  0  0  0  0  2  0  0  0  0  0  0
  159.4060  212.3180  157.0180 C   0  0  0  0  0  2  0  0  0  0  0  0
  159.3340  214.4360  155.7370 C   0  0  0  0  0  1  0  0  0  0  0  0
  158.9720  213.7780  157.0520 C   0  0  0  0  0  3  0  0  0  0  0  0
  157.4750  213.8820  157.2600 C   0  0  0  0  0  1  0  0  0  0  0  0
  160.7630  208.2620  151.6020 C   0  0  0  0  0  2  0  0  0  0  0  0
  160.9240  206.7800  151.8840 C   0  0  0  0  0  2  0  0  0  0  0  0
  161.0710  204.6310  150.6140 C   0  0  0  0  0  3  0  0  0  0  0  0
  160.9250  206.0230  150.6030 C   0  0  0  0  0  0  0  0  0  0  0  0
  160.8240  206.7050  149.3850 C   0  0  0  0  0  3  0  0  0  0  0  0
  160.7500  206.6540  147.0030 F   0  0  0  0  0  0  0  0  0  0  0  0
  160.9910  204.6030  148.1930 C   0  0  0  0  0  3  0  0  0  0  0  0
  160.8530  205.9950  148.1810 C   0  0  0  0  0  0  0  0  0  0  0  0
  161.1010  203.9210  149.4100 C   0  0  0  0  0  3  0  0  0  0  0  0
  1 21  1  6  0  0  0
  1  7  1  0  0  0  0
  2  7  1  0  0  0  0
  3  4  1  0  0  0  0
  3  6  1  1  0  0  0
  4 29  1  6  0  0  0
  4  5  1  0  0  0  0
  5  2  2  0  0  0  0
  6  1  1  0  0  0  0
  8 20  1  0  0  0  0
  9  3  1  1  0  0  0
 10 19  1  6  0  0  0
 10 11  1  0  0  0  0
 11  9  1  0  0  0  0
 11 17  1  0  0  0  0
 11 13  1  1  0  0  0
 12 10  1  0  0  0  0
 16 12  1  0  0  0  0
 16 18  1  0  0  0  0
 17 14  1  6  0  0  0
 17 13  1  0  0  0  0
 18 15  1  6  0  0  0
 18  9  1  0  0  0  0
 19  8  1  0  0  0  0
 20 14  1  0  0  0  0
 21 22  1  1  0  0  0
 21 25  1  0  0  0  0
 24 22  1  0  0  0  0
 24 23  1  0  0  0  0
 25 27  1  0  0  0  0
 26 27  1  0  0  0  0
 27 28  1  0  0  0  0
 29 30  1  0  0  0  0
 32 31  1  0  0  0  0
 32 30  1  0  0  0  0
 33 32  2  0  0  0  0
 34 36  1  0  0  0  0
 35 37  1  0  0  0  0
 36 35  2  0  0  0  0
 36 33  1  0  0  0  0
 37 31  2  0  0  0  0
M  END
>  <MODEL>
2

>  <REMARK>
 VINA RESULT:      -5.1      1.027      1.602
  Name = 
  9 active torsions:
  status: ('A' for Active; 'I' for Inactive)
    1  A    between atoms: C_1  and  C_33
    2  A    between atoms: C_4  and  C_10
    3  A    between atoms: C_5  and  C_23
    4  A    between atoms: C_5  and  C_33
    5  A    between atoms: C_6  and  C_31
    6  A    between atoms: C_14  and  C_37
    7  A    between atoms: C_17  and  C_26
    8  A    between atoms: C_17  and  C_33
    9  A    between atoms: C_31  and  C_37
                            x       y       z     vdW  Elec       q    Type
                         _______ _______ _______ _____ _____    ______ ____

>  <TORSDO>
F 9

$$$$
=
 OpenBabel11062409123D

 37 41  0  0  1  0  0  0  0  0999 V2000
  162.1600  209.4110  151.5540 C   0  0  2  0  0  3  0  0  0  0  0  0
  161.2180  211.0360  149.8500 C   0  0  0  0  0  3  0  0  0  0  0  0
  160.6620  210.9970  152.9200 C   0  0  1  0  0  3  0  0  0  0  0  0
  160.7700  212.2440  152.0080 C   0  0  1  0  0  3  0  0  0  0  0  0
  160.4800  211.8800  150.5790 C   0  0  0  0  0  3  0  0  0  0  0  0
  161.9290  210.1410  152.8750 C   0  0  0  0  0  2  0  0  0  0  0  0
  162.4400  210.3410  150.3670 C   0  0  0  0  0  2  0  0  0  0  0  0
  156.8670  212.8350  156.7590 O   0  0  0  0  0  0  0  0  0  0  0  0
  160.2360  211.2280  154.3960 C   0  0  1  0  0  3  0  0  0  0  0  0
  158.3440  211.0180  156.2600 C   0  0  1  0  0  3  0  0  0  0  0  0
  158.7260  211.0970  154.7700 C   0  0  2  0  0  0  0  0  0  0  0  0
  159.3510  210.1890  157.0490 C   0  0  0  0  0  2  0  0  0  0  0  0
  157.8010  210.3230  153.8500 C   0  0  0  0  0  2  0  0  0  0  0  0
  156.4630  212.3270  154.4550 C   0  0  0  0  0  2  0  0  0  0  0  0
  162.8550  211.0390  155.1720 Cl  0  0  0  0  0  0  0  0  0  0  0  0
  160.7670  210.6970  156.8230 C   0  0  0  0  0  2  0  0  0  0  0  0
  157.7680  211.8440  153.8300 C   0  0  1  0  0  3  0  0  0  0  0  0
  161.1710  210.4900  155.3710 C   0  0  1  0  0  3  0  0  0  0  0  0
  158.1970  212.4120  156.8690 C   0  0  0  0  0  2  0  0  0  0  0  0
  156.7390  213.4120  155.4880 C   0  0  0  0  0  2  0  0  0  0  0  0
  161.2310  208.2070  151.3230 C   0  0  1  0  0  3  0  0  0  0  0  0
  161.8270  207.0960  150.4600 C   0  0  0  0  0  2  0  0  0  0  0  0
  161.2540  205.5050  148.7680 O   0  0  0  0  0  1  0  0  0  0  0  0
  160.7350  206.2520  149.8240 C   0  0  0  0  0  2  0  0  0  0  0  0
  160.5660  207.7020  152.6100 C   0  0  0  0  0  2  0  0  0  0  0  0
  161.2300  207.1710  154.9350 C   0  0  0  0  0  1  0  0  0  0  0  0
  161.4820  206.8480  153.4780 C   0  0  0  0  0  3  0  0  0  0  0  0
  161.2100  205.3750  153.2450 C   0  0  0  0  0  1  0  0  0  0  0  0
  159.8070  213.3570  152.4000 C   0  0  0  0  0  2  0  0  0  0  0  0
  159.6130  214.3240  151.2470 C   0  0  0  0  0  2  0  0  0  0  0  0
  157.1540  214.4530  151.6810 C   0  0  0  0  0  3  0  0  0  0  0  0
  158.2040  214.2660  150.7740 C   0  0  0  0  0  0  0  0  0  0  0  0
  157.9260  213.9820  149.4320 C   0  0  0  0  0  3  0  0  0  0  0  0
  156.3310  213.6310  147.6950 F   0  0  0  0  0  0  0  0  0  0  0  0
  155.5520  214.0940  149.9000 C   0  0  0  0  0  3  0  0  0  0  0  0
  156.6000  213.9000  148.9950 C   0  0  0  0  0  0  0  0  0  0  0  0
  155.8290  214.3700  151.2430 C   0  0  0  0  0  3  0  0  0  0  0  0
  1 21  1  6  0  0  0
  1  6  1  0  0  0  0
  2  7  1  0  0  0  0
  2  5  2  0  0  0  0
  3  6  1  1  0  0  0
  4 29  1  1  0  0  0
  4  3  1  0  0  0  0
  5  4  1  0  0  0  0
  7  1  1  0  0  0  0
  8 19  1  0  0  0  0
  9  3  1  6  0  0  0
  9 11  1  0  0  0  0
  9 18  1  0  0  0  0
 10 19  1  1  0  0  0
 10 12  1  0  0  0  0
 11 13  1  6  0  0  0
 11 10  1  0  0  0  0
 14 20  1  0  0  0  0
 16 12  1  0  0  0  0
 17 13  1  6  0  0  0
 17 14  1  0  0  0  0
 17 11  1  0  0  0  0
 18 15  1  1  0  0  0
 18 16  1  0  0  0  0
 20  8  1  0  0  0  0
 21 22  1  1  0  0  0
 21 25  1  0  0  0  0
 23 24  1  0  0  0  0
 24 22  1  0  0  0  0
 25 27  1  0  0  0  0
 27 26  1  0  0  0  0
 28 27  1  0  0  0  0
 30 29  1  0  0  0  0
 32 30  1  0  0  0  0
 32 31  2  0  0  0  0
 33 32  1  0  0  0  0
 34 36  1  0  0  0  0
 35 37  2  0  0  0  0
 36 33  2  0  0  0  0
 36 35  1  0  0  0  0
 37 31  1  0  0  0  0
M  END
>  <MODEL>
3

>  <REMARK>
 VINA RESULT:      -4.7      2.535      7.071
  Name = 
  9 active torsions:
  status: ('A' for Active; 'I' for Inactive)
    1  A    between atoms: C_1  and  C_33
    2  A    between atoms: C_4  and  C_10
    3  A    between atoms: C_5  and  C_23
    4  A    between atoms: C_5  and  C_33
    5  A    between atoms: C_6  and  C_31
    6  A    between atoms: C_14  and  C_37
    7  A    between atoms: C_17  and  C_26
    8  A    between atoms: C_17  and  C_33
    9  A    between atoms: C_31  and  C_37
                            x       y       z     vdW  Elec       q    Type
                         _______ _______ _______ _____ _____    ______ ____

>  <TORSDO>
F 9

$$$$
=
 OpenBabel11062409123D

 37 41  0  0  1  0  0  0  0  0999 V2000
  162.2240  207.6320  152.3640 C   0  0  2  0  0  3  0  0  0  0  0  0
  161.8730  208.3120  149.9460 C   0  0  0  0  0  3  0  0  0  0  0  0
  161.2710  210.0200  152.4870 C   0  0  1  0  0  3  0  0  0  0  0  0
  161.7830  210.5330  151.1190 C   0  0  1  0  0  3  0  0  0  0  0  0
  161.4220  209.5680  150.0240 C   0  0  0  0  0  3  0  0  0  0  0  0
  162.2060  208.9730  153.0940 C   0  0  0  0  0  2  0  0  0  0  0  0
  162.8050  207.7000  150.9460 C   0  0  0  0  0  2  0  0  0  0  0  0
  158.1240  214.4520  154.2100 O   0  0  0  0  0  0  0  0  0  0  0  0
  160.9090  211.0850  153.5580 C   0  0  1  0  0  3  0  0  0  0  0  0
  159.0100  212.3490  154.9350 C   0  0  1  0  0  3  0  0  0  0  0  0
  159.4210  211.5400  153.6900 C   0  0  2  0  0  0  0  0  0  0  0  0
  159.7170  211.8420  156.1870 C   0  0  0  0  0  2  0  0  0  0  0  0
  158.3240  210.6500  153.1380 C   0  0  0  0  0  2  0  0  0  0  0  0
  157.6240  212.9270  152.4340 C   0  0  0  0  0  2  0  0  0  0  0  0
  163.3440  210.7030  154.7480 Cl  0  0  0  0  0  0  0  0  0  0  0  0
  161.2230  211.7960  155.9770 C   0  0  0  0  0  2  0  0  0  0  0  0
  158.7390  211.8890  152.3590 C   0  0  1  0  0  3  0  0  0  0  0  0
  161.5710  210.7670  154.9110 C   0  0  1  0  0  3  0  0  0  0  0  0
  159.2700  213.8420  154.7360 C   0  0  0  0  0  2  0  0  0  0  0  0
  158.1900  214.2880  152.8200 C   0  0  0  0  0  2  0  0  0  0  0  0
  160.9690  206.7700  152.5880 C   0  0  1  0  0  3  0  0  0  0  0  0
  160.7420  205.6850  151.5370 C   0  0  0  0  0  2  0  0  0  0  0  0
  161.0670  203.3640  151.0540 O   0  0  0  0  0  1  0  0  0  0  0  0
  161.1390  204.3180  152.0690 C   0  0  0  0  0  2  0  0  0  0  0  0
  160.8280  206.2740  154.0320 C   0  0  0  0  0  2  0  0  0  0  0  0
  159.1990  206.9850  155.7560 C   0  0  0  0  0  1  0  0  0  0  0  0
  160.4670  207.3720  155.0250 C   0  0  0  0  0  3  0  0  0  0  0  0
  161.5810  207.5600  156.0350 C   0  0  0  0  0  1  0  0  0  0  0  0
  161.2100  211.8910  150.7370 C   0  0  0  0  0  2  0  0  0  0  0  0
  161.6480  212.2800  149.3370 C   0  0  0  0  0  2  0  0  0  0  0  0
  159.5600  213.6550  149.2580 C   0  0  0  0  0  3  0  0  0  0  0  0
  160.4960  212.8550  148.5920 C   0  0  0  0  0  0  0  0  0  0  0  0
  160.3230  212.5620  147.2340 C   0  0  0  0  0  3  0  0  0  0  0  0
  159.0600  212.8000  145.2260 F   0  0  0  0  0  0  0  0  0  0  0  0
  158.2940  213.8840  147.2060 C   0  0  0  0  0  3  0  0  0  0  0  0
  159.2250  213.0790  146.5410 C   0  0  0  0  0  0  0  0  0  0  0  0
  158.4620  214.1720  148.5650 C   0  0  0  0  0  3  0  0  0  0  0  0
  1 21  1  6  0  0  0
  1  6  1  0  0  0  0
  2  5  2  0  0  0  0
  2  7  1  0  0  0  0
  3  6  1  1  0  0  0
  4 29  1  6  0  0  0
  4  3  1  0  0  0  0
  5  4  1  0  0  0  0
  7  1  1  0  0  0  0
  8 19  1  0  0  0  0
  9  3  1  6  0  0  0
  9 11  1  0  0  0  0
  9 18  1  0  0  0  0
 10 19  1  6  0  0  0
 10 12  1  0  0  0  0
 11 13  1  1  0  0  0
 11 10  1  0  0  0  0
 14 20  1  0  0  0  0
 16 12  1  0  0  0  0
 17 14  1  1  0  0  0
 17 13  1  0  0  0  0
 17 11  1  0  0  0  0
 18 15  1  6  0  0  0
 18 16  1  0  0  0  0
 20  8  1  0  0  0  0
 21 22  1  6  0  0  0
 21 25  1  0  0  0  0
 22 24  1  0  0  0  0
 23 24  1  0  0  0  0
 25 27  1  0  0  0  0
 27 26  1  0  0  0  0
 27 28  1  0  0  0  0
 30 29  1  0  0  0  0
 32 31  1  0  0  0  0
 32 30  1  0  0  0  0
 33 32  2  0  0  0  0
 34 36  1  0  0  0  0
 35 37  1  0  0  0  0
 36 35  2  0  0  0  0
 36 33  1  0  0  0  0
 37 31  2  0  0  0  0
M  END
>  <MODEL>
4

>  <REMARK>
 VINA RESULT:      -4.6      2.686      6.155
  Name = 
  9 active torsions:
  status: ('A' for Active; 'I' for Inactive)
    1  A    between atoms: C_1  and  C_33
    2  A    between atoms: C_4  and  C_10
    3  A    between atoms: C_5  and  C_23
    4  A    between atoms: C_5  and  C_33
    5  A    between atoms: C_6  and  C_31
    6  A    between atoms: C_14  and  C_37
    7  A    between atoms: C_17  and  C_26
    8  A    between atoms: C_17  and  C_33
    9  A    between atoms: C_31  and  C_37
                            x       y       z     vdW  Elec       q    Type
                         _______ _______ _______ _____ _____    ______ ____

>  <TORSDO>
F 9

$$$$
=
 OpenBabel11062409123D

 37 41  0  0  1  0  0  0  0  0999 V2000
  161.3080  210.5890  154.1000 C   0  0  2  0  0  3  0  0  0  0  0  0
  161.0010  208.0920  153.7760 C   0  0  0  0  0  3  0  0  0  0  0  0
  160.8920  210.3030  151.5760 C   0  0  1  0  0  3  0  0  0  0  0  0
  161.4380  208.8620  151.4240 C   0  0  1  0  0  3  0  0  0  0  0  0
  160.8310  207.9550  152.4570 C   0  0  0  0  0  3  0  0  0  0  0  0
  161.6090  211.0750  152.6850 C   0  0  0  0  0  2  0  0  0  0  0  0
  161.8260  209.1770  154.4000 C   0  0  0  0  0  2  0  0  0  0  0  0
  158.1510  214.0910  148.3120 O   0  0  0  0  0  0  0  0  0  0  0  0
  160.8140  211.1760  150.2940 C   0  0  1  0  0  3  0  0  0  0  0  0
  160.3050  213.5550  149.2080 C   0  0  1  0  0  3  0  0  0  0  0  0
  160.1140  212.5700  150.3770 C   0  0  2  0  0  0  0  0  0  0  0  0
  161.7270  213.5000  148.6600 C   0  0  0  0  0  2  0  0  0  0  0  0
  159.9480  213.2340  151.7300 C   0  0  0  0  0  2  0  0  0  0  0  0
  157.7560  213.6230  150.6260 C   0  0  0  0  0  2  0  0  0  0  0  0
  162.6880  209.5750  149.1020 Cl  0  0  0  0  0  0  0  0  0  0  0  0
  162.1140  212.0720  148.3040 C   0  0  0  0  0  2  0  0  0  0  0  0
  158.7490  212.5580  151.0810 C   0  0  1  0  0  3  0  0  0  0  0  0
  162.1670  211.2160  149.5610 C   0  0  1  0  0  3  0  0  0  0  0  0
  159.2880  213.3010  148.0980 C   0  0  0  0  0  2  0  0  0  0  0  0
  157.3270  213.3690  149.1870 C   0  0  0  0  0  2  0  0  0  0  0  0
  159.9100  210.9700  154.6190 C   0  0  1  0  0  3  0  0  0  0  0  0
  159.3330  210.0150  155.6620 C   0  0  0  0  0  2  0  0  0  0  0  0
  161.1080  210.1730  157.2590 O   0  0  0  0  0  1  0  0  0  0  0  0
  159.7500  210.4230  157.0660 C   0  0  0  0  0  2  0  0  0  0  0  0
  159.7910  212.4510  155.0000 C   0  0  0  0  0  2  0  0  0  0  0  0
  158.2870  214.3900  154.6750 C   0  0  0  0  0  1  0  0  0  0  0  0
  158.3520  212.9410  155.1070 C   0  0  0  0  0  3  0  0  0  0  0  0
  157.4440  212.1190  154.2140 C   0  0  0  0  0  1  0  0  0  0  0  0
  161.1500  208.2550  150.0580 C   0  0  0  0  0  2  0  0  0  0  0  0
  160.7510  206.7980  150.1960 C   0  0  0  0  0  2  0  0  0  0  0  0
  161.5170  206.7330  147.8160 C   0  0  0  0  0  3  0  0  0  0  0  0
  161.1770  206.0440  148.9860 C   0  0  0  0  0  0  0  0  0  0  0  0
  161.2000  204.6440  149.0040 C   0  0  0  0  0  3  0  0  0  0  0  0
  161.6000  202.5820  147.8770 F   0  0  0  0  0  0  0  0  0  0  0  0
  161.9200  204.6260  146.6920 C   0  0  0  0  0  3  0  0  0  0  0  0
  161.5740  203.9360  147.8580 C   0  0  0  0  0  0  0  0  0  0  0  0
  161.8910  206.0240  146.6710 C   0  0  0  0  0  3  0  0  0  0  0  0
  1  7  1  0  0  0  0
  1 21  1  6  0  0  0
  2  7  1  0  0  0  0
  3  6  1  1  0  0  0
  4 29  1  6  0  0  0
  4  3  1  0  0  0  0
  4  5  1  0  0  0  0
  5  2  2  0  0  0  0
  6  1  1  0  0  0  0
  8 20  1  0  0  0  0
  9 11  1  0  0  0  0
  9  3  1  1  0  0  0
 10 19  1  6  0  0  0
 10 11  1  0  0  0  0
 11 17  1  0  0  0  0
 11 13  1  1  0  0  0
 12 10  1  0  0  0  0
 16 12  1  0  0  0  0
 16 18  1  0  0  0  0
 17 14  1  6  0  0  0
 17 13  1  0  0  0  0
 18 15  1  6  0  0  0
 18  9  1  0  0  0  0
 19  8  1  0  0  0  0
 20 14  1  0  0  0  0
 21 25  1  1  0  0  0
 21 22  1  0  0  0  0
 22 24  1  0  0  0  0
 24 23  1  0  0  0  0
 25 27  1  0  0  0  0
 26 27  1  0  0  0  0
 28 27  1  0  0  0  0
 29 30  1  0  0  0  0
 31 32  1  0  0  0  0
 32 33  2  0  0  0  0
 32 30  1  0  0  0  0
 35 36  2  0  0  0  0
 36 34  1  0  0  0  0
 36 33  1  0  0  0  0
 37 35  1  0  0  0  0
 37 31  2  0  0  0  0
M  END
>  <MODEL>
5

>  <REMARK>
 VINA RESULT:      -4.5      1.586      2.113
  Name = 
  9 active torsions:
  status: ('A' for Active; 'I' for Inactive)
    1  A    between atoms: C_1  and  C_33
    2  A    between atoms: C_4  and  C_10
    3  A    between atoms: C_5  and  C_23
    4  A    between atoms: C_5  and  C_33
    5  A    between atoms: C_6  and  C_31
    6  A    between atoms: C_14  and  C_37
    7  A    between atoms: C_17  and  C_26
    8  A    between atoms: C_17  and  C_33
    9  A    between atoms: C_31  and  C_37
                            x       y       z     vdW  Elec       q    Type
                         _______ _______ _______ _____ _____    ______ ____

>  <TORSDO>
F 9

$$$$
=
 OpenBabel11062409123D

 37 41  0  0  1  0  0  0  0  0999 V2000
  162.3250  209.1960  152.2070 C   0  0  2  0  0  3  0  0  0  0  0  0
  161.4210  210.4450  150.1940 C   0  0  0  0  0  3  0  0  0  0  0  0
  160.7090  210.9410  153.1920 C   0  0  1  0  0  3  0  0  0  0  0  0
  160.8250  212.0040  152.0720 C   0  0  1  0  0  3  0  0  0  0  0  0
  160.6200  211.3760  150.7220 C   0  0  0  0  0  3  0  0  0  0  0  0
  162.0030  210.1420  153.3600 C   0  0  0  0  0  2  0  0  0  0  0  0
  162.6360  209.9050  150.8840 C   0  0  0  0  0  2  0  0  0  0  0  0
  156.8640  213.6720  156.3960 O   0  0  0  0  0  0  0  0  0  0  0  0
  160.2010  211.4180  154.5800 C   0  0  1  0  0  3  0  0  0  0  0  0
  158.1620  211.6630  156.2760 C   0  0  1  0  0  3  0  0  0  0  0  0
  158.6610  211.4940  154.8290 C   0  0  2  0  0  0  0  0  0  0  0  0
  159.0060  210.8550  157.2550 C   0  0  0  0  0  2  0  0  0  0  0  0
  157.7290  210.6960  153.9390 C   0  0  0  0  0  2  0  0  0  0  0  0
  156.5820  212.8890  154.1510 C   0  0  0  0  0  2  0  0  0  0  0  0
  162.7150  211.0760  155.6080 Cl  0  0  0  0  0  0  0  0  0  0  0  0
  160.4830  211.1820  157.0940 C   0  0  0  0  0  2  0  0  0  0  0  0
  157.8680  212.1950  153.7160 C   0  0  1  0  0  3  0  0  0  0  0  0
  160.9710  210.7330  155.7240 C   0  0  1  0  0  3  0  0  0  0  0  0
  158.1260  213.1360  156.6810 C   0  0  0  0  0  2  0  0  0  0  0  0
  156.8980  214.0750  155.0540 C   0  0  0  0  0  2  0  0  0  0  0  0
  161.4480  207.9320  152.1590 C   0  0  1  0  0  3  0  0  0  0  0  0
  160.4550  207.7990  153.3130 C   0  0  0  0  0  2  0  0  0  0  0  0
  160.4300  207.0740  155.5930 O   0  0  0  0  0  1  0  0  0  0  0  0
  160.9300  206.7720  154.3270 C   0  0  0  0  0  2  0  0  0  0  0  0
  160.8310  207.6780  150.7790 C   0  0  0  0  0  2  0  0  0  0  0  0
  160.9170  205.2040  150.8360 C   0  0  0  0  0  1  0  0  0  0  0  0
  161.3750  206.4350  150.0840 C   0  0  0  0  0  3  0  0  0  0  0  0
  160.8680  206.3600  148.6580 C   0  0  0  0  0  1  0  0  0  0  0  0
  159.8080  213.1300  152.2100 C   0  0  0  0  0  2  0  0  0  0  0  0
  159.9620  214.1290  151.0780 C   0  0  0  0  0  2  0  0  0  0  0  0
  159.0910  213.9480  148.7410 C   0  0  0  0  0  3  0  0  0  0  0  0
  158.8360  213.9750  150.1170 C   0  0  0  0  0  0  0  0  0  0  0  0
  157.5190  213.9000  150.5860 C   0  0  0  0  0  3  0  0  0  0  0  0
  155.1870  213.7060  150.1340 F   0  0  0  0  0  0  0  0  0  0  0  0
  156.7170  213.7500  148.3060 C   0  0  0  0  0  3  0  0  0  0  0  0
  156.4610  213.7830  149.6800 C   0  0  0  0  0  0  0  0  0  0  0  0
  158.0310  213.8320  147.8360 C   0  0  0  0  0  3  0  0  0  0  0  0
  1 21  1  6  0  0  0
  1  6  1  0  0  0  0
  2  5  2  0  0  0  0
  2  7  1  0  0  0  0
  3  6  1  1  0  0  0
  4 29  1  1  0  0  0
  4  3  1  0  0  0  0
  5  4  1  0  0  0  0
  7  1  1  0  0  0  0
  8 19  1  0  0  0  0
  9  3  1  6  0  0  0
  9 11  1  0  0  0  0
  9 18  1  0  0  0  0
 10 19  1  1  0  0  0
 10 12  1  0  0  0  0
 11 13  1  6  0  0  0
 11 10  1  0  0  0  0
 14 20  1  0  0  0  0
 16 12  1  0  0  0  0
 17 13  1  6  0  0  0
 17 14  1  0  0  0  0
 17 11  1  0  0  0  0
 18 15  1  6  0  0  0
 18 16  1  0  0  0  0
 20  8  1  0  0  0  0
 21 25  1  6  0  0  0
 21 22  1  0  0  0  0
 22 24  1  0  0  0  0
 24 23  1  0  0  0  0
 27 25  1  0  0  0  0
 27 26  1  0  0  0  0
 28 27  1  0  0  0  0
 30 29  1  0  0  0  0
 31 32  1  0  0  0  0
 32 33  2  0  0  0  0
 32 30  1  0  0  0  0
 35 36  2  0  0  0  0
 36 34  1  0  0  0  0
 36 33  1  0  0  0  0
 37 35  1  0  0  0  0
 37 31  2  0  0  0  0
M  END
>  <MODEL>
6

>  <REMARK>
 VINA RESULT:      -4.3      2.564      6.755
  Name = 
  9 active torsions:
  status: ('A' for Active; 'I' for Inactive)
    1  A    between atoms: C_1  and  C_33
    2  A    between atoms: C_4  and  C_10
    3  A    between atoms: C_5  and  C_23
    4  A    between atoms: C_5  and  C_33
    5  A    between atoms: C_6  and  C_31
    6  A    between atoms: C_14  and  C_37
    7  A    between atoms: C_17  and  C_26
    8  A    between atoms: C_17  and  C_33
    9  A    between atoms: C_31  and  C_37
                            x       y       z     vdW  Elec       q    Type
                         _______ _______ _______ _____ _____    ______ ____

>  <TORSDO>
F 9

$$$$
=
 OpenBabel11062409123D

 37 41  0  0  1  0  0  0  0  0999 V2000
  161.6160  210.3640  152.2980 C   0  0  2  0  0  3  0  0  0  0  0  0
  161.1440  207.9570  151.6490 C   0  0  0  0  0  3  0  0  0  0  0  0
  161.5230  210.3860  149.7260 C   0  0  1  0  0  3  0  0  0  0  0  0
  161.9600  208.9220  149.4770 C   0  0  1  0  0  3  0  0  0  0  0  0
  161.1440  207.9760  150.3130 C   0  0  0  0  0  3  0  0  0  0  0  0
  162.1460  210.9630  150.9980 C   0  0  0  0  0  2  0  0  0  0  0  0
  161.9660  208.8830  152.4930 C   0  0  0  0  0  2  0  0  0  0  0  0
  159.3190  214.1690  146.0730 O   0  0  0  0  0  0  0  0  0  0  0  0
  161.6940  211.3910  148.5540 C   0  0  1  0  0  3  0  0  0  0  0  0
  161.1650  213.8020  147.5520 C   0  0  1  0  0  3  0  0  0  0  0  0
  160.7920  212.6660  148.5230 C   0  0  2  0  0  0  0  0  0  0  0  0
  162.6760  213.9920  147.4710 C   0  0  0  0  0  2  0  0  0  0  0  0
  160.1300  213.1350  149.8040 C   0  0  0  0  0  2  0  0  0  0  0  0
  158.3330  213.3780  148.1060 C   0  0  0  0  0  2  0  0  0  0  0  0
  164.0630  210.1940  147.8860 Cl  0  0  0  0  0  0  0  0  0  0  0  0
  163.3700  212.6780  147.1440 C   0  0  0  0  0  2  0  0  0  0  0  0
  159.2990  212.3980  148.7630 C   0  0  1  0  0  3  0  0  0  0  0  0
  163.1800  211.6890  148.2850 C   0  0  1  0  0  3  0  0  0  0  0  0
  160.5760  213.5600  146.1630 C   0  0  0  0  0  2  0  0  0  0  0  0
  158.3950  213.2490  146.5890 C   0  0  0  0  0  2  0  0  0  0  0  0
  160.1980  210.8260  152.6780 C   0  0  1  0  0  3  0  0  0  0  0  0
  159.5730  210.0720  153.8520 C   0  0  0  0  0  2  0  0  0  0  0  0
  160.3480  209.0890  155.8910 O   0  0  0  0  0  1  0  0  0  0  0  0
  160.3990  210.2470  155.1150 C   0  0  0  0  0  2  0  0  0  0  0  0
  160.0670  212.3500  152.7800 C   0  0  0  0  0  2  0  0  0  0  0  0
  158.9630  213.6860  154.5490 C   0  0  0  0  0  1  0  0  0  0  0  0
  158.7250  212.8140  153.3340 C   0  0  0  0  0  3  0  0  0  0  0  0
  157.9690  213.6130  152.2930 C   0  0  0  0  0  1  0  0  0  0  0  0
  161.8090  208.4920  148.0240 C   0  0  0  0  0  2  0  0  0  0  0  0
  160.8310  207.3380  147.9070 C   0  0  0  0  0  2  0  0  0  0  0  0
  162.5860  205.6580  147.3140 C   0  0  0  0  0  3  0  0  0  0  0  0
  161.3840  206.3010  146.9950 C   0  0  0  0  0  0  0  0  0  0  0  0
  160.7260  205.9970  145.7980 C   0  0  0  0  0  3  0  0  0  0  0  0
  160.6210  204.7440  143.7720 F   0  0  0  0  0  0  0  0  0  0  0  0
  162.4590  204.3960  145.2510 C   0  0  0  0  0  3  0  0  0  0  0  0
  161.2610  205.0420  144.9290 C   0  0  0  0  0  0  0  0  0  0  0  0
  163.1210  204.7040  146.4440 C   0  0  0  0  0  3  0  0  0  0  0  0
  1  7  1  0  0  0  0
  1 21  1  6  0  0  0
  2  7  1  0  0  0  0
  3  6  1  1  0  0  0
  4 29  1  6  0  0  0
  4  3  1  0  0  0  0
  4  5  1  0  0  0  0
  5  2  2  0  0  0  0
  6  1  1  0  0  0  0
  8 19  1  0  0  0  0
  8 20  1  0  0  0  0
  9  3  1  1  0  0  0
 10 19  1  6  0  0  0
 10 11  1  0  0  0  0
 11  9  1  0  0  0  0
 11 17  1  0  0  0  0
 11 13  1  1  0  0  0
 12 10  1  0  0  0  0
 16 12  1  0  0  0  0
 16 18  1  0  0  0  0
 17 14  1  6  0  0  0
 17 13  1  0  0  0  0
 18 15  1  6  0  0  0
 18  9  1  0  0  0  0
 20 14  1  0  0  0  0
 21 25  1  1  0  0  0
 21 22  1  0  0  0  0
 22 24  1  0  0  0  0
 24 23  1  0  0  0  0
 25 27  1  0  0  0  0
 27 26  1  0  0  0  0
 28 27  1  0  0  0  0
 30 29  1  0  0  0  0
 32 31  1  0  0  0  0
 32 30  1  0  0  0  0
 33 32  2  0  0  0  0
 34 36  1  0  0  0  0
 35 37  1  0  0  0  0
 36 35  2  0  0  0  0
 36 33  1  0  0  0  0
 37 31  2  0  0  0  0
M  END
>  <MODEL>
7

>  <REMARK>
 VINA RESULT:      -3.5      2.221      3.496
  Name = 
  9 active torsions:
  status: ('A' for Active; 'I' for Inactive)
    1  A    between atoms: C_1  and  C_33
    2  A    between atoms: C_4  and  C_10
    3  A    between atoms: C_5  and  C_23
    4  A    between atoms: C_5  and  C_33
    5  A    between atoms: C_6  and  C_31
    6  A    between atoms: C_14  and  C_37
    7  A    between atoms: C_17  and  C_26
    8  A    between atoms: C_17  and  C_33
    9  A    between atoms: C_31  and  C_37
                            x       y       z     vdW  Elec       q    Type
                         _______ _______ _______ _____ _____    ______ ____

>  <TORSDO>
F 9

$$$$
=
 OpenBabel11062409123D

 37 41  0  0  1  0  0  0  0  0999 V2000
  160.5790  211.7640  155.1300 C   0  0  2  0  0  3  0  0  0  0  0  0
  160.1720  209.2740  155.3940 C   0  0  0  0  0  3  0  0  0  0  0  0
  160.3300  210.8830  152.7240 C   0  0  1  0  0  3  0  0  0  0  0  0
  160.8140  209.4320  152.9690 C   0  0  1  0  0  3  0  0  0  0  0  0
  160.0910  208.8240  154.1380 C   0  0  0  0  0  3  0  0  0  0  0  0
  161.0030  211.8800  153.6690 C   0  0  0  0  0  2  0  0  0  0  0  0
  161.0030  210.4520  155.8030 C   0  0  0  0  0  2  0  0  0  0  0  0
  157.8800  213.5430  148.3160 O   0  0  0  0  0  0  0  0  0  0  0  0
  160.3880  211.4170  151.2670 C   0  0  1  0  0  3  0  0  0  0  0  0
  159.9120  213.4210  149.5760 C   0  0  1  0  0  3  0  0  0  0  0  0
  159.6100  212.7260  150.9180 C   0  0  2  0  0  0  0  0  0  0  0  0
  161.3970  213.3590  149.2390 C   0  0  0  0  0  2  0  0  0  0  0  0
  159.2210  213.6750  152.0350 C   0  0  0  0  0  2  0  0  0  0  0  0
  157.1890  213.6040  150.6070 C   0  0  0  0  0  2  0  0  0  0  0  0
  162.4930  209.7460  150.7460 Cl  0  0  0  0  0  0  0  0  0  0  0  0
  161.9060  211.9260  149.2950 C   0  0  0  0  0  2  0  0  0  0  0  0
  158.1630  212.7640  151.4290 C   0  0  1  0  0  3  0  0  0  0  0  0
  161.8270  211.3990  150.7200 C   0  0  1  0  0  3  0  0  0  0  0  0
  159.0750  212.8250  148.4450 C   0  0  0  0  0  2  0  0  0  0  0  0
  156.9800  212.9810  149.2320 C   0  0  0  0  0  2  0  0  0  0  0  0
  159.1670  212.3020  155.4260 C   0  0  1  0  0  3  0  0  0  0  0  0
  159.0470  213.8250  155.4070 C   0  0  0  0  0  2  0  0  0  0  0  0
  157.6430  214.3890  157.2610 O   0  0  0  0  0  1  0  0  0  0  0  0
  158.9660  214.3830  156.8180 C   0  0  0  0  0  2  0  0  0  0  0  0
  158.0690  211.5840  154.6310 C   0  0  0  0  0  2  0  0  0  0  0  0
  155.9780  212.8760  154.3360 C   0  0  0  0  0  1  0  0  0  0  0  0
  156.6660  211.8210  155.1760 C   0  0  0  0  0  3  0  0  0  0  0  0
  155.8540  210.5420  155.1240 C   0  0  0  0  0  1  0  0  0  0  0  0
  160.5950  208.5190  151.7710 C   0  0  0  0  0  2  0  0  0  0  0  0
  161.1030  207.1200  152.0670 C   0  0  0  0  0  2  0  0  0  0  0  0
  161.2290  206.9170  149.5780 C   0  0  0  0  0  3  0  0  0  0  0  0
  161.0730  206.3010  150.8250 C   0  0  0  0  0  0  0  0  0  0  0  0
  160.8450  204.9220  150.8990 C   0  0  0  0  0  3  0  0  0  0  0  0
  160.5740  202.8230  149.8020 F   0  0  0  0  0  0  0  0  0  0  0  0
  160.9530  204.7730  148.4850 C   0  0  0  0  0  3  0  0  0  0  0  0
  160.7900  204.1580  149.7300 C   0  0  0  0  0  0  0  0  0  0  0  0
  161.1730  206.1530  148.4080 C   0  0  0  0  0  3  0  0  0  0  0  0
  1 21  1  6  0  0  0
  1  7  1  0  0  0  0
  2  7  1  0  0  0  0
  3  4  1  0  0  0  0
  3  6  1  1  0  0  0
  4 29  1  6  0  0  0
  4  5  1  0  0  0  0
  5  2  2  0  0  0  0
  6  1  1  0  0  0  0
  8 19  1  0  0  0  0
  8 20  1  0  0  0  0
  9  3  1  1  0  0  0
 10 19  1  6  0  0  0
 10 11  1  0  0  0  0
 11  9  1  0  0  0  0
 11 17  1  0  0  0  0
 11 13  1  1  0  0  0
 12 16  1  0  0  0  0
 12 10  1  0  0  0  0
 16 18  1  0  0  0  0
 17 14  1  6  0  0  0
 17 13  1  0  0  0  0
 18 15  1  6  0  0  0
 18  9  1  0  0  0  0
 20 14  1  0  0  0  0
 21 25  1  6  0  0  0
 22 21  1  0  0  0  0
 22 24  1  0  0  0  0
 24 23  1  0  0  0  0
 25 27  1  0  0  0  0
 26 27  1  0  0  0  0
 28 27  1  0  0  0  0
 29 30  1  0  0  0  0
 31 32  1  0  0  0  0
 32 33  2  0  0  0  0
 32 30  1  0  0  0  0
 35 36  2  0  0  0  0
 36 34  1  0  0  0  0
 36 33  1  0  0  0  0
 37 35  1  0  0  0  0
 37 31  2  0  0  0  0
M  END
>  <MODEL>
8

>  <REMARK>
 VINA RESULT:      -3.3      1.170      1.472
  Name = 
  9 active torsions:
  status: ('A' for Active; 'I' for Inactive)
    1  A    between atoms: C_1  and  C_33
    2  A    between atoms: C_4  and  C_10
    3  A    between atoms: C_5  and  C_23
    4  A    between atoms: C_5  and  C_33
    5  A    between atoms: C_6  and  C_31
    6  A    between atoms: C_14  and  C_37
    7  A    between atoms: C_17  and  C_26
    8  A    between atoms: C_17  and  C_33
    9  A    between atoms: C_31  and  C_37
                            x       y       z     vdW  Elec       q    Type
                         _______ _______ _______ _____ _____    ______ ____

>  <TORSDO>
F 9

$$$$
=
 OpenBabel11062409123D

 37 41  0  0  1  0  0  0  0  0999 V2000
  161.5400  208.3850  153.9520 C   0  0  2  0  0  3  0  0  0  0  0  0
  160.9410  206.2020  152.8070 C   0  0  0  0  0  3  0  0  0  0  0  0
  160.9090  209.0570  151.5480 C   0  0  1  0  0  3  0  0  0  0  0  0
  161.2840  207.7310  150.8430 C   0  0  1  0  0  3  0  0  0  0  0  0
  160.6600  206.5600  151.5500 C   0  0  0  0  0  3  0  0  0  0  0  0
  161.7860  209.3230  152.7730 C   0  0  0  0  0  2  0  0  0  0  0  0
  161.9220  206.9240  153.6790 C   0  0  0  0  0  2  0  0  0  0  0  0
  158.4290  214.0130  150.2100 O   0  0  0  0  0  0  0  0  0  0  0  0
  160.8320  210.3350  150.6700 C   0  0  1  0  0  3  0  0  0  0  0  0
  160.5620  212.9830  150.5540 C   0  0  1  0  0  3  0  0  0  0  0  0
  160.3480  211.6670  151.3250 C   0  0  2  0  0  0  0  0  0  0  0  0
  161.9020  212.9900  149.8260 C   0  0  0  0  0  2  0  0  0  0  0  0
  160.4090  211.8140  152.8330 C   0  0  0  0  0  2  0  0  0  0  0  0
  158.1980  212.7860  152.2520 C   0  0  0  0  0  2  0  0  0  0  0  0
  162.3360  209.0950  148.7480 Cl  0  0  0  0  0  0  0  0  0  0  0  0
  162.0470  211.7560  148.9490 C   0  0  0  0  0  2  0  0  0  0  0  0
  159.0700  211.5370  152.1670 C   0  0  1  0  0  3  0  0  0  0  0  0
  162.1000  210.5040  149.8130 C   0  0  1  0  0  3  0  0  0  0  0  0
  159.4160  213.2470  149.5790 C   0  0  0  0  0  2  0  0  0  0  0  0
  157.6000  213.1100  150.8890 C   0  0  0  0  0  2  0  0  0  0  0  0
  160.2340  208.6570  154.7180 C   0  0  1  0  0  3  0  0  0  0  0  0
  160.0960  207.8980  156.0370 C   0  0  0  0  0  2  0  0  0  0  0  0
  162.0390  208.6050  157.2400 O   0  0  0  0  0  1  0  0  0  0  0  0
  161.4580  207.5160  156.5920 C   0  0  0  0  0  2  0  0  0  0  0  0
  159.8960  210.1490  154.8240 C   0  0  0  0  0  2  0  0  0  0  0  0
  160.2770  211.5760  156.8110 C   0  0  0  0  0  1  0  0  0  0  0  0
  159.3480  210.5580  156.1850 C   0  0  0  0  0  3  0  0  0  0  0  0
  157.9700  211.1710  156.0390 C   0  0  0  0  0  1  0  0  0  0  0  0
  160.8310  207.6780  149.3890 C   0  0  0  0  0  2  0  0  0  0  0  0
  160.3800  206.2770  149.0210 C   0  0  0  0  0  2  0  0  0  0  0  0
  162.3600  205.2750  147.8680 C   0  0  0  0  0  3  0  0  0  0  0  0
  161.0790  205.8330  147.7850 C   0  0  0  0  0  0  0  0  0  0  0  0
  160.4750  206.0110  146.5350 C   0  0  0  0  0  3  0  0  0  0  0  0
  160.5570  205.7870  144.1630 F   0  0  0  0  0  0  0  0  0  0  0  0
  162.4210  205.0560  145.4570 C   0  0  0  0  0  3  0  0  0  0  0  0
  161.1440  205.6190  145.3720 C   0  0  0  0  0  0  0  0  0  0  0  0
  163.0300  204.8840  146.7050 C   0  0  0  0  0  3  0  0  0  0  0  0
  1 21  1  6  0  0  0
  2  7  1  0  0  0  0
  3  6  1  1  0  0  0
  4 29  1  6  0  0  0
  4  3  1  0  0  0  0
  4  5  1  0  0  0  0
  5  2  2  0  0  0  0
  6  1  1  0  0  0  0
  7  1  1  0  0  0  0
  8 20  1  0  0  0  0
  9 11  1  0  0  0  0
  9  3  1  1  0  0  0
 10 19  1  6  0  0  0
 10 11  1  0  0  0  0
 11 17  1  0  0  0  0
 11 13  1  1  0  0  0
 12 10  1  0  0  0  0
 16 18  1  0  0  0  0
 16 12  1  0  0  0  0
 17 14  1  6  0  0  0
 17 13  1  0  0  0  0
 18 15  1  6  0  0  0
 18  9  1  0  0  0  0
 19  8  1  0  0  0  0
 20 14  1  0  0  0  0
 21 25  1  1  0  0  0
 21 22  1  0  0  0  0
 22 24  1  0  0  0  0
 24 23  1  0  0  0  0
 25 27  1  0  0  0  0
 27 26  1  0  0  0  0
 28 27  1  0  0  0  0
 30 29  1  0  0  0  0
 32 31  1  0  0  0  0
 32 30  1  0  0  0  0
 33 32  2  0  0  0  0
 34 36  1  0  0  0  0
 35 37  1  0  0  0  0
 36 35  2  0  0  0  0
 36 33  1  0  0  0  0
 37 31  2  0  0  0  0
M  END
>  <MODEL>
9

>  <REMARK>
 VINA RESULT:      -2.9      1.744      2.792
  Name = 
  9 active torsions:
  status: ('A' for Active; 'I' for Inactive)
    1  A    between atoms: C_1  and  C_33
    2  A    between atoms: C_4  and  C_10
    3  A    between atoms: C_5  and  C_23
    4  A    between atoms: C_5  and  C_33
    5  A    between atoms: C_6  and  C_31
    6  A    between atoms: C_14  and  C_37
    7  A    between atoms: C_17  and  C_26
    8  A    between atoms: C_17  and  C_33
    9  A    between atoms: C_31  and  C_37
                            x       y       z     vdW  Elec       q    Type
                         _______ _______ _______ _____ _____    ______ ____

>  <TORSDO>
F 9

$$$$
