=
 OpenBabel11062408193D

 32 37  0  0  1  0  0  0  0  0999 V2000
  161.9470  210.8560  151.3210 C   0  0  1  0  0  3  0  0  0  0  0  0
  160.3490  210.6150  153.0660 C   0  0  1  0  0  0  0  0  0  0  0  0
  160.8320  206.6650  149.8560 C   0  0  0  0  0  0  0  0  0  0  0  0
  161.9890  210.5540  149.9380 O   0  0  0  0  0  0  0  0  0  0  0  0
  160.5200  211.1870  151.6970 C   0  0  1  0  0  3  0  0  0  0  0  0
  158.9700  210.8060  153.6810 C   0  0  2  0  0  3  0  0  0  0  0  0
  160.0350  205.6880  149.8930 O   0  0  0  0  0  0  0  0  0  0  0  0
  161.1940  209.3550  153.2040 C   0  0  1  0  0  3  0  0  0  0  0  0
  158.0920  211.8700  152.9520 C   0  0  1  0  0  3  0  0  0  0  0  0
  161.3490  207.1540  148.5220 C   0  0  1  0  0  3  0  0  0  0  0  0
  161.9660  209.1950  149.7290 C   0  0  0  0  0  0  0  0  0  0  0  0
  160.1880  211.5040  154.2930 C   0  0  0  0  0  2  0  0  0  0  0  0
  160.0340  212.5870  151.5560 C   0  0  0  0  0  3  0  0  0  0  0  0
  161.5670  208.6380  148.5860 C   0  0  0  0  0  3  0  0  0  0  0  0
  161.2790  207.2970  151.0750 N   0  0  0  0  0  0  0  0  0  0  0  0
  161.2000  206.5180  152.3020 C   0  0  0  0  0  1  0  0  0  0  0  0
  162.2220  209.5070  152.0570 C   0  0  1  0  0  3  0  0  0  0  0  0
  157.1860  212.5070  153.9930 C   0  0  0  0  0  1  0  0  0  0  0  0
  162.2410  208.4100  150.9590 C   0  0  2  0  0  3  0  0  0  0  0  0
  158.8620  212.9130  152.1120 C   0  0  0  0  0  0  0  0  0  0  0  0
  163.1650  210.4240  156.2400 O   0  0  0  0  0  0  0  0  0  0  0  0
  161.8130  208.4900  156.7140 C   0  0  0  0  0  2  0  0  0  0  0  0
  161.0580  208.6600  155.5380 O   0  0  0  0  0  0  0  0  0  0  0  0
  161.9070  209.2340  154.5660 C   0  0  2  0  0  3  0  0  0  0  0  0
  162.3140  209.8540  157.2060 C   0  0  0  0  0  2  0  0  0  0  0  0
  162.4120  210.5960  155.0620 C   0  0  0  0  0  2  0  0  0  0  0  0
  158.3330  214.2110  151.8070 N   0  0  0  0  0  2  0  0  0  0  0  0
  157.1190  214.4530  151.0460 C   0  0  0  0  0  2  0  0  0  0  0  0
  157.1270  213.5980  149.7970 C   0  0  0  0  0  1  0  0  0  0  0  0
  162.6560  206.4580  148.1680 C   0  0  0  0  0  2  0  0  0  0  0  0
  161.8950  204.3120  147.2000 C   0  0  0  0  0  1  0  0  0  0  0  0
  162.5070  205.6610  146.8860 C   0  0  0  0  0  2  0  0  0  0  0  0
  1  4  1  6  0  0  0
  1  5  1  0  0  0  0
  1 17  1  0  0  0  0
  2  8  1  0  0  0  0
  2  6  1  0  0  0  0
  2 12  1  1  0  0  0
  3  7  2  0  0  0  0
  3 15  1  0  0  0  0
  5 13  1  1  0  0  0
  5  2  1  0  0  0  0
  6 12  1  1  0  0  0
  8 24  1  1  0  0  0
  9  6  1  0  0  0  0
  9 18  1  1  0  0  0
 10 30  1  1  0  0  0
 10 14  1  0  0  0  0
 10  3  1  0  0  0  0
 11  4  1  0  0  0  0
 11 19  1  0  0  0  0
 13 20  2  0  0  0  0
 14 11  2  0  0  0  0
 15 16  1  0  0  0  0
 17  8  1  0  0  0  0
 19 15  1  0  0  0  0
 19 17  1  0  0  0  0
 20  9  1  0  0  0  0
 21 25  1  0  0  0  0
 22 25  1  0  0  0  0
 23 22  1  0  0  0  0
 24 26  1  0  0  0  0
 24 23  1  0  0  0  0
 26 21  1  0  0  0  0
 27 20  1  0  0  0  0
 28 27  1  0  0  0  0
 29 28  1  0  0  0  0
 32 31  1  0  0  0  0
 32 30  1  0  0  0  0
M  END
>  <MODEL>
1

>  <REMARK>
 VINA RESULT:      -6.6      0.000      0.000
  Name = 
  5 active torsions:
  status: ('A' for Active; 'I' for Inactive)
    1  A    between atoms: C_10  and  C_28
    2  A    between atoms: N_14  and  C_21
    3  A    between atoms: N_14  and  C_29
    4  A    between atoms: C_15  and  C_19
    5  A    between atoms: C_19  and  C_26
                            x       y       z     vdW  Elec       q    Type
                         _______ _______ _______ _____ _____    ______ ____

>  <TORSDO>
F 5

$$$$
=
 OpenBabel11062408193D

 32 37  0  0  1  0  0  0  0  0999 V2000
  162.1070  209.0050  153.3260 C   0  0  1  0  0  3  0  0  0  0  0  0
  161.3120  208.5420  151.1330 C   0  0  1  0  0  0  0  0  0  0  0  0
  158.1190  211.0640  154.2300 C   0  0  0  0  0  0  0  0  0  0  0  0
  161.5630  208.9530  154.6320 O   0  0  0  0  0  0  0  0  0  0  0  0
  161.4500  207.9310  152.4890 C   0  0  1  0  0  3  0  0  0  0  0  0
  160.6570  207.6540  150.0850 C   0  0  2  0  0  3  0  0  0  0  0  0
  156.9220  211.2830  153.9010 O   0  0  0  0  0  0  0  0  0  0  0  0
  161.0800  210.0420  151.2680 C   0  0  1  0  0  3  0  0  0  0  0  0
  160.5770  206.1490  150.4890 C   0  0  1  0  0  3  0  0  0  0  0  0
  158.4480  210.7420  155.6700 C   0  0  1  0  0  3  0  0  0  0  0  0
  160.5730  209.8950  154.7930 C   0  0  0  0  0  0  0  0  0  0  0  0
  162.1300  208.0520  149.9450 C   0  0  0  0  0  2  0  0  0  0  0  0
  162.0240  206.5570  152.4830 C   0  0  0  0  0  3  0  0  0  0  0  0
  159.6170  209.8010  155.7160 C   0  0  0  0  0  3  0  0  0  0  0  0
  159.1790  211.1490  153.2530 N   0  0  0  0  0  0  0  0  0  0  0  0
  158.9270  211.9410  152.0570 C   0  0  0  0  0  1  0  0  0  0  0  0
  161.5820  210.3360  152.7020 C   0  0  1  0  0  3  0  0  0  0  0  0
  160.6630  205.3280  149.2130 C   0  0  0  0  0  1  0  0  0  0  0  0
  160.5610  210.9180  153.7160 C   0  0  2  0  0  3  0  0  0  0  0  0
  161.5860  205.6880  151.5640 C   0  0  0  0  0  0  0  0  0  0  0  0
  162.8310  210.8830  148.0330 O   0  0  0  0  0  0  0  0  0  0  0  0
  162.0320  212.8680  149.1340 C   0  0  0  0  0  2  0  0  0  0  0  0
  161.2140  212.1230  150.0050 O   0  0  0  0  0  0  0  0  0  0  0  0
  161.8520  210.8840  150.2330 C   0  0  2  0  0  3  0  0  0  0  0  0
  162.1890  212.1160  147.8060 C   0  0  0  0  0  2  0  0  0  0  0  0
  162.0150  210.1350  148.9030 C   0  0  0  0  0  2  0  0  0  0  0  0
  162.0170  204.3270  151.6950 N   0  0  0  0  0  2  0  0  0  0  0  0
  161.1610  203.2210  152.0880 C   0  0  0  0  0  2  0  0  0  0  0  0
  161.1300  202.1890  150.9800 C   0  0  0  0  0  1  0  0  0  0  0  0
  158.7830  212.0140  156.4380 C   0  0  0  0  0  2  0  0  0  0  0  0
  156.9890  213.7070  156.6320 C   0  0  0  0  0  1  0  0  0  0  0  0
  157.5920  212.4690  157.2610 C   0  0  0  0  0  2  0  0  0  0  0  0
  1  4  1  1  0  0  0
  2 12  1  6  0  0  0
  2  8  1  0  0  0  0
  2  5  1  0  0  0  0
  3 10  1  0  0  0  0
  4 11  1  0  0  0  0
  5 13  1  6  0  0  0
  5  1  1  0  0  0  0
  6 12  1  6  0  0  0
  6  9  1  0  0  0  0
  6  2  1  0  0  0  0
  7  3  2  0  0  0  0
  8 24  1  6  0  0  0
  8 17  1  0  0  0  0
  9 18  1  6  0  0  0
  9 20  1  0  0  0  0
 10 14  1  0  0  0  0
 10 30  1  1  0  0  0
 11 14  2  0  0  0  0
 15 19  1  0  0  0  0
 15  3  1  0  0  0  0
 16 15  1  0  0  0  0
 17  1  1  0  0  0  0
 17 19  1  0  0  0  0
 19 11  1  0  0  0  0
 20 27  1  0  0  0  0
 20 13  2  0  0  0  0
 21 26  1  0  0  0  0
 22 23  1  0  0  0  0
 23 24  1  0  0  0  0
 25 21  1  0  0  0  0
 25 22  1  0  0  0  0
 26 24  1  0  0  0  0
 27 28  1  0  0  0  0
 29 28  1  0  0  0  0
 30 32  1  0  0  0  0
 31 32  1  0  0  0  0
M  END
>  <MODEL>
2

>  <REMARK>
 VINA RESULT:      -4.4      2.278      7.752
  Name = 
  5 active torsions:
  status: ('A' for Active; 'I' for Inactive)
    1  A    between atoms: C_10  and  C_28
    2  A    between atoms: N_14  and  C_21
    3  A    between atoms: N_14  and  C_29
    4  A    between atoms: C_15  and  C_19
    5  A    between atoms: C_19  and  C_26
                            x       y       z     vdW  Elec       q    Type
                         _______ _______ _______ _____ _____    ______ ____

>  <TORSDO>
F 5

$$$$
=
 OpenBabel11062408193D

 32 37  0  0  1  0  0  0  0  0999 V2000
  162.5750  208.8540  151.6890 C   0  0  1  0  0  3  0  0  0  0  0  0
  161.5330  208.6310  149.5620 C   0  0  1  0  0  0  0  0  0  0  0  0
  158.9640  211.2930  153.0920 C   0  0  0  0  0  0  0  0  0  0  0  0
  162.1490  208.7780  153.0370 O   0  0  0  0  0  0  0  0  0  0  0  0
  161.7190  207.9200  150.8620 C   0  0  1  0  0  3  0  0  0  0  0  0
  160.6830  207.8960  148.5360 C   0  0  2  0  0  3  0  0  0  0  0  0
  157.7770  211.6700  152.8930 O   0  0  0  0  0  0  0  0  0  0  0  0
  161.4970  210.1350  149.8010 C   0  0  1  0  0  3  0  0  0  0  0  0
  160.4590  206.3870  148.8630 C   0  0  1  0  0  3  0  0  0  0  0  0
  159.3810  210.8420  154.4720 C   0  0  1  0  0  3  0  0  0  0  0  0
  161.3000  209.8150  153.3450 C   0  0  0  0  0  0  0  0  0  0  0  0
  162.1740  208.1300  148.2740 C   0  0  0  0  0  2  0  0  0  0  0  0
  162.1200  206.4930  150.7240 C   0  0  0  0  0  3  0  0  0  0  0  0
  160.4270  209.7710  154.3510 C   0  0  0  0  0  3  0  0  0  0  0  0
  159.9330  211.3200  152.0210 N   0  0  0  0  0  0  0  0  0  0  0  0
  159.6710  212.2130  150.9010 C   0  0  0  0  0  1  0  0  0  0  0  0
  162.1600  210.2740  151.1930 C   0  0  1  0  0  3  0  0  0  0  0  0
  160.3280  205.6470  147.5410 C   0  0  0  0  0  1  0  0  0  0  0  0
  161.3130  210.9020  152.3330 C   0  0  2  0  0  3  0  0  0  0  0  0
  161.4990  205.7430  149.8070 C   0  0  0  0  0  0  0  0  0  0  0  0
  162.0510  212.3360  146.7860 O   0  0  0  0  0  0  0  0  0  0  0  0
  163.8950  212.4840  148.3240 C   0  0  0  0  0  2  0  0  0  0  0  0
  163.1630  211.8590  149.3510 O   0  0  0  0  0  0  0  0  0  0  0  0
  162.2680  210.9500  148.7430 C   0  0  2  0  0  3  0  0  0  0  0  0
  162.9390  213.2430  147.3960 C   0  0  0  0  0  2  0  0  0  0  0  0
  161.3150  211.7100  147.8100 C   0  0  0  0  0  2  0  0  0  0  0  0
  161.7720  204.3350  149.8200 N   0  0  0  0  0  2  0  0  0  0  0  0
  160.8970  203.3260  150.3920 C   0  0  0  0  0  2  0  0  0  0  0  0
  161.1340  203.2410  151.8860 C   0  0  0  0  0  1  0  0  0  0  0  0
  159.9360  212.0130  155.2720 C   0  0  0  0  0  2  0  0  0  0  0  0
  161.4000  211.8640  157.2610 C   0  0  0  0  0  1  0  0  0  0  0  0
  159.9890  211.6720  156.7490 C   0  0  0  0  0  2  0  0  0  0  0  0
  1  4  1  1  0  0  0
  2 12  1  6  0  0  0
  2  8  1  0  0  0  0
  2  5  1  0  0  0  0
  3 10  1  0  0  0  0
  4 11  1  0  0  0  0
  5 13  1  6  0  0  0
  5  1  1  0  0  0  0
  6 12  1  6  0  0  0
  6  9  1  0  0  0  0
  6  2  1  0  0  0  0
  7  3  2  0  0  0  0
  8 24  1  6  0  0  0
  8 17  1  0  0  0  0
  9 18  1  6  0  0  0
  9 20  1  0  0  0  0
 10 30  1  1  0  0  0
 11 14  2  0  0  0  0
 14 10  1  0  0  0  0
 15 19  1  0  0  0  0
 15  3  1  0  0  0  0
 16 15  1  0  0  0  0
 17  1  1  0  0  0  0
 17 19  1  0  0  0  0
 19 11  1  0  0  0  0
 20 27  1  0  0  0  0
 20 13  2  0  0  0  0
 21 25  1  0  0  0  0
 21 26  1  0  0  0  0
 22 23  1  0  0  0  0
 24 23  1  0  0  0  0
 25 22  1  0  0  0  0
 26 24  1  0  0  0  0
 27 28  1  0  0  0  0
 28 29  1  0  0  0  0
 30 32  1  0  0  0  0
 32 31  1  0  0  0  0
M  END
>  <MODEL>
3

>  <REMARK>
 VINA RESULT:      -3.8      2.361      7.633
  Name = 
  5 active torsions:
  status: ('A' for Active; 'I' for Inactive)
    1  A    between atoms: C_10  and  C_28
    2  A    between atoms: N_14  and  C_21
    3  A    between atoms: N_14  and  C_29
    4  A    between atoms: C_15  and  C_19
    5  A    between atoms: C_19  and  C_26
                            x       y       z     vdW  Elec       q    Type
                         _______ _______ _______ _____ _____    ______ ____

>  <TORSDO>
F 5

$$$$
=
 OpenBabel11062408193D

 32 37  0  0  1  0  0  0  0  0999 V2000
  162.4790  209.6430  151.9950 C   0  0  1  0  0  3  0  0  0  0  0  0
  161.5290  208.9940  149.9120 C   0  0  1  0  0  0  0  0  0  0  0  0
  158.6350  211.9520  152.9160 C   0  0  0  0  0  0  0  0  0  0  0  0
  162.0170  209.7470  153.3290 O   0  0  0  0  0  0  0  0  0  0  0  0
  161.7310  208.5190  151.3140 C   0  0  1  0  0  3  0  0  0  0  0  0
  160.7770  208.0340  149.0030 C   0  0  2  0  0  3  0  0  0  0  0  0
  157.4270  212.1870  152.6370 O   0  0  0  0  0  0  0  0  0  0  0  0
  161.3610  210.5080  149.9050 C   0  0  1  0  0  3  0  0  0  0  0  0
  160.6680  206.5820  149.5650 C   0  0  1  0  0  3  0  0  0  0  0  0
  159.0420  211.7640  154.3590 C   0  0  1  0  0  3  0  0  0  0  0  0
  161.0750  210.7410  153.4490 C   0  0  0  0  0  0  0  0  0  0  0  0
  162.2510  208.3510  148.7350 C   0  0  0  0  0  2  0  0  0  0  0  0
  162.2520  207.1280  151.4160 C   0  0  0  0  0  3  0  0  0  0  0  0
  160.1770  210.7830  154.4320 C   0  0  0  0  0  3  0  0  0  0  0  0
  159.6330  211.8920  151.8730 N   0  0  0  0  0  0  0  0  0  0  0  0
  159.3340  212.5680  150.6190 C   0  0  0  0  0  1  0  0  0  0  0  0
  161.9640  210.9240  151.2680 C   0  0  1  0  0  3  0  0  0  0  0  0
  160.6420  205.6330  148.3790 C   0  0  0  0  0  1  0  0  0  0  0  0
  161.0320  211.6500  152.2750 C   0  0  2  0  0  3  0  0  0  0  0  0
  161.7260  206.1900  150.6210 C   0  0  0  0  0  0  0  0  0  0  0  0
  161.8180  212.3290  146.6310 O   0  0  0  0  0  0  0  0  0  0  0  0
  163.6690  212.7270  148.1160 C   0  0  0  0  0  2  0  0  0  0  0  0
  162.9650  212.2140  149.2220 O   0  0  0  0  0  0  0  0  0  0  0  0
  162.0970  211.2080  148.7440 C   0  0  2  0  0  3  0  0  0  0  0  0
  162.6800  213.3330  147.1120 C   0  0  0  0  0  2  0  0  0  0  0  0
  161.1110  211.8140  147.7350 C   0  0  0  0  0  2  0  0  0  0  0  0
  162.1140  204.8310  150.8660 N   0  0  0  0  0  2  0  0  0  0  0  0
  161.2500  203.6770  150.6870 C   0  0  0  0  0  2  0  0  0  0  0  0
  161.3470  202.7800  151.9030 C   0  0  0  0  0  1  0  0  0  0  0  0
  159.4720  213.0920  154.9690 C   0  0  0  0  0  2  0  0  0  0  0  0
  157.4310  212.9010  156.3560 C   0  0  0  0  0  1  0  0  0  0  0  0
  158.9060  213.2430  156.3680 C   0  0  0  0  0  2  0  0  0  0  0  0
  1  4  1  1  0  0  0
  2 12  1  6  0  0  0
  2  5  1  0  0  0  0
  3 10  1  0  0  0  0
  4 11  1  0  0  0  0
  5 13  1  6  0  0  0
  5  1  1  0  0  0  0
  6 12  1  6  0  0  0
  6  9  1  0  0  0  0
  6  2  1  0  0  0  0
  7  3  2  0  0  0  0
  8 24  1  6  0  0  0
  8  2  1  0  0  0  0
  8 17  1  0  0  0  0
  9 18  1  6  0  0  0
  9 20  1  0  0  0  0
 10 14  1  0  0  0  0
 10 30  1  6  0  0  0
 11 14  2  0  0  0  0
 15 19  1  0  0  0  0
 15  3  1  0  0  0  0
 16 15  1  0  0  0  0
 17  1  1  0  0  0  0
 17 19  1  0  0  0  0
 19 11  1  0  0  0  0
 20 27  1  0  0  0  0
 20 13  2  0  0  0  0
 21 25  1  0  0  0  0
 21 26  1  0  0  0  0
 22 23  1  0  0  0  0
 24 23  1  0  0  0  0
 25 22  1  0  0  0  0
 26 24  1  0  0  0  0
 28 27  1  0  0  0  0
 28 29  1  0  0  0  0
 30 32  1  0  0  0  0
 31 32  1  0  0  0  0
M  END
>  <MODEL>
4

>  <REMARK>
 VINA RESULT:      -3.7      2.408      7.761
  Name = 
  5 active torsions:
  status: ('A' for Active; 'I' for Inactive)
    1  A    between atoms: C_10  and  C_28
    2  A    between atoms: N_14  and  C_21
    3  A    between atoms: N_14  and  C_29
    4  A    between atoms: C_15  and  C_19
    5  A    between atoms: C_19  and  C_26
                            x       y       z     vdW  Elec       q    Type
                         _______ _______ _______ _____ _____    ______ ____

>  <TORSDO>
F 5

$$$$
