=
 OpenBabel11062410003D

 43 48  0  0  1  0  0  0  0  0999 V2000
  161.4500  203.9250  146.2800 C   0  0  0  0  0  0  0  0  0  0  0  0
  161.3190  206.0460  150.9460 C   0  0  2  0  0  3  0  0  0  0  0  0
  161.5490  208.9060  150.6570 C   0  0  1  0  0  3  0  0  0  0  0  0
  161.3060  204.2880  148.6370 C   0  0  0  0  0  0  0  0  0  0  0  0
  161.8680  205.3380  146.0000 C   0  0  0  0  0  2  0  0  0  0  0  0
  161.2940  203.1180  145.3260 O   0  0  0  0  0  0  0  0  0  0  0  0
  161.4550  205.7560  148.4250 C   0  0  0  0  0  0  0  0  0  0  0  0
  161.2950  203.4690  147.6290 N   0  0  0  0  0  0  0  0  0  0  0  0
  161.6330  206.2310  147.1840 C   0  0  0  0  0  3  0  0  0  0  0  0
  161.9590  207.9970  149.5020 C   0  0  0  0  0  2  0  0  0  0  0  0
  161.1410  206.7050  149.5610 C   0  0  2  0  0  3  0  0  0  0  0  0
  160.5230  204.7370  150.9670 C   0  0  0  0  0  2  0  0  0  0  0  0
  160.8720  206.9680  152.0050 N   0  0  0  0  0  0  0  0  0  0  0  0
  161.7240  208.1590  151.9760 C   0  0  0  0  0  2  0  0  0  0  0  0
  161.1750  203.7300  150.0230 C   0  0  0  0  0  2  0  0  0  0  0  0
  162.3460  210.1750  150.6620 C   0  0  0  0  0  0  0  0  0  0  0  0
  162.2910  211.0740  149.5490 N   0  0  0  0  0  2  0  0  0  0  0  0
  163.0610  210.4700  151.6580 O   0  0  0  0  0  0  0  0  0  0  0  0
  161.3850  210.8810  148.4260 C   0  0  0  0  0  2  0  0  0  0  0  0
  161.4780  212.0640  147.4820 C   0  0  0  0  0  2  0  0  0  0  0  0
  160.1760  212.2130  146.7230 C   0  0  0  0  0  2  0  0  0  0  0  0
  160.0690  213.6150  146.1380 C   0  0  2  0  0  3  0  0  0  0  0  0
  158.9800  213.8810  143.9890 C   0  0  0  0  0  2  0  0  0  0  0  0
  161.4810  213.4410  144.0370 C   0  0  0  0  0  0  0  0  0  0  0  0
  158.6750  214.1620  146.3860 C   0  0  0  0  0  2  0  0  0  0  0  0
  160.2070  213.5560  144.6910 N   0  0  0  0  0  0  0  0  0  0  0  0
  162.5180  213.8480  144.6300 O   0  0  0  0  0  0  0  0  0  0  0  0
  157.9250  214.0680  145.0620 C   0  0  0  0  0  2  0  0  0  0  0  0
  161.6130  212.8260  142.6960 C   0  0  0  0  0  0  0  0  0  0  0  0
  162.6740  212.7720  140.5070 C   0  0  0  0  0  3  0  0  0  0  0  0
  161.0620  211.0680  141.1080 C   0  0  0  0  0  3  0  0  0  0  0  0
  161.9490  211.6210  140.1790 C   0  0  0  0  0  3  0  0  0  0  0  0
  160.8980  211.6660  142.3620 C   0  0  0  0  0  3  0  0  0  0  0  0
  162.5100  213.3680  141.7610 C   0  0  0  0  0  3  0  0  0  0  0  0
  161.1110  206.3460  153.3060 C   0  0  0  0  0  2  0  0  0  0  0  0
  160.1530  209.4320  155.4290 C   0  0  0  0  0  2  0  0  0  0  0  0
  160.5090  208.8830  156.8170 C   0  0  1  0  0  3  0  0  0  0  0  0
  160.8580  206.5960  155.8020 C   0  0  0  0  0  2  0  0  0  0  0  0
  160.8370  208.6320  154.3220 C   0  0  0  0  0  2  0  0  0  0  0  0
  160.4650  207.1530  154.4310 C   0  0  1  0  0  3  0  0  0  0  0  0
  160.1780  207.3910  156.9140 C   0  0  0  0  0  2  0  0  0  0  0  0
  162.1220  210.5580  157.1200 C   0  0  0  0  0  1  0  0  0  0  0  0
  161.9150  209.1160  157.1190 N   0  0  0  0  0  2  0  0  0  0  0  0
  1  8  1  0  0  0  0
  2 12  1  6  0  0  0
  2 13  1  0  0  0  0
  3 16  1  1  0  0  0
  3 14  1  0  0  0  0
  4 15  1  0  0  0  0
  5  1  1  0  0  0  0
  5  9  1  0  0  0  0
  6  1  2  0  0  0  0
  7  4  1  0  0  0  0
  7 11  1  0  0  0  0
  8  4  2  0  0  0  0
  9  7  2  0  0  0  0
 10  3  1  0  0  0  0
 11 10  1  1  0  0  0
 11  2  1  0  0  0  0
 13 35  1  0  0  0  0
 14 13  1  0  0  0  0
 15 12  1  0  0  0  0
 16 18  2  0  0  0  0
 17 16  1  0  0  0  0
 19 17  1  0  0  0  0
 20 19  1  0  0  0  0
 21 20  1  0  0  0  0
 22 25  1  0  0  0  0
 22 21  1  1  0  0  0
 23 26  1  0  0  0  0
 23 28  1  0  0  0  0
 24 27  2  0  0  0  0
 24 26  1  0  0  0  0
 26 22  1  0  0  0  0
 28 25  1  0  0  0  0
 29 24  1  0  0  0  0
 30 34  1  0  0  0  0
 31 33  2  0  0  0  0
 32 30  2  0  0  0  0
 32 31  1  0  0  0  0
 33 29  1  0  0  0  0
 34 29  2  0  0  0  0
 36 37  1  0  0  0  0
 37 41  1  0  0  0  0
 37 43  1  6  0  0  0
 38 41  1  0  0  0  0
 39 40  1  0  0  0  0
 39 36  1  0  0  0  0
 40 35  1  6  0  0  0
 40 38  1  0  0  0  0
 43 42  1  0  0  0  0
M  END
>  <MODEL>
1

>  <REMARK>
 VINA RESULT:      -9.0      0.000      0.000
  Name = 
  9 active torsions:
  status: ('A' for Active; 'I' for Inactive)
    1  A    between atoms: C_1  and  N_34
    2  A    between atoms: C_1  and  C_35
    3  A    between atoms: C_2  and  C_13
    4  A    between atoms: C_3  and  C_4
    5  A    between atoms: C_3  and  C_12
    6  A    between atoms: N_6  and  C_17
    7  A    between atoms: C_11  and  C_14
    8  A    between atoms: C_12  and  C_17
    9  A    between atoms: C_19  and  N_37
                            x       y       z     vdW  Elec       q    Type
                         _______ _______ _______ _____ _____    ______ ____

>  <TORSDO>
F 9

$$$$
=
 OpenBabel11062410003D

 43 48  0  0  1  0  0  0  0  0999 V2000
  160.7900  202.9460  150.4940 C   0  0  0  0  0  0  0  0  0  0  0  0
  161.6470  207.7660  152.0140 C   0  0  2  0  0  3  0  0  0  0  0  0
  161.6310  209.4750  149.6900 C   0  0  1  0  0  3  0  0  0  0  0  0
  161.1900  204.9100  151.7950 C   0  0  0  0  0  0  0  0  0  0  0  0
  161.0440  203.6490  149.1940 C   0  0  0  0  0  2  0  0  0  0  0  0
  160.4600  201.7310  150.4940 O   0  0  0  0  0  0  0  0  0  0  0  0
  161.1970  205.7360  150.5540 C   0  0  0  0  0  0  0  0  0  0  0  0
  160.9880  203.6280  151.7380 N   0  0  0  0  0  0  0  0  0  0  0  0
  161.0450  205.1420  149.3620 C   0  0  0  0  0  3  0  0  0  0  0  0
  161.8070  207.9690  149.5170 C   0  0  0  0  0  2  0  0  0  0  0  0
  161.1060  207.2420  150.6660 C   0  0  2  0  0  3  0  0  0  0  0  0
  160.9600  206.9980  153.1470 C   0  0  0  0  0  2  0  0  0  0  0  0
  161.4120  209.2170  152.1230 N   0  0  0  0  0  0  0  0  0  0  0  0
  162.1590  209.8920  151.0590 C   0  0  0  0  0  2  0  0  0  0  0  0
  161.4270  205.5460  153.1330 C   0  0  0  0  0  2  0  0  0  0  0  0
  162.3290  210.2340  148.6030 C   0  0  0  0  0  0  0  0  0  0  0  0
  161.9940  211.6010  148.3380 N   0  0  0  0  0  2  0  0  0  0  0  0
  163.2310  209.6770  147.9210 O   0  0  0  0  0  0  0  0  0  0  0  0
  161.0690  212.3590  149.1680 C   0  0  0  0  0  2  0  0  0  0  0  0
  159.9700  212.9480  148.3040 C   0  0  0  0  0  2  0  0  0  0  0  0
  160.3020  212.7330  146.8420 C   0  0  0  0  0  2  0  0  0  0  0  0
  160.0410  214.0090  146.0530 C   0  0  2  0  0  3  0  0  0  0  0  0
  158.8830  213.8300  143.9320 C   0  0  0  0  0  2  0  0  0  0  0  0
  161.4150  213.6440  143.9520 C   0  0  0  0  0  0  0  0  0  0  0  0
  158.6060  214.4520  146.2670 C   0  0  0  0  0  2  0  0  0  0  0  0
  160.1520  213.7380  144.6290 N   0  0  0  0  0  0  0  0  0  0  0  0
  162.4200  214.2360  144.4350 O   0  0  0  0  0  0  0  0  0  0  0  0
  157.8380  214.0810  145.0030 C   0  0  0  0  0  2  0  0  0  0  0  0
  161.5770  212.8420  142.7180 C   0  0  0  0  0  0  0  0  0  0  0  0
  160.7750  211.0850  141.2370 C   0  0  0  0  0  3  0  0  0  0  0  0
  162.7220  212.3860  140.6200 C   0  0  0  0  0  3  0  0  0  0  0  0
  161.8090  211.3660  140.3370 C   0  0  0  0  0  3  0  0  0  0  0  0
  162.6050  213.1230  141.8040 C   0  0  0  0  0  3  0  0  0  0  0  0
  160.6570  211.8230  142.4180 C   0  0  0  0  0  3  0  0  0  0  0  0
  161.9900  209.6990  153.3760 C   0  0  0  0  0  2  0  0  0  0  0  0
  160.0230  211.6530  156.0690 C   0  0  0  0  0  2  0  0  0  0  0  0
  158.7220  211.8840  155.2900 C   0  0  1  0  0  3  0  0  0  0  0  0
  159.8380  210.9980  153.2030 C   0  0  0  0  0  2  0  0  0  0  0  0
  160.8420  210.5160  155.4600 C   0  0  0  0  0  2  0  0  0  0  0  0
  161.1370  210.8080  153.9880 C   0  0  1  0  0  3  0  0  0  0  0  0
  159.0120  212.1330  153.8070 C   0  0  0  0  0  2  0  0  0  0  0  0
  156.5040  211.1870  154.9890 C   0  0  0  0  0  1  0  0  0  0  0  0
  157.8150  210.7550  155.4520 N   0  0  0  0  0  2  0  0  0  0  0  0
  1  8  1  0  0  0  0
  2 13  1  0  0  0  0
  2 12  1  1  0  0  0
  3 16  1  6  0  0  0
  3 14  1  0  0  0  0
  4 15  1  0  0  0  0
  5  9  1  0  0  0  0
  5  1  1  0  0  0  0
  6  1  2  0  0  0  0
  7 11  1  0  0  0  0
  7  4  1  0  0  0  0
  8  4  2  0  0  0  0
  9  7  2  0  0  0  0
 10  3  1  0  0  0  0
 11 10  1  6  0  0  0
 11  2  1  0  0  0  0
 13 35  1  0  0  0  0
 14 13  1  0  0  0  0
 15 12  1  0  0  0  0
 17 16  1  0  0  0  0
 17 19  1  0  0  0  0
 18 16  2  0  0  0  0
 20 19  1  0  0  0  0
 21 20  1  0  0  0  0
 22 25  1  0  0  0  0
 22 21  1  1  0  0  0
 23 26  1  0  0  0  0
 23 28  1  0  0  0  0
 24 27  2  0  0  0  0
 24 26  1  0  0  0  0
 26 22  1  0  0  0  0
 28 25  1  0  0  0  0
 29 24  1  0  0  0  0
 30 34  2  0  0  0  0
 31 33  1  0  0  0  0
 32 31  2  0  0  0  0
 32 30  1  0  0  0  0
 33 29  2  0  0  0  0
 34 29  1  0  0  0  0
 37 43  1  6  0  0  0
 37 36  1  0  0  0  0
 38 41  1  0  0  0  0
 38 40  1  0  0  0  0
 39 36  1  0  0  0  0
 40 35  1  6  0  0  0
 40 39  1  0  0  0  0
 41 37  1  0  0  0  0
 42 43  1  0  0  0  0
M  END
>  <MODEL>
2

>  <REMARK>
 VINA RESULT:      -8.5      1.965      2.900
  Name = 
  9 active torsions:
  status: ('A' for Active; 'I' for Inactive)
    1  A    between atoms: C_1  and  N_34
    2  A    between atoms: C_1  and  C_35
    3  A    between atoms: C_2  and  C_13
    4  A    between atoms: C_3  and  C_4
    5  A    between atoms: C_3  and  C_12
    6  A    between atoms: N_6  and  C_17
    7  A    between atoms: C_11  and  C_14
    8  A    between atoms: C_12  and  C_17
    9  A    between atoms: C_19  and  N_37
                            x       y       z     vdW  Elec       q    Type
                         _______ _______ _______ _____ _____    ______ ____

>  <TORSDO>
F 9

$$$$
=
 OpenBabel11062410003D

 43 48  0  0  1  0  0  0  0  0999 V2000
  160.9340  201.6840  147.3150 C   0  0  0  0  0  0  0  0  0  0  0  0
  161.4180  205.0960  151.1110 C   0  0  2  0  0  3  0  0  0  0  0  0
  161.4110  207.7430  149.9680 C   0  0  1  0  0  3  0  0  0  0  0  0
  161.1480  202.7310  149.4520 C   0  0  0  0  0  0  0  0  0  0  0  0
  161.2080  202.9550  146.5680 C   0  0  0  0  0  2  0  0  0  0  0  0
  160.6800  200.6270  146.6790 O   0  0  0  0  0  0  0  0  0  0  0  0
  161.1650  204.0710  148.7990 C   0  0  0  0  0  0  0  0  0  0  0  0
  161.0280  201.6480  148.7440 N   0  0  0  0  0  0  0  0  0  0  0  0
  161.1090  204.1570  147.4630 C   0  0  0  0  0  3  0  0  0  0  0  0
  161.6870  206.5380  149.0740 C   0  0  0  0  0  2  0  0  0  0  0  0
  160.9770  205.3100  149.6470 C   0  0  2  0  0  3  0  0  0  0  0  0
  160.7230  203.8410  151.6490 C   0  0  0  0  0  2  0  0  0  0  0  0
  161.0890  206.2850  151.9170 N   0  0  0  0  0  0  0  0  0  0  0  0
  161.8440  207.4260  151.3950 C   0  0  0  0  0  2  0  0  0  0  0  0
  161.2790  202.6090  150.9410 C   0  0  0  0  0  2  0  0  0  0  0  0
  162.1130  208.9680  149.4640 C   0  0  0  0  0  0  0  0  0  0  0  0
  162.0440  210.1990  150.1920 N   0  0  0  0  0  2  0  0  0  0  0  0
  162.7880  208.9180  148.4000 O   0  0  0  0  0  0  0  0  0  0  0  0
  161.4070  210.3070  151.4960 C   0  0  0  0  0  2  0  0  0  0  0  0
  160.3900  211.4320  151.4800 C   0  0  0  0  0  2  0  0  0  0  0  0
  159.5100  211.3400  152.7090 C   0  0  0  0  0  2  0  0  0  0  0  0
  159.2690  212.7290  153.2850 C   0  0  2  0  0  3  0  0  0  0  0  0
  156.9890  213.5400  153.4070 C   0  0  0  0  0  2  0  0  0  0  0  0
  158.3260  213.9910  151.2960 C   0  0  0  0  0  0  0  0  0  0  0  0
  158.8080  212.6070  154.7250 C   0  0  0  0  0  2  0  0  0  0  0  0
  158.1690  213.3690  152.5810 N   0  0  0  0  0  0  0  0  0  0  0  0
  159.4640  214.4120  150.9490 O   0  0  0  0  0  0  0  0  0  0  0  0
  157.3060  212.8660  154.7290 C   0  0  0  0  0  2  0  0  0  0  0  0
  157.1920  214.1180  150.3520 C   0  0  0  0  0  0  0  0  0  0  0  0
  154.7970  214.3120  149.9630 C   0  0  0  0  0  3  0  0  0  0  0  0
  156.3350  214.4340  148.0970 C   0  0  0  0  0  3  0  0  0  0  0  0
  155.0270  214.4530  148.5900 C   0  0  0  0  0  3  0  0  0  0  0  0
  157.4130  214.2710  148.9750 C   0  0  0  0  0  3  0  0  0  0  0  0
  155.8740  214.1500  150.8390 C   0  0  0  0  0  3  0  0  0  0  0  0
  161.5740  206.0820  153.2810 C   0  0  0  0  0  2  0  0  0  0  0  0
  160.1840  209.2030  155.0910 C   0  0  0  0  0  2  0  0  0  0  0  0
  160.4430  208.7700  156.5400 C   0  0  1  0  0  3  0  0  0  0  0  0
  161.0600  206.4610  155.7190 C   0  0  0  0  0  2  0  0  0  0  0  0
  161.0320  208.3960  154.1090 C   0  0  0  0  0  2  0  0  0  0  0  0
  160.7620  206.9010  154.2840 C   0  0  1  0  0  3  0  0  0  0  0  0
  160.2160  207.2650  156.7070 C   0  0  0  0  0  2  0  0  0  0  0  0
  161.9130  210.5770  156.8020 C   0  0  0  0  0  1  0  0  0  0  0  0
  161.7910  209.1340  156.9540 N   0  0  0  0  0  2  0  0  0  0  0  0
  1  8  1  0  0  0  0
  2 12  1  1  0  0  0
  2 13  1  0  0  0  0
  3 16  1  6  0  0  0
  3 14  1  0  0  0  0
  4 15  1  0  0  0  0
  5  1  1  0  0  0  0
  5  9  1  0  0  0  0
  6  1  2  0  0  0  0
  7  4  1  0  0  0  0
  7 11  1  0  0  0  0
  8  4  2  0  0  0  0
  9  7  2  0  0  0  0
 10  3  1  0  0  0  0
 11 10  1  6  0  0  0
 11  2  1  0  0  0  0
 13 35  1  0  0  0  0
 14 13  1  0  0  0  0
 15 12  1  0  0  0  0
 16 17  1  0  0  0  0
 17 19  1  0  0  0  0
 18 16  2  0  0  0  0
 20 19  1  0  0  0  0
 20 21  1  0  0  0  0
 22 21  1  6  0  0  0
 22 25  1  0  0  0  0
 23 28  1  0  0  0  0
 24 26  1  0  0  0  0
 25 28  1  0  0  0  0
 26 22  1  0  0  0  0
 26 23  1  0  0  0  0
 27 24  2  0  0  0  0
 29 34  1  0  0  0  0
 29 24  1  0  0  0  0
 30 34  2  0  0  0  0
 31 32  2  0  0  0  0
 31 33  1  0  0  0  0
 32 30  1  0  0  0  0
 33 29  2  0  0  0  0
 36 37  1  0  0  0  0
 37 41  1  0  0  0  0
 37 43  1  6  0  0  0
 38 41  1  0  0  0  0
 39 40  1  0  0  0  0
 39 36  1  0  0  0  0
 40 35  1  6  0  0  0
 40 38  1  0  0  0  0
 42 43  1  0  0  0  0
M  END
>  <MODEL>
3

>  <REMARK>
 VINA RESULT:      -8.5      4.119      5.404
  Name = 
  9 active torsions:
  status: ('A' for Active; 'I' for Inactive)
    1  A    between atoms: C_1  and  N_34
    2  A    between atoms: C_1  and  C_35
    3  A    between atoms: C_2  and  C_13
    4  A    between atoms: C_3  and  C_4
    5  A    between atoms: C_3  and  C_12
    6  A    between atoms: N_6  and  C_17
    7  A    between atoms: C_11  and  C_14
    8  A    between atoms: C_12  and  C_17
    9  A    between atoms: C_19  and  N_37
                            x       y       z     vdW  Elec       q    Type
                         _______ _______ _______ _____ _____    ______ ____

>  <TORSDO>
F 9

$$$$
=
 OpenBabel11062410003D

 43 48  0  0  1  0  0  0  0  0999 V2000
  160.1720  210.6370  155.6660 C   0  0  0  0  0  0  0  0  0  0  0  0
  161.1880  206.7020  152.5400 C   0  0  2  0  0  3  0  0  0  0  0  0
  161.8900  207.7510  149.9470 C   0  0  1  0  0  3  0  0  0  0  0  0
  160.5280  208.4570  154.7540 C   0  0  0  0  0  0  0  0  0  0  0  0
  160.2250  211.3030  154.3230 C   0  0  0  0  0  2  0  0  0  0  0  0
  160.0150  211.3330  156.7030 O   0  0  0  0  0  0  0  0  0  0  0  0
  160.8560  209.0590  153.4310 C   0  0  0  0  0  0  0  0  0  0  0  0
  160.2280  209.2100  155.7700 N   0  0  0  0  0  0  0  0  0  0  0  0
  160.7890  210.3880  153.2730 C   0  0  0  0  0  3  0  0  0  0  0  0
  161.1570  208.6420  150.9470 C   0  0  0  0  0  2  0  0  0  0  0  0
  161.5100  208.2020  152.3690 C   0  0  2  0  0  3  0  0  0  0  0  0
  161.5130  206.2960  153.9810 C   0  0  0  0  0  2  0  0  0  0  0  0
  161.9550  205.9060  151.5660 N   0  0  0  0  0  0  0  0  0  0  0  0
  161.5380  206.2920  150.2160 C   0  0  0  0  0  2  0  0  0  0  0  0
  160.5290  206.9680  154.9330 C   0  0  0  0  0  2  0  0  0  0  0  0
  161.5510  208.1230  148.5350 C   0  0  0  0  0  0  0  0  0  0  0  0
  161.7120  209.4700  148.0770 N   0  0  0  0  0  2  0  0  0  0  0  0
  161.1360  207.2440  147.7320 O   0  0  0  0  0  0  0  0  0  0  0  0
  162.3170  210.5110  148.8940 C   0  0  0  0  0  2  0  0  0  0  0  0
  161.7140  211.8560  148.5400 C   0  0  0  0  0  2  0  0  0  0  0  0
  160.8070  211.7060  147.3350 C   0  0  0  0  0  2  0  0  0  0  0  0
  160.0530  213.0050  147.0840 C   0  0  2  0  0  3  0  0  0  0  0  0
  158.3650  213.0320  145.3450 C   0  0  0  0  0  2  0  0  0  0  0  0
  160.7600  213.6010  144.7210 C   0  0  0  0  0  0  0  0  0  0  0  0
  158.6920  212.9380  147.7530 C   0  0  0  0  0  2  0  0  0  0  0  0
  159.7760  213.1450  145.6630 N   0  0  0  0  0  0  0  0  0  0  0  0
  161.7150  214.3210  145.1260 O   0  0  0  0  0  0  0  0  0  0  0  0
  157.6710  212.6880  146.6490 C   0  0  0  0  0  2  0  0  0  0  0  0
  160.7030  213.2180  143.2920 C   0  0  0  0  0  0  0  0  0  0  0  0
  160.5180  211.4910  141.5880 C   0  0  0  0  0  3  0  0  0  0  0  0
  160.5730  213.8230  140.9390 C   0  0  0  0  0  3  0  0  0  0  0  0
  160.4980  212.4700  140.5900 C   0  0  0  0  0  3  0  0  0  0  0  0
  160.6720  214.1940  142.2840 C   0  0  0  0  0  3  0  0  0  0  0  0
  160.6140  211.8630  142.9310 C   0  0  0  0  0  3  0  0  0  0  0  0
  161.5840  204.4990  151.7060 C   0  0  0  0  0  2  0  0  0  0  0  0
  159.6210  202.0960  149.3990 C   0  0  0  0  0  2  0  0  0  0  0  0
  160.5930  202.0610  148.2130 C   0  0  1  0  0  3  0  0  0  0  0  0
  161.9260  203.9280  149.2750 C   0  0  0  0  0  2  0  0  0  0  0  0
  160.3100  202.5920  150.6690 C   0  0  0  0  0  2  0  0  0  0  0  0
  160.9250  203.9720  150.4320 C   0  0  1  0  0  3  0  0  0  0  0  0
  161.2440  203.4310  148.0010 C   0  0  0  0  0  2  0  0  0  0  0  0
  161.5380  200.1340  147.2700 C   0  0  0  0  0  1  0  0  0  0  0  0
  161.6110  201.0360  148.4100 N   0  0  0  0  0  2  0  0  0  0  0  0
  1  8  1  0  0  0  0
  1  6  2  0  0  0  0
  2 12  1  1  0  0  0
  3 16  1  6  0  0  0
  3 14  1  0  0  0  0
  3 10  1  0  0  0  0
  4 15  1  0  0  0  0
  4  8  2  0  0  0  0
  5  1  1  0  0  0  0
  7  4  1  0  0  0  0
  9  7  2  0  0  0  0
  9  5  1  0  0  0  0
 11 10  1  6  0  0  0
 11  2  1  0  0  0  0
 11  7  1  0  0  0  0
 12 15  1  0  0  0  0
 13 35  1  0  0  0  0
 13  2  1  0  0  0  0
 14 13  1  0  0  0  0
 17 16  1  0  0  0  0
 17 19  1  0  0  0  0
 18 16  2  0  0  0  0
 20 19  1  0  0  0  0
 21 20  1  0  0  0  0
 22 21  1  6  0  0  0
 22 25  1  0  0  0  0
 23 26  1  0  0  0  0
 23 28  1  0  0  0  0
 24 27  2  0  0  0  0
 24 26  1  0  0  0  0
 26 22  1  0  0  0  0
 28 25  1  0  0  0  0
 29 24  1  0  0  0  0
 30 34  2  0  0  0  0
 31 33  1  0  0  0  0
 32 31  2  0  0  0  0
 32 30  1  0  0  0  0
 33 29  2  0  0  0  0
 34 29  1  0  0  0  0
 36 39  1  0  0  0  0
 37 43  1  1  0  0  0
 37 36  1  0  0  0  0
 38 40  1  0  0  0  0
 40 39  1  0  0  0  0
 40 35  1  1  0  0  0
 41 37  1  0  0  0  0
 41 38  1  0  0  0  0
 42 43  1  0  0  0  0
M  END
>  <MODEL>
4

>  <REMARK>
 VINA RESULT:      -8.5      1.890      6.189
  Name = 
  9 active torsions:
  status: ('A' for Active; 'I' for Inactive)
    1  A    between atoms: C_1  and  N_34
    2  A    between atoms: C_1  and  C_35
    3  A    between atoms: C_2  and  C_13
    4  A    between atoms: C_3  and  C_4
    5  A    between atoms: C_3  and  C_12
    6  A    between atoms: N_6  and  C_17
    7  A    between atoms: C_11  and  C_14
    8  A    between atoms: C_12  and  C_17
    9  A    between atoms: C_19  and  N_37
                            x       y       z     vdW  Elec       q    Type
                         _______ _______ _______ _____ _____    ______ ____

>  <TORSDO>
F 9

$$$$
=
 OpenBabel11062410003D

 43 48  0  0  1  0  0  0  0  0999 V2000
  160.8170  201.0420  148.7470 C   0  0  0  0  0  0  0  0  0  0  0  0
  161.5430  205.3190  151.4790 C   0  0  2  0  0  3  0  0  0  0  0  0
  161.6680  207.5550  149.6620 C   0  0  1  0  0  3  0  0  0  0  0  0
  161.1180  202.6130  150.5210 C   0  0  0  0  0  0  0  0  0  0  0  0
  161.1510  202.0460  147.6840 C   0  0  0  0  0  2  0  0  0  0  0  0
  160.4950  199.8690  148.4200 O   0  0  0  0  0  0  0  0  0  0  0  0
  161.2010  203.7240  149.5300 C   0  0  0  0  0  0  0  0  0  0  0  0
  160.9280  201.3880  150.1320 N   0  0  0  0  0  0  0  0  0  0  0  0
  161.1320  203.4480  148.2210 C   0  0  0  0  0  3  0  0  0  0  0  0
  161.8650  206.1390  149.1280 C   0  0  0  0  0  2  0  0  0  0  0  0
  161.0950  205.1550  150.0110 C   0  0  2  0  0  3  0  0  0  0  0  0
  160.7870  204.2980  152.3350 C   0  0  0  0  0  2  0  0  0  0  0  0
  161.2920  206.6980  151.9320 N   0  0  0  0  0  0  0  0  0  0  0  0
  162.1030  207.6100  151.1220 C   0  0  0  0  0  2  0  0  0  0  0  0
  161.2630  202.8910  151.9880 C   0  0  0  0  0  2  0  0  0  0  0  0
  162.4310  208.5550  148.8470 C   0  0  0  0  0  0  0  0  0  0  0  0
  162.3190  209.9560  149.1210 N   0  0  0  0  0  2  0  0  0  0  0  0
  163.1940  208.1670  147.9210 O   0  0  0  0  0  0  0  0  0  0  0  0
  161.5750  210.4780  150.2580 C   0  0  0  0  0  2  0  0  0  0  0  0
  161.2030  211.9260  150.0060 C   0  0  0  0  0  2  0  0  0  0  0  0
  161.7840  212.3780  148.6820 C   0  0  0  0  0  2  0  0  0  0  0  0
  161.1080  213.6640  148.2270 C   0  0  2  0  0  3  0  0  0  0  0  0
  159.2950  213.5020  146.6270 C   0  0  0  0  0  2  0  0  0  0  0  0
  161.6680  213.7310  145.7530 C   0  0  0  0  0  0  0  0  0  0  0  0
  159.8030  213.8460  148.9800 C   0  0  0  0  0  2  0  0  0  0  0  0
  160.7310  213.5530  146.8270 N   0  0  0  0  0  0  0  0  0  0  0  0
  162.7020  214.4300  145.9460 O   0  0  0  0  0  0  0  0  0  0  0  0
  158.6830  213.4770  148.0150 C   0  0  0  0  0  2  0  0  0  0  0  0
  161.4700  213.0870  144.4340 C   0  0  0  0  0  0  0  0  0  0  0  0
  162.3820  212.3460  142.3030 C   0  0  0  0  0  3  0  0  0  0  0  0
  160.0730  211.8710  142.8570 C   0  0  0  0  0  3  0  0  0  0  0  0
  161.1450  211.7880  141.9630 C   0  0  0  0  0  3  0  0  0  0  0  0
  160.2370  212.5150  144.0880 C   0  0  0  0  0  3  0  0  0  0  0  0
  162.5450  212.9880  143.5340 C   0  0  0  0  0  3  0  0  0  0  0  0
  161.7830  206.8450  153.3010 C   0  0  0  0  0  2  0  0  0  0  0  0
  159.8680  209.8090  154.8780 C   0  0  0  0  0  2  0  0  0  0  0  0
  159.9700  209.3990  156.3520 C   0  0  1  0  0  3  0  0  0  0  0  0
  160.9120  207.1630  155.6440 C   0  0  0  0  0  2  0  0  0  0  0  0
  160.9140  209.0920  154.0260 C   0  0  0  0  0  2  0  0  0  0  0  0
  160.7690  207.5770  154.1780 C   0  0  1  0  0  3  0  0  0  0  0  0
  159.8690  207.8780  156.5020 C   0  0  0  0  0  2  0  0  0  0  0  0
  161.2030  211.3400  156.8060 C   0  0  0  0  0  1  0  0  0  0  0  0
  161.2090  209.8900  156.9410 N   0  0  0  0  0  2  0  0  0  0  0  0
  1  8  1  0  0  0  0
  2 13  1  0  0  0  0
  2 12  1  1  0  0  0
  3 16  1  6  0  0  0
  3 14  1  0  0  0  0
  4 15  1  0  0  0  0
  5  9  1  0  0  0  0
  5  1  1  0  0  0  0
  6  1  2  0  0  0  0
  7 11  1  0  0  0  0
  7  4  1  0  0  0  0
  8  4  2  0  0  0  0
  9  7  2  0  0  0  0
 10  3  1  0  0  0  0
 11 10  1  6  0  0  0
 11  2  1  0  0  0  0
 13 35  1  0  0  0  0
 14 13  1  0  0  0  0
 15 12  1  0  0  0  0
 16 17  1  0  0  0  0
 17 19  1  0  0  0  0
 18 16  2  0  0  0  0
 20 19  1  0  0  0  0
 21 20  1  0  0  0  0
 22 21  1  1  0  0  0
 22 25  1  0  0  0  0
 23 26  1  0  0  0  0
 23 28  1  0  0  0  0
 24 27  2  0  0  0  0
 24 26  1  0  0  0  0
 26 22  1  0  0  0  0
 28 25  1  0  0  0  0
 29 24  1  0  0  0  0
 30 34  1  0  0  0  0
 31 33  2  0  0  0  0
 32 30  2  0  0  0  0
 32 31  1  0  0  0  0
 33 29  1  0  0  0  0
 34 29  2  0  0  0  0
 36 37  1  0  0  0  0
 37 41  1  0  0  0  0
 37 43  1  6  0  0  0
 38 41  1  0  0  0  0
 39 40  1  0  0  0  0
 39 36  1  0  0  0  0
 40 35  1  6  0  0  0
 40 38  1  0  0  0  0
 42 43  1  0  0  0  0
M  END
>  <MODEL>
5

>  <REMARK>
 VINA RESULT:      -8.5      1.708      2.219
  Name = 
  9 active torsions:
  status: ('A' for Active; 'I' for Inactive)
    1  A    between atoms: C_1  and  N_34
    2  A    between atoms: C_1  and  C_35
    3  A    between atoms: C_2  and  C_13
    4  A    between atoms: C_3  and  C_4
    5  A    between atoms: C_3  and  C_12
    6  A    between atoms: N_6  and  C_17
    7  A    between atoms: C_11  and  C_14
    8  A    between atoms: C_12  and  C_17
    9  A    between atoms: C_19  and  N_37
                            x       y       z     vdW  Elec       q    Type
                         _______ _______ _______ _____ _____    ______ ____

>  <TORSDO>
F 9

$$$$
=
 OpenBabel11062410003D

 43 48  0  0  1  0  0  0  0  0999 V2000
  161.7860  211.9470  148.5390 C   0  0  0  0  0  0  0  0  0  0  0  0
  161.7670  207.3850  150.8780 C   0  0  2  0  0  3  0  0  0  0  0  0
  160.8280  207.7460  153.5800 C   0  0  1  0  0  3  0  0  0  0  0  0
  161.9760  209.6180  149.0370 C   0  0  0  0  0  0  0  0  0  0  0  0
  161.5700  212.3250  149.9740 C   0  0  0  0  0  2  0  0  0  0  0  0
  161.7670  212.8360  147.6480 O   0  0  0  0  0  0  0  0  0  0  0  0
  161.5100  209.8730  150.4300 C   0  0  0  0  0  0  0  0  0  0  0  0
  162.0820  210.5910  148.1830 N   0  0  0  0  0  0  0  0  0  0  0  0
  161.2480  211.1280  150.8210 C   0  0  0  0  0  3  0  0  0  0  0  0
  161.3200  208.9530  152.7860 C   0  0  0  0  0  2  0  0  0  0  0  0
  161.0860  208.7060  151.2950 C   0  0  2  0  0  3  0  0  0  0  0  0
  161.5510  207.1790  149.3750 C   0  0  0  0  0  2  0  0  0  0  0  0
  161.2180  206.2640  151.6620 N   0  0  0  0  0  0  0  0  0  0  0  0
  161.5270  206.4880  153.0750 C   0  0  0  0  0  2  0  0  0  0  0  0
  162.3410  208.2300  148.6000 C   0  0  0  0  0  2  0  0  0  0  0  0
  161.0650  207.9270  155.0490 C   0  0  0  0  0  0  0  0  0  0  0  0
  160.4870  209.0330  155.7500 N   0  0  0  0  0  2  0  0  0  0  0  0
  161.7650  207.0920  155.6840 O   0  0  0  0  0  0  0  0  0  0  0  0
  159.5550  209.9600  155.1250 C   0  0  0  0  0  2  0  0  0  0  0  0
  158.8280  210.7550  156.1920 C   0  0  0  0  0  2  0  0  0  0  0  0
  157.5390  211.3120  155.6230 C   0  0  0  0  0  2  0  0  0  0  0  0
  157.4960  212.8220  155.8080 C   0  0  2  0  0  3  0  0  0  0  0  0
  155.7100  214.0580  154.7330 C   0  0  0  0  0  2  0  0  0  0  0  0
  157.8660  213.6740  153.4460 C   0  0  0  0  0  0  0  0  0  0  0  0
  156.4690  213.1740  156.8680 C   0  0  0  0  0  2  0  0  0  0  0  0
  157.0210  213.4540  154.5870 N   0  0  0  0  0  0  0  0  0  0  0  0
  159.1140  213.7640  153.6110 O   0  0  0  0  0  0  0  0  0  0  0  0
  155.2440  213.7070  156.1330 C   0  0  0  0  0  2  0  0  0  0  0  0
  157.3120  213.7640  152.0760 C   0  0  0  0  0  0  0  0  0  0  0  0
  157.5330  213.3310  149.6910 C   0  0  0  0  0  3  0  0  0  0  0  0
  155.4890  214.3000  150.5560 C   0  0  0  0  0  3  0  0  0  0  0  0
  156.2470  213.8370  149.4750 C   0  0  0  0  0  3  0  0  0  0  0  0
  156.0190  214.2600  151.8510 C   0  0  0  0  0  3  0  0  0  0  0  0
  158.0600  213.2900  150.9850 C   0  0  0  0  0  3  0  0  0  0  0  0
  161.9240  205.0380  151.2940 C   0  0  0  0  0  2  0  0  0  0  0  0
  160.0710  201.7380  150.5080 C   0  0  0  0  0  2  0  0  0  0  0  0
  160.4030  201.6300  149.0140 C   0  0  1  0  0  3  0  0  0  0  0  0
  161.3720  203.9640  149.0820 C   0  0  0  0  0  2  0  0  0  0  0  0
  161.0290  202.6870  151.2240 C   0  0  0  0  0  2  0  0  0  0  0  0
  161.0000  204.0650  150.5630 C   0  0  1  0  0  3  0  0  0  0  0  0
  160.4180  203.0150  148.3580 C   0  0  0  0  0  2  0  0  0  0  0  0
  161.5810  200.2040  147.5740 C   0  0  0  0  0  1  0  0  0  0  0  0
  161.6800  200.9570  148.8170 N   0  0  0  0  0  2  0  0  0  0  0  0
  1  5  1  0  0  0  0
  2 12  1  6  0  0  0
  2 11  1  0  0  0  0
  2 13  1  0  0  0  0
  3 16  1  1  0  0  0
  4  7  1  0  0  0  0
  5  9  1  0  0  0  0
  6  1  2  0  0  0  0
  7  9  2  0  0  0  0
  7 11  1  0  0  0  0
  8  1  1  0  0  0  0
  8  4  2  0  0  0  0
 10  3  1  0  0  0  0
 11 10  1  1  0  0  0
 13 14  1  0  0  0  0
 14  3  1  0  0  0  0
 15  4  1  0  0  0  0
 15 12  1  0  0  0  0
 16 18  2  0  0  0  0
 16 17  1  0  0  0  0
 19 17  1  0  0  0  0
 19 20  1  0  0  0  0
 21 20  1  0  0  0  0
 22 21  1  6  0  0  0
 22 25  1  0  0  0  0
 23 28  1  0  0  0  0
 24 27  2  0  0  0  0
 24 26  1  0  0  0  0
 26 23  1  0  0  0  0
 26 22  1  0  0  0  0
 28 25  1  0  0  0  0
 29 24  1  0  0  0  0
 30 34  1  0  0  0  0
 31 33  2  0  0  0  0
 32 30  2  0  0  0  0
 32 31  1  0  0  0  0
 33 29  1  0  0  0  0
 34 29  2  0  0  0  0
 35 13  1  0  0  0  0
 36 39  1  0  0  0  0
 37 43  1  1  0  0  0
 37 36  1  0  0  0  0
 38 40  1  0  0  0  0
 40 39  1  0  0  0  0
 40 35  1  1  0  0  0
 41 37  1  0  0  0  0
 41 38  1  0  0  0  0
 42 43  1  0  0  0  0
M  END
>  <MODEL>
6

>  <REMARK>
 VINA RESULT:      -8.0      3.909      8.338
  Name = 
  9 active torsions:
  status: ('A' for Active; 'I' for Inactive)
    1  A    between atoms: C_1  and  N_34
    2  A    between atoms: C_1  and  C_35
    3  A    between atoms: C_2  and  C_13
    4  A    between atoms: C_3  and  C_4
    5  A    between atoms: C_3  and  C_12
    6  A    between atoms: N_6  and  C_17
    7  A    between atoms: C_11  and  C_14
    8  A    between atoms: C_12  and  C_17
    9  A    between atoms: C_19  and  N_37
                            x       y       z     vdW  Elec       q    Type
                         _______ _______ _______ _____ _____    ______ ____

>  <TORSDO>
F 9

$$$$
=
 OpenBabel11062410003D

 43 48  0  0  1  0  0  0  0  0999 V2000
  161.0450  203.1460  150.6600 C   0  0  0  0  0  0  0  0  0  0  0  0
  161.5320  208.1320  149.5710 C   0  0  2  0  0  3  0  0  0  0  0  0
  162.3390  209.5170  151.9680 C   0  0  1  0  0  3  0  0  0  0  0  0
  161.1160  205.2610  149.5500 C   0  0  0  0  0  0  0  0  0  0  0  0
  161.1710  203.7590  152.0230 C   0  0  0  0  0  2  0  0  0  0  0  0
  160.9850  201.8940  150.5400 O   0  0  0  0  0  0  0  0  0  0  0  0
  161.5070  205.9230  150.8270 C   0  0  0  0  0  0  0  0  0  0  0  0
  160.9220  203.9770  149.5000 N   0  0  0  0  0  0  0  0  0  0  0  0
  161.6060  205.1940  151.9470 C   0  0  0  0  0  3  0  0  0  0  0  0
  161.7330  208.1210  152.0730 C   0  0  0  0  0  2  0  0  0  0  0  0
  162.0390  207.3390  150.7940 C   0  0  2  0  0  3  0  0  0  0  0  0
  161.8160  207.3130  148.3080 C   0  0  0  0  0  2  0  0  0  0  0  0
  162.1850  209.4520  149.5180 N   0  0  0  0  0  0  0  0  0  0  0  0
  161.8090  210.2070  150.7150 C   0  0  0  0  0  2  0  0  0  0  0  0
  160.9310  206.0690  148.3000 C   0  0  0  0  0  2  0  0  0  0  0  0
  162.0380  210.3360  153.1870 C   0  0  0  0  0  0  0  0  0  0  0  0
  160.8320  211.1030  153.2710 N   0  0  0  0  0  2  0  0  0  0  0  0
  162.8410  210.3410  154.1590 O   0  0  0  0  0  0  0  0  0  0  0  0
  159.7890  211.0410  152.2580 C   0  0  0  0  0  2  0  0  0  0  0  0
  158.4840  211.5570  152.8330 C   0  0  0  0  0  2  0  0  0  0  0  0
  158.6890  212.9500  153.3900 C   0  0  0  0  0  2  0  0  0  0  0  0
  158.0750  213.0540  154.7800 C   0  0  2  0  0  3  0  0  0  0  0  0
  159.5440  212.8770  156.6990 C   0  0  0  0  0  2  0  0  0  0  0  0
  158.5250  210.7530  155.7500 C   0  0  0  0  0  0  0  0  0  0  0  0
  158.2950  214.4510  155.3280 C   0  0  0  0  0  2  0  0  0  0  0  0
  158.7760  212.1660  155.6940 N   0  0  0  0  0  0  0  0  0  0  0  0
  157.4070  210.3090  155.3700 O   0  0  0  0  0  0  0  0  0  0  0  0
  159.4190  214.3490  156.3530 C   0  0  0  0  0  2  0  0  0  0  0  0
  159.5600  209.7990  156.2110 C   0  0  0  0  0  0  0  0  0  0  0  0
  160.3100  207.5050  156.5200 C   0  0  0  0  0  3  0  0  0  0  0  0
  161.7900  209.3410  157.0700 C   0  0  0  0  0  3  0  0  0  0  0  0
  161.5430  207.9660  156.9930 C   0  0  0  0  0  3  0  0  0  0  0  0
  160.8040  210.2530  156.6770 C   0  0  0  0  0  3  0  0  0  0  0  0
  159.3260  208.4160  156.1270 C   0  0  0  0  0  3  0  0  0  0  0  0
  161.6410  210.2060  148.3900 C   0  0  0  0  0  2  0  0  0  0  0  0
  161.1200  214.0270  148.1180 C   0  0  0  0  0  2  0  0  0  0  0  0
  162.4560  214.4010  147.4640 C   0  0  1  0  0  3  0  0  0  0  0  0
  163.2780  212.0410  147.8380 C   0  0  0  0  0  2  0  0  0  0  0  0
  160.8130  212.5400  147.9460 C   0  0  0  0  0  2  0  0  0  0  0  0
  161.9510  211.6960  148.5190 C   0  0  1  0  0  3  0  0  0  0  0  0
  163.5910  213.5270  148.0050 C   0  0  0  0  0  2  0  0  0  0  0  0
  160.9610  214.3830  145.6580 C   0  0  0  0  0  1  0  0  0  0  0  0
  162.3700  214.2900  146.0140 N   0  0  0  0  0  2  0  0  0  0  0  0
  1  5  1  0  0  0  0
  2 12  1  6  0  0  0
  2 11  1  0  0  0  0
  3 10  1  0  0  0  0
  3 16  1  1  0  0  0
  4  7  1  0  0  0  0
  6  1  2  0  0  0  0
  7  9  2  0  0  0  0
  8  4  2  0  0  0  0
  8  1  1  0  0  0  0
  9  5  1  0  0  0  0
 11  7  1  0  0  0  0
 11 10  1  1  0  0  0
 13  2  1  0  0  0  0
 13 14  1  0  0  0  0
 14  3  1  0  0  0  0
 15 12  1  0  0  0  0
 15  4  1  0  0  0  0
 16 17  1  0  0  0  0
 16 18  2  0  0  0  0
 19 20  1  0  0  0  0
 19 17  1  0  0  0  0
 20 21  1  0  0  0  0
 22 21  1  6  0  0  0
 22 25  1  0  0  0  0
 22 26  1  0  0  0  0
 24 29  1  0  0  0  0
 25 28  1  0  0  0  0
 26 24  1  0  0  0  0
 26 23  1  0  0  0  0
 27 24  2  0  0  0  0
 28 23  1  0  0  0  0
 29 33  1  0  0  0  0
 30 32  2  0  0  0  0
 32 31  1  0  0  0  0
 33 31  2  0  0  0  0
 34 29  2  0  0  0  0
 34 30  1  0  0  0  0
 35 13  1  0  0  0  0
 37 43  1  6  0  0  0
 37 41  1  0  0  0  0
 37 36  1  0  0  0  0
 38 41  1  0  0  0  0
 38 40  1  0  0  0  0
 39 36  1  0  0  0  0
 39 40  1  0  0  0  0
 40 35  1  6  0  0  0
 42 43  1  0  0  0  0
M  END
>  <MODEL>
7

>  <REMARK>
 VINA RESULT:      -7.6      3.107      9.105
  Name = 
  9 active torsions:
  status: ('A' for Active; 'I' for Inactive)
    1  A    between atoms: C_1  and  N_34
    2  A    between atoms: C_1  and  C_35
    3  A    between atoms: C_2  and  C_13
    4  A    between atoms: C_3  and  C_4
    5  A    between atoms: C_3  and  C_12
    6  A    between atoms: N_6  and  C_17
    7  A    between atoms: C_11  and  C_14
    8  A    between atoms: C_12  and  C_17
    9  A    between atoms: C_19  and  N_37
                            x       y       z     vdW  Elec       q    Type
                         _______ _______ _______ _____ _____    ______ ____

>  <TORSDO>
F 9

$$$$
=
 OpenBabel11062410003D

 43 48  0  0  1  0  0  0  0  0999 V2000
  161.6870  213.4750  146.7150 C   0  0  0  0  0  0  0  0  0  0  0  0
  158.8940  213.1150  150.9990 C   0  0  2  0  0  3  0  0  0  0  0  0
  160.3210  211.4660  152.8860 C   0  0  1  0  0  3  0  0  0  0  0  0
  159.9890  213.7100  148.3780 C   0  0  0  0  0  0  0  0  0  0  0  0
  162.3910  212.3820  147.4630 C   0  0  0  0  0  2  0  0  0  0  0  0
  162.1600  213.8900  145.6240 O   0  0  0  0  0  0  0  0  0  0  0  0
  160.7620  212.8290  149.2990 C   0  0  0  0  0  0  0  0  0  0  0  0
  160.4460  214.0010  147.1980 N   0  0  0  0  0  0  0  0  0  0  0  0
  161.9150  212.2880  148.8850 C   0  0  0  0  0  3  0  0  0  0  0  0
  160.7000  211.4210  151.4080 C   0  0  0  0  0  2  0  0  0  0  0  0
  160.3800  212.7700  150.7630 C   0  0  2  0  0  3  0  0  0  0  0  0
  158.5890  214.4500  150.3110 C   0  0  0  0  0  2  0  0  0  0  0  0
  158.6130  213.1740  152.4440 N   0  0  0  0  0  0  0  0  0  0  0  0
  158.8510  211.8490  153.0200 C   0  0  0  0  0  2  0  0  0  0  0  0
  158.6620  214.2700  148.7980 C   0  0  0  0  0  2  0  0  0  0  0  0
  160.5870  210.1530  153.5580 C   0  0  0  0  0  0  0  0  0  0  0  0
  161.5220  209.2240  152.9980 N   0  0  0  0  0  2  0  0  0  0  0  0
  159.9990  209.8630  154.6350 O   0  0  0  0  0  0  0  0  0  0  0  0
  162.3450  209.5380  151.8400 C   0  0  0  0  0  2  0  0  0  0  0  0
  162.1440  208.4860  150.7670 C   0  0  0  0  0  2  0  0  0  0  0  0
  162.4450  207.1150  151.3350 C   0  0  0  0  0  2  0  0  0  0  0  0
  161.1840  206.2610  151.3370 C   0  0  2  0  0  3  0  0  0  0  0  0
  161.3470  203.9740  150.5540 C   0  0  0  0  0  2  0  0  0  0  0  0
  160.8310  205.8000  148.8670 C   0  0  0  0  0  0  0  0  0  0  0  0
  161.1900  205.3520  152.5520 C   0  0  0  0  0  2  0  0  0  0  0  0
  161.1920  205.3690  150.1890 N   0  0  0  0  0  0  0  0  0  0  0  0
  160.0670  206.7960  148.7310 O   0  0  0  0  0  0  0  0  0  0  0  0
  161.5590  203.9590  152.0570 C   0  0  0  0  0  2  0  0  0  0  0  0
  161.3590  205.1260  147.6590 C   0  0  0  0  0  0  0  0  0  0  0  0
  162.7800  205.1710  145.6840 C   0  0  0  0  0  3  0  0  0  0  0  0
  161.5810  203.1480  146.2610 C   0  0  0  0  0  3  0  0  0  0  0  0
  162.4490  203.8400  145.4100 C   0  0  0  0  0  3  0  0  0  0  0  0
  161.0420  203.7880  147.3820 C   0  0  0  0  0  3  0  0  0  0  0  0
  162.2410  205.8090  146.8050 C   0  0  0  0  0  3  0  0  0  0  0  0
  157.1880  213.4380  152.6390 C   0  0  0  0  0  2  0  0  0  0  0  0
  157.8530  214.1790  156.3750 C   0  0  0  0  0  2  0  0  0  0  0  0
  156.7500  213.3070  156.9890 C   0  0  1  0  0  3  0  0  0  0  0  0
  155.8030  212.9140  154.6790 C   0  0  0  0  0  2  0  0  0  0  0  0
  158.1590  213.7600  154.9380 C   0  0  0  0  0  2  0  0  0  0  0  0
  156.8890  213.8160  154.0890 C   0  0  1  0  0  3  0  0  0  0  0  0
  155.4910  213.3270  156.1160 C   0  0  0  0  0  2  0  0  0  0  0  0
  158.6720  211.9920  157.2610 C   0  0  0  0  0  1  0  0  0  0  0  0
  157.2190  211.9410  157.1800 N   0  0  0  0  0  2  0  0  0  0  0  0
  1  8  1  0  0  0  0
  1  5  1  0  0  0  0
  2 12  1  1  0  0  0
  2 13  1  0  0  0  0
  3 14  1  0  0  0  0
  3 16  1  6  0  0  0
  4 15  1  0  0  0  0
  4  7  1  0  0  0  0
  5  9  1  0  0  0  0
  6  1  2  0  0  0  0
  7 11  1  0  0  0  0
  8  4  2  0  0  0  0
  9  7  2  0  0  0  0
 10  3  1  0  0  0  0
 11  2  1  0  0  0  0
 11 10  1  6  0  0  0
 13 35  1  0  0  0  0
 13 14  1  0  0  0  0
 15 12  1  0  0  0  0
 16 18  2  0  0  0  0
 17 16  1  0  0  0  0
 19 17  1  0  0  0  0
 20 21  1  0  0  0  0
 20 19  1  0  0  0  0
 22 21  1  1  0  0  0
 22 25  1  0  0  0  0
 23 28  1  0  0  0  0
 24 26  1  0  0  0  0
 26 23  1  0  0  0  0
 26 22  1  0  0  0  0
 27 24  2  0  0  0  0
 28 25  1  0  0  0  0
 29 24  1  0  0  0  0
 30 34  1  0  0  0  0
 31 33  2  0  0  0  0
 32 30  2  0  0  0  0
 32 31  1  0  0  0  0
 33 29  1  0  0  0  0
 34 29  2  0  0  0  0
 36 37  1  0  0  0  0
 37 43  1  6  0  0  0
 38 41  1  0  0  0  0
 39 36  1  0  0  0  0
 40 35  1  6  0  0  0
 40 38  1  0  0  0  0
 40 39  1  0  0  0  0
 41 37  1  0  0  0  0
 43 42  1  0  0  0  0
M  END
>  <MODEL>
8

>  <REMARK>
 VINA RESULT:      -7.5      3.271      8.029
  Name = 
  9 active torsions:
  status: ('A' for Active; 'I' for Inactive)
    1  A    between atoms: C_1  and  N_34
    2  A    between atoms: C_1  and  C_35
    3  A    between atoms: C_2  and  C_13
    4  A    between atoms: C_3  and  C_4
    5  A    between atoms: C_3  and  C_12
    6  A    between atoms: N_6  and  C_17
    7  A    between atoms: C_11  and  C_14
    8  A    between atoms: C_12  and  C_17
    9  A    between atoms: C_19  and  N_37
                            x       y       z     vdW  Elec       q    Type
                         _______ _______ _______ _____ _____    ______ ____

>  <TORSDO>
F 9

$$$$
=
 OpenBabel11062410003D

 43 48  0  0  1  0  0  0  0  0999 V2000
  161.5200  211.7680  148.3840 C   0  0  0  0  0  0  0  0  0  0  0  0
  160.2460  211.5090  153.3430 C   0  0  2  0  0  3  0  0  0  0  0  0
  161.0510  208.9340  154.3620 C   0  0  1  0  0  3  0  0  0  0  0  0
  160.7250  212.2620  150.5830 C   0  0  0  0  0  0  0  0  0  0  0  0
  161.7200  210.3130  148.6890 C   0  0  0  0  0  2  0  0  0  0  0  0
  161.8200  212.2150  147.2470 O   0  0  0  0  0  0  0  0  0  0  0  0
  161.1400  210.9060  151.0430 C   0  0  0  0  0  0  0  0  0  0  0  0
  160.9240  212.6360  149.3550 N   0  0  0  0  0  0  0  0  0  0  0  0
  161.6760  210.0450  150.1660 C   0  0  0  0  0  3  0  0  0  0  0  0
  160.9300  209.1430  152.8550 C   0  0  0  0  0  2  0  0  0  0  0  0
  161.2010  210.6130  152.5260 C   0  0  2  0  0  3  0  0  0  0  0  0
  160.5090  212.9700  152.9690 C   0  0  0  0  0  2  0  0  0  0  0  0
  160.4440  211.2750  154.7850 N   0  0  0  0  0  0  0  0  0  0  0  0
  160.1000  209.8830  155.0830 C   0  0  0  0  0  2  0  0  0  0  0  0
  160.0610  213.2150  151.5310 C   0  0  0  0  0  2  0  0  0  0  0  0
  160.7630  207.5120  154.7390 C   0  0  0  0  0  0  0  0  0  0  0  0
  160.8200  206.4710  153.7570 N   0  0  0  0  0  2  0  0  0  0  0  0
  160.4850  207.2190  155.9330 O   0  0  0  0  0  0  0  0  0  0  0  0
  161.2700  206.7010  152.3930 C   0  0  0  0  0  2  0  0  0  0  0  0
  162.6670  206.1400  152.2120 C   0  0  0  0  0  2  0  0  0  0  0  0
  162.6030  204.8690  151.3900 C   0  0  0  0  0  2  0  0  0  0  0  0
  161.1540  204.5190  151.0810 C   0  0  2  0  0  3  0  0  0  0  0  0
  160.7080  202.9940  149.2520 C   0  0  0  0  0  2  0  0  0  0  0  0
  160.8430  205.4800  148.7530 C   0  0  0  0  0  0  0  0  0  0  0  0
  160.8220  203.1630  151.6750 C   0  0  0  0  0  2  0  0  0  0  0  0
  160.9810  204.3630  149.6450 N   0  0  0  0  0  0  0  0  0  0  0  0
  160.4060  206.5760  149.2000 O   0  0  0  0  0  0  0  0  0  0  0  0
  160.8100  202.1680  150.5200 C   0  0  0  0  0  2  0  0  0  0  0  0
  161.2340  205.3880  147.3280 C   0  0  0  0  0  0  0  0  0  0  0  0
  162.7180  204.5080  145.6120 C   0  0  0  0  0  3  0  0  0  0  0  0
  160.8130  205.8620  144.9790 C   0  0  0  0  0  3  0  0  0  0  0  0
  161.9440  205.1210  144.6210 C   0  0  0  0  0  3  0  0  0  0  0  0
  160.4580  205.9910  146.3260 C   0  0  0  0  0  3  0  0  0  0  0  0
  162.3620  204.6370  146.9570 C   0  0  0  0  0  3  0  0  0  0  0  0
  159.4850  212.0850  155.5330 C   0  0  0  0  0  2  0  0  0  0  0  0
  156.4950  213.8460  153.8270 C   0  0  0  0  0  2  0  0  0  0  0  0
  155.3540  213.0460  154.4660 C   0  0  1  0  0  3  0  0  0  0  0  0
  157.0480  211.4450  155.4420 C   0  0  0  0  0  2  0  0  0  0  0  0
  157.7880  213.7100  154.6290 C   0  0  0  0  0  2  0  0  0  0  0  0
  158.1710  212.2360  154.7670 C   0  0  1  0  0  3  0  0  0  0  0  0
  155.7510  211.5780  154.6460 C   0  0  0  0  0  2  0  0  0  0  0  0
  153.7660  214.4230  155.5070 C   0  0  0  0  0  1  0  0  0  0  0  0
  154.9650  213.6310  155.7440 N   0  0  0  0  0  2  0  0  0  0  0  0
  1  5  1  0  0  0  0
  1  8  1  0  0  0  0
  2 12  1  1  0  0  0
  2 13  1  0  0  0  0
  3 16  1  6  0  0  0
  3 14  1  0  0  0  0
  4  7  1  0  0  0  0
  4 15  1  0  0  0  0
  5  9  1  0  0  0  0
  6  1  2  0  0  0  0
  7 11  1  0  0  0  0
  8  4  2  0  0  0  0
  9  7  2  0  0  0  0
 10  3  1  0  0  0  0
 11 10  1  6  0  0  0
 11  2  1  0  0  0  0
 13 14  1  0  0  0  0
 13 35  1  0  0  0  0
 15 12  1  0  0  0  0
 16 18  2  0  0  0  0
 17 16  1  0  0  0  0
 19 17  1  0  0  0  0
 20 19  1  0  0  0  0
 21 20  1  0  0  0  0
 22 21  1  6  0  0  0
 22 25  1  0  0  0  0
 23 26  1  0  0  0  0
 23 28  1  0  0  0  0
 24 27  2  0  0  0  0
 24 26  1  0  0  0  0
 26 22  1  0  0  0  0
 28 25  1  0  0  0  0
 29 24  1  0  0  0  0
 30 34  2  0  0  0  0
 31 33  1  0  0  0  0
 32 31  2  0  0  0  0
 32 30  1  0  0  0  0
 33 29  2  0  0  0  0
 34 29  1  0  0  0  0
 36 37  1  0  0  0  0
 36 39  1  0  0  0  0
 37 41  1  0  0  0  0
 37 43  1  1  0  0  0
 39 40  1  0  0  0  0
 40 38  1  0  0  0  0
 40 35  1  1  0  0  0
 41 38  1  0  0  0  0
 42 43  1  0  0  0  0
M  END
>  <MODEL>
9

>  <REMARK>
 VINA RESULT:      -6.9      3.580      7.909
  Name = 
  9 active torsions:
  status: ('A' for Active; 'I' for Inactive)
    1  A    between atoms: C_1  and  N_34
    2  A    between atoms: C_1  and  C_35
    3  A    between atoms: C_2  and  C_13
    4  A    between atoms: C_3  and  C_4
    5  A    between atoms: C_3  and  C_12
    6  A    between atoms: N_6  and  C_17
    7  A    between atoms: C_11  and  C_14
    8  A    between atoms: C_12  and  C_17
    9  A    between atoms: C_19  and  N_37
                            x       y       z     vdW  Elec       q    Type
                         _______ _______ _______ _____ _____    ______ ____

>  <TORSDO>
F 9

$$$$
