=
 OpenBabel11062409483D

 34 38  0  0  1  0  0  0  0  0999 V2000
  159.2550  210.4640  155.1570 C   0  0  1  0  0  3  0  0  0  0  0  0
  158.5910  213.9540  153.9760 C   0  0  0  0  0  3  0  0  0  0  0  0
  160.1000  213.1700  155.5770 O   0  0  0  0  0  0  0  0  0  0  0  0
  160.3540  208.3400  154.2250 C   0  0  2  0  0  3  0  0  0  0  0  0
  159.0780  208.9910  154.7630 C   0  0  0  0  0  2  0  0  0  0  0  0
  161.7580  210.1500  155.2840 N   0  0  0  0  0  0  0  0  0  0  0  0
  162.0940  210.8350  154.0360 C   0  0  0  0  0  1  0  0  0  0  0  0
  161.6020  208.7090  155.0480 C   0  0  0  0  0  2  0  0  0  0  0  0
  160.7380  212.1550  156.3020 C   0  0  0  0  0  0  0  0  0  0  0  0
  160.5590  210.7070  155.9350 C   0  0  1  0  0  3  0  0  0  0  0  0
  161.4920  212.4620  157.2610 O   0  0  0  0  0  0  0  0  0  0  0  0
  157.5390  213.8310  152.9260 C   0  0  0  0  0  2  0  0  0  0  0  0
  158.0870  213.2390  151.6660 C   0  0  0  0  0  0  0  0  0  0  0  0
  158.5740  211.9990  151.6450 C   0  0  0  0  0  3  0  0  0  0  0  0
  159.2240  212.9120  154.5160 C   0  0  0  0  0  0  0  0  0  0  0  0
  158.7550  211.1260  152.8210 C   0  0  0  0  0  3  0  0  0  0  0  0
  159.0080  211.5020  154.0880 C   0  0  0  0  0  0  0  0  0  0  0  0
  158.0490  213.9540  150.4640 O   0  0  0  0  0  0  0  0  0  0  0  0
  158.0530  213.3420  148.1320 C   0  0  0  0  0  1  0  0  0  0  0  0
  157.2130  213.5920  149.3720 C   0  0  0  0  0  2  0  0  0  0  0  0
  160.5270  208.5710  152.7210 C   0  0  0  0  0  2  0  0  0  0  0  0
  161.8630  208.9490  149.9810 O   0  0  0  0  0  0  0  0  0  0  0  0
  161.4030  206.2080  152.3110 C   0  0  0  0  0  2  0  0  0  0  0  0
  161.6680  204.8910  148.2320 C   0  0  1  0  0  3  0  0  0  0  0  0
  161.3860  206.3760  148.4950 C   0  0  0  0  0  2  0  0  0  0  0  0
  161.4640  206.6330  149.9290 N   0  0  0  0  0  0  0  0  0  0  0  0
  161.0390  204.3810  150.6230 C   0  0  0  0  0  3  0  0  0  0  0  0
  161.2690  205.6550  150.9300 C   0  0  0  0  0  0  0  0  0  0  0  0
  160.8670  203.9810  149.1800 C   0  0  0  0  0  2  0  0  0  0  0  0
  161.6270  207.7190  152.0790 C   0  0  1  0  0  3  0  0  0  0  0  0
  161.6620  207.8640  150.5890 C   0  0  0  0  0  0  0  0  0  0  0  0
  161.4530  204.5140  146.7660 C   0  0  0  0  0  2  0  0  0  0  0  0
  161.7200  205.6640  145.8010 C   0  0  0  0  0  2  0  0  0  0  0  0
  160.5530  205.9050  144.9710 N   0  0  0  0  0  1  0  0  0  0  0  0
  1  5  1  6  0  0  0
  1 10  1  0  0  0  0
  2 15  2  0  0  0  0
  3  9  1  0  0  0  0
  4 21  1  6  0  0  0
  4  5  1  0  0  0  0
  4  8  1  0  0  0  0
  6 10  1  0  0  0  0
  7  6  1  0  0  0  0
  8  6  1  0  0  0  0
  9 11  2  0  0  0  0
 10  9  1  6  0  0  0
 12  2  1  0  0  0  0
 13 12  1  0  0  0  0
 14 13  2  0  0  0  0
 14 16  1  0  0  0  0
 15  3  1  0  0  0  0
 16 17  2  0  0  0  0
 17 15  1  0  0  0  0
 17  1  1  0  0  0  0
 18 13  1  0  0  0  0
 19 20  1  0  0  0  0
 20 18  1  0  0  0  0
 22 31  2  0  0  0  0
 24 32  1  6  0  0  0
 24 25  1  0  0  0  0
 24 29  1  0  0  0  0
 25 26  1  0  0  0  0
 26 31  1  0  0  0  0
 26 28  1  0  0  0  0
 27 28  2  0  0  0  0
 28 23  1  0  0  0  0
 29 27  1  0  0  0  0
 30 23  1  0  0  0  0
 30 21  1  6  0  0  0
 31 30  1  0  0  0  0
 33 32  1  0  0  0  0
 34 33  1  0  0  0  0
M  END
>  <MODEL>
1

>  <REMARK>
 VINA RESULT:      -6.8      0.000      0.000
  Name = 
  6 active torsions:
  status: ('A' for Active; 'I' for Inactive)
    1  A    between atoms: O_3  and  C_24
    2  A    between atoms: O_3  and  C_25
    3  A    between atoms: C_7  and  C_11
    4  A    between atoms: C_8  and  C_18
    5  A    between atoms: C_11  and  C_15
    6  A    between atoms: C_18  and  C_30
                            x       y       z     vdW  Elec       q    Type
                         _______ _______ _______ _____ _____    ______ ____

>  <TORSDO>
F 6

$$$$
=
 OpenBabel11062409483D

 34 38  0  0  1  0  0  0  0  0999 V2000
  158.8940  213.1970  154.7860 C   0  0  1  0  0  3  0  0  0  0  0  0
  160.2590  209.7640  155.3910 C   0  0  0  0  0  3  0  0  0  0  0  0
  158.3580  210.8020  156.2650 O   0  0  0  0  0  0  0  0  0  0  0  0
  157.7340  214.4490  152.8700 C   0  0  2  0  0  3  0  0  0  0  0  0
  158.9480  214.3720  153.7990 C   0  0  0  0  0  2  0  0  0  0  0  0
  156.4010  212.9920  154.4410 N   0  0  0  0  0  0  0  0  0  0  0  0
  156.4290  211.7950  153.6020 C   0  0  0  0  0  1  0  0  0  0  0  0
  156.4050  214.2000  153.6050 C   0  0  0  0  0  2  0  0  0  0  0  0
  157.4510  211.8640  156.3700 C   0  0  0  0  0  0  0  0  0  0  0  0
  157.5030  213.0280  155.4190 C   0  0  1  0  0  3  0  0  0  0  0  0
  156.5630  211.8320  157.2610 O   0  0  0  0  0  0  0  0  0  0  0  0
  161.4800  209.6590  154.5410 C   0  0  0  0  0  2  0  0  0  0  0  0
  161.1300  209.5390  153.0910 C   0  0  0  0  0  0  0  0  0  0  0  0
  160.4930  210.5210  152.4550 C   0  0  0  0  0  3  0  0  0  0  0  0
  159.3910  210.7750  155.3210 C   0  0  0  0  0  0  0  0  0  0  0  0
  159.9550  211.7450  153.0810 C   0  0  0  0  0  3  0  0  0  0  0  0
  159.4980  211.8880  154.3370 C   0  0  0  0  0  0  0  0  0  0  0  0
  161.5140  208.4140  152.3540 O   0  0  0  0  0  0  0  0  0  0  0  0
  161.3850  206.1600  151.5090 C   0  0  0  0  0  1  0  0  0  0  0  0
  161.0720  207.0980  152.6600 C   0  0  0  0  0  2  0  0  0  0  0  0
  157.9110  213.5810  151.6210 C   0  0  0  0  0  2  0  0  0  0  0  0
  156.5440  214.0170  148.9050 O   0  0  0  0  0  0  0  0  0  0  0  0
  159.9470  214.0590  150.1570 C   0  0  0  0  0  2  0  0  0  0  0  0
  159.7140  212.9030  146.0280 C   0  0  1  0  0  3  0  0  0  0  0  0
  158.4280  212.8580  146.8650 C   0  0  0  0  0  2  0  0  0  0  0  0
  158.6980  213.4070  148.1890 N   0  0  0  0  0  0  0  0  0  0  0  0
  161.0600  213.0130  148.1610 C   0  0  0  0  0  3  0  0  0  0  0  0
  159.9740  213.4460  148.7950 C   0  0  0  0  0  0  0  0  0  0  0  0
  160.9240  212.3600  146.8090 C   0  0  0  0  0  2  0  0  0  0  0  0
  158.4470  214.3390  150.4010 C   0  0  1  0  0  3  0  0  0  0  0  0
  157.7800  213.9170  149.1290 C   0  0  0  0  0  0  0  0  0  0  0  0
  159.5480  212.2030  144.6780 C   0  0  0  0  0  2  0  0  0  0  0  0
  160.2270  212.9390  143.5280 C   0  0  0  0  0  2  0  0  0  0  0  0
  161.4060  212.2120  143.0930 N   0  0  0  0  0  1  0  0  0  0  0  0
  1  5  1  6  0  0  0
  1 10  1  0  0  0  0
  3  9  1  0  0  0  0
  4 21  1  6  0  0  0
  4  8  1  0  0  0  0
  4  5  1  0  0  0  0
  6 10  1  0  0  0  0
  7  6  1  0  0  0  0
  8  6  1  0  0  0  0
  9 11  2  0  0  0  0
 10  9  1  6  0  0  0
 12  2  1  0  0  0  0
 13 12  1  0  0  0  0
 14 16  1  0  0  0  0
 14 13  2  0  0  0  0
 15  2  2  0  0  0  0
 15  3  1  0  0  0  0
 16 17  2  0  0  0  0
 17  1  1  0  0  0  0
 17 15  1  0  0  0  0
 18 20  1  0  0  0  0
 18 13  1  0  0  0  0
 19 20  1  0  0  0  0
 22 31  2  0  0  0  0
 23 30  1  0  0  0  0
 24 32  1  6  0  0  0
 24 29  1  0  0  0  0
 24 25  1  0  0  0  0
 25 26  1  0  0  0  0
 26 28  1  0  0  0  0
 26 31  1  0  0  0  0
 27 28  2  0  0  0  0
 28 23  1  0  0  0  0
 29 27  1  0  0  0  0
 30 21  1  1  0  0  0
 31 30  1  0  0  0  0
 33 32  1  0  0  0  0
 34 33  1  0  0  0  0
M  END
>  <MODEL>
2

>  <REMARK>
 VINA RESULT:      -5.4      2.952      6.425
  Name = 
  6 active torsions:
  status: ('A' for Active; 'I' for Inactive)
    1  A    between atoms: O_3  and  C_24
    2  A    between atoms: O_3  and  C_25
    3  A    between atoms: C_7  and  C_11
    4  A    between atoms: C_8  and  C_18
    5  A    between atoms: C_11  and  C_15
    6  A    between atoms: C_18  and  C_30
                            x       y       z     vdW  Elec       q    Type
                         _______ _______ _______ _____ _____    ______ ____

>  <TORSDO>
F 6

$$$$
=
 OpenBabel11062409483D

 34 38  0  0  1  0  0  0  0  0999 V2000
  161.6130  209.1870  154.6400 C   0  0  1  0  0  3  0  0  0  0  0  0
  161.2000  205.8060  153.0850 C   0  0  0  0  0  3  0  0  0  0  0  0
  160.4680  206.6100  155.1530 O   0  0  0  0  0  0  0  0  0  0  0  0
  160.6810  211.5510  154.2770 C   0  0  2  0  0  3  0  0  0  0  0  0
  161.9200  210.6530  154.3030 C   0  0  0  0  0  2  0  0  0  0  0  0
  159.3920  209.8600  155.6370 N   0  0  0  0  0  0  0  0  0  0  0  0
  158.5470  209.3910  154.5390 C   0  0  0  0  0  1  0  0  0  0  0  0
  159.7250  211.2780  155.4530 C   0  0  0  0  0  2  0  0  0  0  0  0
  160.3000  207.6140  156.1150 C   0  0  0  0  0  0  0  0  0  0  0  0
  160.6130  209.0520  155.8010 C   0  0  1  0  0  3  0  0  0  0  0  0
  159.8570  207.3120  157.2530 O   0  0  0  0  0  0  0  0  0  0  0  0
  161.8560  205.8950  151.7490 C   0  0  0  0  0  2  0  0  0  0  0  0
  161.0450  206.7120  150.7930 C   0  0  0  0  0  0  0  0  0  0  0  0
  160.8150  208.0050  151.0180 C   0  0  0  0  0  3  0  0  0  0  0  0
  160.9810  206.8600  153.8750 C   0  0  0  0  0  0  0  0  0  0  0  0
  161.1920  208.7460  152.2380 C   0  0  0  0  0  3  0  0  0  0  0  0
  161.3020  208.2620  153.4880 C   0  0  0  0  0  0  0  0  0  0  0  0
  160.5570  206.1510  149.6080 O   0  0  0  0  0  0  0  0  0  0  0  0
  161.5720  204.5080  148.1640 C   0  0  0  0  0  1  0  0  0  0  0  0
  161.3550  205.9840  148.4420 C   0  0  0  0  0  2  0  0  0  0  0  0
  159.9880  211.5340  152.9120 C   0  0  0  0  0  2  0  0  0  0  0  0
  157.2840  212.9320  152.4960 O   0  0  0  0  0  0  0  0  0  0  0  0
  160.6220  213.2250  151.1070 C   0  0  0  0  0  2  0  0  0  0  0  0
  157.5600  214.3660  148.3210 C   0  0  1  0  0  3  0  0  0  0  0  0
  157.1470  213.5520  149.5550 C   0  0  0  0  0  2  0  0  0  0  0  0
  158.3040  213.3830  150.4270 N   0  0  0  0  0  0  0  0  0  0  0  0
  159.9630  213.7080  148.7310 C   0  0  0  0  0  3  0  0  0  0  0  0
  159.6480  213.4410  149.9950 C   0  0  0  0  0  0  0  0  0  0  0  0
  158.8680  213.8430  147.7030 C   0  0  0  0  0  2  0  0  0  0  0  0
  159.7210  212.9250  152.3270 C   0  0  1  0  0  3  0  0  0  0  0  0
  158.3260  213.0640  151.8000 C   0  0  0  0  0  0  0  0  0  0  0  0
  156.4380  214.4530  147.2870 C   0  0  0  0  0  2  0  0  0  0  0  0
  156.6880  213.5960  146.0500 C   0  0  0  0  0  2  0  0  0  0  0  0
  156.2940  214.3150  144.8520 N   0  0  0  0  0  1  0  0  0  0  0  0
  1  5  1  6  0  0  0
  1 10  1  0  0  0  0
  2 15  2  0  0  0  0
  3  9  1  0  0  0  0
  4 21  1  6  0  0  0
  4  5  1  0  0  0  0
  4  8  1  0  0  0  0
  6 10  1  0  0  0  0
  7  6  1  0  0  0  0
  8  6  1  0  0  0  0
  9 11  2  0  0  0  0
 10  9  1  6  0  0  0
 12  2  1  0  0  0  0
 13 14  2  0  0  0  0
 13 12  1  0  0  0  0
 14 16  1  0  0  0  0
 15  3  1  0  0  0  0
 16 17  2  0  0  0  0
 17 15  1  0  0  0  0
 17  1  1  0  0  0  0
 18 13  1  0  0  0  0
 19 20  1  0  0  0  0
 20 18  1  0  0  0  0
 23 30  1  0  0  0  0
 24 32  1  6  0  0  0
 24 25  1  0  0  0  0
 25 26  1  0  0  0  0
 26 31  1  0  0  0  0
 27 28  2  0  0  0  0
 28 26  1  0  0  0  0
 28 23  1  0  0  0  0
 29 24  1  0  0  0  0
 29 27  1  0  0  0  0
 30 21  1  6  0  0  0
 31 30  1  0  0  0  0
 31 22  2  0  0  0  0
 33 32  1  0  0  0  0
 34 33  1  0  0  0  0
M  END
>  <MODEL>
3

>  <REMARK>
 VINA RESULT:      -5.3      2.825      6.980
  Name = 
  6 active torsions:
  status: ('A' for Active; 'I' for Inactive)
    1  A    between atoms: O_3  and  C_24
    2  A    between atoms: O_3  and  C_25
    3  A    between atoms: C_7  and  C_11
    4  A    between atoms: C_8  and  C_18
    5  A    between atoms: C_11  and  C_15
    6  A    between atoms: C_18  and  C_30
                            x       y       z     vdW  Elec       q    Type
                         _______ _______ _______ _____ _____    ______ ____

>  <TORSDO>
F 6

$$$$
=
 OpenBabel11062409483D

 34 38  0  0  1  0  0  0  0  0999 V2000
  160.9310  211.0440  137.7960 C   0  0  1  0  0  3  0  0  0  0  0  0
  157.8580  209.0410  137.0430 C   0  0  0  0  0  3  0  0  0  0  0  0
  160.0950  208.3790  137.1510 O   0  0  0  0  0  0  0  0  0  0  0  0
  161.9840  212.1730  139.8450 C   0  0  2  0  0  3  0  0  0  0  0  0
  161.4020  212.3540  138.4420 C   0  0  0  0  0  2  0  0  0  0  0  0
  162.3480  209.7140  139.4090 N   0  0  0  0  0  0  0  0  0  0  0  0
  161.2600  209.2430  140.2660 C   0  0  0  0  0  1  0  0  0  0  0  0
  162.9200  210.9540  139.9480 C   0  0  0  0  0  2  0  0  0  0  0  0
  161.4560  208.6090  137.3890 C   0  0  0  0  0  0  0  0  0  0  0  0
  161.9320  209.8950  138.0070 C   0  0  1  0  0  3  0  0  0  0  0  0
  162.2930  207.7140  137.1030 O   0  0  0  0  0  0  0  0  0  0  0  0
  156.7190  209.9990  137.1410 C   0  0  0  0  0  2  0  0  0  0  0  0
  156.4350  210.3700  138.5630 C   0  0  0  0  0  0  0  0  0  0  0  0
  157.3390  211.0170  139.2970 C   0  0  0  0  0  3  0  0  0  0  0  0
  159.1050  209.3330  137.4150 C   0  0  0  0  0  0  0  0  0  0  0  0
  158.7210  211.3280  138.8820 C   0  0  0  0  0  3  0  0  0  0  0  0
  159.5000  210.6270  138.0390 C   0  0  0  0  0  0  0  0  0  0  0  0
  155.1900  210.0970  139.1380 O   0  0  0  0  0  0  0  0  0  0  0  0
  153.3250  208.8170  139.9730 C   0  0  0  0  0  1  0  0  0  0  0  0
  154.7400  208.7790  139.4250 C   0  0  0  0  0  2  0  0  0  0  0  0
  160.9000  212.2010  140.9250 C   0  0  0  0  0  2  0  0  0  0  0  0
  163.0510  212.7310  143.0520 O   0  0  0  0  0  0  0  0  0  0  0  0
  159.6310  213.7870  142.4720 C   0  0  0  0  0  2  0  0  0  0  0  0
  160.6560  213.7050  146.6410 C   0  0  1  0  0  3  0  0  0  0  0  0
  161.5640  212.9530  145.6580 C   0  0  0  0  0  2  0  0  0  0  0  0
  161.1160  213.2130  144.2950 N   0  0  0  0  0  0  0  0  0  0  0  0
  158.8640  213.7960  144.8650 C   0  0  0  0  0  3  0  0  0  0  0  0
  159.8010  213.5950  143.9430 C   0  0  0  0  0  0  0  0  0  0  0  0
  159.1660  213.5020  146.3120 C   0  0  0  0  0  2  0  0  0  0  0  0
  161.0050  213.3870  141.8900 C   0  0  1  0  0  3  0  0  0  0  0  0
  161.8380  213.0700  143.0930 C   0  0  0  0  0  0  0  0  0  0  0  0
  160.9700  213.3580  148.0970 C   0  0  0  0  0  2  0  0  0  0  0  0
  162.1850  212.4510  148.2530 C   0  0  0  0  0  2  0  0  0  0  0  0
  161.9410  211.4560  149.2830 N   0  0  0  0  0  1  0  0  0  0  0  0
  1 10  1  0  0  0  0
  1 17  1  0  0  0  0
  1  5  1  1  0  0  0
  2 12  1  0  0  0  0
  2 15  2  0  0  0  0
  3  9  1  0  0  0  0
  3 15  1  0  0  0  0
  4  8  1  0  0  0  0
  4 21  1  1  0  0  0
  5  4  1  0  0  0  0
  6  8  1  0  0  0  0
  6  7  1  0  0  0  0
 10  9  1  1  0  0  0
 10  6  1  0  0  0  0
 11  9  2  0  0  0  0
 12 13  1  0  0  0  0
 13 18  1  0  0  0  0
 13 14  2  0  0  0  0
 15 17  1  0  0  0  0
 16 14  1  0  0  0  0
 17 16  2  0  0  0  0
 18 20  1  0  0  0  0
 20 19  1  0  0  0  0
 22 31  2  0  0  0  0
 23 28  1  0  0  0  0
 24 32  1  1  0  0  0
 25 24  1  0  0  0  0
 26 25  1  0  0  0  0
 27 29  1  0  0  0  0
 28 26  1  0  0  0  0
 28 27  2  0  0  0  0
 29 24  1  0  0  0  0
 30 21  1  6  0  0  0
 30 23  1  0  0  0  0
 30 31  1  0  0  0  0
 31 26  1  0  0  0  0
 32 33  1  0  0  0  0
 33 34  1  0  0  0  0
M  END
>  <MODEL>
4

>  <REMARK>
 VINA RESULT:      -5.2      8.356     13.684
  Name = 
  6 active torsions:
  status: ('A' for Active; 'I' for Inactive)
    1  A    between atoms: O_3  and  C_24
    2  A    between atoms: O_3  and  C_25
    3  A    between atoms: C_7  and  C_11
    4  A    between atoms: C_8  and  C_18
    5  A    between atoms: C_11  and  C_15
    6  A    between atoms: C_18  and  C_30
                            x       y       z     vdW  Elec       q    Type
                         _______ _______ _______ _____ _____    ______ ____

>  <TORSDO>
F 6

$$$$
=
 OpenBabel11062409483D

 34 38  0  0  1  0  0  0  0  0999 V2000
  160.9400  213.2690  139.0800 C   0  0  1  0  0  3  0  0  0  0  0  0
  158.1620  211.5160  137.2830 C   0  0  0  0  0  3  0  0  0  0  0  0
  160.4310  210.9830  137.4270 O   0  0  0  0  0  0  0  0  0  0  0  0
  161.6760  213.6250  141.5130 C   0  0  2  0  0  3  0  0  0  0  0  0
  161.2180  214.2760  140.2060 C   0  0  0  0  0  2  0  0  0  0  0  0
  162.3150  211.5200  140.2760 N   0  0  0  0  0  0  0  0  0  0  0  0
  161.2000  210.7100  140.7640 C   0  0  0  0  0  1  0  0  0  0  0  0
  162.7100  212.5060  141.2900 C   0  0  0  0  0  2  0  0  0  0  0  0
  161.7340  211.1840  137.9000 C   0  0  0  0  0  0  0  0  0  0  0  0
  162.0210  212.1790  138.9910 C   0  0  1  0  0  3  0  0  0  0  0  0
  162.6770  210.5020  137.4200 O   0  0  0  0  0  0  0  0  0  0  0  0
  156.9320  212.3080  137.5730 C   0  0  0  0  0  2  0  0  0  0  0  0
  156.4770  212.1180  138.9870 C   0  0  0  0  0  0  0  0  0  0  0  0
  157.2390  212.4990  140.0100 C   0  0  0  0  0  3  0  0  0  0  0  0
  159.3330  211.7200  137.8880 C   0  0  0  0  0  0  0  0  0  0  0  0
  158.6180  213.0150  139.9100 C   0  0  0  0  0  3  0  0  0  0  0  0
  159.5390  212.7140  138.9770 C   0  0  0  0  0  0  0  0  0  0  0  0
  155.2140  211.5860  139.2650 O   0  0  0  0  0  0  0  0  0  0  0  0
  155.5240  209.1950  139.2560 C   0  0  0  0  0  1  0  0  0  0  0  0
  154.7420  210.3700  138.6980 C   0  0  0  0  0  2  0  0  0  0  0  0
  160.4940  213.1970  142.3860 C   0  0  0  0  0  2  0  0  0  0  0  0
  161.7740  214.0880  145.0320 O   0  0  0  0  0  0  0  0  0  0  0  0
  158.4730  214.2460  143.5400 C   0  0  0  0  0  2  0  0  0  0  0  0
  158.3470  214.0710  147.8290 C   0  0  1  0  0  3  0  0  0  0  0  0
  159.6530  213.6750  147.1270 C   0  0  0  0  0  2  0  0  0  0  0  0
  159.5250  213.9280  145.6960 N   0  0  0  0  0  0  0  0  0  0  0  0
  157.1330  213.8400  145.6270 C   0  0  0  0  0  3  0  0  0  0  0  0
  158.2970  213.9770  144.9980 C   0  0  0  0  0  0  0  0  0  0  0  0
  157.1140  213.5100  147.0980 C   0  0  0  0  0  2  0  0  0  0  0  0
  160.0070  214.2780  143.3570 C   0  0  1  0  0  3  0  0  0  0  0  0
  160.5490  214.0880  144.7400 C   0  0  0  0  0  0  0  0  0  0  0  0
  158.3500  213.6910  149.3100 C   0  0  0  0  0  2  0  0  0  0  0  0
  157.0440  214.0260  150.0220 C   0  0  0  0  0  2  0  0  0  0  0  0
  157.2580  214.0950  151.4570 N   0  0  0  0  0  1  0  0  0  0  0  0
  1  5  1  1  0  0  0
  2 12  1  0  0  0  0
  2 15  2  0  0  0  0
  3 15  1  0  0  0  0
  3  9  1  0  0  0  0
  4 21  1  6  0  0  0
  5  4  1  0  0  0  0
  6  7  1  0  0  0  0
  6  8  1  0  0  0  0
  8  4  1  0  0  0  0
 10  9  1  6  0  0  0
 10  1  1  0  0  0  0
 10  6  1  0  0  0  0
 11  9  2  0  0  0  0
 12 13  1  0  0  0  0
 13 18  1  0  0  0  0
 13 14  2  0  0  0  0
 15 17  1  0  0  0  0
 16 14  1  0  0  0  0
 17  1  1  0  0  0  0
 17 16  2  0  0  0  0
 20 19  1  0  0  0  0
 20 18  1  0  0  0  0
 23 28  1  0  0  0  0
 24 32  1  1  0  0  0
 25 24  1  0  0  0  0
 26 25  1  0  0  0  0
 27 29  1  0  0  0  0
 28 27  2  0  0  0  0
 28 26  1  0  0  0  0
 29 24  1  0  0  0  0
 30 21  1  6  0  0  0
 30 23  1  0  0  0  0
 30 31  1  0  0  0  0
 31 22  2  0  0  0  0
 31 26  1  0  0  0  0
 32 33  1  0  0  0  0
 33 34  1  0  0  0  0
M  END
>  <MODEL>
5

>  <REMARK>
 VINA RESULT:      -4.5      8.017     13.274
  Name = 
  6 active torsions:
  status: ('A' for Active; 'I' for Inactive)
    1  A    between atoms: O_3  and  C_24
    2  A    between atoms: O_3  and  C_25
    3  A    between atoms: C_7  and  C_11
    4  A    between atoms: C_8  and  C_18
    5  A    between atoms: C_11  and  C_15
    6  A    between atoms: C_18  and  C_30
                            x       y       z     vdW  Elec       q    Type
                         _______ _______ _______ _____ _____    ______ ____

>  <TORSDO>
F 6

$$$$
=
 OpenBabel11062409483D

 34 38  0  0  1  0  0  0  0  0999 V2000
  159.5980  210.1100  154.4130 C   0  0  1  0  0  3  0  0  0  0  0  0
  159.1670  213.6210  153.1870 C   0  0  0  0  0  3  0  0  0  0  0  0
  160.0330  212.8290  155.2060 O   0  0  0  0  0  0  0  0  0  0  0  0
  161.1120  208.1060  153.8840 C   0  0  2  0  0  3  0  0  0  0  0  0
  159.6840  208.6540  153.9320 C   0  0  0  0  0  2  0  0  0  0  0  0
  161.8950  209.9260  155.4470 N   0  0  0  0  0  0  0  0  0  0  0  0
  162.6160  210.6980  154.4360 C   0  0  0  0  0  1  0  0  0  0  0  0
  161.9400  208.4940  155.1220 C   0  0  0  0  0  2  0  0  0  0  0  0
  160.4310  211.8110  156.0810 C   0  0  0  0  0  0  0  0  0  0  0  0
  160.5040  210.3790  155.6260 C   0  0  1  0  0  3  0  0  0  0  0  0
  160.7570  212.1020  157.2610 O   0  0  0  0  0  0  0  0  0  0  0  0
  158.5850  213.5020  151.8190 C   0  0  0  0  0  2  0  0  0  0  0  0
  159.5990  213.0130  150.8320 C   0  0  0  0  0  0  0  0  0  0  0  0
  160.1470  211.8050  150.9520 C   0  0  0  0  0  3  0  0  0  0  0  0
  159.6300  212.5850  153.8880 C   0  0  0  0  0  0  0  0  0  0  0  0
  159.9450  210.8770  152.0820 C   0  0  0  0  0  3  0  0  0  0  0  0
  159.6870  211.1920  153.3630 C   0  0  0  0  0  0  0  0  0  0  0  0
  159.9530  213.7930  149.7260 O   0  0  0  0  0  0  0  0  0  0  0  0
  160.7520  213.3640  147.4920 C   0  0  0  0  0  1  0  0  0  0  0  0
  161.1220  213.5550  148.9510 C   0  0  0  0  0  2  0  0  0  0  0  0
  161.8080  208.4310  152.5600 C   0  0  0  0  0  2  0  0  0  0  0  0
  160.4030  205.7980  151.8340 O   0  0  0  0  0  0  0  0  0  0  0  0
  161.5860  208.7140  150.0320 C   0  0  0  0  0  2  0  0  0  0  0  0
  161.6550  205.1470  147.6410 C   0  0  1  0  0  3  0  0  0  0  0  0
  161.5350  204.9950  149.1640 C   0  0  0  0  0  2  0  0  0  0  0  0
  161.4000  206.3150  149.7690 N   0  0  0  0  0  0  0  0  0  0  0  0
  162.4110  207.5330  147.9730 C   0  0  0  0  0  3  0  0  0  0  0  0
  161.8540  207.5170  149.1800 C   0  0  0  0  0  0  0  0  0  0  0  0
  162.6740  206.2340  147.2550 C   0  0  0  0  0  2  0  0  0  0  0  0
  160.9680  208.1170  151.3170 C   0  0  1  0  0  3  0  0  0  0  0  0
  160.8870  206.6480  151.0400 C   0  0  0  0  0  0  0  0  0  0  0  0
  161.9540  203.8160  146.9510 C   0  0  0  0  0  2  0  0  0  0  0  0
  162.0230  203.9260  145.4320 C   0  0  0  0  0  2  0  0  0  0  0  0
  160.7850  204.4770  144.9100 N   0  0  0  0  0  1  0  0  0  0  0  0
  1  5  1  6  0  0  0
  1 10  1  0  0  0  0
  2 15  2  0  0  0  0
  3  9  1  0  0  0  0
  4 21  1  6  0  0  0
  4  5  1  0  0  0  0
  4  8  1  0  0  0  0
  6 10  1  0  0  0  0
  7  6  1  0  0  0  0
  8  6  1  0  0  0  0
  9 11  2  0  0  0  0
 10  9  1  6  0  0  0
 12  2  1  0  0  0  0
 13 14  2  0  0  0  0
 13 12  1  0  0  0  0
 14 16  1  0  0  0  0
 15  3  1  0  0  0  0
 16 17  2  0  0  0  0
 17 15  1  0  0  0  0
 17  1  1  0  0  0  0
 18 13  1  0  0  0  0
 19 20  1  0  0  0  0
 20 18  1  0  0  0  0
 23 30  1  0  0  0  0
 24 32  1  6  0  0  0
 24 25  1  0  0  0  0
 25 26  1  0  0  0  0
 26 31  1  0  0  0  0
 27 28  2  0  0  0  0
 28 26  1  0  0  0  0
 28 23  1  0  0  0  0
 29 24  1  0  0  0  0
 29 27  1  0  0  0  0
 30 21  1  1  0  0  0
 31 30  1  0  0  0  0
 31 22  2  0  0  0  0
 33 32  1  0  0  0  0
 34 33  1  0  0  0  0
M  END
>  <MODEL>
6

>  <REMARK>
 VINA RESULT:      -4.2      1.449      1.913
  Name = 
  6 active torsions:
  status: ('A' for Active; 'I' for Inactive)
    1  A    between atoms: O_3  and  C_24
    2  A    between atoms: O_3  and  C_25
    3  A    between atoms: C_7  and  C_11
    4  A    between atoms: C_8  and  C_18
    5  A    between atoms: C_11  and  C_15
    6  A    between atoms: C_18  and  C_30
                            x       y       z     vdW  Elec       q    Type
                         _______ _______ _______ _____ _____    ______ ____

>  <TORSDO>
F 6

$$$$
=
 OpenBabel11062409483D

 34 38  0  0  1  0  0  0  0  0999 V2000
  161.6280  212.0670  138.0910 C   0  0  1  0  0  3  0  0  0  0  0  0
  158.1740  211.1060  137.0140 C   0  0  0  0  0  3  0  0  0  0  0  0
  160.1040  209.8050  137.2100 O   0  0  0  0  0  0  0  0  0  0  0  0
  162.8010  212.7290  140.2760 C   0  0  2  0  0  3  0  0  0  0  0  0
  162.4100  213.1450  138.8560 C   0  0  0  0  0  2  0  0  0  0  0  0
  162.4630  210.2980  139.6890 N   0  0  0  0  0  0  0  0  0  0  0  0
  161.2220  210.1280  140.4430 C   0  0  0  0  0  1  0  0  0  0  0  0
  163.3280  211.2850  140.3490 C   0  0  0  0  0  2  0  0  0  0  0  0
  161.4500  209.6090  137.5450 C   0  0  0  0  0  0  0  0  0  0  0  0
  162.2300  210.6640  138.2810 C   0  0  1  0  0  3  0  0  0  0  0  0
  162.0080  208.5220  137.2480 O   0  0  0  0  0  0  0  0  0  0  0  0
  157.3600  212.3520  137.1100 C   0  0  0  0  0  2  0  0  0  0  0  0
  157.0860  212.7190  138.5350 C   0  0  0  0  0  0  0  0  0  0  0  0
  158.0790  213.0310  139.3670 C   0  0  0  0  0  3  0  0  0  0  0  0
  159.4190  210.9960  137.4800 C   0  0  0  0  0  0  0  0  0  0  0  0
  159.5200  212.9390  139.0590 C   0  0  0  0  0  3  0  0  0  0  0  0
  160.1230  212.0810  138.2170 C   0  0  0  0  0  0  0  0  0  0  0  0
  155.7740  212.7990  139.0130 O   0  0  0  0  0  0  0  0  0  0  0  0
  153.5320  212.6620  138.1360 C   0  0  0  0  0  1  0  0  0  0  0  0
  154.7520  213.5370  138.3550 C   0  0  0  0  0  2  0  0  0  0  0  0
  161.6900  213.0230  141.2880 C   0  0  0  0  0  2  0  0  0  0  0  0
  159.5370  211.7170  143.0460 O   0  0  0  0  0  0  0  0  0  0  0  0
  162.8650  213.0650  143.5540 C   0  0  0  0  0  2  0  0  0  0  0  0
  160.3890  213.4030  147.0460 C   0  0  1  0  0  3  0  0  0  0  0  0
  159.7060  213.1270  145.6990 C   0  0  0  0  0  2  0  0  0  0  0  0
  160.7260  212.9220  144.6770 N   0  0  0  0  0  0  0  0  0  0  0  0
  162.4730  214.1070  145.8070 C   0  0  0  0  0  3  0  0  0  0  0  0
  162.0440  213.4270  144.7470 C   0  0  0  0  0  0  0  0  0  0  0  0
  161.5090  214.4510  146.9130 C   0  0  0  0  0  2  0  0  0  0  0  0
  161.8680  212.3200  142.6370 C   0  0  1  0  0  3  0  0  0  0  0  0
  160.5980  212.2770  143.4300 C   0  0  0  0  0  0  0  0  0  0  0  0
  159.3840  213.7810  148.1350 C   0  0  0  0  0  2  0  0  0  0  0  0
  158.0920  212.9750  148.0700 C   0  0  0  0  0  2  0  0  0  0  0  0
  156.9570  213.8160  148.4070 N   0  0  0  0  0  1  0  0  0  0  0  0
  1 17  1  0  0  0  0
  1 10  1  0  0  0  0
  1  5  1  1  0  0  0
  2 12  1  0  0  0  0
  2 15  2  0  0  0  0
  3 15  1  0  0  0  0
  3  9  1  0  0  0  0
  4  8  1  0  0  0  0
  4 21  1  1  0  0  0
  5  4  1  0  0  0  0
  6  8  1  0  0  0  0
  6  7  1  0  0  0  0
 10  9  1  1  0  0  0
 10  6  1  0  0  0  0
 11  9  2  0  0  0  0
 12 13  1  0  0  0  0
 13 18  1  0  0  0  0
 13 14  2  0  0  0  0
 15 17  1  0  0  0  0
 16 14  1  0  0  0  0
 17 16  2  0  0  0  0
 19 20  1  0  0  0  0
 20 18  1  0  0  0  0
 22 31  2  0  0  0  0
 23 28  1  0  0  0  0
 24 32  1  1  0  0  0
 25 24  1  0  0  0  0
 26 28  1  0  0  0  0
 26 25  1  0  0  0  0
 27 29  1  0  0  0  0
 28 27  2  0  0  0  0
 29 24  1  0  0  0  0
 30 21  1  6  0  0  0
 30 31  1  0  0  0  0
 30 23  1  0  0  0  0
 31 26  1  0  0  0  0
 33 32  1  0  0  0  0
 33 34  1  0  0  0  0
M  END
>  <MODEL>
7

>  <REMARK>
 VINA RESULT:      -4.2      8.509     13.505
  Name = 
  6 active torsions:
  status: ('A' for Active; 'I' for Inactive)
    1  A    between atoms: O_3  and  C_24
    2  A    between atoms: O_3  and  C_25
    3  A    between atoms: C_7  and  C_11
    4  A    between atoms: C_8  and  C_18
    5  A    between atoms: C_11  and  C_15
    6  A    between atoms: C_18  and  C_30
                            x       y       z     vdW  Elec       q    Type
                         _______ _______ _______ _____ _____    ______ ____

>  <TORSDO>
F 6

$$$$
=
 OpenBabel11062409483D

 34 38  0  0  1  0  0  0  0  0999 V2000
  162.4550  204.6080  151.2720 C   0  0  1  0  0  3  0  0  0  0  0  0
  161.5770  203.9070  147.7000 C   0  0  0  0  0  3  0  0  0  0  0  0
  161.1450  202.6600  149.6270 O   0  0  0  0  0  0  0  0  0  0  0  0
  161.7050  206.2370  153.1070 C   0  0  2  0  0  3  0  0  0  0  0  0
  162.8550  205.7410  152.2270 C   0  0  0  0  0  2  0  0  0  0  0  0
  160.4220  204.1060  152.6830 N   0  0  0  0  0  0  0  0  0  0  0  0
  159.4260  204.7010  151.7920 C   0  0  0  0  0  1  0  0  0  0  0  0
  160.8590  205.0880  153.6840 C   0  0  0  0  0  2  0  0  0  0  0  0
  161.1710  202.4510  151.0110 C   0  0  0  0  0  0  0  0  0  0  0  0
  161.5760  203.5480  151.9570 C   0  0  1  0  0  3  0  0  0  0  0  0
  160.8260  201.3320  151.4730 O   0  0  0  0  0  0  0  0  0  0  0  0
  162.0920  205.0710  146.9220 C   0  0  0  0  0  2  0  0  0  0  0  0
  161.2610  206.2950  147.1510 C   0  0  0  0  0  0  0  0  0  0  0  0
  161.1730  206.8500  148.3580 C   0  0  0  0  0  3  0  0  0  0  0  0
  161.5390  203.8650  149.0330 C   0  0  0  0  0  0  0  0  0  0  0  0
  161.7430  206.2970  149.6030 C   0  0  0  0  0  3  0  0  0  0  0  0
  161.9420  205.0020  149.9070 C   0  0  0  0  0  0  0  0  0  0  0  0
  160.6010  206.9190  146.0870 O   0  0  0  0  0  0  0  0  0  0  0  0
  161.2070  205.7090  144.0910 C   0  0  0  0  0  1  0  0  0  0  0  0
  160.0770  206.2060  144.9740 C   0  0  0  0  0  2  0  0  0  0  0  0
  160.8720  207.3160  152.4100 C   0  0  0  0  0  2  0  0  0  0  0  0
  161.2050  208.4030  155.2640 O   0  0  0  0  0  0  0  0  0  0  0  0
  160.4570  209.8020  152.0030 C   0  0  0  0  0  2  0  0  0  0  0  0
  158.7100  212.0550  155.2140 C   0  0  1  0  0  3  0  0  0  0  0  0
  159.1970  210.6300  155.5120 C   0  0  0  0  0  2  0  0  0  0  0  0
  159.8670  210.0950  154.3320 N   0  0  0  0  0  0  0  0  0  0  0  0
  158.7910  211.5310  152.7460 C   0  0  0  0  0  3  0  0  0  0  0  0
  159.6320  210.5350  153.0100 C   0  0  0  0  0  0  0  0  0  0  0  0
  157.9800  212.1370  153.8620 C   0  0  0  0  0  2  0  0  0  0  0  0
  161.2080  208.7460  152.8460 C   0  0  1  0  0  3  0  0  0  0  0  0
  160.7840  209.0270  154.2540 C   0  0  0  0  0  0  0  0  0  0  0  0
  157.8630  212.6240  156.3530 C   0  0  0  0  0  2  0  0  0  0  0  0
  156.3890  212.7740  155.9930 C   0  0  0  0  0  2  0  0  0  0  0  0
  155.5830  211.8560  156.7790 N   0  0  0  0  0  1  0  0  0  0  0  0
  1 10  1  0  0  0  0
  1  5  1  1  0  0  0
  2 15  2  0  0  0  0
  3  9  1  0  0  0  0
  4 21  1  6  0  0  0
  4  8  1  0  0  0  0
  5  4  1  0  0  0  0
  6  8  1  0  0  0  0
  7  6  1  0  0  0  0
  9 11  2  0  0  0  0
 10  9  1  6  0  0  0
 10  6  1  0  0  0  0
 12 13  1  0  0  0  0
 12  2  1  0  0  0  0
 13 14  2  0  0  0  0
 14 16  1  0  0  0  0
 15  3  1  0  0  0  0
 15 17  1  0  0  0  0
 16 17  2  0  0  0  0
 17  1  1  0  0  0  0
 18 13  1  0  0  0  0
 19 20  1  0  0  0  0
 20 18  1  0  0  0  0
 23 30  1  0  0  0  0
 23 28  1  0  0  0  0
 24 25  1  0  0  0  0
 24 32  1  1  0  0  0
 26 25  1  0  0  0  0
 27 28  2  0  0  0  0
 27 29  1  0  0  0  0
 28 26  1  0  0  0  0
 29 24  1  0  0  0  0
 30 21  1  6  0  0  0
 30 31  1  0  0  0  0
 31 26  1  0  0  0  0
 31 22  2  0  0  0  0
 33 32  1  0  0  0  0
 33 34  1  0  0  0  0
M  END
>  <MODEL>
8

>  <REMARK>
 VINA RESULT:      -4.0      2.986      8.740
  Name = 
  6 active torsions:
  status: ('A' for Active; 'I' for Inactive)
    1  A    between atoms: O_3  and  C_24
    2  A    between atoms: O_3  and  C_25
    3  A    between atoms: C_7  and  C_11
    4  A    between atoms: C_8  and  C_18
    5  A    between atoms: C_11  and  C_15
    6  A    between atoms: C_18  and  C_30
                            x       y       z     vdW  Elec       q    Type
                         _______ _______ _______ _____ _____    ______ ____

>  <TORSDO>
F 6

$$$$
