=
 OpenBabel11052422203D

 25 28  0  0  1  0  0  0  0  0999 V2000
  161.0020  204.6690  147.5580 C   0  0  0  0  0  0  0  0  0  0  0  0
  160.9500  204.1920  148.8850 C   0  0  0  0  0  0  0  0  0  0  0  0
  161.2310  202.4500  146.6640 C   0  0  0  0  0  3  0  0  0  0  0  0
  160.9350  206.0840  147.0860 C   0  0  2  0  0  3  0  0  0  0  0  0
  161.1190  205.1330  151.2430 C   0  0  0  0  0  0  0  0  0  0  0  0
  161.1790  201.9370  147.9610 C   0  0  0  0  0  3  0  0  0  0  0  0
  161.0450  206.0050  145.5450 C   0  0  1  0  0  3  0  0  0  0  0  0
  162.3690  205.4180  145.0700 C   0  0  0  0  0  2  0  0  0  0  0  0
  160.9360  202.0810  150.4050 C   0  0  0  0  0  0  0  0  0  0  0  0
  161.0430  200.8250  150.4560 O   0  0  0  0  0  0  0  0  0  0  0  0
  160.8120  205.2210  149.9470 C   0  0  0  0  0  3  0  0  0  0  0  0
  161.1380  203.8230  146.4880 C   0  0  0  0  0  0  0  0  0  0  0  0
  161.1510  204.5190  145.1770 C   0  0  1  0  0  3  0  0  0  0  0  0
  160.6920  202.7880  151.6920 C   0  0  0  0  0  2  0  0  0  0  0  0
  161.6890  203.9060  151.8550 C   0  0  0  0  0  2  0  0  0  0  0  0
  161.0320  202.7740  149.0890 C   0  0  0  0  0  0  0  0  0  0  0  0
  160.8920  206.3220  152.1180 C   0  0  0  0  0  2  0  0  0  0  0  0
  162.9870  207.1260  151.2450 N   0  0  0  0  0  2  0  0  0  0  0  0
  161.8560  207.4220  151.7940 C   0  0  0  0  0  0  0  0  0  0  0  0
  161.4840  208.8310  151.9940 C   0  0  0  0  0  0  0  0  0  0  0  0
  162.4230  209.8370  151.7900 O   0  0  0  0  0  0  0  0  0  0  0  0
  160.3200  209.1390  152.3570 O   0  0  0  0  0  1  0  0  0  0  0  0
  162.0530  206.9380  147.6780 C   0  0  0  0  0  2  0  0  0  0  0  0
  162.5040  209.1230  148.5170 O   0  0  0  0  0  1  0  0  0  0  0  0
  161.4800  208.2040  148.2930 C   0  0  0  0  0  2  0  0  0  0  0  0
  1  2  1  0  0  0  0
  2 16  2  0  0  0  0
  2 11  1  0  0  0  0
  3  6  2  0  0  0  0
  4  1  1  0  0  0  0
  4 23  1  1  0  0  0
  5 15  1  0  0  0  0
  5 17  1  0  0  0  0
  6 16  1  0  0  0  0
  7  8  1  1  0  0  0
  7  4  1  0  0  0  0
  9 10  2  0  0  0  0
  9 14  1  0  0  0  0
 11  5  2  0  0  0  0
 12  3  1  0  0  0  0
 12  1  2  0  0  0  0
 13  8  1  1  0  0  0
 13  7  1  0  0  0  0
 13 12  1  0  0  0  0
 14 15  1  0  0  0  0
 16  9  1  0  0  0  0
 18 19  2  0  0  0  0
 19 20  1  0  0  0  0
 19 17  1  0  0  0  0
 20 22  1  0  0  0  0
 21 20  2  0  0  0  0
 23 25  1  0  0  0  0
 25 24  1  0  0  0  0
M  END
>  <MODEL>
1

>  <REMARK>
 VINA RESULT:      -9.3      0.000      0.000
  Name = 
  5 active torsions:
  status: ('A' for Active; 'I' for Inactive)
    1  A    between atoms: C_2  and  CA_25
    2  A    between atoms: C_5  and  C_22
    3  A    between atoms: C_6  and  C_15
    4  A    between atoms: C_15  and  CA_25
    5  A    between atoms: C_17  and  C_22
                            x       y       z     vdW  Elec       q    Type
                         _______ _______ _______ _____ _____    ______ ____

>  <TORSDO>
F 5

$$$$
=
 OpenBabel11052422203D

 25 28  0  0  1  0  0  0  0  0999 V2000
  160.9440  204.5460  150.5640 C   0  0  0  0  0  0  0  0  0  0  0  0
  161.2000  205.7670  149.9060 C   0  0  0  0  0  0  0  0  0  0  0  0
  161.6090  205.4420  152.6940 C   0  0  0  0  0  3  0  0  0  0  0  0
  160.4520  203.2670  149.9730 C   0  0  2  0  0  3  0  0  0  0  0  0
  161.4450  206.6160  147.5190 C   0  0  0  0  0  0  0  0  0  0  0  0
  161.8690  206.6680  152.0800 C   0  0  0  0  0  3  0  0  0  0  0  0
  160.3640  202.2760  151.1580 C   0  0  1  0  0  3  0  0  0  0  0  0
  161.7160  202.0000  151.8060 C   0  0  0  0  0  2  0  0  0  0  0  0
  161.9380  208.2450  150.1930 C   0  0  0  0  0  0  0  0  0  0  0  0
  162.3700  209.1250  150.9880 O   0  0  0  0  0  0  0  0  0  0  0  0
  160.9500  205.7880  148.4410 C   0  0  0  0  0  3  0  0  0  0  0  0
  161.1430  204.3940  151.9130 C   0  0  0  0  0  0  0  0  0  0  0  0
  160.7960  203.0420  152.4160 C   0  0  1  0  0  3  0  0  0  0  0  0
  161.7000  208.6680  148.7860 C   0  0  0  0  0  2  0  0  0  0  0  0
  162.3900  207.7140  147.8450 C   0  0  0  0  0  2  0  0  0  0  0  0
  161.6700  206.8680  150.6970 C   0  0  0  0  0  0  0  0  0  0  0  0
  161.0440  206.4260  146.0930 C   0  0  0  0  0  2  0  0  0  0  0  0
  162.9800  205.0930  145.5720 N   0  0  0  0  0  2  0  0  0  0  0  0
  161.6950  205.2120  145.5060 C   0  0  0  0  0  0  0  0  0  0  0  0
  160.8850  204.1140  144.9580 C   0  0  0  0  0  0  0  0  0  0  0  0
  161.1710  202.7960  145.3000 O   0  0  0  0  0  1  0  0  0  0  0  0
  159.9330  204.3540  144.1710 O   0  0  0  0  0  0  0  0  0  0  0  0
  161.3830  202.7460  148.8820 C   0  0  0  0  0  2  0  0  0  0  0  0
  161.5750  200.4360  148.3250 O   0  0  0  0  0  1  0  0  0  0  0  0
  160.7560  201.5550  148.1780 C   0  0  0  0  0  2  0  0  0  0  0  0
  1 12  1  0  0  0  0
  2  1  2  0  0  0  0
  2 16  1  0  0  0  0
  4 23  1  6  0  0  0
  4  1  1  0  0  0  0
  4  7  1  0  0  0  0
  5 15  1  0  0  0  0
  5 11  2  0  0  0  0
  6  3  1  0  0  0  0
  7  8  1  6  0  0  0
  7 13  1  0  0  0  0
  9 16  1  0  0  0  0
  9 10  2  0  0  0  0
 11  2  1  0  0  0  0
 12 13  1  0  0  0  0
 12  3  2  0  0  0  0
 13  8  1  6  0  0  0
 14  9  1  0  0  0  0
 15 14  1  0  0  0  0
 16  6  2  0  0  0  0
 17  5  1  0  0  0  0
 19 18  2  0  0  0  0
 19 17  1  0  0  0  0
 20 21  1  0  0  0  0
 20 19  1  0  0  0  0
 22 20  2  0  0  0  0
 25 24  1  0  0  0  0
 25 23  1  0  0  0  0
M  END
>  <MODEL>
2

>  <REMARK>
 VINA RESULT:      -9.2      2.367      6.447
  Name = 
  5 active torsions:
  status: ('A' for Active; 'I' for Inactive)
    1  A    between atoms: C_2  and  CA_25
    2  A    between atoms: C_5  and  C_22
    3  A    between atoms: C_6  and  C_15
    4  A    between atoms: C_15  and  CA_25
    5  A    between atoms: C_17  and  C_22
                            x       y       z     vdW  Elec       q    Type
                         _______ _______ _______ _____ _____    ______ ____

>  <TORSDO>
F 5

$$$$
=
 OpenBabel11052422203D

 25 28  0  0  1  0  0  0  0  0999 V2000
  161.5890  205.1850  150.4740 C   0  0  0  0  0  0  0  0  0  0  0  0
  161.3790  203.9610  149.8050 C   0  0  0  0  0  0  0  0  0  0  0  0
  160.9690  204.2430  152.5980 C   0  0  0  0  0  3  0  0  0  0  0  0
  162.0260  206.4880  149.8940 C   0  0  2  0  0  3  0  0  0  0  0  0
  161.1600  203.1260  147.4110 C   0  0  0  0  0  0  0  0  0  0  0  0
  160.7560  203.0120  151.9730 C   0  0  0  0  0  3  0  0  0  0  0  0
  162.0770  207.4710  151.0880 C   0  0  1  0  0  3  0  0  0  0  0  0
  160.7180  207.6850  151.7440 C   0  0  0  0  0  2  0  0  0  0  0  0
  160.7440  201.4520  150.0710 C   0  0  0  0  0  0  0  0  0  0  0  0
  160.3520  200.5480  150.8590 O   0  0  0  0  0  0  0  0  0  0  0  0
  161.6240  203.9640  148.3390 C   0  0  0  0  0  3  0  0  0  0  0  0
  161.3890  205.3160  151.8250 C   0  0  0  0  0  0  0  0  0  0  0  0
  161.6820  206.6760  152.3400 C   0  0  1  0  0  3  0  0  0  0  0  0
  160.9930  201.0530  148.6590 C   0  0  0  0  0  2  0  0  0  0  0  0
  160.2610  201.9870  147.7300 C   0  0  0  0  0  2  0  0  0  0  0  0
  160.9580  202.8340  150.5870 C   0  0  0  0  0  0  0  0  0  0  0  0
  161.5470  203.3450  145.9850 C   0  0  0  0  0  2  0  0  0  0  0  0
  163.0560  205.2130  146.1740 N   0  0  0  0  0  2  0  0  0  0  0  0
  161.9190  204.7760  145.7410 C   0  0  0  0  0  0  0  0  0  0  0  0
  161.0600  205.6490  144.9280 C   0  0  0  0  0  0  0  0  0  0  0  0
  161.3290  205.8310  143.5750 O   0  0  0  0  0  0  0  0  0  0  0  0
  160.0800  206.2430  145.4470 O   0  0  0  0  0  1  0  0  0  0  0  0
  161.0700  206.9820  148.8110 C   0  0  0  0  0  2  0  0  0  0  0  0
  161.7430  209.2490  148.5140 O   0  0  0  0  0  1  0  0  0  0  0  0
  161.7640  207.9910  147.9140 C   0  0  0  0  0  2  0  0  0  0  0  0
  1 12  1  0  0  0  0
  2  1  2  0  0  0  0
  2 16  1  0  0  0  0
  4 23  1  6  0  0  0
  4  1  1  0  0  0  0
  4  7  1  0  0  0  0
  5 15  1  0  0  0  0
  5 11  2  0  0  0  0
  6  3  1  0  0  0  0
  7  8  1  6  0  0  0
  7 13  1  0  0  0  0
  9 16  1  0  0  0  0
  9 10  2  0  0  0  0
 11  2  1  0  0  0  0
 12 13  1  0  0  0  0
 12  3  2  0  0  0  0
 13  8  1  6  0  0  0
 14  9  1  0  0  0  0
 15 14  1  0  0  0  0
 16  6  2  0  0  0  0
 17  5  1  0  0  0  0
 19 17  1  0  0  0  0
 19 18  2  0  0  0  0
 20 22  1  0  0  0  0
 20 19  1  0  0  0  0
 21 20  2  0  0  0  0
 25 24  1  0  0  0  0
 25 23  1  0  0  0  0
M  END
>  <MODEL>
3

>  <REMARK>
 VINA RESULT:      -8.9      2.097      5.040
  Name = 
  5 active torsions:
  status: ('A' for Active; 'I' for Inactive)
    1  A    between atoms: C_2  and  CA_25
    2  A    between atoms: C_5  and  C_22
    3  A    between atoms: C_6  and  C_15
    4  A    between atoms: C_15  and  CA_25
    5  A    between atoms: C_17  and  C_22
                            x       y       z     vdW  Elec       q    Type
                         _______ _______ _______ _____ _____    ______ ____

>  <TORSDO>
F 5

$$$$
=
 OpenBabel11052422203D

 25 28  0  0  1  0  0  0  0  0999 V2000
  160.7160  203.4090  149.6240 C   0  0  0  0  0  0  0  0  0  0  0  0
  160.9570  204.7970  149.7140 C   0  0  0  0  0  0  0  0  0  0  0  0
  161.2160  203.0720  151.9520 C   0  0  0  0  0  3  0  0  0  0  0  0
  160.3150  202.6210  148.4220 C   0  0  2  0  0  3  0  0  0  0  0  0
  161.3040  206.7640  148.1370 C   0  0  0  0  0  0  0  0  0  0  0  0
  161.4580  204.4400  152.0830 C   0  0  0  0  0  3  0  0  0  0  0  0
  160.2020  201.1580  148.9120 C   0  0  1  0  0  3  0  0  0  0  0  0
  161.5240  200.5940  149.4200 C   0  0  0  0  0  2  0  0  0  0  0  0
  161.5690  206.7690  151.2960 C   0  0  0  0  0  0  0  0  0  0  0  0
  161.9150  207.1100  152.4610 O   0  0  0  0  0  0  0  0  0  0  0  0
  160.7920  205.5740  148.4590 C   0  0  0  0  0  3  0  0  0  0  0  0
  160.8420  202.5800  150.7090 C   0  0  0  0  0  0  0  0  0  0  0  0
  160.5260  201.1610  150.4130 C   0  0  1  0  0  3  0  0  0  0  0  0
  161.3950  207.8600  150.2990 C   0  0  0  0  0  2  0  0  0  0  0  0
  162.1800  207.5390  149.0530 C   0  0  0  0  0  2  0  0  0  0  0  0
  161.3310  205.3290  150.9930 C   0  0  0  0  0  0  0  0  0  0  0  0
  160.9950  207.3400  146.7950 C   0  0  0  0  0  2  0  0  0  0  0  0
  159.5090  205.9260  145.5330 N   0  0  0  0  0  2  0  0  0  0  0  0
  160.7310  206.2600  145.7910 C   0  0  0  0  0  0  0  0  0  0  0  0
  161.8320  205.6580  145.0260 C   0  0  0  0  0  0  0  0  0  0  0  0
  161.6860  205.4150  143.6640 O   0  0  0  0  0  0  0  0  0  0  0  0
  162.9110  205.3500  145.5950 O   0  0  0  0  0  1  0  0  0  0  0  0
  161.3300  202.7490  147.2900 C   0  0  0  0  0  2  0  0  0  0  0  0
  160.4900  202.5900  145.0650 O   0  0  0  0  0  1  0  0  0  0  0  0
  160.9550  201.8320  146.1380 C   0  0  0  0  0  2  0  0  0  0  0  0
  1  2  2  0  0  0  0
  1 12  1  0  0  0  0
  2 16  1  0  0  0  0
  3  6  1  0  0  0  0
  4 23  1  6  0  0  0
  4  7  1  0  0  0  0
  4  1  1  0  0  0  0
  5 11  2  0  0  0  0
  5 15  1  0  0  0  0
  7  8  1  6  0  0  0
  7 13  1  0  0  0  0
  9 10  2  0  0  0  0
 11  2  1  0  0  0  0
 12  3  2  0  0  0  0
 13  8  1  6  0  0  0
 13 12  1  0  0  0  0
 14  9  1  0  0  0  0
 15 14  1  0  0  0  0
 16  9  1  0  0  0  0
 16  6  2  0  0  0  0
 17  5  1  0  0  0  0
 18 19  2  0  0  0  0
 19 17  1  0  0  0  0
 20 22  1  0  0  0  0
 20 19  1  0  0  0  0
 21 20  2  0  0  0  0
 24 25  1  0  0  0  0
 25 23  1  0  0  0  0
M  END
>  <MODEL>
4

>  <REMARK>
 VINA RESULT:      -8.7      2.588      5.657
  Name = 
  5 active torsions:
  status: ('A' for Active; 'I' for Inactive)
    1  A    between atoms: C_2  and  CA_25
    2  A    between atoms: C_5  and  C_22
    3  A    between atoms: C_6  and  C_15
    4  A    between atoms: C_15  and  CA_25
    5  A    between atoms: C_17  and  C_22
                            x       y       z     vdW  Elec       q    Type
                         _______ _______ _______ _____ _____    ______ ____

>  <TORSDO>
F 5

$$$$
=
 OpenBabel11052422203D

 25 28  0  0  1  0  0  0  0  0999 V2000
  161.5950  205.7790  151.5120 C   0  0  0  0  0  0  0  0  0  0  0  0
  161.4720  204.9710  150.3620 C   0  0  0  0  0  0  0  0  0  0  0  0
  160.8620  204.0050  152.9590 C   0  0  0  0  0  3  0  0  0  0  0  0
  162.0280  207.2050  151.5920 C   0  0  2  0  0  3  0  0  0  0  0  0
  161.4430  205.2650  147.8350 C   0  0  0  0  0  0  0  0  0  0  0  0
  160.7320  203.1710  151.8470 C   0  0  0  0  0  3  0  0  0  0  0  0
  161.9660  207.5670  153.0950 C   0  0  1  0  0  3  0  0  0  0  0  0
  160.5590  207.4750  153.6740 C   0  0  0  0  0  2  0  0  0  0  0  0
  160.9010  202.5990  149.4600 C   0  0  0  0  0  0  0  0  0  0  0  0
  160.4850  201.4410  149.7430 O   0  0  0  0  0  0  0  0  0  0  0  0
  161.8160  205.6140  149.0680 C   0  0  0  0  0  3  0  0  0  0  0  0
  161.2990  205.3070  152.7650 C   0  0  0  0  0  0  0  0  0  0  0  0
  161.5120  206.3060  153.8420 C   0  0  1  0  0  3  0  0  0  0  0  0
  161.2590  202.8560  148.0390 C   0  0  0  0  0  2  0  0  0  0  0  0
  160.5620  204.1020  147.5570 C   0  0  0  0  0  2  0  0  0  0  0  0
  161.0350  203.6160  150.5420 C   0  0  0  0  0  0  0  0  0  0  0  0
  161.9200  206.0850  146.6810 C   0  0  0  0  0  2  0  0  0  0  0  0
  163.3890  204.5290  145.5770 N   0  0  0  0  0  2  0  0  0  0  0  0
  162.2960  205.2170  145.5200 C   0  0  0  0  0  0  0  0  0  0  0  0
  161.3900  205.0580  144.3740 C   0  0  0  0  0  0  0  0  0  0  0  0
  161.5310  205.8690  143.2530 O   0  0  0  0  0  0  0  0  0  0  0  0
  160.4750  204.1940  144.3990 O   0  0  0  0  0  1  0  0  0  0  0  0
  161.1330  208.1230  150.7640 C   0  0  0  0  0  2  0  0  0  0  0  0
  162.0310  209.0940  148.7810 O   0  0  0  0  0  1  0  0  0  0  0  0
  161.9480  209.2550  150.1630 C   0  0  0  0  0  2  0  0  0  0  0  0
  1  4  1  0  0  0  0
  1 12  1  0  0  0  0
  2 16  1  0  0  0  0
  2  1  2  0  0  0  0
  4 23  1  6  0  0  0
  4  7  1  0  0  0  0
  5 11  2  0  0  0  0
  6  3  1  0  0  0  0
  7  8  1  6  0  0  0
  7 13  1  0  0  0  0
  9 10  2  0  0  0  0
  9 16  1  0  0  0  0
 11  2  1  0  0  0  0
 12  3  2  0  0  0  0
 12 13  1  0  0  0  0
 13  8  1  6  0  0  0
 14  9  1  0  0  0  0
 15  5  1  0  0  0  0
 15 14  1  0  0  0  0
 16  6  2  0  0  0  0
 17  5  1  0  0  0  0
 19 18  2  0  0  0  0
 19 17  1  0  0  0  0
 20 22  1  0  0  0  0
 20 19  1  0  0  0  0
 21 20  2  0  0  0  0
 24 25  1  0  0  0  0
 25 23  1  0  0  0  0
M  END
>  <MODEL>
5

>  <REMARK>
 VINA RESULT:      -8.5      2.480      5.645
  Name = 
  5 active torsions:
  status: ('A' for Active; 'I' for Inactive)
    1  A    between atoms: C_2  and  CA_25
    2  A    between atoms: C_5  and  C_22
    3  A    between atoms: C_6  and  C_15
    4  A    between atoms: C_15  and  CA_25
    5  A    between atoms: C_17  and  C_22
                            x       y       z     vdW  Elec       q    Type
                         _______ _______ _______ _____ _____    ______ ____

>  <TORSDO>
F 5

$$$$
=
 OpenBabel11052422203D

 25 28  0  0  1  0  0  0  0  0999 V2000
  160.8830  204.0050  149.6450 C   0  0  0  0  0  0  0  0  0  0  0  0
  161.1160  205.2380  150.2890 C   0  0  0  0  0  0  0  0  0  0  0  0
  160.7610  202.8220  151.7350 C   0  0  0  0  0  3  0  0  0  0  0  0
  160.7920  203.7350  148.1790 C   0  0  2  0  0  3  0  0  0  0  0  0
  161.8900  207.5810  149.6700 C   0  0  0  0  0  0  0  0  0  0  0  0
  160.9840  204.0230  152.4100 C   0  0  0  0  0  3  0  0  0  0  0  0
  160.5320  202.2150  148.0590 C   0  0  1  0  0  3  0  0  0  0  0  0
  161.6690  201.3680  148.6190 C   0  0  0  0  0  2  0  0  0  0  0  0
  161.3330  206.4530  152.5790 C   0  0  0  0  0  0  0  0  0  0  0  0
  161.3720  206.3260  153.8340 O   0  0  0  0  0  0  0  0  0  0  0  0
  161.2930  206.4180  149.4040 C   0  0  0  0  0  3  0  0  0  0  0  0
  160.7120  202.8400  150.3480 C   0  0  0  0  0  0  0  0  0  0  0  0
  160.4590  201.6580  149.4880 C   0  0  1  0  0  3  0  0  0  0  0  0
  161.4400  207.8360  152.0390 C   0  0  0  0  0  2  0  0  0  0  0  0
  162.5140  207.8870  150.9830 C   0  0  0  0  0  2  0  0  0  0  0  0
  161.1570  205.2450  151.7240 C   0  0  0  0  0  0  0  0  0  0  0  0
  161.9470  208.6210  148.5990 C   0  0  0  0  0  2  0  0  0  0  0  0
  162.0970  210.1360  150.4640 N   0  0  0  0  0  2  0  0  0  0  0  0
  161.9770  209.9990  149.1850 C   0  0  0  0  0  0  0  0  0  0  0  0
  161.9790  211.1860  148.3170 C   0  0  0  0  0  0  0  0  0  0  0  0
  163.1030  212.0040  148.2550 O   0  0  0  0  0  1  0  0  0  0  0  0
  160.9660  211.4770  147.6310 O   0  0  0  0  0  0  0  0  0  0  0  0
  162.0670  204.1390  147.4430 C   0  0  0  0  0  2  0  0  0  0  0  0
  162.3300  205.9010  145.8600 O   0  0  0  0  0  1  0  0  0  0  0  0
  161.7340  204.6560  146.0550 C   0  0  0  0  0  2  0  0  0  0  0  0
  1  2  2  0  0  0  0
  1 12  1  0  0  0  0
  2 16  1  0  0  0  0
  3  6  1  0  0  0  0
  4 23  1  6  0  0  0
  4  1  1  0  0  0  0
  5 15  1  0  0  0  0
  7  4  1  0  0  0  0
  7  8  1  6  0  0  0
  7 13  1  0  0  0  0
  9 10  2  0  0  0  0
 11  5  2  0  0  0  0
 11  2  1  0  0  0  0
 12  3  2  0  0  0  0
 13  8  1  6  0  0  0
 13 12  1  0  0  0  0
 14  9  1  0  0  0  0
 15 14  1  0  0  0  0
 16  6  2  0  0  0  0
 16  9  1  0  0  0  0
 17 19  1  0  0  0  0
 17  5  1  0  0  0  0
 19 18  2  0  0  0  0
 20 19  1  0  0  0  0
 21 20  1  0  0  0  0
 22 20  2  0  0  0  0
 24 25  1  0  0  0  0
 25 23  1  0  0  0  0
M  END
>  <MODEL>
6

>  <REMARK>
 VINA RESULT:      -8.2      2.143      4.209
  Name = 
  5 active torsions:
  status: ('A' for Active; 'I' for Inactive)
    1  A    between atoms: C_2  and  CA_25
    2  A    between atoms: C_5  and  C_22
    3  A    between atoms: C_6  and  C_15
    4  A    between atoms: C_15  and  CA_25
    5  A    between atoms: C_17  and  C_22
                            x       y       z     vdW  Elec       q    Type
                         _______ _______ _______ _____ _____    ______ ____

>  <TORSDO>
F 5

$$$$
=
 OpenBabel11052422203D

 25 28  0  0  1  0  0  0  0  0999 V2000
  161.1690  205.5510  148.6780 C   0  0  0  0  0  0  0  0  0  0  0  0
  161.1180  205.3960  150.0790 C   0  0  0  0  0  0  0  0  0  0  0  0
  161.2060  203.1740  148.3180 C   0  0  0  0  0  3  0  0  0  0  0  0
  161.1960  206.8190  147.8920 C   0  0  2  0  0  3  0  0  0  0  0  0
  161.4200  206.8370  152.1550 C   0  0  0  0  0  0  0  0  0  0  0  0
  161.1510  202.9790  149.6990 C   0  0  0  0  0  3  0  0  0  0  0  0
  161.2570  206.3810  146.4100 C   0  0  1  0  0  3  0  0  0  0  0  0
  162.5200  205.5960  146.0710 C   0  0  0  0  0  2  0  0  0  0  0  0
  160.9870  203.6990  152.0460 C   0  0  0  0  0  0  0  0  0  0  0  0
  161.0000  202.4830  152.3840 O   0  0  0  0  0  0  0  0  0  0  0  0
  161.0860  206.6490  150.8770 C   0  0  0  0  0  3  0  0  0  0  0  0
  161.2110  204.4730  147.8310 C   0  0  0  0  0  0  0  0  0  0  0  0
  161.2410  204.8460  146.3950 C   0  0  1  0  0  3  0  0  0  0  0  0
  160.8310  204.6990  153.1370 C   0  0  0  0  0  2  0  0  0  0  0  0
  161.9140  205.7420  153.0290 C   0  0  0  0  0  2  0  0  0  0  0  0
  161.0980  204.0610  150.6040 C   0  0  0  0  0  0  0  0  0  0  0  0
  161.3080  208.2090  152.7330 C   0  0  0  0  0  2  0  0  0  0  0  0
  160.0780  207.2660  154.5770 N   0  0  0  0  0  2  0  0  0  0  0  0
  160.9290  208.1550  154.1820 C   0  0  0  0  0  0  0  0  0  0  0  0
  161.5900  209.0240  155.1660 C   0  0  0  0  0  0  0  0  0  0  0  0
  161.9560  208.5200  156.4100 O   0  0  0  0  0  1  0  0  0  0  0  0
  161.8250  210.2310  154.8960 O   0  0  0  0  0  0  0  0  0  0  0  0
  162.3900  207.6960  148.2610 C   0  0  0  0  0  2  0  0  0  0  0  0
  162.3300  209.5930  149.7020 O   0  0  0  0  0  1  0  0  0  0  0  0
  161.9500  209.1380  148.4400 C   0  0  0  0  0  2  0  0  0  0  0  0
  1  2  1  0  0  0  0
  2 16  2  0  0  0  0
  2 11  1  0  0  0  0
  3  6  2  0  0  0  0
  4 23  1  1  0  0  0
  4  1  1  0  0  0  0
  5 17  1  0  0  0  0
  5 15  1  0  0  0  0
  6 16  1  0  0  0  0
  7  8  1  1  0  0  0
  7  4  1  0  0  0  0
  9 10  2  0  0  0  0
  9 14  1  0  0  0  0
 11  5  2  0  0  0  0
 12  3  1  0  0  0  0
 12  1  2  0  0  0  0
 13  8  1  1  0  0  0
 13  7  1  0  0  0  0
 13 12  1  0  0  0  0
 15 14  1  0  0  0  0
 16  9  1  0  0  0  0
 17 19  1  0  0  0  0
 19 18  2  0  0  0  0
 19 20  1  0  0  0  0
 20 21  1  0  0  0  0
 22 20  2  0  0  0  0
 23 25  1  0  0  0  0
 25 24  1  0  0  0  0
M  END
>  <MODEL>
7

>  <REMARK>
 VINA RESULT:      -8.2      1.922      2.284
  Name = 
  5 active torsions:
  status: ('A' for Active; 'I' for Inactive)
    1  A    between atoms: C_2  and  CA_25
    2  A    between atoms: C_5  and  C_22
    3  A    between atoms: C_6  and  C_15
    4  A    between atoms: C_15  and  CA_25
    5  A    between atoms: C_17  and  C_22
                            x       y       z     vdW  Elec       q    Type
                         _______ _______ _______ _____ _____    ______ ____

>  <TORSDO>
F 5

$$$$
=
 OpenBabel11052422203D

 25 28  0  0  1  0  0  0  0  0999 V2000
  161.6150  208.1210  152.3940 C   0  0  0  0  0  0  0  0  0  0  0  0
  161.5480  206.9730  151.5760 C   0  0  0  0  0  0  0  0  0  0  0  0
  160.8250  206.9170  154.3190 C   0  0  0  0  0  3  0  0  0  0  0  0
  162.0370  209.5000  152.0110 C   0  0  2  0  0  3  0  0  0  0  0  0
  161.6330  206.4070  149.0970 C   0  0  0  0  0  0  0  0  0  0  0  0
  160.7510  205.7570  153.5450 C   0  0  0  0  0  3  0  0  0  0  0  0
  161.9050  210.3420  153.3020 C   0  0  1  0  0  3  0  0  0  0  0  0
  160.4730  210.4200  153.8200 C   0  0  0  0  0  2  0  0  0  0  0  0
  161.0300  204.4250  151.4960 C   0  0  0  0  0  0  0  0  0  0  0  0
  160.6080  203.4200  152.1320 O   0  0  0  0  0  0  0  0  0  0  0  0
  161.9480  207.1540  150.1570 C   0  0  0  0  0  3  0  0  0  0  0  0
  161.2640  208.0880  153.7190 C   0  0  0  0  0  0  0  0  0  0  0  0
  161.4230  209.3930  154.4090 C   0  0  1  0  0  3  0  0  0  0  0  0
  161.4520  204.2000  150.0860 C   0  0  0  0  0  2  0  0  0  0  0  0
  160.7720  205.2000  149.1870 C   0  0  0  0  0  2  0  0  0  0  0  0
  161.1100  205.7470  152.1800 C   0  0  0  0  0  0  0  0  0  0  0  0
  162.1580  206.8040  147.7560 C   0  0  0  0  0  2  0  0  0  0  0  0
  160.5190  206.3400  146.0550 N   0  0  0  0  0  2  0  0  0  0  0  0
  161.5820  205.9440  146.6740 C   0  0  0  0  0  0  0  0  0  0  0  0
  162.2690  204.7190  146.2400 C   0  0  0  0  0  0  0  0  0  0  0  0
  161.5580  203.5320  146.0980 O   0  0  0  0  0  1  0  0  0  0  0  0
  163.5040  204.7300  146.0000 O   0  0  0  0  0  0  0  0  0  0  0  0
  161.1760  210.0710  150.8870 C   0  0  0  0  0  2  0  0  0  0  0  0
  162.0340  210.2750  148.6730 O   0  0  0  0  0  1  0  0  0  0  0  0
  162.0290  210.8820  149.9280 C   0  0  0  0  0  2  0  0  0  0  0  0
  1 12  1  0  0  0  0
  2 16  1  0  0  0  0
  2  1  2  0  0  0  0
  4 23  1  6  0  0  0
  4  1  1  0  0  0  0
  4  7  1  0  0  0  0
  5 15  1  0  0  0  0
  5 11  2  0  0  0  0
  6  3  1  0  0  0  0
  7  8  1  6  0  0  0
  7 13  1  0  0  0  0
  9 10  2  0  0  0  0
  9 16  1  0  0  0  0
 11  2  1  0  0  0  0
 12  3  2  0  0  0  0
 12 13  1  0  0  0  0
 13  8  1  6  0  0  0
 14  9  1  0  0  0  0
 15 14  1  0  0  0  0
 16  6  2  0  0  0  0
 17  5  1  0  0  0  0
 18 19  2  0  0  0  0
 19 17  1  0  0  0  0
 20 19  1  0  0  0  0
 21 20  1  0  0  0  0
 22 20  2  0  0  0  0
 24 25  1  0  0  0  0
 25 23  1  0  0  0  0
M  END
>  <MODEL>
8

>  <REMARK>
 VINA RESULT:      -8.1      2.455      6.157
  Name = 
  5 active torsions:
  status: ('A' for Active; 'I' for Inactive)
    1  A    between atoms: C_2  and  CA_25
    2  A    between atoms: C_5  and  C_22
    3  A    between atoms: C_6  and  C_15
    4  A    between atoms: C_15  and  CA_25
    5  A    between atoms: C_17  and  C_22
                            x       y       z     vdW  Elec       q    Type
                         _______ _______ _______ _____ _____    ______ ____

>  <TORSDO>
F 5

$$$$
=
 OpenBabel11052422203D

 25 28  0  0  1  0  0  0  0  0999 V2000
  161.2910  203.6500  147.6310 C   0  0  0  0  0  0  0  0  0  0  0  0
  161.3500  204.8070  148.4370 C   0  0  0  0  0  0  0  0  0  0  0  0
  161.5110  204.9300  145.6080 C   0  0  0  0  0  3  0  0  0  0  0  0
  161.1340  202.2320  148.0680 C   0  0  2  0  0  3  0  0  0  0  0  0
  160.8810  205.4560  150.8530 C   0  0  0  0  0  0  0  0  0  0  0  0
  161.5780  206.0970  146.3700 C   0  0  0  0  0  3  0  0  0  0  0  0
  161.1280  201.4010  146.7620 C   0  0  1  0  0  3  0  0  0  0  0  0
  159.9600  201.7390  145.8440 C   0  0  0  0  0  2  0  0  0  0  0  0
  161.6490  207.3910  148.4620 C   0  0  0  0  0  0  0  0  0  0  0  0
  161.7640  208.4390  147.7700 O   0  0  0  0  0  0  0  0  0  0  0  0
  161.2420  204.5910  149.9030 C   0  0  0  0  0  3  0  0  0  0  0  0
  161.3700  203.7150  146.2640 C   0  0  0  0  0  0  0  0  0  0  0  0
  161.3090  202.3890  145.6010 C   0  0  1  0  0  3  0  0  0  0  0  0
  161.6900  207.5530  149.9410 C   0  0  0  0  0  2  0  0  0  0  0  0
  160.5020  206.8630  150.5610 C   0  0  0  0  0  2  0  0  0  0  0  0
  161.5090  206.0720  147.7800 C   0  0  0  0  0  0  0  0  0  0  0  0
  160.8430  204.9920  152.2720 C   0  0  0  0  0  2  0  0  0  0  0  0
  162.8960  205.9210  153.1190 N   0  0  0  0  0  2  0  0  0  0  0  0
  161.6050  205.9220  153.1650 C   0  0  0  0  0  0  0  0  0  0  0  0
  160.9030  206.9010  154.0070 C   0  0  0  0  0  0  0  0  0  0  0  0
  160.3070  206.4990  155.1990 O   0  0  0  0  0  1  0  0  0  0  0  0
  160.8270  208.1070  153.6570 O   0  0  0  0  0  0  0  0  0  0  0  0
  159.8500  202.0170  148.8650 C   0  0  0  0  0  2  0  0  0  0  0  0
  161.3820  201.1240  150.4590 O   0  0  0  0  0  1  0  0  0  0  0  0
  160.0800  201.0050  149.9730 C   0  0  0  0  0  2  0  0  0  0  0  0
  1  4  1  0  0  0  0
  1  2  1  0  0  0  0
  2 11  1  0  0  0  0
  3 12  1  0  0  0  0
  3  6  2  0  0  0  0
  4 23  1  6  0  0  0
  5 17  1  0  0  0  0
  6 16  1  0  0  0  0
  7  8  1  6  0  0  0
  7  4  1  0  0  0  0
  9 14  1  0  0  0  0
 10  9  2  0  0  0  0
 11  5  2  0  0  0  0
 12  1  2  0  0  0  0
 13  8  1  6  0  0  0
 13 12  1  0  0  0  0
 13  7  1  0  0  0  0
 14 15  1  0  0  0  0
 15  5  1  0  0  0  0
 16  2  2  0  0  0  0
 16  9  1  0  0  0  0
 17 19  1  0  0  0  0
 18 19  2  0  0  0  0
 19 20  1  0  0  0  0
 20 21  1  0  0  0  0
 22 20  2  0  0  0  0
 23 25  1  0  0  0  0
 25 24  1  0  0  0  0
M  END
>  <MODEL>
9

>  <REMARK>
 VINA RESULT:      -7.7      1.453      4.235
  Name = 
  5 active torsions:
  status: ('A' for Active; 'I' for Inactive)
    1  A    between atoms: C_2  and  CA_25
    2  A    between atoms: C_5  and  C_22
    3  A    between atoms: C_6  and  C_15
    4  A    between atoms: C_15  and  CA_25
    5  A    between atoms: C_17  and  C_22
                            x       y       z     vdW  Elec       q    Type
                         _______ _______ _______ _____ _____    ______ ____

>  <TORSDO>
F 5

$$$$
