=
 OpenBabel11062408053D

 34 39  0  0  1  0  0  0  0  0999 V2000
  162.1490  205.2390  152.1370 C   0  0  2  0  0  3  0  0  0  0  0  0
  160.3830  205.5590  150.3800 C   0  0  1  0  0  3  0  0  0  0  0  0
  161.5520  207.5780  151.4280 C   0  0  0  0  0  0  0  0  0  0  0  0
  161.6590  209.9660  151.0020 C   0  0  0  0  0  0  0  0  0  0  0  0
  161.4840  203.2990  150.7060 C   0  0  0  0  0  3  0  0  0  0  0  0
  160.6580  204.1730  149.7970 C   0  0  0  0  0  2  0  0  0  0  0  0
  162.2780  208.4180  149.2380 C   0  0  0  0  0  3  0  0  0  0  0  0
  161.6860  206.1370  150.9720 C   0  0  1  0  0  3  0  0  0  0  0  0
  162.5430  209.4940  148.3880 C   0  0  0  0  0  3  0  0  0  0  0  0
  161.9250  211.0390  150.1480 C   0  0  0  0  0  3  0  0  0  0  0  0
  162.1970  203.7880  151.7340 C   0  0  0  0  0  3  0  0  0  0  0  0
  161.1640  207.8620  152.7560 C   0  0  0  0  0  0  0  0  0  0  0  0
  161.1930  205.3880  153.3190 C   0  0  0  0  0  2  0  0  0  0  0  0
  159.7970  206.4310  149.2840 C   0  0  0  0  0  1  0  0  0  0  0  0
  161.2510  210.2040  152.2730 N   0  0  0  0  0  0  0  0  0  0  0  0
  160.9960  209.2060  153.1640 C   0  0  0  0  0  0  0  0  0  0  0  0
  162.3590  210.8060  148.8390 C   0  0  0  0  0  0  0  0  0  0  0  0
  161.8260  208.6410  150.5490 C   0  0  0  0  0  0  0  0  0  0  0  0
  161.0740  206.7880  153.7040 N   0  0  0  0  0  2  0  0  0  0  0  0
  158.9210  210.6460  155.9860 C   0  0  0  0  0  0  0  0  0  0  0  0
  159.6690  210.2850  157.1090 C   0  0  0  0  0  3  0  0  0  0  0  0
  160.5650  209.5890  154.5350 C   0  0  0  0  0  0  0  0  0  0  0  0
  160.8590  209.5730  156.9520 C   0  0  0  0  0  3  0  0  0  0  0  0
  159.3640  210.2960  154.7080 C   0  0  0  0  0  3  0  0  0  0  0  0
  161.3020  209.2230  155.6740 C   0  0  0  0  0  3  0  0  0  0  0  0
  157.4250  211.5340  156.1800 Cl  0  0  0  0  0  0  0  0  0  0  0  0
  162.6590  211.9510  147.9380 C   0  0  0  0  0  2  0  0  0  0  0  0
  161.9370  213.1990  148.4210 C   0  0  0  0  0  2  0  0  0  0  0  0
  159.6550  213.4810  147.4220 C   0  0  0  0  0  2  0  0  0  0  0  0
  159.3890  212.2560  146.7820 O   0  0  0  0  0  0  0  0  0  0  0  0
  160.5980  213.3300  145.0110 O   0  0  0  0  0  0  0  0  0  0  0  0
  161.6320  213.2560  145.9610 C   0  0  0  0  0  2  0  0  0  0  0  0
  161.1400  213.8210  147.2890 C   0  0  0  0  0  3  0  0  0  0  0  0
  159.5660  212.4230  145.3790 C   0  0  0  0  0  2  0  0  0  0  0  0
  1 11  1  6  0  0  0
  1 13  1  0  0  0  0
  2 14  1  6  0  0  0
  2  8  1  0  0  0  0
  3 12  1  0  0  0  0
  4 15  2  0  0  0  0
  5 11  2  0  0  0  0
  6  2  1  0  0  0  0
  6  5  1  0  0  0  0
  7 18  1  0  0  0  0
  8  3  1  1  0  0  0
  8  1  1  0  0  0  0
  9 17  1  0  0  0  0
  9  7  2  0  0  0  0
 10  4  1  0  0  0  0
 12 16  2  0  0  0  0
 12 19  1  0  0  0  0
 13 19  1  0  0  0  0
 15 16  1  0  0  0  0
 16 22  1  0  0  0  0
 17 10  2  0  0  0  0
 18  4  1  0  0  0  0
 18  3  2  0  0  0  0
 20 26  1  0  0  0  0
 20 21  1  0  0  0  0
 22 24  1  0  0  0  0
 22 25  2  0  0  0  0
 23 21  2  0  0  0  0
 24 20  2  0  0  0  0
 25 23  1  0  0  0  0
 27 28  1  0  0  0  0
 27 17  1  0  0  0  0
 30 29  1  0  0  0  0
 31 34  1  0  0  0  0
 31 32  1  0  0  0  0
 32 33  1  0  0  0  0
 33 29  1  0  0  0  0
 33 28  1  0  0  0  0
 34 30  1  0  0  0  0
M  END
>  <MODEL>
1

>  <REMARK>
 VINA RESULT:      -7.6      0.000      0.000
  Name = 
  4 active torsions:
  status: ('A' for Active; 'I' for Inactive)
    1  A    between atoms: C_3  and  C_13
    2  A    between atoms: C_3  and  C_29
    3  A    between atoms: C_12  and  C_28
    4  A    between atoms: C_13  and  C_33
                            x       y       z     vdW  Elec       q    Type
                         _______ _______ _______ _____ _____    ______ ____

>  <TORSDO>
F 4

$$$$
=
 OpenBabel11062408053D

 34 39  0  0  1  0  0  0  0  0999 V2000
  160.4620  206.3450  149.5000 C   0  0  2  0  0  3  0  0  0  0  0  0
  162.3360  205.9440  151.1230 C   0  0  1  0  0  3  0  0  0  0  0  0
  161.1990  208.2310  150.9940 C   0  0  0  0  0  0  0  0  0  0  0  0
  161.2190  210.2820  152.2940 C   0  0  0  0  0  0  0  0  0  0  0  0
  161.1220  203.9970  150.0470 C   0  0  0  0  0  3  0  0  0  0  0  0
  162.0360  204.4460  151.1590 C   0  0  0  0  0  2  0  0  0  0  0  0
  160.6350  208.1940  153.3840 C   0  0  0  0  0  3  0  0  0  0  0  0
  161.0290  206.7270  150.8820 C   0  0  1  0  0  3  0  0  0  0  0  0
  160.4650  208.8730  154.5930 C   0  0  0  0  0  3  0  0  0  0  0  0
  161.0490  210.9570  153.5060 C   0  0  0  0  0  3  0  0  0  0  0  0
  160.3750  204.8510  149.3310 C   0  0  0  0  0  3  0  0  0  0  0  0
  161.5230  208.9890  149.8480 C   0  0  0  0  0  0  0  0  0  0  0  0
  161.3560  206.9120  148.3990 C   0  0  0  0  0  2  0  0  0  0  0  0
  163.0210  206.3250  152.4240 C   0  0  0  0  0  1  0  0  0  0  0  0
  161.5650  210.9760  151.1820 N   0  0  0  0  0  0  0  0  0  0  0  0
  161.7260  210.3840  149.9650 C   0  0  0  0  0  0  0  0  0  0  0  0
  160.6800  210.2540  154.6570 C   0  0  0  0  0  0  0  0  0  0  0  0
  161.0210  208.8870  152.2260 C   0  0  0  0  0  0  0  0  0  0  0  0
  161.5130  208.3510  148.5620 N   0  0  0  0  0  2  0  0  0  0  0  0
  161.3990  212.6050  146.9150 C   0  0  0  0  0  0  0  0  0  0  0  0
  162.7300  212.9420  146.6590 C   0  0  0  0  0  3  0  0  0  0  0  0
  162.0950  211.2490  148.8130 C   0  0  0  0  0  0  0  0  0  0  0  0
  163.7450  212.4430  147.4770 C   0  0  0  0  0  3  0  0  0  0  0  0
  161.0840  211.7680  147.9880 C   0  0  0  0  0  3  0  0  0  0  0  0
  163.4290  211.6060  148.5510 C   0  0  0  0  0  3  0  0  0  0  0  0
  160.1250  213.2340  145.8930 Cl  0  0  0  0  0  0  0  0  0  0  0  0
  160.4810  210.9790  155.9410 C   0  0  0  0  0  2  0  0  0  0  0  0
  159.1660  210.5620  156.5780 C   0  0  0  0  0  2  0  0  0  0  0  0
  157.0860  211.1680  155.3150 C   0  0  0  0  0  2  0  0  0  0  0  0
  157.5350  211.5080  154.0250 O   0  0  0  0  0  0  0  0  0  0  0  0
  157.8440  213.6380  155.0830 O   0  0  0  0  0  0  0  0  0  0  0  0
  158.7760  212.8920  155.8260 C   0  0  0  0  0  2  0  0  0  0  0  0
  158.1080  211.6290  156.3560 C   0  0  0  0  0  3  0  0  0  0  0  0
  157.5260  212.9250  153.8940 C   0  0  0  0  0  2  0  0  0  0  0  0
  1 13  1  6  0  0  0
  1  8  1  0  0  0  0
  2  6  1  0  0  0  0
  2 14  1  1  0  0  0
  3 18  1  0  0  0  0
  4 10  1  0  0  0  0
  5  6  1  0  0  0  0
  7  9  2  0  0  0  0
  8  3  1  6  0  0  0
  8  2  1  0  0  0  0
  9 17  1  0  0  0  0
 10 17  2  0  0  0  0
 11  1  1  0  0  0  0
 11  5  2  0  0  0  0
 12 16  1  0  0  0  0
 12  3  2  0  0  0  0
 13 19  1  0  0  0  0
 15  4  1  0  0  0  0
 16 15  2  0  0  0  0
 17 27  1  0  0  0  0
 18  4  2  0  0  0  0
 18  7  1  0  0  0  0
 19 12  1  0  0  0  0
 20 24  1  0  0  0  0
 21 20  2  0  0  0  0
 21 23  1  0  0  0  0
 22 16  1  0  0  0  0
 23 25  2  0  0  0  0
 24 22  2  0  0  0  0
 25 22  1  0  0  0  0
 26 20  1  0  0  0  0
 27 28  1  0  0  0  0
 29 33  1  0  0  0  0
 30 29  1  0  0  0  0
 31 32  1  0  0  0  0
 32 33  1  0  0  0  0
 33 28  1  0  0  0  0
 34 30  1  0  0  0  0
 34 31  1  0  0  0  0
M  END
>  <MODEL>
2

>  <REMARK>
 VINA RESULT:      -6.9      3.156      6.661
  Name = 
  4 active torsions:
  status: ('A' for Active; 'I' for Inactive)
    1  A    between atoms: C_3  and  C_13
    2  A    between atoms: C_3  and  C_29
    3  A    between atoms: C_12  and  C_28
    4  A    between atoms: C_13  and  C_33
                            x       y       z     vdW  Elec       q    Type
                         _______ _______ _______ _____ _____    ______ ____

>  <TORSDO>
F 4

$$$$
=
 OpenBabel11062408053D

 34 39  0  0  1  0  0  0  0  0999 V2000
  162.2630  209.6460  155.0600 C   0  0  2  0  0  3  0  0  0  0  0  0
  160.0940  208.3790  155.1010 C   0  0  1  0  0  3  0  0  0  0  0  0
  161.4700  208.5260  152.9510 C   0  0  0  0  0  0  0  0  0  0  0  0
  161.4310  207.4760  150.7620 C   0  0  0  0  0  0  0  0  0  0  0  0
  161.2720  208.9930  157.2610 C   0  0  0  0  0  3  0  0  0  0  0  0
  160.2250  208.1300  156.6040 C   0  0  0  0  0  2  0  0  0  0  0  0
  161.5860  206.0820  152.7420 C   0  0  0  0  0  3  0  0  0  0  0  0
  161.4990  208.4460  154.4660 C   0  0  1  0  0  3  0  0  0  0  0  0
  161.6050  204.9410  151.9370 C   0  0  0  0  0  3  0  0  0  0  0  0
  161.4490  206.3310  149.9600 C   0  0  0  0  0  3  0  0  0  0  0  0
  162.2220  209.6390  156.5650 C   0  0  0  0  0  3  0  0  0  0  0  0
  161.4400  209.7860  152.3150 C   0  0  0  0  0  0  0  0  0  0  0  0
  161.6480  210.9510  154.5590 C   0  0  0  0  0  2  0  0  0  0  0  0
  159.2300  207.2810  154.5080 C   0  0  0  0  0  1  0  0  0  0  0  0
  161.3670  208.7000  150.1830 N   0  0  0  0  0  0  0  0  0  0  0  0
  161.3670  209.8570  150.9030 C   0  0  0  0  0  0  0  0  0  0  0  0
  161.5280  205.0640  150.5450 C   0  0  0  0  0  0  0  0  0  0  0  0
  161.4910  207.3590  152.1660 C   0  0  0  0  0  0  0  0  0  0  0  0
  161.6160  210.9730  153.1030 N   0  0  0  0  0  2  0  0  0  0  0  0
  162.0480  212.5030  148.2810 C   0  0  0  0  0  0  0  0  0  0  0  0
  161.1830  213.5270  148.6720 C   0  0  0  0  0  3  0  0  0  0  0  0
  161.3060  211.1420  150.1580 C   0  0  0  0  0  0  0  0  0  0  0  0
  160.3740  213.3630  149.7980 C   0  0  0  0  0  3  0  0  0  0  0  0
  162.1050  211.3170  149.0160 C   0  0  0  0  0  3  0  0  0  0  0  0
  160.4320  212.1760  150.5340 C   0  0  0  0  0  3  0  0  0  0  0  0
  163.0580  212.7040  146.8660 Cl  0  0  0  0  0  0  0  0  0  0  0  0
  161.5670  203.8480  149.6880 C   0  0  0  0  0  2  0  0  0  0  0  0
  160.8230  204.1030  148.3880 C   0  0  0  0  0  2  0  0  0  0  0  0
  162.0780  205.5020  146.7280 C   0  0  0  0  0  2  0  0  0  0  0  0
  161.1120  205.8890  145.7810 O   0  0  0  0  0  0  0  0  0  0  0  0
  161.6970  203.7600  144.8440 O   0  0  0  0  0  0  0  0  0  0  0  0
  161.1470  203.3160  146.0590 C   0  0  0  0  0  2  0  0  0  0  0  0
  161.7840  204.0810  147.2140 C   0  0  0  0  0  3  0  0  0  0  0  0
  161.2740  205.0980  144.6090 C   0  0  0  0  0  2  0  0  0  0  0  0
  1 13  1  6  0  0  0
  1 11  1  0  0  0  0
  2 14  1  6  0  0  0
  2  6  1  0  0  0  0
  4 18  1  0  0  0  0
  6  5  1  0  0  0  0
  8  3  1  6  0  0  0
  8  1  1  0  0  0  0
  8  2  1  0  0  0  0
  9  7  2  0  0  0  0
 10 17  2  0  0  0  0
 10  4  1  0  0  0  0
 11  5  2  0  0  0  0
 12  3  1  0  0  0  0
 12 19  1  0  0  0  0
 15  4  2  0  0  0  0
 15 16  1  0  0  0  0
 16 12  2  0  0  0  0
 17  9  1  0  0  0  0
 18  7  1  0  0  0  0
 18  3  2  0  0  0  0
 19 13  1  0  0  0  0
 20 21  2  0  0  0  0
 20 24  1  0  0  0  0
 21 23  1  0  0  0  0
 22 25  1  0  0  0  0
 22 16  1  0  0  0  0
 23 25  2  0  0  0  0
 24 22  2  0  0  0  0
 26 20  1  0  0  0  0
 27 17  1  0  0  0  0
 28 27  1  0  0  0  0
 29 33  1  0  0  0  0
 30 29  1  0  0  0  0
 31 32  1  0  0  0  0
 32 33  1  0  0  0  0
 33 28  1  0  0  0  0
 34 31  1  0  0  0  0
 34 30  1  0  0  0  0
M  END
>  <MODEL>
3

>  <REMARK>
 VINA RESULT:      -5.9      3.234      6.743
  Name = 
  4 active torsions:
  status: ('A' for Active; 'I' for Inactive)
    1  A    between atoms: C_3  and  C_13
    2  A    between atoms: C_3  and  C_29
    3  A    between atoms: C_12  and  C_28
    4  A    between atoms: C_13  and  C_33
                            x       y       z     vdW  Elec       q    Type
                         _______ _______ _______ _____ _____    ______ ____

>  <TORSDO>
F 4

$$$$
=
 OpenBabel11062408053D

 34 39  0  0  1  0  0  0  0  0999 V2000
  162.0200  203.9070  151.2870 C   0  0  2  0  0  3  0  0  0  0  0  0
  160.1850  204.6250  149.7300 C   0  0  1  0  0  3  0  0  0  0  0  0
  161.5030  206.3600  151.0690 C   0  0  0  0  0  0  0  0  0  0  0  0
  161.7050  208.7790  151.0960 C   0  0  0  0  0  0  0  0  0  0  0  0
  161.1890  202.3040  149.5570 C   0  0  0  0  0  3  0  0  0  0  0  0
  160.3610  203.3670  148.8810 C   0  0  0  0  0  2  0  0  0  0  0  0
  162.1560  207.5750  149.0380 C   0  0  0  0  0  3  0  0  0  0  0  0
  161.5420  205.0290  150.3420 C   0  0  1  0  0  3  0  0  0  0  0  0
  162.4290  208.7830  148.3920 C   0  0  0  0  0  3  0  0  0  0  0  0
  161.9780  209.9860  150.4450 C   0  0  0  0  0  3  0  0  0  0  0  0
  161.9760  202.5600  150.6150 C   0  0  0  0  0  3  0  0  0  0  0  0
  161.1980  206.3990  152.4470 C   0  0  0  0  0  0  0  0  0  0  0  0
  161.1340  203.8640  152.5300 C   0  0  0  0  0  2  0  0  0  0  0  0
  159.5860  205.7120  148.8550 C   0  0  0  0  0  1  0  0  0  0  0  0
  161.3740  208.7860  152.4110 N   0  0  0  0  0  0  0  0  0  0  0  0
  161.1160  207.6460  153.1110 C   0  0  0  0  0  0  0  0  0  0  0  0
  162.3330  209.9900  149.0920 C   0  0  0  0  0  0  0  0  0  0  0  0
  161.7830  207.5600  150.3910 C   0  0  0  0  0  0  0  0  0  0  0  0
  161.1030  205.1680  153.1790 N   0  0  0  0  0  2  0  0  0  0  0  0
  160.1620  209.1980  156.4320 C   0  0  0  0  0  0  0  0  0  0  0  0
  160.0630  208.0750  157.2570 C   0  0  0  0  0  3  0  0  0  0  0  0
  160.7750  207.7770  154.5530 C   0  0  0  0  0  0  0  0  0  0  0  0
  160.3110  206.8040  156.7370 C   0  0  0  0  0  3  0  0  0  0  0  0
  160.5110  209.0480  155.0870 C   0  0  0  0  0  3  0  0  0  0  0  0
  160.6610  206.6550  155.3920 C   0  0  0  0  0  3  0  0  0  0  0  0
  159.8450  210.7920  157.0810 Cl  0  0  0  0  0  0  0  0  0  0  0  0
  162.6420  211.2750  148.4080 C   0  0  0  0  0  2  0  0  0  0  0  0
  161.9440  212.4250  149.1150 C   0  0  0  0  0  2  0  0  0  0  0  0
  160.4580  213.9480  147.7880 C   0  0  0  0  0  2  0  0  0  0  0  0
  160.1490  213.2210  146.6230 O   0  0  0  0  0  0  0  0  0  0  0  0
  162.2290  214.1760  145.9070 O   0  0  0  0  0  0  0  0  0  0  0  0
  162.7110  213.3760  146.9580 C   0  0  0  0  0  2  0  0  0  0  0  0
  161.8960  213.6480  148.2170 C   0  0  0  0  0  3  0  0  0  0  0  0
  160.9290  213.7290  145.5460 C   0  0  0  0  0  2  0  0  0  0  0  0
  1 11  1  6  0  0  0
  1 13  1  0  0  0  0
  2 14  1  6  0  0  0
  2  8  1  0  0  0  0
  3 12  1  0  0  0  0
  4 15  2  0  0  0  0
  5 11  2  0  0  0  0
  6  5  1  0  0  0  0
  6  2  1  0  0  0  0
  7 18  1  0  0  0  0
  8  3  1  1  0  0  0
  8  1  1  0  0  0  0
  9  7  2  0  0  0  0
  9 17  1  0  0  0  0
 10  4  1  0  0  0  0
 12 16  2  0  0  0  0
 12 19  1  0  0  0  0
 13 19  1  0  0  0  0
 15 16  1  0  0  0  0
 16 22  1  0  0  0  0
 17 10  2  0  0  0  0
 18  3  2  0  0  0  0
 18  4  1  0  0  0  0
 20 26  1  0  0  0  0
 20 21  1  0  0  0  0
 22 24  1  0  0  0  0
 22 25  2  0  0  0  0
 23 21  2  0  0  0  0
 24 20  2  0  0  0  0
 25 23  1  0  0  0  0
 27 17  1  0  0  0  0
 27 28  1  0  0  0  0
 29 33  1  0  0  0  0
 30 29  1  0  0  0  0
 31 32  1  0  0  0  0
 32 33  1  0  0  0  0
 33 28  1  0  0  0  0
 34 31  1  0  0  0  0
 34 30  1  0  0  0  0
M  END
>  <MODEL>
4

>  <REMARK>
 VINA RESULT:      -5.8      1.339      1.593
  Name = 
  4 active torsions:
  status: ('A' for Active; 'I' for Inactive)
    1  A    between atoms: C_3  and  C_13
    2  A    between atoms: C_3  and  C_29
    3  A    between atoms: C_12  and  C_28
    4  A    between atoms: C_13  and  C_33
                            x       y       z     vdW  Elec       q    Type
                         _______ _______ _______ _____ _____    ______ ____

>  <TORSDO>
F 4

$$$$
=
 OpenBabel11062408053D

 34 39  0  0  1  0  0  0  0  0999 V2000
  162.7790  211.2380  149.1430 C   0  0  2  0  0  3  0  0  0  0  0  0
  160.5030  212.1700  149.6490 C   0  0  1  0  0  3  0  0  0  0  0  0
  161.4430  210.2260  151.0190 C   0  0  0  0  0  0  0  0  0  0  0  0
  160.8320  209.0510  153.0540 C   0  0  0  0  0  0  0  0  0  0  0  0
  162.1510  213.4830  148.2400 C   0  0  0  0  0  3  0  0  0  0  0  0
  160.8850  213.5270  149.0580 C   0  0  0  0  0  2  0  0  0  0  0  0
  161.1680  211.4530  153.1290 C   0  0  0  0  0  3  0  0  0  0  0  0
  161.7520  211.5040  150.2620 C   0  0  1  0  0  3  0  0  0  0  0  0
  160.8690  211.4510  154.4940 C   0  0  0  0  0  3  0  0  0  0  0  0
  160.5320  209.0540  154.4190 C   0  0  0  0  0  3  0  0  0  0  0  0
  163.0300  212.4710  148.3160 C   0  0  0  0  0  3  0  0  0  0  0  0
  161.4690  208.9860  150.3460 C   0  0  0  0  0  0  0  0  0  0  0  0
  162.2700  210.1280  148.2260 C   0  0  0  0  0  2  0  0  0  0  0  0
  159.3930  212.3870  150.6630 C   0  0  0  0  0  1  0  0  0  0  0  0
  160.8310  207.8800  152.3700 N   0  0  0  0  0  0  0  0  0  0  0  0
  161.1340  207.8020  151.0440 C   0  0  0  0  0  0  0  0  0  0  0  0
  160.5430  210.2540  155.1380 C   0  0  0  0  0  0  0  0  0  0  0  0
  161.1450  210.2570  152.3940 C   0  0  0  0  0  0  0  0  0  0  0  0
  161.9590  208.9320  148.9980 N   0  0  0  0  0  2  0  0  0  0  0  0
  161.2050  204.0380  150.6260 C   0  0  0  0  0  0  0  0  0  0  0  0
  161.0130  203.8970  149.2500 C   0  0  0  0  0  3  0  0  0  0  0  0
  161.1120  206.4610  150.4020 C   0  0  0  0  0  0  0  0  0  0  0  0
  160.8640  205.0290  148.4480 C   0  0  0  0  0  3  0  0  0  0  0  0
  161.2490  205.3120  151.1990 C   0  0  0  0  0  3  0  0  0  0  0  0
  160.9080  206.3030  149.0210 C   0  0  0  0  0  3  0  0  0  0  0  0
  161.3860  202.6200  151.6350 Cl  0  0  0  0  0  0  0  0  0  0  0  0
  160.2420  210.2510  156.5960 C   0  0  0  0  0  2  0  0  0  0  0  0
  159.6560  211.5910  157.0100 C   0  0  0  0  0  2  0  0  0  0  0  0
  157.5760  210.9490  155.7660 C   0  0  0  0  0  2  0  0  0  0  0  0
  157.3690  211.9970  154.8490 O   0  0  0  0  0  0  0  0  0  0  0  0
  156.2670  212.9620  156.7470 O   0  0  0  0  0  0  0  0  0  0  0  0
  157.5750  212.9130  157.2610 C   0  0  0  0  0  2  0  0  0  0  0  0
  158.1420  211.5110  157.0720 C   0  0  0  0  0  3  0  0  0  0  0  0
  156.3220  212.8300  155.3320 C   0  0  0  0  0  2  0  0  0  0  0  0
  1 13  1  6  0  0  0
  1  8  1  0  0  0  0
  2  8  1  0  0  0  0
  2 14  1  1  0  0  0
  3 18  1  0  0  0  0
  4 10  1  0  0  0  0
  5 11  2  0  0  0  0
  5  6  1  0  0  0  0
  6  2  1  0  0  0  0
  7  9  2  0  0  0  0
  8  3  1  6  0  0  0
  9 17  1  0  0  0  0
 10 17  2  0  0  0  0
 11  1  1  0  0  0  0
 12  3  2  0  0  0  0
 12 16  1  0  0  0  0
 13 19  1  0  0  0  0
 15  4  1  0  0  0  0
 16 15  2  0  0  0  0
 17 27  1  0  0  0  0
 18  4  2  0  0  0  0
 18  7  1  0  0  0  0
 19 12  1  0  0  0  0
 20 24  1  0  0  0  0
 20 26  1  0  0  0  0
 21 20  2  0  0  0  0
 22 16  1  0  0  0  0
 22 24  2  0  0  0  0
 23 25  2  0  0  0  0
 23 21  1  0  0  0  0
 25 22  1  0  0  0  0
 27 28  1  0  0  0  0
 28 33  1  0  0  0  0
 29 33  1  0  0  0  0
 30 34  1  0  0  0  0
 30 29  1  0  0  0  0
 31 32  1  0  0  0  0
 33 32  1  0  0  0  0
 34 31  1  0  0  0  0
M  END
>  <MODEL>
5

>  <REMARK>
 VINA RESULT:      -5.5      3.310      7.750
  Name = 
  4 active torsions:
  status: ('A' for Active; 'I' for Inactive)
    1  A    between atoms: C_3  and  C_13
    2  A    between atoms: C_3  and  C_29
    3  A    between atoms: C_12  and  C_28
    4  A    between atoms: C_13  and  C_33
                            x       y       z     vdW  Elec       q    Type
                         _______ _______ _______ _____ _____    ______ ____

>  <TORSDO>
F 4

$$$$
=
 OpenBabel11062408053D

 34 39  0  0  1  0  0  0  0  0999 V2000
  162.6220  212.1270  148.6520 C   0  0  2  0  0  3  0  0  0  0  0  0
  160.2430  212.5990  147.9990 C   0  0  1  0  0  3  0  0  0  0  0  0
  160.8150  211.8700  150.3830 C   0  0  0  0  0  0  0  0  0  0  0  0
  159.6480  211.7300  152.5080 C   0  0  0  0  0  0  0  0  0  0  0  0
  162.1630  213.4130  146.5580 C   0  0  0  0  0  3  0  0  0  0  0  0
  160.6960  213.5390  146.8830 C   0  0  0  0  0  2  0  0  0  0  0  0
  159.7520  213.8610  151.3510 C   0  0  0  0  0  3  0  0  0  0  0  0
  161.2610  212.6460  149.1580 C   0  0  1  0  0  3  0  0  0  0  0  0
  159.0120  214.4530  152.3770 C   0  0  0  0  0  3  0  0  0  0  0  0
  158.9060  212.3260  153.5310 C   0  0  0  0  0  3  0  0  0  0  0  0
  163.0410  212.8170  147.3810 C   0  0  0  0  0  3  0  0  0  0  0  0
  161.1620  210.5080  150.5180 C   0  0  0  0  0  0  0  0  0  0  0  0
  162.5390  210.6250  148.3890 C   0  0  0  0  0  2  0  0  0  0  0  0
  158.8440  213.0040  148.4270 C   0  0  0  0  0  1  0  0  0  0  0  0
  159.9680  210.4150  152.5900 N   0  0  0  0  0  0  0  0  0  0  0  0
  160.7050  209.7760  151.6390 C   0  0  0  0  0  0  0  0  0  0  0  0
  158.5810  213.6850  153.4640 C   0  0  0  0  0  0  0  0  0  0  0  0
  160.0700  212.4940  151.4010 C   0  0  0  0  0  0  0  0  0  0  0  0
  162.0810  209.9240  149.5820 N   0  0  0  0  0  2  0  0  0  0  0  0
  161.2100  206.0940  150.9100 C   0  0  0  0  0  0  0  0  0  0  0  0
  161.6190  205.6070  152.1540 C   0  0  0  0  0  3  0  0  0  0  0  0
  161.0040  208.3330  151.8420 C   0  0  0  0  0  0  0  0  0  0  0  0
  161.7280  206.4750  153.2400 C   0  0  0  0  0  3  0  0  0  0  0  0
  160.9100  207.4490  150.7550 C   0  0  0  0  0  3  0  0  0  0  0  0
  161.4270  207.8310  153.0850 C   0  0  0  0  0  3  0  0  0  0  0  0
  161.0790  205.0070  149.5450 Cl  0  0  0  0  0  0  0  0  0  0  0  0
  157.8080  214.3210  154.5650 C   0  0  0  0  0  2  0  0  0  0  0  0
  158.4800  214.0480  155.9000 C   0  0  0  0  0  2  0  0  0  0  0  0
  157.6820  212.0520  157.1920 C   0  0  0  0  0  2  0  0  0  0  0  0
  156.9650  211.2820  156.2560 O   0  0  0  0  0  0  0  0  0  0  0  0
  155.2020  212.7650  156.9240 O   0  0  0  0  0  0  0  0  0  0  0  0
  156.0630  213.7070  156.3360 C   0  0  0  0  0  2  0  0  0  0  0  0
  157.4660  213.5400  156.9090 C   0  0  0  0  0  3  0  0  0  0  0  0
  155.5720  211.4640  156.4840 C   0  0  0  0  0  2  0  0  0  0  0  0
  1 11  1  6  0  0  0
  1  8  1  0  0  0  0
  2 14  1  1  0  0  0
  2  8  1  0  0  0  0
  3 12  2  0  0  0  0
  3 18  1  0  0  0  0
  4 15  1  0  0  0  0
  4 10  1  0  0  0  0
  5  6  1  0  0  0  0
  5 11  2  0  0  0  0
  6  2  1  0  0  0  0
  7 18  1  0  0  0  0
  7  9  2  0  0  0  0
  8  3  1  1  0  0  0
  9 17  1  0  0  0  0
 12 16  1  0  0  0  0
 13  1  1  0  0  0  0
 13 19  1  0  0  0  0
 16 22  1  0  0  0  0
 16 15  2  0  0  0  0
 17 10  2  0  0  0  0
 17 27  1  0  0  0  0
 18  4  2  0  0  0  0
 19 12  1  0  0  0  0
 20 21  1  0  0  0  0
 21 23  2  0  0  0  0
 22 25  2  0  0  0  0
 24 20  2  0  0  0  0
 24 22  1  0  0  0  0
 25 23  1  0  0  0  0
 26 20  1  0  0  0  0
 27 28  1  0  0  0  0
 28 33  1  0  0  0  0
 30 34  1  0  0  0  0
 30 29  1  0  0  0  0
 32 33  1  0  0  0  0
 32 31  1  0  0  0  0
 33 29  1  0  0  0  0
 34 31  1  0  0  0  0
M  END
>  <MODEL>
6

>  <REMARK>
 VINA RESULT:      -5.4      3.788      7.660
  Name = 
  4 active torsions:
  status: ('A' for Active; 'I' for Inactive)
    1  A    between atoms: C_3  and  C_13
    2  A    between atoms: C_3  and  C_29
    3  A    between atoms: C_12  and  C_28
    4  A    between atoms: C_13  and  C_33
                            x       y       z     vdW  Elec       q    Type
                         _______ _______ _______ _____ _____    ______ ____

>  <TORSDO>
F 4

$$$$
=
 OpenBabel11062408053D

 34 39  0  0  1  0  0  0  0  0999 V2000
  160.0170  213.4440  147.9130 C   0  0  2  0  0  3  0  0  0  0  0  0
  162.5140  213.1790  147.9590 C   0  0  1  0  0  3  0  0  0  0  0  0
  161.0310  211.7750  149.5000 C   0  0  0  0  0  0  0  0  0  0  0  0
  161.3310  209.8690  150.9730 C   0  0  0  0  0  0  0  0  0  0  0  0
  161.3750  214.3360  146.0130 C   0  0  0  0  0  3  0  0  0  0  0  0
  162.6320  213.6740  146.5180 C   0  0  0  0  0  2  0  0  0  0  0  0
  161.9600  209.6720  148.6370 C   0  0  0  0  0  3  0  0  0  0  0  0
  161.1690  212.4460  148.1450 C   0  0  1  0  0  3  0  0  0  0  0  0
  162.3640  208.3530  148.8580 C   0  0  0  0  0  3  0  0  0  0  0  0
  161.7390  208.5500  151.1900 C   0  0  0  0  0  3  0  0  0  0  0  0
  160.1850  214.1920  146.6170 C   0  0  0  0  0  3  0  0  0  0  0  0
  160.4630  212.4840  150.5800 C   0  0  0  0  0  0  0  0  0  0  0  0
  159.9670  214.4530  149.0580 C   0  0  0  0  0  2  0  0  0  0  0  0
  163.7130  212.2970  148.2610 C   0  0  0  0  0  1  0  0  0  0  0  0
  160.8140  210.5890  151.9990 N   0  0  0  0  0  0  0  0  0  0  0  0
  160.3780  211.8710  151.8530 C   0  0  0  0  0  0  0  0  0  0  0  0
  162.2620  207.7930  150.1360 C   0  0  0  0  0  0  0  0  0  0  0  0
  161.4480  210.4450  149.6910 C   0  0  0  0  0  0  0  0  0  0  0  0
  159.8620  213.7650  150.3380 N   0  0  0  0  0  2  0  0  0  0  0  0
  159.7070  212.7710  155.4700 C   0  0  0  0  0  0  0  0  0  0  0  0
  158.8400  213.8590  155.3410 C   0  0  0  0  0  3  0  0  0  0  0  0
  159.8180  212.5580  153.0470 C   0  0  0  0  0  0  0  0  0  0  0  0
  158.4650  214.3030  154.0720 C   0  0  0  0  0  3  0  0  0  0  0  0
  160.1960  212.1280  154.3300 C   0  0  0  0  0  3  0  0  0  0  0  0
  158.9540  213.6600  152.9320 C   0  0  0  0  0  3  0  0  0  0  0  0
  160.1840  212.2160  157.0590 Cl  0  0  0  0  0  0  0  0  0  0  0  0
  162.6770  206.3830  150.3660 C   0  0  0  0  0  2  0  0  0  0  0  0
  161.9290  205.8060  151.5570 C   0  0  0  0  0  2  0  0  0  0  0  0
  160.7020  203.6730  152.0360 C   0  0  0  0  0  2  0  0  0  0  0  0
  161.5860  202.6530  151.6360 O   0  0  0  0  0  0  0  0  0  0  0  0
  160.5600  203.0890  149.5130 O   0  0  0  0  0  0  0  0  0  0  0  0
  161.1860  204.3330  149.7070 C   0  0  0  0  0  2  0  0  0  0  0  0
  160.8310  204.8680  151.0900 C   0  0  0  0  0  3  0  0  0  0  0  0
  161.1510  202.1330  150.3840 C   0  0  0  0  0  2  0  0  0  0  0  0
  1 11  1  6  0  0  0
  1  8  1  0  0  0  0
  1 13  1  0  0  0  0
  2  8  1  0  0  0  0
  2 14  1  6  0  0  0
  3 18  2  0  0  0  0
  3 12  1  0  0  0  0
  4 10  1  0  0  0  0
  4 15  2  0  0  0  0
  5  6  1  0  0  0  0
  5 11  2  0  0  0  0
  6  2  1  0  0  0  0
  7  9  2  0  0  0  0
  7 18  1  0  0  0  0
  8  3  1  1  0  0  0
  9 17  1  0  0  0  0
 12 16  2  0  0  0  0
 13 19  1  0  0  0  0
 16 15  1  0  0  0  0
 16 22  1  0  0  0  0
 17 27  1  0  0  0  0
 17 10  2  0  0  0  0
 18  4  1  0  0  0  0
 19 12  1  0  0  0  0
 20 26  1  0  0  0  0
 21 20  1  0  0  0  0
 22 24  1  0  0  0  0
 23 21  2  0  0  0  0
 24 20  2  0  0  0  0
 25 22  2  0  0  0  0
 25 23  1  0  0  0  0
 27 28  1  0  0  0  0
 30 29  1  0  0  0  0
 31 32  1  0  0  0  0
 31 34  1  0  0  0  0
 32 33  1  0  0  0  0
 33 28  1  0  0  0  0
 33 29  1  0  0  0  0
 34 30  1  0  0  0  0
M  END
>  <MODEL>
7

>  <REMARK>
 VINA RESULT:      -5.4      3.140      7.266
  Name = 
  4 active torsions:
  status: ('A' for Active; 'I' for Inactive)
    1  A    between atoms: C_3  and  C_13
    2  A    between atoms: C_3  and  C_29
    3  A    between atoms: C_12  and  C_28
    4  A    between atoms: C_13  and  C_33
                            x       y       z     vdW  Elec       q    Type
                         _______ _______ _______ _____ _____    ______ ____

>  <TORSDO>
F 4

$$$$
=
 OpenBabel11062408053D

 34 39  0  0  1  0  0  0  0  0999 V2000
  160.1710  213.2910  148.7130 C   0  0  2  0  0  3  0  0  0  0  0  0
  162.6100  212.8360  148.3280 C   0  0  1  0  0  3  0  0  0  0  0  0
  161.2170  211.2800  149.8040 C   0  0  0  0  0  0  0  0  0  0  0  0
  161.5210  209.1110  150.8530 C   0  0  0  0  0  0  0  0  0  0  0  0
  161.3390  214.4250  146.8160 C   0  0  0  0  0  3  0  0  0  0  0  0
  162.5790  213.5860  146.9970 C   0  0  0  0  0  2  0  0  0  0  0  0
  161.8000  209.3150  148.4510 C   0  0  0  0  0  3  0  0  0  0  0  0
  161.2360  212.1840  148.5860 C   0  0  1  0  0  3  0  0  0  0  0  0
  162.0950  207.9520  148.3700 C   0  0  0  0  0  3  0  0  0  0  0  0
  161.8180  207.7480  150.7670 C   0  0  0  0  0  3  0  0  0  0  0  0
  160.2340  214.2580  147.5600 C   0  0  0  0  0  3  0  0  0  0  0  0
  160.8780  211.8100  151.0670 C   0  0  0  0  0  0  0  0  0  0  0  0
  160.3810  214.0650  150.0140 C   0  0  0  0  0  2  0  0  0  0  0  0
  163.7430  211.8260  148.2810 C   0  0  0  0  0  1  0  0  0  0  0  0
  161.2250  209.6590  152.0570 N   0  0  0  0  0  0  0  0  0  0  0  0
  160.9070  210.9750  152.2090 C   0  0  0  0  0  0  0  0  0  0  0  0
  162.1130  207.1690  149.5290 C   0  0  0  0  0  0  0  0  0  0  0  0
  161.5190  209.9100  149.6910 C   0  0  0  0  0  0  0  0  0  0  0  0
  160.3840  213.1550  151.1520 N   0  0  0  0  0  2  0  0  0  0  0  0
  159.1320  212.7370  155.0530 C   0  0  0  0  0  0  0  0  0  0  0  0
  159.9030  212.3580  156.1540 C   0  0  0  0  0  3  0  0  0  0  0  0
  160.5880  211.4610  153.5780 C   0  0  0  0  0  0  0  0  0  0  0  0
  161.0110  211.5280  155.9760 C   0  0  0  0  0  3  0  0  0  0  0  0
  159.4700  212.2870  153.7740 C   0  0  0  0  0  3  0  0  0  0  0  0
  161.3490  211.0790  154.6960 C   0  0  0  0  0  3  0  0  0  0  0  0
  157.7380  213.7720  155.2750 Cl  0  0  0  0  0  0  0  0  0  0  0  0
  162.4090  205.7140  149.4380 C   0  0  0  0  0  2  0  0  0  0  0  0
  161.3290  205.0090  148.6350 C   0  0  0  0  0  2  0  0  0  0  0  0
  162.1810  205.1740  146.2820 C   0  0  0  0  0  2  0  0  0  0  0  0
  161.0230  205.2270  145.4840 O   0  0  0  0  0  0  0  0  0  0  0  0
  161.2140  202.8440  145.6790 O   0  0  0  0  0  0  0  0  0  0  0  0
  160.9800  203.1520  147.0310 C   0  0  0  0  0  2  0  0  0  0  0  0
  161.9430  204.2460  147.4750 C   0  0  0  0  0  3  0  0  0  0  0  0
  160.8230  203.9540  144.8790 C   0  0  0  0  0  2  0  0  0  0  0  0
  1 11  1  6  0  0  0
  1 13  1  0  0  0  0
  2 14  1  6  0  0  0
  2  8  1  0  0  0  0
  3 12  1  0  0  0  0
  4 15  2  0  0  0  0
  5  6  1  0  0  0  0
  5 11  2  0  0  0  0
  6  2  1  0  0  0  0
  7 18  1  0  0  0  0
  8  1  1  0  0  0  0
  8  3  1  1  0  0  0
  9  7  2  0  0  0  0
  9 17  1  0  0  0  0
 10  4  1  0  0  0  0
 12 19  1  0  0  0  0
 12 16  2  0  0  0  0
 13 19  1  0  0  0  0
 15 16  1  0  0  0  0
 16 22  1  0  0  0  0
 17 10  2  0  0  0  0
 18  3  2  0  0  0  0
 18  4  1  0  0  0  0
 20 26  1  0  0  0  0
 20 21  1  0  0  0  0
 22 24  1  0  0  0  0
 22 25  2  0  0  0  0
 23 21  2  0  0  0  0
 24 20  2  0  0  0  0
 25 23  1  0  0  0  0
 27 17  1  0  0  0  0
 28 27  1  0  0  0  0
 29 33  1  0  0  0  0
 30 29  1  0  0  0  0
 31 32  1  0  0  0  0
 32 33  1  0  0  0  0
 33 28  1  0  0  0  0
 34 30  1  0  0  0  0
 34 31  1  0  0  0  0
M  END
>  <MODEL>
8

>  <REMARK>
 VINA RESULT:      -5.0      2.858      6.556
  Name = 
  4 active torsions:
  status: ('A' for Active; 'I' for Inactive)
    1  A    between atoms: C_3  and  C_13
    2  A    between atoms: C_3  and  C_29
    3  A    between atoms: C_12  and  C_28
    4  A    between atoms: C_13  and  C_33
                            x       y       z     vdW  Elec       q    Type
                         _______ _______ _______ _____ _____    ______ ____

>  <TORSDO>
F 4

$$$$
