=
 OpenBabel11062410093D

 43 47  0  0  1  0  0  0  0  0999 V2000
  161.1010  201.1930  147.2600 C   0  0  0  0  0  0  0  0  0  0  0  0
  161.0320  204.9410  150.6710 C   0  0  0  0  0  0  0  0  0  0  0  0
  161.5740  207.3270  149.2690 C   0  0  0  0  0  0  0  0  0  0  0  0
  160.9310  202.4830  149.3020 C   0  0  0  0  0  0  0  0  0  0  0  0
  161.3680  202.3590  146.5400 C   0  0  0  0  0  3  0  0  0  0  0  0
  161.0520  199.9690  146.6040 O   0  0  0  0  0  1  0  0  0  0  0  0
  161.2030  203.6730  148.5840 C   0  0  0  0  0  0  0  0  0  0  0  0
  160.8820  201.2540  148.6380 C   0  0  0  0  0  3  0  0  0  0  0  0
  161.4190  203.5920  147.1960 C   0  0  0  0  0  3  0  0  0  0  0  0
  161.5200  206.1010  148.5870 C   0  0  0  0  0  3  0  0  0  0  0  0
  161.2520  204.9050  149.2690 C   0  0  0  0  0  0  0  0  0  0  0  0
  160.7630  203.7470  151.3580 C   0  0  0  0  0  3  0  0  0  0  0  0
  161.0910  206.1700  151.3580 C   0  0  0  0  0  0  0  0  0  0  0  0
  161.3670  207.3460  150.6540 C   0  0  0  0  0  3  0  0  0  0  0  0
  160.7120  202.5300  150.6790 C   0  0  0  0  0  3  0  0  0  0  0  0
  161.8770  208.6240  148.5620 C   0  0  2  0  0  3  0  0  0  0  0  0
  163.2330  208.6780  148.2330 O   0  0  0  0  0  1  0  0  0  0  0  0
  161.5110  209.8360  149.3680 C   0  0  0  0  0  3  0  0  0  0  0  0
  161.9000  211.0660  149.0330 C   0  0  0  0  0  0  0  0  0  0  0  0
  162.6590  211.2870  147.8880 O   0  0  0  0  0  1  0  0  0  0  0  0
  161.5200  212.2280  149.9060 C   0  0  0  0  0  2  0  0  0  0  0  0
  160.5780  213.1690  149.2810 N   0  0  0  0  0  0  0  0  0  0  0  0
  160.0150  214.0620  150.2890 C   0  0  0  0  0  2  0  0  0  0  0  0
  158.7350  213.1350  152.5340 S   0  0  0  0  0  1  0  0  0  0  0  0
  158.6690  213.5360  150.7620 C   0  0  0  0  0  2  0  0  0  0  0  0
  161.2490  213.9730  148.2650 C   0  0  0  0  0  2  0  0  0  0  0  0
  160.4940  213.8940  146.9770 C   0  0  0  0  0  0  0  0  0  0  0  0
  159.2620  214.1650  146.9770 O   0  0  0  0  0  0  0  0  0  0  0  0
  161.1640  213.4910  145.7250 C   0  0  0  0  0  0  0  0  0  0  0  0
  161.0680  212.4710  143.5570 N   0  0  0  0  0  0  0  0  0  0  0  0
  163.1380  213.3900  144.3170 C   0  0  0  0  0  3  0  0  0  0  0  0
  162.3860  212.7340  143.3420 C   0  0  0  0  0  3  0  0  0  0  0  0
  162.5210  213.7690  145.5120 C   0  0  0  0  0  3  0  0  0  0  0  0
  160.4490  212.8320  144.7150 C   0  0  0  0  0  3  0  0  0  0  0  0
  160.8550  206.2570  152.8380 C   0  0  0  0  0  2  0  0  0  0  0  0
  160.9770  210.1060  153.2660 C   0  0  0  0  0  2  0  0  0  0  0  0
  161.5990  210.0730  154.6770 C   0  0  2  0  0  3  0  0  0  0  0  0
  161.2200  207.5720  154.9260 C   0  0  0  0  0  2  0  0  0  0  0  0
  160.4400  208.7410  152.8250 C   0  0  0  0  0  2  0  0  0  0  0  0
  161.2930  207.6060  153.3930 C   0  0  2  0  0  3  0  0  0  0  0  0
  161.0430  208.9550  155.5720 C   0  0  0  0  0  2  0  0  0  0  0  0
  161.6260  211.3350  155.3080 O   0  0  0  0  0  0  0  0  0  0  0  0
  160.3250  211.6590  155.7280 C   0  0  0  0  0  1  0  0  0  0  0  0
  1  8  1  0  0  0  0
  2 13  1  0  0  0  0
  2 12  1  0  0  0  0
  3 14  1  0  0  0  0
  4 15  1  0  0  0  0
  5  9  1  0  0  0  0
  5  1  2  0  0  0  0
  6  1  1  0  0  0  0
  7 11  1  0  0  0  0
  7  4  1  0  0  0  0
  8  4  2  0  0  0  0
  9  7  2  0  0  0  0
 10 11  1  0  0  0  0
 10  3  2  0  0  0  0
 11  2  2  0  0  0  0
 13 35  1  0  0  0  0
 14 13  2  0  0  0  0
 15 12  2  0  0  0  0
 16 17  1  1  0  0  0
 16  3  1  0  0  0  0
 16 18  1  0  0  0  0
 19 18  2  0  0  0  0
 19 21  1  0  0  0  0
 20 19  1  0  0  0  0
 22 21  1  0  0  0  0
 22 23  1  0  0  0  0
 23 25  1  0  0  0  0
 25 24  1  0  0  0  0
 26 22  1  0  0  0  0
 27 28  2  0  0  0  0
 27 26  1  0  0  0  0
 29 27  1  0  0  0  0
 30 34  1  0  0  0  0
 31 33  2  0  0  0  0
 32 30  2  0  0  0  0
 32 31  1  0  0  0  0
 33 29  1  0  0  0  0
 34 29  2  0  0  0  0
 36 37  1  0  0  0  0
 37 42  1  1  0  0  0
 37 41  1  0  0  0  0
 38 41  1  0  0  0  0
 39 36  1  0  0  0  0
 39 40  1  0  0  0  0
 40 35  1  6  0  0  0
 40 38  1  0  0  0  0
 42 43  1  0  0  0  0
M  END
>  <MODEL>
1

>  <REMARK>
 VINA RESULT:      -8.7      0.000      0.000
  Name = 
  12 active torsions:
  status: ('A' for Active; 'I' for Inactive)
    1  A    between atoms: C_1  and  C_34
    2  A    between atoms: C_1  and  C_35
    3  A    between atoms: C_2  and  C_6
    4  A    between atoms: C_2  and  C_13
    5  A    between atoms: C_3  and  N_4
    6  A    between atoms: C_3  and  C_12
    7  A    between atoms: N_4  and  C_15
    8  A    between atoms: N_4  and  C_22
    9  A    between atoms: C_11  and  C_14
   10  A    between atoms: C_14  and  C_22
   11  A    between atoms: C_15  and  C_42
   12  A    between atoms: C_19  and  O_25
                            x       y       z     vdW  Elec       q    Type
                         _______ _______ _______ _____ _____    ______ ____

>  <TORSDO>
F 12

$$$$
=
 OpenBabel11062410093D

 43 47  0  0  1  0  0  0  0  0999 V2000
  160.9170  203.4660  150.3140 C   0  0  0  0  0  0  0  0  0  0  0  0
  161.6140  208.1750  152.0530 C   0  0  0  0  0  0  0  0  0  0  0  0
  161.8750  209.8460  149.7960 C   0  0  0  0  0  0  0  0  0  0  0  0
  161.1980  205.4100  151.7310 C   0  0  0  0  0  0  0  0  0  0  0  0
  161.0390  204.2700  149.1780 C   0  0  0  0  0  3  0  0  0  0  0  0
  160.7170  202.0980  150.1760 O   0  0  0  0  0  1  0  0  0  0  0  0
  161.3250  206.2360  150.5870 C   0  0  0  0  0  0  0  0  0  0  0  0
  160.9960  204.0340  151.5870 C   0  0  0  0  0  3  0  0  0  0  0  0
  161.2420  205.6460  149.3120 C   0  0  0  0  0  3  0  0  0  0  0  0
  161.6630  208.4670  149.6370 C   0  0  0  0  0  3  0  0  0  0  0  0
  161.5320  207.6220  150.7490 C   0  0  0  0  0  0  0  0  0  0  0  0
  161.4840  207.3340  153.1690 C   0  0  0  0  0  3  0  0  0  0  0  0
  161.8310  209.5580  152.2150 C   0  0  0  0  0  0  0  0  0  0  0  0
  161.9650  210.3760  151.0890 C   0  0  0  0  0  3  0  0  0  0  0  0
  161.2760  205.9640  153.0080 C   0  0  0  0  0  3  0  0  0  0  0  0
  162.0360  210.7730  148.6180 C   0  0  2  0  0  3  0  0  0  0  0  0
  163.3630  211.2000  148.5310 O   0  0  0  0  0  1  0  0  0  0  0  0
  161.1310  211.9680  148.6780 C   0  0  0  0  0  3  0  0  0  0  0  0
  161.0500  212.8580  147.6900 C   0  0  0  0  0  0  0  0  0  0  0  0
  161.8000  212.7050  146.5280 O   0  0  0  0  0  1  0  0  0  0  0  0
  160.1420  214.0470  147.8340 C   0  0  0  0  0  2  0  0  0  0  0  0
  158.7570  213.8040  147.4050 N   0  0  0  0  0  0  0  0  0  0  0  0
  157.8250  214.4510  148.3240 C   0  0  0  0  0  2  0  0  0  0  0  0
  155.9860  214.1910  150.3440 S   0  0  0  0  0  1  0  0  0  0  0  0
  157.0040  213.4050  149.0610 C   0  0  0  0  0  2  0  0  0  0  0  0
  158.5320  214.3280  146.0630 C   0  0  0  0  0  2  0  0  0  0  0  0
  158.4970  213.2040  145.0780 C   0  0  0  0  0  0  0  0  0  0  0  0
  157.7380  212.2220  145.3050 O   0  0  0  0  0  0  0  0  0  0  0  0
  159.3430  213.2240  143.8690 C   0  0  0  0  0  0  0  0  0  0  0  0
  160.2360  214.4020  141.9810 N   0  0  0  0  0  0  0  0  0  0  0  0
  160.8770  212.1300  142.3410 C   0  0  0  0  0  3  0  0  0  0  0  0
  160.9460  213.3070  141.5950 C   0  0  0  0  0  3  0  0  0  0  0  0
  160.0730  212.0920  143.4820 C   0  0  0  0  0  3  0  0  0  0  0  0
  159.4450  214.3850  143.0900 C   0  0  0  0  0  3  0  0  0  0  0  0
  161.9150  210.1880  153.5750 C   0  0  0  0  0  2  0  0  0  0  0  0
  158.3770  211.6890  153.0820 C   0  0  0  0  0  2  0  0  0  0  0  0
  158.1480  212.0060  154.5740 C   0  0  2  0  0  3  0  0  0  0  0  0
  160.1820  210.6690  155.3040 C   0  0  0  0  0  2  0  0  0  0  0  0
  159.5700  210.7560  152.8530 C   0  0  0  0  0  2  0  0  0  0  0  0
  160.6690  211.0060  153.8870 C   0  0  2  0  0  3  0  0  0  0  0  0
  158.6840  210.9250  155.5250 C   0  0  0  0  0  2  0  0  0  0  0  0
  156.8250  212.4030  154.8650 O   0  0  0  0  0  0  0  0  0  0  0  0
  156.6040  212.2680  156.2460 C   0  0  0  0  0  1  0  0  0  0  0  0
  1  8  1  0  0  0  0
  2 13  1  0  0  0  0
  2 12  1  0  0  0  0
  3 14  1  0  0  0  0
  4 15  1  0  0  0  0
  5  9  1  0  0  0  0
  5  1  2  0  0  0  0
  6  1  1  0  0  0  0
  7 11  1  0  0  0  0
  7  4  1  0  0  0  0
  8  4  2  0  0  0  0
  9  7  2  0  0  0  0
 10  3  2  0  0  0  0
 10 11  1  0  0  0  0
 11  2  2  0  0  0  0
 13 35  1  0  0  0  0
 14 13  2  0  0  0  0
 15 12  2  0  0  0  0
 16 17  1  1  0  0  0
 16 18  1  0  0  0  0
 16  3  1  0  0  0  0
 19 21  1  0  0  0  0
 19 18  2  0  0  0  0
 20 19  1  0  0  0  0
 22 21  1  0  0  0  0
 22 23  1  0  0  0  0
 23 25  1  0  0  0  0
 25 24  1  0  0  0  0
 26 22  1  0  0  0  0
 27 28  2  0  0  0  0
 27 26  1  0  0  0  0
 29 27  1  0  0  0  0
 30 34  1  0  0  0  0
 31 33  2  0  0  0  0
 32 30  2  0  0  0  0
 32 31  1  0  0  0  0
 33 29  1  0  0  0  0
 34 29  2  0  0  0  0
 36 37  1  0  0  0  0
 37 42  1  6  0  0  0
 37 41  1  0  0  0  0
 38 41  1  0  0  0  0
 39 36  1  0  0  0  0
 39 40  1  0  0  0  0
 40 35  1  6  0  0  0
 40 38  1  0  0  0  0
 42 43  1  0  0  0  0
M  END
>  <MODEL>
2

>  <REMARK>
 VINA RESULT:      -8.2      2.100      3.246
  Name = 
  12 active torsions:
  status: ('A' for Active; 'I' for Inactive)
    1  A    between atoms: C_1  and  C_34
    2  A    between atoms: C_1  and  C_35
    3  A    between atoms: C_2  and  C_6
    4  A    between atoms: C_2  and  C_13
    5  A    between atoms: C_3  and  N_4
    6  A    between atoms: C_3  and  C_12
    7  A    between atoms: N_4  and  C_15
    8  A    between atoms: N_4  and  C_22
    9  A    between atoms: C_11  and  C_14
   10  A    between atoms: C_14  and  C_22
   11  A    between atoms: C_15  and  C_42
   12  A    between atoms: C_19  and  O_25
                            x       y       z     vdW  Elec       q    Type
                         _______ _______ _______ _____ _____    ______ ____

>  <TORSDO>
F 12

$$$$
=
 OpenBabel11062410093D

 43 47  0  0  1  0  0  0  0  0999 V2000
  155.6210  212.5380  156.3030 C   0  0  0  0  0  0  0  0  0  0  0  0
  158.7540  213.1120  152.3600 C   0  0  0  0  0  0  0  0  0  0  0  0
  160.6060  210.9890  152.4770 C   0  0  0  0  0  0  0  0  0  0  0  0
  156.7310  213.3390  154.3050 C   0  0  0  0  0  0  0  0  0  0  0  0
  156.5230  211.4740  156.3830 C   0  0  0  0  0  3  0  0  0  0  0  0
  154.6190  212.6710  157.2560 O   0  0  0  0  0  1  0  0  0  0  0  0
  157.6530  212.2660  154.3770 C   0  0  0  0  0  0  0  0  0  0  0  0
  155.7240  213.4680  155.2660 C   0  0  0  0  0  3  0  0  0  0  0  0
  157.5330  211.3380  155.4270 C   0  0  0  0  0  3  0  0  0  0  0  0
  159.5940  211.1010  153.4440 C   0  0  0  0  0  3  0  0  0  0  0  0
  158.6660  212.1510  153.4010 C   0  0  0  0  0  0  0  0  0  0  0  0
  157.8270  214.1650  152.3130 C   0  0  0  0  0  3  0  0  0  0  0  0
  159.7710  213.0040  151.3910 C   0  0  0  0  0  0  0  0  0  0  0  0
  160.6880  211.9500  151.4620 C   0  0  0  0  0  3  0  0  0  0  0  0
  156.8240  214.2750  153.2760 C   0  0  0  0  0  3  0  0  0  0  0  0
  161.6260  209.8790  152.5100 C   0  0  2  0  0  3  0  0  0  0  0  0
  162.7650  210.2640  151.8000 O   0  0  0  0  0  1  0  0  0  0  0  0
  161.1090  208.5830  151.9590 C   0  0  0  0  0  3  0  0  0  0  0  0
  161.1710  207.4380  152.6370 C   0  0  0  0  0  0  0  0  0  0  0  0
  161.7090  207.3960  153.9200 O   0  0  0  0  0  1  0  0  0  0  0  0
  160.6590  206.1730  152.0070 C   0  0  0  0  0  2  0  0  0  0  0  0
  161.3730  205.7780  150.7840 N   0  0  0  0  0  0  0  0  0  0  0  0
  161.6520  204.3450  150.8050 C   0  0  0  0  0  2  0  0  0  0  0  0
  160.6560  202.3430  149.2140 S   0  0  0  0  0  1  0  0  0  0  0  0
  160.3790  203.5590  150.5350 C   0  0  0  0  0  2  0  0  0  0  0  0
  160.5780  206.0830  149.5990 C   0  0  0  0  0  2  0  0  0  0  0  0
  161.4650  206.5930  148.5100 C   0  0  0  0  0  0  0  0  0  0  0  0
  162.2330  207.5640  148.7570 O   0  0  0  0  0  0  0  0  0  0  0  0
  161.4390  205.9930  147.1620 C   0  0  0  0  0  0  0  0  0  0  0  0
  162.2830  204.3940  145.5870 N   0  0  0  0  0  0  0  0  0  0  0  0
  160.5100  205.8510  144.9250 C   0  0  0  0  0  3  0  0  0  0  0  0
  161.4050  204.8200  144.6380 C   0  0  0  0  0  3  0  0  0  0  0  0
  160.5290  206.4360  146.1930 C   0  0  0  0  0  3  0  0  0  0  0  0
  162.3180  204.9520  146.8280 C   0  0  0  0  0  3  0  0  0  0  0  0
  159.8970  213.9910  150.2670 C   0  0  0  0  0  2  0  0  0  0  0  0
  158.2270  212.7210  147.0090 C   0  0  0  0  0  2  0  0  0  0  0  0
  159.5450  212.5820  146.2190 C   0  0  2  0  0  3  0  0  0  0  0  0
  160.8840  213.8280  147.9820 C   0  0  0  0  0  2  0  0  0  0  0  0
  158.3940  213.5310  148.2990 C   0  0  0  0  0  2  0  0  0  0  0  0
  159.7780  213.3080  148.9110 C   0  0  2  0  0  3  0  0  0  0  0  0
  160.5490  213.7120  146.4880 C   0  0  0  0  0  2  0  0  0  0  0  0
  159.3490  212.3190  144.8460 O   0  0  0  0  0  0  0  0  0  0  0  0
  160.5410  212.5960  144.1570 C   0  0  0  0  0  1  0  0  0  0  0  0
  1  5  1  0  0  0  0
  1  6  1  0  0  0  0
  2 11  1  0  0  0  0
  3 16  1  0  0  0  0
  3 10  1  0  0  0  0
  4  7  2  0  0  0  0
  4  8  1  0  0  0  0
  7  9  1  0  0  0  0
  8  1  2  0  0  0  0
  9  5  2  0  0  0  0
 11 10  2  0  0  0  0
 11  7  1  0  0  0  0
 12  2  1  0  0  0  0
 12 15  2  0  0  0  0
 13 14  1  0  0  0  0
 13  2  2  0  0  0  0
 14  3  2  0  0  0  0
 15  4  1  0  0  0  0
 16 17  1  6  0  0  0
 18 16  1  0  0  0  0
 18 19  2  0  0  0  0
 19 20  1  0  0  0  0
 21 19  1  0  0  0  0
 22 23  1  0  0  0  0
 22 21  1  0  0  0  0
 24 25  1  0  0  0  0
 25 23  1  0  0  0  0
 26 22  1  0  0  0  0
 27 28  2  0  0  0  0
 27 26  1  0  0  0  0
 29 27  1  0  0  0  0
 30 34  2  0  0  0  0
 31 33  1  0  0  0  0
 32 31  2  0  0  0  0
 32 30  1  0  0  0  0
 33 29  2  0  0  0  0
 34 29  1  0  0  0  0
 35 13  1  0  0  0  0
 36 39  1  0  0  0  0
 37 42  1  6  0  0  0
 37 41  1  0  0  0  0
 37 36  1  0  0  0  0
 38 40  1  0  0  0  0
 39 40  1  0  0  0  0
 40 35  1  1  0  0  0
 41 38  1  0  0  0  0
 43 42  1  0  0  0  0
M  END
>  <MODEL>
3

>  <REMARK>
 VINA RESULT:      -8.1      3.561      9.453
  Name = 
  12 active torsions:
  status: ('A' for Active; 'I' for Inactive)
    1  A    between atoms: C_1  and  C_34
    2  A    between atoms: C_1  and  C_35
    3  A    between atoms: C_2  and  C_6
    4  A    between atoms: C_2  and  C_13
    5  A    between atoms: C_3  and  N_4
    6  A    between atoms: C_3  and  C_12
    7  A    between atoms: N_4  and  C_15
    8  A    between atoms: N_4  and  C_22
    9  A    between atoms: C_11  and  C_14
   10  A    between atoms: C_14  and  C_22
   11  A    between atoms: C_15  and  C_42
   12  A    between atoms: C_19  and  O_25
                            x       y       z     vdW  Elec       q    Type
                         _______ _______ _______ _____ _____    ______ ____

>  <TORSDO>
F 12

$$$$
=
 OpenBabel11062410093D

 43 47  0  0  1  0  0  0  0  0999 V2000
  160.9360  202.2700  147.3370 C   0  0  0  0  0  0  0  0  0  0  0  0
  161.9120  207.0950  148.5440 C   0  0  0  0  0  0  0  0  0  0  0  0
  161.5020  207.3380  151.3230 C   0  0  0  0  0  0  0  0  0  0  0  0
  161.5270  204.6180  147.2640 C   0  0  0  0  0  0  0  0  0  0  0  0
  160.7290  202.3610  148.7160 C   0  0  0  0  0  3  0  0  0  0  0  0
  160.7450  201.0580  146.6860 O   0  0  0  0  0  1  0  0  0  0  0  0
  161.3180  204.7230  148.6610 C   0  0  0  0  0  0  0  0  0  0  0  0
  161.3340  203.3960  146.6130 C   0  0  0  0  0  3  0  0  0  0  0  0
  160.9180  203.5790  149.3750 C   0  0  0  0  0  3  0  0  0  0  0  0
  161.3140  206.1020  150.6850 C   0  0  0  0  0  3  0  0  0  0  0  0
  161.5130  205.9640  149.3030 C   0  0  0  0  0  0  0  0  0  0  0  0
  162.1120  206.9620  147.1610 C   0  0  0  0  0  3  0  0  0  0  0  0
  162.0970  208.3380  149.1830 C   0  0  0  0  0  0  0  0  0  0  0  0
  161.8850  208.4480  150.5610 C   0  0  0  0  0  3  0  0  0  0  0  0
  161.9230  205.7340  146.5280 C   0  0  0  0  0  3  0  0  0  0  0  0
  161.2780  207.5170  152.8040 C   0  0  2  0  0  3  0  0  0  0  0  0
  160.5100  206.4600  153.2960 O   0  0  0  0  0  1  0  0  0  0  0  0
  160.6150  208.8180  153.1500 C   0  0  0  0  0  3  0  0  0  0  0  0
  161.3040  209.9130  153.4680 C   0  0  0  0  0  0  0  0  0  0  0  0
  162.6960  209.9040  153.4750 O   0  0  0  0  0  1  0  0  0  0  0  0
  160.5690  211.1720  153.8330 C   0  0  0  0  0  2  0  0  0  0  0  0
  160.2670  211.3000  155.2660 N   0  0  0  0  0  0  0  0  0  0  0  0
  161.3840  210.7980  156.0620 C   0  0  0  0  0  2  0  0  0  0  0  0
  161.1560  208.1210  156.6210 S   0  0  0  0  0  1  0  0  0  0  0  0
  160.8780  209.8430  157.1310 C   0  0  0  0  0  2  0  0  0  0  0  0
  160.0280  212.6950  155.6210 C   0  0  0  0  0  2  0  0  0  0  0  0
  158.6850  213.1210  155.1250 C   0  0  0  0  0  0  0  0  0  0  0  0
  158.6010  214.1610  154.4150 O   0  0  0  0  0  0  0  0  0  0  0  0
  157.4680  212.3580  155.4680 C   0  0  0  0  0  0  0  0  0  0  0  0
  155.7010  210.8720  154.8210 N   0  0  0  0  0  0  0  0  0  0  0  0
  155.8010  211.6440  157.0790 C   0  0  0  0  0  3  0  0  0  0  0  0
  155.1860  210.8890  156.0810 C   0  0  0  0  0  3  0  0  0  0  0  0
  156.9460  212.3790  156.7680 C   0  0  0  0  0  3  0  0  0  0  0  0
  156.8170  211.5820  154.4980 C   0  0  0  0  0  3  0  0  0  0  0  0
  162.5290  209.5580  148.4220 C   0  0  0  0  0  2  0  0  0  0  0  0
  160.6400  212.2670  150.4500 C   0  0  0  0  0  2  0  0  0  0  0  0
  160.3790  213.1910  149.2430 C   0  0  2  0  0  3  0  0  0  0  0  0
  161.9590  211.8880  147.7380 C   0  0  0  0  0  2  0  0  0  0  0  0
  161.6810  211.1820  150.1490 C   0  0  0  0  0  2  0  0  0  0  0  0
  161.6020  210.7360  148.6890 C   0  0  2  0  0  3  0  0  0  0  0  0
  161.5580  213.2750  148.2620 C   0  0  0  0  0  2  0  0  0  0  0  0
  159.8600  214.4520  149.6060 O   0  0  0  0  0  0  0  0  0  0  0  0
  158.8740  214.2710  150.5900 C   0  0  0  0  0  1  0  0  0  0  0  0
  1  5  1  0  0  0  0
  2 13  2  0  0  0  0
  2 11  1  0  0  0  0
  3 16  1  0  0  0  0
  4  7  2  0  0  0  0
  5  9  2  0  0  0  0
  6  1  1  0  0  0  0
  7 11  1  0  0  0  0
  7  9  1  0  0  0  0
  8  4  1  0  0  0  0
  8  1  2  0  0  0  0
 10  3  1  0  0  0  0
 11 10  2  0  0  0  0
 12  2  1  0  0  0  0
 13 14  1  0  0  0  0
 14  3  2  0  0  0  0
 15 12  2  0  0  0  0
 15  4  1  0  0  0  0
 16 18  1  0  0  0  0
 16 17  1  6  0  0  0
 18 19  2  0  0  0  0
 19 20  1  0  0  0  0
 19 21  1  0  0  0  0
 21 22  1  0  0  0  0
 22 26  1  0  0  0  0
 22 23  1  0  0  0  0
 23 25  1  0  0  0  0
 24 25  1  0  0  0  0
 27 29  1  0  0  0  0
 27 26  1  0  0  0  0
 28 27  2  0  0  0  0
 29 33  1  0  0  0  0
 30 32  2  0  0  0  0
 32 31  1  0  0  0  0
 33 31  2  0  0  0  0
 34 30  1  0  0  0  0
 34 29  2  0  0  0  0
 35 13  1  0  0  0  0
 37 42  1  1  0  0  0
 37 36  1  0  0  0  0
 38 41  1  0  0  0  0
 38 40  1  0  0  0  0
 39 36  1  0  0  0  0
 40 35  1  1  0  0  0
 40 39  1  0  0  0  0
 41 37  1  0  0  0  0
 42 43  1  0  0  0  0
M  END
>  <MODEL>
4

>  <REMARK>
 VINA RESULT:      -7.4      3.021      6.779
  Name = 
  12 active torsions:
  status: ('A' for Active; 'I' for Inactive)
    1  A    between atoms: C_1  and  C_34
    2  A    between atoms: C_1  and  C_35
    3  A    between atoms: C_2  and  C_6
    4  A    between atoms: C_2  and  C_13
    5  A    between atoms: C_3  and  N_4
    6  A    between atoms: C_3  and  C_12
    7  A    between atoms: N_4  and  C_15
    8  A    between atoms: N_4  and  C_22
    9  A    between atoms: C_11  and  C_14
   10  A    between atoms: C_14  and  C_22
   11  A    between atoms: C_15  and  C_42
   12  A    between atoms: C_19  and  O_25
                            x       y       z     vdW  Elec       q    Type
                         _______ _______ _______ _____ _____    ______ ____

>  <TORSDO>
F 12

$$$$
=
 OpenBabel11062410093D

 43 47  0  0  1  0  0  0  0  0999 V2000
  160.2530  207.7270  156.0700 C   0  0  0  0  0  0  0  0  0  0  0  0
  160.3580  211.4430  152.6230 C   0  0  0  0  0  0  0  0  0  0  0  0
  161.5780  210.3780  150.3150 C   0  0  0  0  0  0  0  0  0  0  0  0
  160.0050  209.8400  154.9100 C   0  0  0  0  0  0  0  0  0  0  0  0
  160.8570  207.1730  154.9390 C   0  0  0  0  0  3  0  0  0  0  0  0
  160.0750  206.9550  157.2100 O   0  0  0  0  0  1  0  0  0  0  0  0
  160.6180  209.2890  153.7580 C   0  0  0  0  0  0  0  0  0  0  0  0
  159.8270  209.0580  156.0550 C   0  0  0  0  0  3  0  0  0  0  0  0
  161.0400  207.9480  153.7900 C   0  0  0  0  0  3  0  0  0  0  0  0
  161.3980  209.5780  151.4550 C   0  0  0  0  0  3  0  0  0  0  0  0
  160.7930  210.0920  152.6110 C   0  0  0  0  0  0  0  0  0  0  0  0
  159.7520  211.9620  153.7790 C   0  0  0  0  0  3  0  0  0  0  0  0
  160.5420  212.2490  151.4820 C   0  0  0  0  0  0  0  0  0  0  0  0
  161.1530  211.7120  150.3450 C   0  0  0  0  0  3  0  0  0  0  0  0
  159.5770  211.1670  154.9110 C   0  0  0  0  0  3  0  0  0  0  0  0
  162.2400  209.8540  149.0660 C   0  0  2  0  0  3  0  0  0  0  0  0
  162.5650  210.9180  148.2220 O   0  0  0  0  0  1  0  0  0  0  0  0
  161.3930  208.8660  148.3170 C   0  0  0  0  0  3  0  0  0  0  0  0
  161.6040  207.5520  148.3730 C   0  0  0  0  0  0  0  0  0  0  0  0
  162.6250  207.0260  149.1580 O   0  0  0  0  0  1  0  0  0  0  0  0
  160.7330  206.6260  147.5710 C   0  0  0  0  0  2  0  0  0  0  0  0
  161.4700  205.5710  146.8610 N   0  0  0  0  0  0  0  0  0  0  0  0
  162.3320  206.1600  145.8400 C   0  0  0  0  0  2  0  0  0  0  0  0
  160.5540  204.5430  144.5130 S   0  0  0  0  0  1  0  0  0  0  0  0
  162.1280  205.4530  144.5090 C   0  0  0  0  0  2  0  0  0  0  0  0
  162.2970  204.8050  147.7860 C   0  0  0  0  0  2  0  0  0  0  0  0
  161.5280  203.6300  148.3000 C   0  0  0  0  0  0  0  0  0  0  0  0
  161.1400  202.7530  147.4800 O   0  0  0  0  0  0  0  0  0  0  0  0
  161.2080  203.4980  149.7350 C   0  0  0  0  0  0  0  0  0  0  0  0
  160.6150  202.1250  151.6090 N   0  0  0  0  0  0  0  0  0  0  0  0
  160.9220  204.4700  151.9390 C   0  0  0  0  0  3  0  0  0  0  0  0
  160.6190  203.2040  152.4390 C   0  0  0  0  0  3  0  0  0  0  0  0
  161.2170  204.6140  150.5810 C   0  0  0  0  0  3  0  0  0  0  0  0
  160.9000  202.2440  150.2830 C   0  0  0  0  0  3  0  0  0  0  0  0
  160.0880  213.6790  151.4460 C   0  0  0  0  0  2  0  0  0  0  0  0
  159.0260  213.8680  147.7240 C   0  0  0  0  0  2  0  0  0  0  0  0
  157.5100  213.8860  148.0100 C   0  0  2  0  0  3  0  0  0  0  0  0
  157.8330  213.2810  150.4570 C   0  0  0  0  0  2  0  0  0  0  0  0
  159.8530  213.4610  148.9480 C   0  0  0  0  0  2  0  0  0  0  0  0
  159.1980  213.9500  150.2410 C   0  0  2  0  0  3  0  0  0  0  0  0
  157.0850  212.9540  149.1550 C   0  0  0  0  0  2  0  0  0  0  0  0
  156.7200  213.7440  146.8490 O   0  0  0  0  0  0  0  0  0  0  0  0
  157.2560  212.7120  146.0590 C   0  0  0  0  0  1  0  0  0  0  0  0
  1  6  1  0  0  0  0
  2 12  1  0  0  0  0
  3 14  2  0  0  0  0
  3 10  1  0  0  0  0
  4 15  1  0  0  0  0
  4  8  2  0  0  0  0
  5  1  2  0  0  0  0
  7  9  2  0  0  0  0
  7  4  1  0  0  0  0
  8  1  1  0  0  0  0
  9  5  1  0  0  0  0
 10 11  2  0  0  0  0
 11  2  1  0  0  0  0
 11  7  1  0  0  0  0
 12 15  2  0  0  0  0
 13  2  2  0  0  0  0
 14 13  1  0  0  0  0
 16 17  1  6  0  0  0
 16  3  1  0  0  0  0
 18 19  2  0  0  0  0
 18 16  1  0  0  0  0
 19 20  1  0  0  0  0
 21 19  1  0  0  0  0
 22 21  1  0  0  0  0
 22 26  1  0  0  0  0
 23 22  1  0  0  0  0
 25 24  1  0  0  0  0
 25 23  1  0  0  0  0
 26 27  1  0  0  0  0
 27 29  1  0  0  0  0
 28 27  2  0  0  0  0
 29 34  2  0  0  0  0
 29 33  1  0  0  0  0
 30 32  2  0  0  0  0
 31 32  1  0  0  0  0
 33 31  2  0  0  0  0
 34 30  1  0  0  0  0
 35 13  1  0  0  0  0
 36 37  1  0  0  0  0
 36 39  1  0  0  0  0
 37 42  1  6  0  0  0
 37 41  1  0  0  0  0
 39 40  1  0  0  0  0
 40 38  1  0  0  0  0
 40 35  1  1  0  0  0
 41 38  1  0  0  0  0
 43 42  1  0  0  0  0
M  END
>  <MODEL>
5

>  <REMARK>
 VINA RESULT:      -6.5      3.278      8.810
  Name = 
  12 active torsions:
  status: ('A' for Active; 'I' for Inactive)
    1  A    between atoms: C_1  and  C_34
    2  A    between atoms: C_1  and  C_35
    3  A    between atoms: C_2  and  C_6
    4  A    between atoms: C_2  and  C_13
    5  A    between atoms: C_3  and  N_4
    6  A    between atoms: C_3  and  C_12
    7  A    between atoms: N_4  and  C_15
    8  A    between atoms: N_4  and  C_22
    9  A    between atoms: C_11  and  C_14
   10  A    between atoms: C_14  and  C_22
   11  A    between atoms: C_15  and  C_42
   12  A    between atoms: C_19  and  O_25
                            x       y       z     vdW  Elec       q    Type
                         _______ _______ _______ _____ _____    ______ ____

>  <TORSDO>
F 12

$$$$
=
 OpenBabel11062410093D

 43 47  0  0  1  0  0  0  0  0999 V2000
  156.3850  213.2890  155.8090 C   0  0  0  0  0  0  0  0  0  0  0  0
  159.6450  212.6260  151.9840 C   0  0  0  0  0  0  0  0  0  0  0  0
  160.4720  209.9320  152.0780 C   0  0  0  0  0  0  0  0  0  0  0  0
  157.8080  213.6130  153.8750 C   0  0  0  0  0  0  0  0  0  0  0  0
  156.7750  211.9500  155.8770 C   0  0  0  0  0  3  0  0  0  0  0  0
  155.4850  213.7970  156.7360 O   0  0  0  0  0  1  0  0  0  0  0  0
  158.2120  212.2570  153.9350 C   0  0  0  0  0  0  0  0  0  0  0  0
  156.9000  214.1190  154.8110 C   0  0  0  0  0  3  0  0  0  0  0  0
  157.6830  211.4350  154.9470 C   0  0  0  0  0  3  0  0  0  0  0  0
  159.5530  210.4240  153.0180 C   0  0  0  0  0  3  0  0  0  0  0  0
  159.1320  211.7610  152.9860 C   0  0  0  0  0  0  0  0  0  0  0  0
  159.2270  213.9650  151.9480 C   0  0  0  0  0  3  0  0  0  0  0  0
  160.5710  212.1350  151.0420 C   0  0  0  0  0  0  0  0  0  0  0  0
  160.9790  210.7980  151.1020 C   0  0  0  0  0  3  0  0  0  0  0  0
  158.3150  214.4530  152.8850 C   0  0  0  0  0  3  0  0  0  0  0  0
  160.9530  208.5030  152.1010 C   0  0  2  0  0  3  0  0  0  0  0  0
  162.0580  208.3900  152.9470 O   0  0  0  0  0  1  0  0  0  0  0  0
  161.3110  207.9770  150.7410 C   0  0  0  0  0  3  0  0  0  0  0  0
  161.5940  206.6950  150.5180 C   0  0  0  0  0  0  0  0  0  0  0  0
  161.5500  205.7640  151.5520 O   0  0  0  0  0  1  0  0  0  0  0  0
  161.9730  206.2480  149.1340 C   0  0  0  0  0  2  0  0  0  0  0  0
  161.0710  205.2400  148.5590 N   0  0  0  0  0  0  0  0  0  0  0  0
  160.4580  205.7530  147.3370 C   0  0  0  0  0  2  0  0  0  0  0  0
  161.5150  205.3570  144.8350 S   0  0  0  0  0  1  0  0  0  0  0  0
  161.5280  206.2860  146.3970 C   0  0  0  0  0  2  0  0  0  0  0  0
  161.7990  204.0170  148.2390 C   0  0  0  0  0  2  0  0  0  0  0  0
  160.9010  202.8340  148.4070 C   0  0  0  0  0  0  0  0  0  0  0  0
  160.1310  202.7920  149.4060 O   0  0  0  0  0  0  0  0  0  0  0  0
  160.9200  201.7200  147.4380 C   0  0  0  0  0  0  0  0  0  0  0  0
  161.5800  199.4900  146.8540 N   0  0  0  0  0  0  0  0  0  0  0  0
  160.2910  200.7650  145.2990 C   0  0  0  0  0  3  0  0  0  0  0  0
  160.9580  199.5900  145.6480 C   0  0  0  0  0  3  0  0  0  0  0  0
  160.2730  201.8310  146.1990 C   0  0  0  0  0  3  0  0  0  0  0  0
  161.5750  200.5190  147.7460 C   0  0  0  0  0  3  0  0  0  0  0  0
  161.1330  213.0100  149.9600 C   0  0  0  0  0  2  0  0  0  0  0  0
  158.7570  213.6150  146.9590 C   0  0  0  0  0  2  0  0  0  0  0  0
  159.5220  212.6960  145.9850 C   0  0  2  0  0  3  0  0  0  0  0  0
  161.5080  212.4680  147.5540 C   0  0  0  0  0  2  0  0  0  0  0  0
  159.5620  213.9360  148.2230 C   0  0  0  0  0  2  0  0  0  0  0  0
  160.4460  212.7540  148.6250 C   0  0  2  0  0  3  0  0  0  0  0  0
  161.0490  212.7830  146.1220 C   0  0  0  0  0  2  0  0  0  0  0  0
  159.0720  212.7960  144.6510 O   0  0  0  0  0  0  0  0  0  0  0  0
  159.8700  213.7310  143.9720 C   0  0  0  0  0  1  0  0  0  0  0  0
  1  5  1  0  0  0  0
  1  6  1  0  0  0  0
  2 11  1  0  0  0  0
  3 16  1  0  0  0  0
  3 10  1  0  0  0  0
  4  7  2  0  0  0  0
  4  8  1  0  0  0  0
  7  9  1  0  0  0  0
  8  1  2  0  0  0  0
  9  5  2  0  0  0  0
 11 10  2  0  0  0  0
 11  7  1  0  0  0  0
 12  2  1  0  0  0  0
 12 15  2  0  0  0  0
 13 14  1  0  0  0  0
 13  2  2  0  0  0  0
 14  3  2  0  0  0  0
 15  4  1  0  0  0  0
 16 17  1  1  0  0  0
 18 16  1  0  0  0  0
 19 18  2  0  0  0  0
 19 20  1  0  0  0  0
 21 19  1  0  0  0  0
 22 21  1  0  0  0  0
 23 22  1  0  0  0  0
 24 25  1  0  0  0  0
 25 23  1  0  0  0  0
 26 27  1  0  0  0  0
 26 22  1  0  0  0  0
 27 28  2  0  0  0  0
 29 34  1  0  0  0  0
 29 27  1  0  0  0  0
 30 34  2  0  0  0  0
 31 32  2  0  0  0  0
 31 33  1  0  0  0  0
 32 30  1  0  0  0  0
 33 29  2  0  0  0  0
 35 13  1  0  0  0  0
 36 39  1  0  0  0  0
 37 42  1  6  0  0  0
 37 41  1  0  0  0  0
 37 36  1  0  0  0  0
 38 40  1  0  0  0  0
 39 40  1  0  0  0  0
 40 35  1  1  0  0  0
 41 38  1  0  0  0  0
 43 42  1  0  0  0  0
M  END
>  <MODEL>
6

>  <REMARK>
 VINA RESULT:      -6.3      3.797     10.184
  Name = 
  12 active torsions:
  status: ('A' for Active; 'I' for Inactive)
    1  A    between atoms: C_1  and  C_34
    2  A    between atoms: C_1  and  C_35
    3  A    between atoms: C_2  and  C_6
    4  A    between atoms: C_2  and  C_13
    5  A    between atoms: C_3  and  N_4
    6  A    between atoms: C_3  and  C_12
    7  A    between atoms: N_4  and  C_15
    8  A    between atoms: N_4  and  C_22
    9  A    between atoms: C_11  and  C_14
   10  A    between atoms: C_14  and  C_22
   11  A    between atoms: C_15  and  C_42
   12  A    between atoms: C_19  and  O_25
                            x       y       z     vdW  Elec       q    Type
                         _______ _______ _______ _____ _____    ______ ____

>  <TORSDO>
F 12

$$$$
=
 OpenBabel11062410093D

 43 47  0  0  1  0  0  0  0  0999 V2000
  161.7080  212.7400  147.2960 C   0  0  0  0  0  0  0  0  0  0  0  0
  159.7150  213.0730  151.9450 C   0  0  0  0  0  0  0  0  0  0  0  0
  160.4230  210.7060  153.3050 C   0  0  0  0  0  0  0  0  0  0  0  0
  160.5450  213.4840  149.2860 C   0  0  0  0  0  0  0  0  0  0  0  0
  162.0760  211.5600  147.9470 C   0  0  0  0  0  3  0  0  0  0  0  0
  162.1030  212.9580  145.9820 O   0  0  0  0  0  1  0  0  0  0  0  0
  160.9090  212.2900  149.9560 C   0  0  0  0  0  0  0  0  0  0  0  0
  160.9450  213.6990  147.9640 C   0  0  0  0  0  3  0  0  0  0  0  0
  161.6800  211.3350  149.2680 C   0  0  0  0  0  3  0  0  0  0  0  0
  160.8390  210.9140  151.9810 C   0  0  0  0  0  3  0  0  0  0  0  0
  160.4950  212.0850  151.2890 C   0  0  0  0  0  0  0  0  0  0  0  0
  159.3690  214.2460  151.2570 C   0  0  0  0  0  3  0  0  0  0  0  0
  159.2920  212.8650  153.2730 C   0  0  0  0  0  0  0  0  0  0  0  0
  159.6440  211.6840  153.9350 C   0  0  0  0  0  3  0  0  0  0  0  0
  159.7820  214.4500  149.9400 C   0  0  0  0  0  3  0  0  0  0  0  0
  160.7640  209.4490  154.0640 C   0  0  2  0  0  3  0  0  0  0  0  0
  161.4940  209.7730  155.2100 O   0  0  0  0  0  1  0  0  0  0  0  0
  161.5360  208.4550  153.2470 C   0  0  0  0  0  3  0  0  0  0  0  0
  161.4010  207.1390  153.4000 C   0  0  0  0  0  0  0  0  0  0  0  0
  160.5070  206.6170  154.3300 O   0  0  0  0  0  1  0  0  0  0  0  0
  162.2310  206.2050  152.5650 C   0  0  0  0  0  2  0  0  0  0  0  0
  161.4460  205.2870  151.7280 N   0  0  0  0  0  0  0  0  0  0  0  0
  161.0320  205.9580  150.4980 C   0  0  0  0  0  2  0  0  0  0  0  0
  161.5540  207.8580  148.5880 S   0  0  0  0  0  1  0  0  0  0  0  0
  162.1270  206.8990  150.0210 C   0  0  0  0  0  2  0  0  0  0  0  0
  162.2300  204.1080  151.3770 C   0  0  0  0  0  2  0  0  0  0  0  0
  161.3170  202.9700  151.0520 C   0  0  0  0  0  0  0  0  0  0  0  0
  160.6880  202.4070  151.9900 O   0  0  0  0  0  0  0  0  0  0  0  0
  161.1590  202.4930  149.6630 C   0  0  0  0  0  0  0  0  0  0  0  0
  161.0720  202.9500  147.3110 N   0  0  0  0  0  0  0  0  0  0  0  0
  160.8350  200.6960  148.0660 C   0  0  0  0  0  3  0  0  0  0  0  0
  160.8880  201.6300  147.0310 C   0  0  0  0  0  3  0  0  0  0  0  0
  160.9720  201.1320  149.3850 C   0  0  0  0  0  3  0  0  0  0  0  0
  161.2080  203.3950  148.5910 C   0  0  0  0  0  3  0  0  0  0  0  0
  158.4750  213.8860  154.0090 C   0  0  0  0  0  2  0  0  0  0  0  0
  155.5980  213.5520  156.5830 C   0  0  0  0  0  2  0  0  0  0  0  0
  155.5630  212.0100  156.5580 C   0  0  2  0  0  3  0  0  0  0  0  0
  157.0870  211.8790  154.5280 C   0  0  0  0  0  2  0  0  0  0  0  0
  156.4080  214.1430  155.4250 C   0  0  0  0  0  2  0  0  0  0  0  0
  157.5810  213.2340  155.0550 C   0  0  2  0  0  3  0  0  0  0  0  0
  155.7670  211.4090  155.1590 C   0  0  0  0  0  2  0  0  0  0  0  0
  154.4590  211.4640  157.2480 O   0  0  0  0  0  0  0  0  0  0  0  0
  154.1470  210.2150  156.6860 C   0  0  0  0  0  1  0  0  0  0  0  0
  1  5  2  0  0  0  0
  1  8  1  0  0  0  0
  2 13  1  0  0  0  0
  3 14  1  0  0  0  0
  3 16  1  0  0  0  0
  4 15  1  0  0  0  0
  4  7  1  0  0  0  0
  5  9  1  0  0  0  0
  6  1  1  0  0  0  0
  7 11  1  0  0  0  0
  8  4  2  0  0  0  0
  9  7  2  0  0  0  0
 10  3  2  0  0  0  0
 11  2  2  0  0  0  0
 11 10  1  0  0  0  0
 12  2  1  0  0  0  0
 13 14  2  0  0  0  0
 13 35  1  0  0  0  0
 15 12  2  0  0  0  0
 16 17  1  1  0  0  0
 18 19  2  0  0  0  0
 18 16  1  0  0  0  0
 19 20  1  0  0  0  0
 21 19  1  0  0  0  0
 22 21  1  0  0  0  0
 23 22  1  0  0  0  0
 24 25  1  0  0  0  0
 25 23  1  0  0  0  0
 26 22  1  0  0  0  0
 27 26  1  0  0  0  0
 27 28  2  0  0  0  0
 29 27  1  0  0  0  0
 30 34  1  0  0  0  0
 31 33  2  0  0  0  0
 32 30  2  0  0  0  0
 32 31  1  0  0  0  0
 33 29  1  0  0  0  0
 34 29  2  0  0  0  0
 37 36  1  0  0  0  0
 37 42  1  6  0  0  0
 38 40  1  0  0  0  0
 38 41  1  0  0  0  0
 39 36  1  0  0  0  0
 40 35  1  6  0  0  0
 40 39  1  0  0  0  0
 41 37  1  0  0  0  0
 43 42  1  0  0  0  0
M  END
>  <MODEL>
7

>  <REMARK>
 VINA RESULT:      -6.3      3.591      9.035
  Name = 
  12 active torsions:
  status: ('A' for Active; 'I' for Inactive)
    1  A    between atoms: C_1  and  C_34
    2  A    between atoms: C_1  and  C_35
    3  A    between atoms: C_2  and  C_6
    4  A    between atoms: C_2  and  C_13
    5  A    between atoms: C_3  and  N_4
    6  A    between atoms: C_3  and  C_12
    7  A    between atoms: N_4  and  C_15
    8  A    between atoms: N_4  and  C_22
    9  A    between atoms: C_11  and  C_14
   10  A    between atoms: C_14  and  C_22
   11  A    between atoms: C_15  and  C_42
   12  A    between atoms: C_19  and  O_25
                            x       y       z     vdW  Elec       q    Type
                         _______ _______ _______ _____ _____    ______ ____

>  <TORSDO>
F 12

$$$$
=
 OpenBabel11062410093D

 43 47  0  0  1  0  0  0  0  0999 V2000
  161.3220  203.9130  146.7290 C   0  0  0  0  0  0  0  0  0  0  0  0
  161.1150  205.6940  151.4700 C   0  0  0  0  0  0  0  0  0  0  0  0
  161.7400  208.4410  151.3350 C   0  0  0  0  0  0  0  0  0  0  0  0
  161.0630  204.1340  149.1270 C   0  0  0  0  0  0  0  0  0  0  0  0
  161.6310  205.2710  146.6330 C   0  0  0  0  0  3  0  0  0  0  0  0
  161.2970  203.1250  145.5860 O   0  0  0  0  0  1  0  0  0  0  0  0
  161.3770  205.5130  149.0430 C   0  0  0  0  0  0  0  0  0  0  0  0
  161.0390  203.3450  147.9740 C   0  0  0  0  0  3  0  0  0  0  0  0
  161.6590  206.0680  147.7810 C   0  0  0  0  0  3  0  0  0  0  0  0
  161.7090  207.6630  150.1670 C   0  0  0  0  0  3  0  0  0  0  0  0
  161.4010  206.2950  150.2170 C   0  0  0  0  0  0  0  0  0  0  0  0
  160.8070  204.3260  151.5250 C   0  0  0  0  0  3  0  0  0  0  0  0
  161.1490  206.4730  152.6440 C   0  0  0  0  0  0  0  0  0  0  0  0
  161.4660  207.8330  152.5660 C   0  0  0  0  0  3  0  0  0  0  0  0
  160.7790  203.5540  150.3630 C   0  0  0  0  0  3  0  0  0  0  0  0
  162.0840  209.9090  151.3110 C   0  0  2  0  0  3  0  0  0  0  0  0
  163.1610  210.1550  152.1650 O   0  0  0  0  0  1  0  0  0  0  0  0
  160.9330  210.7930  151.6920 C   0  0  0  0  0  3  0  0  0  0  0  0
  160.8490  211.3910  152.8790 C   0  0  0  0  0  0  0  0  0  0  0  0
  161.8540  211.2360  153.8300 O   0  0  0  0  0  1  0  0  0  0  0  0
  159.6500  212.2390  153.2010 C   0  0  0  0  0  2  0  0  0  0  0  0
  158.4560  211.9190  152.4060 N   0  0  0  0  0  0  0  0  0  0  0  0
  157.3960  211.4110  153.2730 C   0  0  0  0  0  2  0  0  0  0  0  0
  155.9100  211.6900  155.5640 S   0  0  0  0  0  1  0  0  0  0  0  0
  157.2260  212.3200  154.4800 C   0  0  0  0  0  2  0  0  0  0  0  0
  157.9650  213.1030  151.7110 C   0  0  0  0  0  2  0  0  0  0  0  0
  158.9820  213.5680  150.7200 C   0  0  0  0  0  0  0  0  0  0  0  0
  160.0590  214.0710  151.1440 O   0  0  0  0  0  0  0  0  0  0  0  0
  158.7350  213.4630  149.2680 C   0  0  0  0  0  0  0  0  0  0  0  0
  159.5500  213.0550  147.0500 N   0  0  0  0  0  0  0  0  0  0  0  0
  157.2310  213.5320  147.3660 C   0  0  0  0  0  3  0  0  0  0  0  0
  158.3050  213.2340  146.5280 C   0  0  0  0  0  3  0  0  0  0  0  0
  157.4490  213.6450  148.7400 C   0  0  0  0  0  3  0  0  0  0  0  0
  159.7840  213.1620  148.3870 C   0  0  0  0  0  3  0  0  0  0  0  0
  160.8440  205.8820  153.9900 C   0  0  0  0  0  2  0  0  0  0  0  0
  161.9440  208.7940  156.2980 C   0  0  0  0  0  2  0  0  0  0  0  0
  160.5140  209.2990  156.5810 C   0  0  2  0  0  3  0  0  0  0  0  0
  159.4990  207.8330  154.7710 C   0  0  0  0  0  2  0  0  0  0  0  0
  162.0010  207.8090  155.1250 C   0  0  0  0  0  2  0  0  0  0  0  0
  160.7300  206.9610  155.0580 C   0  0  2  0  0  3  0  0  0  0  0  0
  159.5870  209.2500  155.3580 C   0  0  0  0  0  2  0  0  0  0  0  0
  160.4820  210.5360  157.2610 O   0  0  0  0  0  0  0  0  0  0  0  0
  161.6900  211.2140  157.0250 C   0  0  0  0  0  1  0  0  0  0  0  0
  1  8  1  0  0  0  0
  2 12  1  0  0  0  0
  2 13  1  0  0  0  0
  3 14  1  0  0  0  0
  4 15  1  0  0  0  0
  5  1  2  0  0  0  0
  5  9  1  0  0  0  0
  6  1  1  0  0  0  0
  7  4  1  0  0  0  0
  7 11  1  0  0  0  0
  8  4  2  0  0  0  0
  9  7  2  0  0  0  0
 10 11  1  0  0  0  0
 10  3  2  0  0  0  0
 11  2  2  0  0  0  0
 13 35  1  0  0  0  0
 14 13  2  0  0  0  0
 15 12  2  0  0  0  0
 16  3  1  0  0  0  0
 16 18  1  0  0  0  0
 16 17  1  1  0  0  0
 18 19  2  0  0  0  0
 19 21  1  0  0  0  0
 19 20  1  0  0  0  0
 22 21  1  0  0  0  0
 22 23  1  0  0  0  0
 23 25  1  0  0  0  0
 25 24  1  0  0  0  0
 26 22  1  0  0  0  0
 27 28  2  0  0  0  0
 27 26  1  0  0  0  0
 29 27  1  0  0  0  0
 30 34  1  0  0  0  0
 31 33  2  0  0  0  0
 32 30  2  0  0  0  0
 32 31  1  0  0  0  0
 33 29  1  0  0  0  0
 34 29  2  0  0  0  0
 36 37  1  0  0  0  0
 37 42  1  6  0  0  0
 38 40  1  0  0  0  0
 38 41  1  0  0  0  0
 39 36  1  0  0  0  0
 40 35  1  6  0  0  0
 40 39  1  0  0  0  0
 41 37  1  0  0  0  0
 43 42  1  0  0  0  0
M  END
>  <MODEL>
8

>  <REMARK>
 VINA RESULT:      -6.0      2.458      3.411
  Name = 
  12 active torsions:
  status: ('A' for Active; 'I' for Inactive)
    1  A    between atoms: C_1  and  C_34
    2  A    between atoms: C_1  and  C_35
    3  A    between atoms: C_2  and  C_6
    4  A    between atoms: C_2  and  C_13
    5  A    between atoms: C_3  and  N_4
    6  A    between atoms: C_3  and  C_12
    7  A    between atoms: N_4  and  C_15
    8  A    between atoms: N_4  and  C_22
    9  A    between atoms: C_11  and  C_14
   10  A    between atoms: C_14  and  C_22
   11  A    between atoms: C_15  and  C_42
   12  A    between atoms: C_19  and  O_25
                            x       y       z     vdW  Elec       q    Type
                         _______ _______ _______ _____ _____    ______ ____

>  <TORSDO>
F 12

$$$$
=
 OpenBabel11062410093D

 43 47  0  0  1  0  0  0  0  0999 V2000
  161.1250  202.9720  147.1060 C   0  0  0  0  0  0  0  0  0  0  0  0
  161.1880  205.5320  151.4800 C   0  0  0  0  0  0  0  0  0  0  0  0
  161.9380  208.1800  150.8630 C   0  0  0  0  0  0  0  0  0  0  0  0
  160.9710  203.6060  149.4390 C   0  0  0  0  0  0  0  0  0  0  0  0
  161.4950  204.2760  146.7720 C   0  0  0  0  0  3  0  0  0  0  0  0
  161.0180  202.0050  146.1140 O   0  0  0  0  0  1  0  0  0  0  0  0
  161.3470  204.9320  149.1120 C   0  0  0  0  0  0  0  0  0  0  0  0
  160.8640  202.6370  148.4370 C   0  0  0  0  0  3  0  0  0  0  0  0
  161.6050  205.2510  147.7670 C   0  0  0  0  0  3  0  0  0  0  0  0
  161.8250  207.2190  149.8450 C   0  0  0  0  0  3  0  0  0  0  0  0
  161.4540  205.8980  150.1350 C   0  0  0  0  0  0  0  0  0  0  0  0
  160.8170  204.2110  151.7760 C   0  0  0  0  0  3  0  0  0  0  0  0
  161.3050  206.4930  152.5040 C   0  0  0  0  0  0  0  0  0  0  0  0
  161.6830  207.8020  152.1870 C   0  0  0  0  0  3  0  0  0  0  0  0
  160.7080  203.2580  150.7630 C   0  0  0  0  0  3  0  0  0  0  0  0
  162.3510  209.6020  150.5800 C   0  0  2  0  0  3  0  0  0  0  0  0
  163.0660  210.1110  151.6650 O   0  0  0  0  0  1  0  0  0  0  0  0
  161.1910  210.5060  150.2790 C   0  0  0  0  0  3  0  0  0  0  0  0
  160.8340  211.5080  151.0810 C   0  0  0  0  0  0  0  0  0  0  0  0
  161.5470  211.7780  152.2460 O   0  0  0  0  0  1  0  0  0  0  0  0
  159.6420  212.3530  150.7290 C   0  0  0  0  0  2  0  0  0  0  0  0
  159.7000  212.9460  149.3850 N   0  0  0  0  0  0  0  0  0  0  0  0
  158.5360  213.7970  149.1610 C   0  0  0  0  0  2  0  0  0  0  0  0
  155.8480  214.1960  149.5470 S   0  0  0  0  0  1  0  0  0  0  0  0
  157.2640  213.0560  149.5410 C   0  0  0  0  0  2  0  0  0  0  0  0
  160.9070  213.7510  149.2270 C   0  0  0  0  0  2  0  0  0  0  0  0
  161.8020  213.1270  148.2060 C   0  0  0  0  0  0  0  0  0  0  0  0
  162.8690  212.5730  148.5890 O   0  0  0  0  0  0  0  0  0  0  0  0
  161.4640  213.1690  146.7690 C   0  0  0  0  0  0  0  0  0  0  0  0
  159.8220  213.1100  145.0230 N   0  0  0  0  0  0  0  0  0  0  0  0
  162.1230  213.3790  144.4440 C   0  0  0  0  0  3  0  0  0  0  0  0
  160.7840  213.2650  144.0720 C   0  0  0  0  0  3  0  0  0  0  0  0
  162.4610  213.3320  145.7980 C   0  0  0  0  0  3  0  0  0  0  0  0
  160.1300  213.0610  146.3480 C   0  0  0  0  0  3  0  0  0  0  0  0
  161.0240  206.1550  153.9390 C   0  0  0  0  0  2  0  0  0  0  0  0
  160.9780  209.8870  154.9800 C   0  0  0  0  0  2  0  0  0  0  0  0
  160.8770  209.6110  156.4940 C   0  0  2  0  0  3  0  0  0  0  0  0
  160.3970  207.1400  156.1430 C   0  0  0  0  0  2  0  0  0  0  0  0
  160.6900  208.6430  154.1320 C   0  0  0  0  0  2  0  0  0  0  0  0
  161.1710  207.3740  154.8380 C   0  0  2  0  0  3  0  0  0  0  0  0
  159.9580  208.4320  156.8480 C   0  0  0  0  0  2  0  0  0  0  0  0
  160.6230  210.7700  157.2580 O   0  0  0  0  0  0  0  0  0  0  0  0
  160.7160  211.8940  156.4210 C   0  0  0  0  0  1  0  0  0  0  0  0
  1  8  1  0  0  0  0
  2 12  1  0  0  0  0
  2 13  1  0  0  0  0
  3 14  1  0  0  0  0
  4 15  1  0  0  0  0
  5  1  2  0  0  0  0
  5  9  1  0  0  0  0
  6  1  1  0  0  0  0
  7  4  1  0  0  0  0
  7 11  1  0  0  0  0
  8  4  2  0  0  0  0
  9  7  2  0  0  0  0
 10 11  1  0  0  0  0
 10  3  2  0  0  0  0
 11  2  2  0  0  0  0
 13 35  1  0  0  0  0
 14 13  2  0  0  0  0
 15 12  2  0  0  0  0
 16  3  1  0  0  0  0
 16 17  1  1  0  0  0
 18 16  1  0  0  0  0
 18 19  2  0  0  0  0
 19 20  1  0  0  0  0
 21 19  1  0  0  0  0
 22 21  1  0  0  0  0
 23 22  1  0  0  0  0
 23 25  1  0  0  0  0
 25 24  1  0  0  0  0
 26 22  1  0  0  0  0
 27 28  2  0  0  0  0
 27 26  1  0  0  0  0
 29 27  1  0  0  0  0
 30 34  2  0  0  0  0
 31 33  1  0  0  0  0
 32 31  2  0  0  0  0
 32 30  1  0  0  0  0
 33 29  2  0  0  0  0
 34 29  1  0  0  0  0
 36 37  1  0  0  0  0
 37 41  1  0  0  0  0
 37 42  1  1  0  0  0
 38 41  1  0  0  0  0
 39 40  1  0  0  0  0
 39 36  1  0  0  0  0
 40 35  1  6  0  0  0
 40 38  1  0  0  0  0
 43 42  1  0  0  0  0
M  END
>  <MODEL>
9

>  <REMARK>
 VINA RESULT:      -5.9      1.605      1.990
  Name = 
  12 active torsions:
  status: ('A' for Active; 'I' for Inactive)
    1  A    between atoms: C_1  and  C_34
    2  A    between atoms: C_1  and  C_35
    3  A    between atoms: C_2  and  C_6
    4  A    between atoms: C_2  and  C_13
    5  A    between atoms: C_3  and  N_4
    6  A    between atoms: C_3  and  C_12
    7  A    between atoms: N_4  and  C_15
    8  A    between atoms: N_4  and  C_22
    9  A    between atoms: C_11  and  C_14
   10  A    between atoms: C_14  and  C_22
   11  A    between atoms: C_15  and  C_42
   12  A    between atoms: C_19  and  O_25
                            x       y       z     vdW  Elec       q    Type
                         _______ _______ _______ _____ _____    ______ ____

>  <TORSDO>
F 12

$$$$
