=
 OpenBabel11052423153D

 27 31  0  0  0  0  0  0  0  0999 V2000
  160.7140  210.7190  151.5910 N   0  0  0  0  0  0  0  0  0  0  0  0
  161.4970  209.0080  150.0120 C   0  0  0  0  0  0  0  0  0  0  0  0
  161.4660  207.9290  152.2840 N   0  0  0  0  0  0  0  0  0  0  0  0
  161.3770  205.2220  148.3250 C   0  0  0  0  0  2  0  0  0  0  0  0
  161.0640  202.7750  148.4760 O   0  0  0  0  0  1  0  0  0  0  0  0
  161.6770  208.7630  148.6370 C   0  0  0  0  0  3  0  0  0  0  0  0
  161.1230  205.3720  151.1860 C   0  0  0  0  0  3  0  0  0  0  0  0
  160.3180  209.1280  155.3810 N   0  0  0  0  0  0  0  0  0  0  0  0
  161.0200  204.0700  150.4400 C   0  0  0  0  0  3  0  0  0  0  0  0
  160.6920  208.9390  156.7690 C   0  0  0  0  0  1  0  0  0  0  0  0
  161.2760  206.5840  150.2870 C   0  0  0  0  0  0  0  0  0  0  0  0
  161.4510  210.3040  150.4310 C   0  0  0  0  0  0  0  0  0  0  0  0
  161.1490  204.0030  149.1150 C   0  0  0  0  0  0  0  0  0  0  0  0
  161.4260  206.4280  148.8960 C   0  0  0  0  0  0  0  0  0  0  0  0
  160.5400  210.1410  152.7340 C   0  0  0  0  0  0  0  0  0  0  0  0
  161.3270  207.8750  150.8560 C   0  0  0  0  0  0  0  0  0  0  0  0
  161.4340  208.6360  154.5750 C   0  0  0  0  0  2  0  0  0  0  0  0
  161.6390  207.5130  148.1180 N   0  0  0  0  0  0  0  0  0  0  0  0
  160.2040  210.5690  155.1690 C   0  0  0  0  0  2  0  0  0  0  0  0
  159.6960  210.8460  153.7550 C   0  0  0  0  0  2  0  0  0  0  0  0
  161.1810  208.8750  153.1170 C   0  0  0  0  0  0  0  0  0  0  0  0
  162.7260  213.4250  147.8060 C   0  0  0  0  0  3  0  0  0  0  0  0
  161.8980  211.4170  149.5490 C   0  0  0  0  0  0  0  0  0  0  0  0
  161.1480  212.5960  149.4240 C   0  0  0  0  0  3  0  0  0  0  0  0
  161.5640  213.6070  148.5570 C   0  0  0  0  0  3  0  0  0  0  0  0
  163.4370  212.2720  147.9200 N   0  0  0  0  0  0  0  0  0  0  0  0
  163.0490  211.2750  148.7600 C   0  0  0  0  0  3  0  0  0  0  0  0
  1 15  1  0  0  0  0
  2 12  1  0  0  0  0
  2 16  1  0  0  0  0
  3 21  1  0  0  0  0
  4 14  1  0  0  0  0
  4 13  1  0  0  0  0
  5 13  1  0  0  0  0
  6  2  2  0  0  0  0
  8 10  1  0  0  0  0
  9  7  1  0  0  0  0
 11 16  1  0  0  0  0
 11  7  2  0  0  0  0
 12  1  2  0  0  0  0
 13  9  2  0  0  0  0
 14 11  1  0  0  0  0
 15 21  2  0  0  0  0
 15 20  1  0  0  0  0
 16  3  2  0  0  0  0
 17  8  1  0  0  0  0
 18  6  1  0  0  0  0
 18 14  2  0  0  0  0
 19  8  1  0  0  0  0
 20 19  1  0  0  0  0
 21 17  1  0  0  0  0
 22 26  2  0  0  0  0
 22 25  1  0  0  0  0
 23 12  1  0  0  0  0
 24 23  1  0  0  0  0
 25 24  2  0  0  0  0
 26 27  1  0  0  0  0
 27 23  2  0  0  0  0
M  END
>  <MODEL>
1

>  <REMARK>
 VINA RESULT:      -7.7      0.000      0.000
  Name = 
  1 active torsions:
  status: ('A' for Active; 'I' for Inactive)
    1  A    between atoms: C_9  and  C_15
                            x       y       z     vdW  Elec       q    Type
                         _______ _______ _______ _____ _____    ______ ____

>  <TORSDO>
F 1

$$$$
=
 OpenBabel11052423153D

 27 31  0  0  0  0  0  0  0  0999 V2000
  162.4860  208.4450  148.3350 N   0  0  0  0  0  0  0  0  0  0  0  0
  161.6890  209.4050  150.4500 C   0  0  0  0  0  0  0  0  0  0  0  0
  160.9650  206.9960  150.4340 N   0  0  0  0  0  0  0  0  0  0  0  0
  161.2790  209.3940  154.5770 C   0  0  0  0  0  3  0  0  0  0  0  0
  160.9650  208.2320  156.7350 O   0  0  0  0  0  1  0  0  0  0  0  0
  161.7620  210.5670  151.2420 C   0  0  0  0  0  3  0  0  0  0  0  0
  160.9270  206.8740  153.2350 C   0  0  0  0  0  2  0  0  0  0  0  0
  161.6550  204.4050  148.1640 N   0  0  0  0  0  0  0  0  0  0  0  0
  160.8810  206.9980  154.7330 C   0  0  0  0  0  3  0  0  0  0  0  0
  160.9520  203.2290  147.6860 C   0  0  0  0  0  1  0  0  0  0  0  0
  161.2660  208.1700  152.5230 C   0  0  0  0  0  0  0  0  0  0  0  0
  161.9460  209.5200  149.1170 C   0  0  0  0  0  0  0  0  0  0  0  0
  161.0330  208.1690  155.3510 C   0  0  0  0  0  0  0  0  0  0  0  0
  161.3910  209.3720  153.2460 C   0  0  0  0  0  0  0  0  0  0  0  0
  162.2640  207.1730  148.3780 C   0  0  0  0  0  0  0  0  0  0  0  0
  161.3970  208.1820  151.1180 C   0  0  0  0  0  0  0  0  0  0  0  0
  160.6590  205.2530  148.8160 C   0  0  0  0  0  2  0  0  0  0  0  0
  161.6170  210.5310  152.5880 N   0  0  0  0  0  0  0  0  0  0  0  0
  162.1500  205.1070  146.9820 C   0  0  0  0  0  2  0  0  0  0  0  0
  163.0060  206.2990  147.4090 C   0  0  0  0  0  2  0  0  0  0  0  0
  161.2750  206.5440  149.2640 C   0  0  0  0  0  0  0  0  0  0  0  0
  161.9520  213.3760  147.2740 C   0  0  0  0  0  3  0  0  0  0  0  0
  161.9790  210.8510  148.4500 C   0  0  0  0  0  0  0  0  0  0  0  0
  163.1280  211.6550  148.4780 C   0  0  0  0  0  3  0  0  0  0  0  0
  163.1210  212.9160  147.8840 C   0  0  0  0  0  3  0  0  0  0  0  0
  160.8370  212.5980  147.2670 N   0  0  0  0  0  0  0  0  0  0  0  0
  160.8250  211.3640  147.8400 C   0  0  0  0  0  3  0  0  0  0  0  0
  1 15  2  0  0  0  0
  1 12  1  0  0  0  0
  2 16  1  0  0  0  0
  2  6  1  0  0  0  0
  3 16  1  0  0  0  0
  4 13  1  0  0  0  0
  6 18  2  0  0  0  0
  7  9  1  0  0  0  0
  8 17  1  0  0  0  0
  9 13  2  0  0  0  0
 10  8  1  0  0  0  0
 11  7  1  0  0  0  0
 11 14  1  0  0  0  0
 12  2  2  0  0  0  0
 13  5  1  0  0  0  0
 14  4  2  0  0  0  0
 15 21  1  0  0  0  0
 16 11  2  0  0  0  0
 17 21  1  0  0  0  0
 18 14  1  0  0  0  0
 19 20  1  0  0  0  0
 19  8  1  0  0  0  0
 20 15  1  0  0  0  0
 21  3  2  0  0  0  0
 22 25  1  0  0  0  0
 23 24  1  0  0  0  0
 23 12  1  0  0  0  0
 25 24  2  0  0  0  0
 26 22  2  0  0  0  0
 26 27  1  0  0  0  0
 27 23  2  0  0  0  0
M  END
>  <MODEL>
2

>  <REMARK>
 VINA RESULT:      -7.6      2.447      5.544
  Name = 
  1 active torsions:
  status: ('A' for Active; 'I' for Inactive)
    1  A    between atoms: C_9  and  C_15
                            x       y       z     vdW  Elec       q    Type
                         _______ _______ _______ _____ _____    ______ ____

>  <TORSDO>
F 1

$$$$
=
 OpenBabel11052423153D

 27 31  0  0  0  0  0  0  0  0999 V2000
  161.4650  206.8240  153.2860 N   0  0  0  0  0  0  0  0  0  0  0  0
  161.4030  207.6460  150.9730 C   0  0  0  0  0  0  0  0  0  0  0  0
  160.5970  209.5320  152.4280 N   0  0  0  0  0  0  0  0  0  0  0  0
  162.2840  210.4310  148.0280 C   0  0  0  0  0  2  0  0  0  0  0  0
  162.5950  212.7540  147.2460 O   0  0  0  0  0  1  0  0  0  0  0  0
  161.7720  207.2980  149.6590 C   0  0  0  0  0  3  0  0  0  0  0  0
  161.4170  211.4640  150.5690 C   0  0  0  0  0  3  0  0  0  0  0  0
  160.4300  209.8260  155.9250 N   0  0  0  0  0  0  0  0  0  0  0  0
  161.8410  212.3630  149.4400 C   0  0  0  0  0  3  0  0  0  0  0  0
  159.5590  210.5000  156.8690 C   0  0  0  0  0  1  0  0  0  0  0  0
  161.5810  209.9860  150.2700 C   0  0  0  0  0  0  0  0  0  0  0  0
  161.2430  206.6420  151.8800 C   0  0  0  0  0  0  0  0  0  0  0  0
  162.2310  211.8810  148.2610 C   0  0  0  0  0  0  0  0  0  0  0  0
  161.9800  209.5550  148.9900 C   0  0  0  0  0  0  0  0  0  0  0  0
  161.2060  207.8260  154.0610 C   0  0  0  0  0  0  0  0  0  0  0  0
  161.2740  209.0330  151.2650 C   0  0  0  0  0  0  0  0  0  0  0  0
  159.7240  209.8050  154.6450 C   0  0  0  0  0  2  0  0  0  0  0  0
  162.0470  208.2320  148.7180 N   0  0  0  0  0  0  0  0  0  0  0  0
  160.5700  208.4490  156.3920 C   0  0  0  0  0  2  0  0  0  0  0  0
  161.5710  207.7030  155.5110 C   0  0  0  0  0  2  0  0  0  0  0  0
  160.5100  209.0430  153.6200 C   0  0  0  0  0  0  0  0  0  0  0  0
  160.8310  202.5520  150.7140 C   0  0  0  0  0  3  0  0  0  0  0  0
  161.1320  205.2210  151.4480 C   0  0  0  0  0  0  0  0  0  0  0  0
  160.8760  204.8820  150.1110 C   0  0  0  0  0  3  0  0  0  0  0  0
  160.7310  203.5460  149.7390 C   0  0  0  0  0  3  0  0  0  0  0  0
  161.0610  202.8910  152.0100 N   0  0  0  0  0  0  0  0  0  0  0  0
  161.2060  204.1880  152.3930 C   0  0  0  0  0  3  0  0  0  0  0  0
  1 15  1  0  0  0  0
  2 16  1  0  0  0  0
  2 12  1  0  0  0  0
  3 21  1  0  0  0  0
  4 13  1  0  0  0  0
  4 14  1  0  0  0  0
  5 13  1  0  0  0  0
  6  2  2  0  0  0  0
  8 19  1  0  0  0  0
  8 10  1  0  0  0  0
  9  7  1  0  0  0  0
 11  7  2  0  0  0  0
 11 16  1  0  0  0  0
 12  1  2  0  0  0  0
 13  9  2  0  0  0  0
 14 11  1  0  0  0  0
 15 20  1  0  0  0  0
 16  3  2  0  0  0  0
 17  8  1  0  0  0  0
 18 14  2  0  0  0  0
 18  6  1  0  0  0  0
 20 19  1  0  0  0  0
 21 15  2  0  0  0  0
 21 17  1  0  0  0  0
 22 26  1  0  0  0  0
 23 12  1  0  0  0  0
 23 27  1  0  0  0  0
 24 23  2  0  0  0  0
 25 24  1  0  0  0  0
 25 22  2  0  0  0  0
 26 27  2  0  0  0  0
M  END
>  <MODEL>
3

>  <REMARK>
 VINA RESULT:      -6.9      2.444      5.851
  Name = 
  1 active torsions:
  status: ('A' for Active; 'I' for Inactive)
    1  A    between atoms: C_9  and  C_15
                            x       y       z     vdW  Elec       q    Type
                         _______ _______ _______ _____ _____    ______ ____

>  <TORSDO>
F 1

$$$$
=
 OpenBabel11052423153D

 27 31  0  0  0  0  0  0  0  0999 V2000
  162.0280  208.4690  152.6140 N   0  0  0  0  0  0  0  0  0  0  0  0
  161.1490  206.1860  152.3950 C   0  0  0  0  0  0  0  0  0  0  0  0
  161.0350  207.2240  150.1060 N   0  0  0  0  0  0  0  0  0  0  0  0
  161.0040  202.4510  150.5980 C   0  0  0  0  0  3  0  0  0  0  0  0
  161.1130  200.9780  148.6170 O   0  0  0  0  0  1  0  0  0  0  0  0
  160.9840  204.9840  153.1110 C   0  0  0  0  0  3  0  0  0  0  0  0
  161.1970  204.7240  148.8450 C   0  0  0  0  0  2  0  0  0  0  0  0
  162.1980  210.3220  148.9280 N   0  0  0  0  0  0  0  0  0  0  0  0
  161.2130  203.3110  148.3300 C   0  0  0  0  0  3  0  0  0  0  0  0
  161.7750  211.2730  147.9180 C   0  0  0  0  0  1  0  0  0  0  0  0
  161.1660  204.8250  150.3590 C   0  0  0  0  0  0  0  0  0  0  0  0
  161.2890  207.3400  153.1050 C   0  0  0  0  0  0  0  0  0  0  0  0
  161.1120  202.2610  149.1440 C   0  0  0  0  0  0  0  0  0  0  0  0
  161.0380  203.6670  151.1500 C   0  0  0  0  0  0  0  0  0  0  0  0
  162.1250  208.9630  151.4240 C   0  0  0  0  0  0  0  0  0  0  0  0
  161.2050  206.0940  150.9750 C   0  0  0  0  0  0  0  0  0  0  0  0
  161.0660  209.4270  149.1620 C   0  0  0  0  0  2  0  0  0  0  0  0
  160.9340  203.7810  152.4930 N   0  0  0  0  0  0  0  0  0  0  0  0
  162.4340  211.0870  150.1510 C   0  0  0  0  0  2  0  0  0  0  0  0
  162.9980  210.1690  151.2340 C   0  0  0  0  0  2  0  0  0  0  0  0
  161.3750  208.4590  150.2650 C   0  0  0  0  0  0  0  0  0  0  0  0
  160.3370  207.6310  157.2610 C   0  0  0  0  0  3  0  0  0  0  0  0
  160.9560  207.4000  154.5560 C   0  0  0  0  0  0  0  0  0  0  0  0
  159.7550  206.8730  155.0520 C   0  0  0  0  0  3  0  0  0  0  0  0
  159.4450  206.9800  156.4070 C   0  0  0  0  0  3  0  0  0  0  0  0
  161.4910  208.1560  156.7680 N   0  0  0  0  0  0  0  0  0  0  0  0
  161.8120  208.0600  155.4500 C   0  0  0  0  0  3  0  0  0  0  0  0
  1 12  1  0  0  0  0
  2 12  2  0  0  0  0
  2  6  1  0  0  0  0
  3 21  2  0  0  0  0
  3 16  1  0  0  0  0
  4 14  2  0  0  0  0
  5 13  1  0  0  0  0
  7 11  1  0  0  0  0
  8 17  1  0  0  0  0
  8 19  1  0  0  0  0
  9  7  1  0  0  0  0
  9 13  2  0  0  0  0
 10  8  1  0  0  0  0
 11 16  2  0  0  0  0
 11 14  1  0  0  0  0
 12 23  1  0  0  0  0
 13  4  1  0  0  0  0
 14 18  1  0  0  0  0
 15  1  2  0  0  0  0
 16  2  1  0  0  0  0
 17 21  1  0  0  0  0
 18  6  2  0  0  0  0
 19 20  1  0  0  0  0
 20 15  1  0  0  0  0
 21 15  1  0  0  0  0
 23 24  2  0  0  0  0
 23 27  1  0  0  0  0
 24 25  1  0  0  0  0
 25 22  2  0  0  0  0
 26 22  1  0  0  0  0
 27 26  2  0  0  0  0
M  END
>  <MODEL>
4

>  <REMARK>
 VINA RESULT:      -6.5      1.825      5.732
  Name = 
  1 active torsions:
  status: ('A' for Active; 'I' for Inactive)
    1  A    between atoms: C_9  and  C_15
                            x       y       z     vdW  Elec       q    Type
                         _______ _______ _______ _____ _____    ______ ____

>  <TORSDO>
F 1

$$$$
=
 OpenBabel11052423153D

 27 31  0  0  0  0  0  0  0  0999 V2000
  162.2150  209.5520  150.9130 N   0  0  0  0  0  0  0  0  0  0  0  0
  161.4090  207.2920  150.3890 C   0  0  0  0  0  0  0  0  0  0  0  0
  161.2510  208.6240  148.2610 N   0  0  0  0  0  0  0  0  0  0  0  0
  161.3760  203.8300  148.1050 C   0  0  0  0  0  3  0  0  0  0  0  0
  161.5230  202.6410  145.9430 O   0  0  0  0  0  1  0  0  0  0  0  0
  161.2870  206.0000  150.9360 C   0  0  0  0  0  3  0  0  0  0  0  0
  161.4870  206.3240  146.6740 C   0  0  0  0  0  2  0  0  0  0  0  0
  162.3070  211.8890  147.5110 N   0  0  0  0  0  0  0  0  0  0  0  0
  161.5460  204.9940  145.9740 C   0  0  0  0  0  3  0  0  0  0  0  0
  161.8490  212.9530  146.6380 C   0  0  0  0  0  1  0  0  0  0  0  0
  161.4600  206.2180  148.1870 C   0  0  0  0  0  0  0  0  0  0  0  0
  161.5160  208.3430  151.2480 C   0  0  0  0  0  0  0  0  0  0  0  0
  161.4830  203.8410  146.6380 C   0  0  0  0  0  0  0  0  0  0  0  0
  161.3740  204.9610  148.8160 C   0  0  0  0  0  0  0  0  0  0  0  0
  162.2910  210.2040  149.8000 C   0  0  0  0  0  0  0  0  0  0  0  0
  161.4620  207.3930  148.9700 C   0  0  0  0  0  0  0  0  0  0  0  0
  161.2060  210.9340  147.6220 C   0  0  0  0  0  2  0  0  0  0  0  0
  161.2730  204.8890  150.1620 N   0  0  0  0  0  0  0  0  0  0  0  0
  162.5250  212.4890  148.8250 C   0  0  0  0  0  2  0  0  0  0  0  0
  163.1230  211.4530  149.7750 C   0  0  0  0  0  2  0  0  0  0  0  0
  161.5520  209.8370  148.5840 C   0  0  0  0  0  0  0  0  0  0  0  0
  160.4680  207.9670  155.3730 C   0  0  0  0  0  3  0  0  0  0  0  0
  161.1880  208.1970  152.6940 C   0  0  0  0  0  0  0  0  0  0  0  0
  161.1850  206.9410  153.3180 C   0  0  0  0  0  3  0  0  0  0  0  0
  160.8310  206.8230  154.6620 C   0  0  0  0  0  3  0  0  0  0  0  0
  160.4560  209.1780  154.7550 N   0  0  0  0  0  0  0  0  0  0  0  0
  160.7990  209.3140  153.4460 C   0  0  0  0  0  3  0  0  0  0  0  0
  1 12  1  0  0  0  0
  2  6  1  0  0  0  0
  2 12  2  0  0  0  0
  3 21  2  0  0  0  0
  3 16  1  0  0  0  0
  4 14  2  0  0  0  0
  5 13  1  0  0  0  0
  7 11  1  0  0  0  0
  8 17  1  0  0  0  0
  8 19  1  0  0  0  0
  9 13  2  0  0  0  0
  9  7  1  0  0  0  0
 10  8  1  0  0  0  0
 11 14  1  0  0  0  0
 11 16  2  0  0  0  0
 12 23  1  0  0  0  0
 13  4  1  0  0  0  0
 14 18  1  0  0  0  0
 15  1  2  0  0  0  0
 16  2  1  0  0  0  0
 17 21  1  0  0  0  0
 18  6  2  0  0  0  0
 19 20  1  0  0  0  0
 20 15  1  0  0  0  0
 21 15  1  0  0  0  0
 23 24  2  0  0  0  0
 23 27  1  0  0  0  0
 24 25  1  0  0  0  0
 25 22  2  0  0  0  0
 26 22  1  0  0  0  0
 27 26  2  0  0  0  0
M  END
>  <MODEL>
5

>  <REMARK>
 VINA RESULT:      -5.8      1.568      5.505
  Name = 
  1 active torsions:
  status: ('A' for Active; 'I' for Inactive)
    1  A    between atoms: C_9  and  C_15
                            x       y       z     vdW  Elec       q    Type
                         _______ _______ _______ _____ _____    ______ ____

>  <TORSDO>
F 1

$$$$
=
 OpenBabel11052423153D

 27 31  0  0  0  0  0  0  0  0999 V2000
  161.1960  209.0520  147.5870 N   0  0  0  0  0  0  0  0  0  0  0  0
  161.5330  207.7100  149.6150 C   0  0  0  0  0  0  0  0  0  0  0  0
  162.1700  210.0710  150.2010 N   0  0  0  0  0  0  0  0  0  0  0  0
  161.0180  206.9530  153.6600 C   0  0  0  0  0  3  0  0  0  0  0  0
  160.8120  207.6930  156.0090 O   0  0  0  0  0  1  0  0  0  0  0  0
  161.3210  206.4220  150.1450 C   0  0  0  0  0  2  0  0  0  0  0  0
  161.5830  209.6730  152.9140 C   0  0  0  0  0  3  0  0  0  0  0  0
  161.9240  213.0450  148.3470 N   0  0  0  0  0  0  0  0  0  0  0  0
  161.3000  209.2740  154.3360 C   0  0  0  0  0  3  0  0  0  0  0  0
  162.6800  214.2800  148.2610 C   0  0  0  0  0  1  0  0  0  0  0  0
  161.4500  208.5350  151.9200 C   0  0  0  0  0  0  0  0  0  0  0  0
  161.5810  207.8450  148.2610 C   0  0  0  0  0  0  0  0  0  0  0  0
  161.0500  208.0120  154.6800 C   0  0  0  0  0  0  0  0  0  0  0  0
  161.2020  207.2220  152.3650 C   0  0  0  0  0  0  0  0  0  0  0  0
  161.3650  210.2920  147.9100 C   0  0  0  0  0  0  0  0  0  0  0  0
  161.6330  208.7850  150.5430 C   0  0  0  0  0  0  0  0  0  0  0  0
  162.7760  212.0790  149.0380 C   0  0  0  0  0  2  0  0  0  0  0  0
  161.1630  206.2070  151.4720 N   0  0  0  0  0  0  0  0  0  0  0  0
  161.7240  212.5780  146.9770 C   0  0  0  0  0  2  0  0  0  0  0  0
  160.8310  211.3390  146.9770 C   0  0  0  0  0  2  0  0  0  0  0  0
  162.1140  210.7340  149.0950 C   0  0  0  0  0  0  0  0  0  0  0  0
  162.0130  204.5180  145.6130 C   0  0  0  0  0  3  0  0  0  0  0  0
  161.7360  206.6600  147.3710 C   0  0  0  0  0  0  0  0  0  0  0  0
  162.9160  205.9030  147.3630 C   0  0  0  0  0  3  0  0  0  0  0  0
  163.0560  204.8250  146.4880 C   0  0  0  0  0  3  0  0  0  0  0  0
  160.8790  205.2700  145.6160 N   0  0  0  0  0  0  0  0  0  0  0  0
  160.7240  206.3240  146.4610 C   0  0  0  0  0  3  0  0  0  0  0  0
  1 15  2  0  0  0  0
  1 12  1  0  0  0  0
  2  6  1  0  0  0  0
  2 16  1  0  0  0  0
  3 16  1  0  0  0  0
  4 13  2  0  0  0  0
  6 18  1  0  0  0  0
  7  9  2  0  0  0  0
  8 17  1  0  0  0  0
  9 13  1  0  0  0  0
 10  8  1  0  0  0  0
 11 14  1  0  0  0  0
 11  7  1  0  0  0  0
 12  2  2  0  0  0  0
 13  5  1  0  0  0  0
 14  4  1  0  0  0  0
 15 21  1  0  0  0  0
 16 11  2  0  0  0  0
 17 21  1  0  0  0  0
 18 14  2  0  0  0  0
 19  8  1  0  0  0  0
 20 19  1  0  0  0  0
 20 15  1  0  0  0  0
 21  3  2  0  0  0  0
 22 26  2  0  0  0  0
 22 25  1  0  0  0  0
 23 12  1  0  0  0  0
 24 23  1  0  0  0  0
 25 24  2  0  0  0  0
 26 27  1  0  0  0  0
 27 23  2  0  0  0  0
M  END
>  <MODEL>
6

>  <REMARK>
 VINA RESULT:      -5.7      2.496      6.182
  Name = 
  1 active torsions:
  status: ('A' for Active; 'I' for Inactive)
    1  A    between atoms: C_9  and  C_15
                            x       y       z     vdW  Elec       q    Type
                         _______ _______ _______ _____ _____    ______ ____

>  <TORSDO>
F 1

$$$$
=
 OpenBabel11052423153D

 27 31  0  0  0  0  0  0  0  0999 V2000
  162.3270  211.0520  150.5630 N   0  0  0  0  0  0  0  0  0  0  0  0
  161.5560  208.7210  150.6240 C   0  0  0  0  0  0  0  0  0  0  0  0
  161.2960  209.5040  148.2470 N   0  0  0  0  0  0  0  0  0  0  0  0
  161.5240  204.8140  149.2330 C   0  0  0  0  0  3  0  0  0  0  0  0
  161.6250  203.1450  147.4120 O   0  0  0  0  0  1  0  0  0  0  0  0
  161.4810  207.5960  151.4670 C   0  0  0  0  0  3  0  0  0  0  0  0
  161.5300  206.8950  147.2460 C   0  0  0  0  0  2  0  0  0  0  0  0
  162.2520  212.5100  146.7010 N   0  0  0  0  0  0  0  0  0  0  0  0
  161.5960  205.4380  146.8810 C   0  0  0  0  0  3  0  0  0  0  0  0
  161.7410  213.3280  145.6180 C   0  0  0  0  0  1  0  0  0  0  0  0
  161.5570  207.1540  148.7410 C   0  0  0  0  0  0  0  0  0  0  0  0
  161.6670  209.9490  151.2030 C   0  0  0  0  0  0  0  0  0  0  0  0
  161.5810  204.4760  147.8030 C   0  0  0  0  0  0  0  0  0  0  0  0
  161.5200  206.0820  149.6530 C   0  0  0  0  0  0  0  0  0  0  0  0
  162.3510  211.4210  149.3250 C   0  0  0  0  0  0  0  0  0  0  0  0
  161.5580  208.4810  149.2200 C   0  0  0  0  0  0  0  0  0  0  0  0
  161.1770  211.5940  147.0780 C   0  0  0  0  0  2  0  0  0  0  0  0
  161.4660  206.3320  150.9810 N   0  0  0  0  0  0  0  0  0  0  0  0
  162.5000  213.4100  147.8260 C   0  0  0  0  0  2  0  0  0  0  0  0
  163.1530  212.6380  148.9710 C   0  0  0  0  0  2  0  0  0  0  0  0
  161.5790  210.7640  148.2610 C   0  0  0  0  0  0  0  0  0  0  0  0
  160.9350  210.6220  155.3590 C   0  0  0  0  0  3  0  0  0  0  0  0
  161.3920  210.1470  152.6530 C   0  0  0  0  0  0  0  0  0  0  0  0
  160.0800  210.2350  153.1420 C   0  0  0  0  0  3  0  0  0  0  0  0
  159.8480  210.4650  154.4980 C   0  0  0  0  0  3  0  0  0  0  0  0
  162.2030  210.5530  154.8730 N   0  0  0  0  0  0  0  0  0  0  0  0
  162.4500  210.3280  153.5550 C   0  0  0  0  0  3  0  0  0  0  0  0
  1 12  1  0  0  0  0
  2 12  2  0  0  0  0
  2  6  1  0  0  0  0
  3 21  2  0  0  0  0
  3 16  1  0  0  0  0
  4 14  2  0  0  0  0
  5 13  1  0  0  0  0
  7 11  1  0  0  0  0
  8 17  1  0  0  0  0
  8 19  1  0  0  0  0
  9  7  1  0  0  0  0
  9 13  2  0  0  0  0
 10  8  1  0  0  0  0
 11 16  2  0  0  0  0
 11 14  1  0  0  0  0
 12 23  1  0  0  0  0
 13  4  1  0  0  0  0
 14 18  1  0  0  0  0
 15  1  2  0  0  0  0
 16  2  1  0  0  0  0
 17 21  1  0  0  0  0
 18  6  2  0  0  0  0
 19 20  1  0  0  0  0
 20 15  1  0  0  0  0
 21 15  1  0  0  0  0
 23 24  2  0  0  0  0
 23 27  1  0  0  0  0
 24 25  1  0  0  0  0
 25 22  2  0  0  0  0
 26 22  1  0  0  0  0
 27 26  2  0  0  0  0
M  END
>  <MODEL>
7

>  <REMARK>
 VINA RESULT:      -5.3      1.432      5.312
  Name = 
  1 active torsions:
  status: ('A' for Active; 'I' for Inactive)
    1  A    between atoms: C_9  and  C_15
                            x       y       z     vdW  Elec       q    Type
                         _______ _______ _______ _____ _____    ______ ____

>  <TORSDO>
F 1

$$$$
=
 OpenBabel11052423153D

 27 31  0  0  0  0  0  0  0  0999 V2000
  161.0590  210.2630  152.4920 N   0  0  0  0  0  0  0  0  0  0  0  0
  159.3730  211.4060  153.8640 C   0  0  0  0  0  0  0  0  0  0  0  0
  159.5920  212.7330  151.7380 N   0  0  0  0  0  0  0  0  0  0  0  0
  155.6460  213.1330  154.4390 C   0  0  0  0  0  3  0  0  0  0  0  0
  153.7090  214.4530  153.6550 O   0  0  0  0  0  1  0  0  0  0  0  0
  158.6280  211.2710  155.0510 C   0  0  0  0  0  3  0  0  0  0  0  0
  156.9760  213.7220  151.9570 C   0  0  0  0  0  2  0  0  0  0  0  0
  161.4290  212.0990  148.8120 N   0  0  0  0  0  0  0  0  0  0  0  0
  155.5900  214.2200  152.2610 C   0  0  0  0  0  3  0  0  0  0  0  0
  162.0980  212.9070  147.8110 C   0  0  0  0  0  1  0  0  0  0  0  0
  157.5520  212.8160  153.0300 C   0  0  0  0  0  0  0  0  0  0  0  0
  160.5350  210.7040  153.7540 C   0  0  0  0  0  0  0  0  0  0  0  0
  154.9820  213.9550  153.4160 C   0  0  0  0  0  0  0  0  0  0  0  0
  156.8540  212.6010  154.2330 C   0  0  0  0  0  0  0  0  0  0  0  0
  161.0710  210.8370  151.3340 C   0  0  0  0  0  0  0  0  0  0  0  0
  158.8240  212.2340  152.8440 C   0  0  0  0  0  0  0  0  0  0  0  0
  161.1810  212.9710  149.9590 C   0  0  0  0  0  2  0  0  0  0  0  0
  157.4160  211.8540  155.2100 N   0  0  0  0  0  0  0  0  0  0  0  0
  162.3780  211.0660  149.2210 C   0  0  0  0  0  2  0  0  0  0  0  0
  161.7040  210.0980  150.1920 C   0  0  0  0  0  2  0  0  0  0  0  0
  160.5710  212.1970  151.0900 C   0  0  0  0  0  0  0  0  0  0  0  0
  162.4250  208.8300  157.0970 C   0  0  0  0  0  3  0  0  0  0  0  0
  161.1750  210.0780  154.9440 C   0  0  0  0  0  0  0  0  0  0  0  0
  162.0650  210.7960  155.7560 C   0  0  0  0  0  3  0  0  0  0  0  0
  162.6870  210.1770  156.8400 C   0  0  0  0  0  3  0  0  0  0  0  0
  161.5750  208.1360  156.2930 N   0  0  0  0  0  0  0  0  0  0  0  0
  160.9580  208.7240  155.2330 C   0  0  0  0  0  3  0  0  0  0  0  0
  1 12  1  0  0  0  0
  2  6  1  0  0  0  0
  3 16  1  0  0  0  0
  6 18  2  0  0  0  0
  7  9  1  0  0  0  0
  7 11  1  0  0  0  0
  8 19  1  0  0  0  0
  8 17  1  0  0  0  0
  9 13  2  0  0  0  0
 10  8  1  0  0  0  0
 11 14  1  0  0  0  0
 12  2  2  0  0  0  0
 12 23  1  0  0  0  0
 13  5  1  0  0  0  0
 13  4  1  0  0  0  0
 14  4  2  0  0  0  0
 14 18  1  0  0  0  0
 15  1  2  0  0  0  0
 16 11  2  0  0  0  0
 16  2  1  0  0  0  0
 17 21  1  0  0  0  0
 19 20  1  0  0  0  0
 20 15  1  0  0  0  0
 21 15  1  0  0  0  0
 21  3  2  0  0  0  0
 23 27  2  0  0  0  0
 23 24  1  0  0  0  0
 24 25  2  0  0  0  0
 25 22  1  0  0  0  0
 26 22  2  0  0  0  0
 27 26  1  0  0  0  0
M  END
>  <MODEL>
8

>  <REMARK>
 VINA RESULT:      -4.7      4.006      8.143
  Name = 
  1 active torsions:
  status: ('A' for Active; 'I' for Inactive)
    1  A    between atoms: C_9  and  C_15
                            x       y       z     vdW  Elec       q    Type
                         _______ _______ _______ _____ _____    ______ ____

>  <TORSDO>
F 1

$$$$
=
 OpenBabel11052423153D

 27 31  0  0  0  0  0  0  0  0999 V2000
  161.1620  208.3030  148.0710 N   0  0  0  0  0  0  0  0  0  0  0  0
  161.4090  207.0690  150.1800 C   0  0  0  0  0  0  0  0  0  0  0  0
  162.0160  209.4600  150.6700 N   0  0  0  0  0  0  0  0  0  0  0  0
  160.7130  206.5220  154.2310 C   0  0  0  0  0  3  0  0  0  0  0  0
  160.3990  207.3830  156.5270 O   0  0  0  0  0  1  0  0  0  0  0  0
  161.1750  205.8100  150.7660 C   0  0  0  0  0  2  0  0  0  0  0  0
  161.3070  209.2020  153.3700 C   0  0  0  0  0  3  0  0  0  0  0  0
  161.8490  212.3320  148.6530 N   0  0  0  0  0  0  0  0  0  0  0  0
  160.9600  208.8770  154.7970 C   0  0  0  0  0  3  0  0  0  0  0  0
  162.6060  213.5630  148.5370 C   0  0  0  0  0  1  0  0  0  0  0  0
  161.2200  208.0130  152.4320 C   0  0  0  0  0  0  0  0  0  0  0  0
  161.5180  207.1330  148.8230 C   0  0  0  0  0  0  0  0  0  0  0  0
  160.6970  207.6320  155.1950 C   0  0  0  0  0  0  0  0  0  0  0  0
  160.9550  206.7240  152.9330 C   0  0  0  0  0  0  0  0  0  0  0  0
  161.3140  209.5580  148.3360 C   0  0  0  0  0  0  0  0  0  0  0  0
  161.4660  208.1910  151.0540 C   0  0  0  0  0  0  0  0  0  0  0  0
  162.6700  211.4060  149.4320 C   0  0  0  0  0  2  0  0  0  0  0  0
  160.9580  205.6640  152.0940 N   0  0  0  0  0  0  0  0  0  0  0  0
  161.7120  211.7940  147.3010 C   0  0  0  0  0  2  0  0  0  0  0  0
  160.8220  210.5530  147.3260 C   0  0  0  0  0  2  0  0  0  0  0  0
  162.0080  210.0640  149.5280 C   0  0  0  0  0  0  0  0  0  0  0  0
  161.9650  203.5960  146.4680 C   0  0  0  0  0  3  0  0  0  0  0  0
  161.7150  205.9050  148.0050 C   0  0  0  0  0  0  0  0  0  0  0  0
  162.3630  205.9520  146.7610 C   0  0  0  0  0  3  0  0  0  0  0  0
  162.4960  204.7960  145.9920 C   0  0  0  0  0  3  0  0  0  0  0  0
  161.3230  203.5630  147.6660 N   0  0  0  0  0  0  0  0  0  0  0  0
  161.1840  204.6790  148.4310 C   0  0  0  0  0  3  0  0  0  0  0  0
  1 15  2  0  0  0  0
  1 12  1  0  0  0  0
  2  6  1  0  0  0  0
  2 16  1  0  0  0  0
  3 16  1  0  0  0  0
  4 13  2  0  0  0  0
  6 18  1  0  0  0  0
  7  9  2  0  0  0  0
  8 17  1  0  0  0  0
  9 13  1  0  0  0  0
 10  8  1  0  0  0  0
 11 14  1  0  0  0  0
 11  7  1  0  0  0  0
 12  2  2  0  0  0  0
 13  5  1  0  0  0  0
 14  4  1  0  0  0  0
 15 21  1  0  0  0  0
 16 11  2  0  0  0  0
 17 21  1  0  0  0  0
 18 14  2  0  0  0  0
 19 20  1  0  0  0  0
 19  8  1  0  0  0  0
 20 15  1  0  0  0  0
 21  3  2  0  0  0  0
 22 26  1  0  0  0  0
 23 27  1  0  0  0  0
 23 12  1  0  0  0  0
 24 23  2  0  0  0  0
 25 22  2  0  0  0  0
 25 24  1  0  0  0  0
 26 27  2  0  0  0  0
M  END
>  <MODEL>
9

>  <REMARK>
 VINA RESULT:      -4.7      2.448      6.263
  Name = 
  1 active torsions:
  status: ('A' for Active; 'I' for Inactive)
    1  A    between atoms: C_9  and  C_15
                            x       y       z     vdW  Elec       q    Type
                         _______ _______ _______ _____ _____    ______ ____

>  <TORSDO>
F 1

$$$$
