=
 OpenBabel11062408143D

 32 37  0  0  1  0  0  0  0  0999 V2000
  161.8260  211.1910  150.5260 C   0  0  1  0  0  3  0  0  0  0  0  0
  160.4000  211.1870  152.4470 C   0  0  1  0  0  3  0  0  0  0  0  0
  161.9870  211.4290  149.0140 C   0  0  0  0  0  2  0  0  0  0  0  0
  160.4640  211.4860  151.0130 N   0  0  1  0  0  0  0  0  0  0  0  0
  159.0070  211.5050  152.9780 C   0  0  1  0  0  3  0  0  0  0  0  0
  160.8110  207.8880  156.0650 C   0  0  0  0  0  3  0  0  0  0  0  0
  160.7130  209.7110  152.7130 C   0  0  1  0  0  3  0  0  0  0  0  0
  159.3340  209.7960  156.2720 C   0  0  0  0  0  3  0  0  0  0  0  0
  159.5780  210.1350  154.9390 C   0  0  0  0  0  0  0  0  0  0  0  0
  160.1790  212.9320  150.8890 C   0  0  2  0  0  3  0  0  0  0  0  0
  158.9440  211.2530  154.3800 O   0  0  0  0  0  0  0  0  0  0  0  0
  158.8360  213.2030  151.2460 O   0  0  0  0  0  0  0  0  0  0  0  0
  160.4440  213.4880  149.4870 C   0  0  0  0  0  2  0  0  0  0  0  0
  162.0970  209.4370  152.3280 N   0  0  0  0  0  2  0  0  0  0  0  0
  162.3050  209.7700  150.9150 C   0  0  1  0  0  3  0  0  0  0  0  0
  160.4740  209.3620  154.1650 C   0  0  0  0  0  0  0  0  0  0  0  0
  158.6530  212.9540  152.6300 C   0  0  2  0  0  3  0  0  0  0  0  0
  160.5140  212.1700  148.2370 S   0  0  0  0  0  0  0  0  0  0  0  0
  159.9510  208.6750  156.8350 C   0  0  0  0  0  3  0  0  0  0  0  0
  161.0670  208.2260  154.7330 C   0  0  0  0  0  3  0  0  0  0  0  0
  161.6540  206.2830  149.3960 C   0  0  0  0  0  0  0  0  0  0  0  0
  161.5310  204.9780  149.7510 F   0  0  0  0  0  0  0  0  0  0  0  0
  161.6410  207.9680  147.7050 N   0  0  0  0  0  0  0  0  0  0  0  0
  162.0240  208.6160  149.9790 C   0  0  0  0  0  0  0  0  0  0  0  0
  161.5300  206.6600  148.0540 C   0  0  0  0  0  0  0  0  0  0  0  0
  161.8850  208.9350  148.6260 C   0  0  0  0  0  3  0  0  0  0  0  0
  161.9090  207.2620  150.3690 C   0  0  0  0  0  0  0  0  0  0  0  0
  162.0370  206.8270  151.7890 C   0  0  0  0  0  1  0  0  0  0  0  0
  160.4910  206.2290  145.9810 O   0  0  0  0  0  1  0  0  0  0  0  0
  161.2370  205.6450  147.0040 C   0  0  0  0  0  2  0  0  0  0  0  0
  159.3830  213.9790  153.5030 C   0  0  0  0  0  2  0  0  0  0  0  0
  158.5240  214.4530  154.4940 O   0  0  0  0  0  1  0  0  0  0  0  0
  1  3  1  6  0  0  0
  1 15  1  0  0  0  0
  1  4  1  0  0  0  0
  2  7  1  0  0  0  0
  2  5  1  0  0  0  0
  4  2  1  0  0  0  0
  5 11  1  0  0  0  0
  6 19  1  0  0  0  0
  7 16  1  0  0  0  0
  8 19  2  0  0  0  0
  9  8  1  0  0  0  0
 10  4  1  0  0  0  0
 10 12  1  0  0  0  0
 11  9  1  0  0  0  0
 12 17  1  0  0  0  0
 13 10  1  0  0  0  0
 14  7  1  0  0  0  0
 15 14  1  0  0  0  0
 16 20  1  0  0  0  0
 16  9  2  0  0  0  0
 17  5  1  0  0  0  0
 17 31  1  0  0  0  0
 18  3  1  0  0  0  0
 18 13  1  0  0  0  0
 20  6  2  0  0  0  0
 21 22  1  0  0  0  0
 21 27  1  0  0  0  0
 23 25  1  0  0  0  0
 23 26  2  0  0  0  0
 24 27  2  0  0  0  0
 24 15  1  0  0  0  0
 25 21  2  0  0  0  0
 26 24  1  0  0  0  0
 27 28  1  0  0  0  0
 29 30  1  0  0  0  0
 30 25  1  0  0  0  0
 31 32  1  0  0  0  0
M  END
>  <MODEL>
1

>  <REMARK>
 VINA RESULT:      -6.3      0.000      0.000
  Name = 
  3 active torsions:
  status: ('A' for Active; 'I' for Inactive)
    1  A    between atoms: C_13  and  C_29
    2  A    between atoms: C_16  and  C_27
    3  A    between atoms: CA_19  and  C_26
                            x       y       z     vdW  Elec       q    Type
                         _______ _______ _______ _____ _____    ______ ____

>  <TORSDO>
F 3

$$$$
=
 OpenBabel11062408143D

 32 37  0  0  1  0  0  0  0  0999 V2000
  159.9080  212.5610  154.1260 C   0  0  1  0  0  3  0  0  0  0  0  0
  160.2660  210.1960  154.0860 C   0  0  1  0  0  3  0  0  0  0  0  0
  159.0320  213.7460  154.5680 C   0  0  0  0  0  2  0  0  0  0  0  0
  159.3930  211.2590  154.5920 N   0  0  1  0  0  0  0  0  0  0  0  0
  159.7650  208.8420  154.5730 C   0  0  1  0  0  3  0  0  0  0  0  0
  162.2310  207.8630  150.2330 C   0  0  0  0  0  3  0  0  0  0  0  0
  160.2980  210.1970  152.5540 C   0  0  1  0  0  3  0  0  0  0  0  0
  161.8420  206.7120  152.3290 C   0  0  0  0  0  3  0  0  0  0  0  0
  161.1700  207.8330  152.8240 C   0  0  0  0  0  0  0  0  0  0  0  0
  159.4700  211.1760  156.0670 C   0  0  2  0  0  3  0  0  0  0  0  0
  160.6290  207.8020  154.1160 O   0  0  0  0  0  0  0  0  0  0  0  0
  158.8710  209.9790  156.5270 O   0  0  0  0  0  0  0  0  0  0  0  0
  158.8190  212.3660  156.7790 C   0  0  0  0  0  2  0  0  0  0  0  0
  160.9040  211.4430  152.0880 N   0  0  0  0  0  2  0  0  0  0  0  0
  160.1520  212.5940  152.5970 C   0  0  1  0  0  3  0  0  0  0  0  0
  161.0530  208.9960  152.0290 C   0  0  0  0  0  0  0  0  0  0  0  0
  159.6420  208.8680  156.0990 C   0  0  2  0  0  3  0  0  0  0  0  0
  157.6770  213.2670  155.6900 S   0  0  0  0  0  0  0  0  0  0  0  0
  162.3730  206.7270  151.0360 C   0  0  0  0  0  3  0  0  0  0  0  0
  161.5670  208.9910  150.7250 C   0  0  0  0  0  3  0  0  0  0  0  0
  158.0530  213.7690  149.5800 C   0  0  0  0  0  0  0  0  0  0  0  0
  158.1720  214.0940  148.2670 F   0  0  0  0  0  0  0  0  0  0  0  0
  156.6850  213.4940  151.5170 N   0  0  0  0  0  0  0  0  0  0  0  0
  159.0300  213.0290  151.6820 C   0  0  0  0  0  0  0  0  0  0  0  0
  156.8030  213.8320  150.2070 C   0  0  0  0  0  0  0  0  0  0  0  0
  157.7570  213.1040  152.2540 C   0  0  0  0  0  3  0  0  0  0  0  0
  159.1780  213.3720  150.3180 C   0  0  0  0  0  0  0  0  0  0  0  0
  160.4950  213.3170  149.6210 C   0  0  0  0  0  1  0  0  0  0  0  0
  154.4580  214.0870  150.2460 O   0  0  0  0  0  1  0  0  0  0  0  0
  155.5880  214.2280  149.4410 C   0  0  0  0  0  2  0  0  0  0  0  0
  160.9940  208.7930  156.8140 C   0  0  0  0  0  2  0  0  0  0  0  0
  161.2220  207.4910  157.2610 O   0  0  0  0  0  1  0  0  0  0  0  0
  1  3  1  6  0  0  0
  1  4  1  0  0  0  0
  2  5  1  0  0  0  0
  2  4  1  0  0  0  0
  3 18  1  0  0  0  0
  4 10  1  0  0  0  0
  5 17  1  0  0  0  0
  6 20  2  0  0  0  0
  6 19  1  0  0  0  0
  7  2  1  0  0  0  0
  8  9  1  0  0  0  0
  9 11  1  0  0  0  0
 10 12  1  0  0  0  0
 10 13  1  0  0  0  0
 11  5  1  0  0  0  0
 14  7  1  0  0  0  0
 14 15  1  0  0  0  0
 15  1  1  0  0  0  0
 16  7  1  0  0  0  0
 16  9  2  0  0  0  0
 17 12  1  0  0  0  0
 17 31  1  0  0  0  0
 18 13  1  0  0  0  0
 19  8  2  0  0  0  0
 20 16  1  0  0  0  0
 21 25  2  0  0  0  0
 21 27  1  0  0  0  0
 22 21  1  0  0  0  0
 23 26  2  0  0  0  0
 24 26  1  0  0  0  0
 24 15  1  0  0  0  0
 25 23  1  0  0  0  0
 27 24  2  0  0  0  0
 28 27  1  0  0  0  0
 30 25  1  0  0  0  0
 30 29  1  0  0  0  0
 31 32  1  0  0  0  0
M  END
>  <MODEL>
2

>  <REMARK>
 VINA RESULT:      -6.3      3.443      6.401
  Name = 
  3 active torsions:
  status: ('A' for Active; 'I' for Inactive)
    1  A    between atoms: C_13  and  C_29
    2  A    between atoms: C_16  and  C_27
    3  A    between atoms: CA_19  and  C_26
                            x       y       z     vdW  Elec       q    Type
                         _______ _______ _______ _____ _____    ______ ____

>  <TORSDO>
F 3

$$$$
=
 OpenBabel11062408143D

 32 37  0  0  1  0  0  0  0  0999 V2000
  161.1800  209.4000  155.0760 C   0  0  1  0  0  3  0  0  0  0  0  0
  161.3060  208.7460  152.7780 C   0  0  1  0  0  3  0  0  0  0  0  0
  160.5640  209.1800  156.4680 C   0  0  0  0  0  2  0  0  0  0  0  0
  160.7000  208.4280  154.0740 N   0  0  1  0  0  0  0  0  0  0  0  0
  160.8410  207.7410  151.7310 C   0  0  1  0  0  3  0  0  0  0  0  0
  161.9360  211.9680  149.1210 C   0  0  0  0  0  3  0  0  0  0  0  0
  160.9200  210.1580  152.3240 C   0  0  1  0  0  3  0  0  0  0  0  0
  162.0350  209.5810  148.7190 C   0  0  0  0  0  3  0  0  0  0  0  0
  161.6230  209.3390  150.0320 C   0  0  0  0  0  0  0  0  0  0  0  0
  161.1690  207.0670  154.4160 C   0  0  2  0  0  3  0  0  0  0  0  0
  161.4540  208.0190  150.4730 O   0  0  0  0  0  0  0  0  0  0  0  0
  160.6170  206.1160  153.5250 O   0  0  0  0  0  0  0  0  0  0  0  0
  160.8430  206.6530  155.8540 C   0  0  0  0  0  2  0  0  0  0  0  0
  161.4810  211.1320  153.2580 N   0  0  0  0  0  2  0  0  0  0  0  0
  160.9990  210.8680  154.6170 C   0  0  1  0  0  3  0  0  0  0  0  0
  161.3950  210.4210  150.9130 C   0  0  0  0  0  0  0  0  0  0  0  0
  161.1420  206.3230  152.2230 C   0  0  2  0  0  3  0  0  0  0  0  0
  159.5290  207.6820  156.5750 S   0  0  0  0  0  0  0  0  0  0  0  0
  162.1920  210.8930  148.2640 C   0  0  0  0  0  3  0  0  0  0  0  0
  161.5320  211.7320  150.4390 C   0  0  0  0  0  3  0  0  0  0  0  0
  158.2810  213.0800  156.2320 C   0  0  0  0  0  0  0  0  0  0  0  0
  158.0910  213.9460  157.2610 F   0  0  0  0  0  0  0  0  0  0  0  0
  157.4210  211.9200  154.3310 N   0  0  0  0  0  0  0  0  0  0  0  0
  159.7120  211.5890  154.9470 C   0  0  0  0  0  0  0  0  0  0  0  0
  157.2230  212.7770  155.3670 C   0  0  0  0  0  0  0  0  0  0  0  0
  158.6230  211.3290  154.1120 C   0  0  0  0  0  3  0  0  0  0  0  0
  159.5340  212.4810  156.0300 C   0  0  0  0  0  0  0  0  0  0  0  0
  160.6380  212.8240  156.9710 C   0  0  0  0  0  1  0  0  0  0  0  0
  155.2740  213.5700  154.3020 O   0  0  0  0  0  1  0  0  0  0  0  0
  155.8900  213.4160  155.5440 C   0  0  0  0  0  2  0  0  0  0  0  0
  162.6260  205.9560  152.1350 C   0  0  0  0  0  2  0  0  0  0  0  0
  162.7610  204.6140  151.7770 O   0  0  0  0  0  1  0  0  0  0  0  0
  1  3  1  1  0  0  0
  2  4  1  0  0  0  0
  3 18  1  0  0  0  0
  4 10  1  0  0  0  0
  4  1  1  0  0  0  0
  5 17  1  0  0  0  0
  5  2  1  0  0  0  0
  6 20  1  0  0  0  0
  7  2  1  0  0  0  0
  7 14  1  0  0  0  0
  8  9  2  0  0  0  0
  9 11  1  0  0  0  0
  9 16  1  0  0  0  0
 10 13  1  0  0  0  0
 11  5  1  0  0  0  0
 12 10  1  0  0  0  0
 13 18  1  0  0  0  0
 14 15  1  0  0  0  0
 15 24  1  0  0  0  0
 15  1  1  0  0  0  0
 16  7  1  0  0  0  0
 17 12  1  0  0  0  0
 19  8  1  0  0  0  0
 19  6  2  0  0  0  0
 20 16  2  0  0  0  0
 21 22  1  0  0  0  0
 23 25  1  0  0  0  0
 24 27  2  0  0  0  0
 25 30  1  0  0  0  0
 25 21  2  0  0  0  0
 26 23  2  0  0  0  0
 26 24  1  0  0  0  0
 27 21  1  0  0  0  0
 27 28  1  0  0  0  0
 29 30  1  0  0  0  0
 31 17  1  0  0  0  0
 32 31  1  0  0  0  0
M  END
>  <MODEL>
3

>  <REMARK>
 VINA RESULT:      -6.1      3.757      7.850
  Name = 
  3 active torsions:
  status: ('A' for Active; 'I' for Inactive)
    1  A    between atoms: C_13  and  C_29
    2  A    between atoms: C_16  and  C_27
    3  A    between atoms: CA_19  and  C_26
                            x       y       z     vdW  Elec       q    Type
                         _______ _______ _______ _____ _____    ______ ____

>  <TORSDO>
F 3

$$$$
=
 OpenBabel11062408143D

 32 37  0  0  1  0  0  0  0  0999 V2000
  162.1970  209.2580  152.3130 C   0  0  1  0  0  3  0  0  0  0  0  0
  161.4710  207.2390  151.2560 C   0  0  1  0  0  3  0  0  0  0  0  0
  161.9640  210.3280  153.3940 C   0  0  0  0  0  2  0  0  0  0  0  0
  161.1910  208.1790  152.3450 N   0  0  1  0  0  0  0  0  0  0  0  0
  160.4560  206.1020  151.2820 C   0  0  1  0  0  3  0  0  0  0  0  0
  161.9520  206.4320  146.4320 C   0  0  0  0  0  3  0  0  0  0  0  0
  161.4020  207.9410  149.8960 C   0  0  1  0  0  3  0  0  0  0  0  0
  161.2310  204.6710  147.9310 C   0  0  0  0  0  3  0  0  0  0  0  0
  161.1560  205.5900  148.9810 C   0  0  0  0  0  0  0  0  0  0  0  0
  161.3190  207.3980  153.5950 C   0  0  2  0  0  3  0  0  0  0  0  0
  160.7410  205.1610  150.2490 O   0  0  0  0  0  0  0  0  0  0  0  0
  160.2840  206.4360  153.6850 O   0  0  0  0  0  0  0  0  0  0  0  0
  161.3060  208.2640  154.8590 C   0  0  0  0  0  2  0  0  0  0  0  0
  162.4640  208.9420  149.8180 N   0  0  0  0  0  2  0  0  0  0  0  0
  162.3310  209.9070  150.9130 C   0  0  1  0  0  3  0  0  0  0  0  0
  161.5130  206.9410  148.7660 C   0  0  0  0  0  0  0  0  0  0  0  0
  160.4560  205.4580  152.6720 C   0  0  2  0  0  3  0  0  0  0  0  0
  160.6120  209.9140  154.5440 S   0  0  0  0  0  0  0  0  0  0  0  0
  161.6290  205.0910  146.6590 C   0  0  0  0  0  3  0  0  0  0  0  0
  161.8870  207.3550  147.4800 C   0  0  0  0  0  3  0  0  0  0  0  0
  160.7060  212.9540  149.1900 C   0  0  0  0  0  0  0  0  0  0  0  0
  160.7940  213.7070  148.0630 F   0  0  0  0  0  0  0  0  0  0  0  0
  159.6530  212.4930  151.2820 N   0  0  0  0  0  0  0  0  0  0  0  0
  161.4600  211.0930  150.5640 C   0  0  0  0  0  0  0  0  0  0  0  0
  159.7470  213.2570  150.1630 C   0  0  0  0  0  0  0  0  0  0  0  0
  160.4790  211.4380  151.4980 C   0  0  0  0  0  3  0  0  0  0  0  0
  161.5750  211.8700  149.3890 C   0  0  0  0  0  0  0  0  0  0  0  0
  162.5860  211.5750  148.3340 C   0  0  0  0  0  1  0  0  0  0  0  0
  157.7300  213.9710  149.1700 O   0  0  0  0  0  1  0  0  0  0  0  0
  158.7960  214.3870  149.9660 C   0  0  0  0  0  2  0  0  0  0  0  0
  161.6790  204.5730  152.9260 C   0  0  0  0  0  2  0  0  0  0  0  0
  161.4650  203.3050  152.3860 O   0  0  0  0  0  1  0  0  0  0  0  0
  1  4  1  0  0  0  0
  1  3  1  1  0  0  0
  2  5  1  0  0  0  0
  2  4  1  0  0  0  0
  3 18  1  0  0  0  0
  4 10  1  0  0  0  0
  5 17  1  0  0  0  0
  6 19  2  0  0  0  0
  6 20  1  0  0  0  0
  7  2  1  0  0  0  0
  8  9  2  0  0  0  0
  9 11  1  0  0  0  0
 10 12  1  0  0  0  0
 10 13  1  0  0  0  0
 11  5  1  0  0  0  0
 14  7  1  0  0  0  0
 14 15  1  0  0  0  0
 15  1  1  0  0  0  0
 16  9  1  0  0  0  0
 16  7  1  0  0  0  0
 17 31  1  0  0  0  0
 17 12  1  0  0  0  0
 18 13  1  0  0  0  0
 19  8  1  0  0  0  0
 20 16  2  0  0  0  0
 21 27  2  0  0  0  0
 21 25  1  0  0  0  0
 22 21  1  0  0  0  0
 23 26  1  0  0  0  0
 24 15  1  0  0  0  0
 24 26  2  0  0  0  0
 25 23  2  0  0  0  0
 27 24  1  0  0  0  0
 28 27  1  0  0  0  0
 29 30  1  0  0  0  0
 30 25  1  0  0  0  0
 32 31  1  0  0  0  0
M  END
>  <MODEL>
4

>  <REMARK>
 VINA RESULT:      -6.0      2.934      7.028
  Name = 
  3 active torsions:
  status: ('A' for Active; 'I' for Inactive)
    1  A    between atoms: C_13  and  C_29
    2  A    between atoms: C_16  and  C_27
    3  A    between atoms: CA_19  and  C_26
                            x       y       z     vdW  Elec       q    Type
                         _______ _______ _______ _____ _____    ______ ____

>  <TORSDO>
F 3

$$$$
=
 OpenBabel11062408143D

 32 37  0  0  1  0  0  0  0  0999 V2000
  162.5690  209.4240  150.4260 C   0  0  1  0  0  3  0  0  0  0  0  0
  161.7150  207.2590  149.8710 C   0  0  1  0  0  3  0  0  0  0  0  0
  162.3860  210.7500  151.1860 C   0  0  0  0  0  2  0  0  0  0  0  0
  161.4740  208.4650  150.6690 N   0  0  1  0  0  0  0  0  0  0  0  0
  160.6070  206.2440  150.1230 C   0  0  1  0  0  3  0  0  0  0  0  0
  162.3160  205.2100  145.4460 C   0  0  0  0  0  3  0  0  0  0  0  0
  161.7600  207.5920  148.3760 C   0  0  1  0  0  3  0  0  0  0  0  0
  161.3890  203.9490  147.2940 C   0  0  0  0  0  3  0  0  0  0  0  0
  161.3510  205.1100  148.0720 C   0  0  0  0  0  0  0  0  0  0  0  0
  161.4850  208.0240  152.0810 C   0  0  2  0  0  3  0  0  0  0  0  0
  160.8510  205.0520  149.3800 O   0  0  0  0  0  0  0  0  0  0  0  0
  160.3690  207.1950  152.3480 O   0  0  0  0  0  0  0  0  0  0  0  0
  161.4970  209.1840  153.0820 C   0  0  0  0  0  2  0  0  0  0  0  0
  162.9070  208.4600  148.1120 N   0  0  0  0  0  2  0  0  0  0  0  0
  162.8140  209.6810  148.9180 C   0  0  1  0  0  3  0  0  0  0  0  0
  161.8310  206.3300  147.5440 C   0  0  0  0  0  0  0  0  0  0  0  0
  160.4970  205.9800  151.6280 C   0  0  2  0  0  3  0  0  0  0  0  0
  160.9590  210.7430  152.3200 S   0  0  0  0  0  0  0  0  0  0  0  0
  161.8710  203.9990  145.9840 C   0  0  0  0  0  3  0  0  0  0  0  0
  162.2890  206.3730  146.2210 C   0  0  0  0  0  3  0  0  0  0  0  0
  161.7840  213.0240  147.2900 C   0  0  0  0  0  0  0  0  0  0  0  0
  162.2800  214.2510  146.9800 F   0  0  0  0  0  0  0  0  0  0  0  0
  159.9690  211.4740  147.2780 N   0  0  0  0  0  0  0  0  0  0  0  0
  162.0610  210.7980  148.2300 C   0  0  0  0  0  0  0  0  0  0  0  0
  160.4570  212.7060  146.9780 C   0  0  0  0  0  0  0  0  0  0  0  0
  160.7320  210.5320  147.8900 C   0  0  0  0  0  3  0  0  0  0  0  0
  162.5940  212.0710  147.9250 C   0  0  0  0  0  0  0  0  0  0  0  0
  164.0020  212.4430  148.2440 C   0  0  0  0  0  1  0  0  0  0  0  0
  159.8560  213.6780  144.9150 O   0  0  0  0  0  1  0  0  0  0  0  0
  159.5820  213.6900  146.2820 C   0  0  0  0  0  2  0  0  0  0  0  0
  161.6290  205.1030  152.1700 C   0  0  0  0  0  2  0  0  0  0  0  0
  161.1550  203.8130  152.4070 O   0  0  0  0  0  1  0  0  0  0  0  0
  1  4  1  0  0  0  0
  1  3  1  1  0  0  0
  2  5  1  0  0  0  0
  2  4  1  0  0  0  0
  3 18  1  0  0  0  0
  4 10  1  0  0  0  0
  5 17  1  0  0  0  0
  6 19  2  0  0  0  0
  6 20  1  0  0  0  0
  7  2  1  0  0  0  0
  8  9  2  0  0  0  0
  9 11  1  0  0  0  0
 10 12  1  0  0  0  0
 10 13  1  0  0  0  0
 11  5  1  0  0  0  0
 14  7  1  0  0  0  0
 14 15  1  0  0  0  0
 15  1  1  0  0  0  0
 16  9  1  0  0  0  0
 16  7  1  0  0  0  0
 17 31  1  0  0  0  0
 17 12  1  0  0  0  0
 18 13  1  0  0  0  0
 19  8  1  0  0  0  0
 20 16  2  0  0  0  0
 21 27  1  0  0  0  0
 22 21  1  0  0  0  0
 23 26  2  0  0  0  0
 24 15  1  0  0  0  0
 25 23  1  0  0  0  0
 25 21  2  0  0  0  0
 26 24  1  0  0  0  0
 27 24  2  0  0  0  0
 27 28  1  0  0  0  0
 29 30  1  0  0  0  0
 30 25  1  0  0  0  0
 31 32  1  0  0  0  0
M  END
>  <MODEL>
5

>  <REMARK>
 VINA RESULT:      -4.9      3.593      7.034
  Name = 
  3 active torsions:
  status: ('A' for Active; 'I' for Inactive)
    1  A    between atoms: C_13  and  C_29
    2  A    between atoms: C_16  and  C_27
    3  A    between atoms: CA_19  and  C_26
                            x       y       z     vdW  Elec       q    Type
                         _______ _______ _______ _____ _____    ______ ____

>  <TORSDO>
F 3

$$$$
=
 OpenBabel11062408143D

 32 37  0  0  1  0  0  0  0  0999 V2000
  160.2300  213.1350  152.2270 C   0  0  1  0  0  3  0  0  0  0  0  0
  160.2570  210.8690  152.9930 C   0  0  1  0  0  3  0  0  0  0  0  0
  159.4530  214.4530  152.0590 C   0  0  0  0  0  2  0  0  0  0  0  0
  159.4520  212.0920  152.9230 N   0  0  1  0  0  0  0  0  0  0  0  0
  159.4810  209.7830  153.7280 C   0  0  1  0  0  3  0  0  0  0  0  0
  162.6530  207.2850  150.6360 C   0  0  0  0  0  3  0  0  0  0  0  0
  160.6140  210.3680  151.5900 C   0  0  1  0  0  3  0  0  0  0  0  0
  161.6710  206.9110  152.8180 C   0  0  0  0  0  3  0  0  0  0  0  0
  161.0710  208.1720  152.7690 C   0  0  0  0  0  0  0  0  0  0  0  0
  159.2010  212.4920  154.3250 C   0  0  2  0  0  3  0  0  0  0  0  0
  160.2690  208.5990  153.8350 O   0  0  0  0  0  0  0  0  0  0  0  0
  158.3580  211.5510  154.9640 O   0  0  0  0  0  0  0  0  0  0  0  0
  158.5850  213.8880  154.4610 C   0  0  0  0  0  2  0  0  0  0  0  0
  161.4720  211.3520  150.9330 N   0  0  0  0  0  2  0  0  0  0  0  0
  160.7960  212.6510  150.8690 C   0  0  1  0  0  3  0  0  0  0  0  0
  161.2890  209.0160  151.6560 C   0  0  0  0  0  0  0  0  0  0  0  0
  159.0410  210.3150  155.0960 C   0  0  2  0  0  3  0  0  0  0  0  0
  157.8370  214.4530  152.9030 S   0  0  0  0  0  0  0  0  0  0  0  0
  162.4620  206.4680  151.7540 C   0  0  0  0  0  3  0  0  0  0  0  0
  162.0630  208.5520  150.5840 C   0  0  0  0  0  3  0  0  0  0  0  0
  159.5840  212.9720  147.2190 C   0  0  0  0  0  0  0  0  0  0  0  0
  160.0400  212.9120  145.9410 F   0  0  0  0  0  0  0  0  0  0  0  0
  157.7770  213.2790  148.7490 N   0  0  0  0  0  0  0  0  0  0  0  0
  159.9650  212.8330  149.6180 C   0  0  0  0  0  0  0  0  0  0  0  0
  158.2320  213.2330  147.4700 C   0  0  0  0  0  0  0  0  0  0  0  0
  158.6050  213.0910  149.8090 C   0  0  0  0  0  3  0  0  0  0  0  0
  160.4620  212.7760  148.2950 C   0  0  0  0  0  0  0  0  0  0  0  0
  161.8960  212.5020  147.9940 C   0  0  0  0  0  1  0  0  0  0  0  0
  156.0680  213.9220  146.8340 O   0  0  0  0  0  1  0  0  0  0  0  0
  157.2730  213.4210  146.3450 C   0  0  0  0  0  2  0  0  0  0  0  0
  160.1850  210.3930  156.1090 C   0  0  0  0  0  2  0  0  0  0  0  0
  159.7900  211.1510  157.2110 O   0  0  0  0  0  1  0  0  0  0  0  0
  1  3  1  6  0  0  0
  1  4  1  0  0  0  0
  2  5  1  0  0  0  0
  3 18  1  0  0  0  0
  4  2  1  0  0  0  0
  4 10  1  0  0  0  0
  5 11  1  0  0  0  0
  5 17  1  0  0  0  0
  6 19  1  0  0  0  0
  7 16  1  0  0  0  0
  7  2  1  0  0  0  0
  9  8  1  0  0  0  0
  9 11  1  0  0  0  0
 10 13  1  0  0  0  0
 10 12  1  0  0  0  0
 12 17  1  0  0  0  0
 14  7  1  0  0  0  0
 15 14  1  0  0  0  0
 15  1  1  0  0  0  0
 16  9  2  0  0  0  0
 17 31  1  0  0  0  0
 18 13  1  0  0  0  0
 19  8  2  0  0  0  0
 20  6  2  0  0  0  0
 20 16  1  0  0  0  0
 21 25  2  0  0  0  0
 21 27  1  0  0  0  0
 22 21  1  0  0  0  0
 23 26  2  0  0  0  0
 24 26  1  0  0  0  0
 24 15  1  0  0  0  0
 25 23  1  0  0  0  0
 27 24  2  0  0  0  0
 28 27  1  0  0  0  0
 30 29  1  0  0  0  0
 30 25  1  0  0  0  0
 31 32  1  0  0  0  0
M  END
>  <MODEL>
6

>  <REMARK>
 VINA RESULT:      -4.3      3.086      5.219
  Name = 
  3 active torsions:
  status: ('A' for Active; 'I' for Inactive)
    1  A    between atoms: C_13  and  C_29
    2  A    between atoms: C_16  and  C_27
    3  A    between atoms: CA_19  and  C_26
                            x       y       z     vdW  Elec       q    Type
                         _______ _______ _______ _____ _____    ______ ____

>  <TORSDO>
F 3

$$$$
=
 OpenBabel11062408143D

 32 37  0  0  1  0  0  0  0  0999 V2000
  162.0240  210.3470  151.4080 C   0  0  1  0  0  3  0  0  0  0  0  0
  160.1090  211.5170  152.2350 C   0  0  1  0  0  3  0  0  0  0  0  0
  162.7330  209.6630  150.2260 C   0  0  0  0  0  2  0  0  0  0  0  0
  160.7210  210.9330  151.0380 N   0  0  1  0  0  0  0  0  0  0  0  0
  158.7700  212.1490  151.8720 C   0  0  1  0  0  3  0  0  0  0  0  0
  158.3570  210.8890  156.7820 C   0  0  0  0  0  3  0  0  0  0  0  0
  159.8850  210.4510  153.3120 C   0  0  1  0  0  3  0  0  0  0  0  0
  157.5000  212.6360  155.3400 C   0  0  0  0  0  3  0  0  0  0  0  0
  158.2530  212.1330  154.2760 C   0  0  0  0  0  0  0  0  0  0  0  0
  160.9150  212.0550  150.0940 C   0  0  2  0  0  3  0  0  0  0  0  0
  158.1810  212.7540  153.0220 O   0  0  0  0  0  0  0  0  0  0  0  0
  159.6650  212.5460  149.6460 O   0  0  0  0  0  0  0  0  0  0  0  0
  161.7720  211.6880  148.8790 C   0  0  0  0  0  2  0  0  0  0  0  0
  161.1800  209.9400  153.7570 N   0  0  0  0  0  2  0  0  0  0  0  0
  161.9250  209.3890  152.6210 C   0  0  1  0  0  3  0  0  0  0  0  0
  159.0940  211.0140  154.4720 C   0  0  0  0  0  0  0  0  0  0  0  0
  158.9760  213.1480  150.7300 C   0  0  2  0  0  3  0  0  0  0  0  0
  161.8700  209.8900  148.6350 S   0  0  0  0  0  0  0  0  0  0  0  0
  157.5520  212.0160  156.5910 C   0  0  0  0  0  3  0  0  0  0  0  0
  159.1190  210.3850  155.7240 C   0  0  0  0  0  3  0  0  0  0  0  0
  161.1030  205.6400  153.0250 C   0  0  0  0  0  0  0  0  0  0  0  0
  160.7800  204.7210  153.9720 F   0  0  0  0  0  0  0  0  0  0  0  0
  161.5300  206.1800  150.7390 N   0  0  0  0  0  0  0  0  0  0  0  0
  161.6510  207.9210  152.3800 C   0  0  0  0  0  0  0  0  0  0  0  0
  161.2190  205.2550  151.6840 C   0  0  0  0  0  0  0  0  0  0  0  0
  161.7470  207.4810  151.0570 C   0  0  0  0  0  3  0  0  0  0  0  0
  161.3250  206.9790  153.3820 C   0  0  0  0  0  0  0  0  0  0  0  0
  161.1950  207.3550  154.8190 C   0  0  0  0  0  1  0  0  0  0  0  0
  160.7560  203.7880  149.8970 O   0  0  0  0  0  1  0  0  0  0  0  0
  160.9650  203.8460  151.2740 C   0  0  0  0  0  2  0  0  0  0  0  0
  159.6390  214.4520  151.1820 C   0  0  0  0  0  2  0  0  0  0  0  0
  160.9830  214.4530  150.8100 O   0  0  0  0  0  1  0  0  0  0  0  0
  1  3  1  6  0  0  0
  1 15  1  0  0  0  0
  2  7  1  0  0  0  0
  4  1  1  0  0  0  0
  4  2  1  0  0  0  0
  5  2  1  0  0  0  0
  5 11  1  0  0  0  0
  7 14  1  0  0  0  0
  7 16  1  0  0  0  0
  8 19  2  0  0  0  0
  9 16  2  0  0  0  0
  9  8  1  0  0  0  0
 10  4  1  0  0  0  0
 11  9  1  0  0  0  0
 12 10  1  0  0  0  0
 12 17  1  0  0  0  0
 13 10  1  0  0  0  0
 15 14  1  0  0  0  0
 16 20  1  0  0  0  0
 17 31  1  0  0  0  0
 17  5  1  0  0  0  0
 18 13  1  0  0  0  0
 18  3  1  0  0  0  0
 19  6  1  0  0  0  0
 20  6  2  0  0  0  0
 21 27  1  0  0  0  0
 21 22  1  0  0  0  0
 23 26  2  0  0  0  0
 23 25  1  0  0  0  0
 24 15  1  0  0  0  0
 24 27  2  0  0  0  0
 25 21  2  0  0  0  0
 26 24  1  0  0  0  0
 27 28  1  0  0  0  0
 29 30  1  0  0  0  0
 30 25  1  0  0  0  0
 32 31  1  0  0  0  0
M  END
>  <MODEL>
7

>  <REMARK>
 VINA RESULT:      -3.8      2.132      2.910
  Name = 
  3 active torsions:
  status: ('A' for Active; 'I' for Inactive)
    1  A    between atoms: C_13  and  C_29
    2  A    between atoms: C_16  and  C_27
    3  A    between atoms: CA_19  and  C_26
                            x       y       z     vdW  Elec       q    Type
                         _______ _______ _______ _____ _____    ______ ____

>  <TORSDO>
F 3

$$$$
=
 OpenBabel11062408143D

 32 37  0  0  1  0  0  0  0  0999 V2000
  162.2850  208.4330  152.5250 C   0  0  1  0  0  3  0  0  0  0  0  0
  161.8750  209.0070  150.2390 C   0  0  1  0  0  3  0  0  0  0  0  0
  161.9520  207.5370  153.7310 C   0  0  0  0  0  2  0  0  0  0  0  0
  161.5230  208.0740  151.3130 N   0  0  1  0  0  0  0  0  0  0  0  0
  161.1160  208.6420  148.9700 C   0  0  1  0  0  3  0  0  0  0  0  0
  162.0250  213.6310  148.5830 C   0  0  0  0  0  3  0  0  0  0  0  0
  161.5320  210.4480  150.6320 C   0  0  1  0  0  3  0  0  0  0  0  0
  161.8230  211.7610  147.0580 C   0  0  0  0  0  3  0  0  0  0  0  0
  161.6710  210.8890  148.1400 C   0  0  0  0  0  0  0  0  0  0  0  0
  161.9280  206.7340  150.8330 C   0  0  2  0  0  3  0  0  0  0  0  0
  161.4790  209.5210  147.9070 O   0  0  0  0  0  0  0  0  0  0  0  0
  161.1200  206.3360  149.7410 O   0  0  0  0  0  0  0  0  0  0  0  0
  161.8690  205.6540  151.9180 C   0  0  0  0  0  2  0  0  0  0  0  0
  162.3600  210.8450  151.7690 N   0  0  0  0  0  2  0  0  0  0  0  0
  162.1470  209.9310  152.8950 C   0  0  1  0  0  3  0  0  0  0  0  0
  161.7280  211.3870  149.4620 C   0  0  0  0  0  0  0  0  0  0  0  0
  161.3830  207.1730  148.6260 C   0  0  2  0  0  3  0  0  0  0  0  0
  160.8310  206.1590  153.3220 S   0  0  0  0  0  0  0  0  0  0  0  0
  162.0010  213.1290  147.2790 C   0  0  0  0  0  3  0  0  0  0  0  0
  161.8820  212.7640  149.6710 C   0  0  0  0  0  3  0  0  0  0  0  0
  160.0390  211.0260  155.9360 C   0  0  0  0  0  0  0  0  0  0  0  0
  160.1540  211.3070  157.2600 F   0  0  0  0  0  0  0  0  0  0  0  0
  158.6850  210.8440  153.9790 N   0  0  0  0  0  0  0  0  0  0  0  0
  161.0250  210.3620  153.8140 C   0  0  0  0  0  0  0  0  0  0  0  0
  158.7930  211.1140  155.3060 C   0  0  0  0  0  0  0  0  0  0  0  0
  159.7580  210.4730  153.2360 C   0  0  0  0  0  3  0  0  0  0  0  0
  161.1650  210.6420  155.1920 C   0  0  0  0  0  0  0  0  0  0  0  0
  162.4780  210.5550  155.8940 C   0  0  0  0  0  1  0  0  0  0  0  0
  156.6710  212.1380  155.2000 O   0  0  0  0  0  1  0  0  0  0  0  0
  157.5860  211.5420  156.0670 C   0  0  0  0  0  2  0  0  0  0  0  0
  162.7770  206.9340  148.0410 C   0  0  0  0  0  2  0  0  0  0  0  0
  162.7060  205.9820  147.0240 O   0  0  0  0  0  1  0  0  0  0  0  0
  1 15  1  0  0  0  0
  1  3  1  1  0  0  0
  2  7  1  0  0  0  0
  2  4  1  0  0  0  0
  4  1  1  0  0  0  0
  5  2  1  0  0  0  0
  6 20  1  0  0  0  0
  7 14  1  0  0  0  0
  8 19  1  0  0  0  0
  8  9  2  0  0  0  0
  9 16  1  0  0  0  0
 10  4  1  0  0  0  0
 10 13  1  0  0  0  0
 11  9  1  0  0  0  0
 11  5  1  0  0  0  0
 12 10  1  0  0  0  0
 13 18  1  0  0  0  0
 14 15  1  0  0  0  0
 15 24  1  0  0  0  0
 16 20  2  0  0  0  0
 16  7  1  0  0  0  0
 17  5  1  0  0  0  0
 17 12  1  0  0  0  0
 18  3  1  0  0  0  0
 19  6  2  0  0  0  0
 21 22  1  0  0  0  0
 23 25  2  0  0  0  0
 24 27  1  0  0  0  0
 25 21  1  0  0  0  0
 25 30  1  0  0  0  0
 26 24  2  0  0  0  0
 26 23  1  0  0  0  0
 27 28  1  0  0  0  0
 27 21  2  0  0  0  0
 29 30  1  0  0  0  0
 31 17  1  0  0  0  0
 32 31  1  0  0  0  0
M  END
>  <MODEL>
8

>  <REMARK>
 VINA RESULT:      -3.7      2.999      7.486
  Name = 
  3 active torsions:
  status: ('A' for Active; 'I' for Inactive)
    1  A    between atoms: C_13  and  C_29
    2  A    between atoms: C_16  and  C_27
    3  A    between atoms: CA_19  and  C_26
                            x       y       z     vdW  Elec       q    Type
                         _______ _______ _______ _____ _____    ______ ____

>  <TORSDO>
F 3

$$$$
=
 OpenBabel11062408143D

 32 37  0  0  1  0  0  0  0  0999 V2000
  160.6410  209.3370  151.2110 C   0  0  1  0  0  3  0  0  0  0  0  0
  161.4040  207.2570  150.3060 C   0  0  1  0  0  3  0  0  0  0  0  0
  160.8870  210.8400  151.4290 C   0  0  0  0  0  2  0  0  0  0  0  0
  161.7050  208.6870  150.4200 N   0  0  1  0  0  0  0  0  0  0  0  0
  162.4790  206.5690  149.4740 C   0  0  1  0  0  3  0  0  0  0  0  0
  160.6410  202.9420  152.5300 C   0  0  0  0  0  3  0  0  0  0  0  0
  161.3410  206.5990  151.6880 C   0  0  1  0  0  3  0  0  0  0  0  0
  161.5580  203.0530  150.2910 C   0  0  0  0  0  3  0  0  0  0  0  0
  161.6540  204.4430  150.3940 C   0  0  0  0  0  0  0  0  0  0  0  0
  161.7060  209.2120  149.0370 C   0  0  2  0  0  3  0  0  0  0  0  0
  162.1770  205.1830  149.3250 O   0  0  0  0  0  0  0  0  0  0  0  0
  162.7960  208.6790  148.3070 O   0  0  0  0  0  0  0  0  0  0  0  0
  161.7560  210.7410  148.9640 C   0  0  0  0  0  2  0  0  0  0  0  0
  160.2230  207.1660  152.4400 N   0  0  0  0  0  2  0  0  0  0  0  0
  160.3760  208.6190  152.5580 C   0  0  1  0  0  3  0  0  0  0  0  0
  161.2090  205.0970  151.5660 C   0  0  0  0  0  0  0  0  0  0  0  0
  162.6100  207.2840  148.1260 C   0  0  2  0  0  3  0  0  0  0  0  0
  162.3360  211.4750  150.5220 S   0  0  0  0  0  0  0  0  0  0  0  0
  161.0520  202.3040  151.3560 C   0  0  0  0  0  3  0  0  0  0  0  0
  160.7260  204.3340  152.6370 C   0  0  0  0  0  3  0  0  0  0  0  0
  161.9510  208.8430  156.0740 C   0  0  0  0  0  0  0  0  0  0  0  0
  162.0070  208.1750  157.2550 F   0  0  0  0  0  0  0  0  0  0  0  0
  162.5990  210.7040  154.7270 N   0  0  0  0  0  0  0  0  0  0  0  0
  161.1550  209.0420  153.7830 C   0  0  0  0  0  0  0  0  0  0  0  0
  162.6480  210.0460  155.9140 C   0  0  0  0  0  0  0  0  0  0  0  0
  161.8760  210.2350  153.6790 C   0  0  0  0  0  3  0  0  0  0  0  0
  161.1930  208.3360  155.0070 C   0  0  0  0  0  0  0  0  0  0  0  0
  160.4610  207.0530  155.2110 C   0  0  0  0  0  1  0  0  0  0  0  0
  164.4510  211.4480  156.5020 O   0  0  0  0  0  1  0  0  0  0  0  0
  163.4790  210.5950  157.0220 C   0  0  0  0  0  2  0  0  0  0  0  0
  161.4580  206.9760  147.1660 C   0  0  0  0  0  2  0  0  0  0  0  0
  161.9230  206.2050  146.1010 O   0  0  0  0  0  1  0  0  0  0  0  0
  1  3  1  1  0  0  0
  1 15  1  0  0  0  0
  2  4  1  0  0  0  0
  2  7  1  0  0  0  0
  4  1  1  0  0  0  0
  5  2  1  0  0  0  0
  6 20  1  0  0  0  0
  7 14  1  0  0  0  0
  8  9  2  0  0  0  0
  8 19  1  0  0  0  0
  9 16  1  0  0  0  0
 10  4  1  0  0  0  0
 11  5  1  0  0  0  0
 11  9  1  0  0  0  0
 12 10  1  0  0  0  0
 13 10  1  0  0  0  0
 13 18  1  0  0  0  0
 14 15  1  0  0  0  0
 15 24  1  0  0  0  0
 16  7  1  0  0  0  0
 16 20  2  0  0  0  0
 17 12  1  0  0  0  0
 17  5  1  0  0  0  0
 18  3  1  0  0  0  0
 19  6  2  0  0  0  0
 21 22  1  0  0  0  0
 23 25  2  0  0  0  0
 24 27  1  0  0  0  0
 25 21  1  0  0  0  0
 25 30  1  0  0  0  0
 26 24  2  0  0  0  0
 26 23  1  0  0  0  0
 27 28  1  0  0  0  0
 27 21  2  0  0  0  0
 29 30  1  0  0  0  0
 31 17  1  0  0  0  0
 32 31  1  0  0  0  0
M  END
>  <MODEL>
9

>  <REMARK>
 VINA RESULT:      -3.7      3.109      6.843
  Name = 
  3 active torsions:
  status: ('A' for Active; 'I' for Inactive)
    1  A    between atoms: C_13  and  C_29
    2  A    between atoms: C_16  and  C_27
    3  A    between atoms: CA_19  and  C_26
                            x       y       z     vdW  Elec       q    Type
                         _______ _______ _______ _____ _____    ______ ____

>  <TORSDO>
F 3

$$$$
