=
 OpenBabel11052423173D

 27 32  0  0  0  0  0  0  0  0999 V2000
  161.3430  207.9630  151.6870 C   0  0  0  0  0  0  0  0  0  0  0  0
  161.2290  206.6640  151.2840 C   0  0  0  0  0  0  0  0  0  0  0  0
  161.6450  207.2060  149.0330 N   0  0  0  0  0  0  0  0  0  0  0  0
  160.7910  202.6280  150.5780 C   0  0  0  0  0  3  0  0  0  0  0  0
  160.9210  202.1240  149.2800 C   0  0  0  0  0  0  0  0  0  0  0  0
  160.9580  205.8130  152.3090 C   0  0  0  0  0  0  0  0  0  0  0  0
  160.6290  207.3040  155.8000 C   0  0  0  0  0  0  0  0  0  0  0  0
  161.3510  204.3560  148.4300 C   0  0  0  0  0  3  0  0  0  0  0  0
  161.1190  207.9450  153.1420 C   0  0  0  0  0  0  0  0  0  0  0  0
  162.1770  210.8360  148.7490 C   0  0  0  0  0  0  0  0  0  0  0  0
  160.6350  206.2740  154.8440 C   0  0  0  0  0  3  0  0  0  0  0  0
  161.1990  202.9840  148.2120 C   0  0  0  0  0  3  0  0  0  0  0  0
  162.4540  211.7800  147.7690 O   0  0  0  0  0  1  0  0  0  0  0  0
  161.2250  204.8770  149.7220 C   0  0  0  0  0  0  0  0  0  0  0  0
  160.8840  206.6240  153.5200 C   0  0  0  0  0  0  0  0  0  0  0  0
  160.7750  200.7960  149.0550 F   0  0  0  0  0  0  0  0  0  0  0  0
  160.9390  203.9940  150.8190 C   0  0  0  0  0  0  0  0  0  0  0  0
  161.6210  208.9500  150.7390 C   0  0  0  0  0  0  0  0  0  0  0  0
  161.3720  206.2560  149.9780 C   0  0  0  0  0  0  0  0  0  0  0  0
  162.0480  209.4880  148.3980 C   0  0  0  0  0  3  0  0  0  0  0  0
  160.8100  204.4800  152.0990 N   0  0  0  0  0  0  0  0  0  0  0  0
  162.0290  211.2390  150.0810 C   0  0  0  0  0  3  0  0  0  0  0  0
  160.3860  207.0030  157.1340 O   0  0  0  0  0  1  0  0  0  0  0  0
  161.7510  210.2990  151.0790 C   0  0  0  0  0  3  0  0  0  0  0  0
  160.8680  208.6430  155.4190 C   0  0  0  0  0  3  0  0  0  0  0  0
  161.7700  208.5330  149.3790 C   0  0  0  0  0  0  0  0  0  0  0  0
  161.1170  208.9770  154.0760 C   0  0  0  0  0  3  0  0  0  0  0  0
  1  9  1  0  0  0  0
  2  1  1  0  0  0  0
  2  6  1  0  0  0  0
  3 26  2  0  0  0  0
  3 19  1  0  0  0  0
  4 17  1  0  0  0  0
  5  4  2  0  0  0  0
  6 15  1  0  0  0  0
  7 23  1  0  0  0  0
  8 14  1  0  0  0  0
  9 15  2  0  0  0  0
  9 27  1  0  0  0  0
 10 22  1  0  0  0  0
 11  7  2  0  0  0  0
 12  8  2  0  0  0  0
 12  5  1  0  0  0  0
 13 10  1  0  0  0  0
 14 19  1  0  0  0  0
 14 17  2  0  0  0  0
 15 11  1  0  0  0  0
 16  5  1  0  0  0  0
 17 21  1  0  0  0  0
 18 24  1  0  0  0  0
 18  1  2  0  0  0  0
 19  2  2  0  0  0  0
 20 10  2  0  0  0  0
 20 26  1  0  0  0  0
 21  6  2  0  0  0  0
 22 24  2  0  0  0  0
 25  7  1  0  0  0  0
 26 18  1  0  0  0  0
 27 25  2  0  0  0  0
M  END
>  <MODEL>
1

>  <REMARK>
 VINA RESULT:     -11.2      0.000      0.000
  Name = 
  0 active torsions:
  status: ('A' for Active; 'I' for Inactive)
                            x       y       z     vdW  Elec       q    Type
                         _______ _______ _______ _____ _____    ______ ____

>  <TORSDO>
F 0

$$$$
=
 OpenBabel11052423173D

 27 32  0  0  0  0  0  0  0  0999 V2000
  161.3240  208.0480  151.7950 C   0  0  0  0  0  0  0  0  0  0  0  0
  161.2880  206.9350  151.0070 C   0  0  0  0  0  0  0  0  0  0  0  0
  160.8260  205.5190  152.8280 N   0  0  0  0  0  0  0  0  0  0  0  0
  161.2820  203.8990  148.2180 C   0  0  0  0  0  3  0  0  0  0  0  0
  161.0430  202.5810  148.6160 C   0  0  0  0  0  0  0  0  0  0  0  0
  161.5170  207.2070  149.6940 C   0  0  0  0  0  0  0  0  0  0  0  0
  162.1550  210.8380  148.7310 C   0  0  0  0  0  0  0  0  0  0  0  0
  160.8020  203.2950  150.9240 C   0  0  0  0  0  3  0  0  0  0  0  0
  161.6110  209.1670  150.8840 C   0  0  0  0  0  0  0  0  0  0  0  0
  160.6510  207.5340  155.9020 C   0  0  0  0  0  0  0  0  0  0  0  0
  162.0010  209.4600  148.4990 C   0  0  0  0  0  3  0  0  0  0  0  0
  160.8050  202.2810  149.9620 C   0  0  0  0  0  3  0  0  0  0  0  0
  160.4270  207.3540  157.2600 O   0  0  0  0  0  1  0  0  0  0  0  0
  161.0390  204.6200  150.5440 C   0  0  0  0  0  0  0  0  0  0  0  0
  161.7290  208.6470  149.5950 C   0  0  0  0  0  0  0  0  0  0  0  0
  161.0430  201.5880  147.6950 F   0  0  0  0  0  0  0  0  0  0  0  0
  161.2840  204.9290  149.1610 C   0  0  0  0  0  0  0  0  0  0  0  0
  161.1050  207.9190  153.1680 C   0  0  0  0  0  0  0  0  0  0  0  0
  161.0450  205.6690  151.4860 C   0  0  0  0  0  0  0  0  0  0  0  0
  160.6270  206.4310  155.0420 C   0  0  0  0  0  3  0  0  0  0  0  0
  161.5200  206.2230  148.7600 N   0  0  0  0  0  0  0  0  0  0  0  0
  160.9000  208.8170  155.4020 C   0  0  0  0  0  3  0  0  0  0  0  0
  162.4270  211.6890  147.6690 O   0  0  0  0  0  1  0  0  0  0  0  0
  161.1270  209.0140  154.0360 C   0  0  0  0  0  3  0  0  0  0  0  0
  162.0360  211.3660  150.0360 C   0  0  0  0  0  3  0  0  0  0  0  0
  160.8520  206.6050  153.6740 C   0  0  0  0  0  0  0  0  0  0  0  0
  161.7600  210.5290  151.1310 C   0  0  0  0  0  3  0  0  0  0  0  0
  1 18  1  0  0  0  0
  2 19  1  0  0  0  0
  2  1  2  0  0  0  0
  3 26  1  0  0  0  0
  4  5  2  0  0  0  0
  4 17  1  0  0  0  0
  5 12  1  0  0  0  0
  6  2  1  0  0  0  0
  7 25  1  0  0  0  0
  9 27  1  0  0  0  0
  9  1  1  0  0  0  0
 10 13  1  0  0  0  0
 11  7  2  0  0  0  0
 11 15  1  0  0  0  0
 12  8  2  0  0  0  0
 14  8  1  0  0  0  0
 14 19  1  0  0  0  0
 15  6  1  0  0  0  0
 15  9  2  0  0  0  0
 16  5  1  0  0  0  0
 17 14  2  0  0  0  0
 18 26  2  0  0  0  0
 18 24  1  0  0  0  0
 19  3  2  0  0  0  0
 20 10  2  0  0  0  0
 21 17  1  0  0  0  0
 21  6  2  0  0  0  0
 22 10  1  0  0  0  0
 23  7  1  0  0  0  0
 24 22  2  0  0  0  0
 25 27  2  0  0  0  0
 26 20  1  0  0  0  0
M  END
>  <MODEL>
2

>  <REMARK>
 VINA RESULT:     -10.7      0.611      5.057
  Name = 
  0 active torsions:
  status: ('A' for Active; 'I' for Inactive)
                            x       y       z     vdW  Elec       q    Type
                         _______ _______ _______ _____ _____    ______ ____

>  <TORSDO>
F 0

$$$$
=
 OpenBabel11052423173D

 27 32  0  0  0  0  0  0  0  0999 V2000
  161.1290  207.0060  151.9740 C   0  0  0  0  0  0  0  0  0  0  0  0
  161.3390  207.9560  151.0170 C   0  0  0  0  0  0  0  0  0  0  0  0
  161.3320  209.7060  152.5890 N   0  0  0  0  0  0  0  0  0  0  0  0
  161.9750  210.4240  147.7770 C   0  0  0  0  0  3  0  0  0  0  0  0
  162.0950  211.8040  147.9590 C   0  0  0  0  0  0  0  0  0  0  0  0
  161.4340  207.4350  149.7650 C   0  0  0  0  0  0  0  0  0  0  0  0
  161.0920  203.6580  149.3950 C   0  0  0  0  0  0  0  0  0  0  0  0
  161.7840  211.5410  150.3530 C   0  0  0  0  0  3  0  0  0  0  0  0
  161.0830  205.7250  151.2520 C   0  0  0  0  0  0  0  0  0  0  0  0
  160.7890  208.3030  155.9470 C   0  0  0  0  0  0  0  0  0  0  0  0
  161.2800  204.9760  148.9440 C   0  0  0  0  0  3  0  0  0  0  0  0
  162.0000  212.3600  149.2400 C   0  0  0  0  0  3  0  0  0  0  0  0
  160.6790  208.7420  157.2600 O   0  0  0  0  0  1  0  0  0  0  0  0
  161.6620  210.1570  150.1890 C   0  0  0  0  0  0  0  0  0  0  0  0
  161.2710  205.9910  149.8970 C   0  0  0  0  0  0  0  0  0  0  0  0
  162.3040  212.6100  146.8910 F   0  0  0  0  0  0  0  0  0  0  0  0
  161.7600  209.5860  148.8730 C   0  0  0  0  0  0  0  0  0  0  0  0
  161.0100  207.3970  153.3090 C   0  0  0  0  0  0  0  0  0  0  0  0
  161.4440  209.3010  151.2870 C   0  0  0  0  0  0  0  0  0  0  0  0
  161.0060  209.2290  154.9210 C   0  0  0  0  0  3  0  0  0  0  0  0
  161.6430  208.2290  148.6840 N   0  0  0  0  0  0  0  0  0  0  0  0
  160.6840  206.9380  155.6590 C   0  0  0  0  0  3  0  0  0  0  0  0
  161.0940  202.6120  148.4810 O   0  0  0  0  0  1  0  0  0  0  0  0
  160.7940  206.4810  154.3420 C   0  0  0  0  0  3  0  0  0  0  0  0
  160.9010  203.3860  150.7680 C   0  0  0  0  0  3  0  0  0  0  0  0
  161.1180  208.7940  153.5980 C   0  0  0  0  0  0  0  0  0  0  0  0
  160.8950  204.4250  151.7150 C   0  0  0  0  0  3  0  0  0  0  0  0
  1 18  1  0  0  0  0
  2 19  1  0  0  0  0
  2  1  2  0  0  0  0
  3 26  1  0  0  0  0
  4  5  2  0  0  0  0
  4 17  1  0  0  0  0
  5 12  1  0  0  0  0
  6 15  1  0  0  0  0
  6  2  1  0  0  0  0
  7 25  1  0  0  0  0
  9 27  1  0  0  0  0
  9  1  1  0  0  0  0
 10 13  1  0  0  0  0
 11  7  2  0  0  0  0
 11 15  1  0  0  0  0
 12  8  2  0  0  0  0
 14  8  1  0  0  0  0
 14 19  1  0  0  0  0
 15  9  2  0  0  0  0
 16  5  1  0  0  0  0
 17 14  2  0  0  0  0
 18 26  2  0  0  0  0
 18 24  1  0  0  0  0
 19  3  2  0  0  0  0
 20 10  2  0  0  0  0
 21 17  1  0  0  0  0
 21  6  2  0  0  0  0
 22 10  1  0  0  0  0
 23  7  1  0  0  0  0
 24 22  2  0  0  0  0
 25 27  2  0  0  0  0
 26 20  1  0  0  0  0
M  END
>  <MODEL>
3

>  <REMARK>
 VINA RESULT:      -9.0      3.215      6.629
  Name = 
  0 active torsions:
  status: ('A' for Active; 'I' for Inactive)
                            x       y       z     vdW  Elec       q    Type
                         _______ _______ _______ _____ _____    ______ ____

>  <TORSDO>
F 0

$$$$
=
 OpenBabel11052423173D

 27 32  0  0  0  0  0  0  0  0999 V2000
  161.0510  206.8170  152.0990 C   0  0  0  0  0  0  0  0  0  0  0  0
  161.2800  208.0070  151.4740 C   0  0  0  0  0  0  0  0  0  0  0  0
  161.5070  206.9870  149.3660 N   0  0  0  0  0  0  0  0  0  0  0  0
  161.9190  211.8270  150.0640 C   0  0  0  0  0  3  0  0  0  0  0  0
  162.1600  212.0430  148.7040 C   0  0  0  0  0  0  0  0  0  0  0  0
  161.2580  209.0670  152.3260 C   0  0  0  0  0  0  0  0  0  0  0  0
  160.5910  208.3540  156.0090 C   0  0  0  0  0  0  0  0  0  0  0  0
  161.9720  209.6610  148.2680 C   0  0  0  0  0  3  0  0  0  0  0  0
  160.8600  207.1490  153.5200 C   0  0  0  0  0  0  0  0  0  0  0  0
  161.0560  203.3540  149.7340 C   0  0  0  0  0  0  0  0  0  0  0  0
  160.8580  209.1610  154.8890 C   0  0  0  0  0  3  0  0  0  0  0  0
  162.1870  210.9650  147.8110 C   0  0  0  0  0  3  0  0  0  0  0  0
  161.0590  202.2130  148.9420 O   0  0  0  0  0  1  0  0  0  0  0  0
  161.7300  209.4280  149.6260 C   0  0  0  0  0  0  0  0  0  0  0  0
  160.9870  208.5310  153.6550 C   0  0  0  0  0  0  0  0  0  0  0  0
  162.3700  213.3000  148.2470 F   0  0  0  0  0  0  0  0  0  0  0  0
  161.7020  210.5340  150.5430 C   0  0  0  0  0  0  0  0  0  0  0  0
  161.0440  205.6400  151.3470 C   0  0  0  0  0  0  0  0  0  0  0  0
  161.5100  208.1270  150.1230 C   0  0  0  0  0  0  0  0  0  0  0  0
  161.2840  204.6050  149.1510 C   0  0  0  0  0  3  0  0  0  0  0  0
  161.4660  210.3330  151.8830 N   0  0  0  0  0  0  0  0  0  0  0  0
  160.8230  203.2460  151.1090 C   0  0  0  0  0  3  0  0  0  0  0  0
  160.4540  208.9390  157.2610 O   0  0  0  0  0  1  0  0  0  0  0  0
  160.8170  204.3860  151.9190 C   0  0  0  0  0  3  0  0  0  0  0  0
  160.4620  206.9540  155.8740 C   0  0  0  0  0  3  0  0  0  0  0  0
  161.2830  205.7570  149.9410 C   0  0  0  0  0  0  0  0  0  0  0  0
  160.5950  206.3350  154.6180 C   0  0  0  0  0  3  0  0  0  0  0  0
  1  9  1  0  0  0  0
  2  1  1  0  0  0  0
  2  6  1  0  0  0  0
  3 26  2  0  0  0  0
  3 19  1  0  0  0  0
  4 17  1  0  0  0  0
  5  4  2  0  0  0  0
  6 15  1  0  0  0  0
  7 23  1  0  0  0  0
  8 14  1  0  0  0  0
  9 15  2  0  0  0  0
  9 27  1  0  0  0  0
 10 22  1  0  0  0  0
 11  7  2  0  0  0  0
 12  8  2  0  0  0  0
 12  5  1  0  0  0  0
 13 10  1  0  0  0  0
 14 19  1  0  0  0  0
 14 17  2  0  0  0  0
 15 11  1  0  0  0  0
 16  5  1  0  0  0  0
 17 21  1  0  0  0  0
 18 24  1  0  0  0  0
 18  1  2  0  0  0  0
 19  2  2  0  0  0  0
 20 10  2  0  0  0  0
 20 26  1  0  0  0  0
 21  6  2  0  0  0  0
 22 24  2  0  0  0  0
 25  7  1  0  0  0  0
 26 18  1  0  0  0  0
 27 25  2  0  0  0  0
M  END
>  <MODEL>
4

>  <REMARK>
 VINA RESULT:      -8.8      3.258      5.728
  Name = 
  0 active torsions:
  status: ('A' for Active; 'I' for Inactive)
                            x       y       z     vdW  Elec       q    Type
                         _______ _______ _______ _____ _____    ______ ____

>  <TORSDO>
F 0

$$$$
=
 OpenBabel11052423173D

 27 32  0  0  0  0  0  0  0  0999 V2000
  161.5340  208.0680  149.8360 C   0  0  0  0  0  0  0  0  0  0  0  0
  161.3050  207.7500  151.1430 C   0  0  0  0  0  0  0  0  0  0  0  0
  161.4190  209.9970  151.8300 N   0  0  0  0  0  0  0  0  0  0  0  0
  160.5870  206.2830  154.9280 C   0  0  0  0  0  3  0  0  0  0  0  0
  160.5070  207.1570  156.0160 C   0  0  0  0  0  0  0  0  0  0  0  0
  161.1440  206.4140  151.3430 C   0  0  0  0  0  0  0  0  0  0  0  0
  161.3830  204.1330  148.3010 C   0  0  0  0  0  0  0  0  0  0  0  0
  160.9140  209.0530  154.5550 C   0  0  0  0  0  3  0  0  0  0  0  0
  161.5190  206.7880  149.1110 C   0  0  0  0  0  0  0  0  0  0  0  0
  162.0730  212.1190  148.8950 C   0  0  0  0  0  0  0  0  0  0  0  0
  161.2060  204.4370  149.6620 C   0  0  0  0  0  3  0  0  0  0  0  0
  160.6700  208.5340  155.8300 C   0  0  0  0  0  3  0  0  0  0  0  0
  162.2500  213.4620  148.5940 O   0  0  0  0  0  1  0  0  0  0  0  0
  160.9970  208.1930  153.4550 C   0  0  0  0  0  0  0  0  0  0  0  0
  161.2790  205.7750  150.0390 C   0  0  0  0  0  0  0  0  0  0  0  0
  160.2710  206.6680  157.2570 F   0  0  0  0  0  0  0  0  0  0  0  0
  160.8300  206.7780  153.6450 C   0  0  0  0  0  0  0  0  0  0  0  0
  161.7180  209.4060  149.4820 C   0  0  0  0  0  0  0  0  0  0  0  0
  161.2420  208.6800  152.1550 C   0  0  0  0  0  0  0  0  0  0  0  0
  161.8340  211.7290  150.2180 C   0  0  0  0  0  3  0  0  0  0  0  0
  160.9070  205.9100  152.5810 N   0  0  0  0  0  0  0  0  0  0  0  0
  162.1340  211.1620  147.8760 C   0  0  0  0  0  3  0  0  0  0  0  0
  161.3180  202.8130  147.8770 O   0  0  0  0  0  1  0  0  0  0  0  0
  161.9580  209.8060  148.1640 C   0  0  0  0  0  3  0  0  0  0  0  0
  161.6260  205.1580  147.3590 C   0  0  0  0  0  3  0  0  0  0  0  0
  161.6550  210.3790  150.5290 C   0  0  0  0  0  0  0  0  0  0  0  0
  161.6960  206.5040  147.7600 C   0  0  0  0  0  3  0  0  0  0  0  0
  1  2  1  0  0  0  0
  2  6  2  0  0  0  0
  2 19  1  0  0  0  0
  3 19  1  0  0  0  0
  4  5  2  0  0  0  0
  5 16  1  0  0  0  0
  6 21  1  0  0  0  0
  7 11  1  0  0  0  0
  8 12  2  0  0  0  0
  9  1  1  0  0  0  0
  9 15  1  0  0  0  0
 10 20  2  0  0  0  0
 11 15  2  0  0  0  0
 12  5  1  0  0  0  0
 13 10  1  0  0  0  0
 14 17  1  0  0  0  0
 14  8  1  0  0  0  0
 15  6  1  0  0  0  0
 17  4  1  0  0  0  0
 18  1  2  0  0  0  0
 18 26  1  0  0  0  0
 19 14  2  0  0  0  0
 20 26  1  0  0  0  0
 21 17  2  0  0  0  0
 22 24  2  0  0  0  0
 22 10  1  0  0  0  0
 23  7  1  0  0  0  0
 24 18  1  0  0  0  0
 25 27  1  0  0  0  0
 25  7  2  0  0  0  0
 26  3  2  0  0  0  0
 27  9  2  0  0  0  0
M  END
>  <MODEL>
5

>  <REMARK>
 VINA RESULT:      -8.4      3.019      5.509
  Name = 
  0 active torsions:
  status: ('A' for Active; 'I' for Inactive)
                            x       y       z     vdW  Elec       q    Type
                         _______ _______ _______ _____ _____    ______ ____

>  <TORSDO>
F 0

$$$$
