=
 OpenBabel11052423183D

 27 31  0  0  1  0  0  0  0  0999 V2000
  160.6490  211.2620  151.2460 N   0  0  0  0  0  0  0  0  0  0  0  0
  161.6240  209.2970  150.2000 C   0  0  0  0  0  0  0  0  0  0  0  0
  161.7220  208.7820  152.6410 N   0  0  0  0  0  0  0  0  0  0  0  0
  161.3350  205.2330  149.6120 N   0  0  0  0  0  0  0  0  0  0  0  0
  161.3270  203.4140  151.2530 C   0  0  0  0  0  1  0  0  0  0  0  0
  161.5060  208.8270  148.8650 C   0  0  0  0  0  3  0  0  0  0  0  0
  161.5070  205.8670  151.7140 C   0  0  0  0  0  0  0  0  0  0  0  0
  161.0620  211.3250  155.3310 C   0  0  0  0  0  2  0  0  0  0  0  0
  161.5850  205.7720  153.2020 C   0  0  0  0  0  1  0  0  0  0  0  0
  159.5690  211.1390  155.4770 C   0  0  0  0  0  2  0  0  0  0  0  0
  161.5300  207.0150  150.9510 C   0  0  0  0  0  0  0  0  0  0  0  0
  161.7960  210.7600  150.5030 C   0  0  1  0  0  3  0  0  0  0  0  0
  161.3900  204.8160  150.8710 N   0  0  0  0  0  0  0  0  0  0  0  0
  161.4200  206.5760  149.6560 C   0  0  0  0  0  0  0  0  0  0  0  0
  160.3770  210.9600  152.4810 C   0  0  0  0  0  0  0  0  0  0  0  0
  161.6100  208.3730  151.2710 C   0  0  0  0  0  0  0  0  0  0  0  0
  161.5660  210.1900  154.5180 C   0  0  0  0  0  2  0  0  0  0  0  0
  161.3970  207.4550  148.5810 C   0  0  0  0  0  3  0  0  0  0  0  0
  158.8420  211.7000  154.2990 C   0  0  0  0  0  3  0  0  0  0  0  0
  159.2210  211.5990  153.0580 N   0  0  0  0  0  0  0  0  0  0  0  0
  161.2460  209.9990  153.2390 C   0  0  0  0  0  0  0  0  0  0  0  0
  162.5730  213.2840  147.1050 C   0  0  0  0  0  3  0  0  0  0  0  0
  162.0750  211.6220  149.3050 C   0  0  0  0  0  0  0  0  0  0  0  0
  161.1340  212.5840  148.9220 C   0  0  0  0  0  3  0  0  0  0  0  0
  161.3810  213.4130  147.8240 C   0  0  0  0  0  3  0  0  0  0  0  0
  163.5200  212.3300  147.4870 C   0  0  0  0  0  3  0  0  0  0  0  0
  163.2730  211.5020  148.5850 C   0  0  0  0  0  3  0  0  0  0  0  0
  1 15  2  0  0  0  0
  2 12  1  0  0  0  0
  2 16  2  0  0  0  0
  3 21  2  0  0  0  0
  4 14  2  0  0  0  0
  4 13  1  0  0  0  0
  6  2  1  0  0  0  0
  7  9  1  0  0  0  0
  8 10  1  0  0  0  0
 11 16  1  0  0  0  0
 11  7  2  0  0  0  0
 12 23  1  6  0  0  0
 12  1  1  0  0  0  0
 13  5  1  0  0  0  0
 13  7  1  0  0  0  0
 14 11  1  0  0  0  0
 15 20  1  0  0  0  0
 15 21  1  0  0  0  0
 16  3  1  0  0  0  0
 17  8  1  0  0  0  0
 18  6  2  0  0  0  0
 18 14  1  0  0  0  0
 19 10  1  0  0  0  0
 20 19  2  0  0  0  0
 21 17  1  0  0  0  0
 22 26  2  0  0  0  0
 22 25  1  0  0  0  0
 24 23  1  0  0  0  0
 25 24  2  0  0  0  0
 26 27  1  0  0  0  0
 27 23  2  0  0  0  0
M  END
>  <MODEL>
1

>  <REMARK>
 VINA RESULT:      -6.9      0.000      0.000
  Name = 
  1 active torsions:
  status: ('A' for Active; 'I' for Inactive)
    1  A    between atoms: C_9  and  C_15
                            x       y       z     vdW  Elec       q    Type
                         _______ _______ _______ _____ _____    ______ ____

>  <TORSDO>
F 1

$$$$
=
 OpenBabel11052423183D

 27 31  0  0  1  0  0  0  0  0999 V2000
  161.5290  208.9060  153.4630 N   0  0  0  0  0  0  0  0  0  0  0  0
  161.2880  209.3920  151.0930 C   0  0  0  0  0  0  0  0  0  0  0  0
  160.2410  211.3630  152.2150 N   0  0  0  0  0  0  0  0  0  0  0  0
  162.2210  211.9600  148.0150 N   0  0  0  0  0  0  0  0  0  0  0  0
  161.7400  214.3500  147.7740 C   0  0  0  0  0  1  0  0  0  0  0  0
  161.9980  208.8650  149.9820 C   0  0  0  0  0  3  0  0  0  0  0  0
  161.1280  212.8700  149.6960 C   0  0  0  0  0  0  0  0  0  0  0  0
  159.4560  211.4880  155.8890 C   0  0  0  0  0  2  0  0  0  0  0  0
  160.4510  213.9110  150.5250 C   0  0  0  0  0  1  0  0  0  0  0  0
  160.7640  212.0490  156.3970 C   0  0  0  0  0  2  0  0  0  0  0  0
  161.3020  211.5390  150.0110 C   0  0  0  0  0  0  0  0  0  0  0  0
  160.8530  208.5140  152.2340 C   0  0  1  0  0  3  0  0  0  0  0  0
  161.6930  213.0840  148.4870 N   0  0  0  0  0  0  0  0  0  0  0  0
  161.9850  211.0140  148.9430 C   0  0  0  0  0  0  0  0  0  0  0  0
  161.2940  210.0030  154.1180 C   0  0  0  0  0  0  0  0  0  0  0  0
  160.9540  210.7670  151.1220 C   0  0  0  0  0  0  0  0  0  0  0  0
  159.4560  211.6430  154.4140 C   0  0  0  0  0  2  0  0  0  0  0  0
  162.3580  209.6770  148.8940 C   0  0  0  0  0  3  0  0  0  0  0  0
  161.8500  211.0270  156.3210 C   0  0  0  0  0  3  0  0  0  0  0  0
  162.0330  210.1890  155.3420 N   0  0  0  0  0  0  0  0  0  0  0  0
  160.2960  210.9990  153.6040 C   0  0  0  0  0  0  0  0  0  0  0  0
  161.2550  204.2790  151.5800 C   0  0  0  0  0  3  0  0  0  0  0  0
  161.0060  207.0400  151.9870 C   0  0  0  0  0  0  0  0  0  0  0  0
  161.2960  206.1940  153.0630 C   0  0  0  0  0  3  0  0  0  0  0  0
  161.4220  204.8170  152.8610 C   0  0  0  0  0  3  0  0  0  0  0  0
  160.9590  205.1180  150.5030 C   0  0  0  0  0  3  0  0  0  0  0  0
  160.8330  206.4960  150.7050 C   0  0  0  0  0  3  0  0  0  0  0  0
  1 15  2  0  0  0  0
  2 16  2  0  0  0  0
  2 12  1  0  0  0  0
  3 21  2  0  0  0  0
  4 13  1  0  0  0  0
  4 14  2  0  0  0  0
  5 13  1  0  0  0  0
  6  2  1  0  0  0  0
  7 11  2  0  0  0  0
  7  9  1  0  0  0  0
  8 10  1  0  0  0  0
 11 16  1  0  0  0  0
 12 23  1  6  0  0  0
 12  1  1  0  0  0  0
 13  7  1  0  0  0  0
 14 11  1  0  0  0  0
 15 20  1  0  0  0  0
 16  3  1  0  0  0  0
 17  8  1  0  0  0  0
 18 14  1  0  0  0  0
 18  6  2  0  0  0  0
 19 10  1  0  0  0  0
 20 19  2  0  0  0  0
 21 15  1  0  0  0  0
 21 17  1  0  0  0  0
 22 25  1  0  0  0  0
 23 24  1  0  0  0  0
 25 24  2  0  0  0  0
 26 27  1  0  0  0  0
 26 22  2  0  0  0  0
 27 23  2  0  0  0  0
M  END
>  <MODEL>
2

>  <REMARK>
 VINA RESULT:      -6.5      1.789      5.801
  Name = 
  1 active torsions:
  status: ('A' for Active; 'I' for Inactive)
    1  A    between atoms: C_9  and  C_15
                            x       y       z     vdW  Elec       q    Type
                         _______ _______ _______ _____ _____    ______ ____

>  <TORSDO>
F 1

$$$$
=
 OpenBabel11052423183D

 27 31  0  0  1  0  0  0  0  0999 V2000
  161.4720  207.2200  153.2200 N   0  0  0  0  0  0  0  0  0  0  0  0
  161.3820  208.0030  150.9210 C   0  0  0  0  0  0  0  0  0  0  0  0
  160.4000  209.8890  152.2310 N   0  0  0  0  0  0  0  0  0  0  0  0
  162.6230  210.8570  148.2260 N   0  0  0  0  0  0  0  0  0  0  0  0
  162.3000  213.2850  148.2620 C   0  0  0  0  0  1  0  0  0  0  0  0
  162.1140  207.5680  149.7850 C   0  0  0  0  0  3  0  0  0  0  0  0
  161.5030  211.6270  149.9580 C   0  0  0  0  0  0  0  0  0  0  0  0
  159.4370  209.6220  155.8550 C   0  0  0  0  0  2  0  0  0  0  0  0
  160.8480  212.6030  150.8790 C   0  0  0  0  0  1  0  0  0  0  0  0
  160.7490  210.0310  156.4840 C   0  0  0  0  0  2  0  0  0  0  0  0
  161.5800  210.2590  150.1130 C   0  0  0  0  0  0  0  0  0  0  0  0
  160.8370  207.0240  151.9240 C   0  0  1  0  0  3  0  0  0  0  0  0
  162.1410  211.9480  148.8100 N   0  0  0  0  0  0  0  0  0  0  0  0
  162.2840  209.8230  149.0190 C   0  0  0  0  0  0  0  0  0  0  0  0
  161.2710  208.2440  153.9950 C   0  0  0  0  0  0  0  0  0  0  0  0
  161.1300  209.3840  151.1050 C   0  0  0  0  0  0  0  0  0  0  0  0
  159.5220  209.9530  154.4110 C   0  0  0  0  0  2  0  0  0  0  0  0
  162.5780  208.4800  148.8210 C   0  0  0  0  0  3  0  0  0  0  0  0
  161.7740  208.9550  156.3300 C   0  0  0  0  0  3  0  0  0  0  0  0
  161.9560  208.2310  155.2630 N   0  0  0  0  0  0  0  0  0  0  0  0
  160.3620  209.3580  153.5650 C   0  0  0  0  0  0  0  0  0  0  0  0
  161.0940  202.9170  150.6660 C   0  0  0  0  0  3  0  0  0  0  0  0
  160.9140  205.5840  151.5040 C   0  0  0  0  0  0  0  0  0  0  0  0
  160.7220  205.2550  150.1570 C   0  0  0  0  0  3  0  0  0  0  0  0
  160.8100  203.9240  149.7390 C   0  0  0  0  0  3  0  0  0  0  0  0
  161.2940  203.2400  152.0110 C   0  0  0  0  0  3  0  0  0  0  0  0
  161.2060  204.5710  152.4290 C   0  0  0  0  0  3  0  0  0  0  0  0
  1 15  2  0  0  0  0
  2 16  2  0  0  0  0
  2 12  1  0  0  0  0
  3 21  2  0  0  0  0
  4 13  1  0  0  0  0
  4 14  2  0  0  0  0
  5 13  1  0  0  0  0
  6  2  1  0  0  0  0
  7 11  2  0  0  0  0
  7  9  1  0  0  0  0
  8 10  1  0  0  0  0
 11 16  1  0  0  0  0
 12 23  1  6  0  0  0
 12  1  1  0  0  0  0
 13  7  1  0  0  0  0
 14 11  1  0  0  0  0
 15 20  1  0  0  0  0
 16  3  1  0  0  0  0
 17  8  1  0  0  0  0
 18 14  1  0  0  0  0
 18  6  2  0  0  0  0
 19 10  1  0  0  0  0
 20 19  2  0  0  0  0
 21 15  1  0  0  0  0
 21 17  1  0  0  0  0
 22 26  1  0  0  0  0
 23 27  1  0  0  0  0
 24 23  2  0  0  0  0
 25 24  1  0  0  0  0
 25 22  2  0  0  0  0
 26 27  2  0  0  0  0
M  END
>  <MODEL>
3

>  <REMARK>
 VINA RESULT:      -6.2      1.713      5.833
  Name = 
  1 active torsions:
  status: ('A' for Active; 'I' for Inactive)
    1  A    between atoms: C_9  and  C_15
                            x       y       z     vdW  Elec       q    Type
                         _______ _______ _______ _____ _____    ______ ____

>  <TORSDO>
F 1

$$$$
=
 OpenBabel11052423183D

 27 31  0  0  1  0  0  0  0  0999 V2000
  160.7050  210.2250  151.7250 N   0  0  0  0  0  0  0  0  0  0  0  0
  161.4640  208.4650  150.2300 C   0  0  0  0  0  0  0  0  0  0  0  0
  161.6770  207.4500  152.5020 N   0  0  0  0  0  0  0  0  0  0  0  0
  160.8380  204.6360  148.8560 N   0  0  0  0  0  0  0  0  0  0  0  0
  160.7980  202.5200  150.0900 C   0  0  0  0  0  1  0  0  0  0  0  0
  161.2270  208.2900  148.8410 C   0  0  0  0  0  3  0  0  0  0  0  0
  161.1870  204.8090  151.0230 C   0  0  0  0  0  0  0  0  0  0  0  0
  161.3770  209.4150  155.6930 C   0  0  0  0  0  2  0  0  0  0  0  0
  161.3510  204.4030  152.4500 C   0  0  0  0  0  1  0  0  0  0  0  0
  159.8870  209.2930  155.9130 C   0  0  0  0  0  2  0  0  0  0  0  0
  161.2480  206.0870  150.5090 C   0  0  0  0  0  0  0  0  0  0  0  0
  161.7630  209.8210  150.8090 C   0  0  1  0  0  3  0  0  0  0  0  0
  160.9400  203.9640  149.9970 N   0  0  0  0  0  0  0  0  0  0  0  0
  161.0240  205.9330  149.1640 C   0  0  0  0  0  0  0  0  0  0  0  0
  160.4890  209.6910  152.8900 C   0  0  0  0  0  0  0  0  0  0  0  0
  161.4490  207.3420  151.0900 C   0  0  0  0  0  0  0  0  0  0  0  0
  161.7440  208.4460  154.6310 C   0  0  0  0  0  2  0  0  0  0  0  0
  161.0000  207.0160  148.2940 C   0  0  0  0  0  3  0  0  0  0  0  0
  159.1310  210.1290  154.9320 C   0  0  0  0  0  3  0  0  0  0  0  0
  159.4230  210.2640  153.6710 N   0  0  0  0  0  0  0  0  0  0  0  0
  161.3310  208.5430  153.3680 C   0  0  0  0  0  0  0  0  0  0  0  0
  162.5290  212.8490  147.8500 C   0  0  0  0  0  3  0  0  0  0  0  0
  162.0290  210.8940  149.7930 C   0  0  0  0  0  0  0  0  0  0  0  0
  163.0260  210.6930  148.8330 C   0  0  0  0  0  3  0  0  0  0  0  0
  163.2780  211.6680  147.8640 C   0  0  0  0  0  3  0  0  0  0  0  0
  161.5270  213.0530  148.8020 C   0  0  0  0  0  3  0  0  0  0  0  0
  161.2750  212.0780  149.7710 C   0  0  0  0  0  3  0  0  0  0  0  0
  1 15  2  0  0  0  0
  2 12  1  0  0  0  0
  2 16  2  0  0  0  0
  3 21  2  0  0  0  0
  4 14  2  0  0  0  0
  4 13  1  0  0  0  0
  6  2  1  0  0  0  0
  7  9  1  0  0  0  0
  8 10  1  0  0  0  0
 11  7  2  0  0  0  0
 11 16  1  0  0  0  0
 12 23  1  6  0  0  0
 12  1  1  0  0  0  0
 13  5  1  0  0  0  0
 13  7  1  0  0  0  0
 14 11  1  0  0  0  0
 15 21  1  0  0  0  0
 15 20  1  0  0  0  0
 16  3  1  0  0  0  0
 17  8  1  0  0  0  0
 18  6  2  0  0  0  0
 18 14  1  0  0  0  0
 19 10  1  0  0  0  0
 20 19  2  0  0  0  0
 21 17  1  0  0  0  0
 22 25  2  0  0  0  0
 22 26  1  0  0  0  0
 24 23  2  0  0  0  0
 25 24  1  0  0  0  0
 26 27  2  0  0  0  0
 27 23  1  0  0  0  0
M  END
>  <MODEL>
4

>  <REMARK>
 VINA RESULT:      -5.7      1.156      1.554
  Name = 
  1 active torsions:
  status: ('A' for Active; 'I' for Inactive)
    1  A    between atoms: C_9  and  C_15
                            x       y       z     vdW  Elec       q    Type
                         _______ _______ _______ _____ _____    ______ ____

>  <TORSDO>
F 1

$$$$
=
 OpenBabel11052423183D

 27 31  0  0  1  0  0  0  0  0999 V2000
  161.2340  208.9590  147.6930 N   0  0  0  0  0  0  0  0  0  0  0  0
  161.6000  207.5760  149.6570 C   0  0  0  0  0  0  0  0  0  0  0  0
  162.4280  209.8270  150.3510 N   0  0  0  0  0  2  0  0  0  0  0  0
  160.7010  206.9630  153.6270 N   0  0  0  0  0  0  0  0  0  0  0  0
  161.0290  208.4440  155.5500 C   0  0  0  0  0  1  0  0  0  0  0  0
  161.0050  206.3380  150.0190 C   0  0  0  0  0  3  0  0  0  0  0  0
  161.6110  208.9130  153.1620 C   0  0  0  0  0  0  0  0  0  0  0  0
  162.9530  212.6780  147.9580 C   0  0  0  0  0  2  0  0  0  0  0  0
  162.1570  210.2870  153.3700 C   0  0  0  0  0  1  0  0  0  0  0  0
  161.5770  213.3010  148.0200 C   0  0  0  0  0  2  0  0  0  0  0  0
  161.5090  208.2290  151.9690 C   0  0  0  0  0  0  0  0  0  0  0  0
  162.0170  207.8610  148.2400 C   0  0  1  0  0  3  0  0  0  0  0  0
  161.1160  208.1170  154.1360 N   0  0  0  0  0  0  0  0  0  0  0  0
  160.9380  207.0270  152.3040 C   0  0  0  0  0  0  0  0  0  0  0  0
  161.3460  210.2020  148.0560 C   0  0  0  0  0  0  0  0  0  0  0  0
  161.8350  208.5560  150.6500 C   0  0  0  0  0  0  0  0  0  0  0  0
  163.0410  211.7020  149.0720 C   0  0  0  0  0  3  0  0  0  0  0  0
  160.6640  206.0530  151.3520 C   0  0  0  0  0  3  0  0  0  0  0  0
  160.5720  212.4510  147.3130 C   0  0  0  0  0  3  0  0  0  0  0  0
  160.5150  211.1510  147.3590 N   0  0  0  0  0  0  0  0  0  0  0  0
  162.3050  210.5940  149.1420 C   0  0  0  0  0  0  0  0  0  0  0  0
  161.9020  204.4940  145.5630 C   0  0  0  0  0  3  0  0  0  0  0  0
  161.9840  206.6720  147.3240 C   0  0  0  0  0  0  0  0  0  0  0  0
  160.9030  206.5130  146.4500 C   0  0  0  0  0  3  0  0  0  0  0  0
  160.8600  205.4260  145.5730 C   0  0  0  0  0  3  0  0  0  0  0  0
  162.9880  204.6500  146.4290 C   0  0  0  0  0  3  0  0  0  0  0  0
  163.0300  205.7370  147.3060 C   0  0  0  0  0  3  0  0  0  0  0  0
  1 15  2  0  0  0  0
  1 12  1  0  0  0  0
  2  6  1  0  0  0  0
  2 16  2  0  0  0  0
  3 16  1  0  0  0  0
  4 13  1  0  0  0  0
  6 18  2  0  0  0  0
  7  9  1  0  0  0  0
  7 13  1  0  0  0  0
  8 10  1  0  0  0  0
  8 17  1  0  0  0  0
 11 14  1  0  0  0  0
 11  7  2  0  0  0  0
 12 23  1  6  0  0  0
 12  2  1  0  0  0  0
 13  5  1  0  0  0  0
 14  4  2  0  0  0  0
 15 21  1  0  0  0  0
 16 11  1  0  0  0  0
 17 21  2  0  0  0  0
 18 14  1  0  0  0  0
 19 20  2  0  0  0  0
 19 10  1  0  0  0  0
 20 15  1  0  0  0  0
 21  3  1  0  0  0  0
 22 25  2  0  0  0  0
 22 26  1  0  0  0  0
 24 23  2  0  0  0  0
 25 24  1  0  0  0  0
 26 27  2  0  0  0  0
 27 23  1  0  0  0  0
M  END
>  <MODEL>
5

>  <REMARK>
 VINA RESULT:      -5.2      2.181      5.401
  Name = 
  1 active torsions:
  status: ('A' for Active; 'I' for Inactive)
    1  A    between atoms: C_9  and  C_15
                            x       y       z     vdW  Elec       q    Type
                         _______ _______ _______ _____ _____    ______ ____

>  <TORSDO>
F 1

$$$$
=
 OpenBabel11052423183D

 27 31  0  0  1  0  0  0  0  0999 V2000
  160.6960  207.3480  152.2750 N   0  0  0  0  0  0  0  0  0  0  0  0
  160.8630  209.7560  152.5600 C   0  0  0  0  0  0  0  0  0  0  0  0
  161.9610  209.3400  150.3560 N   0  0  0  0  0  2  0  0  0  0  0  0
  159.8500  213.4580  151.0700 N   0  0  0  0  0  0  0  0  0  0  0  0
  160.3420  214.4500  148.8850 C   0  0  0  0  0  1  0  0  0  0  0  0
  160.1130  210.6250  153.3960 C   0  0  0  0  0  3  0  0  0  0  0  0
  161.0050  212.1790  149.6990 C   0  0  0  0  0  0  0  0  0  0  0  0
  162.8670  205.9150  149.1000 C   0  0  0  0  0  2  0  0  0  0  0  0
  161.7170  211.7380  148.4630 C   0  0  0  0  0  1  0  0  0  0  0  0
  161.5810  205.5720  148.3840 C   0  0  0  0  0  2  0  0  0  0  0  0
  160.8300  211.4570  150.8610 C   0  0  0  0  0  0  0  0  0  0  0  0
  161.3280  208.4110  153.0450 C   0  0  1  0  0  3  0  0  0  0  0  0
  160.4020  213.3770  149.8650 N   0  0  0  0  0  0  0  0  0  0  0  0
  160.1080  212.2870  151.6820 C   0  0  0  0  0  0  0  0  0  0  0  0
  160.9600  207.0770  151.0320 C   0  0  0  0  0  0  0  0  0  0  0  0
  161.2090  210.1700  151.2520 C   0  0  0  0  0  0  0  0  0  0  0  0
  162.8200  207.3640  149.4150 C   0  0  0  0  0  3  0  0  0  0  0  0
  159.7240  211.9030  152.9600 C   0  0  0  0  0  3  0  0  0  0  0  0
  160.4850  205.2920  149.3600 C   0  0  0  0  0  3  0  0  0  0  0  0
  160.2630  205.9530  150.4590 N   0  0  0  0  0  0  0  0  0  0  0  0
  161.9490  207.9060  150.2650 C   0  0  0  0  0  0  0  0  0  0  0  0
  160.8330  207.6790  157.2560 C   0  0  0  0  0  3  0  0  0  0  0  0
  161.1550  208.1790  154.5180 C   0  0  0  0  0  0  0  0  0  0  0  0
  160.2460  207.2090  154.9550 C   0  0  0  0  0  3  0  0  0  0  0  0
  160.0830  206.9600  156.3200 C   0  0  0  0  0  3  0  0  0  0  0  0
  161.7480  208.6440  156.8270 C   0  0  0  0  0  3  0  0  0  0  0  0
  161.9100  208.8930  155.4610 C   0  0  0  0  0  3  0  0  0  0  0  0
  1 12  1  0  0  0  0
  2 12  1  0  0  0  0
  2  6  1  0  0  0  0
  3 16  1  0  0  0  0
  4 14  2  0  0  0  0
  5 13  1  0  0  0  0
  7 13  1  0  0  0  0
  7 11  2  0  0  0  0
  8 17  1  0  0  0  0
  9  7  1  0  0  0  0
 10  8  1  0  0  0  0
 10 19  1  0  0  0  0
 11 16  1  0  0  0  0
 11 14  1  0  0  0  0
 12 23  1  1  0  0  0
 13  4  1  0  0  0  0
 14 18  1  0  0  0  0
 15  1  2  0  0  0  0
 16  2  2  0  0  0  0
 17 21  2  0  0  0  0
 18  6  2  0  0  0  0
 19 20  2  0  0  0  0
 20 15  1  0  0  0  0
 21  3  1  0  0  0  0
 21 15  1  0  0  0  0
 23 24  2  0  0  0  0
 23 27  1  0  0  0  0
 24 25  1  0  0  0  0
 25 22  2  0  0  0  0
 26 22  1  0  0  0  0
 27 26  2  0  0  0  0
M  END
>  <MODEL>
6

>  <REMARK>
 VINA RESULT:      -4.6      1.933      7.196
  Name = 
  1 active torsions:
  status: ('A' for Active; 'I' for Inactive)
    1  A    between atoms: C_9  and  C_15
                            x       y       z     vdW  Elec       q    Type
                         _______ _______ _______ _____ _____    ______ ____

>  <TORSDO>
F 1

$$$$
=
 OpenBabel11052423183D

 27 31  0  0  1  0  0  0  0  0999 V2000
  162.3590  209.0220  148.7920 N   0  0  0  0  0  0  0  0  0  0  0  0
  161.6470  209.7270  151.0060 C   0  0  0  0  0  0  0  0  0  0  0  0
  160.6470  207.4530  150.7550 N   0  0  0  0  0  2  0  0  0  0  0  0
  161.7650  208.9530  155.0470 N   0  0  0  0  0  0  0  0  0  0  0  0
  161.0310  206.9670  156.2790 C   0  0  0  0  0  1  0  0  0  0  0  0
  162.1880  210.7270  151.8570 C   0  0  0  0  0  3  0  0  0  0  0  0
  160.9170  207.3420  153.8080 C   0  0  0  0  0  0  0  0  0  0  0  0
  160.5360  205.5780  147.4990 C   0  0  0  0  0  2  0  0  0  0  0  0
  160.3100  206.0270  153.4480 C   0  0  0  0  0  1  0  0  0  0  0  0
  161.8570  204.8520  147.5930 C   0  0  0  0  0  2  0  0  0  0  0  0
  161.2670  208.3610  152.9480 C   0  0  0  0  0  0  0  0  0  0  0  0
  161.5090  209.9490  149.5250 C   0  0  1  0  0  3  0  0  0  0  0  0
  161.2310  207.7370  155.0620 N   0  0  0  0  0  0  0  0  0  0  0  0
  161.7890  209.3380  153.7570 C   0  0  0  0  0  0  0  0  0  0  0  0
  162.1490  207.7430  148.6970 C   0  0  0  0  0  0  0  0  0  0  0  0
  161.1990  208.5040  151.5590 C   0  0  0  0  0  0  0  0  0  0  0  0
  160.2530  206.1490  148.8390 C   0  0  0  0  0  3  0  0  0  0  0  0
  162.2680  210.5380  153.2470 C   0  0  0  0  0  3  0  0  0  0  0  0
  163.0010  205.7930  147.3990 C   0  0  0  0  0  3  0  0  0  0  0  0
  163.0780  206.9990  147.8830 N   0  0  0  0  0  0  0  0  0  0  0  0
  160.9860  207.1080  149.4030 C   0  0  0  0  0  0  0  0  0  0  0  0
  162.2110  213.9750  148.1770 C   0  0  0  0  0  3  0  0  0  0  0  0
  161.7490  211.3630  149.0760 C   0  0  0  0  0  0  0  0  0  0  0  0
  162.8610  211.6450  148.2740 C   0  0  0  0  0  3  0  0  0  0  0  0
  163.0930  212.9480  147.8260 C   0  0  0  0  0  3  0  0  0  0  0  0
  161.0960  213.6990  148.9720 C   0  0  0  0  0  3  0  0  0  0  0  0
  160.8630  212.3950  149.4190 C   0  0  0  0  0  3  0  0  0  0  0  0
  1 12  1  0  0  0  0
  2 16  2  0  0  0  0
  2  6  1  0  0  0  0
  3 16  1  0  0  0  0
  4 13  1  0  0  0  0
  6 18  2  0  0  0  0
  7 13  1  0  0  0  0
  8 10  1  0  0  0  0
  8 17  1  0  0  0  0
  9  7  1  0  0  0  0
 11 14  1  0  0  0  0
 11  7  2  0  0  0  0
 12 23  1  1  0  0  0
 12  2  1  0  0  0  0
 13  5  1  0  0  0  0
 14  4  2  0  0  0  0
 15  1  2  0  0  0  0
 15 21  1  0  0  0  0
 16 11  1  0  0  0  0
 17 21  2  0  0  0  0
 18 14  1  0  0  0  0
 19 10  1  0  0  0  0
 19 20  2  0  0  0  0
 20 15  1  0  0  0  0
 21  3  1  0  0  0  0
 22 26  1  0  0  0  0
 23 27  1  0  0  0  0
 24 23  2  0  0  0  0
 25 22  2  0  0  0  0
 25 24  1  0  0  0  0
 26 27  2  0  0  0  0
M  END
>  <MODEL>
7

>  <REMARK>
 VINA RESULT:      -4.1      2.105      5.118
  Name = 
  1 active torsions:
  status: ('A' for Active; 'I' for Inactive)
    1  A    between atoms: C_9  and  C_15
                            x       y       z     vdW  Elec       q    Type
                         _______ _______ _______ _____ _____    ______ ____

>  <TORSDO>
F 1

$$$$
