=
 OpenBabel11052422583D

 28 30  0  0  1  0  0  0  0  0999 V2000
  161.4550  210.2030  152.7080 N   0  0  0  0  0  0  0  0  0  0  0  0
  161.3310  208.4530  150.9260 C   0  0  1  0  0  3  0  0  0  0  0  0
  161.4860  210.8250  150.4150 O   0  0  0  0  0  1  0  0  0  0  0  0
  161.1440  207.7560  153.0680 C   0  0  0  0  0  2  0  0  0  0  0  0
  161.7710  207.4800  151.8400 O   0  0  0  0  0  0  0  0  0  0  0  0
  161.6580  209.0820  153.6450 C   0  0  0  0  0  2  0  0  0  0  0  0
  161.8640  209.8390  151.3330 C   0  0  1  0  0  3  0  0  0  0  0  0
  161.1800  202.9330  151.5320 C   0  0  0  0  0  1  0  0  0  0  0  0
  162.3970  208.9250  148.8470 O   0  0  0  0  0  0  0  0  0  0  0  0
  161.1090  204.1670  148.0780 C   0  0  2  0  0  3  0  0  0  0  0  0
  160.6850  205.8270  149.8120 C   0  0  0  0  0  2  0  0  0  0  0  0
  160.8080  202.2170  149.1820 C   0  0  0  0  0  0  0  0  0  0  0  0
  161.2340  204.4400  149.5580 C   0  0  1  0  0  3  0  0  0  0  0  0
  161.7450  206.4980  147.5870 C   0  0  0  0  0  2  0  0  0  0  0  0
  161.2730  202.7360  147.9420 N   0  0  0  0  0  2  0  0  0  0  0  0
  162.1200  205.0210  147.3460 C   0  0  0  0  0  2  0  0  0  0  0  0
  161.7680  208.0800  149.5420 C   0  0  0  0  0  0  0  0  0  0  0  0
  160.6240  200.9840  149.3690 O   0  0  0  0  0  0  0  0  0  0  0  0
  160.5270  203.2670  150.2070 C   0  0  2  0  0  3  0  0  0  0  0  0
  161.4710  206.7780  149.0090 N   0  0  0  0  0  0  0  0  0  0  0  0
  160.0970  210.7870  152.7900 C   0  0  1  0  0  3  0  0  0  0  0  0
  159.3610  210.4640  154.0840 C   0  0  0  0  0  1  0  0  0  0  0  0
  160.1240  212.2920  152.5620 C   0  0  0  0  0  2  0  0  0  0  0  0
  159.2180  213.5050  150.6110 C   0  0  0  0  0  1  0  0  0  0  0  0
  158.8490  212.7640  151.8790 C   0  0  2  0  0  3  0  0  0  0  0  0
  158.0830  213.6750  152.7880 C   0  0  0  0  0  0  0  0  0  0  0  0
  156.9570  214.1170  152.4320 O   0  0  0  0  0  0  0  0  0  0  0  0
  158.6230  214.0520  154.0550 N   0  0  0  0  0  1  0  0  0  0  0  0
  1 21  1  0  0  0  0
  1  6  1  0  0  0  0
  2 17  1  6  0  0  0
  2  7  1  0  0  0  0
  2  5  1  0  0  0  0
  4  6  1  0  0  0  0
  5  4  1  0  0  0  0
  7  3  1  6  0  0  0
  7  1  1  0  0  0  0
  9 17  2  0  0  0  0
 10 16  1  6  0  0  0
 10 13  1  0  0  0  0
 12 18  2  0  0  0  0
 12 19  1  0  0  0  0
 13 11  1  6  0  0  0
 13 19  1  0  0  0  0
 14 20  1  0  0  0  0
 15 10  1  0  0  0  0
 15 12  1  0  0  0  0
 16 14  1  0  0  0  0
 19  8  1  1  0  0  0
 20 17  1  0  0  0  0
 20 11  1  0  0  0  0
 21 22  1  1  0  0  0
 23 21  1  0  0  0  0
 25 24  1  6  0  0  0
 25 23  1  0  0  0  0
 25 26  1  0  0  0  0
 26 28  1  0  0  0  0
 27 26  2  0  0  0  0
M  END
>  <MODEL>
1

>  <REMARK>
 VINA RESULT:      -7.8      0.000      0.000
  Name = 
  5 active torsions:
  status: ('A' for Active; 'I' for Inactive)
    1  A    between atoms: N_1  and  C_2
    2  A    between atoms: C_2  and  C_3
    3  A    between atoms: C_3  and  C_11
    4  A    between atoms: C_6  and  C_11
    5  A    between atoms: C_16  and  C_20
                            x       y       z     vdW  Elec       q    Type
                         _______ _______ _______ _____ _____    ______ ____

>  <TORSDO>
F 5

$$$$
=
 OpenBabel11052422583D

 28 30  0  0  1  0  0  0  0  0999 V2000
  161.1860  209.8710  153.9720 N   0  0  0  0  0  0  0  0  0  0  0  0
  161.1650  208.3930  151.9560 C   0  0  1  0  0  3  0  0  0  0  0  0
  161.0400  210.8150  151.7960 O   0  0  0  0  0  1  0  0  0  0  0  0
  161.1570  207.3790  153.9760 C   0  0  0  0  0  2  0  0  0  0  0  0
  161.7500  207.3540  152.7020 O   0  0  0  0  0  0  0  0  0  0  0  0
  161.5520  208.6570  154.7270 C   0  0  0  0  0  2  0  0  0  0  0  0
  161.5650  209.7570  152.5470 C   0  0  1  0  0  3  0  0  0  0  0  0
  161.2480  202.8470  151.6350 C   0  0  0  0  0  1  0  0  0  0  0  0
  162.1470  209.2480  149.9600 O   0  0  0  0  0  0  0  0  0  0  0  0
  161.0210  204.6320  148.4390 C   0  0  2  0  0  3  0  0  0  0  0  0
  160.5880  205.9620  150.4350 C   0  0  0  0  0  2  0  0  0  0  0  0
  160.8310  202.5160  149.2080 C   0  0  0  0  0  0  0  0  0  0  0  0
  161.1820  204.6610  149.9400 C   0  0  1  0  0  3  0  0  0  0  0  0
  161.5510  207.0380  148.3290 C   0  0  0  0  0  2  0  0  0  0  0  0
  161.2370  203.2530  148.0620 N   0  0  0  0  0  2  0  0  0  0  0  0
  161.9750  205.6400  147.8350 C   0  0  0  0  0  2  0  0  0  0  0  0
  161.5730  208.2740  150.5190 C   0  0  0  0  0  0  0  0  0  0  0  0
  160.7000  201.2620  149.1910 O   0  0  0  0  0  0  0  0  0  0  0  0
  160.5410  203.3670  150.4000 C   0  0  2  0  0  3  0  0  0  0  0  0
  161.3100  207.0670  149.7830 N   0  0  0  0  0  0  0  0  0  0  0  0
  159.7780  210.2800  154.1830 C   0  0  1  0  0  3  0  0  0  0  0  0
  159.2010  209.8460  155.5240 C   0  0  0  0  0  1  0  0  0  0  0  0
  159.6000  211.7810  153.9940 C   0  0  0  0  0  2  0  0  0  0  0  0
  158.3580  212.9970  152.2410 C   0  0  0  0  0  1  0  0  0  0  0  0
  158.2150  212.1030  153.4550 C   0  0  2  0  0  3  0  0  0  0  0  0
  157.4030  212.8020  154.5010 C   0  0  0  0  0  0  0  0  0  0  0  0
  157.9780  213.3580  155.4760 O   0  0  0  0  0  0  0  0  0  0  0  0
  155.9780  212.8380  154.4060 N   0  0  0  0  0  1  0  0  0  0  0  0
  1 21  1  0  0  0  0
  1  6  1  0  0  0  0
  2 17  1  6  0  0  0
  2  7  1  0  0  0  0
  2  5  1  0  0  0  0
  4  6  1  0  0  0  0
  5  4  1  0  0  0  0
  7  3  1  6  0  0  0
  7  1  1  0  0  0  0
  9 17  2  0  0  0  0
 10 16  1  6  0  0  0
 10 13  1  0  0  0  0
 12 19  1  0  0  0  0
 13 19  1  0  0  0  0
 13 11  1  1  0  0  0
 14 20  1  0  0  0  0
 15 10  1  0  0  0  0
 15 12  1  0  0  0  0
 16 14  1  0  0  0  0
 18 12  2  0  0  0  0
 19  8  1  1  0  0  0
 20 11  1  0  0  0  0
 20 17  1  0  0  0  0
 21 22  1  1  0  0  0
 23 21  1  0  0  0  0
 25 24  1  6  0  0  0
 25 23  1  0  0  0  0
 25 26  1  0  0  0  0
 26 27  2  0  0  0  0
 28 26  1  0  0  0  0
M  END
>  <MODEL>
2

>  <REMARK>
 VINA RESULT:      -7.8      1.289      1.386
  Name = 
  5 active torsions:
  status: ('A' for Active; 'I' for Inactive)
    1  A    between atoms: N_1  and  C_2
    2  A    between atoms: C_2  and  C_3
    3  A    between atoms: C_3  and  C_11
    4  A    between atoms: C_6  and  C_11
    5  A    between atoms: C_16  and  C_20
                            x       y       z     vdW  Elec       q    Type
                         _______ _______ _______ _____ _____    ______ ____

>  <TORSDO>
F 5

$$$$
=
 OpenBabel11052422583D

 28 30  0  0  1  0  0  0  0  0999 V2000
  161.2530  209.8150  154.0150 N   0  0  0  0  0  0  0  0  0  0  0  0
  161.1660  208.3780  151.9720 C   0  0  1  0  0  3  0  0  0  0  0  0
  161.1960  210.8050  151.8560 O   0  0  0  0  0  1  0  0  0  0  0  0
  161.0670  207.3300  153.9720 C   0  0  0  0  0  2  0  0  0  0  0  0
  161.6750  207.2910  152.7050 O   0  0  0  0  0  0  0  0  0  0  0  0
  161.5320  208.5670  154.7510 C   0  0  0  0  0  2  0  0  0  0  0  0
  161.6430  209.7030  152.5930 C   0  0  1  0  0  3  0  0  0  0  0  0
  161.2050  202.8330  151.6360 C   0  0  0  0  0  1  0  0  0  0  0  0
  162.1720  209.2300  149.9860 O   0  0  0  0  0  0  0  0  0  0  0  0
  161.0200  204.6280  148.4430 C   0  0  2  0  0  3  0  0  0  0  0  0
  160.5810  205.9560  150.4390 C   0  0  0  0  0  2  0  0  0  0  0  0
  160.8050  202.5110  149.2050 C   0  0  0  0  0  0  0  0  0  0  0  0
  161.1680  204.6520  149.9450 C   0  0  1  0  0  3  0  0  0  0  0  0
  161.5700  207.0300  148.3440 C   0  0  0  0  0  2  0  0  0  0  0  0
  161.2270  203.2480  148.0640 N   0  0  0  0  0  2  0  0  0  0  0  0
  161.9870  205.6290  147.8500 C   0  0  0  0  0  2  0  0  0  0  0  0
  161.5850  208.2590  150.5380 C   0  0  0  0  0  0  0  0  0  0  0  0
  160.6640  201.2590  149.1830 O   0  0  0  0  0  0  0  0  0  0  0  0
  160.5130  203.3620  150.3970 C   0  0  2  0  0  3  0  0  0  0  0  0
  161.3180  207.0560  149.7970 N   0  0  0  0  0  0  0  0  0  0  0  0
  159.8710  210.3080  154.2170 C   0  0  1  0  0  3  0  0  0  0  0  0
  159.1630  209.6940  155.4170 C   0  0  0  0  0  1  0  0  0  0  0  0
  159.8290  211.8280  154.3020 C   0  0  0  0  0  2  0  0  0  0  0  0
  158.0140  213.2520  155.1830 C   0  0  0  0  0  1  0  0  0  0  0  0
  159.1150  212.2850  155.5650 C   0  0  2  0  0  3  0  0  0  0  0  0
  160.0810  212.9630  156.4880 C   0  0  0  0  0  0  0  0  0  0  0  0
  160.0120  214.2090  156.6660 O   0  0  0  0  0  0  0  0  0  0  0  0
  161.0860  212.2060  157.1640 N   0  0  0  0  0  1  0  0  0  0  0  0
  1 21  1  0  0  0  0
  1  6  1  0  0  0  0
  2 17  1  6  0  0  0
  2  7  1  0  0  0  0
  2  5  1  0  0  0  0
  4  6  1  0  0  0  0
  5  4  1  0  0  0  0
  7  3  1  6  0  0  0
  7  1  1  0  0  0  0
  9 17  2  0  0  0  0
 10 16  1  6  0  0  0
 10 13  1  0  0  0  0
 12 19  1  0  0  0  0
 13 19  1  0  0  0  0
 13 11  1  1  0  0  0
 14 20  1  0  0  0  0
 15 10  1  0  0  0  0
 15 12  1  0  0  0  0
 16 14  1  0  0  0  0
 18 12  2  0  0  0  0
 19  8  1  1  0  0  0
 20 11  1  0  0  0  0
 20 17  1  0  0  0  0
 21 23  1  0  0  0  0
 21 22  1  1  0  0  0
 23 25  1  0  0  0  0
 25 24  1  6  0  0  0
 25 26  1  0  0  0  0
 26 27  2  0  0  0  0
 26 28  1  0  0  0  0
M  END
>  <MODEL>
3

>  <REMARK>
 VINA RESULT:      -7.5      1.874      2.116
  Name = 
  5 active torsions:
  status: ('A' for Active; 'I' for Inactive)
    1  A    between atoms: N_1  and  C_2
    2  A    between atoms: C_2  and  C_3
    3  A    between atoms: C_3  and  C_11
    4  A    between atoms: C_6  and  C_11
    5  A    between atoms: C_16  and  C_20
                            x       y       z     vdW  Elec       q    Type
                         _______ _______ _______ _____ _____    ______ ____

>  <TORSDO>
F 5

$$$$
=
 OpenBabel11052422583D

 28 30  0  0  1  0  0  0  0  0999 V2000
  162.0150  207.2740  153.0340 N   0  0  0  0  0  0  0  0  0  0  0  0
  161.5070  206.6470  150.6680 C   0  0  1  0  0  3  0  0  0  0  0  0
  162.2030  208.8880  151.3000 O   0  0  0  0  0  1  0  0  0  0  0  0
  161.1500  205.0720  152.2500 C   0  0  0  0  0  2  0  0  0  0  0  0
  161.7060  205.2890  150.9770 O   0  0  0  0  0  0  0  0  0  0  0  0
  161.9480  205.8280  153.3200 C   0  0  0  0  0  2  0  0  0  0  0  0
  162.3390  207.5310  151.6130 C   0  0  1  0  0  3  0  0  0  0  0  0
  161.4710  201.3660  148.9450 C   0  0  0  0  0  1  0  0  0  0  0  0
  162.4270  207.9740  148.9150 O   0  0  0  0  0  0  0  0  0  0  0  0
  161.1560  203.9070  146.3190 C   0  0  2  0  0  3  0  0  0  0  0  0
  160.8250  204.6890  148.6040 C   0  0  0  0  0  2  0  0  0  0  0  0
  160.9540  201.6670  146.5330 C   0  0  0  0  0  0  0  0  0  0  0  0
  161.3750  203.5520  147.7700 C   0  0  1  0  0  3  0  0  0  0  0  0
  161.7260  206.2570  146.8020 C   0  0  0  0  0  2  0  0  0  0  0  0
  161.3300  202.6680  145.5960 N   0  0  0  0  0  2  0  0  0  0  0  0
  162.1050  205.0270  145.9520 C   0  0  0  0  0  2  0  0  0  0  0  0
  161.8560  206.8940  149.2320 C   0  0  0  0  0  0  0  0  0  0  0  0
  160.8000  200.4600  146.2030 O   0  0  0  0  0  0  0  0  0  0  0  0
  160.7270  202.1890  147.9140 C   0  0  2  0  0  3  0  0  0  0  0  0
  161.5430  205.9170  148.2250 N   0  0  0  0  0  0  0  0  0  0  0  0
  160.8250  208.0140  153.5160 C   0  0  1  0  0  3  0  0  0  0  0  0
  160.0900  207.3270  154.6590 C   0  0  0  0  0  1  0  0  0  0  0  0
  161.1770  209.4440  153.9010 C   0  0  0  0  0  2  0  0  0  0  0  0
  160.2830  211.3680  152.6380 C   0  0  0  0  0  1  0  0  0  0  0  0
  159.9790  210.3660  153.7330 C   0  0  2  0  0  3  0  0  0  0  0  0
  159.7010  211.0910  155.0140 C   0  0  0  0  0  0  0  0  0  0  0  0
  160.4580  212.0290  155.3830 O   0  0  0  0  0  0  0  0  0  0  0  0
  158.5850  210.7210  155.8240 N   0  0  0  0  0  1  0  0  0  0  0  0
  1  6  1  0  0  0  0
  1 21  1  0  0  0  0
  2 17  1  6  0  0  0
  2  5  1  0  0  0  0
  2  7  1  0  0  0  0
  4  6  1  0  0  0  0
  5  4  1  0  0  0  0
  7  3  1  6  0  0  0
  7  1  1  0  0  0  0
  9 17  2  0  0  0  0
 10 16  1  6  0  0  0
 10 13  1  0  0  0  0
 12 19  1  0  0  0  0
 13 19  1  0  0  0  0
 13 11  1  1  0  0  0
 14 20  1  0  0  0  0
 15 10  1  0  0  0  0
 15 12  1  0  0  0  0
 16 14  1  0  0  0  0
 18 12  2  0  0  0  0
 19  8  1  1  0  0  0
 20 11  1  0  0  0  0
 20 17  1  0  0  0  0
 21 23  1  0  0  0  0
 21 22  1  1  0  0  0
 25 24  1  6  0  0  0
 25 23  1  0  0  0  0
 25 26  1  0  0  0  0
 26 27  2  0  0  0  0
 26 28  1  0  0  0  0
M  END
>  <MODEL>
4

>  <REMARK>
 VINA RESULT:      -7.4      2.140      2.719
  Name = 
  5 active torsions:
  status: ('A' for Active; 'I' for Inactive)
    1  A    between atoms: N_1  and  C_2
    2  A    between atoms: C_2  and  C_3
    3  A    between atoms: C_3  and  C_11
    4  A    between atoms: C_6  and  C_11
    5  A    between atoms: C_16  and  C_20
                            x       y       z     vdW  Elec       q    Type
                         _______ _______ _______ _____ _____    ______ ____

>  <TORSDO>
F 5

$$$$
=
 OpenBabel11052422583D

 28 30  0  0  1  0  0  0  0  0999 V2000
  162.1890  206.2880  151.0580 N   0  0  0  0  0  0  0  0  0  0  0  0
  161.2040  207.9050  152.6920 C   0  0  1  0  0  3  0  0  0  0  0  0
  161.2520  205.5090  153.0980 O   0  0  0  0  0  1  0  0  0  0  0  0
  161.9300  208.7450  150.7230 C   0  0  0  0  0  2  0  0  0  0  0  0
  161.9440  208.9520  152.1140 O   0  0  0  0  0  0  0  0  0  0  0  0
  162.7160  207.4780  150.3620 C   0  0  0  0  0  2  0  0  0  0  0  0
  161.9370  206.5670  152.4900 C   0  0  1  0  0  3  0  0  0  0  0  0
  159.3170  213.1020  152.1590 C   0  0  0  0  0  1  0  0  0  0  0  0
  161.5810  207.5060  155.0120 O   0  0  0  0  0  0  0  0  0  0  0  0
  158.5030  211.4200  155.3150 C   0  0  2  0  0  3  0  0  0  0  0  0
  159.3240  209.9850  153.5240 C   0  0  0  0  0  2  0  0  0  0  0  0
  157.9270  213.3050  154.2090 C   0  0  0  0  0  0  0  0  0  0  0  0
  159.2190  211.4230  153.9860 C   0  0  1  0  0  3  0  0  0  0  0  0
  159.7160  209.3760  155.9720 C   0  0  0  0  0  2  0  0  0  0  0  0
  158.0890  212.7900  155.5240 N   0  0  0  0  0  2  0  0  0  0  0  0
  159.4330  210.8430  156.3590 C   0  0  0  0  0  2  0  0  0  0  0  0
  160.9730  208.1920  154.1440 C   0  0  0  0  0  0  0  0  0  0  0  0
  157.3930  214.4250  153.9850 O   0  0  0  0  0  0  0  0  0  0  0  0
  158.4110  212.3840  153.1370 C   0  0  2  0  0  3  0  0  0  0  0  0
  160.0680  209.2340  154.5470 N   0  0  0  0  0  0  0  0  0  0  0  0
  161.0370  205.6740  150.3600 C   0  0  1  0  0  3  0  0  0  0  0  0
  160.4040  206.5690  149.3020 C   0  0  0  0  0  1  0  0  0  0  0  0
  161.4060  204.3260  149.7550 C   0  0  0  0  0  2  0  0  0  0  0  0
  161.2100  202.6200  151.5290 C   0  0  0  0  0  1  0  0  0  0  0  0
  160.5290  203.2170  150.3150 C   0  0  2  0  0  3  0  0  0  0  0  0
  160.3200  202.1520  149.2830 C   0  0  0  0  0  0  0  0  0  0  0  0
  159.3540  201.3490  149.3940 O   0  0  0  0  0  0  0  0  0  0  0  0
  161.2120  202.0370  148.1740 N   0  0  0  0  0  1  0  0  0  0  0  0
  1  7  1  0  0  0  0
  2 17  1  1  0  0  0
  4  5  1  0  0  0  0
  5  2  1  0  0  0  0
  6  4  1  0  0  0  0
  6  1  1  0  0  0  0
  7  2  1  0  0  0  0
  7  3  1  6  0  0  0
 10 15  1  0  0  0  0
 10 16  1  1  0  0  0
 11 20  1  0  0  0  0
 12 15  1  0  0  0  0
 13 11  1  6  0  0  0
 13 10  1  0  0  0  0
 14 16  1  0  0  0  0
 17 20  1  0  0  0  0
 17  9  2  0  0  0  0
 18 12  2  0  0  0  0
 19  8  1  6  0  0  0
 19 13  1  0  0  0  0
 19 12  1  0  0  0  0
 20 14  1  0  0  0  0
 21 22  1  6  0  0  0
 21  1  1  0  0  0  0
 23 25  1  0  0  0  0
 23 21  1  0  0  0  0
 25 24  1  1  0  0  0
 26 27  2  0  0  0  0
 26 25  1  0  0  0  0
 28 26  1  0  0  0  0
M  END
>  <MODEL>
5

>  <REMARK>
 VINA RESULT:      -7.3      1.577      8.937
  Name = 
  5 active torsions:
  status: ('A' for Active; 'I' for Inactive)
    1  A    between atoms: N_1  and  C_2
    2  A    between atoms: C_2  and  C_3
    3  A    between atoms: C_3  and  C_11
    4  A    between atoms: C_6  and  C_11
    5  A    between atoms: C_16  and  C_20
                            x       y       z     vdW  Elec       q    Type
                         _______ _______ _______ _____ _____    ______ ____

>  <TORSDO>
F 5

$$$$
=
 OpenBabel11052422583D

 28 30  0  0  1  0  0  0  0  0999 V2000
  160.3830  211.2010  154.5470 N   0  0  0  0  0  0  0  0  0  0  0  0
  161.6270  209.9290  152.7910 C   0  0  1  0  0  3  0  0  0  0  0  0
  159.4720  210.9690  152.3650 O   0  0  0  0  0  1  0  0  0  0  0  0
  162.5190  209.9570  154.8670 C   0  0  0  0  0  2  0  0  0  0  0  0
  162.8270  210.1020  153.5030 O   0  0  0  0  0  0  0  0  0  0  0  0
  161.6230  211.1090  155.3410 C   0  0  0  0  0  2  0  0  0  0  0  0
  160.6580  211.0840  153.0980 C   0  0  1  0  0  3  0  0  0  0  0  0
  161.4700  204.3940  152.3410 C   0  0  0  0  0  1  0  0  0  0  0  0
  162.4890  210.7970  150.7450 O   0  0  0  0  0  0  0  0  0  0  0  0
  161.0730  206.2660  149.2120 C   0  0  2  0  0  3  0  0  0  0  0  0
  160.8430  207.5600  151.2640 C   0  0  0  0  0  2  0  0  0  0  0  0
  160.8580  204.1390  149.9460 C   0  0  0  0  0  0  0  0  0  0  0  0
  161.3470  206.2510  150.6960 C   0  0  1  0  0  3  0  0  0  0  0  0
  161.6860  208.6520  149.1150 C   0  0  0  0  0  2  0  0  0  0  0  0
  161.2060  204.8890  148.7890 N   0  0  0  0  0  2  0  0  0  0  0  0
  162.0180  207.2520  148.5600 C   0  0  0  0  0  2  0  0  0  0  0  0
  161.9200  209.8310  151.3250 C   0  0  0  0  0  0  0  0  0  0  0  0
  160.6790  202.8920  149.9110 O   0  0  0  0  0  0  0  0  0  0  0  0
  160.6930  204.9700  151.1750 C   0  0  2  0  0  3  0  0  0  0  0  0
  161.5570  208.6530  150.5840 N   0  0  0  0  0  0  0  0  0  0  0  0
  159.3210  210.2870  155.0270 C   0  0  1  0  0  3  0  0  0  0  0  0
  159.8380  209.1130  155.8480 C   0  0  0  0  0  1  0  0  0  0  0  0
  158.2470  211.0380  155.8010 C   0  0  0  0  0  2  0  0  0  0  0  0
  156.9820  212.8600  154.7170 C   0  0  0  0  0  1  0  0  0  0  0  0
  157.0560  211.3600  154.9120 C   0  0  2  0  0  3  0  0  0  0  0  0
  155.7900  210.8720  155.5470 C   0  0  0  0  0  0  0  0  0  0  0  0
  155.1260  209.9510  155.0000 O   0  0  0  0  0  0  0  0  0  0  0  0
  155.3260  211.4500  156.7670 N   0  0  0  0  0  1  0  0  0  0  0  0
  1 21  1  0  0  0  0
  1  6  1  0  0  0  0
  2 17  1  6  0  0  0
  2  7  1  0  0  0  0
  2  5  1  0  0  0  0
  4  6  1  0  0  0  0
  5  4  1  0  0  0  0
  7  3  1  6  0  0  0
  7  1  1  0  0  0  0
  9 17  2  0  0  0  0
 10 16  1  6  0  0  0
 10 13  1  0  0  0  0
 12 19  1  0  0  0  0
 13 19  1  0  0  0  0
 13 11  1  1  0  0  0
 14 20  1  0  0  0  0
 15 10  1  0  0  0  0
 15 12  1  0  0  0  0
 16 14  1  0  0  0  0
 18 12  2  0  0  0  0
 19  8  1  1  0  0  0
 20 11  1  0  0  0  0
 20 17  1  0  0  0  0
 21 23  1  0  0  0  0
 21 22  1  1  0  0  0
 25 24  1  1  0  0  0
 25 26  1  0  0  0  0
 25 23  1  0  0  0  0
 26 28  1  0  0  0  0
 27 26  2  0  0  0  0
M  END
>  <MODEL>
6

>  <REMARK>
 VINA RESULT:      -7.3      2.333      3.034
  Name = 
  5 active torsions:
  status: ('A' for Active; 'I' for Inactive)
    1  A    between atoms: N_1  and  C_2
    2  A    between atoms: C_2  and  C_3
    3  A    between atoms: C_3  and  C_11
    4  A    between atoms: C_6  and  C_11
    5  A    between atoms: C_16  and  C_20
                            x       y       z     vdW  Elec       q    Type
                         _______ _______ _______ _____ _____    ______ ____

>  <TORSDO>
F 5

$$$$
=
 OpenBabel11052422583D

 28 30  0  0  1  0  0  0  0  0999 V2000
  160.5360  204.2620  150.2080 N   0  0  0  0  0  0  0  0  0  0  0  0
  161.7420  206.4200  150.5830 C   0  0  1  0  0  3  0  0  0  0  0  0
  160.1080  206.1320  148.8070 O   0  0  0  0  0  1  0  0  0  0  0  0
  162.3380  204.6680  151.8810 C   0  0  0  0  0  2  0  0  0  0  0  0
  162.0280  206.0400  151.9060 O   0  0  0  0  0  0  0  0  0  0  0  0
  161.1000  203.8450  151.5070 C   0  0  0  0  0  2  0  0  0  0  0  0
  160.4490  205.7350  150.1050 C   0  0  1  0  0  3  0  0  0  0  0  0
  159.6590  207.3410  155.6490 C   0  0  0  0  0  1  0  0  0  0  0  0
  161.6070  208.4630  149.3620 O   0  0  0  0  0  0  0  0  0  0  0  0
  161.2210  210.2280  154.0120 C   0  0  2  0  0  3  0  0  0  0  0  0
  161.6800  208.0550  153.0070 C   0  0  0  0  0  2  0  0  0  0  0  0
  160.4340  209.6670  156.0550 C   0  0  0  0  0  0  0  0  0  0  0  0
  160.7630  208.7900  153.9610 C   0  0  1  0  0  3  0  0  0  0  0  0
  161.6680  210.1780  151.5880 C   0  0  0  0  0  2  0  0  0  0  0  0
  160.5910  210.7840  155.1890 N   0  0  0  0  0  2  0  0  0  0  0  0
  160.8680  210.8890  152.6980 C   0  0  0  0  0  2  0  0  0  0  0  0
  161.6400  207.9120  150.4970 C   0  0  0  0  0  0  0  0  0  0  0  0
  160.0860  209.7930  157.2600 O   0  0  0  0  0  0  0  0  0  0  0  0
  160.7580  208.3570  155.4140 C   0  0  2  0  0  3  0  0  0  0  0  0
  161.5830  208.7100  151.6920 N   0  0  0  0  0  0  0  0  0  0  0  0
  161.2090  203.6230  149.0550 C   0  0  1  0  0  3  0  0  0  0  0  0
  160.7860  202.1790  148.8130 C   0  0  0  0  0  1  0  0  0  0  0  0
  161.0330  204.4420  147.7830 C   0  0  0  0  0  2  0  0  0  0  0  0
  162.9700  205.0690  146.3860 C   0  0  0  0  0  1  0  0  0  0  0  0
  161.9780  203.9660  146.6910 C   0  0  2  0  0  3  0  0  0  0  0  0
  161.2080  203.6270  145.4520 C   0  0  0  0  0  0  0  0  0  0  0  0
  160.8170  202.4430  145.2580 O   0  0  0  0  0  0  0  0  0  0  0  0
  160.9170  204.6350  144.4840 N   0  0  0  0  0  1  0  0  0  0  0  0
  1  6  1  0  0  0  0
  2 17  1  1  0  0  0
  2  5  1  0  0  0  0
  4  5  1  0  0  0  0
  6  4  1  0  0  0  0
  7  3  1  6  0  0  0
  7  1  1  0  0  0  0
  7  2  1  0  0  0  0
  9 17  2  0  0  0  0
 10 16  1  6  0  0  0
 10 15  1  0  0  0  0
 12 18  2  0  0  0  0
 13 11  1  6  0  0  0
 13 10  1  0  0  0  0
 13 19  1  0  0  0  0
 14 20  1  0  0  0  0
 14 16  1  0  0  0  0
 15 12  1  0  0  0  0
 17 20  1  0  0  0  0
 19  8  1  6  0  0  0
 19 12  1  0  0  0  0
 20 11  1  0  0  0  0
 21 22  1  6  0  0  0
 21  1  1  0  0  0  0
 23 21  1  0  0  0  0
 25 24  1  6  0  0  0
 25 23  1  0  0  0  0
 26 25  1  0  0  0  0
 27 26  2  0  0  0  0
 28 26  1  0  0  0  0
M  END
>  <MODEL>
7

>  <REMARK>
 VINA RESULT:      -7.1      2.497      8.122
  Name = 
  5 active torsions:
  status: ('A' for Active; 'I' for Inactive)
    1  A    between atoms: N_1  and  C_2
    2  A    between atoms: C_2  and  C_3
    3  A    between atoms: C_3  and  C_11
    4  A    between atoms: C_6  and  C_11
    5  A    between atoms: C_16  and  C_20
                            x       y       z     vdW  Elec       q    Type
                         _______ _______ _______ _____ _____    ______ ____

>  <TORSDO>
F 5

$$$$
=
 OpenBabel11052422583D

 28 30  0  0  1  0  0  0  0  0999 V2000
  162.2730  206.2420  148.8090 N   0  0  0  0  0  0  0  0  0  0  0  0
  161.5910  207.4880  150.8670 C   0  0  1  0  0  3  0  0  0  0  0  0
  161.7630  205.0640  150.8080 O   0  0  0  0  0  1  0  0  0  0  0  0
  161.9060  208.7010  148.9860 C   0  0  0  0  0  2  0  0  0  0  0  0
  162.1840  208.6600  150.3640 O   0  0  0  0  0  0  0  0  0  0  0  0
  162.6330  207.5630  148.2580 C   0  0  0  0  0  2  0  0  0  0  0  0
  162.2970  206.2490  150.2880 C   0  0  1  0  0  3  0  0  0  0  0  0
  160.0920  212.7800  151.6410 C   0  0  0  0  0  1  0  0  0  0  0  0
  162.3260  206.6290  152.9650 O   0  0  0  0  0  0  0  0  0  0  0  0
  159.6930  210.5640  154.5360 C   0  0  2  0  0  3  0  0  0  0  0  0
  160.0670  209.4620  152.3950 C   0  0  0  0  0  2  0  0  0  0  0  0
  159.0990  212.6550  153.9160 C   0  0  0  0  0  0  0  0  0  0  0  0
  160.1670  210.7870  153.1200 C   0  0  1  0  0  3  0  0  0  0  0  0
  160.8220  208.3720  154.5770 C   0  0  0  0  0  2  0  0  0  0  0  0
  159.4400  211.8870  155.0630 N   0  0  0  0  0  2  0  0  0  0  0  0
  160.7360  209.7480  155.2680 C   0  0  0  0  0  2  0  0  0  0  0  0
  161.6390  207.5010  152.3640 C   0  0  0  0  0  0  0  0  0  0  0  0
  158.6320  213.8220  154.0010 O   0  0  0  0  0  0  0  0  0  0  0  0
  159.3100  211.9340  152.6250 C   0  0  2  0  0  3  0  0  0  0  0  0
  160.9090  208.4900  153.1100 N   0  0  0  0  0  0  0  0  0  0  0  0
  161.0200  205.6990  148.2360 C   0  0  1  0  0  3  0  0  0  0  0  0
  160.3980  206.5800  147.1610 C   0  0  0  0  0  1  0  0  0  0  0  0
  161.2160  204.2840  147.7090 C   0  0  0  0  0  2  0  0  0  0  0  0
  161.1850  202.8410  145.7060 C   0  0  0  0  0  1  0  0  0  0  0  0
  161.2900  204.2720  146.1900 C   0  0  2  0  0  3  0  0  0  0  0  0
  162.5870  204.8650  145.7310 C   0  0  0  0  0  0  0  0  0  0  0  0
  162.5850  205.8220  144.9100 O   0  0  0  0  0  0  0  0  0  0  0  0
  163.8270  204.3470  146.2130 N   0  0  0  0  0  1  0  0  0  0  0  0
  1  7  1  0  0  0  0
  2 17  1  1  0  0  0
  4  5  1  0  0  0  0
  5  2  1  0  0  0  0
  6  1  1  0  0  0  0
  6  4  1  0  0  0  0
  7  3  1  1  0  0  0
  7  2  1  0  0  0  0
 10 15  1  0  0  0  0
 10 16  1  1  0  0  0
 11 20  1  0  0  0  0
 12 18  2  0  0  0  0
 12 15  1  0  0  0  0
 13 11  1  6  0  0  0
 13 10  1  0  0  0  0
 14 16  1  0  0  0  0
 17  9  2  0  0  0  0
 17 20  1  0  0  0  0
 19  8  1  6  0  0  0
 19 13  1  0  0  0  0
 19 12  1  0  0  0  0
 20 14  1  0  0  0  0
 21 22  1  6  0  0  0
 21  1  1  0  0  0  0
 23 21  1  0  0  0  0
 25 24  1  1  0  0  0
 25 23  1  0  0  0  0
 26 25  1  0  0  0  0
 26 28  1  0  0  0  0
 27 26  2  0  0  0  0
M  END
>  <MODEL>
8

>  <REMARK>
 VINA RESULT:      -6.4      2.009      8.592
  Name = 
  5 active torsions:
  status: ('A' for Active; 'I' for Inactive)
    1  A    between atoms: N_1  and  C_2
    2  A    between atoms: C_2  and  C_3
    3  A    between atoms: C_3  and  C_11
    4  A    between atoms: C_6  and  C_11
    5  A    between atoms: C_16  and  C_20
                            x       y       z     vdW  Elec       q    Type
                         _______ _______ _______ _____ _____    ______ ____

>  <TORSDO>
F 5

$$$$
=
 OpenBabel11052422583D

 28 30  0  0  1  0  0  0  0  0999 V2000
  161.9100  206.0400  150.0310 N   0  0  0  0  0  0  0  0  0  0  0  0
  161.3120  207.6940  151.8080 C   0  0  1  0  0  3  0  0  0  0  0  0
  160.9910  205.3010  152.0940 O   0  0  0  0  0  1  0  0  0  0  0  0
  162.0380  208.5210  149.8340 C   0  0  0  0  0  2  0  0  0  0  0  0
  162.1750  208.6410  151.2280 O   0  0  0  0  0  0  0  0  0  0  0  0
  162.5810  207.1680  149.3560 C   0  0  0  0  0  2  0  0  0  0  0  0
  161.8000  206.2700  151.4880 C   0  0  1  0  0  3  0  0  0  0  0  0
  159.8610  213.0540  151.6530 C   0  0  0  0  0  1  0  0  0  0  0  0
  161.8360  207.1500  154.0680 O   0  0  0  0  0  0  0  0  0  0  0  0
  159.1550  211.2950  154.7940 C   0  0  2  0  0  3  0  0  0  0  0  0
  159.6980  209.8850  152.8810 C   0  0  0  0  0  2  0  0  0  0  0  0
  158.6640  213.2750  153.8200 C   0  0  0  0  0  0  0  0  0  0  0  0
  159.7600  211.3010  153.4100 C   0  0  1  0  0  3  0  0  0  0  0  0
  160.2290  209.1250  155.2600 C   0  0  0  0  0  2  0  0  0  0  0  0
  158.8840  212.6830  155.0940 N   0  0  0  0  0  2  0  0  0  0  0  0
  160.1100  210.5890  155.7310 C   0  0  0  0  0  2  0  0  0  0  0  0
  161.2240  207.9280  153.2850 C   0  0  0  0  0  0  0  0  0  0  0  0
  158.2160  214.4460  153.6890 O   0  0  0  0  0  0  0  0  0  0  0  0
  158.9750  212.3690  152.6740 C   0  0  2  0  0  3  0  0  0  0  0  0
  160.4510  209.0230  153.8060 N   0  0  0  0  0  0  0  0  0  0  0  0
  160.6310  205.6610  149.3890 C   0  0  1  0  0  3  0  0  0  0  0  0
  160.4400  206.2440  147.9960 C   0  0  0  0  0  1  0  0  0  0  0  0
  160.4500  204.1490  149.3560 C   0  0  0  0  0  2  0  0  0  0  0  0
  161.6280  204.2120  147.1880 C   0  0  0  0  0  1  0  0  0  0  0  0
  161.5300  203.4880  148.5140 C   0  0  2  0  0  3  0  0  0  0  0  0
  161.1910  202.0480  148.2770 C   0  0  0  0  0  0  0  0  0  0  0  0
  161.1820  201.2370  149.2420 O   0  0  0  0  0  0  0  0  0  0  0  0
  160.8840  201.5870  146.9610 N   0  0  0  0  0  1  0  0  0  0  0  0
  1  7  1  0  0  0  0
  2 17  1  1  0  0  0
  4  5  1  0  0  0  0
  5  2  1  0  0  0  0
  6  4  1  0  0  0  0
  6  1  1  0  0  0  0
  7  2  1  0  0  0  0
  7  3  1  6  0  0  0
 10 15  1  0  0  0  0
 10 16  1  1  0  0  0
 11 20  1  0  0  0  0
 12 15  1  0  0  0  0
 13 11  1  6  0  0  0
 13 10  1  0  0  0  0
 14 16  1  0  0  0  0
 17 20  1  0  0  0  0
 17  9  2  0  0  0  0
 18 12  2  0  0  0  0
 19  8  1  6  0  0  0
 19 13  1  0  0  0  0
 19 12  1  0  0  0  0
 20 14  1  0  0  0  0
 21 22  1  6  0  0  0
 21  1  1  0  0  0  0
 23 21  1  0  0  0  0
 25 24  1  6  0  0  0
 25 23  1  0  0  0  0
 26 25  1  0  0  0  0
 26 27  2  0  0  0  0
 28 26  1  0  0  0  0
M  END
>  <MODEL>
9

>  <REMARK>
 VINA RESULT:      -6.3      1.425      8.868
  Name = 
  5 active torsions:
  status: ('A' for Active; 'I' for Inactive)
    1  A    between atoms: N_1  and  C_2
    2  A    between atoms: C_2  and  C_3
    3  A    between atoms: C_3  and  C_11
    4  A    between atoms: C_6  and  C_11
    5  A    between atoms: C_16  and  C_20
                            x       y       z     vdW  Elec       q    Type
                         _______ _______ _______ _____ _____    ______ ____

>  <TORSDO>
F 5

$$$$
