=
 OpenBabel11052422333D

 31 35  0  0  1  0  0  0  0  0999 V2000
  160.9940  209.3600  156.1580 C   0  0  0  0  0  0  0  0  0  0  0  0
  161.1280  209.1550  152.3410 C   0  0  1  0  0  3  0  0  0  0  0  0
  161.4410  203.8700  152.2710 O   0  0  0  0  0  0  0  0  0  0  0  0
  161.1660  204.2700  151.1080 C   0  0  0  0  0  0  0  0  0  0  0  0
  160.9900  208.7790  153.7990 C   0  0  0  0  0  0  0  0  0  0  0  0
  160.9450  208.0050  156.4950 C   0  0  0  0  0  3  0  0  0  0  0  0
  160.8530  206.6930  151.8570 C   0  0  0  0  0  0  0  0  0  0  0  0
  161.0190  210.3470  157.1820 N   0  0  0  0  0  1  0  0  0  0  0  0
  160.9870  206.4120  153.1220 N   0  0  0  0  0  0  0  0  0  0  0  0
  160.5230  208.0920  151.4150 C   0  0  0  0  0  2  0  0  0  0  0  0
  160.8840  205.6570  150.8690 N   0  0  0  0  0  2  0  0  0  0  0  0
  161.0320  209.7460  154.8160 C   0  0  0  0  0  3  0  0  0  0  0  0
  160.9600  207.4150  154.1460 C   0  0  0  0  0  0  0  0  0  0  0  0
  160.9340  207.0340  155.4900 C   0  0  0  0  0  3  0  0  0  0  0  0
  161.0600  201.4240  147.8930 C   0  0  0  0  0  0  0  0  0  0  0  0
  160.9390  201.9510  150.2480 C   0  0  0  0  0  3  0  0  0  0  0  0
  161.4920  205.0580  148.2980 O   0  0  0  0  0  1  0  0  0  0  0  0
  161.0230  200.5150  146.8890 F   0  0  0  0  0  0  0  0  0  0  0  0
  160.9000  201.0120  149.2140 C   0  0  0  0  0  3  0  0  0  0  0  0
  161.2940  203.7220  148.6310 C   0  0  0  0  0  0  0  0  0  0  0  0
  161.1340  203.3140  149.9750 C   0  0  0  0  0  0  0  0  0  0  0  0
  161.2560  202.7760  147.6020 C   0  0  0  0  0  3  0  0  0  0  0  0
  160.5720  210.5160  152.0160 C   0  0  0  0  0  0  0  0  0  0  0  0
  158.9950  212.3010  152.5100 C   0  0  0  0  0  3  0  0  0  0  0  0
  159.5010  211.0270  152.7690 C   0  0  0  0  0  3  0  0  0  0  0  0
  159.5590  213.0840  151.5030 C   0  0  0  0  0  3  0  0  0  0  0  0
  160.6250  212.5890  150.7490 C   0  0  0  0  0  3  0  0  0  0  0  0
  161.1300  211.3000  150.9800 C   0  0  0  0  0  0  0  0  0  0  0  0
  162.3820  211.4970  148.8260 C   0  0  0  0  0  2  0  0  0  0  0  0
  161.8400  210.0920  148.9330 C   0  0  0  0  0  2  0  0  0  0  0  0
  162.3130  210.8150  150.1830 C   0  0  0  0  0  3  0  0  0  0  0  0
  1  6  1  0  0  0  0
  1  8  1  0  0  0  0
  2 23  1  1  0  0  0
  2  5  1  0  0  0  0
  4  3  2  0  0  0  0
  5 13  2  0  0  0  0
  5 12  1  0  0  0  0
  7  9  2  0  0  0  0
  9 13  1  0  0  0  0
 10  7  1  0  0  0  0
 10  2  1  0  0  0  0
 11  4  1  0  0  0  0
 11  7  1  0  0  0  0
 12  1  2  0  0  0  0
 13 14  1  0  0  0  0
 14  6  2  0  0  0  0
 15 19  1  0  0  0  0
 17 20  1  0  0  0  0
 18 15  1  0  0  0  0
 19 16  2  0  0  0  0
 20 21  2  0  0  0  0
 21 16  1  0  0  0  0
 21  4  1  0  0  0  0
 22 15  2  0  0  0  0
 22 20  1  0  0  0  0
 23 25  1  0  0  0  0
 24 25  2  0  0  0  0
 26 24  1  0  0  0  0
 27 28  1  0  0  0  0
 27 26  2  0  0  0  0
 28 23  2  0  0  0  0
 29 30  1  0  0  0  0
 29 31  1  0  0  0  0
 30 31  1  0  0  0  0
 31 28  1  0  0  0  0
M  END
>  <MODEL>
1

>  <REMARK>
 VINA RESULT:      -8.7      0.000      0.000
  Name = 
  3 active torsions:
  status: ('A' for Active; 'I' for Inactive)
    1  A    between atoms: C_4  and  C_5
    2  A    between atoms: C_9  and  C_22
    3  A    between atoms: C_30  and  C_31
                            x       y       z     vdW  Elec       q    Type
                         _______ _______ _______ _____ _____    ______ ____

>  <TORSDO>
F 3

$$$$
=
 OpenBabel11052422333D

 31 35  0  0  1  0  0  0  0  0999 V2000
  161.3470  210.4580  155.9660 C   0  0  0  0  0  0  0  0  0  0  0  0
  161.2930  209.9430  152.1760 C   0  0  1  0  0  3  0  0  0  0  0  0
  161.6060  204.6690  152.5220 O   0  0  0  0  0  0  0  0  0  0  0  0
  161.2730  204.9740  151.3440 C   0  0  0  0  0  0  0  0  0  0  0  0
  161.2270  209.6880  153.6650 C   0  0  0  0  0  0  0  0  0  0  0  0
  161.3150  209.1350  156.4140 C   0  0  0  0  0  3  0  0  0  0  0  0
  160.9960  207.4510  151.9090 C   0  0  0  0  0  0  0  0  0  0  0  0
  161.4210  211.5250  156.9030 N   0  0  0  0  0  1  0  0  0  0  0  0
  161.1930  207.2740  153.1840 N   0  0  0  0  0  0  0  0  0  0  0  0
  160.6430  208.8100  151.3700 C   0  0  0  0  0  2  0  0  0  0  0  0
  160.9790  206.3380  151.0080 N   0  0  0  0  0  2  0  0  0  0  0  0
  161.3190  210.7340  154.5960 C   0  0  0  0  0  3  0  0  0  0  0  0
  161.2150  208.3570  154.1220 C   0  0  0  0  0  0  0  0  0  0  0  0
  161.2560  208.0850  155.4930 C   0  0  0  0  0  3  0  0  0  0  0  0
  161.0370  202.0210  148.2350 C   0  0  0  0  0  0  0  0  0  0  0  0
  161.3180  204.3110  148.9520 C   0  0  0  0  0  3  0  0  0  0  0  0
  160.8380  202.1250  151.9090 O   0  0  0  0  0  1  0  0  0  0  0  0
  160.9640  201.1010  147.2430 F   0  0  0  0  0  0  0  0  0  0  0  0
  161.2450  203.3640  147.9270 C   0  0  0  0  0  3  0  0  0  0  0  0
  160.9760  202.5640  150.5980 C   0  0  0  0  0  0  0  0  0  0  0  0
  161.1870  203.9290  150.2960 C   0  0  0  0  0  0  0  0  0  0  0  0
  160.9030  201.6220  149.5670 C   0  0  0  0  0  3  0  0  0  0  0  0
  160.7200  211.2750  151.7690 C   0  0  0  0  0  0  0  0  0  0  0  0
  159.3210  213.1940  152.2910 C   0  0  0  0  0  3  0  0  0  0  0  0
  159.8330  211.9420  152.6300 C   0  0  0  0  0  3  0  0  0  0  0  0
  159.6960  213.7990  151.0920 C   0  0  0  0  0  3  0  0  0  0  0  0
  160.5790  213.1490  150.2280 C   0  0  0  0  0  3  0  0  0  0  0  0
  161.0850  211.8770  150.5430 C   0  0  0  0  0  0  0  0  0  0  0  0
  162.5520  212.1940  148.5440 C   0  0  0  0  0  2  0  0  0  0  0  0
  161.5060  211.1600  148.2060 C   0  0  0  0  0  2  0  0  0  0  0  0
  162.0750  211.2240  149.6140 C   0  0  0  0  0  3  0  0  0  0  0  0
  1  6  1  0  0  0  0
  1  8  1  0  0  0  0
  2 23  1  1  0  0  0
  2  5  1  0  0  0  0
  4  3  2  0  0  0  0
  5 13  2  0  0  0  0
  5 12  1  0  0  0  0
  7  9  2  0  0  0  0
  9 13  1  0  0  0  0
 10  7  1  0  0  0  0
 10  2  1  0  0  0  0
 11  4  1  0  0  0  0
 11  7  1  0  0  0  0
 12  1  2  0  0  0  0
 13 14  1  0  0  0  0
 14  6  2  0  0  0  0
 15 22  1  0  0  0  0
 16 21  2  0  0  0  0
 18 15  1  0  0  0  0
 19 15  2  0  0  0  0
 19 16  1  0  0  0  0
 20 17  1  0  0  0  0
 21 20  1  0  0  0  0
 21  4  1  0  0  0  0
 22 20  2  0  0  0  0
 23 25  1  0  0  0  0
 24 25  2  0  0  0  0
 26 24  1  0  0  0  0
 27 28  1  0  0  0  0
 27 26  2  0  0  0  0
 28 23  2  0  0  0  0
 29 31  1  0  0  0  0
 30 29  1  0  0  0  0
 30 31  1  0  0  0  0
 31 28  1  0  0  0  0
M  END
>  <MODEL>
2

>  <REMARK>
 VINA RESULT:      -8.1      1.128      1.493
  Name = 
  3 active torsions:
  status: ('A' for Active; 'I' for Inactive)
    1  A    between atoms: C_4  and  C_5
    2  A    between atoms: C_9  and  C_22
    3  A    between atoms: C_30  and  C_31
                            x       y       z     vdW  Elec       q    Type
                         _______ _______ _______ _____ _____    ______ ____

>  <TORSDO>
F 3

$$$$
=
 OpenBabel11052422333D

 31 35  0  0  1  0  0  0  0  0999 V2000
  161.1960  208.2660  154.4920 C   0  0  0  0  0  0  0  0  0  0  0  0
  160.8460  207.5700  150.7480 C   0  0  1  0  0  3  0  0  0  0  0  0
  161.6500  212.6160  149.3640 O   0  0  0  0  0  0  0  0  0  0  0  0
  161.7540  211.8980  148.3330 C   0  0  0  0  0  0  0  0  0  0  0  0
  161.1600  208.2460  152.0640 C   0  0  0  0  0  0  0  0  0  0  0  0
  161.5530  209.6160  154.4800 C   0  0  0  0  0  3  0  0  0  0  0  0
  161.6000  209.7190  149.6600 C   0  0  0  0  0  0  0  0  0  0  0  0
  161.0350  207.5840  155.7310 N   0  0  0  0  0  1  0  0  0  0  0  0
  161.6150  210.3190  150.8170 N   0  0  0  0  0  0  0  0  0  0  0  0
  161.5960  208.2170  149.5770 C   0  0  0  0  0  2  0  0  0  0  0  0
  161.7190  210.4670  148.4450 N   0  0  0  0  0  2  0  0  0  0  0  0
  160.9850  207.5860  153.2900 C   0  0  0  0  0  3  0  0  0  0  0  0
  161.5000  209.6110  152.0580 C   0  0  0  0  0  0  0  0  0  0  0  0
  161.6990  210.2900  153.2630 C   0  0  0  0  0  3  0  0  0  0  0  0
  162.3020  213.7130  144.4790 C   0  0  0  0  0  0  0  0  0  0  0  0
  163.1900  212.9090  146.5780 C   0  0  0  0  0  3  0  0  0  0  0  0
  159.5200  212.3800  146.4890 O   0  0  0  0  0  1  0  0  0  0  0  0
  162.4900  214.2860  143.2670 F   0  0  0  0  0  0  0  0  0  0  0  0
  163.3870  213.4990  145.3270 C   0  0  0  0  0  3  0  0  0  0  0  0
  160.8130  212.7420  146.1300 C   0  0  0  0  0  0  0  0  0  0  0  0
  161.9080  212.5210  146.9970 C   0  0  0  0  0  0  0  0  0  0  0  0
  161.0180  213.3340  144.8800 C   0  0  0  0  0  3  0  0  0  0  0  0
  161.0780  206.0820  150.7660 C   0  0  0  0  0  0  0  0  0  0  0  0
  161.4870  204.0470  152.0330 C   0  0  0  0  0  3  0  0  0  0  0  0
  161.3080  205.4300  151.9890 C   0  0  0  0  0  3  0  0  0  0  0  0
  161.4310  203.2990  150.8570 C   0  0  0  0  0  3  0  0  0  0  0  0
  161.2020  203.9340  149.6350 C   0  0  0  0  0  3  0  0  0  0  0  0
  161.0430  205.3280  149.5700 C   0  0  0  0  0  0  0  0  0  0  0  0
  161.0570  205.0390  147.0880 C   0  0  0  0  0  2  0  0  0  0  0  0
  162.0290  206.1380  147.4430 C   0  0  0  0  0  2  0  0  0  0  0  0
  160.7470  205.9780  148.2440 C   0  0  0  0  0  3  0  0  0  0  0  0
  1  8  1  0  0  0  0
  2 23  1  1  0  0  0
  2  5  1  0  0  0  0
  4 11  1  0  0  0  0
  4  3  2  0  0  0  0
  5 12  1  0  0  0  0
  6  1  1  0  0  0  0
  7  9  2  0  0  0  0
  9 13  1  0  0  0  0
 10  7  1  0  0  0  0
 10  2  1  0  0  0  0
 11  7  1  0  0  0  0
 12  1  2  0  0  0  0
 13  5  2  0  0  0  0
 13 14  1  0  0  0  0
 14  6  2  0  0  0  0
 15 22  2  0  0  0  0
 15 19  1  0  0  0  0
 16 21  1  0  0  0  0
 18 15  1  0  0  0  0
 19 16  2  0  0  0  0
 20 17  1  0  0  0  0
 20 21  2  0  0  0  0
 21  4  1  0  0  0  0
 22 20  1  0  0  0  0
 23 25  1  0  0  0  0
 25 24  2  0  0  0  0
 26 24  1  0  0  0  0
 27 26  2  0  0  0  0
 28 27  1  0  0  0  0
 28 23  2  0  0  0  0
 29 30  1  0  0  0  0
 29 31  1  0  0  0  0
 30 31  1  0  0  0  0
 31 28  1  0  0  0  0
M  END
>  <MODEL>
3

>  <REMARK>
 VINA RESULT:      -8.1      4.045      7.553
  Name = 
  3 active torsions:
  status: ('A' for Active; 'I' for Inactive)
    1  A    between atoms: C_4  and  C_5
    2  A    between atoms: C_9  and  C_22
    3  A    between atoms: C_30  and  C_31
                            x       y       z     vdW  Elec       q    Type
                         _______ _______ _______ _____ _____    ______ ____

>  <TORSDO>
F 3

$$$$
=
 OpenBabel11052422333D

 31 35  0  0  1  0  0  0  0  0999 V2000
  161.6010  211.1430  156.3660 C   0  0  0  0  0  0  0  0  0  0  0  0
  160.8460  210.4910  152.6740 C   0  0  1  0  0  3  0  0  0  0  0  0
  161.9180  205.3170  152.9920 O   0  0  0  0  0  0  0  0  0  0  0  0
  161.3160  205.5340  151.9060 C   0  0  0  0  0  0  0  0  0  0  0  0
  161.1190  210.2830  154.1460 C   0  0  0  0  0  0  0  0  0  0  0  0
  161.8360  209.8440  156.8220 C   0  0  0  0  0  3  0  0  0  0  0  0
  160.8340  207.9740  152.4940 C   0  0  0  0  0  0  0  0  0  0  0  0
  161.7220  212.2440  157.2590 N   0  0  0  0  0  1  0  0  0  0  0  0
  161.3070  207.8690  153.7030 N   0  0  0  0  0  0  0  0  0  0  0  0
  160.2020  209.2570  152.0290 C   0  0  0  0  0  2  0  0  0  0  0  0
  160.7820  206.8370  151.6250 N   0  0  0  0  0  2  0  0  0  0  0  0
  161.2580  211.3650  155.0300 C   0  0  0  0  0  3  0  0  0  0  0  0
  161.3770  208.9780  154.6070 C   0  0  0  0  0  0  0  0  0  0  0  0
  161.7310  208.7630  155.9420 C   0  0  0  0  0  3  0  0  0  0  0  0
  160.8420  202.3280  149.0880 C   0  0  0  0  0  0  0  0  0  0  0  0
  160.9170  203.1450  151.3610 C   0  0  0  0  0  3  0  0  0  0  0  0
  161.4750  205.9530  149.0040 O   0  0  0  0  0  1  0  0  0  0  0  0
  160.6900  201.3060  148.2120 F   0  0  0  0  0  0  0  0  0  0  0  0
  160.7600  202.0900  150.4590 C   0  0  0  0  0  3  0  0  0  0  0  0
  161.2390  204.6820  149.5140 C   0  0  0  0  0  0  0  0  0  0  0  0
  161.1570  204.4510  150.9060 C   0  0  0  0  0  0  0  0  0  0  0  0
  161.0810  203.6210  148.6180 C   0  0  0  0  0  3  0  0  0  0  0  0
  160.0320  211.7240  152.3830 C   0  0  0  0  0  0  0  0  0  0  0  0
  159.7220  213.7690  151.1020 C   0  0  0  0  0  3  0  0  0  0  0  0
  160.4790  212.6400  151.4150 C   0  0  0  0  0  3  0  0  0  0  0  0
  158.5040  213.9920  151.7450 C   0  0  0  0  0  3  0  0  0  0  0  0
  158.0470  213.0890  152.7070 C   0  0  0  0  0  3  0  0  0  0  0  0
  158.8080  211.9600  153.0510 C   0  0  0  0  0  0  0  0  0  0  0  0
  156.7950  211.2460  154.3480 C   0  0  0  0  0  2  0  0  0  0  0  0
  157.8500  211.7060  155.3250 C   0  0  0  0  0  2  0  0  0  0  0  0
  158.2630  210.9790  154.0560 C   0  0  0  0  0  3  0  0  0  0  0  0
  1  6  1  0  0  0  0
  1  8  1  0  0  0  0
  2 23  1  1  0  0  0
  2  5  1  0  0  0  0
  4  3  2  0  0  0  0
  5 13  2  0  0  0  0
  5 12  1  0  0  0  0
  7  9  2  0  0  0  0
  9 13  1  0  0  0  0
 10  7  1  0  0  0  0
 10  2  1  0  0  0  0
 11  4  1  0  0  0  0
 11  7  1  0  0  0  0
 12  1  2  0  0  0  0
 13 14  1  0  0  0  0
 14  6  2  0  0  0  0
 15 19  1  0  0  0  0
 17 20  1  0  0  0  0
 18 15  1  0  0  0  0
 19 16  2  0  0  0  0
 20 21  2  0  0  0  0
 21 16  1  0  0  0  0
 21  4  1  0  0  0  0
 22 15  2  0  0  0  0
 22 20  1  0  0  0  0
 23 28  1  0  0  0  0
 24 25  1  0  0  0  0
 24 26  2  0  0  0  0
 25 23  2  0  0  0  0
 26 27  1  0  0  0  0
 27 28  2  0  0  0  0
 28 31  1  0  0  0  0
 29 30  1  0  0  0  0
 31 29  1  0  0  0  0
 31 30  1  0  0  0  0
M  END
>  <MODEL>
4

>  <REMARK>
 VINA RESULT:      -7.7      1.563      2.804
  Name = 
  3 active torsions:
  status: ('A' for Active; 'I' for Inactive)
    1  A    between atoms: C_4  and  C_5
    2  A    between atoms: C_9  and  C_22
    3  A    between atoms: C_30  and  C_31
                            x       y       z     vdW  Elec       q    Type
                         _______ _______ _______ _____ _____    ______ ____

>  <TORSDO>
F 3

$$$$
=
 OpenBabel11052422333D

 31 35  0  0  1  0  0  0  0  0999 V2000
  161.5940  212.8860  149.6200 C   0  0  0  0  0  0  0  0  0  0  0  0
  160.6420  209.7870  151.6500 C   0  0  1  0  0  3  0  0  0  0  0  0
  161.3710  206.4590  147.5980 O   0  0  0  0  0  0  0  0  0  0  0  0
  161.2910  205.7850  148.6600 C   0  0  0  0  0  0  0  0  0  0  0  0
  161.1780  210.6830  150.5570 C   0  0  0  0  0  0  0  0  0  0  0  0
  161.9850  212.3020  148.4120 C   0  0  0  0  0  3  0  0  0  0  0  0
  161.2810  207.8610  150.1500 C   0  0  0  0  0  0  0  0  0  0  0  0
  161.6070  214.3010  149.7630 N   0  0  0  0  0  1  0  0  0  0  0  0
  161.4950  208.6810  149.1600 N   0  0  0  0  0  0  0  0  0  0  0  0
  161.2200  208.3690  151.5640 C   0  0  0  0  0  2  0  0  0  0  0  0
  161.2320  206.4470  149.9320 N   0  0  0  0  0  2  0  0  0  0  0  0
  161.1770  212.0810  150.6840 C   0  0  0  0  0  3  0  0  0  0  0  0
  161.5540  210.1030  149.3310 C   0  0  0  0  0  0  0  0  0  0  0  0
  161.9590  210.9120  148.2660 C   0  0  0  0  0  3  0  0  0  0  0  0
  161.1530  201.4920  148.6040 C   0  0  0  0  0  0  0  0  0  0  0  0
  160.8820  203.5970  149.7610 C   0  0  0  0  0  3  0  0  0  0  0  0
  161.9540  204.2200  146.2650 O   0  0  0  0  0  1  0  0  0  0  0  0
  161.1040  200.1390  148.6010 F   0  0  0  0  0  0  0  0  0  0  0  0
  160.8300  202.2000  149.7600 C   0  0  0  0  0  3  0  0  0  0  0  0
  161.5780  203.5760  147.4380 C   0  0  0  0  0  0  0  0  0  0  0  0
  161.2540  204.3040  148.6060 C   0  0  0  0  0  0  0  0  0  0  0  0
  161.5250  202.1790  147.4460 C   0  0  0  0  0  3  0  0  0  0  0  0
  160.8310  210.3510  153.0350 C   0  0  0  0  0  0  0  0  0  0  0  0
  162.2630  210.7100  154.9670 C   0  0  0  0  0  3  0  0  0  0  0  0
  162.0540  210.1640  153.7000 C   0  0  0  0  0  3  0  0  0  0  0  0
  161.2570  211.4550  155.5790 C   0  0  0  0  0  3  0  0  0  0  0  0
  160.0370  211.6500  154.9290 C   0  0  0  0  0  3  0  0  0  0  0  0
  159.8010  211.0880  153.6640 C   0  0  0  0  0  0  0  0  0  0  0  0
  158.3040  212.8450  152.7050 C   0  0  0  0  0  2  0  0  0  0  0  0
  157.5870  212.1890  153.8590 C   0  0  0  0  0  2  0  0  0  0  0  0
  158.4940  211.3580  152.9660 C   0  0  0  0  0  3  0  0  0  0  0  0
  1  8  1  0  0  0  0
  1 12  1  0  0  0  0
  2 23  1  1  0  0  0
  3  4  2  0  0  0  0
  4 11  1  0  0  0  0
  5 12  2  0  0  0  0
  5  2  1  0  0  0  0
  6  1  2  0  0  0  0
  7 10  1  0  0  0  0
  9 13  1  0  0  0  0
  9  7  2  0  0  0  0
 10  2  1  0  0  0  0
 11  7  1  0  0  0  0
 13  5  1  0  0  0  0
 14  6  1  0  0  0  0
 14 13  2  0  0  0  0
 15 19  1  0  0  0  0
 17 20  1  0  0  0  0
 18 15  1  0  0  0  0
 19 16  2  0  0  0  0
 20 22  1  0  0  0  0
 20 21  2  0  0  0  0
 21  4  1  0  0  0  0
 21 16  1  0  0  0  0
 22 15  2  0  0  0  0
 23 28  2  0  0  0  0
 23 25  1  0  0  0  0
 24 26  1  0  0  0  0
 25 24  2  0  0  0  0
 27 26  2  0  0  0  0
 28 27  1  0  0  0  0
 29 31  1  0  0  0  0
 29 30  1  0  0  0  0
 31 28  1  0  0  0  0
 31 30  1  0  0  0  0
M  END
>  <MODEL>
5

>  <REMARK>
 VINA RESULT:      -7.4      2.380      4.444
  Name = 
  3 active torsions:
  status: ('A' for Active; 'I' for Inactive)
    1  A    between atoms: C_4  and  C_5
    2  A    between atoms: C_9  and  C_22
    3  A    between atoms: C_30  and  C_31
                            x       y       z     vdW  Elec       q    Type
                         _______ _______ _______ _____ _____    ______ ____

>  <TORSDO>
F 3

$$$$
=
 OpenBabel11052422333D

 31 35  0  0  1  0  0  0  0  0999 V2000
  161.5990  211.1420  156.3570 C   0  0  0  0  0  0  0  0  0  0  0  0
  160.8620  210.5210  152.6550 C   0  0  1  0  0  3  0  0  0  0  0  0
  161.9130  205.3400  152.9380 O   0  0  0  0  0  0  0  0  0  0  0  0
  161.3180  205.5690  151.8510 C   0  0  0  0  0  0  0  0  0  0  0  0
  161.1260  210.3000  154.1270 C   0  0  0  0  0  0  0  0  0  0  0  0
  161.8270  209.8380  156.8040 C   0  0  0  0  0  3  0  0  0  0  0  0
  160.8410  208.0060  152.4560 C   0  0  0  0  0  0  0  0  0  0  0  0
  161.7200  212.2350  157.2590 N   0  0  0  0  0  1  0  0  0  0  0  0
  161.3080  207.8890  153.6660 N   0  0  0  0  0  0  0  0  0  0  0  0
  160.2170  209.2950  151.9970 C   0  0  0  0  0  2  0  0  0  0  0  0
  160.7900  206.8760  151.5780 N   0  0  0  0  0  2  0  0  0  0  0  0
  161.2650  211.3750  155.0200 C   0  0  0  0  0  3  0  0  0  0  0  0
  161.3770  208.9910  154.5800 C   0  0  0  0  0  0  0  0  0  0  0  0
  161.7220  208.7650  155.9150 C   0  0  0  0  0  3  0  0  0  0  0  0
  160.8470  202.3860  149.0060 C   0  0  0  0  0  0  0  0  0  0  0  0
  160.9110  203.1850  151.2850 C   0  0  0  0  0  3  0  0  0  0  0  0
  161.4980  206.0090  148.9530 O   0  0  0  0  0  1  0  0  0  0  0  0
  160.6960  201.3720  148.1200 F   0  0  0  0  0  0  0  0  0  0  0  0
  160.7540  202.1380  150.3740 C   0  0  0  0  0  3  0  0  0  0  0  0
  161.2520  204.7350  149.4520 C   0  0  0  0  0  0  0  0  0  0  0  0
  161.1600  204.4940  150.8420 C   0  0  0  0  0  0  0  0  0  0  0  0
  161.0950  203.6820  148.5470 C   0  0  0  0  0  3  0  0  0  0  0  0
  160.0540  211.7600  152.3690 C   0  0  0  0  0  0  0  0  0  0  0  0
  158.3650  213.3610  153.0740 C   0  0  0  0  0  3  0  0  0  0  0  0
  159.0970  212.1960  153.3010 C   0  0  0  0  0  3  0  0  0  0  0  0
  158.5860  214.1090  151.9190 C   0  0  0  0  0  3  0  0  0  0  0  0
  159.5350  213.6890  150.9850 C   0  0  0  0  0  3  0  0  0  0  0  0
  160.2640  212.5060  151.1860 C   0  0  0  0  0  0  0  0  0  0  0  0
  161.6190  213.2410  149.2190 C   0  0  0  0  0  2  0  0  0  0  0  0
  160.7300  212.1020  148.7840 C   0  0  0  0  0  2  0  0  0  0  0  0
  161.3170  212.1060  150.1860 C   0  0  0  0  0  3  0  0  0  0  0  0
  1  6  1  0  0  0  0
  1  8  1  0  0  0  0
  2 23  1  1  0  0  0
  2  5  1  0  0  0  0
  4  3  2  0  0  0  0
  5 13  2  0  0  0  0
  5 12  1  0  0  0  0
  7  9  2  0  0  0  0
  9 13  1  0  0  0  0
 10  7  1  0  0  0  0
 10  2  1  0  0  0  0
 11  4  1  0  0  0  0
 11  7  1  0  0  0  0
 12  1  2  0  0  0  0
 13 14  1  0  0  0  0
 14  6  2  0  0  0  0
 15 19  1  0  0  0  0
 17 20  1  0  0  0  0
 18 15  1  0  0  0  0
 19 16  2  0  0  0  0
 20 21  2  0  0  0  0
 21 16  1  0  0  0  0
 21  4  1  0  0  0  0
 22 15  2  0  0  0  0
 22 20  1  0  0  0  0
 23 25  1  0  0  0  0
 24 25  2  0  0  0  0
 26 24  1  0  0  0  0
 27 28  1  0  0  0  0
 27 26  2  0  0  0  0
 28 23  2  0  0  0  0
 29 31  1  0  0  0  0
 30 29  1  0  0  0  0
 30 31  1  0  0  0  0
 31 28  1  0  0  0  0
M  END
>  <MODEL>
6

>  <REMARK>
 VINA RESULT:      -7.3      1.304      1.609
  Name = 
  3 active torsions:
  status: ('A' for Active; 'I' for Inactive)
    1  A    between atoms: C_4  and  C_5
    2  A    between atoms: C_9  and  C_22
    3  A    between atoms: C_30  and  C_31
                            x       y       z     vdW  Elec       q    Type
                         _______ _______ _______ _____ _____    ______ ____

>  <TORSDO>
F 3

$$$$
=
 OpenBabel11052422333D

 31 35  0  0  1  0  0  0  0  0999 V2000
  161.0760  201.7690  150.2300 C   0  0  0  0  0  0  0  0  0  0  0  0
  160.7390  205.5460  149.7290 C   0  0  1  0  0  3  0  0  0  0  0  0
  160.6430  206.5950  154.9170 O   0  0  0  0  0  0  0  0  0  0  0  0
  160.8360  207.6740  154.2940 C   0  0  0  0  0  0  0  0  0  0  0  0
  160.9730  204.1920  150.3610 C   0  0  0  0  0  0  0  0  0  0  0  0
  161.2000  201.6960  151.6200 C   0  0  0  0  0  3  0  0  0  0  0  0
  161.0890  206.4970  152.0400 C   0  0  0  0  0  0  0  0  0  0  0  0
  161.0670  200.5770  149.4530 N   0  0  0  0  0  1  0  0  0  0  0  0
  161.0360  205.3030  152.5570 N   0  0  0  0  0  0  0  0  0  0  0  0
  161.3350  206.6830  150.5680 C   0  0  0  0  0  2  0  0  0  0  0  0
  161.0460  207.6600  152.8740 N   0  0  0  0  0  2  0  0  0  0  0  0
  160.9470  203.0110  149.6030 C   0  0  0  0  0  3  0  0  0  0  0  0
  161.0790  204.1110  151.7620 C   0  0  0  0  0  0  0  0  0  0  0  0
  161.1950  202.8650  152.3850 C   0  0  0  0  0  3  0  0  0  0  0  0
  160.8050  211.4610  156.3190 C   0  0  0  0  0  0  0  0  0  0  0  0
  160.1920  210.0670  154.4420 C   0  0  0  0  0  3  0  0  0  0  0  0
  162.1470  208.0810  156.8890 O   0  0  0  0  0  1  0  0  0  0  0  0
  160.7860  212.6620  156.9450 F   0  0  0  0  0  0  0  0  0  0  0  0
  160.1700  211.3060  155.0880 C   0  0  0  0  0  3  0  0  0  0  0  0
  161.4850  209.1340  156.2690 C   0  0  0  0  0  0  0  0  0  0  0  0
  160.8440  208.9670  155.0200 C   0  0  0  0  0  0  0  0  0  0  0  0
  161.4600  210.3770  156.9080 C   0  0  0  0  0  3  0  0  0  0  0  0
  161.2190  205.6340  148.3030 C   0  0  0  0  0  0  0  0  0  0  0  0
  161.2320  204.7340  146.0440 C   0  0  0  0  0  3  0  0  0  0  0  0
  160.8310  204.6510  147.3780 C   0  0  0  0  0  3  0  0  0  0  0  0
  162.0180  205.8040  145.6180 C   0  0  0  0  0  3  0  0  0  0  0  0
  162.4100  206.7890  146.5270 C   0  0  0  0  0  3  0  0  0  0  0  0
  162.0340  206.7080  147.8780 C   0  0  0  0  0  0  0  0  0  0  0  0
  161.5810  209.0560  148.6050 C   0  0  0  0  0  2  0  0  0  0  0  0
  162.9810  208.9950  148.0430 C   0  0  0  0  0  2  0  0  0  0  0  0
  162.4300  207.8120  148.8230 C   0  0  0  0  0  3  0  0  0  0  0  0
  1  6  1  0  0  0  0
  2 23  1  6  0  0  0
  2  5  1  0  0  0  0
  2 10  1  0  0  0  0
  4  3  2  0  0  0  0
  4 21  1  0  0  0  0
  5 13  2  0  0  0  0
  6 14  2  0  0  0  0
  7  9  2  0  0  0  0
  7 11  1  0  0  0  0
  8  1  1  0  0  0  0
 10  7  1  0  0  0  0
 11  4  1  0  0  0  0
 12  1  2  0  0  0  0
 12  5  1  0  0  0  0
 13 14  1  0  0  0  0
 13  9  1  0  0  0  0
 15 22  1  0  0  0  0
 15 18  1  0  0  0  0
 16 21  2  0  0  0  0
 16 19  1  0  0  0  0
 19 15  2  0  0  0  0
 20 17  1  0  0  0  0
 20 22  2  0  0  0  0
 21 20  1  0  0  0  0
 24 25  1  0  0  0  0
 25 23  2  0  0  0  0
 26 24  2  0  0  0  0
 26 27  1  0  0  0  0
 27 28  2  0  0  0  0
 28 23  1  0  0  0  0
 28 31  1  0  0  0  0
 29 31  1  0  0  0  0
 30 29  1  0  0  0  0
 30 31  1  0  0  0  0
M  END
>  <MODEL>
7

>  <REMARK>
 VINA RESULT:      -6.5      3.803      7.959
  Name = 
  3 active torsions:
  status: ('A' for Active; 'I' for Inactive)
    1  A    between atoms: C_4  and  C_5
    2  A    between atoms: C_9  and  C_22
    3  A    between atoms: C_30  and  C_31
                            x       y       z     vdW  Elec       q    Type
                         _______ _______ _______ _____ _____    ______ ____

>  <TORSDO>
F 3

$$$$
=
 OpenBabel11052422333D

 31 35  0  0  1  0  0  0  0  0999 V2000
  161.5200  210.0980  155.8980 C   0  0  0  0  0  0  0  0  0  0  0  0
  161.3630  209.6840  152.0990 C   0  0  1  0  0  3  0  0  0  0  0  0
  161.6450  204.4020  152.2960 O   0  0  0  0  0  0  0  0  0  0  0  0
  161.2840  204.7400  151.1360 C   0  0  0  0  0  0  0  0  0  0  0  0
  161.3350  209.3900  153.5820 C   0  0  0  0  0  0  0  0  0  0  0  0
  161.4910  208.7640  156.3120 C   0  0  0  0  0  3  0  0  0  0  0  0
  161.0400  207.2030  151.7730 C   0  0  0  0  0  0  0  0  0  0  0  0
  161.6270  211.1390  156.8610 N   0  0  0  0  0  1  0  0  0  0  0  0
  161.2690  206.9900  153.0380 N   0  0  0  0  0  0  0  0  0  0  0  0
  160.6840  208.5790  151.2810 C   0  0  0  0  0  2  0  0  0  0  0  0
  160.9920  206.1140  150.8440 N   0  0  0  0  0  2  0  0  0  0  0  0
  161.4580  210.4110  154.5370 C   0  0  0  0  0  3  0  0  0  0  0  0
  161.3250  208.0480  154.0040 C   0  0  0  0  0  0  0  0  0  0  0  0
  161.3990  207.7400  155.3650 C   0  0  0  0  0  3  0  0  0  0  0  0
  160.9470  201.8720  147.9570 C   0  0  0  0  0  0  0  0  0  0  0  0
  161.3050  204.1340  148.7280 C   0  0  0  0  0  3  0  0  0  0  0  0
  160.7540  201.8950  151.6330 O   0  0  0  0  0  1  0  0  0  0  0  0
  160.8440  200.9790  146.9430 F   0  0  0  0  0  0  0  0  0  0  0  0
  161.2000  203.2140  147.6820 C   0  0  0  0  0  3  0  0  0  0  0  0
  160.9060  202.3600  150.3320 C   0  0  0  0  0  0  0  0  0  0  0  0
  161.1620  203.7240  150.0630 C   0  0  0  0  0  0  0  0  0  0  0  0
  160.8010  201.4460  149.2790 C   0  0  0  0  0  3  0  0  0  0  0  0
  160.7900  211.0310  151.7430 C   0  0  0  0  0  0  0  0  0  0  0  0
  160.8240  213.0070  150.3250 C   0  0  0  0  0  3  0  0  0  0  0  0
  161.3620  211.7750  150.6970 C   0  0  0  0  0  3  0  0  0  0  0  0
  159.7030  213.5070  150.9880 C   0  0  0  0  0  3  0  0  0  0  0  0
  159.1230  212.7770  152.0270 C   0  0  0  0  0  3  0  0  0  0  0  0
  159.6670  211.5470  152.4300 C   0  0  0  0  0  0  0  0  0  0  0  0
  157.5060  211.0920  153.6010 C   0  0  0  0  0  2  0  0  0  0  0  0
  158.4650  211.7000  154.5950 C   0  0  0  0  0  2  0  0  0  0  0  0
  158.9880  210.7600  153.5210 C   0  0  0  0  0  3  0  0  0  0  0  0
  1  6  1  0  0  0  0
  1  8  1  0  0  0  0
  2 23  1  1  0  0  0
  2  5  1  0  0  0  0
  4  3  2  0  0  0  0
  5 13  2  0  0  0  0
  5 12  1  0  0  0  0
  7  9  2  0  0  0  0
  9 13  1  0  0  0  0
 10  7  1  0  0  0  0
 10  2  1  0  0  0  0
 11  4  1  0  0  0  0
 11  7  1  0  0  0  0
 12  1  2  0  0  0  0
 13 14  1  0  0  0  0
 14  6  2  0  0  0  0
 15 22  1  0  0  0  0
 16 21  2  0  0  0  0
 18 15  1  0  0  0  0
 19 15  2  0  0  0  0
 19 16  1  0  0  0  0
 20 17  1  0  0  0  0
 21 20  1  0  0  0  0
 21  4  1  0  0  0  0
 22 20  2  0  0  0  0
 23 28  1  0  0  0  0
 24 25  1  0  0  0  0
 24 26  2  0  0  0  0
 25 23  2  0  0  0  0
 26 27  1  0  0  0  0
 27 28  2  0  0  0  0
 28 31  1  0  0  0  0
 29 30  1  0  0  0  0
 31 29  1  0  0  0  0
 31 30  1  0  0  0  0
M  END
>  <MODEL>
8

>  <REMARK>
 VINA RESULT:      -6.0      1.144      2.509
  Name = 
  3 active torsions:
  status: ('A' for Active; 'I' for Inactive)
    1  A    between atoms: C_4  and  C_5
    2  A    between atoms: C_9  and  C_22
    3  A    between atoms: C_30  and  C_31
                            x       y       z     vdW  Elec       q    Type
                         _______ _______ _______ _____ _____    ______ ____

>  <TORSDO>
F 3

$$$$
