=
 OpenBabel11052422313D

 31 35  0  0  1  0  0  0  0  0999 V2000
  159.8160  212.5920  153.8560 C   0  0  0  0  0  0  0  0  0  0  0  0
  160.9820  202.9240  149.2840 C   0  0  0  0  0  3  0  0  0  0  0  0
  160.4420  210.9170  152.1740 C   0  0  0  0  0  2  0  0  0  0  0  0
  160.5310  205.3920  148.8510 C   0  0  1  0  0  3  0  0  0  0  0  0
  160.9640  205.1700  147.3940 C   0  0  1  0  0  3  0  0  0  0  0  0
  160.6890  209.4640  155.5020 O   0  0  0  0  0  0  0  0  0  0  0  0
  160.3470  207.5810  153.6540 O   0  0  0  0  0  0  0  0  0  0  0  0
  159.6980  213.8440  154.0870 N   0  0  0  0  0  2  0  0  0  0  0  0
  160.4750  208.5040  152.8030 C   0  0  0  0  0  0  0  0  0  0  0  0
  160.1210  205.2050  145.0610 C   0  0  0  0  0  2  0  0  0  0  0  0
  159.4990  212.0670  152.4940 C   0  0  0  0  0  2  0  0  0  0  0  0
  160.8930  204.2410  149.7600 C   0  0  0  0  0  0  0  0  0  0  0  0
  161.3640  202.1240  151.5370 C   0  0  0  0  0  3  0  0  0  0  0  0
  160.0220  205.8740  146.4260 C   0  0  0  0  0  2  0  0  0  0  0  0
  160.8340  206.8660  150.8720 C   0  0  0  0  0  0  0  0  0  0  0  0
  161.3620  200.2360  149.5640 Cl  0  0  0  0  0  0  0  0  0  0  0  0
  163.0550  206.3390  147.9280 N   0  0  0  0  0  0  0  0  0  0  0  0
  161.1660  205.8400  144.1340 C   0  0  0  0  0  2  0  0  0  0  0  0
  160.3470  210.2740  154.5990 C   0  0  0  0  0  0  0  0  0  0  0  0
  160.8730  205.8210  151.6490 N   0  0  0  0  0  0  0  0  0  0  0  0
  161.0670  206.7290  149.3920 C   0  0  1  0  0  3  0  0  0  0  0  0
  160.3760  209.8820  153.2080 N   0  0  0  0  0  0  0  0  0  0  0  0
  160.6930  208.1820  151.4210 N   0  0  0  0  0  2  0  0  0  0  0  0
  159.8690  211.6380  155.0110 C   0  0  0  0  0  2  0  0  0  0  0  0
  161.2320  201.8720  150.1690 C   0  0  0  0  0  0  0  0  0  0  0  0
  162.5180  206.2010  144.7670 C   0  0  0  0  0  2  0  0  0  0  0  0
  161.0130  204.4880  151.1410 C   0  0  0  0  0  0  0  0  0  0  0  0
  161.2500  203.4290  152.0230 C   0  0  0  0  0  3  0  0  0  0  0  0
  162.4930  206.8430  149.1130 N   0  0  0  0  0  2  0  0  0  0  0  0
  162.3970  205.5570  147.1260 C   0  0  0  0  0  0  0  0  0  0  0  0
  162.9990  205.1990  145.8090 C   0  0  0  0  0  2  0  0  0  0  0  0
  1  8  2  0  0  0  0
  1 24  1  0  0  0  0
  2 12  2  0  0  0  0
  2 25  1  0  0  0  0
  3 11  1  0  0  0  0
  3 22  1  0  0  0  0
  4 21  1  0  0  0  0
  4 12  1  1  0  0  0
  5 14  1  6  0  0  0
  5  4  1  0  0  0  0
  9 22  1  0  0  0  0
  9  7  2  0  0  0  0
 10 14  1  0  0  0  0
 11  1  1  0  0  0  0
 12 27  1  0  0  0  0
 13 28  1  0  0  0  0
 15 23  1  0  0  0  0
 15 20  2  0  0  0  0
 16 25  1  0  0  0  0
 17 29  1  0  0  0  0
 18 26  1  0  0  0  0
 18 10  1  0  0  0  0
 19 24  1  0  0  0  0
 19  6  2  0  0  0  0
 21 29  1  1  0  0  0
 21 15  1  0  0  0  0
 22 19  1  0  0  0  0
 23  9  1  0  0  0  0
 25 13  2  0  0  0  0
 26 31  1  0  0  0  0
 27 20  1  0  0  0  0
 27 28  2  0  0  0  0
 30  5  1  0  0  0  0
 30 17  2  0  0  0  0
 31 30  1  0  0  0  0
M  END
>  <MODEL>
1

>  <REMARK>
 VINA RESULT:      -6.8      0.000      0.000
  Name = 
  0 active torsions:
  status: ('A' for Active; 'I' for Inactive)
                            x       y       z     vdW  Elec       q    Type
                         _______ _______ _______ _____ _____    ______ ____

>  <TORSDO>
F 0

$$$$
=
 OpenBabel11052422313D

 31 35  0  0  1  0  0  0  0  0999 V2000
  159.9950  213.3360  149.8630 C   0  0  0  0  0  0  0  0  0  0  0  0
  158.8730  214.0740  139.1900 C   0  0  0  0  0  3  0  0  0  0  0  0
  160.4350  212.9280  147.4830 C   0  0  0  0  0  2  0  0  0  0  0  0
  160.5400  213.7970  141.0950 C   0  0  1  0  0  3  0  0  0  0  0  0
  161.5400  213.2280  140.0770 C   0  0  1  0  0  3  0  0  0  0  0  0
  156.8850  213.5600  147.9820 O   0  0  0  0  0  0  0  0  0  0  0  0
  157.6180  214.1060  145.4830 O   0  0  0  0  0  0  0  0  0  0  0  0
  160.4340  213.1550  151.0510 N   0  0  0  0  0  2  0  0  0  0  0  0
  158.7400  213.6190  145.7890 C   0  0  0  0  0  0  0  0  0  0  0  0
  163.7300  213.6810  139.0030 C   0  0  0  0  0  2  0  0  0  0  0  0
  160.9650  213.5750  148.7530 C   0  0  0  0  0  2  0  0  0  0  0  0
  159.1310  213.8850  140.5560 C   0  0  0  0  0  0  0  0  0  0  0  0
  156.5020  214.2490  139.6490 C   0  0  0  0  0  3  0  0  0  0  0  0
  162.9340  213.8010  140.2960 C   0  0  0  0  0  2  0  0  0  0  0  0
  159.4770  213.4200  143.3480 C   0  0  0  0  0  0  0  0  0  0  0  0
  157.2480  214.4530  137.0300 Cl  0  0  0  0  0  0  0  0  0  0  0  0
  161.1100  211.0060  141.0280 N   0  0  0  0  0  0  0  0  0  0  0  0
  164.5400  212.3810  138.8920 C   0  0  0  0  0  2  0  0  0  0  0  0
  158.1200  213.5430  148.2350 C   0  0  0  0  0  0  0  0  0  0  0  0
  158.3130  213.7690  142.8760 N   0  0  0  0  0  0  0  0  0  0  0  0
  160.5900  213.0160  142.4190 C   0  0  1  0  0  3  0  0  0  0  0  0
  159.0890  213.4130  147.1700 N   0  0  0  0  0  0  0  0  0  0  0  0
  159.6870  213.2920  144.7600 N   0  0  0  0  0  2  0  0  0  0  0  0
  158.5550  213.7040  149.6640 C   0  0  0  0  0  2  0  0  0  0  0  0
  157.5610  214.2390  138.7380 C   0  0  0  0  0  0  0  0  0  0  0  0
  163.8310  211.0910  139.3270 C   0  0  0  0  0  2  0  0  0  0  0  0
  158.0620  213.9090  141.4710 C   0  0  0  0  0  0  0  0  0  0  0  0
  156.7520  214.0880  141.0150 C   0  0  0  0  0  3  0  0  0  0  0  0
  160.5070  211.5850  142.1570 N   0  0  0  0  0  2  0  0  0  0  0  0
  161.5780  211.7200  140.0480 C   0  0  0  0  0  0  0  0  0  0  0  0
  162.3520  211.0460  138.9660 C   0  0  0  0  0  2  0  0  0  0  0  0
  1  8  2  0  0  0  0
  2 12  1  0  0  0  0
  3 11  1  0  0  0  0
  4 12  1  6  0  0  0
  4 21  1  0  0  0  0
  5 14  1  1  0  0  0
  5  4  1  0  0  0  0
  6 19  2  0  0  0  0
  7  9  2  0  0  0  0
  9 22  1  0  0  0  0
 10 14  1  0  0  0  0
 11  1  1  0  0  0  0
 12 27  2  0  0  0  0
 13 28  2  0  0  0  0
 15 23  1  0  0  0  0
 16 25  1  0  0  0  0
 17 29  1  0  0  0  0
 18 10  1  0  0  0  0
 18 26  1  0  0  0  0
 19 24  1  0  0  0  0
 20 15  2  0  0  0  0
 21 29  1  6  0  0  0
 21 15  1  0  0  0  0
 22  3  1  0  0  0  0
 22 19  1  0  0  0  0
 23  9  1  0  0  0  0
 24  1  1  0  0  0  0
 25  2  2  0  0  0  0
 25 13  1  0  0  0  0
 27 20  1  0  0  0  0
 28 27  1  0  0  0  0
 30  5  1  0  0  0  0
 30 17  2  0  0  0  0
 31 26  1  0  0  0  0
 31 30  1  0  0  0  0
M  END
>  <MODEL>
2

>  <REMARK>
 VINA RESULT:      -4.5      8.667     10.897
  Name = 
  0 active torsions:
  status: ('A' for Active; 'I' for Inactive)
                            x       y       z     vdW  Elec       q    Type
                         _______ _______ _______ _____ _____    ______ ____

>  <TORSDO>
F 0

$$$$
