=
 OpenBabel11062410243D

 43 49  0  0  1  0  0  0  0  0999 V2000
  160.9540  201.4730  146.8920 C   0  0  0  0  0  0  0  0  0  0  0  0
  161.0740  205.0410  150.4920 C   0  0  0  0  0  0  0  0  0  0  0  0
  161.8200  207.4500  149.2220 C   0  0  0  0  0  0  0  0  0  0  0  0
  160.8360  202.6970  149.0090 C   0  0  0  0  0  0  0  0  0  0  0  0
  161.3100  202.5590  146.2060 C   0  0  0  0  0  3  0  0  0  0  0  0
  160.8090  200.2590  146.2340 O   0  0  0  0  0  1  0  0  0  0  0  0
  161.2110  203.8900  148.3530 C   0  0  0  0  0  0  0  0  0  0  0  0
  160.7090  201.5480  148.3410 C   0  0  0  0  0  3  0  0  0  0  0  0
  161.4810  203.9030  146.8630 C   0  0  0  0  0  2  0  0  0  0  0  0
  161.7190  206.3490  148.4700 C   0  0  0  0  0  3  0  0  0  0  0  0
  161.3310  205.0740  149.1040 C   0  0  0  0  0  0  0  0  0  0  0  0
  160.7140  203.8700  151.0870 N   0  0  0  0  0  0  0  0  0  0  0  0
  161.1840  206.1650  151.2180 C   0  0  0  0  0  0  0  0  0  0  0  0
  161.5560  207.3700  150.5960 O   0  0  0  0  0  0  0  0  0  0  0  0
  160.5930  202.7150  150.3820 C   0  0  0  0  0  3  0  0  0  0  0  0
  162.2030  208.7420  148.6340 C   0  0  0  0  0  0  0  0  0  0  0  0
  161.5800  209.8320  148.9750 N   0  0  0  0  0  0  0  0  0  0  0  0
  163.2190  208.7700  147.7320 F   0  0  0  0  0  0  0  0  0  0  0  0
  161.8670  211.1450  148.4750 C   0  0  0  0  0  0  0  0  0  0  0  0
  162.7030  211.8960  149.0450 O   0  0  0  0  0  0  0  0  0  0  0  0
  161.1310  211.6440  147.2820 C   0  0  0  0  0  2  0  0  0  0  0  0
  161.1810  213.1000  147.2440 N   0  0  0  0  0  0  0  0  0  0  0  0
  159.5440  214.1670  145.7240 C   0  0  0  0  0  2  0  0  0  0  0  0
  161.8060  213.0700  144.7440 C   0  0  2  0  0  3  0  0  0  0  0  0
  160.0350  213.5680  148.0250 C   0  0  0  0  0  2  0  0  0  0  0  0
  160.8990  213.5330  145.8830 C   0  0  2  0  0  0  0  0  0  0  0  0
  161.9930  214.4450  145.3720 C   0  0  0  0  0  2  0  0  0  0  0  0
  159.1510  214.4530  147.1520 C   0  0  0  0  0  2  0  0  0  0  0  0
  161.1240  213.1900  143.4620 N   0  0  2  0  0  0  0  0  0  0  0  0
  161.8700  212.4580  141.3600 C   0  0  0  0  0  0  0  0  0  0  0  0
  160.8320  211.4930  141.7400 C   0  0  0  0  0  2  0  0  0  0  0  0
  162.7050  212.2300  140.4170 N   0  0  0  0  0  2  0  0  0  0  0  0
  160.5100  211.8870  143.1700 C   0  0  0  0  0  2  0  0  0  0  0  0
  162.1460  213.4190  142.4420 C   0  0  0  0  0  2  0  0  0  0  0  0
  160.9290  206.1370  152.5920 O   0  0  0  0  0  0  0  0  0  0  0  0
  161.0120  209.7310  153.7600 C   0  0  0  0  0  2  0  0  0  0  0  0
  161.2930  209.3820  155.2270 C   0  0  2  0  0  3  0  0  0  0  0  0
  160.7720  206.9320  154.8660 C   0  0  0  0  0  2  0  0  0  0  0  0
  160.6130  208.5200  152.9070 C   0  0  0  0  0  2  0  0  0  0  0  0
  161.2460  207.2340  153.4380 C   0  0  2  0  0  3  0  0  0  0  0  0
  160.4510  208.1900  155.6840 C   0  0  0  0  0  2  0  0  0  0  0  0
  160.1570  211.5290  155.3950 N   0  0  0  0  0  1  0  0  0  0  0  0
  161.0200  210.5950  156.0970 C   0  0  0  0  0  2  0  0  0  0  0  0
  1  8  1  0  0  0  0
  2 12  1  0  0  0  0
  2 13  2  0  0  0  0
  3 14  1  0  0  0  0
  4 15  1  0  0  0  0
  5  9  1  0  0  0  0
  5  1  2  0  0  0  0
  6  1  1  0  0  0  0
  7  4  1  0  0  0  0
  7 11  2  0  0  0  0
  8  4  2  0  0  0  0
  9  7  1  0  0  0  0
 10 11  1  0  0  0  0
 10  3  2  0  0  0  0
 11  2  1  0  0  0  0
 13 35  1  0  0  0  0
 14 13  1  0  0  0  0
 15 12  2  0  0  0  0
 16 17  2  0  0  0  0
 16  3  1  0  0  0  0
 18 16  1  0  0  0  0
 19 17  1  0  0  0  0
 19 20  2  0  0  0  0
 21 19  1  0  0  0  0
 22 21  1  0  0  0  0
 22 25  1  0  0  0  0
 23 26  1  0  0  0  0
 23 28  1  0  0  0  0
 24 27  1  6  0  0  0
 24 26  1  0  0  0  0
 26 27  1  1  0  0  0
 26 22  1  0  0  0  0
 28 25  1  0  0  0  0
 29 34  1  6  0  0  0
 29 24  1  0  0  0  0
 30 31  1  0  0  0  0
 30 34  1  0  0  0  0
 31 33  1  0  0  0  0
 32 30  2  0  0  0  0
 33 29  1  0  0  0  0
 36 37  1  0  0  0  0
 37 41  1  0  0  0  0
 37 43  1  1  0  0  0
 38 41  1  0  0  0  0
 39 40  1  0  0  0  0
 39 36  1  0  0  0  0
 40 35  1  6  0  0  0
 40 38  1  0  0  0  0
 42 43  1  0  0  0  0
M  END
>  <MODEL>
1

>  <REMARK>
 VINA RESULT:      -9.8      0.000      0.000
  Name = 
  8 active torsions:
  status: ('A' for Active; 'I' for Inactive)
    1  A    between atoms: O_1  and  C_34
    2  A    between atoms: O_1  and  C_35
    3  A    between atoms: C_2  and  C_13
    4  A    between atoms: C_3  and  N_4
    5  A    between atoms: C_3  and  C_12
    6  A    between atoms: N_6  and  C_12
    7  A    between atoms: N_11  and  C_14
    8  A    between atoms: C_19  and  C_37
                            x       y       z     vdW  Elec       q    Type
                         _______ _______ _______ _____ _____    ______ ____

>  <TORSDO>
F 8

$$$$
=
 OpenBabel11062410243D

 43 49  0  0  1  0  0  0  0  0999 V2000
  160.9670  202.1440  146.9790 C   0  0  0  0  0  0  0  0  0  0  0  0
  161.8940  206.7020  148.9960 C   0  0  0  0  0  0  0  0  0  0  0  0
  161.3780  206.4850  151.7630 C   0  0  0  0  0  0  0  0  0  0  0  0
  161.5580  204.4940  147.3350 C   0  0  1  0  0  3  0  0  0  0  0  0
  160.6990  201.9460  148.2700 C   0  0  0  0  0  3  0  0  0  0  0  0
  160.8280  201.0980  146.0770 O   0  0  0  0  0  1  0  0  0  0  0  0
  161.2930  204.3620  148.7170 C   0  0  0  0  0  0  0  0  0  0  0  0
  161.4110  203.4630  146.5000 C   0  0  0  0  0  3  0  0  0  0  0  0
  160.8320  203.0410  149.2950 C   0  0  0  0  0  3  0  0  0  0  0  0
  161.2020  205.3990  151.0050 C   0  0  0  0  0  3  0  0  0  0  0  0
  161.4630  205.4800  149.5540 C   0  0  0  0  0  0  0  0  0  0  0  0
  162.1400  206.7880  147.6590 N   0  0  0  0  0  0  0  0  0  0  0  0
  162.0620  207.7750  149.7860 C   0  0  0  0  0  0  0  0  0  0  0  0
  161.8060  207.6790  151.1660 O   0  0  0  0  0  0  0  0  0  0  0  0
  161.9810  205.7230  146.8310 C   0  0  0  0  0  3  0  0  0  0  0  0
  161.1300  206.4520  153.2120 C   0  0  0  0  0  0  0  0  0  0  0  0
  160.6650  207.5000  153.8260 N   0  0  0  0  0  0  0  0  0  0  0  0
  161.3970  205.3050  153.8910 F   0  0  0  0  0  0  0  0  0  0  0  0
  160.3810  207.5850  155.2290 C   0  0  0  0  0  0  0  0  0  0  0  0
  160.4680  206.5740  155.9770 O   0  0  0  0  0  0  0  0  0  0  0  0
  159.9360  208.8830  155.8030 C   0  0  0  0  0  2  0  0  0  0  0  0
  160.8790  209.9330  155.4400 N   0  0  0  0  0  0  0  0  0  0  0  0
  160.6270  212.0510  156.6960 C   0  0  0  0  0  2  0  0  0  0  0  0
  158.9590  211.4630  154.6580 C   0  0  2  0  0  3  0  0  0  0  0  0
  161.8750  209.9760  156.5120 C   0  0  0  0  0  2  0  0  0  0  0  0
  160.1930  211.2140  155.5240 C   0  0  2  0  0  0  0  0  0  0  0  0
  160.3250  211.9800  154.2260 C   0  0  0  0  0  2  0  0  0  0  0  0
  161.9070  211.3760  157.1200 C   0  0  0  0  0  2  0  0  0  0  0  0
  158.1580  212.5520  155.2050 N   0  0  2  0  0  0  0  0  0  0  0  0
  156.4560  213.7650  154.1370 C   0  0  0  0  0  0  0  0  0  0  0  0
  155.7480  212.8750  155.0650 C   0  0  0  0  0  2  0  0  0  0  0  0
  155.8590  214.3700  153.1790 N   0  0  0  0  0  2  0  0  0  0  0  0
  156.8600  211.9860  155.5940 C   0  0  0  0  0  2  0  0  0  0  0  0
  157.9050  213.4970  154.1190 C   0  0  0  0  0  2  0  0  0  0  0  0
  162.4890  208.9870  149.2380 O   0  0  0  0  0  0  0  0  0  0  0  0
  160.8290  211.9800  150.8420 C   0  0  0  0  0  2  0  0  0  0  0  0
  160.6640  212.7540  149.5280 C   0  0  2  0  0  3  0  0  0  0  0  0
  162.1980  211.1810  148.2720 C   0  0  0  0  0  2  0  0  0  0  0  0
  161.7420  210.7530  150.7210 C   0  0  0  0  0  2  0  0  0  0  0  0
  161.6990  210.1660  149.3100 C   0  0  2  0  0  3  0  0  0  0  0  0
  161.9160  212.6400  148.6560 C   0  0  0  0  0  2  0  0  0  0  0  0
  159.4940  214.3020  150.9980 N   0  0  0  0  0  1  0  0  0  0  0  0
  160.3550  214.2090  149.8320 C   0  0  0  0  0  2  0  0  0  0  0  0
  1  5  1  0  0  0  0
  2 11  1  0  0  0  0
  2 13  2  0  0  0  0
  3 16  1  0  0  0  0
  4  8  1  6  0  0  0
  4  7  1  0  0  0  0
  5  9  2  0  0  0  0
  6  1  1  0  0  0  0
  7  9  1  0  0  0  0
  7 11  2  0  0  0  0
  8  1  2  0  0  0  0
 10  3  2  0  0  0  0
 11 10  1  0  0  0  0
 12  2  1  0  0  0  0
 13 14  1  0  0  0  0
 14  3  1  0  0  0  0
 15  4  1  0  0  0  0
 15 12  2  0  0  0  0
 16 17  2  0  0  0  0
 16 18  1  0  0  0  0
 17 19  1  0  0  0  0
 19 21  1  0  0  0  0
 19 20  2  0  0  0  0
 22 26  1  0  0  0  0
 22 21  1  0  0  0  0
 22 25  1  0  0  0  0
 23 28  1  0  0  0  0
 24 27  1  6  0  0  0
 24 29  1  0  0  0  0
 24 26  1  0  0  0  0
 25 28  1  0  0  0  0
 26 27  1  6  0  0  0
 26 23  1  0  0  0  0
 29 34  1  6  0  0  0
 29 33  1  0  0  0  0
 30 31  1  0  0  0  0
 31 33  1  0  0  0  0
 32 30  2  0  0  0  0
 34 30  1  0  0  0  0
 35 13  1  0  0  0  0
 37 43  1  1  0  0  0
 37 36  1  0  0  0  0
 38 41  1  0  0  0  0
 38 40  1  0  0  0  0
 39 36  1  0  0  0  0
 40 35  1  1  0  0  0
 40 39  1  0  0  0  0
 41 37  1  0  0  0  0
 43 42  1  0  0  0  0
M  END
>  <MODEL>
2

>  <REMARK>
 VINA RESULT:      -9.6      3.479      7.705
  Name = 
  8 active torsions:
  status: ('A' for Active; 'I' for Inactive)
    1  A    between atoms: O_1  and  C_34
    2  A    between atoms: O_1  and  C_35
    3  A    between atoms: C_2  and  C_13
    4  A    between atoms: C_3  and  N_4
    5  A    between atoms: C_3  and  C_12
    6  A    between atoms: N_6  and  C_12
    7  A    between atoms: N_11  and  C_14
    8  A    between atoms: C_19  and  C_37
                            x       y       z     vdW  Elec       q    Type
                         _______ _______ _______ _____ _____    ______ ____

>  <TORSDO>
F 8

$$$$
=
 OpenBabel11062410243D

 43 49  0  0  1  0  0  0  0  0999 V2000
  161.1200  203.8640  149.0070 C   0  0  0  0  0  0  0  0  0  0  0  0
  161.6900  208.3850  151.2300 C   0  0  0  0  0  0  0  0  0  0  0  0
  162.0360  210.2700  149.1570 C   0  0  0  0  0  0  0  0  0  0  0  0
  161.3240  205.6930  150.6220 C   0  0  0  0  0  0  0  0  0  0  0  0
  161.2750  204.6790  147.9630 C   0  0  0  0  0  3  0  0  0  0  0  0
  160.9310  202.5040  148.7980 O   0  0  0  0  0  1  0  0  0  0  0  0
  161.4960  206.6190  149.5690 C   0  0  0  0  0  0  0  0  0  0  0  0
  161.1460  204.3930  150.3800 C   0  0  0  0  0  3  0  0  0  0  0  0
  161.4830  206.1610  148.1260 C   0  0  0  0  0  2  0  0  0  0  0  0
  161.8650  208.9890  148.8180 C   0  0  0  0  0  3  0  0  0  0  0  0
  161.6810  207.9780  149.8780 C   0  0  0  0  0  0  0  0  0  0  0  0
  161.5200  207.4620  152.2160 N   0  0  0  0  0  0  0  0  0  0  0  0
  161.8630  209.6800  151.5370 C   0  0  0  0  0  0  0  0  0  0  0  0
  162.0390  210.6280  150.5130 O   0  0  0  0  0  0  0  0  0  0  0  0
  161.3410  206.1430  151.9420 C   0  0  0  0  0  3  0  0  0  0  0  0
  162.2220  211.3120  148.1360 C   0  0  0  0  0  0  0  0  0  0  0  0
  161.2020  211.7820  147.4790 N   0  0  0  0  0  0  0  0  0  0  0  0
  163.4790  211.7700  147.8970 F   0  0  0  0  0  0  0  0  0  0  0  0
  161.2600  212.7960  146.4680 C   0  0  0  0  0  0  0  0  0  0  0  0
  161.8400  213.8960  146.6750 O   0  0  0  0  0  0  0  0  0  0  0  0
  160.5860  212.5600  145.1630 C   0  0  0  0  0  2  0  0  0  0  0  0
  160.3600  213.8310  144.4870 N   0  0  0  0  0  0  0  0  0  0  0  0
  158.8770  213.7190  142.5080 C   0  0  0  0  0  2  0  0  0  0  0  0
  161.4560  212.9430  142.3300 C   0  0  2  0  0  3  0  0  0  0  0  0
  159.0150  214.2630  144.8700 C   0  0  0  0  0  2  0  0  0  0  0  0
  160.2720  213.5800  143.0550 C   0  0  2  0  0  0  0  0  0  0  0  0
  161.2470  214.4520  142.2950 C   0  0  0  0  0  2  0  0  0  0  0  0
  158.1650  214.4510  143.6170 C   0  0  0  0  0  2  0  0  0  0  0  0
  161.0260  212.3460  141.0710 N   0  0  2  0  0  0  0  0  0  0  0  0
  162.3260  211.9190  139.1630 C   0  0  0  0  0  0  0  0  0  0  0  0
  162.1230  210.6000  139.7740 C   0  0  0  0  0  2  0  0  0  0  0  0
  163.2210  212.1310  138.2720 N   0  0  0  0  0  2  0  0  0  0  0  0
  161.4450  210.9380  141.0910 C   0  0  0  0  0  2  0  0  0  0  0  0
  161.7750  213.0000  139.9990 C   0  0  0  0  0  2  0  0  0  0  0  0
  161.8720  210.0870  152.8740 O   0  0  0  0  0  0  0  0  0  0  0  0
  158.5500  211.8330  153.3250 C   0  0  0  0  0  2  0  0  0  0  0  0
  158.9290  212.4870  154.6600 C   0  0  2  0  0  3  0  0  0  0  0  0
  161.0000  211.0530  154.9080 C   0  0  0  0  0  2  0  0  0  0  0  0
  159.5430  210.7570  152.8640 C   0  0  0  0  0  2  0  0  0  0  0  0
  160.9540  211.0500  153.3740 C   0  0  2  0  0  3  0  0  0  0  0  0
  159.6880  211.5090  155.5600 C   0  0  0  0  0  2  0  0  0  0  0  0
  156.4980  212.3930  154.7440 N   0  0  0  0  0  1  0  0  0  0  0  0
  157.6750  212.9880  155.3520 C   0  0  0  0  0  2  0  0  0  0  0  0
  1  8  1  0  0  0  0
  2 13  2  0  0  0  0
  2 12  1  0  0  0  0
  3 14  1  0  0  0  0
  4 15  1  0  0  0  0
  5  9  1  0  0  0  0
  5  1  2  0  0  0  0
  6  1  1  0  0  0  0
  7 11  2  0  0  0  0
  7  4  1  0  0  0  0
  8  4  2  0  0  0  0
  9  7  1  0  0  0  0
 10  3  2  0  0  0  0
 10 11  1  0  0  0  0
 11  2  1  0  0  0  0
 13 35  1  0  0  0  0
 14 13  1  0  0  0  0
 15 12  2  0  0  0  0
 16  3  1  0  0  0  0
 17 16  2  0  0  0  0
 18 16  1  0  0  0  0
 19 20  2  0  0  0  0
 19 17  1  0  0  0  0
 21 19  1  0  0  0  0
 22 25  1  0  0  0  0
 22 21  1  0  0  0  0
 23 26  1  0  0  0  0
 23 28  1  0  0  0  0
 24 27  1  6  0  0  0
 24 26  1  0  0  0  0
 26 27  1  6  0  0  0
 26 22  1  0  0  0  0
 28 25  1  0  0  0  0
 29 34  1  6  0  0  0
 29 33  1  0  0  0  0
 29 24  1  0  0  0  0
 30 31  1  0  0  0  0
 30 34  1  0  0  0  0
 31 33  1  0  0  0  0
 32 30  2  0  0  0  0
 36 37  1  0  0  0  0
 37 43  1  1  0  0  0
 37 41  1  0  0  0  0
 38 41  1  0  0  0  0
 39 36  1  0  0  0  0
 39 40  1  0  0  0  0
 40 35  1  6  0  0  0
 40 38  1  0  0  0  0
 42 43  1  0  0  0  0
M  END
>  <MODEL>
3

>  <REMARK>
 VINA RESULT:      -9.6      2.100      3.174
  Name = 
  8 active torsions:
  status: ('A' for Active; 'I' for Inactive)
    1  A    between atoms: O_1  and  C_34
    2  A    between atoms: O_1  and  C_35
    3  A    between atoms: C_2  and  C_13
    4  A    between atoms: C_3  and  N_4
    5  A    between atoms: C_3  and  C_12
    6  A    between atoms: N_6  and  C_12
    7  A    between atoms: N_11  and  C_14
    8  A    between atoms: C_19  and  C_37
                            x       y       z     vdW  Elec       q    Type
                         _______ _______ _______ _____ _____    ______ ____

>  <TORSDO>
F 8

$$$$
=
 OpenBabel11062410243D

 43 49  0  0  1  0  0  0  0  0999 V2000
  161.2050  204.0850  148.4770 C   0  0  0  0  0  0  0  0  0  0  0  0
  161.7190  208.4320  151.0350 C   0  0  0  0  0  0  0  0  0  0  0  0
  162.0890  210.4660  149.1120 C   0  0  0  0  0  0  0  0  0  0  0  0
  161.3750  205.7910  150.2260 C   0  0  0  0  0  0  0  0  0  0  0  0
  161.3720  204.9740  147.4990 C   0  0  0  0  0  3  0  0  0  0  0  0
  161.0250  202.7440  148.1670 O   0  0  0  0  0  1  0  0  0  0  0  0
  161.5600  206.7920  149.2460 C   0  0  0  0  0  0  0  0  0  0  0  0
  161.2060  204.5110  149.8860 C   0  0  0  0  0  3  0  0  0  0  0  0
  161.5710  206.4410  147.7730 C   0  0  0  0  0  2  0  0  0  0  0  0
  161.9290  209.2120  148.6770 C   0  0  0  0  0  3  0  0  0  0  0  0
  161.7330  208.1260  149.6570 C   0  0  0  0  0  0  0  0  0  0  0  0
  161.5380  207.4390  151.9480 N   0  0  0  0  0  0  0  0  0  0  0  0
  161.8820  209.7020  151.4390 C   0  0  0  0  0  0  0  0  0  0  0  0
  162.0690  210.7230  150.4890 O   0  0  0  0  0  0  0  0  0  0  0  0
  161.3690  206.1440  151.5750 C   0  0  0  0  0  3  0  0  0  0  0  0
  162.2860  211.5800  148.1720 C   0  0  0  0  0  0  0  0  0  0  0  0
  161.2720  212.2780  147.7530 N   0  0  0  0  0  0  0  0  0  0  0  0
  163.5490  211.8630  147.7570 F   0  0  0  0  0  0  0  0  0  0  0  0
  161.3410  213.3840  146.8450 C   0  0  0  0  0  0  0  0  0  0  0  0
  161.9300  214.4530  147.1580 O   0  0  0  0  0  0  0  0  0  0  0  0
  160.6700  213.2810  145.5210 C   0  0  0  0  0  2  0  0  0  0  0  0
  161.5590  212.6340  144.5650 N   0  0  0  0  0  0  0  0  0  0  0  0
  162.1170  213.9880  142.5690 C   0  0  0  0  0  2  0  0  0  0  0  0
  159.7440  212.7150  142.7370 C   0  0  2  0  0  3  0  0  0  0  0  0
  162.8750  213.2460  144.7530 C   0  0  0  0  0  2  0  0  0  0  0  0
  161.1570  213.0330  143.2230 C   0  0  2  0  0  0  0  0  0  0  0  0
  160.9150  211.8200  142.3530 C   0  0  0  0  0  2  0  0  0  0  0  0
  163.3440  213.8610  143.4370 C   0  0  0  0  0  2  0  0  0  0  0  0
  159.3800  213.5770  141.6180 N   0  0  2  0  0  0  0  0  0  0  0  0
  157.8220  213.1440  139.9170 C   0  0  0  0  0  0  0  0  0  0  0  0
  157.1550  214.1180  140.7890 C   0  0  0  0  0  2  0  0  0  0  0  0
  157.1840  212.4540  139.0470 N   0  0  0  0  0  2  0  0  0  0  0  0
  158.1090  214.2280  141.9650 C   0  0  0  0  0  2  0  0  0  0  0  0
  159.1180  212.7130  140.4690 C   0  0  0  0  0  2  0  0  0  0  0  0
  161.8670  210.0100  152.8020 O   0  0  0  0  0  0  0  0  0  0  0  0
  158.5250  211.7210  153.2290 C   0  0  0  0  0  2  0  0  0  0  0  0
  158.7890  212.1590  154.6760 C   0  0  2  0  0  3  0  0  0  0  0  0
  160.8250  210.6700  154.8770 C   0  0  0  0  0  2  0  0  0  0  0  0
  159.5500  210.7120  152.6970 C   0  0  0  0  0  2  0  0  0  0  0  0
  160.9130  210.9010  153.3620 C   0  0  2  0  0  3  0  0  0  0  0  0
  159.4640  211.0440  155.4770 C   0  0  0  0  0  2  0  0  0  0  0  0
  156.3910  211.7630  154.8100 N   0  0  0  0  0  1  0  0  0  0  0  0
  157.4810  212.5700  155.3270 C   0  0  0  0  0  2  0  0  0  0  0  0
  1  8  1  0  0  0  0
  2 13  2  0  0  0  0
  2 12  1  0  0  0  0
  3 14  1  0  0  0  0
  4 15  1  0  0  0  0
  5  9  1  0  0  0  0
  5  1  2  0  0  0  0
  6  1  1  0  0  0  0
  7 11  2  0  0  0  0
  7  4  1  0  0  0  0
  8  4  2  0  0  0  0
  9  7  1  0  0  0  0
 10  3  2  0  0  0  0
 10 11  1  0  0  0  0
 11  2  1  0  0  0  0
 13 35  1  0  0  0  0
 14 13  1  0  0  0  0
 15 12  2  0  0  0  0
 16  3  1  0  0  0  0
 17 16  2  0  0  0  0
 18 16  1  0  0  0  0
 19 20  2  0  0  0  0
 19 17  1  0  0  0  0
 21 19  1  0  0  0  0
 22 25  1  0  0  0  0
 22 21  1  0  0  0  0
 23 26  1  0  0  0  0
 23 28  1  0  0  0  0
 24 27  1  6  0  0  0
 24 26  1  0  0  0  0
 26 27  1  6  0  0  0
 26 22  1  0  0  0  0
 28 25  1  0  0  0  0
 29 34  1  6  0  0  0
 29 33  1  0  0  0  0
 29 24  1  0  0  0  0
 30 34  1  0  0  0  0
 30 31  1  0  0  0  0
 31 33  1  0  0  0  0
 32 30  2  0  0  0  0
 36 37  1  0  0  0  0
 37 43  1  1  0  0  0
 37 41  1  0  0  0  0
 38 41  1  0  0  0  0
 39 36  1  0  0  0  0
 39 40  1  0  0  0  0
 40 35  1  6  0  0  0
 40 38  1  0  0  0  0
 42 43  1  0  0  0  0
M  END
>  <MODEL>
4

>  <REMARK>
 VINA RESULT:      -9.4      2.382      3.532
  Name = 
  8 active torsions:
  status: ('A' for Active; 'I' for Inactive)
    1  A    between atoms: O_1  and  C_34
    2  A    between atoms: O_1  and  C_35
    3  A    between atoms: C_2  and  C_13
    4  A    between atoms: C_3  and  N_4
    5  A    between atoms: C_3  and  C_12
    6  A    between atoms: N_6  and  C_12
    7  A    between atoms: N_11  and  C_14
    8  A    between atoms: C_19  and  C_37
                            x       y       z     vdW  Elec       q    Type
                         _______ _______ _______ _____ _____    ______ ____

>  <TORSDO>
F 8

$$$$
=
 OpenBabel11062410243D

 43 49  0  0  1  0  0  0  0  0999 V2000
  160.8490  202.5490  149.2410 C   0  0  0  0  0  0  0  0  0  0  0  0
  161.4320  206.8930  151.7900 C   0  0  0  0  0  0  0  0  0  0  0  0
  161.9180  208.9020  149.8670 C   0  0  0  0  0  0  0  0  0  0  0  0
  161.0260  204.2590  150.9850 C   0  0  0  0  0  0  0  0  0  0  0  0
  161.0700  203.4270  148.2630 C   0  0  0  0  0  3  0  0  0  0  0  0
  160.6350  201.2120  148.9320 O   0  0  0  0  0  1  0  0  0  0  0  0
  161.2690  205.2480  150.0050 C   0  0  0  0  0  0  0  0  0  0  0  0
  160.8260  202.9830  150.6470 C   0  0  0  0  0  3  0  0  0  0  0  0
  161.3080  204.8890  148.5350 C   0  0  0  0  0  2  0  0  0  0  0  0
  161.7300  207.6520  149.4340 C   0  0  0  0  0  3  0  0  0  0  0  0
  161.4730  206.5780  150.4150 C   0  0  0  0  0  0  0  0  0  0  0  0
  161.1950  205.9110  152.7030 N   0  0  0  0  0  0  0  0  0  0  0  0
  161.6240  208.1590  152.1920 C   0  0  0  0  0  0  0  0  0  0  0  0
  161.8690  209.1680  151.2430 O   0  0  0  0  0  0  0  0  0  0  0  0
  160.9950  204.6190  152.3310 C   0  0  0  0  0  3  0  0  0  0  0  0
  162.1760  210.0040  148.9280 C   0  0  0  0  0  0  0  0  0  0  0  0
  161.5810  211.1510  149.0780 N   0  0  0  0  0  0  0  0  0  0  0  0
  163.0480  209.7970  147.9070 F   0  0  0  0  0  0  0  0  0  0  0  0
  161.7550  212.2950  148.2310 C   0  0  0  0  0  0  0  0  0  0  0  0
  162.3590  213.3240  148.6370 O   0  0  0  0  0  0  0  0  0  0  0  0
  161.1760  212.2810  146.8610 C   0  0  0  0  0  2  0  0  0  0  0  0
  160.1670  213.3250  146.7400 N   0  0  0  0  0  0  0  0  0  0  0  0
  158.0650  212.6310  145.6330 C   0  0  0  0  0  2  0  0  0  0  0  0
  160.2600  213.1950  144.1680 C   0  0  2  0  0  3  0  0  0  0  0  0
  159.1590  213.0380  147.7620 C   0  0  0  0  0  2  0  0  0  0  0  0
  159.4700  213.1440  145.4750 C   0  0  2  0  0  0  0  0  0  0  0  0
  159.4980  214.4190  144.6590 C   0  0  0  0  0  2  0  0  0  0  0  0
  157.7960  212.8690  147.0970 C   0  0  0  0  0  2  0  0  0  0  0  0
  159.5220  212.5380  143.0950 N   0  0  2  0  0  0  0  0  0  0  0  0
  159.5430  213.0580  140.8060 C   0  0  0  0  0  0  0  0  0  0  0  0
  160.3380  211.8280  140.9130 C   0  0  0  0  0  2  0  0  0  0  0  0
  159.5680  213.8010  139.7640 N   0  0  0  0  0  2  0  0  0  0  0  0
  160.4560  211.6320  142.4150 C   0  0  0  0  0  2  0  0  0  0  0  0
  159.1450  213.5690  142.1300 C   0  0  0  0  0  2  0  0  0  0  0  0
  161.5830  208.4750  153.5520 O   0  0  0  0  0  0  0  0  0  0  0  0
  159.1800  211.3920  153.5410 C   0  0  0  0  0  2  0  0  0  0  0  0
  159.2290  211.6050  155.0600 C   0  0  2  0  0  3  0  0  0  0  0  0
  160.4060  209.3980  155.4480 C   0  0  0  0  0  2  0  0  0  0  0  0
  159.8260  210.0780  153.0840 C   0  0  0  0  0  2  0  0  0  0  0  0
  160.9450  209.6510  154.0330 C   0  0  2  0  0  3  0  0  0  0  0  0
  159.1960  210.2710  155.8070 C   0  0  0  0  0  2  0  0  0  0  0  0
  156.8170  211.9300  155.0050 N   0  0  0  0  0  1  0  0  0  0  0  0
  158.0690  212.4860  155.4860 C   0  0  0  0  0  2  0  0  0  0  0  0
  1  8  1  0  0  0  0
  2 13  2  0  0  0  0
  2 12  1  0  0  0  0
  3 14  1  0  0  0  0
  4 15  1  0  0  0  0
  5  9  1  0  0  0  0
  5  1  2  0  0  0  0
  6  1  1  0  0  0  0
  7 11  2  0  0  0  0
  7  4  1  0  0  0  0
  8  4  2  0  0  0  0
  9  7  1  0  0  0  0
 10  3  2  0  0  0  0
 10 11  1  0  0  0  0
 11  2  1  0  0  0  0
 13 35  1  0  0  0  0
 14 13  1  0  0  0  0
 15 12  2  0  0  0  0
 16 17  2  0  0  0  0
 16  3  1  0  0  0  0
 18 16  1  0  0  0  0
 19 20  2  0  0  0  0
 19 17  1  0  0  0  0
 21 19  1  0  0  0  0
 22 21  1  0  0  0  0
 22 25  1  0  0  0  0
 23 28  1  0  0  0  0
 24 27  1  6  0  0  0
 24 26  1  0  0  0  0
 26 27  1  6  0  0  0
 26 23  1  0  0  0  0
 26 22  1  0  0  0  0
 28 25  1  0  0  0  0
 29 34  1  6  0  0  0
 29 24  1  0  0  0  0
 30 31  1  0  0  0  0
 30 34  1  0  0  0  0
 31 33  1  0  0  0  0
 32 30  2  0  0  0  0
 33 29  1  0  0  0  0
 36 37  1  0  0  0  0
 37 43  1  1  0  0  0
 37 41  1  0  0  0  0
 38 41  1  0  0  0  0
 39 36  1  0  0  0  0
 39 40  1  0  0  0  0
 40 35  1  6  0  0  0
 40 38  1  0  0  0  0
 42 43  1  0  0  0  0
M  END
>  <MODEL>
5

>  <REMARK>
 VINA RESULT:      -9.3      1.753      2.225
  Name = 
  8 active torsions:
  status: ('A' for Active; 'I' for Inactive)
    1  A    between atoms: O_1  and  C_34
    2  A    between atoms: O_1  and  C_35
    3  A    between atoms: C_2  and  C_13
    4  A    between atoms: C_3  and  N_4
    5  A    between atoms: C_3  and  C_12
    6  A    between atoms: N_6  and  C_12
    7  A    between atoms: N_11  and  C_14
    8  A    between atoms: C_19  and  C_37
                            x       y       z     vdW  Elec       q    Type
                         _______ _______ _______ _____ _____    ______ ____

>  <TORSDO>
F 8

$$$$
=
 OpenBabel11062410243D

 43 49  0  0  1  0  0  0  0  0999 V2000
  160.5580  207.4900  154.8110 C   0  0  0  0  0  0  0  0  0  0  0  0
  162.0330  207.3750  149.9620 C   0  0  0  0  0  0  0  0  0  0  0  0
  161.9360  210.0360  149.0210 C   0  0  0  0  0  0  0  0  0  0  0  0
  161.3250  206.7980  152.5910 C   0  0  1  0  0  3  0  0  0  0  0  0
  160.4810  208.7740  154.4580 C   0  0  0  0  0  3  0  0  0  0  0  0
  160.2250  207.1100  156.1040 O   0  0  0  0  0  1  0  0  0  0  0  0
  161.2680  208.1360  152.1410 C   0  0  0  0  0  0  0  0  0  0  0  0
  160.9950  206.4720  153.8430 C   0  0  0  0  0  3  0  0  0  0  0  0
  160.8300  209.2470  153.0720 C   0  0  0  0  0  3  0  0  0  0  0  0
  161.5860  209.8050  150.2900 C   0  0  0  0  0  3  0  0  0  0  0  0
  161.6260  208.4250  150.8130 C   0  0  0  0  0  0  0  0  0  0  0  0
  162.0750  206.0990  150.4330 N   0  0  0  0  0  0  0  0  0  0  0  0
  162.3780  207.6400  148.6920 C   0  0  0  0  0  0  0  0  0  0  0  0
  162.3320  208.9620  148.2120 O   0  0  0  0  0  0  0  0  0  0  0  0
  161.7330  205.7950  151.7120 C   0  0  0  0  0  3  0  0  0  0  0  0
  161.9120  211.3930  148.4570 C   0  0  0  0  0  0  0  0  0  0  0  0
  160.8470  211.8410  147.8580 N   0  0  0  0  0  0  0  0  0  0  0  0
  163.0230  212.1660  148.5780 F   0  0  0  0  0  0  0  0  0  0  0  0
  160.7060  213.1430  147.2760 C   0  0  0  0  0  0  0  0  0  0  0  0
  160.8310  214.1880  147.9690 O   0  0  0  0  0  0  0  0  0  0  0  0
  160.3650  213.2600  145.8320 C   0  0  0  0  0  2  0  0  0  0  0  0
  161.4590  212.7400  145.0220 N   0  0  0  0  0  0  0  0  0  0  0  0
  162.1270  214.1710  143.1160 C   0  0  0  0  0  2  0  0  0  0  0  0
  159.9350  212.6060  142.9490 C   0  0  2  0  0  3  0  0  0  0  0  0
  162.6450  213.5120  145.3950 C   0  0  0  0  0  2  0  0  0  0  0  0
  161.2100  213.0960  143.6330 C   0  0  2  0  0  0  0  0  0  0  0  0
  161.2530  211.8700  142.7480 C   0  0  0  0  0  2  0  0  0  0  0  0
  163.2200  214.1930  144.1550 C   0  0  0  0  0  2  0  0  0  0  0  0
  159.6320  213.4240  141.7800 N   0  0  2  0  0  0  0  0  0  0  0  0
  158.6480  212.7410  139.7610 C   0  0  0  0  0  0  0  0  0  0  0  0
  157.5860  213.4740  140.4600 C   0  0  0  0  0  2  0  0  0  0  0  0
  158.4090  211.9740  138.7640 N   0  0  0  0  0  2  0  0  0  0  0  0
  158.1970  213.7340  141.8260 C   0  0  0  0  0  2  0  0  0  0  0  0
  159.8530  212.5950  140.5970 C   0  0  0  0  0  2  0  0  0  0  0  0
  162.7820  206.6040  147.8460 O   0  0  0  0  0  0  0  0  0  0  0  0
  161.2980  204.8350  144.8540 C   0  0  0  0  0  2  0  0  0  0  0  0
  160.4410  203.8720  145.6870 C   0  0  2  0  0  3  0  0  0  0  0  0
  161.6380  204.4780  147.8330 C   0  0  0  0  0  2  0  0  0  0  0  0
  162.3310  205.6090  145.6820 C   0  0  0  0  0  2  0  0  0  0  0  0
  161.8480  205.8190  147.1170 C   0  0  2  0  0  3  0  0  0  0  0  0
  161.2180  203.3400  146.8920 C   0  0  0  0  0  2  0  0  0  0  0  0
  160.4620  201.4650  145.3270 N   0  0  0  0  0  1  0  0  0  0  0  0
  159.9660  202.7280  144.8100 C   0  0  0  0  0  2  0  0  0  0  0  0
  1  6  1  0  0  0  0
  2 12  1  0  0  0  0
  2 11  1  0  0  0  0
  3 10  2  0  0  0  0
  4 15  1  6  0  0  0
  4  8  1  0  0  0  0
  5  1  1  0  0  0  0
  7  4  1  0  0  0  0
  7  9  1  0  0  0  0
  8  1  2  0  0  0  0
  9  5  2  0  0  0  0
 10 11  1  0  0  0  0
 11  7  2  0  0  0  0
 12 15  2  0  0  0  0
 13  2  2  0  0  0  0
 14 13  1  0  0  0  0
 14  3  1  0  0  0  0
 16 18  1  0  0  0  0
 16  3  1  0  0  0  0
 17 16  2  0  0  0  0
 19 17  1  0  0  0  0
 19 20  2  0  0  0  0
 21 19  1  0  0  0  0
 22 25  1  0  0  0  0
 22 21  1  0  0  0  0
 23 26  1  0  0  0  0
 23 28  1  0  0  0  0
 24 27  1  6  0  0  0
 24 26  1  0  0  0  0
 26 27  1  6  0  0  0
 26 22  1  0  0  0  0
 28 25  1  0  0  0  0
 29 34  1  6  0  0  0
 29 33  1  0  0  0  0
 29 24  1  0  0  0  0
 30 31  1  0  0  0  0
 30 34  1  0  0  0  0
 31 33  1  0  0  0  0
 32 30  2  0  0  0  0
 35 13  1  0  0  0  0
 36 39  1  0  0  0  0
 36 37  1  0  0  0  0
 37 43  1  6  0  0  0
 37 41  1  0  0  0  0
 39 40  1  0  0  0  0
 40 38  1  0  0  0  0
 40 35  1  1  0  0  0
 41 38  1  0  0  0  0
 43 42  1  0  0  0  0
M  END
>  <MODEL>
6

>  <REMARK>
 VINA RESULT:      -8.8      2.386      6.347
  Name = 
  8 active torsions:
  status: ('A' for Active; 'I' for Inactive)
    1  A    between atoms: O_1  and  C_34
    2  A    between atoms: O_1  and  C_35
    3  A    between atoms: C_2  and  C_13
    4  A    between atoms: C_3  and  N_4
    5  A    between atoms: C_3  and  C_12
    6  A    between atoms: N_6  and  C_12
    7  A    between atoms: N_11  and  C_14
    8  A    between atoms: C_19  and  C_37
                            x       y       z     vdW  Elec       q    Type
                         _______ _______ _______ _____ _____    ______ ____

>  <TORSDO>
F 8

$$$$
