=
 OpenBabel11052422123D

 25 28  0  0  0  0  0  0  0  0999 V2000
  161.3250  205.3270  149.4060 C   0  0  0  0  0  0  0  0  0  0  0  0
  161.3540  206.3250  150.3870 C   0  0  0  0  0  0  0  0  0  0  0  0
  161.7850  207.0000  147.7200 C   0  0  0  0  0  3  0  0  0  0  0  0
  161.1050  203.9490  149.5170 C   0  0  0  0  0  0  0  0  0  0  0  0
  160.7390  201.7730  149.8610 C   0  0  0  0  0  3  0  0  0  0  0  0
  161.8100  207.9330  148.6720 O   0  0  0  0  0  0  0  0  0  0  0  0
  161.1510  203.2960  148.3370 C   0  0  0  0  0  0  0  0  0  0  0  0
  160.9330  201.9460  148.4840 C   0  0  0  0  0  3  0  0  0  0  0  0
  161.6460  208.6710  150.9300 C   0  0  0  0  0  0  0  0  0  0  0  0
  161.9140  210.0850  150.5460 C   0  0  0  0  0  1  0  0  0  0  0  0
  161.1480  206.0550  151.7030 N   0  0  0  0  0  0  0  0  0  0  0  0
  160.7040  203.2280  151.9600 C   0  0  0  0  0  1  0  0  0  0  0  0
  161.5420  205.6780  148.0730 C   0  0  0  0  0  0  0  0  0  0  0  0
  161.4650  204.3250  147.0430 S   0  0  0  0  0  0  0  0  0  0  0  0
  161.4320  208.3590  152.2750 C   0  0  0  0  0  3  0  0  0  0  0  0
  160.8470  203.0130  150.4950 C   0  0  0  0  0  0  0  0  0  0  0  0
  161.1780  207.0350  152.6450 C   0  0  0  0  0  0  0  0  0  0  0  0
  161.6080  207.6550  149.9660 C   0  0  0  0  0  0  0  0  0  0  0  0
  160.9690  206.6940  154.0780 C   0  0  0  0  0  2  0  0  0  0  0  0
  160.5880  207.9400  154.8560 C   0  0  0  0  0  2  0  0  0  0  0  0
  160.9010  207.7480  156.3040 C   0  0  0  0  0  0  0  0  0  0  0  0
  160.0860  207.1210  157.0280 O   0  0  0  0  0  0  0  0  0  0  0  0
  162.0600  208.2730  156.8790 O   0  0  0  0  0  0  0  0  0  0  0  0
  162.2580  209.6430  157.0400 C   0  0  0  0  0  3  0  0  0  0  0  0
  162.9820  210.2730  156.2270 O   0  0  0  0  0  0  0  0  0  0  0  0
  1  4  2  0  0  0  0
  1  2  1  0  0  0  0
  2 11  1  0  0  0  0
  3 13  2  0  0  0  0
  3  6  1  0  0  0  0
  4 16  1  0  0  0  0
  5 16  2  0  0  0  0
  6 18  1  0  0  0  0
  7  8  2  0  0  0  0
  7  4  1  0  0  0  0
  8  5  1  0  0  0  0
  9 15  2  0  0  0  0
 10  9  1  0  0  0  0
 11 17  2  0  0  0  0
 13  1  1  0  0  0  0
 14 13  1  0  0  0  0
 14  7  1  0  0  0  0
 15 17  1  0  0  0  0
 16 12  1  0  0  0  0
 17 19  1  0  0  0  0
 18  2  2  0  0  0  0
 18  9  1  0  0  0  0
 19 20  1  0  0  0  0
 20 21  1  0  0  0  0
 21 23  1  0  0  0  0
 21 22  2  0  0  0  0
 23 24  1  0  0  0  0
 25 24  2  0  0  0  0
M  END
>  <MODEL>
1

>  <REMARK>
 VINA RESULT:      -9.4      0.000      0.000
  Name = 
  5 active torsions:
  status: ('A' for Active; 'I' for Inactive)
    1  A    between atoms: C_2  and  O_12
    2  A    between atoms: C_6  and  C_15
    3  A    between atoms: C_6  and  C_23
    4  A    between atoms: O_12  and  C_21
    5  A    between atoms: C_15  and  C_21
                            x       y       z     vdW  Elec       q    Type
                         _______ _______ _______ _____ _____    ______ ____

>  <TORSDO>
F 5

$$$$
=
 OpenBabel11052422123D

 25 28  0  0  0  0  0  0  0  0999 V2000
  161.5070  207.3650  150.8310 C   0  0  0  0  0  0  0  0  0  0  0  0
  161.4720  206.3410  149.8780 C   0  0  0  0  0  0  0  0  0  0  0  0
  161.9950  208.9550  149.0740 C   0  0  0  0  0  3  0  0  0  0  0  0
  161.3140  207.3250  152.2180 C   0  0  0  0  0  0  0  0  0  0  0  0
  160.9790  207.0940  154.4130 C   0  0  0  0  0  3  0  0  0  0  0  0
  161.9550  207.9630  148.1850 O   0  0  0  0  0  0  0  0  0  0  0  0
  161.4270  208.5290  152.8160 C   0  0  0  0  0  0  0  0  0  0  0  0
  161.2300  208.4520  154.1740 C   0  0  0  0  0  3  0  0  0  0  0  0
  161.6730  205.6840  147.5520 C   0  0  0  0  0  0  0  0  0  0  0  0
  161.9080  205.9960  146.1140 C   0  0  0  0  0  1  0  0  0  0  0  0
  161.2240  205.0470  150.2120 N   0  0  0  0  0  0  0  0  0  0  0  0
  160.8140  204.9380  153.0540 C   0  0  0  0  0  1  0  0  0  0  0  0
  161.7710  208.6710  150.4160 C   0  0  0  0  0  0  0  0  0  0  0  0
  161.7700  209.7620  151.7220 S   0  0  0  0  0  0  0  0  0  0  0  0
  161.4140  204.3650  147.9290 C   0  0  0  0  0  3  0  0  0  0  0  0
  161.0330  206.4020  153.2010 C   0  0  0  0  0  0  0  0  0  0  0  0
  161.1950  204.0610  149.2760 C   0  0  0  0  0  0  0  0  0  0  0  0
  161.7070  206.6920  148.5250 C   0  0  0  0  0  0  0  0  0  0  0  0
  160.8990  202.6610  149.6810 C   0  0  0  0  0  2  0  0  0  0  0  0
  160.1610  201.9440  148.5650 C   0  0  0  0  0  2  0  0  0  0  0  0
  161.0610  200.9360  147.9290 C   0  0  0  0  0  0  0  0  0  0  0  0
  161.8480  200.2750  148.6550 O   0  0  0  0  0  0  0  0  0  0  0  0
  161.0700  200.7280  146.5480 O   0  0  0  0  0  0  0  0  0  0  0  0
  160.3360  201.5240  145.6700 C   0  0  0  0  0  3  0  0  0  0  0  0
  160.8440  202.5760  145.2030 O   0  0  0  0  0  0  0  0  0  0  0  0
  1  4  2  0  0  0  0
  2 11  1  0  0  0  0
  2  1  1  0  0  0  0
  3 13  2  0  0  0  0
  4  7  1  0  0  0  0
  4 16  1  0  0  0  0
  6 18  1  0  0  0  0
  6  3  1  0  0  0  0
  7  8  2  0  0  0  0
  8  5  1  0  0  0  0
  9 15  2  0  0  0  0
  9 18  1  0  0  0  0
 10  9  1  0  0  0  0
 12 16  1  0  0  0  0
 13  1  1  0  0  0  0
 13 14  1  0  0  0  0
 14  7  1  0  0  0  0
 15 17  1  0  0  0  0
 16  5  2  0  0  0  0
 17 19  1  0  0  0  0
 17 11  2  0  0  0  0
 18  2  2  0  0  0  0
 20 19  1  0  0  0  0
 21 20  1  0  0  0  0
 21 22  2  0  0  0  0
 23 21  1  0  0  0  0
 24 23  1  0  0  0  0
 25 24  2  0  0  0  0
M  END
>  <MODEL>
2

>  <REMARK>
 VINA RESULT:      -9.3      3.547      7.229
  Name = 
  5 active torsions:
  status: ('A' for Active; 'I' for Inactive)
    1  A    between atoms: C_2  and  O_12
    2  A    between atoms: C_6  and  C_15
    3  A    between atoms: C_6  and  C_23
    4  A    between atoms: O_12  and  C_21
    5  A    between atoms: C_15  and  C_21
                            x       y       z     vdW  Elec       q    Type
                         _______ _______ _______ _____ _____    ______ ____

>  <TORSDO>
F 5

$$$$
=
 OpenBabel11052422123D

 25 28  0  0  0  0  0  0  0  0999 V2000
  161.3460  204.7270  148.7440 C   0  0  0  0  0  0  0  0  0  0  0  0
  161.4270  205.9060  149.4930 C   0  0  0  0  0  0  0  0  0  0  0  0
  161.7480  206.0020  146.7280 C   0  0  0  0  0  3  0  0  0  0  0  0
  161.1180  203.4060  149.1500 C   0  0  0  0  0  0  0  0  0  0  0  0
  160.7470  201.3560  149.9550 C   0  0  0  0  0  3  0  0  0  0  0  0
  161.8230  207.1130  147.4630 O   0  0  0  0  0  0  0  0  0  0  0  0
  161.1060  202.5200  148.1310 C   0  0  0  0  0  0  0  0  0  0  0  0
  160.8810  201.2360  148.5660 C   0  0  0  0  0  3  0  0  0  0  0  0
  161.7660  208.3080  149.5220 C   0  0  0  0  0  0  0  0  0  0  0  0
  162.0300  209.6060  148.8400 C   0  0  0  0  0  1  0  0  0  0  0  0
  161.2780  205.9200  150.8430 N   0  0  0  0  0  0  0  0  0  0  0  0
  160.8170  203.2170  151.7030 C   0  0  0  0  0  1  0  0  0  0  0  0
  161.5070  204.7880  147.3590 C   0  0  0  0  0  0  0  0  0  0  0  0
  161.3720  203.2520  146.6390 S   0  0  0  0  0  0  0  0  0  0  0  0
  161.6090  208.2870  150.9090 C   0  0  0  0  0  3  0  0  0  0  0  0
  160.8940  202.6990  150.3110 C   0  0  0  0  0  0  0  0  0  0  0  0
  161.3580  207.0740  151.5580 C   0  0  0  0  0  0  0  0  0  0  0  0
  161.6760  207.1140  148.7940 C   0  0  0  0  0  0  0  0  0  0  0  0
  161.2090  207.0430  153.0380 C   0  0  0  0  0  2  0  0  0  0  0  0
  160.8790  208.4310  153.5550 C   0  0  0  0  0  2  0  0  0  0  0  0
  160.7580  208.4020  155.0430 C   0  0  0  0  0  0  0  0  0  0  0  0
  160.1860  207.4250  155.5920 O   0  0  0  0  0  0  0  0  0  0  0  0
  161.2360  209.4470  155.8380 O   0  0  0  0  0  0  0  0  0  0  0  0
  162.0170  210.4790  155.3220 C   0  0  0  0  0  3  0  0  0  0  0  0
  163.1500  210.7160  155.8140 O   0  0  0  0  0  0  0  0  0  0  0  0
  1  4  2  0  0  0  0
  1  2  1  0  0  0  0
  2 11  1  0  0  0  0
  3 13  2  0  0  0  0
  3  6  1  0  0  0  0
  4 16  1  0  0  0  0
  5 16  2  0  0  0  0
  6 18  1  0  0  0  0
  7  8  2  0  0  0  0
  7  4  1  0  0  0  0
  8  5  1  0  0  0  0
  9 15  2  0  0  0  0
 10  9  1  0  0  0  0
 11 17  2  0  0  0  0
 13  1  1  0  0  0  0
 14 13  1  0  0  0  0
 14  7  1  0  0  0  0
 15 17  1  0  0  0  0
 16 12  1  0  0  0  0
 17 19  1  0  0  0  0
 18  2  2  0  0  0  0
 18  9  1  0  0  0  0
 19 20  1  0  0  0  0
 20 21  1  0  0  0  0
 21 22  2  0  0  0  0
 21 23  1  0  0  0  0
 24 25  2  0  0  0  0
 24 23  1  0  0  0  0
M  END
>  <MODEL>
3

>  <REMARK>
 VINA RESULT:      -9.2      1.077      1.201
  Name = 
  5 active torsions:
  status: ('A' for Active; 'I' for Inactive)
    1  A    between atoms: C_2  and  O_12
    2  A    between atoms: C_6  and  C_15
    3  A    between atoms: C_6  and  C_23
    4  A    between atoms: O_12  and  C_21
    5  A    between atoms: C_15  and  C_21
                            x       y       z     vdW  Elec       q    Type
                         _______ _______ _______ _____ _____    ______ ____

>  <TORSDO>
F 5

$$$$
=
 OpenBabel11052422123D

 25 28  0  0  0  0  0  0  0  0999 V2000
  161.2990  206.3370  151.4670 C   0  0  0  0  0  0  0  0  0  0  0  0
  161.3190  205.5380  150.3180 C   0  0  0  0  0  0  0  0  0  0  0  0
  160.8350  204.3730  152.8010 C   0  0  0  0  0  3  0  0  0  0  0  0
  161.4920  207.7160  151.6190 C   0  0  0  0  0  0  0  0  0  0  0  0
  161.8230  209.9230  151.6950 C   0  0  0  0  0  3  0  0  0  0  0  0
  160.8610  203.6320  151.6930 O   0  0  0  0  0  0  0  0  0  0  0  0
  161.3970  208.1380  152.8970 C   0  0  0  0  0  0  0  0  0  0  0  0
  161.5930  209.4940  153.0090 C   0  0  0  0  0  3  0  0  0  0  0  0
  161.1080  203.3270  149.3440 C   0  0  0  0  0  0  0  0  0  0  0  0
  160.8780  201.8590  149.4540 C   0  0  0  0  0  1  0  0  0  0  0  0
  161.5480  206.0510  149.0810 N   0  0  0  0  0  0  0  0  0  0  0  0
  161.9560  208.8810  149.3670 C   0  0  0  0  0  1  0  0  0  0  0  0
  161.0550  205.7420  152.7050 C   0  0  0  0  0  0  0  0  0  0  0  0
  161.0730  206.8810  153.9690 S   0  0  0  0  0  0  0  0  0  0  0  0
  161.3480  203.8860  148.0870 C   0  0  0  0  0  3  0  0  0  0  0  0
  161.7600  208.8200  150.8400 C   0  0  0  0  0  0  0  0  0  0  0  0
  161.5620  205.2630  147.9730 C   0  0  0  0  0  0  0  0  0  0  0  0
  161.0890  204.1480  150.4790 C   0  0  0  0  0  0  0  0  0  0  0  0
  161.8380  205.8620  146.6400 C   0  0  0  0  0  2  0  0  0  0  0  0
  162.2850  204.7830  145.6700 C   0  0  0  0  0  2  0  0  0  0  0  0
  161.3040  204.6700  144.5500 C   0  0  0  0  0  0  0  0  0  0  0  0
  161.3140  205.5360  143.6380 O   0  0  0  0  0  0  0  0  0  0  0  0
  160.3570  203.6430  144.5060 O   0  0  0  0  0  0  0  0  0  0  0  0
  160.5200  202.4480  145.2040 C   0  0  0  0  0  3  0  0  0  0  0  0
  159.9020  201.4170  144.8350 O   0  0  0  0  0  0  0  0  0  0  0  0
  1  4  2  0  0  0  0
  1 13  1  0  0  0  0
  2 18  1  0  0  0  0
  2  1  1  0  0  0  0
  4  7  1  0  0  0  0
  5  8  1  0  0  0  0
  6  3  1  0  0  0  0
  7  8  2  0  0  0  0
  7 14  1  0  0  0  0
  9 10  1  0  0  0  0
  9 18  2  0  0  0  0
 11  2  2  0  0  0  0
 12 16  1  0  0  0  0
 13  3  2  0  0  0  0
 13 14  1  0  0  0  0
 15  9  1  0  0  0  0
 16  4  1  0  0  0  0
 16  5  2  0  0  0  0
 17 15  2  0  0  0  0
 17 11  1  0  0  0  0
 18  6  1  0  0  0  0
 19 17  1  0  0  0  0
 20 19  1  0  0  0  0
 21 20  1  0  0  0  0
 22 21  2  0  0  0  0
 23 21  1  0  0  0  0
 23 24  1  0  0  0  0
 25 24  2  0  0  0  0
M  END
>  <MODEL>
4

>  <REMARK>
 VINA RESULT:      -9.1      3.471      8.222
  Name = 
  5 active torsions:
  status: ('A' for Active; 'I' for Inactive)
    1  A    between atoms: C_2  and  O_12
    2  A    between atoms: C_6  and  C_15
    3  A    between atoms: C_6  and  C_23
    4  A    between atoms: O_12  and  C_21
    5  A    between atoms: C_15  and  C_21
                            x       y       z     vdW  Elec       q    Type
                         _______ _______ _______ _____ _____    ______ ____

>  <TORSDO>
F 5

$$$$
=
 OpenBabel11052422123D

 25 28  0  0  0  0  0  0  0  0999 V2000
  161.2060  204.3890  149.6510 C   0  0  0  0  0  0  0  0  0  0  0  0
  161.3350  205.6730  150.1920 C   0  0  0  0  0  0  0  0  0  0  0  0
  160.8300  203.5110  151.8730 C   0  0  0  0  0  3  0  0  0  0  0  0
  161.2870  203.9500  148.3230 C   0  0  0  0  0  0  0  0  0  0  0  0
  161.4420  203.4100  146.1620 C   0  0  0  0  0  3  0  0  0  0  0  0
  160.9550  204.7430  152.3660 O   0  0  0  0  0  0  0  0  0  0  0  0
  161.1090  202.6200  148.1800 C   0  0  0  0  0  0  0  0  0  0  0  0
  161.1930  202.2250  146.8660 C   0  0  0  0  0  3  0  0  0  0  0  0
  161.3180  207.0880  152.1630 C   0  0  0  0  0  0  0  0  0  0  0  0
  161.1780  207.2930  153.6320 C   0  0  0  0  0  1  0  0  0  0  0  0
  161.5820  206.7650  149.4220 N   0  0  0  0  0  0  0  0  0  0  0  0
  161.7440  205.8910  146.6890 C   0  0  0  0  0  1  0  0  0  0  0  0
  160.9540  203.3130  150.5030 C   0  0  0  0  0  0  0  0  0  0  0  0
  160.8330  201.8460  149.6500 S   0  0  0  0  0  0  0  0  0  0  0  0
  161.5710  208.1890  151.3420 C   0  0  0  0  0  3  0  0  0  0  0  0
  161.4990  204.4730  147.0670 C   0  0  0  0  0  0  0  0  0  0  0  0
  161.7060  208.0060  149.9620 C   0  0  0  0  0  0  0  0  0  0  0  0
  161.1970  205.8120  151.5970 C   0  0  0  0  0  0  0  0  0  0  0  0
  161.9560  209.1780  149.0810 C   0  0  0  0  0  2  0  0  0  0  0  0
  162.1010  210.4350  149.9190 C   0  0  0  0  0  2  0  0  0  0  0  0
  161.9530  211.6420  149.0530 C   0  0  0  0  0  0  0  0  0  0  0  0
  161.1060  212.5180  149.3640 O   0  0  0  0  0  0  0  0  0  0  0  0
  162.7100  211.8080  147.8900 O   0  0  0  0  0  0  0  0  0  0  0  0
  162.6720  212.9800  147.1370 C   0  0  0  0  0  3  0  0  0  0  0  0
  162.1980  212.9620  145.9720 O   0  0  0  0  0  0  0  0  0  0  0  0
  1  2  1  0  0  0  0
  1 13  1  0  0  0  0
  2 18  1  0  0  0  0
  3  6  1  0  0  0  0
  4  1  2  0  0  0  0
  5  8  1  0  0  0  0
  5 16  2  0  0  0  0
  7  4  1  0  0  0  0
  7 14  1  0  0  0  0
  8  7  2  0  0  0  0
  9 10  1  0  0  0  0
 11 17  1  0  0  0  0
 11  2  2  0  0  0  0
 12 16  1  0  0  0  0
 13  3  2  0  0  0  0
 14 13  1  0  0  0  0
 15  9  1  0  0  0  0
 16  4  1  0  0  0  0
 17 15  2  0  0  0  0
 18  9  2  0  0  0  0
 18  6  1  0  0  0  0
 19 20  1  0  0  0  0
 19 17  1  0  0  0  0
 21 22  2  0  0  0  0
 21 20  1  0  0  0  0
 23 21  1  0  0  0  0
 24 23  1  0  0  0  0
 25 24  2  0  0  0  0
M  END
>  <MODEL>
5

>  <REMARK>
 VINA RESULT:      -8.9      2.743      5.424
  Name = 
  5 active torsions:
  status: ('A' for Active; 'I' for Inactive)
    1  A    between atoms: C_2  and  O_12
    2  A    between atoms: C_6  and  C_15
    3  A    between atoms: C_6  and  C_23
    4  A    between atoms: O_12  and  C_21
    5  A    between atoms: C_15  and  C_21
                            x       y       z     vdW  Elec       q    Type
                         _______ _______ _______ _____ _____    ______ ____

>  <TORSDO>
F 5

$$$$
=
 OpenBabel11052422123D

 25 28  0  0  0  0  0  0  0  0999 V2000
  161.1930  204.1240  149.6810 C   0  0  0  0  0  0  0  0  0  0  0  0
  161.3290  205.2970  150.4320 C   0  0  0  0  0  0  0  0  0  0  0  0
  160.7320  202.8980  151.7140 C   0  0  0  0  0  3  0  0  0  0  0  0
  161.3070  203.9100  148.3010 C   0  0  0  0  0  0  0  0  0  0  0  0
  161.5190  203.7330  146.0860 C   0  0  0  0  0  3  0  0  0  0  0  0
  160.8640  204.0290  152.4090 O   0  0  0  0  0  0  0  0  0  0  0  0
  161.1080  202.6270  147.9340 C   0  0  0  0  0  0  0  0  0  0  0  0
  161.2260  202.4540  146.5760 C   0  0  0  0  0  3  0  0  0  0  0  0
  161.2770  206.3650  152.6090 C   0  0  0  0  0  0  0  0  0  0  0  0
  161.0960  206.3280  154.0880 C   0  0  0  0  0  1  0  0  0  0  0  0
  161.6210  206.4950  149.8620 N   0  0  0  0  0  0  0  0  0  0  0  0
  161.8520  206.0840  147.0270 C   0  0  0  0  0  1  0  0  0  0  0  0
  160.8940  202.9280  150.3350 C   0  0  0  0  0  0  0  0  0  0  0  0
  160.7720  201.6260  149.2460 S   0  0  0  0  0  0  0  0  0  0  0  0
  161.5770  207.5810  151.9910 C   0  0  0  0  0  3  0  0  0  0  0  0
  161.5680  204.6290  147.1560 C   0  0  0  0  0  0  0  0  0  0  0  0
  161.7520  207.6260  150.6050 C   0  0  0  0  0  0  0  0  0  0  0  0
  161.1510  205.2040  151.8360 C   0  0  0  0  0  0  0  0  0  0  0  0
  162.0520  208.9220  149.9380 C   0  0  0  0  0  2  0  0  0  0  0  0
  162.2350  210.0100  150.9800 C   0  0  0  0  0  2  0  0  0  0  0  0
  161.4390  211.2150  150.5990 C   0  0  0  0  0  0  0  0  0  0  0  0
  161.6010  211.7200  149.4580 O   0  0  0  0  0  0  0  0  0  0  0  0
  160.5420  211.8130  151.4890 O   0  0  0  0  0  0  0  0  0  0  0  0
  160.0010  211.1270  152.5740 C   0  0  0  0  0  3  0  0  0  0  0  0
  158.7730  211.2230  152.8290 O   0  0  0  0  0  0  0  0  0  0  0  0
  1 13  1  0  0  0  0
  1  2  1  0  0  0  0
  2 18  1  0  0  0  0
  3  6  1  0  0  0  0
  4  1  2  0  0  0  0
  5  8  1  0  0  0  0
  5 16  2  0  0  0  0
  7  4  1  0  0  0  0
  7 14  1  0  0  0  0
  8  7  2  0  0  0  0
  9 10  1  0  0  0  0
 11  2  2  0  0  0  0
 11 17  1  0  0  0  0
 12 16  1  0  0  0  0
 13  3  2  0  0  0  0
 14 13  1  0  0  0  0
 15  9  1  0  0  0  0
 16  4  1  0  0  0  0
 17 15  2  0  0  0  0
 18  6  1  0  0  0  0
 18  9  2  0  0  0  0
 19 17  1  0  0  0  0
 19 20  1  0  0  0  0
 21 20  1  0  0  0  0
 21 23  1  0  0  0  0
 22 21  2  0  0  0  0
 23 24  1  0  0  0  0
 24 25  2  0  0  0  0
M  END
>  <MODEL>
6

>  <REMARK>
 VINA RESULT:      -8.5      2.620      4.437
  Name = 
  5 active torsions:
  status: ('A' for Active; 'I' for Inactive)
    1  A    between atoms: C_2  and  O_12
    2  A    between atoms: C_6  and  C_15
    3  A    between atoms: C_6  and  C_23
    4  A    between atoms: O_12  and  C_21
    5  A    between atoms: C_15  and  C_21
                            x       y       z     vdW  Elec       q    Type
                         _______ _______ _______ _____ _____    ______ ____

>  <TORSDO>
F 5

$$$$
=
 OpenBabel11052422123D

 25 28  0  0  0  0  0  0  0  0999 V2000
  161.3420  206.4880  151.6070 C   0  0  0  0  0  0  0  0  0  0  0  0
  161.2810  205.5050  150.6120 C   0  0  0  0  0  0  0  0  0  0  0  0
  160.9070  204.7940  153.2780 C   0  0  0  0  0  3  0  0  0  0  0  0
  161.5740  207.8660  151.5120 C   0  0  0  0  0  0  0  0  0  0  0  0
  161.9600  210.0420  151.1930 C   0  0  0  0  0  3  0  0  0  0  0  0
  160.8550  203.8750  152.3130 O   0  0  0  0  0  0  0  0  0  0  0  0
  161.5590  208.5010  152.7020 C   0  0  0  0  0  0  0  0  0  0  0  0
  161.7920  209.8500  152.5710 C   0  0  0  0  0  3  0  0  0  0  0  0
  160.9670  203.1690  150.0420 C   0  0  0  0  0  0  0  0  0  0  0  0
  160.7090  201.7490  150.4120 C   0  0  0  0  0  1  0  0  0  0  0  0
  161.4540  205.7940  149.2960 N   0  0  0  0  0  0  0  0  0  0  0  0
  161.9420  208.6170  149.0730 C   0  0  0  0  0  1  0  0  0  0  0  0
  161.1520  206.1190  152.9390 C   0  0  0  0  0  0  0  0  0  0  0  0
  161.2650  207.4550  153.9870 S   0  0  0  0  0  0  0  0  0  0  0  0
  161.1510  203.5000  148.6970 C   0  0  0  0  0  3  0  0  0  0  0  0
  161.8240  208.8130  150.5430 C   0  0  0  0  0  0  0  0  0  0  0  0
  161.3900  204.8300  148.3390 C   0  0  0  0  0  0  0  0  0  0  0  0
  161.0290  204.1710  151.0190 C   0  0  0  0  0  0  0  0  0  0  0  0
  161.6060  205.1850  146.9110 C   0  0  0  0  0  2  0  0  0  0  0  0
  162.1190  203.9770  146.1490 C   0  0  0  0  0  2  0  0  0  0  0  0
  161.0880  203.5200  145.1700 C   0  0  0  0  0  0  0  0  0  0  0  0
  160.6940  202.3260  145.2080 O   0  0  0  0  0  0  0  0  0  0  0  0
  160.5720  204.3770  144.1940 O   0  0  0  0  0  0  0  0  0  0  0  0
  161.1920  205.5780  143.8540 C   0  0  0  0  0  3  0  0  0  0  0  0
  161.5400  205.7890  142.6650 O   0  0  0  0  0  0  0  0  0  0  0  0
  1 13  1  0  0  0  0
  2 18  1  0  0  0  0
  2  1  1  0  0  0  0
  4  1  2  0  0  0  0
  4  7  1  0  0  0  0
  5  8  1  0  0  0  0
  6  3  1  0  0  0  0
  7 14  1  0  0  0  0
  8  7  2  0  0  0  0
  9 10  1  0  0  0  0
  9 18  2  0  0  0  0
 11  2  2  0  0  0  0
 12 16  1  0  0  0  0
 13  3  2  0  0  0  0
 13 14  1  0  0  0  0
 15  9  1  0  0  0  0
 16  5  2  0  0  0  0
 16  4  1  0  0  0  0
 17 15  2  0  0  0  0
 17 11  1  0  0  0  0
 18  6  1  0  0  0  0
 19 17  1  0  0  0  0
 20 19  1  0  0  0  0
 21 22  2  0  0  0  0
 21 20  1  0  0  0  0
 23 21  1  0  0  0  0
 24 23  1  0  0  0  0
 25 24  2  0  0  0  0
M  END
>  <MODEL>
7

>  <REMARK>
 VINA RESULT:      -8.4      3.398      8.143
  Name = 
  5 active torsions:
  status: ('A' for Active; 'I' for Inactive)
    1  A    between atoms: C_2  and  O_12
    2  A    between atoms: C_6  and  C_15
    3  A    between atoms: C_6  and  C_23
    4  A    between atoms: O_12  and  C_21
    5  A    between atoms: C_15  and  C_21
                            x       y       z     vdW  Elec       q    Type
                         _______ _______ _______ _____ _____    ______ ____

>  <TORSDO>
F 5

$$$$
=
 OpenBabel11052422123D

 25 28  0  0  0  0  0  0  0  0999 V2000
  161.4440  205.6730  149.4210 C   0  0  0  0  0  0  0  0  0  0  0  0
  161.5550  206.8360  150.1910 C   0  0  0  0  0  0  0  0  0  0  0  0
  161.9150  206.9680  147.4330 C   0  0  0  0  0  3  0  0  0  0  0  0
  161.1660  204.3540  149.8010 C   0  0  0  0  0  0  0  0  0  0  0  0
  160.7160  202.3050  150.5660 C   0  0  0  0  0  3  0  0  0  0  0  0
  162.0180  208.0630  148.1870 O   0  0  0  0  0  0  0  0  0  0  0  0
  161.1380  203.4870  148.7670 C   0  0  0  0  0  0  0  0  0  0  0  0
  160.8640  202.2030  149.1770 C   0  0  0  0  0  3  0  0  0  0  0  0
  161.9740  209.2240  150.2660 C   0  0  0  0  0  0  0  0  0  0  0  0
  162.2900  210.5240  149.6100 C   0  0  0  0  0  1  0  0  0  0  0  0
  161.3880  206.8330  151.5390 N   0  0  0  0  0  0  0  0  0  0  0  0
  160.8250  204.1330  152.3470 C   0  0  0  0  0  1  0  0  0  0  0  0
  161.6260  205.7520  148.0400 C   0  0  0  0  0  0  0  0  0  0  0  0
  161.4490  204.2340  147.2910 S   0  0  0  0  0  0  0  0  0  0  0  0
  161.7980  209.1850  151.6510 C   0  0  0  0  0  3  0  0  0  0  0  0
  160.9030  203.6360  150.9460 C   0  0  0  0  0  0  0  0  0  0  0  0
  161.4970  207.9710  152.2750 C   0  0  0  0  0  0  0  0  0  0  0  0
  161.8530  208.0470  149.5160 C   0  0  0  0  0  0  0  0  0  0  0  0
  161.3280  207.9200  153.7520 C   0  0  0  0  0  2  0  0  0  0  0  0
  160.7570  209.2340  154.2540 C   0  0  0  0  0  2  0  0  0  0  0  0
  161.2290  209.4920  155.6470 C   0  0  0  0  0  0  0  0  0  0  0  0
  161.4560  210.6770  156.0050 O   0  0  0  0  0  0  0  0  0  0  0  0
  161.4520  208.4510  156.5510 O   0  0  0  0  0  0  0  0  0  0  0  0
  160.4170  207.8420  157.2570 C   0  0  0  0  0  3  0  0  0  0  0  0
  160.2200  206.6050  157.1390 O   0  0  0  0  0  0  0  0  0  0  0  0
  1  4  2  0  0  0  0
  1  2  1  0  0  0  0
  2 11  1  0  0  0  0
  3 13  2  0  0  0  0
  3  6  1  0  0  0  0
  4 16  1  0  0  0  0
  5 16  2  0  0  0  0
  6 18  1  0  0  0  0
  7  8  2  0  0  0  0
  7  4  1  0  0  0  0
  8  5  1  0  0  0  0
  9 15  2  0  0  0  0
 10  9  1  0  0  0  0
 11 17  2  0  0  0  0
 13  1  1  0  0  0  0
 14 13  1  0  0  0  0
 14  7  1  0  0  0  0
 15 17  1  0  0  0  0
 16 12  1  0  0  0  0
 17 19  1  0  0  0  0
 18  2  2  0  0  0  0
 18  9  1  0  0  0  0
 19 20  1  0  0  0  0
 20 21  1  0  0  0  0
 21 22  2  0  0  0  0
 21 23  1  0  0  0  0
 23 24  1  0  0  0  0
 25 24  2  0  0  0  0
M  END
>  <MODEL>
8

>  <REMARK>
 VINA RESULT:      -8.4      0.883      1.573
  Name = 
  5 active torsions:
  status: ('A' for Active; 'I' for Inactive)
    1  A    between atoms: C_2  and  O_12
    2  A    between atoms: C_6  and  C_15
    3  A    between atoms: C_6  and  C_23
    4  A    between atoms: O_12  and  C_21
    5  A    between atoms: C_15  and  C_21
                            x       y       z     vdW  Elec       q    Type
                         _______ _______ _______ _____ _____    ______ ____

>  <TORSDO>
F 5

$$$$
=
 OpenBabel11052422123D

 25 28  0  0  0  0  0  0  0  0999 V2000
  161.4250  206.3550  150.0950 C   0  0  0  0  0  0  0  0  0  0  0  0
  161.6000  207.7020  150.4340 C   0  0  0  0  0  0  0  0  0  0  0  0
  161.6180  206.9400  147.7560 C   0  0  0  0  0  3  0  0  0  0  0  0
  161.2280  205.2310  150.9070 C   0  0  0  0  0  0  0  0  0  0  0  0
  160.9250  203.5410  152.3350 C   0  0  0  0  0  3  0  0  0  0  0  0
  161.7850  208.2170  148.1030 O   0  0  0  0  0  0  0  0  0  0  0  0
  161.0960  204.0800  150.2150 C   0  0  0  0  0  0  0  0  0  0  0  0
  160.9060  202.9990  151.0430 C   0  0  0  0  0  3  0  0  0  0  0  0
  161.9660  209.9820  149.6910 C   0  0  0  0  0  0  0  0  0  0  0  0
  162.1680  210.9990  148.6210 C   0  0  0  0  0  1  0  0  0  0  0  0
  161.5990  208.1320  151.7230 N   0  0  0  0  0  0  0  0  0  0  0  0
  161.2060  205.8400  153.4120 C   0  0  0  0  0  1  0  0  0  0  0  0
  161.4350  205.9860  148.7490 C   0  0  0  0  0  0  0  0  0  0  0  0
  161.2060  204.3120  148.5520 S   0  0  0  0  0  0  0  0  0  0  0  0
  161.9610  210.3900  151.0270 C   0  0  0  0  0  3  0  0  0  0  0  0
  161.1250  204.9210  152.2450 C   0  0  0  0  0  0  0  0  0  0  0  0
  161.7690  209.4440  152.0380 C   0  0  0  0  0  0  0  0  0  0  0  0
  161.7840  208.6290  149.3770 C   0  0  0  0  0  0  0  0  0  0  0  0
  161.7830  209.8690  153.4630 C   0  0  0  0  0  2  0  0  0  0  0  0
  160.4520  209.5380  154.1150 C   0  0  0  0  0  2  0  0  0  0  0  0
  159.9170  210.7440  154.8150 C   0  0  0  0  0  0  0  0  0  0  0  0
  160.3220  211.0060  155.9770 O   0  0  0  0  0  0  0  0  0  0  0  0
  158.9570  211.5700  154.2250 O   0  0  0  0  0  0  0  0  0  0  0  0
  158.6000  211.4560  152.8830 C   0  0  0  0  0  3  0  0  0  0  0  0
  159.1120  212.2260  152.0300 O   0  0  0  0  0  0  0  0  0  0  0  0
  1  2  1  0  0  0  0
  1  4  2  0  0  0  0
  2 11  1  0  0  0  0
  3  6  1  0  0  0  0
  3 13  2  0  0  0  0
  4 16  1  0  0  0  0
  6 18  1  0  0  0  0
  7  4  1  0  0  0  0
  7  8  2  0  0  0  0
  8  5  1  0  0  0  0
  9 15  2  0  0  0  0
 10  9  1  0  0  0  0
 11 17  2  0  0  0  0
 13  1  1  0  0  0  0
 14 13  1  0  0  0  0
 14  7  1  0  0  0  0
 15 17  1  0  0  0  0
 16  5  2  0  0  0  0
 16 12  1  0  0  0  0
 17 19  1  0  0  0  0
 18  9  1  0  0  0  0
 18  2  2  0  0  0  0
 19 20  1  0  0  0  0
 20 21  1  0  0  0  0
 21 22  2  0  0  0  0
 23 21  1  0  0  0  0
 24 23  1  0  0  0  0
 25 24  2  0  0  0  0
M  END
>  <MODEL>
9

>  <REMARK>
 VINA RESULT:      -8.1      2.215      2.928
  Name = 
  5 active torsions:
  status: ('A' for Active; 'I' for Inactive)
    1  A    between atoms: C_2  and  O_12
    2  A    between atoms: C_6  and  C_15
    3  A    between atoms: C_6  and  C_23
    4  A    between atoms: O_12  and  C_21
    5  A    between atoms: C_15  and  C_21
                            x       y       z     vdW  Elec       q    Type
                         _______ _______ _______ _____ _____    ______ ____

>  <TORSDO>
F 5

$$$$
