=
 OpenBabel11052423053D

 27 31  0  0  1  0  0  0  0  0999 V2000
  162.4950  208.9790  148.3760 C   0  0  0  0  0  2  0  0  0  0  0  0
  161.5020  207.4870  150.0620 C   0  0  0  0  0  0  0  0  0  0  0  0
  161.4290  209.8010  151.0000 N   0  0  0  0  0  0  0  0  0  0  0  0
  161.4620  206.0170  153.9600 N   0  0  0  0  0  0  0  0  0  0  0  0
  160.0540  206.9830  155.7050 C   0  0  0  0  0  1  0  0  0  0  0  0
  161.4300  206.0180  150.3440 C   0  0  0  0  0  3  0  0  0  0  0  0
  160.8500  208.1670  153.5160 C   0  0  2  0  0  3  0  0  0  0  0  0
  161.0440  213.0810  149.5600 C   0  0  0  0  0  3  0  0  0  0  0  0
  159.9850  209.3800  153.6120 C   0  0  0  0  0  1  0  0  0  0  0  0
  160.8280  212.8850  148.0900 C   0  0  0  0  0  2  0  0  0  0  0  0
  161.5510  207.7790  152.4610 C   0  0  1  0  0  3  0  0  0  0  0  0
  161.4180  207.9580  148.6350 C   0  0  2  0  0  3  0  0  0  0  0  0
  160.8190  207.0360  154.4290 C   0  0  0  0  0  0  0  0  0  0  0  0
  162.0720  206.4010  152.6920 C   0  0  2  0  0  3  0  0  0  0  0  0
  161.8930  210.3420  148.5900 C   0  0  2  0  0  3  0  0  0  0  0  0
  161.5200  208.3630  151.1030 C   0  0  0  0  0  0  0  0  0  0  0  0
  161.3240  212.0850  150.4090 C   0  0  0  0  0  3  0  0  0  0  0  0
  161.6450  205.5080  151.5660 C   0  0  0  0  0  3  0  0  0  0  0  0
  162.0810  212.3920  147.3530 C   0  0  0  0  0  2  0  0  0  0  0  0
  162.8160  211.3480  148.0720 N   0  0  0  0  0  2  0  0  0  0  0  0
  161.5450  210.6700  150.0320 C   0  0  0  0  0  0  0  0  0  0  0  0
  161.6180  204.8340  145.6760 C   0  0  0  0  0  3  0  0  0  0  0  0
  161.4640  206.8640  147.6030 C   0  0  0  0  0  0  0  0  0  0  0  0
  160.3740  206.6090  146.7560 C   0  0  0  0  0  3  0  0  0  0  0  0
  160.4510  205.5960  145.7960 C   0  0  0  0  0  3  0  0  0  0  0  0
  162.7070  205.0870  146.5160 C   0  0  0  0  0  3  0  0  0  0  0  0
  162.6310  206.1010  147.4750 C   0  0  0  0  0  3  0  0  0  0  0  0
  1 12  1  0  0  0  0
  2  6  1  0  0  0  0
  2 16  2  0  0  0  0
  3 16  1  0  0  0  0
  4 13  2  0  0  0  0
  6 18  2  0  0  0  0
  7  9  1  6  0  0  0
  7 13  1  0  0  0  0
  8 17  2  0  0  0  0
 10  8  1  0  0  0  0
 11 16  1  6  0  0  0
 11 14  1  0  0  0  0
 11  7  1  0  0  0  0
 12 23  1  6  0  0  0
 12  2  1  0  0  0  0
 13  5  1  0  0  0  0
 14 18  1  6  0  0  0
 14  4  1  0  0  0  0
 15  1  1  1  0  0  0
 15 21  1  0  0  0  0
 19 20  1  0  0  0  0
 19 10  1  0  0  0  0
 20 15  1  0  0  0  0
 21 17  1  0  0  0  0
 21  3  2  0  0  0  0
 22 25  2  0  0  0  0
 22 26  1  0  0  0  0
 24 23  2  0  0  0  0
 25 24  1  0  0  0  0
 26 27  2  0  0  0  0
 27 23  1  0  0  0  0
M  END
>  <MODEL>
1

>  <REMARK>
 VINA RESULT:      -7.6      0.000      0.000
  Name = 
  1 active torsions:
  status: ('A' for Active; 'I' for Inactive)
    1  A    between atoms: C_9  and  C_15
                            x       y       z     vdW  Elec       q    Type
                         _______ _______ _______ _____ _____    ______ ____

>  <TORSDO>
F 1

$$$$
=
 OpenBabel11052423053D

 27 31  0  0  1  0  0  0  0  0999 V2000
  162.3610  209.1260  149.0690 C   0  0  0  0  0  2  0  0  0  0  0  0
  161.3390  208.0100  151.0080 C   0  0  0  0  0  0  0  0  0  0  0  0
  161.1530  210.4700  151.3990 N   0  0  0  0  0  0  0  0  0  0  0  0
  161.1680  207.4470  155.1330 N   0  0  0  0  0  0  0  0  0  0  0  0
  159.6540  208.7210  156.5630 C   0  0  0  0  0  1  0  0  0  0  0  0
  161.3000  206.6390  151.6110 C   0  0  0  0  0  3  0  0  0  0  0  0
  160.5100  209.4160  154.1960 C   0  0  2  0  0  3  0  0  0  0  0  0
  160.7310  213.3270  149.2470 C   0  0  0  0  0  3  0  0  0  0  0  0
  159.6060  210.5850  153.9840 C   0  0  0  0  0  1  0  0  0  0  0  0
  160.5890  212.8000  147.8500 C   0  0  0  0  0  2  0  0  0  0  0  0
  161.2700  208.8320  153.2810 C   0  0  1  0  0  3  0  0  0  0  0  0
  161.3050  208.1460  149.5110 C   0  0  2  0  0  3  0  0  0  0  0  0
  160.4730  208.5180  155.3370 C   0  0  0  0  0  0  0  0  0  0  0  0
  161.8230  207.5620  153.8350 C   0  0  2  0  0  3  0  0  0  0  0  0
  161.7090  210.4770  148.9490 C   0  0  2  0  0  3  0  0  0  0  0  0
  161.2830  209.0960  151.8260 C   0  0  0  0  0  0  0  0  0  0  0  0
  161.0040  212.5590  150.3070 C   0  0  0  0  0  3  0  0  0  0  0  0
  161.4740  206.4240  152.9230 C   0  0  0  0  0  3  0  0  0  0  0  0
  161.8880  212.2060  147.2900 C   0  0  0  0  0  2  0  0  0  0  0  0
  162.6220  211.3780  148.2530 N   0  0  0  0  0  2  0  0  0  0  0  0
  161.2860  211.1050  150.2660 C   0  0  0  0  0  0  0  0  0  0  0  0
  161.6800  204.4770  147.2870 C   0  0  0  0  0  3  0  0  0  0  0  0
  161.4320  206.8520  148.7540 C   0  0  0  0  0  0  0  0  0  0  0  0
  160.7360  205.6990  149.1510 C   0  0  0  0  0  3  0  0  0  0  0  0
  160.8620  204.5150  148.4200 C   0  0  0  0  0  3  0  0  0  0  0  0
  162.3720  205.6240  146.8850 C   0  0  0  0  0  3  0  0  0  0  0  0
  162.2460  206.8090  147.6160 C   0  0  0  0  0  3  0  0  0  0  0  0
  1 12  1  0  0  0  0
  2  6  1  0  0  0  0
  2 16  2  0  0  0  0
  3 16  1  0  0  0  0
  4 13  2  0  0  0  0
  6 18  2  0  0  0  0
  7  9  1  6  0  0  0
  7 13  1  0  0  0  0
  8 17  2  0  0  0  0
 10  8  1  0  0  0  0
 11 16  1  6  0  0  0
 11 14  1  0  0  0  0
 11  7  1  0  0  0  0
 12 23  1  6  0  0  0
 12  2  1  0  0  0  0
 13  5  1  0  0  0  0
 14 18  1  6  0  0  0
 14  4  1  0  0  0  0
 15  1  1  1  0  0  0
 15 21  1  0  0  0  0
 19 10  1  0  0  0  0
 19 20  1  0  0  0  0
 20 15  1  0  0  0  0
 21 17  1  0  0  0  0
 21  3  2  0  0  0  0
 22 25  1  0  0  0  0
 23 24  1  0  0  0  0
 25 24  2  0  0  0  0
 26 22  2  0  0  0  0
 26 27  1  0  0  0  0
 27 23  2  0  0  0  0
M  END
>  <MODEL>
2

>  <REMARK>
 VINA RESULT:      -7.1      1.116      1.355
  Name = 
  1 active torsions:
  status: ('A' for Active; 'I' for Inactive)
    1  A    between atoms: C_9  and  C_15
                            x       y       z     vdW  Elec       q    Type
                         _______ _______ _______ _____ _____    ______ ____

>  <TORSDO>
F 1

$$$$
=
 OpenBabel11052423053D

 27 31  0  0  1  0  0  0  0  0999 V2000
  162.0770  209.6310  150.7340 C   0  0  0  0  0  2  0  0  0  0  0  0
  160.7010  209.2420  152.7350 C   0  0  0  0  0  0  0  0  0  0  0  0
  160.4830  211.6630  152.1590 N   0  0  0  0  0  0  0  0  0  0  0  0
  159.7700  210.2050  156.6810 N   0  0  0  0  0  0  0  0  0  0  0  0
  158.0390  211.8280  157.2550 C   0  0  0  0  0  1  0  0  0  0  0  0
  160.5310  208.1830  153.7810 C   0  0  0  0  0  3  0  0  0  0  0  0
  159.3240  211.6630  154.9870 C   0  0  2  0  0  3  0  0  0  0  0  0
  160.5060  213.5180  149.0720 C   0  0  0  0  0  3  0  0  0  0  0  0
  158.4920  212.6240  154.2070 C   0  0  0  0  0  1  0  0  0  0  0  0
  160.6130  212.5130  147.9640 C   0  0  0  0  0  2  0  0  0  0  0  0
  160.2300  210.8270  154.4990 C   0  0  1  0  0  3  0  0  0  0  0  0
  160.9430  208.8240  151.3110 C   0  0  2  0  0  3  0  0  0  0  0  0
  159.0660  211.2390  156.3530 C   0  0  0  0  0  0  0  0  0  0  0  0
  160.6520  209.8760  155.5680 C   0  0  2  0  0  3  0  0  0  0  0  0
  161.4780  210.8110  150.0150 C   0  0  2  0  0  3  0  0  0  0  0  0
  160.5130  210.5460  153.0750 C   0  0  0  0  0  0  0  0  0  0  0  0
  160.5680  213.2020  150.3700 C   0  0  0  0  0  3  0  0  0  0  0  0
  160.4600  208.4680  155.0890 C   0  0  0  0  0  3  0  0  0  0  0  0
  161.9840  211.8270  147.8970 C   0  0  0  0  0  2  0  0  0  0  0  0
  162.5170  211.4450  149.2090 N   0  0  0  0  0  2  0  0  0  0  0  0
  160.8310  211.8500  150.9140 C   0  0  0  0  0  0  0  0  0  0  0  0
  161.5820  204.6060  150.7180 C   0  0  0  0  0  3  0  0  0  0  0  0
  161.1870  207.3520  151.1150 C   0  0  0  0  0  0  0  0  0  0  0  0
  161.9390  206.6050  152.0370 C   0  0  0  0  0  3  0  0  0  0  0  0
  162.1360  205.2360  151.8360 C   0  0  0  0  0  3  0  0  0  0  0  0
  160.8300  205.3460  149.8000 C   0  0  0  0  0  3  0  0  0  0  0  0
  160.6320  206.7150  150.0000 C   0  0  0  0  0  3  0  0  0  0  0  0
  1 12  1  0  0  0  0
  2 16  2  0  0  0  0
  2  6  1  0  0  0  0
  3 16  1  0  0  0  0
  6 18  2  0  0  0  0
  7  9  1  6  0  0  0
  7 13  1  0  0  0  0
  8 17  2  0  0  0  0
 10  8  1  0  0  0  0
 11 16  1  6  0  0  0
 11  7  1  0  0  0  0
 11 14  1  0  0  0  0
 12 23  1  1  0  0  0
 12  2  1  0  0  0  0
 13  4  2  0  0  0  0
 13  5  1  0  0  0  0
 14 18  1  6  0  0  0
 14  4  1  0  0  0  0
 15  1  1  1  0  0  0
 15 21  1  0  0  0  0
 17 21  1  0  0  0  0
 19 10  1  0  0  0  0
 19 20  1  0  0  0  0
 20 15  1  0  0  0  0
 21  3  2  0  0  0  0
 22 25  1  0  0  0  0
 23 24  1  0  0  0  0
 25 24  2  0  0  0  0
 26 27  1  0  0  0  0
 26 22  2  0  0  0  0
 27 23  2  0  0  0  0
M  END
>  <MODEL>
3

>  <REMARK>
 VINA RESULT:      -6.5      2.244      3.716
  Name = 
  1 active torsions:
  status: ('A' for Active; 'I' for Inactive)
    1  A    between atoms: C_9  and  C_15
                            x       y       z     vdW  Elec       q    Type
                         _______ _______ _______ _____ _____    ______ ____

>  <TORSDO>
F 1

$$$$
=
 OpenBabel11052423053D

 27 31  0  0  1  0  0  0  0  0999 V2000
  161.0060  208.6140  148.0150 C   0  0  0  0  0  2  0  0  0  0  0  0
  161.5430  209.2510  150.3300 C   0  0  0  0  0  0  0  0  0  0  0  0
  161.2880  206.7660  150.2970 N   0  0  0  0  0  0  0  0  0  0  0  0
  160.5580  209.1940  154.3780 N   0  0  0  0  0  0  0  0  0  0  0  0
  161.4050  207.4870  155.9040 C   0  0  0  0  0  1  0  0  0  0  0  0
  161.5790  210.4950  151.1620 C   0  0  0  0  0  3  0  0  0  0  0  0
  161.2050  207.2900  153.3070 C   0  0  2  0  0  3  0  0  0  0  0  0
  161.9560  204.2080  147.8500 C   0  0  0  0  0  3  0  0  0  0  0  0
  161.9740  206.0220  153.1360 C   0  0  0  0  0  1  0  0  0  0  0  0
  162.5720  204.8920  146.6660 C   0  0  0  0  0  2  0  0  0  0  0  0
  160.8310  208.1210  152.3440 C   0  0  1  0  0  3  0  0  0  0  0  0
  162.0010  209.3210  148.8980 C   0  0  2  0  0  3  0  0  0  0  0  0
  161.0180  207.9990  154.5610 C   0  0  0  0  0  0  0  0  0  0  0  0
  160.3070  209.3780  152.9530 C   0  0  2  0  0  3  0  0  0  0  0  0
  161.4850  207.1990  147.8290 C   0  0  2  0  0  3  0  0  0  0  0  0
  161.2150  208.0690  150.9180 C   0  0  0  0  0  0  0  0  0  0  0  0
  161.4830  204.8570  148.9200 C   0  0  0  0  0  3  0  0  0  0  0  0
  161.0530  210.5530  152.3940 C   0  0  0  0  0  3  0  0  0  0  0  0
  161.5840  205.7770  145.8950 C   0  0  0  0  0  2  0  0  0  0  0  0
  160.7110  206.5780  146.7590 N   0  0  0  0  0  2  0  0  0  0  0  0
  161.4160  206.3290  149.0730 C   0  0  0  0  0  0  0  0  0  0  0  0
  162.7210  213.2910  147.3910 C   0  0  0  0  0  3  0  0  0  0  0  0
  162.2700  210.7100  148.3870 C   0  0  0  0  0  0  0  0  0  0  0  0
  163.5670  211.2500  148.3810 C   0  0  0  0  0  3  0  0  0  0  0  0
  163.7900  212.5370  147.8860 C   0  0  0  0  0  3  0  0  0  0  0  0
  161.4300  212.7550  147.3910 C   0  0  0  0  0  3  0  0  0  0  0  0
  161.2060  211.4680  147.8860 C   0  0  0  0  0  3  0  0  0  0  0  0
  1 12  1  0  0  0  0
  2 16  2  0  0  0  0
  2  6  1  0  0  0  0
  3 16  1  0  0  0  0
  4 13  2  0  0  0  0
  6 18  2  0  0  0  0
  7  9  1  6  0  0  0
  7 13  1  0  0  0  0
  8 17  2  0  0  0  0
 10  8  1  0  0  0  0
 11 16  1  6  0  0  0
 11 14  1  0  0  0  0
 11  7  1  0  0  0  0
 12 23  1  6  0  0  0
 12  2  1  0  0  0  0
 13  5  1  0  0  0  0
 14 18  1  6  0  0  0
 14  4  1  0  0  0  0
 15  1  1  1  0  0  0
 15 21  1  0  0  0  0
 17 21  1  0  0  0  0
 19 10  1  0  0  0  0
 19 20  1  0  0  0  0
 20 15  1  0  0  0  0
 21  3  2  0  0  0  0
 22 25  1  0  0  0  0
 24 23  1  0  0  0  0
 25 24  2  0  0  0  0
 26 22  2  0  0  0  0
 26 27  1  0  0  0  0
 27 23  2  0  0  0  0
M  END
>  <MODEL>
4

>  <REMARK>
 VINA RESULT:      -6.4      1.765      5.098
  Name = 
  1 active torsions:
  status: ('A' for Active; 'I' for Inactive)
    1  A    between atoms: C_9  and  C_15
                            x       y       z     vdW  Elec       q    Type
                         _______ _______ _______ _____ _____    ______ ____

>  <TORSDO>
F 1

$$$$
=
 OpenBabel11052423053D

 27 31  0  0  1  0  0  0  0  0999 V2000
  162.2560  210.0140  152.0020 C   0  0  0  0  0  2  0  0  0  0  0  0
  161.6400  208.6260  150.0670 C   0  0  0  0  0  0  0  0  0  0  0  0
  161.2860  207.2310  152.1090 N   0  0  0  0  0  0  0  0  0  0  0  0
  162.1330  205.1150  147.8790 N   0  0  0  0  0  0  0  0  0  0  0  0
  160.7360  203.1450  148.2390 C   0  0  0  0  0  1  0  0  0  0  0  0
  161.8160  208.6480  148.5800 C   0  0  0  0  0  3  0  0  0  0  0  0
  161.1650  205.0790  149.9410 C   0  0  2  0  0  3  0  0  0  0  0  0
  160.2880  207.9470  155.4950 C   0  0  0  0  0  3  0  0  0  0  0  0
  160.1350  204.6970  150.9520 C   0  0  0  0  0  1  0  0  0  0  0  0
  159.9900  209.4150  155.5560 C   0  0  0  0  0  2  0  0  0  0  0  0
  161.8320  206.2230  149.8900 C   0  0  1  0  0  3  0  0  0  0  0  0
  161.3720  209.9200  150.7860 C   0  0  2  0  0  3  0  0  0  0  0  0
  161.3810  204.4170  148.6660 C   0  0  0  0  0  0  0  0  0  0  0  0
  162.5750  206.3030  148.5990 C   0  0  2  0  0  3  0  0  0  0  0  0
  161.4700  209.4970  153.1780 C   0  0  2  0  0  3  0  0  0  0  0  0
  161.6050  207.4290  150.7130 C   0  0  0  0  0  0  0  0  0  0  0  0
  160.7850  207.3350  154.4140 C   0  0  0  0  0  3  0  0  0  0  0  0
  162.2030  207.5680  147.8840 C   0  0  0  0  0  3  0  0  0  0  0  0
  161.2410  210.2950  155.4320 C   0  0  0  0  0  2  0  0  0  0  0  0
  162.1830  209.8400  154.4050 N   0  0  0  0  0  2  0  0  0  0  0  0
  161.1910  208.0040  153.1570 C   0  0  0  0  0  0  0  0  0  0  0  0
  161.6850  213.4680  148.3640 C   0  0  0  0  0  3  0  0  0  0  0  0
  161.5040  211.1550  149.9370 C   0  0  0  0  0  0  0  0  0  0  0  0
  162.4740  211.2490  148.9250 C   0  0  0  0  0  3  0  0  0  0  0  0
  162.5640  212.4030  148.1430 C   0  0  0  0  0  3  0  0  0  0  0  0
  160.7160  213.3770  149.3680 C   0  0  0  0  0  3  0  0  0  0  0  0
  160.6250  212.2230  150.1500 C   0  0  0  0  0  3  0  0  0  0  0  0
  2 16  2  0  0  0  0
  2 12  1  0  0  0  0
  3 21  2  0  0  0  0
  4 14  1  0  0  0  0
  4 13  2  0  0  0  0
  5 13  1  0  0  0  0
  6  2  1  0  0  0  0
  7  9  1  6  0  0  0
  8 10  1  0  0  0  0
 11  7  1  0  0  0  0
 11 16  1  6  0  0  0
 12 23  1  6  0  0  0
 12  1  1  0  0  0  0
 13  7  1  0  0  0  0
 14 18  1  6  0  0  0
 14 11  1  0  0  0  0
 15  1  1  6  0  0  0
 15 20  1  0  0  0  0
 16  3  1  0  0  0  0
 17  8  2  0  0  0  0
 18  6  2  0  0  0  0
 19 10  1  0  0  0  0
 20 19  1  0  0  0  0
 21 15  1  0  0  0  0
 21 17  1  0  0  0  0
 22 26  1  0  0  0  0
 23 27  1  0  0  0  0
 24 23  2  0  0  0  0
 25 22  2  0  0  0  0
 25 24  1  0  0  0  0
 26 27  2  0  0  0  0
M  END
>  <MODEL>
5

>  <REMARK>
 VINA RESULT:      -6.3      1.928      5.876
  Name = 
  1 active torsions:
  status: ('A' for Active; 'I' for Inactive)
    1  A    between atoms: C_9  and  C_15
                            x       y       z     vdW  Elec       q    Type
                         _______ _______ _______ _____ _____    ______ ____

>  <TORSDO>
F 1

$$$$
=
 OpenBabel11052423053D

 27 31  0  0  1  0  0  0  0  0999 V2000
  161.9180  205.6160  152.8480 C   0  0  0  0  0  2  0  0  0  0  0  0
  161.4170  207.9160  152.1330 C   0  0  0  0  0  0  0  0  0  0  0  0
  161.6310  206.5380  150.0610 N   0  0  0  0  0  0  0  0  0  0  0  0
  162.4450  211.2690  149.8840 N   0  0  0  0  0  0  0  0  0  0  0  0
  161.5870  211.6420  147.6290 C   0  0  0  0  0  1  0  0  0  0  0  0
  161.4110  209.2900  152.7280 C   0  0  0  0  0  3  0  0  0  0  0  0
  161.7560  209.3490  148.8690 C   0  0  2  0  0  3  0  0  0  0  0  0
  160.8940  203.1080  149.2430 C   0  0  0  0  0  3  0  0  0  0  0  0
  160.9650  208.5330  147.9020 C   0  0  0  0  0  1  0  0  0  0  0  0
  160.2770  202.4950  150.4640 C   0  0  0  0  0  2  0  0  0  0  0  0
  162.1330  208.9840  150.0860 C   0  0  1  0  0  3  0  0  0  0  0  0
  160.9450  206.7600  152.9710 C   0  0  2  0  0  3  0  0  0  0  0  0
  161.9690  210.7850  148.7840 C   0  0  0  0  0  0  0  0  0  0  0  0
  162.6830  210.1680  150.8090 C   0  0  2  0  0  3  0  0  0  0  0  0
  161.4140  204.7020  151.7630 C   0  0  2  0  0  3  0  0  0  0  0  0
  161.7320  207.7640  150.8190 C   0  0  0  0  0  0  0  0  0  0  0  0
  161.3890  204.3500  149.2040 C   0  0  0  0  0  3  0  0  0  0  0  0
  161.9510  210.3480  152.1050 C   0  0  0  0  0  3  0  0  0  0  0  0
  161.2710  202.3090  151.6180 C   0  0  0  0  0  2  0  0  0  0  0  0
  162.1660  203.4530  151.8160 N   0  0  0  0  0  2  0  0  0  0  0  0
  161.4830  205.2750  150.3580 C   0  0  0  0  0  0  0  0  0  0  0  0
  160.2870  207.6950  157.1240 C   0  0  0  0  0  3  0  0  0  0  0  0
  160.6920  207.0870  154.4180 C   0  0  0  0  0  0  0  0  0  0  0  0
  159.5050  206.6990  155.0610 C   0  0  0  0  0  3  0  0  0  0  0  0
  159.3040  207.0040  156.4100 C   0  0  0  0  0  3  0  0  0  0  0  0
  161.4720  208.0800  156.4890 C   0  0  0  0  0  3  0  0  0  0  0  0
  161.6740  207.7740  155.1400 C   0  0  0  0  0  3  0  0  0  0  0  0
  1 12  1  0  0  0  0
  2  6  1  0  0  0  0
  2 12  1  0  0  0  0
  3 21  2  0  0  0  0
  3 16  1  0  0  0  0
  4 14  1  0  0  0  0
  5 13  1  0  0  0  0
  7  9  1  1  0  0  0
  7 11  1  0  0  0  0
  8 10  1  0  0  0  0
 10 19  1  0  0  0  0
 11 14  1  0  0  0  0
 11 16  1  1  0  0  0
 12 23  1  1  0  0  0
 13  7  1  0  0  0  0
 13  4  2  0  0  0  0
 14 18  1  1  0  0  0
 15 20  1  0  0  0  0
 15  1  1  1  0  0  0
 16  2  2  0  0  0  0
 17  8  2  0  0  0  0
 17 21  1  0  0  0  0
 18  6  2  0  0  0  0
 19 20  1  0  0  0  0
 21 15  1  0  0  0  0
 23 24  2  0  0  0  0
 23 27  1  0  0  0  0
 24 25  1  0  0  0  0
 25 22  2  0  0  0  0
 26 22  1  0  0  0  0
 27 26  2  0  0  0  0
M  END
>  <MODEL>
6

>  <REMARK>
 VINA RESULT:      -5.5      1.907      7.363
  Name = 
  1 active torsions:
  status: ('A' for Active; 'I' for Inactive)
    1  A    between atoms: C_9  and  C_15
                            x       y       z     vdW  Elec       q    Type
                         _______ _______ _______ _____ _____    ______ ____

>  <TORSDO>
F 1

$$$$
=
 OpenBabel11052423053D

 27 31  0  0  1  0  0  0  0  0999 V2000
  161.0960  211.9160  139.0850 C   0  0  0  0  0  2  0  0  0  0  0  0
  159.1400  212.6140  140.4040 C   0  0  0  0  0  0  0  0  0  0  0  0
  158.3160  211.0320  138.6560 N   0  0  0  0  0  0  0  0  0  0  0  0
  155.3280  214.2890  140.5390 N   0  0  0  0  0  0  0  0  0  0  0  0
  153.3010  212.9300  140.4500 C   0  0  0  0  0  1  0  0  0  0  0  0
  158.7880  213.6810  141.3940 C   0  0  0  0  0  3  0  0  0  0  0  0
  155.6710  212.2440  139.5950 C   0  0  2  0  0  3  0  0  0  0  0  0
  159.7250  208.1530  137.0120 C   0  0  0  0  0  3  0  0  0  0  0  0
  155.3900  210.8000  139.3420 C   0  0  0  0  0  1  0  0  0  0  0  0
  161.0680  207.9140  137.6340 C   0  0  0  0  0  2  0  0  0  0  0  0
  156.8640  212.8220  139.6180 C   0  0  1  0  0  3  0  0  0  0  0  0
  160.5050  211.9840  140.4690 C   0  0  2  0  0  3  0  0  0  0  0  0
  154.7400  213.1950  140.1790 C   0  0  0  0  0  0  0  0  0  0  0  0
  156.7290  214.2110  140.1460 C   0  0  2  0  0  3  0  0  0  0  0  0
  160.7790  210.5570  138.5200 C   0  0  2  0  0  3  0  0  0  0  0  0
  158.1820  212.1570  139.5530 C   0  0  0  0  0  0  0  0  0  0  0  0
  158.9470  209.2020  137.3030 C   0  0  0  0  0  3  0  0  0  0  0  0
  157.6550  214.3940  141.3120 C   0  0  0  0  0  3  0  0  0  0  0  0
  162.1040  208.9880  137.2740 C   0  0  0  0  0  2  0  0  0  0  0  0
  161.5750  210.3550  137.3130 N   0  0  0  0  0  2  0  0  0  0  0  0
  159.3120  210.3190  138.2040 C   0  0  0  0  0  0  0  0  0  0  0  0
  163.2040  213.8630  143.2500 C   0  0  0  0  0  3  0  0  0  0  0  0
  161.4620  212.6450  141.4230 C   0  0  0  0  0  0  0  0  0  0  0  0
  162.3080  213.6880  141.0080 C   0  0  0  0  0  3  0  0  0  0  0  0
  163.1770  214.2930  141.9200 C   0  0  0  0  0  3  0  0  0  0  0  0
  162.3620  212.8290  143.6680 C   0  0  0  0  0  3  0  0  0  0  0  0
  161.4920  212.2230  142.7570 C   0  0  0  0  0  3  0  0  0  0  0  0
  1 12  1  0  0  0  0
  2 12  1  0  0  0  0
  2  6  1  0  0  0  0
  3 16  1  0  0  0  0
  7  9  1  1  0  0  0
  7 11  1  0  0  0  0
  7 13  1  0  0  0  0
  8 17  2  0  0  0  0
  8 10  1  0  0  0  0
 11 16  1  1  0  0  0
 11 14  1  0  0  0  0
 12 23  1  1  0  0  0
 13  5  1  0  0  0  0
 13  4  2  0  0  0  0
 14  4  1  0  0  0  0
 14 18  1  1  0  0  0
 15  1  1  6  0  0  0
 16  2  2  0  0  0  0
 17 21  1  0  0  0  0
 18  6  2  0  0  0  0
 19 20  1  0  0  0  0
 19 10  1  0  0  0  0
 20 15  1  0  0  0  0
 21 15  1  0  0  0  0
 21  3  2  0  0  0  0
 22 26  1  0  0  0  0
 23 27  1  0  0  0  0
 24 23  2  0  0  0  0
 24 25  1  0  0  0  0
 25 22  2  0  0  0  0
 27 26  2  0  0  0  0
M  END
>  <MODEL>
7

>  <REMARK>
 VINA RESULT:      -5.2      9.275     12.522
  Name = 
  1 active torsions:
  status: ('A' for Active; 'I' for Inactive)
    1  A    between atoms: C_9  and  C_15
                            x       y       z     vdW  Elec       q    Type
                         _______ _______ _______ _____ _____    ______ ____

>  <TORSDO>
F 1

$$$$
=
 OpenBabel11052423053D

 27 31  0  0  1  0  0  0  0  0999 V2000
  158.6490  210.7400  154.4360 C   0  0  0  0  0  2  0  0  0  0  0  0
  160.6330  211.0480  153.0150 C   0  0  0  0  0  0  0  0  0  0  0  0
  158.8740  212.6020  152.1600 N   0  0  0  0  0  0  0  0  0  0  0  0
  162.3480  211.0660  149.2180 N   0  0  0  0  0  0  0  0  0  0  0  0
  162.5350  213.0990  147.8790 C   0  0  0  0  0  1  0  0  0  0  0  0
  161.9230  210.3400  152.7350 C   0  0  0  0  0  3  0  0  0  0  0  0
  160.8520  212.6710  149.8300 C   0  0  2  0  0  3  0  0  0  0  0  0
  156.1970  214.4530  153.7020 C   0  0  0  0  0  3  0  0  0  0  0  0
  160.3340  214.0650  149.9660 C   0  0  0  0  0  1  0  0  0  0  0  0
  156.2970  214.2100  155.1780 C   0  0  0  0  0  2  0  0  0  0  0  0
  160.6590  211.6730  150.6800 C   0  0  1  0  0  3  0  0  0  0  0  0
  160.1160  211.0840  154.4270 C   0  0  2  0  0  3  0  0  0  0  0  0
  161.9150  212.2510  148.9340 C   0  0  0  0  0  0  0  0  0  0  0  0
  161.5420  210.5290  150.3070 C   0  0  2  0  0  3  0  0  0  0  0  0
  157.8780  212.0320  154.3950 C   0  0  2  0  0  3  0  0  0  0  0  0
  160.0270  211.7420  152.0140 C   0  0  0  0  0  0  0  0  0  0  0  0
  156.9700  213.8460  152.7950 C   0  0  0  0  0  3  0  0  0  0  0  0
  162.3760  210.1360  151.4890 C   0  0  0  0  0  3  0  0  0  0  0  0
  155.9280  212.7770  155.5840 C   0  0  0  0  0  2  0  0  0  0  0  0
  156.4760  211.7510  154.6920 N   0  0  0  0  0  2  0  0  0  0  0  0
  157.9730  212.7960  153.0850 C   0  0  0  0  0  0  0  0  0  0  0  0
  162.2160  208.5670  157.2200 C   0  0  0  0  0  3  0  0  0  0  0  0
  160.8690  210.2170  155.4000 C   0  0  0  0  0  0  0  0  0  0  0  0
  161.9280  210.7280  156.1690 C   0  0  0  0  0  3  0  0  0  0  0  0
  162.6000  209.9030  157.0750 C   0  0  0  0  0  3  0  0  0  0  0  0
  161.1610  208.0550  156.4600 C   0  0  0  0  0  3  0  0  0  0  0  0
  160.4880  208.8800  155.5540 C   0  0  0  0  0  3  0  0  0  0  0  0
  2 12  1  0  0  0  0
  3 21  2  0  0  0  0
  4 14  1  0  0  0  0
  5 13  1  0  0  0  0
  6  2  1  0  0  0  0
  7  9  1  1  0  0  0
  7 11  1  0  0  0  0
  8 10  1  0  0  0  0
 10 19  1  0  0  0  0
 11 16  1  1  0  0  0
 12  1  1  0  0  0  0
 12 23  1  1  0  0  0
 13  4  2  0  0  0  0
 13  7  1  0  0  0  0
 14 11  1  0  0  0  0
 14 18  1  1  0  0  0
 15  1  1  6  0  0  0
 15 20  1  0  0  0  0
 16  3  1  0  0  0  0
 16  2  2  0  0  0  0
 17 21  1  0  0  0  0
 17  8  2  0  0  0  0
 18  6  2  0  0  0  0
 20 19  1  0  0  0  0
 21 15  1  0  0  0  0
 23 27  2  0  0  0  0
 23 24  1  0  0  0  0
 24 25  2  0  0  0  0
 25 22  1  0  0  0  0
 26 22  2  0  0  0  0
 27 26  1  0  0  0  0
M  END
>  <MODEL>
8

>  <REMARK>
 VINA RESULT:      -4.9      3.833      7.698
  Name = 
  1 active torsions:
  status: ('A' for Active; 'I' for Inactive)
    1  A    between atoms: C_9  and  C_15
                            x       y       z     vdW  Elec       q    Type
                         _______ _______ _______ _____ _____    ______ ____

>  <TORSDO>
F 1

$$$$
=
 OpenBabel11052423053D

 27 31  0  0  1  0  0  0  0  0999 V2000
  160.3490  211.0030  153.9990 C   0  0  0  0  0  2  0  0  0  0  0  0
  159.8010  212.2930  151.9770 C   0  0  0  0  0  0  0  0  0  0  0  0
  161.3080  210.4300  151.2700 N   0  0  0  0  0  0  0  0  0  0  0  0
  161.0840  214.4530  148.6540 N   0  0  0  0  0  0  0  0  0  0  0  0
  161.4130  213.4150  146.4690 C   0  0  0  0  0  1  0  0  0  0  0  0
  159.2090  213.6240  151.6320 C   0  0  0  0  0  3  0  0  0  0  0  0
  161.4170  212.2030  148.7830 C   0  0  2  0  0  3  0  0  0  0  0  0
  161.8220  207.0500  152.4050 C   0  0  0  0  0  3  0  0  0  0  0  0
  161.4090  210.7980  148.2800 C   0  0  0  0  0  1  0  0  0  0  0  0
  160.8220  206.8030  153.4940 C   0  0  0  0  0  2  0  0  0  0  0  0
  161.2020  212.5950  150.0300 C   0  0  1  0  0  3  0  0  0  0  0  0
  159.2290  211.5210  153.1340 C   0  0  2  0  0  3  0  0  0  0  0  0
  161.3360  213.3950  147.9550 C   0  0  0  0  0  0  0  0  0  0  0  0
  161.0530  214.0800  150.0620 C   0  0  2  0  0  3  0  0  0  0  0  0
  160.6600  209.6000  153.5510 C   0  0  2  0  0  3  0  0  0  0  0  0
  160.7560  211.7620  151.1660 C   0  0  0  0  0  0  0  0  0  0  0  0
  161.9950  208.2360  151.8100 C   0  0  0  0  0  3  0  0  0  0  0  0
  159.7520  214.4380  150.7150 C   0  0  0  0  0  3  0  0  0  0  0  0
  161.1170  207.5870  154.7800 C   0  0  0  0  0  2  0  0  0  0  0  0
  161.5290  208.9740  154.5430 N   0  0  0  0  0  2  0  0  0  0  0  0
  161.3010  209.4920  152.1780 C   0  0  0  0  0  0  0  0  0  0  0  0
  156.3980  213.6830  155.5540 C   0  0  0  0  0  3  0  0  0  0  0  0
  158.2240  212.2740  153.9630 C   0  0  0  0  0  0  0  0  0  0  0  0
  156.8470  212.0130  153.8610 C   0  0  0  0  0  3  0  0  0  0  0  0
  155.9380  212.7180  154.6540 C   0  0  0  0  0  3  0  0  0  0  0  0
  157.7670  213.9430  155.6620 C   0  0  0  0  0  3  0  0  0  0  0  0
  158.6770  213.2390  154.8690 C   0  0  0  0  0  3  0  0  0  0  0  0
  2 12  1  0  0  0  0
  3 21  2  0  0  0  0
  4 14  1  0  0  0  0
  5 13  1  0  0  0  0
  6  2  1  0  0  0  0
  7  9  1  6  0  0  0
  7 11  1  0  0  0  0
  8 10  1  0  0  0  0
 10 19  1  0  0  0  0
 11 14  1  0  0  0  0
 11 16  1  6  0  0  0
 12 23  1  1  0  0  0
 12  1  1  0  0  0  0
 13  4  2  0  0  0  0
 13  7  1  0  0  0  0
 14 18  1  6  0  0  0
 15  1  1  1  0  0  0
 15 20  1  0  0  0  0
 16  3  1  0  0  0  0
 16  2  2  0  0  0  0
 17 21  1  0  0  0  0
 17  8  2  0  0  0  0
 18  6  2  0  0  0  0
 20 19  1  0  0  0  0
 21 15  1  0  0  0  0
 22 26  1  0  0  0  0
 23 27  1  0  0  0  0
 24 23  2  0  0  0  0
 24 25  1  0  0  0  0
 25 22  2  0  0  0  0
 27 26  2  0  0  0  0
M  END
>  <MODEL>
9

>  <REMARK>
 VINA RESULT:      -4.8      2.959      8.321
  Name = 
  1 active torsions:
  status: ('A' for Active; 'I' for Inactive)
    1  A    between atoms: C_9  and  C_15
                            x       y       z     vdW  Elec       q    Type
                         _______ _______ _______ _____ _____    ______ ____

>  <TORSDO>
F 1

$$$$
