=
 OpenBabel11062410363D

 32 37  0  0  1  0  0  0  0  0999 V2000
  160.5790  212.8550  150.0070 C   0  0  0  0  0  2  0  0  0  0  0  0
  161.5250  207.8620  149.5840 C   0  0  0  0  0  0  0  0  0  0  0  0
  160.6190  207.0410  154.4100 C   0  0  0  0  0  2  0  0  0  0  0  0
  161.2500  205.6720  154.2540 C   0  0  0  0  0  2  0  0  0  0  0  0
  161.5060  205.8990  147.9920 C   0  0  0  0  0  0  0  0  0  0  0  0
  161.3930  204.5160  147.8620 C   0  0  0  0  0  0  0  0  0  0  0  0
  161.8020  210.1730  148.7990 C   0  0  0  0  0  0  0  0  0  0  0  0
  161.5450  209.7210  151.1640 C   0  0  0  0  0  3  0  0  0  0  0  0
  161.1500  202.4350  148.4070 C   0  0  0  0  0  0  0  0  0  0  0  0
  161.8180  212.0860  150.4770 C   0  0  0  0  0  2  0  0  0  0  0  0
  161.2550  207.9920  153.4080 C   0  0  0  0  0  2  0  0  0  0  0  0
  161.4390  208.3430  150.9160 C   0  0  0  0  0  0  0  0  0  0  0  0
  161.2500  207.4560  151.9910 C   0  0  0  0  0  0  0  0  0  0  0  0
  161.2430  205.5720  150.4340 C   0  0  0  0  0  0  0  0  0  0  0  0
  161.2850  202.5370  147.0990 O   0  0  0  0  0  0  0  0  0  0  0  0
  161.5320  212.5160  147.6990 C   0  0  0  0  0  2  0  0  0  0  0  0
  161.7320  210.6350  150.1290 C   0  0  0  0  0  0  0  0  0  0  0  0
  161.4340  203.7830  146.7310 N   0  0  0  0  0  0  0  0  0  0  0  0
  162.0180  211.0650  147.5960 C   0  0  0  0  0  2  0  0  0  0  0  0
  160.2550  212.6470  148.5250 C   0  0  2  0  0  3  0  0  0  0  0  0
  160.8740  205.1110  152.8900 C   0  0  0  0  0  2  0  0  0  0  0  0
  161.1640  206.0680  151.7500 C   0  0  0  0  0  0  0  0  0  0  0  0
  161.1350  204.1790  150.2250 C   0  0  0  0  0  3  0  0  0  0  0  0
  161.7070  208.8030  148.5560 C   0  0  0  0  0  3  0  0  0  0  0  0
  161.6980  206.6910  146.7370 C   0  0  0  0  0  1  0  0  0  0  0  0
  160.9630  201.1590  149.1500 C   0  0  0  0  0  1  0  0  0  0  0  0
  161.4290  206.4640  149.3170 C   0  0  0  0  0  0  0  0  0  0  0  0
  161.2150  203.7000  148.9320 C   0  0  0  0  0  0  0  0  0  0  0  0
  159.4160  213.8130  148.0320 C   0  0  0  0  0  2  0  0  0  0  0  0
  158.3520  213.3420  147.1000 C   0  0  0  0  0  0  0  0  0  0  0  0
  157.2980  212.5740  147.5790 O   0  0  0  0  0  1  0  0  0  0  0  0
  158.3910  213.6650  145.8840 O   0  0  0  0  0  0  0  0  0  0  0  0
  1 10  1  0  0  0  0
  2 12  1  0  0  0  0
  4  3  1  0  0  0  0
  5 27  2  0  0  0  0
  6  5  1  0  0  0  0
  6 28  1  0  0  0  0
  7 17  2  0  0  0  0
  9 28  2  0  0  0  0
  9 26  1  0  0  0  0
 11  3  1  0  0  0  0
 12  8  2  0  0  0  0
 12 13  1  0  0  0  0
 13 11  1  0  0  0  0
 14 22  1  0  0  0  0
 15  9  1  0  0  0  0
 16 20  1  0  0  0  0
 17 10  1  0  0  0  0
 17  8  1  0  0  0  0
 18 15  1  0  0  0  0
 18  6  2  0  0  0  0
 19 16  1  0  0  0  0
 19  7  1  0  0  0  0
 20 29  1  6  0  0  0
 20  1  1  0  0  0  0
 21  4  1  0  0  0  0
 22 13  2  0  0  0  0
 22 21  1  0  0  0  0
 23 14  2  0  0  0  0
 24  7  1  0  0  0  0
 24  2  2  0  0  0  0
 25  5  1  0  0  0  0
 27  2  1  0  0  0  0
 27 14  1  0  0  0  0
 28 23  1  0  0  0  0
 30 31  1  0  0  0  0
 30 29  1  0  0  0  0
 32 30  2  0  0  0  0
M  END
>  <MODEL>
1

>  <REMARK>
 VINA RESULT:      -8.8      0.000      0.000
  Name = 
  2 active torsions:
  status: ('A' for Active; 'I' for Inactive)
    1  A    between atoms: C_1  and  C_10
    2  A    between atoms: C_10  and  C_24
                            x       y       z     vdW  Elec       q    Type
                         _______ _______ _______ _____ _____    ______ ____

>  <TORSDO>
F 2

$$$$
=
 OpenBabel11062410363D

 32 37  0  0  1  0  0  0  0  0999 V2000
  159.9980  209.4900  154.7480 C   0  0  0  0  0  2  0  0  0  0  0  0
  161.2540  206.9110  150.5320 C   0  0  0  0  0  0  0  0  0  0  0  0
  160.4520  202.5040  152.7050 C   0  0  0  0  0  2  0  0  0  0  0  0
  161.1670  201.8460  151.5410 C   0  0  0  0  0  2  0  0  0  0  0  0
  161.3430  207.0250  148.0090 C   0  0  0  0  0  0  0  0  0  0  0  0
  161.3160  206.3030  146.8160 C   0  0  0  0  0  0  0  0  0  0  0  0
  161.3750  208.9260  151.9320 C   0  0  0  0  0  0  0  0  0  0  0  0
  161.1720  206.7450  152.9650 C   0  0  0  0  0  3  0  0  0  0  0  0
  161.2120  204.6190  145.4600 C   0  0  0  0  0  0  0  0  0  0  0  0
  161.2880  208.7130  154.4660 C   0  0  0  0  0  2  0  0  0  0  0  0
  161.0160  203.9030  152.9000 C   0  0  0  0  0  2  0  0  0  0  0  0
  161.1510  206.1210  151.7070 C   0  0  0  0  0  0  0  0  0  0  0  0
  161.0300  204.7230  151.6260 C   0  0  0  0  0  0  0  0  0  0  0  0
  161.1260  204.8560  149.1880 C   0  0  0  0  0  0  0  0  0  0  0  0
  161.3260  205.7370  144.7700 O   0  0  0  0  0  0  0  0  0  0  0  0
  160.9460  211.1870  153.1450 C   0  0  0  0  0  2  0  0  0  0  0  0
  161.2900  208.1280  153.0900 C   0  0  0  0  0  0  0  0  0  0  0  0
  161.3920  206.7790  145.5570 N   0  0  0  0  0  0  0  0  0  0  0  0
  161.5230  210.4320  151.9410 C   0  0  0  0  0  2  0  0  0  0  0  0
  159.6720  210.5430  153.6840 C   0  0  2  0  0  3  0  0  0  0  0  0
  160.8130  202.5920  150.2620 C   0  0  0  0  0  2  0  0  0  0  0  0
  161.0300  204.0890  150.3650 C   0  0  0  0  0  0  0  0  0  0  0  0
  161.1050  204.1930  147.9410 C   0  0  0  0  0  3  0  0  0  0  0  0
  161.3650  208.3040  150.6830 C   0  0  0  0  0  3  0  0  0  0  0  0
  161.4710  208.5120  147.9060 C   0  0  0  0  0  1  0  0  0  0  0  0
  161.1130  203.2560  144.8700 C   0  0  0  0  0  1  0  0  0  0  0  0
  161.2440  206.2920  149.2470 C   0  0  0  0  0  0  0  0  0  0  0  0
  161.2020  204.9510  146.7900 C   0  0  0  0  0  0  0  0  0  0  0  0
  158.7560  211.5930  154.2890 C   0  0  0  0  0  2  0  0  0  0  0  0
  158.5880  212.7450  153.3600 C   0  0  0  0  0  0  0  0  0  0  0  0
  158.1560  212.5320  152.0570 O   0  0  0  0  0  0  0  0  0  0  0  0
  158.8080  213.9170  153.7640 O   0  0  0  0  0  1  0  0  0  0  0  0
  2 24  2  0  0  0  0
  2 12  1  0  0  0  0
  3 11  1  0  0  0  0
  4  3  1  0  0  0  0
  5 27  2  0  0  0  0
  6  5  1  0  0  0  0
  7 19  1  0  0  0  0
  7 17  2  0  0  0  0
  8 17  1  0  0  0  0
  9 28  2  0  0  0  0
 10  1  1  0  0  0  0
 12  8  2  0  0  0  0
 13 12  1  0  0  0  0
 13 11  1  0  0  0  0
 14 27  1  0  0  0  0
 14 22  1  0  0  0  0
 15  9  1  0  0  0  0
 15 18  1  0  0  0  0
 16 20  1  0  0  0  0
 17 10  1  0  0  0  0
 18  6  2  0  0  0  0
 19 16  1  0  0  0  0
 20 29  1  1  0  0  0
 20  1  1  0  0  0  0
 21 22  1  0  0  0  0
 21  4  1  0  0  0  0
 22 13  2  0  0  0  0
 23 14  2  0  0  0  0
 24  7  1  0  0  0  0
 25  5  1  0  0  0  0
 26  9  1  0  0  0  0
 27  2  1  0  0  0  0
 28  6  1  0  0  0  0
 28 23  1  0  0  0  0
 30 32  1  0  0  0  0
 30 29  1  0  0  0  0
 31 30  2  0  0  0  0
M  END
>  <MODEL>
2

>  <REMARK>
 VINA RESULT:      -8.6      2.721      4.102
  Name = 
  2 active torsions:
  status: ('A' for Active; 'I' for Inactive)
    1  A    between atoms: C_1  and  C_10
    2  A    between atoms: C_10  and  C_24
                            x       y       z     vdW  Elec       q    Type
                         _______ _______ _______ _____ _____    ______ ____

>  <TORSDO>
F 2

$$$$
=
 OpenBabel11062410363D

 32 37  0  0  1  0  0  0  0  0999 V2000
  161.1770  203.9590  148.3600 C   0  0  0  0  0  2  0  0  0  0  0  0
  161.2820  207.7350  151.7850 C   0  0  0  0  0  0  0  0  0  0  0  0
  161.5410  211.2420  148.2610 C   0  0  0  0  0  2  0  0  0  0  0  0
  161.9150  212.2400  149.3390 C   0  0  0  0  0  2  0  0  0  0  0  0
  160.5840  208.4060  154.1190 C   0  0  0  0  0  0  0  0  0  0  0  0
  160.2510  209.4600  154.9700 C   0  0  0  0  0  0  0  0  0  0  0  0
  161.6660  205.3900  151.1630 C   0  0  0  0  0  0  0  0  0  0  0  0
  161.9640  207.1420  149.5190 C   0  0  0  0  0  3  0  0  0  0  0  0
  159.8710  211.4770  155.6570 C   0  0  0  0  0  0  0  0  0  0  0  0
  162.3760  204.8100  148.7900 C   0  0  0  0  0  2  0  0  0  0  0  0
  162.0240  209.8620  148.6800 C   0  0  0  0  0  2  0  0  0  0  0  0
  161.6080  208.1220  150.4590 C   0  0  0  0  0  0  0  0  0  0  0  0
  161.5810  209.4750  150.0770 C   0  0  0  0  0  0  0  0  0  0  0  0
  160.9140  210.1020  152.3430 C   0  0  0  0  0  0  0  0  0  0  0  0
  159.6790  210.6290  156.6470 O   0  0  0  0  0  0  0  0  0  0  0  0
  161.4490  202.8560  150.6090 C   0  0  0  0  0  2  0  0  0  0  0  0
  162.0040  205.7900  149.8550 C   0  0  0  0  0  0  0  0  0  0  0  0
  159.8990  209.3960  156.2700 N   0  0  0  0  0  0  0  0  0  0  0  0
  161.6870  203.9580  151.6510 C   0  0  0  0  0  2  0  0  0  0  0  0
  160.4580  203.2790  149.5280 C   0  0  2  0  0  3  0  0  0  0  0  0
  161.1280  211.9180  150.6010 C   0  0  0  0  0  2  0  0  0  0  0  0
  161.2450  210.4660  151.0230 C   0  0  0  0  0  0  0  0  0  0  0  0
  160.5650  211.1160  153.2610 C   0  0  0  0  0  3  0  0  0  0  0  0
  161.3230  206.3660  152.0990 C   0  0  0  0  0  3  0  0  0  0  0  0
  160.5550  207.0260  154.6960 C   0  0  0  0  0  1  0  0  0  0  0  0
  159.7060  212.9530  155.7500 C   0  0  0  0  0  1  0  0  0  0  0  0
  160.9290  208.7200  152.7540 C   0  0  0  0  0  0  0  0  0  0  0  0
  160.2430  210.7520  154.5540 C   0  0  0  0  0  0  0  0  0  0  0  0
  159.6890  202.0770  149.0070 C   0  0  0  0  0  2  0  0  0  0  0  0
  160.5220  201.2920  148.0520 C   0  0  0  0  0  0  0  0  0  0  0  0
  160.4090  201.5120  146.6860 O   0  0  0  0  0  0  0  0  0  0  0  0
  161.3510  200.4490  148.4850 O   0  0  0  0  0  1  0  0  0  0  0  0
  1 10  1  0  0  0  0
  1 20  1  0  0  0  0
  2 24  1  0  0  0  0
  2 27  1  0  0  0  0
  3 11  1  0  0  0  0
  3  4  1  0  0  0  0
  4 21  1  0  0  0  0
  5 25  1  0  0  0  0
  5  6  1  0  0  0  0
  6 18  2  0  0  0  0
  7 19  1  0  0  0  0
  7 24  2  0  0  0  0
  8 17  2  0  0  0  0
  8 12  1  0  0  0  0
  9 26  1  0  0  0  0
  9 15  1  0  0  0  0
 10 17  1  0  0  0  0
 11 13  1  0  0  0  0
 12  2  2  0  0  0  0
 13 12  1  0  0  0  0
 13 22  2  0  0  0  0
 14 27  1  0  0  0  0
 14 23  2  0  0  0  0
 16 19  1  0  0  0  0
 17  7  1  0  0  0  0
 18 15  1  0  0  0  0
 20 29  1  6  0  0  0
 20 16  1  0  0  0  0
 21 22  1  0  0  0  0
 22 14  1  0  0  0  0
 23 28  1  0  0  0  0
 27  5  2  0  0  0  0
 28  6  1  0  0  0  0
 28  9  2  0  0  0  0
 30 32  1  0  0  0  0
 30 29  1  0  0  0  0
 31 30  2  0  0  0  0
M  END
>  <MODEL>
3

>  <REMARK>
 VINA RESULT:      -7.6      3.573      8.469
  Name = 
  2 active torsions:
  status: ('A' for Active; 'I' for Inactive)
    1  A    between atoms: C_1  and  C_10
    2  A    between atoms: C_10  and  C_24
                            x       y       z     vdW  Elec       q    Type
                         _______ _______ _______ _____ _____    ______ ____

>  <TORSDO>
F 2

$$$$
=
 OpenBabel11062410363D

 32 37  0  0  1  0  0  0  0  0999 V2000
  161.7910  209.9380  155.0640 C   0  0  0  0  0  2  0  0  0  0  0  0
  160.8930  206.1040  151.8250 C   0  0  0  0  0  0  0  0  0  0  0  0
  162.3760  208.7680  147.8890 C   0  0  0  0  0  2  0  0  0  0  0  0
  161.7560  207.7140  146.9930 C   0  0  0  0  0  2  0  0  0  0  0  0
  160.7600  203.5890  151.6110 C   0  0  0  0  0  0  0  0  0  0  0  0
  160.8820  202.4920  150.7590 C   0  0  0  0  0  0  0  0  0  0  0  0
  160.4840  207.2540  153.9570 C   0  0  0  0  0  0  0  0  0  0  0  0
  161.0260  208.5350  151.9760 C   0  0  0  0  0  3  0  0  0  0  0  0
  161.2250  201.3460  148.9540 C   0  0  0  0  0  0  0  0  0  0  0  0
  160.6310  209.7910  154.0750 C   0  0  0  0  0  2  0  0  0  0  0  0
  161.6090  208.8100  149.2020 C   0  0  0  0  0  2  0  0  0  0  0  0
  161.1270  207.3620  151.2110 C   0  0  0  0  0  0  0  0  0  0  0  0
  161.4570  207.4470  149.8470 C   0  0  0  0  0  0  0  0  0  0  0  0
  161.3150  205.0140  149.6610 C   0  0  0  0  0  0  0  0  0  0  0  0
  160.9350  200.5300  149.9480 O   0  0  0  0  0  0  0  0  0  0  0  0
  160.5800  208.1710  156.3900 C   0  0  0  0  0  2  0  0  0  0  0  0
  160.7010  208.4960  153.3300 C   0  0  0  0  0  0  0  0  0  0  0  0
  160.7210  201.1870  151.0590 N   0  0  0  0  0  0  0  0  0  0  0  0
  160.1110  207.0840  155.4140 C   0  0  0  0  0  2  0  0  0  0  0  0
  161.9430  208.7460  156.0130 C   0  0  2  0  0  3  0  0  0  0  0  0
  161.9790  206.3450  147.6190 C   0  0  0  0  0  2  0  0  0  0  0  0
  161.5390  206.2730  149.0690 C   0  0  0  0  0  0  0  0  0  0  0  0
  161.4220  203.8560  148.8590 C   0  0  0  0  0  3  0  0  0  0  0  0
  160.5740  206.0890  153.1940 C   0  0  0  0  0  3  0  0  0  0  0  0
  160.4070  203.3120  153.0380 C   0  0  0  0  0  1  0  0  0  0  0  0
  161.5220  200.9230  147.5590 C   0  0  0  0  0  1  0  0  0  0  0  0
  160.9820  204.9030  151.0600 C   0  0  0  0  0  0  0  0  0  0  0  0
  161.1990  202.6260  149.4460 C   0  0  0  0  0  0  0  0  0  0  0  0
  162.6970  209.1920  157.2540 C   0  0  0  0  0  2  0  0  0  0  0  0
  162.9720  210.6560  157.2080 C   0  0  0  0  0  0  0  0  0  0  0  0
  161.9210  211.5630  157.2600 O   0  0  0  0  0  1  0  0  0  0  0  0
  164.1580  211.0730  157.1530 O   0  0  0  0  0  0  0  0  0  0  0  0
  1 20  1  0  0  0  0
  2 24  1  0  0  0  0
  3 11  1  0  0  0  0
  4 21  1  0  0  0  0
  4  3  1  0  0  0  0
  5 25  1  0  0  0  0
  6 18  2  0  0  0  0
  6  5  1  0  0  0  0
  7 19  1  0  0  0  0
  8 17  2  0  0  0  0
  9 28  2  0  0  0  0
  9 15  1  0  0  0  0
 10  1  1  0  0  0  0
 11 13  1  0  0  0  0
 12  2  2  0  0  0  0
 12  8  1  0  0  0  0
 13 12  1  0  0  0  0
 14 27  1  0  0  0  0
 15 18  1  0  0  0  0
 17  7  1  0  0  0  0
 17 10  1  0  0  0  0
 19 16  1  0  0  0  0
 20 16  1  0  0  0  0
 20 29  1  1  0  0  0
 21 22  1  0  0  0  0
 22 14  1  0  0  0  0
 22 13  2  0  0  0  0
 23 28  1  0  0  0  0
 23 14  2  0  0  0  0
 24  7  2  0  0  0  0
 26  9  1  0  0  0  0
 27  5  2  0  0  0  0
 27  2  1  0  0  0  0
 28  6  1  0  0  0  0
 30 29  1  0  0  0  0
 30 31  1  0  0  0  0
 32 30  2  0  0  0  0
M  END
>  <MODEL>
4

>  <REMARK>
 VINA RESULT:      -7.3      3.777      6.213
  Name = 
  2 active torsions:
  status: ('A' for Active; 'I' for Inactive)
    1  A    between atoms: C_1  and  C_10
    2  A    between atoms: C_10  and  C_24
                            x       y       z     vdW  Elec       q    Type
                         _______ _______ _______ _____ _____    ______ ____

>  <TORSDO>
F 2

$$$$
=
 OpenBabel11062410363D

 32 37  0  0  1  0  0  0  0  0999 V2000
  160.9700  210.5170  151.9840 C   0  0  0  0  0  2  0  0  0  0  0  0
  161.5120  206.3920  149.0360 C   0  0  0  0  0  0  0  0  0  0  0  0
  160.5810  203.2810  152.8110 C   0  0  0  0  0  2  0  0  0  0  0  0
  161.1000  202.1470  151.9510 C   0  0  0  0  0  2  0  0  0  0  0  0
  161.3240  205.5220  146.6700 C   0  0  0  0  0  0  0  0  0  0  0  0
  161.1000  204.4100  145.8610 C   0  0  0  0  0  0  0  0  0  0  0  0
  161.9650  208.7560  149.5240 C   0  0  0  0  0  0  0  0  0  0  0  0
  161.6920  207.1770  151.3390 C   0  0  0  0  0  3  0  0  0  0  0  0
  160.6980  202.3630  145.2820 C   0  0  0  0  0  0  0  0  0  0  0  0
  162.1470  209.5380  151.9380 C   0  0  0  0  0  2  0  0  0  0  0  0
  161.2830  204.5680  152.4030 C   0  0  0  0  0  2  0  0  0  0  0  0
  161.4750  206.1280  150.4300 C   0  0  0  0  0  0  0  0  0  0  0  0
  161.2240  204.8320  150.9120 C   0  0  0  0  0  0  0  0  0  0  0  0
  161.0550  204.0120  148.6160 C   0  0  0  0  0  0  0  0  0  0  0  0
  160.8300  203.1090  144.2040 O   0  0  0  0  0  0  0  0  0  0  0  0
  161.8740  211.3440  149.7820 C   0  0  0  0  0  2  0  0  0  0  0  0
  161.9430  208.4770  150.9050 C   0  0  0  0  0  0  0  0  0  0  0  0
  161.0750  204.3560  144.5130 N   0  0  0  0  0  0  0  0  0  0  0  0
  162.2430  210.1200  148.9320 C   0  0  0  0  0  2  0  0  0  0  0  0
  160.6180  211.1160  150.6190 C   0  0  2  0  0  3  0  0  0  0  0  0
  160.6700  202.3860  150.5110 C   0  0  0  0  0  2  0  0  0  0  0  0
  161.0260  203.7700  150.0040 C   0  0  0  0  0  0  0  0  0  0  0  0
  160.8350  202.9310  147.7330 C   0  0  0  0  0  3  0  0  0  0  0  0
  161.7600  207.7110  148.6220 C   0  0  0  0  0  3  0  0  0  0  0  0
  161.5690  206.8300  145.9850 C   0  0  0  0  0  1  0  0  0  0  0  0
  160.4150  200.9020  145.2810 C   0  0  0  0  0  1  0  0  0  0  0  0
  161.3030  205.3350  148.1000 C   0  0  0  0  0  0  0  0  0  0  0  0
  160.8670  203.1750  146.3740 C   0  0  0  0  0  0  0  0  0  0  0  0
  159.8700  212.4220  150.8270 C   0  0  0  0  0  2  0  0  0  0  0  0
  159.9320  213.2680  149.6020 C   0  0  0  0  0  0  0  0  0  0  0  0
  159.4410  212.7830  148.3960 O   0  0  0  0  0  0  0  0  0  0  0  0
  160.4020  214.4340  149.6640 O   0  0  0  0  0  1  0  0  0  0  0  0
  2 12  1  0  0  0  0
  4  3  1  0  0  0  0
  5 27  2  0  0  0  0
  6 28  1  0  0  0  0
  6  5  1  0  0  0  0
  7 17  2  0  0  0  0
  9 28  2  0  0  0  0
 10  1  1  0  0  0  0
 11  3  1  0  0  0  0
 12 13  1  0  0  0  0
 12  8  2  0  0  0  0
 13 11  1  0  0  0  0
 14 22  1  0  0  0  0
 15 18  1  0  0  0  0
 15  9  1  0  0  0  0
 16 20  1  0  0  0  0
 17  8  1  0  0  0  0
 17 10  1  0  0  0  0
 18  6  2  0  0  0  0
 19  7  1  0  0  0  0
 19 16  1  0  0  0  0
 20 29  1  1  0  0  0
 20  1  1  0  0  0  0
 21  4  1  0  0  0  0
 22 21  1  0  0  0  0
 22 13  2  0  0  0  0
 23 14  2  0  0  0  0
 24  2  2  0  0  0  0
 24  7  1  0  0  0  0
 25  5  1  0  0  0  0
 26  9  1  0  0  0  0
 27 14  1  0  0  0  0
 27  2  1  0  0  0  0
 28 23  1  0  0  0  0
 30 32  1  0  0  0  0
 30 29  1  0  0  0  0
 31 30  2  0  0  0  0
M  END
>  <MODEL>
5

>  <REMARK>
 VINA RESULT:      -6.9      1.750      2.773
  Name = 
  2 active torsions:
  status: ('A' for Active; 'I' for Inactive)
    1  A    between atoms: C_1  and  C_10
    2  A    between atoms: C_10  and  C_24
                            x       y       z     vdW  Elec       q    Type
                         _______ _______ _______ _____ _____    ______ ____

>  <TORSDO>
F 2

$$$$
=
 OpenBabel11062410363D

 32 37  0  0  1  0  0  0  0  0999 V2000
  160.9130  203.3980  146.5930 C   0  0  0  0  0  2  0  0  0  0  0  0
  161.4710  206.1860  150.8250 C   0  0  0  0  0  0  0  0  0  0  0  0
  161.8300  210.4380  148.2610 C   0  0  0  0  0  2  0  0  0  0  0  0
  162.3300  211.1100  149.5240 C   0  0  0  0  0  2  0  0  0  0  0  0
  160.9380  206.2960  153.2930 C   0  0  0  0  0  0  0  0  0  0  0  0
  160.7280  207.1230  154.3960 C   0  0  0  0  0  0  0  0  0  0  0  0
  161.6430  204.0510  149.6230 C   0  0  0  0  0  0  0  0  0  0  0  0
  161.9960  206.1350  148.4430 C   0  0  0  0  0  3  0  0  0  0  0  0
  160.5380  208.9250  155.5810 C   0  0  0  0  0  0  0  0  0  0  0  0
  162.1930  204.0380  147.1390 C   0  0  0  0  0  2  0  0  0  0  0  0
  162.2240  208.9700  148.2960 C   0  0  0  0  0  2  0  0  0  0  0  0
  161.7620  206.8710  149.6170 C   0  0  0  0  0  0  0  0  0  0  0  0
  161.8200  208.2750  149.5810 C   0  0  0  0  0  0  0  0  0  0  0  0
  161.3120  208.3570  151.9700 C   0  0  0  0  0  0  0  0  0  0  0  0
  160.3280  207.8700  156.3430 O   0  0  0  0  0  0  0  0  0  0  0  0
  161.2060  201.7540  148.4800 C   0  0  0  0  0  2  0  0  0  0  0  0
  161.9480  204.7430  148.4350 C   0  0  0  0  0  0  0  0  0  0  0  0
  160.4350  206.7590  155.6610 N   0  0  0  0  0  0  0  0  0  0  0  0
  161.5770  202.5440  149.7420 C   0  0  0  0  0  2  0  0  0  0  0  0
  160.1990  202.4950  147.6030 C   0  0  2  0  0  3  0  0  0  0  0  0
  161.5820  210.5340  150.7170 C   0  0  0  0  0  2  0  0  0  0  0  0
  161.6070  209.0180  150.7610 C   0  0  0  0  0  0  0  0  0  0  0  0
  161.0860  209.1300  153.1300 C   0  0  0  0  0  3  0  0  0  0  0  0
  161.4210  204.7820  150.7910 C   0  0  0  0  0  3  0  0  0  0  0  0
  160.8310  204.8200  153.5140 C   0  0  0  0  0  1  0  0  0  0  0  0
  160.4910  210.3380  156.0440 C   0  0  0  0  0  1  0  0  0  0  0  0
  161.2410  206.9180  152.0280 C   0  0  0  0  0  0  0  0  0  0  0  0
  160.8000  208.4750  154.3120 C   0  0  0  0  0  0  0  0  0  0  0  0
  159.3170  201.5110  146.8540 C   0  0  0  0  0  2  0  0  0  0  0  0
  159.9820  201.0530  145.6010 C   0  0  0  0  0  0  0  0  0  0  0  0
  160.8800  199.9950  145.6370 O   0  0  0  0  0  1  0  0  0  0  0  0
  159.7060  201.6050  144.5040 O   0  0  0  0  0  0  0  0  0  0  0  0
  1 10  1  0  0  0  0
  1 20  1  0  0  0  0
  2 27  1  0  0  0  0
  3 11  1  0  0  0  0
  3  4  1  0  0  0  0
  4 21  1  0  0  0  0
  5 25  1  0  0  0  0
  5  6  1  0  0  0  0
  6 18  2  0  0  0  0
  7 19  1  0  0  0  0
  7 24  2  0  0  0  0
  8 12  1  0  0  0  0
  9 26  1  0  0  0  0
  9 15  1  0  0  0  0
 10 17  1  0  0  0  0
 11 13  1  0  0  0  0
 12  2  2  0  0  0  0
 13 12  1  0  0  0  0
 13 22  2  0  0  0  0
 14 27  1  0  0  0  0
 14 23  2  0  0  0  0
 16 19  1  0  0  0  0
 17  8  2  0  0  0  0
 17  7  1  0  0  0  0
 18 15  1  0  0  0  0
 20 29  1  6  0  0  0
 20 16  1  0  0  0  0
 21 22  1  0  0  0  0
 22 14  1  0  0  0  0
 23 28  1  0  0  0  0
 24  2  1  0  0  0  0
 27  5  2  0  0  0  0
 28  6  1  0  0  0  0
 28  9  2  0  0  0  0
 30 31  1  0  0  0  0
 30 29  1  0  0  0  0
 32 30  2  0  0  0  0
M  END
>  <MODEL>
6

>  <REMARK>
 VINA RESULT:      -6.9      3.661      8.059
  Name = 
  2 active torsions:
  status: ('A' for Active; 'I' for Inactive)
    1  A    between atoms: C_1  and  C_10
    2  A    between atoms: C_10  and  C_24
                            x       y       z     vdW  Elec       q    Type
                         _______ _______ _______ _____ _____    ______ ____

>  <TORSDO>
F 2

$$$$
=
 OpenBabel11062410363D

 32 37  0  0  1  0  0  0  0  0999 V2000
  161.8260  206.2700  148.9510 C   0  0  0  0  0  2  0  0  0  0  0  0
  160.8270  209.8570  152.4340 C   0  0  0  0  0  0  0  0  0  0  0  0
  160.4090  213.4240  148.9860 C   0  0  0  0  0  2  0  0  0  0  0  0
  160.4700  214.4510  150.0990 C   0  0  0  0  0  2  0  0  0  0  0  0
  159.8630  210.2710  154.7340 C   0  0  0  0  0  0  0  0  0  0  0  0
  159.2390  211.1870  155.5800 C   0  0  0  0  0  0  0  0  0  0  0  0
  161.8020  207.6940  151.8000 C   0  0  0  0  0  0  0  0  0  0  0  0
  161.7510  209.5140  150.2030 C   0  0  0  0  0  3  0  0  0  0  0  0
  158.3430  213.0310  156.2740 C   0  0  0  0  0  0  0  0  0  0  0  0
  162.7580  207.3730  149.4640 C   0  0  0  0  0  2  0  0  0  0  0  0
  161.1900  212.1900  149.4110 C   0  0  0  0  0  2  0  0  0  0  0  0
  161.1180  210.3510  151.1360 C   0  0  0  0  0  0  0  0  0  0  0  0
  160.7820  211.6670  150.7740 C   0  0  0  0  0  0  0  0  0  0  0  0
  159.8630  212.0470  153.0060 C   0  0  0  0  0  0  0  0  0  0  0  0
  158.3110  212.1330  157.2390 O   0  0  0  0  0  0  0  0  0  0  0  0
  162.2400  205.2010  151.1950 C   0  0  0  0  0  2  0  0  0  0  0  0
  162.1010  208.2030  150.5200 C   0  0  0  0  0  0  0  0  0  0  0  0
  158.8440  211.0020  156.8560 N   0  0  0  0  0  0  0  0  0  0  0  0
  162.1460  206.2960  152.2660 C   0  0  0  0  0  2  0  0  0  0  0  0
  161.2330  205.4020  150.0650 C   0  0  2  0  0  3  0  0  0  0  0  0
  159.7200  213.9110  151.3080 C   0  0  0  0  0  2  0  0  0  0  0  0
  160.1650  212.5190  151.7140 C   0  0  0  0  0  0  0  0  0  0  0  0
  159.2290  212.9190  153.9180 C   0  0  0  0  0  3  0  0  0  0  0  0
  161.1830  208.5300  152.7290 C   0  0  0  0  0  3  0  0  0  0  0  0
  160.1410  208.9080  155.2860 C   0  0  0  0  0  1  0  0  0  0  0  0
  157.8180  214.4200  156.3810 C   0  0  0  0  0  1  0  0  0  0  0  0
  160.1930  210.6980  153.3960 C   0  0  0  0  0  0  0  0  0  0  0  0
  158.9380  212.4500  155.1840 C   0  0  0  0  0  0  0  0  0  0  0  0
  160.8100  204.0650  149.4810 C   0  0  0  0  0  2  0  0  0  0  0  0
  160.8510  202.9980  150.5210 C   0  0  0  0  0  0  0  0  0  0  0  0
  160.4500  203.2780  151.8210 O   0  0  0  0  0  1  0  0  0  0  0  0
  161.2180  201.8340  150.2140 O   0  0  0  0  0  0  0  0  0  0  0  0
  1 10  1  0  0  0  0
  1 20  1  0  0  0  0
  2 24  1  0  0  0  0
  2 27  1  0  0  0  0
  3 11  1  0  0  0  0
  3  4  1  0  0  0  0
  4 21  1  0  0  0  0
  5 25  1  0  0  0  0
  5  6  1  0  0  0  0
  6 18  2  0  0  0  0
  7 19  1  0  0  0  0
  7 24  2  0  0  0  0
  8 17  2  0  0  0  0
  8 12  1  0  0  0  0
  9 26  1  0  0  0  0
  9 15  1  0  0  0  0
 10 17  1  0  0  0  0
 11 13  1  0  0  0  0
 12  2  2  0  0  0  0
 13 12  1  0  0  0  0
 13 22  2  0  0  0  0
 14 27  1  0  0  0  0
 14 23  2  0  0  0  0
 16 19  1  0  0  0  0
 17  7  1  0  0  0  0
 18 15  1  0  0  0  0
 20 29  1  6  0  0  0
 20 16  1  0  0  0  0
 21 22  1  0  0  0  0
 22 14  1  0  0  0  0
 23 28  1  0  0  0  0
 27  5  2  0  0  0  0
 28  6  1  0  0  0  0
 28  9  2  0  0  0  0
 29 30  1  0  0  0  0
 30 31  1  0  0  0  0
 32 30  2  0  0  0  0
M  END
>  <MODEL>
7

>  <REMARK>
 VINA RESULT:      -6.7      3.968      8.809
  Name = 
  2 active torsions:
  status: ('A' for Active; 'I' for Inactive)
    1  A    between atoms: C_1  and  C_10
    2  A    between atoms: C_10  and  C_24
                            x       y       z     vdW  Elec       q    Type
                         _______ _______ _______ _____ _____    ______ ____

>  <TORSDO>
F 2

$$$$
=
 OpenBabel11062410363D

 32 37  0  0  1  0  0  0  0  0999 V2000
  161.8260  206.2720  149.0360 C   0  0  0  0  0  2  0  0  0  0  0  0
  160.7690  209.8640  152.4970 C   0  0  0  0  0  0  0  0  0  0  0  0
  160.4010  213.4240  149.0370 C   0  0  0  0  0  2  0  0  0  0  0  0
  160.4450  214.4530  150.1490 C   0  0  0  0  0  2  0  0  0  0  0  0
  159.7690  210.2800  154.7810 C   0  0  0  0  0  0  0  0  0  0  0  0
  159.1310  211.1970  155.6150 C   0  0  0  0  0  0  0  0  0  0  0  0
  161.7560  207.7010  151.8810 C   0  0  0  0  0  0  0  0  0  0  0  0
  161.7280  209.5170  150.2810 C   0  0  0  0  0  3  0  0  0  0  0  0
  158.2230  213.0420  156.2930 C   0  0  0  0  0  0  0  0  0  0  0  0
  162.7480  207.3770  149.5610 C   0  0  0  0  0  2  0  0  0  0  0  0
  161.1770  212.1920  149.4760 C   0  0  0  0  0  2  0  0  0  0  0  0
  161.0800  210.3550  151.2030 C   0  0  0  0  0  0  0  0  0  0  0  0
  160.7480  211.6710  150.8330 C   0  0  0  0  0  0  0  0  0  0  0  0
  159.7940  212.0530  153.0500 C   0  0  0  0  0  0  0  0  0  0  0  0
  158.1760  212.1450  157.2580 O   0  0  0  0  0  0  0  0  0  0  0  0
  162.2050  205.2070  151.2880 C   0  0  0  0  0  2  0  0  0  0  0  0
  162.0750  208.2080  150.6060 C   0  0  0  0  0  0  0  0  0  0  0  0
  158.7170  211.0140  156.8860 N   0  0  0  0  0  0  0  0  0  0  0  0
  162.0940  206.3040  152.3550 C   0  0  0  0  0  2  0  0  0  0  0  0
  161.2160  205.4050  150.1420 C   0  0  2  0  0  3  0  0  0  0  0  0
  159.6760  213.9150  151.3470 C   0  0  0  0  0  2  0  0  0  0  0  0
  160.1160  212.5240  151.7620 C   0  0  0  0  0  0  0  0  0  0  0  0
  159.1460  212.9270  153.9510 C   0  0  0  0  0  3  0  0  0  0  0  0
  161.1210  208.5380  152.8000 C   0  0  0  0  0  3  0  0  0  0  0  0
  160.0400  208.9190  155.3400 C   0  0  0  0  0  1  0  0  0  0  0  0
  157.6950  214.4300  156.3890 C   0  0  0  0  0  1  0  0  0  0  0  0
  160.1190  210.7060  153.4480 C   0  0  0  0  0  0  0  0  0  0  0  0
  158.8360  212.4590  155.2130 C   0  0  0  0  0  0  0  0  0  0  0  0
  160.8030  204.0670  149.5540 C   0  0  0  0  0  2  0  0  0  0  0  0
  161.1930  203.9780  148.1180 C   0  0  0  0  0  0  0  0  0  0  0  0
  160.8250  204.9840  147.2340 O   0  0  0  0  0  0  0  0  0  0  0  0
  161.8830  203.0070  147.7120 O   0  0  0  0  0  1  0  0  0  0  0  0
  1 10  1  0  0  0  0
  1 20  1  0  0  0  0
  2 24  1  0  0  0  0
  2 27  1  0  0  0  0
  3 11  1  0  0  0  0
  3  4  1  0  0  0  0
  4 21  1  0  0  0  0
  5 25  1  0  0  0  0
  5  6  1  0  0  0  0
  6 18  2  0  0  0  0
  7 19  1  0  0  0  0
  7 24  2  0  0  0  0
  8 17  2  0  0  0  0
  8 12  1  0  0  0  0
  9 26  1  0  0  0  0
  9 15  1  0  0  0  0
 10 17  1  0  0  0  0
 11 13  1  0  0  0  0
 12  2  2  0  0  0  0
 13 12  1  0  0  0  0
 13 22  2  0  0  0  0
 14 27  1  0  0  0  0
 14 23  2  0  0  0  0
 16 19  1  0  0  0  0
 17  7  1  0  0  0  0
 18 15  1  0  0  0  0
 20 29  1  6  0  0  0
 20 16  1  0  0  0  0
 21 22  1  0  0  0  0
 22 14  1  0  0  0  0
 23 28  1  0  0  0  0
 27  5  2  0  0  0  0
 28  6  1  0  0  0  0
 28  9  2  0  0  0  0
 30 29  1  0  0  0  0
 31 30  2  0  0  0  0
 32 30  1  0  0  0  0
M  END
>  <MODEL>
8

>  <REMARK>
 VINA RESULT:      -6.3      3.885      8.636
  Name = 
  2 active torsions:
  status: ('A' for Active; 'I' for Inactive)
    1  A    between atoms: C_1  and  C_10
    2  A    between atoms: C_10  and  C_24
                            x       y       z     vdW  Elec       q    Type
                         _______ _______ _______ _____ _____    ______ ____

>  <TORSDO>
F 2

$$$$
