=
 OpenBabel11062410143D

 43 48  0  0  1  0  0  0  0  0999 V2000
  161.2600  202.4010  147.0040 C   0  0  2  0  0  3  0  0  0  0  0  0
  161.6090  205.4790  151.1580 C   0  0  0  0  0  0  0  0  0  0  0  0
  162.2240  208.1250  150.1680 C   0  0  2  0  0  3  0  0  0  0  0  0
  161.1240  203.3400  149.3390 C   0  0  0  0  0  0  0  0  0  0  0  0
  160.9100  203.7980  146.5230 C   0  0  0  0  0  2  0  0  0  0  0  0
  160.6300  201.3740  146.0890 C   0  0  0  0  0  1  0  0  0  0  0  0
  161.4370  204.5680  148.8720 C   0  0  0  0  0  0  0  0  0  0  0  0
  160.7340  202.2110  148.4230 C   0  0  0  0  0  2  0  0  0  0  0  0
  161.6300  204.8220  147.3960 C   0  0  0  0  0  2  0  0  0  0  0  0
  161.8480  207.0090  149.3070 N   0  0  0  0  0  2  0  0  0  0  0  0
  161.6550  205.6840  149.8230 C   0  0  0  0  0  0  0  0  0  0  0  0
  161.5860  204.0750  151.7050 C   0  0  0  0  0  2  0  0  0  0  0  0
  161.8170  206.6290  152.1240 C   0  0  1  0  0  3  0  0  0  0  0  0
  161.5200  208.0010  151.5100 C   0  0  0  0  0  2  0  0  0  0  0  0
  161.0000  203.1390  150.7490 N   0  0  0  0  0  2  0  0  0  0  0  0
  161.0680  206.4420  153.3700 N   0  0  0  0  0  0  0  0  0  0  0  0
  160.5210  209.7390  154.9760 C   0  0  0  0  0  2  0  0  0  0  0  0
  160.4550  209.2300  156.4150 C   0  0  2  0  0  3  0  0  0  0  0  0
  160.0700  206.9740  155.4740 C   0  0  0  0  0  3  0  0  0  0  0  0
  161.3420  208.7680  154.1270 C   0  0  0  0  0  2  0  0  0  0  0  0
  160.8270  207.3540  154.2670 C   0  0  0  0  0  0  0  0  0  0  0  0
  159.8650  207.8480  156.4610 C   0  0  0  0  0  3  0  0  0  0  0  0
  159.6950  210.1020  157.1950 O   0  0  0  0  0  0  0  0  0  0  0  0
  158.9520  210.8440  156.2770 C   0  0  0  0  0  1  0  0  0  0  0  0
  161.8790  209.4190  149.5100 C   0  0  0  0  0  0  0  0  0  0  0  0
  161.3690  212.1750  148.4580 N   0  0  0  0  0  2  0  0  0  0  0  0
  161.4950  210.5330  150.3230 N   0  0  0  0  0  2  0  0  0  0  0  0
  161.9160  209.5140  148.2530 O   0  0  0  0  0  0  0  0  0  0  0  0
  161.2200  211.8530  149.8430 C   0  0  0  0  0  0  0  0  0  0  0  0
  160.8580  212.7390  150.6600 O   0  0  0  0  0  0  0  0  0  0  0  0
  161.1390  213.5200  147.9450 C   0  0  1  0  0  3  0  0  0  0  0  0
  163.5250  213.1180  147.5280 C   0  0  0  0  0  2  0  0  0  0  0  0
  162.3920  214.0270  147.2530 C   0  0  2  0  0  3  0  0  0  0  0  0
  163.3630  214.3290  148.2240 O   0  0  0  0  0  0  0  0  0  0  0  0
  159.9370  213.5560  146.9940 C   0  0  2  0  0  3  0  0  0  0  0  0
  158.6560  213.8490  147.7170 C   0  0  0  0  0  0  0  0  0  0  0  0
  156.2500  214.1490  147.6390 C   0  0  0  0  0  3  0  0  0  0  0  0
  157.4360  214.4530  149.7280 C   0  0  0  0  0  3  0  0  0  0  0  0
  156.2390  214.4480  149.0040 C   0  0  0  0  0  3  0  0  0  0  0  0
  158.6410  214.1570  149.0870 C   0  0  0  0  0  3  0  0  0  0  0  0
  157.4560  213.8520  146.9970 C   0  0  0  0  0  3  0  0  0  0  0  0
  159.8080  212.0680  145.9400 S   0  0  0  0  0  0  0  0  0  0  0  0
  160.3740  212.9730  144.4720 C   0  0  0  0  0  1  0  0  0  0  0  0
  1  6  1  6  0  0  0
  1  8  1  0  0  0  0
  2 12  1  0  0  0  0
  2 13  1  0  0  0  0
  3 25  1  6  0  0  0
  3 14  1  0  0  0  0
  4 15  1  0  0  0  0
  5  1  1  0  0  0  0
  5  9  1  0  0  0  0
  7  4  2  0  0  0  0
  7 11  1  0  0  0  0
  8  4  1  0  0  0  0
  9  7  1  0  0  0  0
 10 11  1  0  0  0  0
 10  3  1  0  0  0  0
 11  2  2  0  0  0  0
 13 16  1  1  0  0  0
 14 13  1  0  0  0  0
 15 12  1  0  0  0  0
 16 21  2  0  0  0  0
 17 18  1  0  0  0  0
 18 22  1  0  0  0  0
 18 23  1  1  0  0  0
 19 22  2  0  0  0  0
 20 21  1  0  0  0  0
 20 17  1  0  0  0  0
 21 19  1  0  0  0  0
 24 23  1  0  0  0  0
 25 27  1  0  0  0  0
 26 29  1  0  0  0  0
 28 25  2  0  0  0  0
 29 27  1  0  0  0  0
 29 30  2  0  0  0  0
 31 26  1  6  0  0  0
 32 34  1  0  0  0  0
 33 32  1  0  0  0  0
 33 31  1  1  0  0  0
 33 34  1  0  0  0  0
 35 42  1  1  0  0  0
 35 36  1  0  0  0  0
 35 31  1  0  0  0  0
 36 40  1  0  0  0  0
 37 39  2  0  0  0  0
 39 38  1  0  0  0  0
 40 38  2  0  0  0  0
 41 37  1  0  0  0  0
 41 36  2  0  0  0  0
 43 42  1  0  0  0  0
M  END
>  <MODEL>
1

>  <REMARK>
 VINA RESULT:      -8.4      0.000      0.000
  Name = 
  8 active torsions:
  status: ('A' for Active; 'I' for Inactive)
    1  A    between atoms: N_1  and  C_34
    2  A    between atoms: C_2  and  C_13
    3  A    between atoms: N_3  and  C_4
    4  A    between atoms: C_4  and  C_15
    5  A    between atoms: C_4  and  C_22
    6  A    between atoms: C_11  and  C_22
    7  A    between atoms: S_14  and  C_22
    8  A    between atoms: C_19  and  O_25
                            x       y       z     vdW  Elec       q    Type
                         _______ _______ _______ _____ _____    ______ ____

>  <TORSDO>
F 8

$$$$
=
 OpenBabel11062410143D

 43 48  0  0  1  0  0  0  0  0999 V2000
  161.7730  203.4950  147.2470 C   0  0  2  0  0  3  0  0  0  0  0  0
  161.8150  207.3260  150.7360 C   0  0  0  0  0  0  0  0  0  0  0  0
  162.2850  209.7690  149.2650 C   0  0  2  0  0  3  0  0  0  0  0  0
  161.5150  204.8510  149.3560 C   0  0  0  0  0  0  0  0  0  0  0  0
  161.3480  204.7470  146.5020 C   0  0  0  0  0  2  0  0  0  0  0  0
  161.2350  202.2720  146.5390 C   0  0  0  0  0  1  0  0  0  0  0  0
  161.7610  205.9850  148.6660 C   0  0  0  0  0  0  0  0  0  0  0  0
  161.2230  203.5440  148.6690 C   0  0  0  0  0  2  0  0  0  0  0  0
  161.9780  205.9650  147.1710 C   0  0  0  0  0  2  0  0  0  0  0  0
  162.0050  208.4870  148.6290 N   0  0  0  0  0  2  0  0  0  0  0  0
  161.8820  207.2750  149.3870 C   0  0  0  0  0  0  0  0  0  0  0  0
  161.8660  206.0540  151.5420 C   0  0  0  0  0  2  0  0  0  0  0  0
  161.9230  208.6510  151.4650 C   0  0  1  0  0  3  0  0  0  0  0  0
  161.5550  209.8570  150.5950 C   0  0  0  0  0  2  0  0  0  0  0  0
  161.3670  204.9150  150.7770 N   0  0  0  0  0  2  0  0  0  0  0  0
  161.1540  208.6550  152.7140 N   0  0  0  0  0  0  0  0  0  0  0  0
  159.9610  212.0960  153.4050 C   0  0  0  0  0  2  0  0  0  0  0  0
  159.9100  211.9680  154.9260 C   0  0  2  0  0  3  0  0  0  0  0  0
  159.9720  209.5150  154.6020 C   0  0  0  0  0  3  0  0  0  0  0  0
  160.9810  211.1070  152.8410 C   0  0  0  0  0  2  0  0  0  0  0  0
  160.7120  209.7060  153.3420 C   0  0  0  0  0  0  0  0  0  0  0  0
  159.5680  210.5600  155.3280 C   0  0  0  0  0  3  0  0  0  0  0  0
  158.9700  212.8570  155.4500 O   0  0  0  0  0  0  0  0  0  0  0  0
  157.7590  212.4720  154.8740 C   0  0  0  0  0  1  0  0  0  0  0  0
  161.8760  210.8880  148.3650 C   0  0  0  0  0  0  0  0  0  0  0  0
  161.4080  213.2110  146.5350 N   0  0  0  0  0  2  0  0  0  0  0  0
  162.5270  212.1560  148.4910 N   0  0  0  0  0  2  0  0  0  0  0  0
  160.9590  210.7100  147.5190 O   0  0  0  0  0  0  0  0  0  0  0  0
  162.3030  213.2900  147.6470 C   0  0  0  0  0  0  0  0  0  0  0  0
  162.9190  214.3630  147.8850 O   0  0  0  0  0  0  0  0  0  0  0  0
  161.1910  214.3340  145.6320 C   0  0  1  0  0  3  0  0  0  0  0  0
  163.0530  213.0970  144.6160 C   0  0  0  0  0  2  0  0  0  0  0  0
  162.0750  214.1840  144.4060 C   0  0  2  0  0  3  0  0  0  0  0  0
  163.4080  214.4490  144.7660 O   0  0  0  0  0  0  0  0  0  0  0  0
  159.7160  214.4500  145.2310 C   0  0  2  0  0  3  0  0  0  0  0  0
  158.7980  214.2930  146.4070 C   0  0  0  0  0  0  0  0  0  0  0  0
  158.5160  214.1080  148.8090 C   0  0  0  0  0  3  0  0  0  0  0  0
  156.5880  213.9470  147.3520 C   0  0  0  0  0  3  0  0  0  0  0  0
  157.1390  213.9420  148.6380 C   0  0  0  0  0  3  0  0  0  0  0  0
  157.4150  214.1190  146.2390 C   0  0  0  0  0  3  0  0  0  0  0  0
  159.3440  214.2810  147.6960 C   0  0  0  0  0  3  0  0  0  0  0  0
  159.2570  213.3470  143.8470 S   0  0  0  0  0  0  0  0  0  0  0  0
  159.1790  211.8970  144.9370 C   0  0  0  0  0  1  0  0  0  0  0  0
  1  6  1  6  0  0  0
  1  8  1  0  0  0  0
  2 13  1  0  0  0  0
  2 12  1  0  0  0  0
  3 25  1  6  0  0  0
  3 14  1  0  0  0  0
  4 15  1  0  0  0  0
  5  9  1  0  0  0  0
  5  1  1  0  0  0  0
  7  4  2  0  0  0  0
  7 11  1  0  0  0  0
  8  4  1  0  0  0  0
  9  7  1  0  0  0  0
 10  3  1  0  0  0  0
 10 11  1  0  0  0  0
 11  2  2  0  0  0  0
 13 16  1  1  0  0  0
 14 13  1  0  0  0  0
 15 12  1  0  0  0  0
 16 21  2  0  0  0  0
 17 18  1  0  0  0  0
 18 22  1  0  0  0  0
 18 23  1  6  0  0  0
 19 22  2  0  0  0  0
 20 21  1  0  0  0  0
 20 17  1  0  0  0  0
 21 19  1  0  0  0  0
 24 23  1  0  0  0  0
 25 27  1  0  0  0  0
 26 29  1  0  0  0  0
 28 25  2  0  0  0  0
 29 30  2  0  0  0  0
 29 27  1  0  0  0  0
 31 26  1  1  0  0  0
 32 34  1  0  0  0  0
 33 32  1  0  0  0  0
 33 34  1  0  0  0  0
 33 31  1  1  0  0  0
 35 42  1  6  0  0  0
 35 31  1  0  0  0  0
 35 36  1  0  0  0  0
 36 41  1  0  0  0  0
 38 39  2  0  0  0  0
 39 37  1  0  0  0  0
 40 36  2  0  0  0  0
 40 38  1  0  0  0  0
 41 37  2  0  0  0  0
 42 43  1  0  0  0  0
M  END
>  <MODEL>
2

>  <REMARK>
 VINA RESULT:      -6.4      1.677      2.314
  Name = 
  8 active torsions:
  status: ('A' for Active; 'I' for Inactive)
    1  A    between atoms: N_1  and  C_34
    2  A    between atoms: C_2  and  C_13
    3  A    between atoms: N_3  and  C_4
    4  A    between atoms: C_4  and  C_15
    5  A    between atoms: C_4  and  C_22
    6  A    between atoms: C_11  and  C_22
    7  A    between atoms: S_14  and  C_22
    8  A    between atoms: C_19  and  O_25
                            x       y       z     vdW  Elec       q    Type
                         _______ _______ _______ _____ _____    ______ ____

>  <TORSDO>
F 8

$$$$
=
 OpenBabel11062410143D

 43 48  0  0  1  0  0  0  0  0999 V2000
  158.3760  213.5110  154.4410 C   0  0  2  0  0  3  0  0  0  0  0  0
  160.5340  212.7300  149.7950 C   0  0  0  0  0  0  0  0  0  0  0  0
  161.7880  210.1270  149.9000 C   0  0  2  0  0  3  0  0  0  0  0  0
  159.0190  213.6870  152.0090 C   0  0  0  0  0  0  0  0  0  0  0  0
  158.4250  212.0050  154.2470 C   0  0  0  0  0  2  0  0  0  0  0  0
  157.2750  213.8650  155.4150 C   0  0  0  0  0  1  0  0  0  0  0  0
  159.6250  212.4820  152.0750 C   0  0  0  0  0  0  0  0  0  0  0  0
  158.1050  214.1820  153.0980 C   0  0  0  0  0  2  0  0  0  0  0  0
  159.6000  211.6560  153.3390 C   0  0  0  0  0  2  0  0  0  0  0  0
  160.9020  210.6370  150.9400 N   0  0  0  0  0  2  0  0  0  0  0  0
  160.3830  211.9750  150.9060 C   0  0  0  0  0  0  0  0  0  0  0  0
  160.1520  214.1870  149.8150 C   0  0  0  0  0  2  0  0  0  0  0  0
  161.2970  212.1970  148.5970 C   0  0  1  0  0  3  0  0  0  0  0  0
  161.3600  210.6670  148.5460 C   0  0  0  0  0  2  0  0  0  0  0  0
  159.1140  214.4530  150.8060 N   0  0  0  0  0  2  0  0  0  0  0  0
  160.7870  212.7410  147.3350 N   0  0  0  0  0  0  0  0  0  0  0  0
  163.5970  213.1490  144.9520 C   0  0  0  0  0  2  0  0  0  0  0  0
  162.9960  214.3080  144.1600 C   0  0  2  0  0  3  0  0  0  0  0  0
  160.8110  213.6910  145.1440 C   0  0  0  0  0  3  0  0  0  0  0  0
  163.0140  213.1370  146.3650 C   0  0  0  0  0  2  0  0  0  0  0  0
  161.5030  213.1520  146.3290 C   0  0  0  0  0  0  0  0  0  0  0  0
  161.4970  214.2000  144.1180 C   0  0  0  0  0  3  0  0  0  0  0  0
  163.5110  214.3190  142.8630 O   0  0  0  0  0  0  0  0  0  0  0  0
  162.6580  213.4890  142.1350 C   0  0  0  0  0  1  0  0  0  0  0  0
  161.7720  208.6340  149.9010 C   0  0  0  0  0  0  0  0  0  0  0  0
  161.7000  205.6630  150.2610 N   0  0  0  0  0  2  0  0  0  0  0  0
  162.4700  207.9310  150.9350 N   0  0  0  0  0  2  0  0  0  0  0  0
  161.1620  208.0120  148.9910 O   0  0  0  0  0  0  0  0  0  0  0  0
  162.4730  206.5110  151.1140 C   0  0  0  0  0  0  0  0  0  0  0  0
  163.1560  206.0130  152.0470 O   0  0  0  0  0  0  0  0  0  0  0  0
  161.6490  204.2180  150.4450 C   0  0  1  0  0  3  0  0  0  0  0  0
  160.7980  203.9640  152.7340 C   0  0  0  0  0  2  0  0  0  0  0  0
  160.4500  203.8520  151.3020 C   0  0  2  0  0  3  0  0  0  0  0  0
  160.7660  202.7220  152.0760 O   0  0  0  0  0  0  0  0  0  0  0  0
  161.6020  203.4860  149.0990 C   0  0  2  0  0  3  0  0  0  0  0  0
  161.6760  204.4340  147.9390 C   0  0  0  0  0  0  0  0  0  0  0  0
  160.6560  206.2140  146.6440 C   0  0  0  0  0  3  0  0  0  0  0  0
  162.7830  205.2850  145.9520 C   0  0  0  0  0  3  0  0  0  0  0  0
  161.7340  206.1890  145.7540 C   0  0  0  0  0  3  0  0  0  0  0  0
  162.7540  204.4080  147.0390 C   0  0  0  0  0  3  0  0  0  0  0  0
  160.6270  205.3380  147.7330 C   0  0  0  0  0  3  0  0  0  0  0  0
  160.1900  202.3330  148.9560 S   0  0  0  0  0  0  0  0  0  0  0  0
  161.1740  201.1340  148.0130 C   0  0  0  0  0  1  0  0  0  0  0  0
  1  6  1  1  0  0  0
  2 12  1  0  0  0  0
  2 11  2  0  0  0  0
  3 25  1  6  0  0  0
  3 10  1  0  0  0  0
  4  7  2  0  0  0  0
  4  8  1  0  0  0  0
  5  1  1  0  0  0  0
  7  9  1  0  0  0  0
  8  1  1  0  0  0  0
  9  5  1  0  0  0  0
 11 10  1  0  0  0  0
 11  7  1  0  0  0  0
 12 15  1  0  0  0  0
 13 16  1  6  0  0  0
 13  2  1  0  0  0  0
 14 13  1  0  0  0  0
 14  3  1  0  0  0  0
 15  4  1  0  0  0  0
 17 20  1  0  0  0  0
 18 23  1  6  0  0  0
 18 17  1  0  0  0  0
 19 21  1  0  0  0  0
 21 20  1  0  0  0  0
 21 16  2  0  0  0  0
 22 18  1  0  0  0  0
 22 19  2  0  0  0  0
 24 23  1  0  0  0  0
 25 27  1  0  0  0  0
 26 29  1  0  0  0  0
 27 29  1  0  0  0  0
 28 25  2  0  0  0  0
 29 30  2  0  0  0  0
 31 26  1  6  0  0  0
 33 31  1  6  0  0  0
 33 34  1  0  0  0  0
 33 32  1  0  0  0  0
 34 32  1  0  0  0  0
 35 42  1  6  0  0  0
 35 31  1  0  0  0  0
 36 35  1  0  0  0  0
 37 41  2  0  0  0  0
 38 40  1  0  0  0  0
 39 38  2  0  0  0  0
 39 37  1  0  0  0  0
 40 36  2  0  0  0  0
 41 36  1  0  0  0  0
 43 42  1  0  0  0  0
M  END
>  <MODEL>
3

>  <REMARK>
 VINA RESULT:      -6.3      3.193     10.146
  Name = 
  8 active torsions:
  status: ('A' for Active; 'I' for Inactive)
    1  A    between atoms: N_1  and  C_34
    2  A    between atoms: C_2  and  C_13
    3  A    between atoms: N_3  and  C_4
    4  A    between atoms: C_4  and  C_15
    5  A    between atoms: C_4  and  C_22
    6  A    between atoms: C_11  and  C_22
    7  A    between atoms: S_14  and  C_22
    8  A    between atoms: C_19  and  O_25
                            x       y       z     vdW  Elec       q    Type
                         _______ _______ _______ _____ _____    ______ ____

>  <TORSDO>
F 8

$$$$
