=
 OpenBabel11062408543D

 55 62  0  0  1  0  0  0  0  0999 V2000
  162.1580  209.4020  149.2280 C   0  0  0  0  0  3  0  0  0  0  0  0
  161.3580  211.8110  148.0460 C   0  0  0  0  0  0  0  0  0  0  0  0
  161.9740  211.8140  149.3020 C   0  0  0  0  0  3  0  0  0  0  0  0
  161.5400  209.3960  147.9780 C   0  0  0  0  0  3  0  0  0  0  0  0
  162.3870  210.6100  149.8950 C   0  0  0  0  0  0  0  0  0  0  0  0
  161.1420  210.5990  147.3870 C   0  0  0  0  0  3  0  0  0  0  0  0
  162.9700  210.5680  151.2720 C   0  0  0  0  0  2  0  0  0  0  0  0
  162.0180  211.1050  152.3280 C   0  0  0  0  0  2  0  0  0  0  0  0
  158.4400  211.6810  154.9710 C   0  0  0  0  0  2  0  0  0  0  0  0
  157.7750  211.3160  157.2600 O   0  0  0  0  0  0  0  0  0  0  0  0
  160.5850  210.5090  155.3320 C   0  0  2  0  0  3  0  0  0  0  0  0
  159.8340  210.5440  156.5310 O   0  0  0  0  0  0  0  0  0  0  0  0
  158.6300  211.1880  156.3460 C   0  0  0  0  0  0  0  0  0  0  0  0
  159.8010  211.3970  154.3200 C   0  0  1  0  0  3  0  0  0  0  0  0
  161.3430  208.9940  153.4740 C   0  0  2  0  0  3  0  0  0  0  0  0
  160.6850  209.0620  154.8510 C   0  0  0  0  0  2  0  0  0  0  0  0
  159.6310  210.7380  153.0050 N   0  0  0  0  0  0  0  0  0  0  0  0
  160.8790  210.1090  152.5250 C   0  0  1  0  0  3  0  0  0  0  0  0
  161.2160  206.5040  153.6610 C   0  0  0  0  0  3  0  0  0  0  0  0
  160.8810  205.0860  151.7150 C   0  0  0  0  0  0  0  0  0  0  0  0
  160.9710  207.5040  151.4660 C   0  0  0  0  0  3  0  0  0  0  0  0
  160.8280  206.2310  150.9040 C   0  0  0  0  0  3  0  0  0  0  0  0
  161.0740  205.2310  153.0970 C   0  0  0  0  0  3  0  0  0  0  0  0
  161.1630  207.6460  152.8490 C   0  0  0  0  0  0  0  0  0  0  0  0
  160.7320  203.7440  151.1280 C   0  0  0  0  0  0  0  0  0  0  0  0
  160.3530  203.6080  149.9320 O   0  0  0  0  0  0  0  0  0  0  0  0
  161.0150  202.6090  151.8870 O   0  0  0  0  0  1  0  0  0  0  0  0
  159.0460  211.5910  151.9480 C   0  0  1  0  0  3  0  0  0  0  0  0
  157.5270  211.5690  152.0010 C   0  0  0  0  0  1  0  0  0  0  0  0
  160.3580  213.2850  150.9420 O   0  0  0  0  0  0  0  0  0  0  0  0
  159.2700  214.0390  152.8770 C   0  0  0  0  0  1  0  0  0  0  0  0
  159.6020  212.9960  151.8580 C   0  0  0  0  0  0  0  0  0  0  0  0
  160.9720  213.0930  147.3790 C   0  0  0  0  0  2  0  0  0  0  0  0
  162.1080  214.1090  147.3780 C   0  0  0  0  0  2  0  0  0  0  0  0
  162.7330  214.1610  145.9950 C   0  0  0  0  0  2  0  0  0  0  0  0
  161.7120  213.7840  144.9240 C   0  0  0  0  0  2  0  0  0  0  0  0
  162.3700  213.0280  143.7750 C   0  0  0  0  0  2  0  0  0  0  0  0
  160.3180  211.4090  142.6340 O   0  0  0  0  0  0  0  0  0  0  0  0
  160.7020  212.4160  141.9810 C   0  0  0  0  0  0  0  0  0  0  0  0
  161.6670  213.3080  142.5340 N   0  0  0  0  0  2  0  0  0  0  0  0
  162.4520  211.3770  139.4920 S   0  0  0  0  0  0  0  0  0  0  0  0
  160.1030  210.6280  138.3110 C   0  0  2  0  0  3  0  0  0  0  0  0
  161.2130  212.6890  139.4330 C   0  0  1  0  0  0  0  0  0  0  0  0
  159.3900  213.8110  140.5730 O   0  0  0  0  0  0  0  0  0  0  0  0
  159.1950  210.8380  137.0980 C   0  0  0  0  0  2  0  0  0  0  0  0
  162.1670  210.0690  140.1790 O   0  0  0  0  0  0  0  0  0  0  0  0
  158.3390  212.4470  138.9150 C   0  0  0  0  0  2  0  0  0  0  0  0
  163.7800  211.4840  138.7920 O   0  0  0  0  0  0  0  0  0  0  0  0
  158.6400  211.0190  138.4850 C   0  0  2  0  0  0  0  0  0  0  0  0
  160.1910  212.6450  140.5930 C   0  0  2  0  0  0  0  0  0  0  0  0
  161.8530  214.0310  139.1190 C   0  0  0  0  0  1  0  0  0  0  0  0
  158.7110  212.5970  140.3830 C   0  0  1  0  0  3  0  0  0  0  0  0
  161.1410  211.7590  138.2880 C   0  0  1  0  0  3  0  0  0  0  0  0
  156.3760  210.2770  138.7420 O   0  0  0  0  0  1  0  0  0  0  0  0
  157.7120  209.8960  138.9260 C   0  0  0  0  0  2  0  0  0  0  0  0
  1  5  1  0  0  0  0
  2  3  1  0  0  0  0
  3  5  2  0  0  0  0
  4  1  2  0  0  0  0
  5  7  1  0  0  0  0
  6  4  1  0  0  0  0
  6  2  2  0  0  0  0
  7  8  1  0  0  0  0
  9 13  1  0  0  0  0
 11 16  1  6  0  0  0
 11 12  1  0  0  0  0
 13 12  1  0  0  0  0
 13 10  2  0  0  0  0
 14  9  1  1  0  0  0
 14 11  1  0  0  0  0
 15 24  1  6  0  0  0
 15 16  1  0  0  0  0
 17 14  1  0  0  0  0
 18  8  1  1  0  0  0
 18 17  1  0  0  0  0
 18 15  1  0  0  0  0
 20 23  2  0  0  0  0
 21 24  1  0  0  0  0
 22 21  2  0  0  0  0
 22 20  1  0  0  0  0
 23 19  1  0  0  0  0
 24 19  2  0  0  0  0
 25 20  1  0  0  0  0
 25 27  1  0  0  0  0
 26 25  2  0  0  0  0
 28 29  1  1  0  0  0
 28 17  1  0  0  0  0
 30 32  2  0  0  0  0
 32 28  1  0  0  0  0
 32 31  1  0  0  0  0
 33  2  1  0  0  0  0
 34 33  1  0  0  0  0
 35 34  1  0  0  0  0
 36 35  1  0  0  0  0
 37 36  1  0  0  0  0
 39 40  1  0  0  0  0
 39 38  2  0  0  0  0
 40 37  1  0  0  0  0
 41 46  2  0  0  0  0
 42 45  1  6  0  0  0
 42 49  1  0  0  0  0
 43 51  1  6  0  0  0
 43 41  1  0  0  0  0
 43 50  1  0  0  0  0
 44 50  1  0  0  0  0
 45 49  1  0  0  0  0
 48 41  2  0  0  0  0
 49 47  1  0  0  0  0
 49 55  1  1  0  0  0
 50 39  1  1  0  0  0
 52 47  1  6  0  0  0
 52 44  1  0  0  0  0
 52 50  1  0  0  0  0
 53 42  1  0  0  0  0
 53 43  1  0  0  0  0
 53 41  1  1  0  0  0
 54 55  1  0  0  0  0
M  END
>  <MODEL>
1

>  <REMARK>
 VINA RESULT:      -3.4      0.000      0.000
  Name = 
  15 active torsions:
  status: ('A' for Active; 'I' for Inactive)
    1  A    between atoms: C_2  and  C_28
    2  A    between atoms: C_2  and  C_44
    3  A    between atoms: C_8  and  N_22
    4  A    between atoms: C_8  and  C_35
    5  A    between atoms: C_10  and  C_32
    6  A    between atoms: C_19  and  C_40
    7  A    between atoms: C_19  and  N_45
    8  A    between atoms: C_20  and  C_42
    9  A    between atoms: C_25  and  C_38
   10  A    between atoms: C_27  and  C_54
   11  A    between atoms: C_28  and  C_49
   12  A    between atoms: C_33  and  C_52
   13  A    between atoms: C_35  and  C_43
   14  A    between atoms: C_43  and  C_51
   15  A    between atoms: C_51  and  C_54
                            x       y       z     vdW  Elec       q    Type
                         _______ _______ _______ _____ _____    ______ ____

>  <TORSDO>
F 15

$$$$
=
 OpenBabel11062408543D

 55 62  0  0  1  0  0  0  0  0999 V2000
  159.5210  213.7340  144.1870 C   0  0  0  0  0  3  0  0  0  0  0  0
  160.4470  212.4290  146.4850 C   0  0  0  0  0  0  0  0  0  0  0  0
  160.2380  211.7110  145.3030 C   0  0  0  0  0  3  0  0  0  0  0  0
  159.7240  214.4520  145.3650 C   0  0  0  0  0  3  0  0  0  0  0  0
  159.7840  212.3620  144.1440 C   0  0  0  0  0  0  0  0  0  0  0  0
  160.1880  213.8010  146.5120 C   0  0  0  0  0  3  0  0  0  0  0  0
  159.4680  211.6100  142.8890 C   0  0  0  0  0  2  0  0  0  0  0  0
  160.6980  211.3540  142.0340 C   0  0  0  0  0  2  0  0  0  0  0  0
  163.4960  212.2120  138.6340 C   0  0  0  0  0  2  0  0  0  0  0  0
  164.4350  214.1020  137.4660 O   0  0  0  0  0  0  0  0  0  0  0  0
  162.0080  213.6780  139.9550 C   0  0  2  0  0  3  0  0  0  0  0  0
  162.8150  214.4490  139.0850 O   0  0  0  0  0  0  0  0  0  0  0  0
  163.6470  213.6470  138.3350 C   0  0  0  0  0  0  0  0  0  0  0  0
  162.5380  212.2170  139.8330 C   0  0  1  0  0  3  0  0  0  0  0  0
  159.6640  212.8370  140.3130 C   0  0  2  0  0  3  0  0  0  0  0  0
  160.5500  213.7860  139.5070 C   0  0  0  0  0  2  0  0  0  0  0  0
  161.4460  211.2350  139.6430 N   0  0  0  0  0  0  0  0  0  0  0  0
  160.3130  211.4670  140.5610 C   0  0  1  0  0  3  0  0  0  0  0  0
  158.0890  211.6340  138.7910 C   0  0  0  0  0  3  0  0  0  0  0  0
  155.8060  212.3930  138.4440 C   0  0  0  0  0  0  0  0  0  0  0  0
  157.2800  213.5980  139.9580 C   0  0  0  0  0  3  0  0  0  0  0  0
  156.0330  213.4490  139.3420 C   0  0  0  0  0  3  0  0  0  0  0  0
  156.8420  211.4870  138.1730 C   0  0  0  0  0  3  0  0  0  0  0  0
  158.3130  212.6880  139.6880 C   0  0  0  0  0  0  0  0  0  0  0  0
  154.4960  212.2340  137.7910 C   0  0  0  0  0  0  0  0  0  0  0  0
  153.9590  213.2040  137.1890 O   0  0  0  0  0  0  0  0  0  0  0  0
  153.8370  211.0050  137.8280 O   0  0  0  0  0  1  0  0  0  0  0  0
  161.8640  209.8170  139.6900 C   0  0  1  0  0  3  0  0  0  0  0  0
  161.4590  209.1670  141.0030 C   0  0  0  0  0  1  0  0  0  0  0  0
  161.6770  207.7750  138.5060 O   0  0  0  0  0  0  0  0  0  0  0  0
  160.8830  209.5970  137.2610 C   0  0  0  0  0  1  0  0  0  0  0  0
  161.4800  208.9820  138.4870 C   0  0  0  0  0  0  0  0  0  0  0  0
  160.9900  211.7560  147.7050 C   0  0  0  0  0  2  0  0  0  0  0  0
  161.4260  212.7540  148.7700 C   0  0  0  0  0  2  0  0  0  0  0  0
  160.2220  213.5580  149.2270 C   0  0  0  0  0  2  0  0  0  0  0  0
  160.0150  213.4170  150.7340 C   0  0  0  0  0  2  0  0  0  0  0  0
  159.0260  212.3020  151.0540 C   0  0  0  0  0  2  0  0  0  0  0  0
  159.3560  213.4150  153.6590 O   0  0  0  0  0  0  0  0  0  0  0  0
  159.6840  212.2100  153.4910 C   0  0  0  0  0  0  0  0  0  0  0  0
  159.4690  211.5740  152.2320 N   0  0  0  0  0  2  0  0  0  0  0  0
  157.9630  211.3480  156.0660 S   0  0  0  0  0  0  0  0  0  0  0  0
  159.3280  208.9800  156.0320 C   0  0  2  0  0  3  0  0  0  0  0  0
  159.7580  211.5400  156.0150 C   0  0  1  0  0  0  0  0  0  0  0  0
  161.7310  211.8120  154.6320 O   0  0  0  0  0  0  0  0  0  0  0  0
  160.2680  208.0720  156.8270 C   0  0  0  0  0  2  0  0  0  0  0  0
  157.2320  210.5890  154.9930 O   0  0  0  0  0  0  0  0  0  0  0  0
  161.7770  209.5280  155.3370 C   0  0  0  0  0  2  0  0  0  0  0  0
  157.1260  211.8520  157.2100 O   0  0  0  0  0  0  0  0  0  0  0  0
  160.6520  208.5110  155.4400 C   0  0  2  0  0  0  0  0  0  0  0  0
  160.3610  211.4590  154.5930 C   0  0  2  0  0  0  0  0  0  0  0  0
  160.2100  212.6900  156.8990 C   0  0  0  0  0  1  0  0  0  0  0  0
  161.4470  210.5020  154.2150 C   0  0  1  0  0  3  0  0  0  0  0  0
  159.3140  210.3380  156.7490 C   0  0  1  0  0  3  0  0  0  0  0  0
  161.3010  207.7440  153.2640 O   0  0  0  0  0  1  0  0  0  0  0  0
  160.5450  207.4090  154.3950 C   0  0  0  0  0  2  0  0  0  0  0  0
  1  4  1  0  0  0  0
  2  6  1  0  0  0  0
  2 33  1  0  0  0  0
  3  2  2  0  0  0  0
  4  6  2  0  0  0  0
  5  1  2  0  0  0  0
  5  3  1  0  0  0  0
  7  5  1  0  0  0  0
  8  7  1  0  0  0  0
 10 13  2  0  0  0  0
 11 16  1  6  0  0  0
 12 11  1  0  0  0  0
 13  9  1  0  0  0  0
 13 12  1  0  0  0  0
 14  9  1  6  0  0  0
 14 11  1  0  0  0  0
 15 24  1  6  0  0  0
 15 18  1  0  0  0  0
 16 15  1  0  0  0  0
 17 28  1  0  0  0  0
 17 14  1  0  0  0  0
 17 18  1  0  0  0  0
 18  8  1  1  0  0  0
 19 24  1  0  0  0  0
 20 22  2  0  0  0  0
 22 21  1  0  0  0  0
 23 20  1  0  0  0  0
 23 19  2  0  0  0  0
 24 21  2  0  0  0  0
 25 27  1  0  0  0  0
 25 20  1  0  0  0  0
 26 25  2  0  0  0  0
 28 29  1  1  0  0  0
 31 32  1  0  0  0  0
 32 30  2  0  0  0  0
 32 28  1  0  0  0  0
 33 34  1  0  0  0  0
 34 35  1  0  0  0  0
 35 36  1  0  0  0  0
 36 37  1  0  0  0  0
 37 40  1  0  0  0  0
 39 38  2  0  0  0  0
 40 39  1  0  0  0  0
 41 48  2  0  0  0  0
 42 53  1  0  0  0  0
 42 45  1  1  0  0  0
 43 41  1  0  0  0  0
 43 53  1  0  0  0  0
 43 51  1  1  0  0  0
 46 41  2  0  0  0  0
 47 49  1  0  0  0  0
 49 55  1  6  0  0  0
 49 42  1  0  0  0  0
 49 45  1  0  0  0  0
 50 39  1  6  0  0  0
 50 44  1  0  0  0  0
 50 43  1  0  0  0  0
 52 50  1  0  0  0  0
 52 44  1  0  0  0  0
 52 47  1  1  0  0  0
 53 41  1  6  0  0  0
 54 55  1  0  0  0  0
M  END
>  <MODEL>
2

>  <REMARK>
 VINA RESULT:      -2.9      3.389     14.161
  Name = 
  15 active torsions:
  status: ('A' for Active; 'I' for Inactive)
    1  A    between atoms: C_2  and  C_28
    2  A    between atoms: C_2  and  C_44
    3  A    between atoms: C_8  and  N_22
    4  A    between atoms: C_8  and  C_35
    5  A    between atoms: C_10  and  C_32
    6  A    between atoms: C_19  and  C_40
    7  A    between atoms: C_19  and  N_45
    8  A    between atoms: C_20  and  C_42
    9  A    between atoms: C_25  and  C_38
   10  A    between atoms: C_27  and  C_54
   11  A    between atoms: C_28  and  C_49
   12  A    between atoms: C_33  and  C_52
   13  A    between atoms: C_35  and  C_43
   14  A    between atoms: C_43  and  C_51
   15  A    between atoms: C_51  and  C_54
                            x       y       z     vdW  Elec       q    Type
                         _______ _______ _______ _____ _____    ______ ____

>  <TORSDO>
F 15

$$$$
=
 OpenBabel11062408543D

 55 62  0  0  1  0  0  0  0  0999 V2000
  161.0020  212.4000  150.8460 C   0  0  0  0  0  3  0  0  0  0  0  0
  161.4760  213.3140  148.2420 C   0  0  0  0  0  0  0  0  0  0  0  0
  160.7690  214.1100  149.1500 C   0  0  0  0  0  3  0  0  0  0  0  0
  161.7030  211.6030  149.9420 C   0  0  0  0  0  3  0  0  0  0  0  0
  160.5380  213.6610  150.4600 C   0  0  0  0  0  0  0  0  0  0  0  0
  161.9410  212.0600  148.6420 C   0  0  0  0  0  3  0  0  0  0  0  0
  159.7130  214.4490  151.4290 C   0  0  0  0  0  2  0  0  0  0  0  0
  159.9540  214.0400  152.8730 C   0  0  0  0  0  2  0  0  0  0  0  0
  156.0060  213.9600  155.0000 C   0  0  0  0  0  2  0  0  0  0  0  0
  155.1360  213.8350  157.2450 O   0  0  0  0  0  0  0  0  0  0  0  0
  158.3160  213.5940  155.7970 C   0  0  2  0  0  3  0  0  0  0  0  0
  157.4150  213.6160  156.8880 O   0  0  0  0  0  0  0  0  0  0  0  0
  156.1200  213.8120  156.4610 C   0  0  0  0  0  0  0  0  0  0  0  0
  157.4730  213.9950  154.5490 C   0  0  1  0  0  3  0  0  0  0  0  0
  159.7420  212.0720  154.3910 C   0  0  2  0  0  3  0  0  0  0  0  0
  158.8920  212.1860  155.6570 C   0  0  0  0  0  2  0  0  0  0  0  0
  157.6960  213.0860  153.4010 N   0  0  0  0  0  0  0  0  0  0  0  0
  159.1280  212.7950  153.1840 C   0  0  1  0  0  3  0  0  0  0  0  0
  160.1050  209.7040  155.1040 C   0  0  0  0  0  3  0  0  0  0  0  0
  160.6660  207.9550  153.5120 C   0  0  0  0  0  0  0  0  0  0  0  0
  160.3020  210.2350  152.7480 C   0  0  0  0  0  3  0  0  0  0  0  0
  160.6070  208.8980  152.4730 C   0  0  0  0  0  3  0  0  0  0  0  0
  160.4120  208.3670  154.8290 C   0  0  0  0  0  3  0  0  0  0  0  0
  160.0460  210.6440  154.0650 C   0  0  0  0  0  0  0  0  0  0  0  0
  160.9890  206.5470  153.2270 C   0  0  0  0  0  0  0  0  0  0  0  0
  160.8780  205.6710  154.1300 O   0  0  0  0  0  1  0  0  0  0  0  0
  161.4130  206.1660  151.9560 O   0  0  0  0  0  0  0  0  0  0  0  0
  157.0580  213.5070  152.1350 C   0  0  1  0  0  3  0  0  0  0  0  0
  157.4710  212.6050  150.9840 C   0  0  0  0  0  1  0  0  0  0  0  0
  154.9300  213.2770  153.1460 O   0  0  0  0  0  0  0  0  0  0  0  0
  154.8240  214.4400  151.1130 C   0  0  0  0  0  1  0  0  0  0  0  0
  155.5610  213.7200  152.1970 C   0  0  0  0  0  0  0  0  0  0  0  0
  161.7810  213.8090  146.8640 C   0  0  0  0  0  2  0  0  0  0  0  0
  160.9320  213.1220  145.8020 C   0  0  0  0  0  2  0  0  0  0  0  0
  160.7250  214.0700  144.6340 C   0  0  0  0  0  2  0  0  0  0  0  0
  159.2400  214.3570  144.4250 C   0  0  0  0  0  2  0  0  0  0  0  0
  158.8590  214.2540  142.9510 C   0  0  0  0  0  2  0  0  0  0  0  0
  158.7180  213.3900  140.2370 O   0  0  0  0  0  0  0  0  0  0  0  0
  159.7850  213.1660  140.8690 C   0  0  0  0  0  0  0  0  0  0  0  0
  159.9460  213.6440  142.2030 N   0  0  0  0  0  2  0  0  0  0  0  0
  159.3500  212.0440  137.8880 S   0  0  0  0  0  0  0  0  0  0  0  0
  161.9820  212.6140  137.4210 C   0  0  2  0  0  3  0  0  0  0  0  0
  160.4760  211.3530  139.1180 C   0  0  1  0  0  0  0  0  0  0  0  0
  161.5840  211.6600  141.2540 O   0  0  0  0  0  0  0  0  0  0  0  0
  163.3390  212.0160  137.0420 C   0  0  0  0  0  2  0  0  0  0  0  0
  159.3010  213.5240  137.6230 O   0  0  0  0  0  0  0  0  0  0  0  0
  163.2760  212.0610  139.6130 C   0  0  0  0  0  2  0  0  0  0  0  0
  158.4790  211.1840  137.0120 O   0  0  0  0  0  0  0  0  0  0  0  0
  163.2080  212.8280  138.3020 C   0  0  2  0  0  0  0  0  0  0  0  0
  160.8650  212.3410  140.2430 C   0  0  2  0  0  0  0  0  0  0  0  0
  160.0400  209.9590  139.5360 C   0  0  0  0  0  1  0  0  0  0  0  0
  162.2820  212.6790  140.5860 C   0  0  1  0  0  3  0  0  0  0  0  0
  161.0600  211.4350  137.7640 C   0  0  1  0  0  3  0  0  0  0  0  0
  164.8530  214.3360  139.1750 O   0  0  0  0  0  1  0  0  0  0  0  0
  163.8430  214.2080  138.2120 C   0  0  0  0  0  2  0  0  0  0  0  0
  2  6  2  0  0  0  0
  2  3  1  0  0  0  0
  3  5  2  0  0  0  0
  4  1  2  0  0  0  0
  5  1  1  0  0  0  0
  5  7  1  0  0  0  0
  6  4  1  0  0  0  0
  7  8  1  0  0  0  0
  9 13  1  0  0  0  0
 11 16  1  6  0  0  0
 11 12  1  0  0  0  0
 13 12  1  0  0  0  0
 13 10  2  0  0  0  0
 14  9  1  1  0  0  0
 14 11  1  0  0  0  0
 15 24  1  6  0  0  0
 15 16  1  0  0  0  0
 17 14  1  0  0  0  0
 18  8  1  1  0  0  0
 18 17  1  0  0  0  0
 18 15  1  0  0  0  0
 20 23  2  0  0  0  0
 21 24  1  0  0  0  0
 22 21  2  0  0  0  0
 22 20  1  0  0  0  0
 23 19  1  0  0  0  0
 24 19  2  0  0  0  0
 25 20  1  0  0  0  0
 25 26  1  0  0  0  0
 27 25  2  0  0  0  0
 28 29  1  6  0  0  0
 28 32  1  0  0  0  0
 28 17  1  0  0  0  0
 31 32  1  0  0  0  0
 32 30  2  0  0  0  0
 33  2  1  0  0  0  0
 34 33  1  0  0  0  0
 35 34  1  0  0  0  0
 36 35  1  0  0  0  0
 37 36  1  0  0  0  0
 38 39  2  0  0  0  0
 39 40  1  0  0  0  0
 40 37  1  0  0  0  0
 41 43  1  0  0  0  0
 42 45  1  6  0  0  0
 42 53  1  0  0  0  0
 42 49  1  0  0  0  0
 43 51  1  1  0  0  0
 43 50  1  0  0  0  0
 45 49  1  0  0  0  0
 46 41  2  0  0  0  0
 48 41  2  0  0  0  0
 49 55  1  6  0  0  0
 49 47  1  0  0  0  0
 50 52  1  0  0  0  0
 50 39  1  1  0  0  0
 50 44  1  0  0  0  0
 52 47  1  6  0  0  0
 52 44  1  0  0  0  0
 53 41  1  6  0  0  0
 53 43  1  0  0  0  0
 55 54  1  0  0  0  0
M  END
>  <MODEL>
3

>  <REMARK>
 VINA RESULT:      -1.4      2.197      3.823
  Name = 
  15 active torsions:
  status: ('A' for Active; 'I' for Inactive)
    1  A    between atoms: C_2  and  C_28
    2  A    between atoms: C_2  and  C_44
    3  A    between atoms: C_8  and  N_22
    4  A    between atoms: C_8  and  C_35
    5  A    between atoms: C_10  and  C_32
    6  A    between atoms: C_19  and  C_40
    7  A    between atoms: C_19  and  N_45
    8  A    between atoms: C_20  and  C_42
    9  A    between atoms: C_25  and  C_38
   10  A    between atoms: C_27  and  C_54
   11  A    between atoms: C_28  and  C_49
   12  A    between atoms: C_33  and  C_52
   13  A    between atoms: C_35  and  C_43
   14  A    between atoms: C_43  and  C_51
   15  A    between atoms: C_51  and  C_54
                            x       y       z     vdW  Elec       q    Type
                         _______ _______ _______ _____ _____    ______ ____

>  <TORSDO>
F 15

$$$$
=
 OpenBabel11062408543D

 55 62  0  0  1  0  0  0  0  0999 V2000
  162.1820  207.2020  152.2710 C   0  0  0  0  0  3  0  0  0  0  0  0
  161.4920  204.4910  152.3880 C   0  0  0  0  0  0  0  0  0  0  0  0
  160.6230  205.4610  152.8970 C   0  0  0  0  0  3  0  0  0  0  0  0
  163.0530  206.2360  151.7670 C   0  0  0  0  0  3  0  0  0  0  0  0
  160.9590  206.8230  152.8310 C   0  0  0  0  0  0  0  0  0  0  0  0
  162.7070  204.8830  151.8240 C   0  0  0  0  0  3  0  0  0  0  0  0
  160.0930  207.8800  153.4430 C   0  0  0  0  0  2  0  0  0  0  0  0
  160.7830  208.6200  154.5760 C   0  0  0  0  0  2  0  0  0  0  0  0
  159.3000  212.1030  156.9840 C   0  0  0  0  0  2  0  0  0  0  0  0
  157.3000  213.4220  157.2580 O   0  0  0  0  0  0  0  0  0  0  0  0
  158.3210  210.8850  155.0700 C   0  0  2  0  0  3  0  0  0  0  0  0
  157.3930  211.8190  155.5880 O   0  0  0  0  0  0  0  0  0  0  0  0
  157.9250  212.5130  156.6520 C   0  0  0  0  0  0  0  0  0  0  0  0
  159.5250  210.8980  156.0590 C   0  0  1  0  0  3  0  0  0  0  0  0
  159.8660  210.4400  153.1360 C   0  0  2  0  0  3  0  0  0  0  0  0
  158.7400  211.3260  153.6680 C   0  0  0  0  0  2  0  0  0  0  0  0
  160.8270  211.0020  155.3610 N   0  0  0  0  0  0  0  0  0  0  0  0
  160.9180  210.0940  154.2000 C   0  0  1  0  0  3  0  0  0  0  0  0
  160.1040  212.3150  151.5000 C   0  0  0  0  0  3  0  0  0  0  0  0
  161.6380  212.1900  149.6180 C   0  0  0  0  0  0  0  0  0  0  0  0
  161.4730  210.3390  151.1870 C   0  0  0  0  0  3  0  0  0  0  0  0
  162.0380  210.9120  150.0430 C   0  0  0  0  0  3  0  0  0  0  0  0
  160.6690  212.8870  150.3550 C   0  0  0  0  0  3  0  0  0  0  0  0
  160.5050  211.0390  151.9230 C   0  0  0  0  0  0  0  0  0  0  0  0
  162.2290  212.7970  148.4140 C   0  0  0  0  0  0  0  0  0  0  0  0
  163.4360  212.5790  148.1140 O   0  0  0  0  0  1  0  0  0  0  0  0
  161.4590  213.6160  147.5900 O   0  0  0  0  0  0  0  0  0  0  0  0
  162.0160  210.8490  156.2280 C   0  0  1  0  0  3  0  0  0  0  0  0
  161.9200  209.5940  157.0790 C   0  0  0  0  0  1  0  0  0  0  0  0
  163.4400  210.6990  154.3430 O   0  0  0  0  0  0  0  0  0  0  0  0
  164.5840  211.4090  156.2630 C   0  0  0  0  0  1  0  0  0  0  0  0
  163.3540  210.9760  155.5300 C   0  0  0  0  0  0  0  0  0  0  0  0
  161.1140  203.0440  152.3970 C   0  0  0  0  0  2  0  0  0  0  0  0
  160.4130  202.6210  151.1120 C   0  0  0  0  0  2  0  0  0  0  0  0
  161.1180  201.4080  150.5320 C   0  0  0  0  0  2  0  0  0  0  0  0
  160.1540  200.5680  149.6970 C   0  0  0  0  0  2  0  0  0  0  0  0
  159.6410  201.3500  148.4910 C   0  0  0  0  0  2  0  0  0  0  0  0
  160.9530  202.3350  146.1580 O   0  0  0  0  0  0  0  0  0  0  0  0
  161.0440  203.0160  147.2140 C   0  0  0  0  0  0  0  0  0  0  0  0
  160.3440  202.6180  148.3920 N   0  0  0  0  0  2  0  0  0  0  0  0
  160.8860  205.1520  144.8160 S   0  0  0  0  0  0  0  0  0  0  0  0
  161.1580  207.1090  146.7050 C   0  0  2  0  0  3  0  0  0  0  0  0
  162.2950  204.9110  145.9190 C   0  0  1  0  0  0  0  0  0  0  0  0
  163.1220  203.8960  147.9610 O   0  0  0  0  0  0  0  0  0  0  0  0
  162.0330  208.2720  147.1770 C   0  0  0  0  0  2  0  0  0  0  0  0
  159.4850  205.2550  145.3540 O   0  0  0  0  0  0  0  0  0  0  0  0
  162.8230  206.2070  148.4940 C   0  0  0  0  0  2  0  0  0  0  0  0
  161.0430  205.3490  143.3320 O   0  0  0  0  0  0  0  0  0  0  0  0
  161.6930  207.1590  148.1310 C   0  0  2  0  0  0  0  0  0  0  0  0
  161.9380  204.2150  147.2540 C   0  0  2  0  0  0  0  0  0  0  0  0
  163.5010  204.3840  145.1600 C   0  0  0  0  0  1  0  0  0  0  0  0
  162.2550  204.7990  148.5950 C   0  0  1  0  0  3  0  0  0  0  0  0
  161.9800  206.3320  145.6660 C   0  0  1  0  0  3  0  0  0  0  0  0
  159.9830  206.4160  149.6360 O   0  0  0  0  0  1  0  0  0  0  0  0
  160.6780  207.5500  149.1950 C   0  0  0  0  0  2  0  0  0  0  0  0
  1  5  1  0  0  0  0
  2 33  1  0  0  0  0
  2  3  1  0  0  0  0
  4  6  1  0  0  0  0
  4  1  2  0  0  0  0
  5  3  2  0  0  0  0
  5  7  1  0  0  0  0
  6  2  2  0  0  0  0
  7  8  1  0  0  0  0
 11 16  1  6  0  0  0
 11 12  1  0  0  0  0
 11 14  1  0  0  0  0
 12 13  1  0  0  0  0
 13  9  1  0  0  0  0
 13 10  2  0  0  0  0
 14  9  1  1  0  0  0
 15 24  1  6  0  0  0
 15 16  1  0  0  0  0
 15 18  1  0  0  0  0
 17 14  1  0  0  0  0
 17 28  1  0  0  0  0
 18  8  1  1  0  0  0
 18 17  1  0  0  0  0
 19 24  1  0  0  0  0
 20 22  2  0  0  0  0
 20 23  1  0  0  0  0
 21 24  2  0  0  0  0
 22 21  1  0  0  0  0
 23 19  2  0  0  0  0
 25 20  1  0  0  0  0
 26 25  1  0  0  0  0
 27 25  2  0  0  0  0
 28 29  1  6  0  0  0
 30 32  2  0  0  0  0
 32 28  1  0  0  0  0
 32 31  1  0  0  0  0
 34 33  1  0  0  0  0
 35 34  1  0  0  0  0
 36 35  1  0  0  0  0
 37 36  1  0  0  0  0
 38 39  2  0  0  0  0
 39 40  1  0  0  0  0
 40 37  1  0  0  0  0
 41 46  2  0  0  0  0
 41 43  1  0  0  0  0
 42 45  1  6  0  0  0
 42 49  1  0  0  0  0
 43 51  1  6  0  0  0
 43 50  1  0  0  0  0
 44 52  1  0  0  0  0
 45 49  1  0  0  0  0
 48 41  2  0  0  0  0
 49 47  1  0  0  0  0
 49 55  1  1  0  0  0
 50 39  1  6  0  0  0
 50 44  1  0  0  0  0
 50 52  1  0  0  0  0
 52 47  1  6  0  0  0
 53 41  1  6  0  0  0
 53 43  1  0  0  0  0
 53 42  1  0  0  0  0
 55 54  1  0  0  0  0
M  END
>  <MODEL>
4

>  <REMARK>
 VINA RESULT:      -1.1      5.224      8.432
  Name = 
  15 active torsions:
  status: ('A' for Active; 'I' for Inactive)
    1  A    between atoms: C_2  and  C_28
    2  A    between atoms: C_2  and  C_44
    3  A    between atoms: C_8  and  N_22
    4  A    between atoms: C_8  and  C_35
    5  A    between atoms: C_10  and  C_32
    6  A    between atoms: C_19  and  C_40
    7  A    between atoms: C_19  and  N_45
    8  A    between atoms: C_20  and  C_42
    9  A    between atoms: C_25  and  C_38
   10  A    between atoms: C_27  and  C_54
   11  A    between atoms: C_28  and  C_49
   12  A    between atoms: C_33  and  C_52
   13  A    between atoms: C_35  and  C_43
   14  A    between atoms: C_43  and  C_51
   15  A    between atoms: C_51  and  C_54
                            x       y       z     vdW  Elec       q    Type
                         _______ _______ _______ _____ _____    ______ ____

>  <TORSDO>
F 15

$$$$
