=
 OpenBabel11062409083D

 37 39  0  0  1  0  0  0  0  0999 V2000
  159.1760  211.1810  154.3100 C   0  0  1  0  0  0  0  0  0  0  0  0
  161.3330  208.7550  154.4020 C   0  0  0  0  0  0  0  0  0  0  0  0
  162.7490  210.4720  151.3370 C   0  0  0  0  0  3  0  0  0  0  0  0
  158.5960  212.3510  155.1520 C   0  0  2  0  0  3  0  0  0  0  0  0
  159.0180  214.2010  150.1580 C   0  0  0  0  0  2  0  0  0  0  0  0
  161.4250  207.8170  152.1430 C   0  0  0  0  0  3  0  0  0  0  0  0
  159.1070  214.1960  152.6840 C   0  0  0  0  0  2  0  0  0  0  0  0
  156.7740  214.0110  152.3000 F   0  0  0  0  0  0  0  0  0  0  0  0
  162.6880  209.9250  152.5520 C   0  0  0  0  0  3  0  0  0  0  0  0
  160.3450  212.5730  148.7680 C   0  0  0  0  0  3  0  0  0  0  0  0
  161.7710  207.6580  150.7170 C   0  0  0  0  0  3  0  0  0  0  0  0
  157.5500  213.2110  154.3940 C   0  0  2  0  0  3  0  0  0  0  0  0
  159.4370  210.1010  155.1910 O   0  0  0  0  0  0  0  0  0  0  0  0
  161.9840  209.7100  155.1700 F   0  0  0  0  0  0  0  0  0  0  0  0
  162.1630  210.9290  148.9830 C   0  0  0  0  0  2  0  0  0  0  0  0
  161.9930  208.6530  149.8610 C   0  0  0  0  0  3  0  0  0  0  0  0
  159.8150  208.9510  154.4620 C   0  0  0  0  0  2  0  0  0  0  0  0
  157.8350  213.3470  152.8880 C   0  0  2  0  0  0  0  0  0  0  0  0
  159.8760  213.9470  151.3880 C   0  0  0  0  0  2  0  0  0  0  0  0
  161.8370  210.0950  150.2130 C   0  0  1  0  0  3  0  0  0  0  0  0
  158.1550  210.8010  153.2180 C   0  0  0  0  0  2  0  0  0  0  0  0
  161.7840  208.8220  152.9620 C   0  0  0  0  0  0  0  0  0  0  0  0
  159.8160  213.9750  148.8760 C   0  0  1  0  0  3  0  0  0  0  0  0
  161.6360  207.5090  154.9230 F   0  0  0  0  0  0  0  0  0  0  0  0
  157.9390  211.9530  152.2300 C   0  0  0  0  0  2  0  0  0  0  0  0
  157.3410  214.4530  155.0020 O   0  0  0  0  0  1  0  0  0  0  0  0
  160.3690  211.5880  153.6960 O   0  0  0  0  0  1  0  0  0  0  0  0
  161.6110  212.3140  149.0930 C   0  0  0  0  0  3  0  0  0  0  0  0
  160.0830  212.5850  157.1590 C   0  0  0  0  0  1  0  0  0  0  0  0
  159.6770  213.1980  155.8320 C   0  0  0  0  0  2  0  0  0  0  0  0
  158.9960  214.3890  147.6450 C   0  0  2  0  0  3  0  0  0  0  0  0
  157.4770  214.4480  147.8730 C   0  0  0  0  0  2  0  0  0  0  0  0
  156.4620  214.2480  145.5990 C   0  0  0  0  0  1  0  0  0  0  0  0
  156.6800  213.5550  146.9300 C   0  0  0  0  0  2  0  0  0  0  0  0
  159.3240  213.6050  146.5330 O   0  0  0  0  0  0  0  0  0  0  0  0
  160.3760  213.7840  144.4100 C   0  0  0  0  0  1  0  0  0  0  0  0
  160.2030  214.3900  145.7870 C   0  0  0  0  0  2  0  0  0  0  0  0
  1 27  1  6  0  0  0
  1  4  1  0  0  0  0
  1 13  1  0  0  0  0
  2 17  1  0  0  0  0
  2 24  1  0  0  0  0
  2 14  1  0  0  0  0
  3  9  2  0  0  0  0
  4 30  1  6  0  0  0
  5 19  1  0  0  0  0
  6 22  2  0  0  0  0
  7 18  1  0  0  0  0
  9 22  1  0  0  0  0
 10 23  1  0  0  0  0
 10 28  2  0  0  0  0
 11  6  1  0  0  0  0
 12 26  1  1  0  0  0
 12  4  1  0  0  0  0
 15 28  1  0  0  0  0
 16 20  1  0  0  0  0
 16 11  2  0  0  0  0
 17 13  1  0  0  0  0
 18  8  1  6  0  0  0
 18 12  1  0  0  0  0
 19  7  1  0  0  0  0
 20 15  1  6  0  0  0
 20  3  1  0  0  0  0
 21  1  1  0  0  0  0
 22  2  1  0  0  0  0
 23 31  1  6  0  0  0
 23  5  1  0  0  0  0
 25 18  1  0  0  0  0
 25 21  1  0  0  0  0
 30 29  1  0  0  0  0
 31 32  1  1  0  0  0
 33 34  1  0  0  0  0
 34 32  1  0  0  0  0
 35 31  1  0  0  0  0
 36 37  1  0  0  0  0
 37 35  1  0  0  0  0
M  END
>  <MODEL>
1

>  <REMARK>
 VINA RESULT:      -3.8      0.000      0.000
  Name = 
  6 active torsions:
  status: ('A' for Active; 'I' for Inactive)
    1  A    between atoms: C_2  and  C_6
    2  A    between atoms: C_2  and  C_35
    3  A    between atoms: C_5  and  C_23
    4  A    between atoms: C_6  and  O_8
    5  A    between atoms: C_6  and  C_31
    6  A    between atoms: O_8  and  C_19
                            x       y       z     vdW  Elec       q    Type
                         _______ _______ _______ _____ _____    ______ ____

>  <TORSDO>
F 6

$$$$
=
 OpenBabel11062409083D

 37 39  0  0  1  0  0  0  0  0999 V2000
  161.5020  203.0180  146.4340 C   0  0  1  0  0  0  0  0  0  0  0  0
  160.8400  200.7340  148.6460 C   0  0  0  0  0  0  0  0  0  0  0  0
  159.8990  203.7040  150.8000 C   0  0  0  0  0  3  0  0  0  0  0  0
  161.1490  203.4810  144.9930 C   0  0  2  0  0  3  0  0  0  0  0  0
  161.6010  207.9380  147.9040 C   0  0  0  0  0  2  0  0  0  0  0  0
  161.9560  201.4210  150.7140 C   0  0  0  0  0  3  0  0  0  0  0  0
  160.6900  206.3360  146.1750 C   0  0  0  0  0  2  0  0  0  0  0  0
  162.8140  206.8530  145.2570 F   0  0  0  0  0  0  0  0  0  0  0  0
  159.8010  202.5390  150.1590 C   0  0  0  0  0  3  0  0  0  0  0  0
  161.7400  207.3370  150.3450 C   0  0  0  0  0  3  0  0  0  0  0  0
  162.2230  202.1320  151.9790 C   0  0  0  0  0  3  0  0  0  0  0  0
  161.8550  204.7950  144.5670 C   0  0  2  0  0  3  0  0  0  0  0  0
  161.5010  201.5990  146.4460 O   0  0  0  0  0  0  0  0  0  0  0  0
  159.6050  200.8610  148.0280 F   0  0  0  0  0  0  0  0  0  0  0  0
  160.9500  205.6290  151.9320 C   0  0  0  0  0  2  0  0  0  0  0  0
  161.8610  203.3830  152.2530 C   0  0  0  0  0  3  0  0  0  0  0  0
  161.9720  201.1160  147.6870 C   0  0  0  0  0  2  0  0  0  0  0  0
  162.0600  205.7910  145.7220 C   0  0  2  0  0  0  0  0  0  0  0  0
  160.6080  206.8220  147.6210 C   0  0  0  0  0  2  0  0  0  0  0  0
  161.1970  204.2850  151.2660 C   0  0  1  0  0  3  0  0  0  0  0  0
  162.8790  203.5950  146.8180 C   0  0  0  0  0  2  0  0  0  0  0  0
  160.9190  201.6060  149.8770 C   0  0  0  0  0  0  0  0  0  0  0  0
  161.4820  208.4270  149.3460 C   0  0  1  0  0  3  0  0  0  0  0  0
  161.0020  199.4080  149.0090 F   0  0  0  0  0  0  0  0  0  0  0  0
  162.8460  205.1270  146.8740 C   0  0  0  0  0  2  0  0  0  0  0  0
  161.2430  205.3940  143.4610 O   0  0  0  0  0  1  0  0  0  0  0  0
  160.5390  203.4980  147.3330 O   0  0  0  0  0  1  0  0  0  0  0  0
  160.7170  206.7100  150.9250 C   0  0  0  0  0  3  0  0  0  0  0  0
  159.0990  202.0950  144.5830 C   0  0  0  0  0  1  0  0  0  0  0  0
  159.6410  203.5050  144.7210 C   0  0  0  0  0  2  0  0  0  0  0  0
  162.3690  209.6590  149.5780 C   0  0  2  0  0  3  0  0  0  0  0  0
  161.9330  210.5550  150.7490 C   0  0  0  0  0  2  0  0  0  0  0  0
  161.0430  209.8610  152.9780 C   0  0  0  0  0  1  0  0  0  0  0  0
  162.2870  209.9890  152.1190 C   0  0  0  0  0  2  0  0  0  0  0  0
  162.5350  210.3920  148.3980 O   0  0  0  0  0  0  0  0  0  0  0  0
  162.8780  212.6820  147.8650 C   0  0  0  0  0  1  0  0  0  0  0  0
  162.1210  211.6850  148.7180 C   0  0  0  0  0  2  0  0  0  0  0  0
  1 13  1  0  0  0  0
  1 21  1  0  0  0  0
  1 27  1  1  0  0  0
  2 24  1  0  0  0  0
  2 22  1  0  0  0  0
  4 30  1  1  0  0  0
  4  1  1  0  0  0  0
  5 23  1  0  0  0  0
  6 11  1  0  0  0  0
  7 19  1  0  0  0  0
  9  3  2  0  0  0  0
 10 28  2  0  0  0  0
 11 16  2  0  0  0  0
 12 26  1  6  0  0  0
 12  4  1  0  0  0  0
 12 18  1  0  0  0  0
 13 17  1  0  0  0  0
 14  2  1  0  0  0  0
 17  2  1  0  0  0  0
 18  8  1  6  0  0  0
 18  7  1  0  0  0  0
 18 25  1  0  0  0  0
 19  5  1  0  0  0  0
 20  3  1  1  0  0  0
 20 15  1  0  0  0  0
 20 16  1  0  0  0  0
 21 25  1  0  0  0  0
 22  9  1  0  0  0  0
 22  6  2  0  0  0  0
 23 31  1  1  0  0  0
 23 10  1  0  0  0  0
 28 15  1  0  0  0  0
 29 30  1  0  0  0  0
 31 32  1  1  0  0  0
 32 34  1  0  0  0  0
 34 33  1  0  0  0  0
 35 37  1  0  0  0  0
 35 31  1  0  0  0  0
 36 37  1  0  0  0  0
M  END
>  <MODEL>
2

>  <REMARK>
 VINA RESULT:      -2.5      6.026      9.600
  Name = 
  6 active torsions:
  status: ('A' for Active; 'I' for Inactive)
    1  A    between atoms: C_2  and  C_6
    2  A    between atoms: C_2  and  C_35
    3  A    between atoms: C_5  and  C_23
    4  A    between atoms: C_6  and  O_8
    5  A    between atoms: C_6  and  C_31
    6  A    between atoms: O_8  and  C_19
                            x       y       z     vdW  Elec       q    Type
                         _______ _______ _______ _____ _____    ______ ____

>  <TORSDO>
F 6

$$$$
=
 OpenBabel11062409083D

 37 39  0  0  1  0  0  0  0  0999 V2000
  160.4790  208.7160  154.2140 C   0  0  1  0  0  0  0  0  0  0  0  0
  161.4440  205.7600  153.2750 C   0  0  0  0  0  0  0  0  0  0  0  0
  162.7540  207.6210  150.2480 C   0  0  0  0  0  3  0  0  0  0  0  0
  160.6090  209.7500  155.3670 C   0  0  2  0  0  3  0  0  0  0  0  0
  160.6840  212.5790  150.8350 C   0  0  0  0  0  2  0  0  0  0  0  0
  160.6750  205.4740  150.9700 C   0  0  0  0  0  3  0  0  0  0  0  0
  161.2900  211.8820  153.1880 C   0  0  0  0  0  2  0  0  0  0  0  0
  159.0570  212.6220  153.4830 F   0  0  0  0  0  0  0  0  0  0  0  0
  162.7340  206.8310  151.3220 C   0  0  0  0  0  3  0  0  0  0  0  0
  160.9190  211.0180  148.8740 C   0  0  0  0  0  3  0  0  0  0  0  0
  160.6200  205.5850  149.4990 C   0  0  0  0  0  3  0  0  0  0  0  0
  159.8650  211.0840  155.0990 C   0  0  2  0  0  3  0  0  0  0  0  0
  160.4610  207.4210  154.7930 O   0  0  0  0  0  0  0  0  0  0  0  0
  162.5690  206.1940  153.9610 F   0  0  0  0  0  0  0  0  0  0  0  0
  161.9220  208.8510  148.2770 C   0  0  0  0  0  2  0  0  0  0  0  0
  161.0390  206.6290  148.7870 C   0  0  0  0  0  3  0  0  0  0  0  0
  160.1830  206.4460  153.8100 C   0  0  0  0  0  2  0  0  0  0  0  0
  159.8580  211.5030  153.6180 C   0  0  2  0  0  0  0  0  0  0  0  0
  161.6040  211.7320  151.7010 C   0  0  0  0  0  2  0  0  0  0  0  0
  161.5540  207.8900  149.3960 C   0  0  1  0  0  3  0  0  0  0  0  0
  159.1870  209.0120  153.4250 C   0  0  0  0  0  2  0  0  0  0  0  0
  161.5710  206.0420  151.7970 C   0  0  0  0  0  0  0  0  0  0  0  0
  161.0350  212.4350  149.3560 C   0  0  1  0  0  3  0  0  0  0  0  0
  161.3210  204.3960  153.4770 F   0  0  0  0  0  0  0  0  0  0  0  0
  159.2520  210.3830  152.7430 C   0  0  0  0  0  2  0  0  0  0  0  0
  160.3070  212.1170  155.9330 O   0  0  0  0  0  1  0  0  0  0  0  0
  161.5770  208.8310  153.3500 O   0  0  0  0  0  1  0  0  0  0  0  0
  162.0110  210.2620  148.7660 C   0  0  0  0  0  3  0  0  0  0  0  0
  162.3160  209.2390  157.1330 C   0  0  0  0  0  1  0  0  0  0  0  0
  162.0570  209.9610  155.8250 C   0  0  0  0  0  2  0  0  0  0  0  0
  160.2130  213.4140  148.5050 C   0  0  2  0  0  3  0  0  0  0  0  0
  161.0440  214.4530  147.7360 C   0  0  0  0  0  2  0  0  0  0  0  0
  162.3160  213.3170  145.9100 C   0  0  0  0  0  1  0  0  0  0  0  0
  162.4080  213.9410  147.2890 C   0  0  0  0  0  2  0  0  0  0  0  0
  159.2010  214.0150  149.2610 O   0  0  0  0  0  0  0  0  0  0  0  0
  156.9290  213.3200  149.2950 C   0  0  0  0  0  1  0  0  0  0  0  0
  158.0550  213.9120  148.4730 C   0  0  0  0  0  2  0  0  0  0  0  0
  1 27  1  6  0  0  0
  1 13  1  0  0  0  0
  1  4  1  0  0  0  0
  2 24  1  0  0  0  0
  2 17  1  0  0  0  0
  2 14  1  0  0  0  0
  3  9  2  0  0  0  0
  4 30  1  6  0  0  0
  5 19  1  0  0  0  0
  6 22  2  0  0  0  0
  7 18  1  0  0  0  0
  9 22  1  0  0  0  0
 10 23  1  0  0  0  0
 11  6  1  0  0  0  0
 12  4  1  0  0  0  0
 12 26  1  1  0  0  0
 15 28  1  0  0  0  0
 16 20  1  0  0  0  0
 16 11  2  0  0  0  0
 17 13  1  0  0  0  0
 18  8  1  6  0  0  0
 18 12  1  0  0  0  0
 19  7  1  0  0  0  0
 20 15  1  6  0  0  0
 20  3  1  0  0  0  0
 21  1  1  0  0  0  0
 22  2  1  0  0  0  0
 23 31  1  6  0  0  0
 23  5  1  0  0  0  0
 25 21  1  0  0  0  0
 25 18  1  0  0  0  0
 28 10  2  0  0  0  0
 30 29  1  0  0  0  0
 31 32  1  1  0  0  0
 31 35  1  0  0  0  0
 33 34  1  0  0  0  0
 34 32  1  0  0  0  0
 37 35  1  0  0  0  0
 37 36  1  0  0  0  0
M  END
>  <MODEL>
3

>  <REMARK>
 VINA RESULT:      -1.8      2.113      3.282
  Name = 
  6 active torsions:
  status: ('A' for Active; 'I' for Inactive)
    1  A    between atoms: C_2  and  C_6
    2  A    between atoms: C_2  and  C_35
    3  A    between atoms: C_5  and  C_23
    4  A    between atoms: C_6  and  O_8
    5  A    between atoms: C_6  and  C_31
    6  A    between atoms: O_8  and  C_19
                            x       y       z     vdW  Elec       q    Type
                         _______ _______ _______ _____ _____    ______ ____

>  <TORSDO>
F 6

$$$$
=
 OpenBabel11062409083D

 37 39  0  0  1  0  0  0  0  0999 V2000
  161.5440  202.9940  146.3040 C   0  0  1  0  0  0  0  0  0  0  0  0
  160.9740  200.5360  148.3490 C   0  0  0  0  0  0  0  0  0  0  0  0
  159.8180  203.2990  150.6670 C   0  0  0  0  0  3  0  0  0  0  0  0
  161.1920  203.5300  144.8880 C   0  0  2  0  0  3  0  0  0  0  0  0
  161.3240  207.8050  148.0900 C   0  0  0  0  0  2  0  0  0  0  0  0
  162.0070  201.1480  150.4810 C   0  0  0  0  0  3  0  0  0  0  0  0
  160.5430  206.2700  146.2400 C   0  0  0  0  0  2  0  0  0  0  0  0
  162.6500  206.9670  145.4070 F   0  0  0  0  0  0  0  0  0  0  0  0
  159.8010  202.1740  149.9500 C   0  0  0  0  0  3  0  0  0  0  0  0
  161.4500  207.0530  150.4900 C   0  0  0  0  0  3  0  0  0  0  0  0
  162.2070  201.7890  151.7960 C   0  0  0  0  0  3  0  0  0  0  0  0
  161.8280  204.9070  144.5640 C   0  0  2  0  0  3  0  0  0  0  0  0
  161.6250  201.5800  146.2240 O   0  0  0  0  0  0  0  0  0  0  0  0
  159.7460  200.6310  147.7110 F   0  0  0  0  0  0  0  0  0  0  0  0
  160.7310  205.2030  151.9440 C   0  0  0  0  0  2  0  0  0  0  0  0
  161.7660  202.9970  152.1410 C   0  0  0  0  0  3  0  0  0  0  0  0
  162.1000  201.0450  147.4420 C   0  0  0  0  0  2  0  0  0  0  0  0
  161.9510  205.8350  145.7850 C   0  0  2  0  0  0  0  0  0  0  0  0
  160.4040  206.6540  147.7120 C   0  0  0  0  0  2  0  0  0  0  0  0
  161.0700  203.9210  151.1990 C   0  0  1  0  0  3  0  0  0  0  0  0
  162.8770  203.6230  146.7570 C   0  0  0  0  0  2  0  0  0  0  0  0
  160.9780  201.3280  149.6340 C   0  0  0  0  0  0  0  0  0  0  0  0
  161.1470  208.1910  149.5570 C   0  0  1  0  0  3  0  0  0  0  0  0
  161.2070  199.2000  148.6290 F   0  0  0  0  0  0  0  0  0  0  0  0
  162.7520  205.1430  146.9100 C   0  0  0  0  0  2  0  0  0  0  0  0
  161.2030  205.5410  143.4850 O   0  0  0  0  0  1  0  0  0  0  0  0
  160.5370  203.3580  147.2090 O   0  0  0  0  0  1  0  0  0  0  0  0
  160.4550  206.3330  151.0040 C   0  0  0  0  0  3  0  0  0  0  0  0
  159.2020  202.0510  144.5110 C   0  0  0  0  0  1  0  0  0  0  0  0
  159.6910  203.4840  144.5820 C   0  0  0  0  0  2  0  0  0  0  0  0
  161.9560  209.4530  149.8880 C   0  0  2  0  0  3  0  0  0  0  0  0
  162.6910  210.0800  148.6930 C   0  0  0  0  0  2  0  0  0  0  0  0
  163.2770  212.3670  147.8780 C   0  0  0  0  0  1  0  0  0  0  0  0
  162.1460  211.4420  148.2820 C   0  0  0  0  0  2  0  0  0  0  0  0
  162.8170  209.2320  150.9690 O   0  0  0  0  0  0  0  0  0  0  0  0
  161.5740  209.6130  152.9580 C   0  0  0  0  0  1  0  0  0  0  0  0
  162.4800  210.2120  151.9030 C   0  0  0  0  0  2  0  0  0  0  0  0
  1 21  1  0  0  0  0
  1 27  1  1  0  0  0
  2 24  1  0  0  0  0
  2 22  1  0  0  0  0
  4 30  1  1  0  0  0
  4  1  1  0  0  0  0
  5 23  1  0  0  0  0
  6 11  1  0  0  0  0
  7 19  1  0  0  0  0
  9  3  2  0  0  0  0
 10 28  2  0  0  0  0
 11 16  2  0  0  0  0
 12 26  1  6  0  0  0
 12  4  1  0  0  0  0
 12 18  1  0  0  0  0
 13  1  1  0  0  0  0
 13 17  1  0  0  0  0
 14  2  1  0  0  0  0
 17  2  1  0  0  0  0
 18  8  1  6  0  0  0
 18  7  1  0  0  0  0
 18 25  1  0  0  0  0
 19  5  1  0  0  0  0
 20  3  1  1  0  0  0
 20 15  1  0  0  0  0
 20 16  1  0  0  0  0
 21 25  1  0  0  0  0
 22  9  1  0  0  0  0
 22  6  2  0  0  0  0
 23 31  1  1  0  0  0
 23 10  1  0  0  0  0
 28 15  1  0  0  0  0
 29 30  1  0  0  0  0
 31 32  1  6  0  0  0
 31 35  1  0  0  0  0
 33 34  1  0  0  0  0
 34 32  1  0  0  0  0
 35 37  1  0  0  0  0
 37 36  1  0  0  0  0
M  END
>  <MODEL>
4

>  <REMARK>
 VINA RESULT:      -1.0      6.131      9.811
  Name = 
  6 active torsions:
  status: ('A' for Active; 'I' for Inactive)
    1  A    between atoms: C_2  and  C_6
    2  A    between atoms: C_2  and  C_35
    3  A    between atoms: C_5  and  C_23
    4  A    between atoms: C_6  and  O_8
    5  A    between atoms: C_6  and  C_31
    6  A    between atoms: O_8  and  C_19
                            x       y       z     vdW  Elec       q    Type
                         _______ _______ _______ _____ _____    ______ ____

>  <TORSDO>
F 6

$$$$
