=
 OpenBabel11062409263D

 34 39  0  0  1  0  0  0  0  0999 V2000
  161.6270  207.8890  151.4270 C   0  0  0  0  0  0  0  0  0  0  0  0
  161.4420  211.4690  150.5460 C   0  0  0  0  0  3  0  0  0  0  0  0
  160.9790  210.3150  152.6050 N   0  0  0  0  0  0  0  0  0  0  0  0
  161.5680  205.9070  152.2560 C   0  0  0  0  0  0  0  0  0  0  0  0
  161.8360  206.5930  151.1000 N   0  0  0  0  0  0  0  0  0  0  0  0
  160.7440  206.6370  154.6750 C   0  0  0  0  0  3  0  0  0  0  0  0
  160.4070  207.7710  155.3410 C   0  0  0  0  0  3  0  0  0  0  0  0
  161.1900  206.7770  153.2750 C   0  0  0  0  0  0  0  0  0  0  0  0
  160.9110  209.1590  153.3280 C   0  0  0  0  0  0  0  0  0  0  0  0
  161.2460  207.9890  152.7110 C   0  0  2  0  0  3  0  0  0  0  0  0
  160.4770  209.0770  154.6980 N   0  0  0  0  0  2  0  0  0  0  0  0
  161.8330  211.4530  149.1950 C   0  0  0  0  0  0  0  0  0  0  0  0
  162.1550  210.2230  148.5900 C   0  0  0  0  0  3  0  0  0  0  0  0
  161.3740  210.2860  151.2840 C   0  0  0  0  0  0  0  0  0  0  0  0
  162.0950  209.0260  149.3090 C   0  0  0  0  0  3  0  0  0  0  0  0
  161.7100  209.0460  150.6490 C   0  0  0  0  0  0  0  0  0  0  0  0
  162.6480  212.7430  147.2190 C   0  0  0  0  0  3  0  0  0  0  0  0
  161.2070  213.8750  148.9090 C   0  0  0  0  0  1  0  0  0  0  0  0
  162.7150  213.8100  146.5500 O   0  0  0  0  0  0  0  0  0  0  0  0
  161.9000  212.6800  148.4400 N   0  0  0  0  0  0  0  0  0  0  0  0
  161.5960  204.4140  152.3560 C   0  0  0  0  0  2  0  0  0  0  0  0
  160.4730  201.6190  149.9310 C   0  0  0  0  0  2  0  0  0  0  0  0
  161.1150  204.4070  149.8860 C   0  0  0  0  0  3  0  0  0  0  0  0
  160.7280  202.3600  146.2870 C   0  0  0  0  0  0  0  0  0  0  0  0
  160.5030  201.7320  147.4470 C   0  0  0  0  0  3  0  0  0  0  0  0
  161.1630  202.2080  148.7070 C   0  0  1  0  0  3  0  0  0  0  0  0
  161.4160  204.4880  147.4510 C   0  0  0  0  0  2  0  0  0  0  0  0
  161.2050  203.7260  148.7340 C   0  0  0  0  0  0  0  0  0  0  0  0
  161.6530  203.5510  146.2560 C   0  0  0  0  0  2  0  0  0  0  0  0
  160.8440  203.7330  151.2120 C   0  0  1  0  0  3  0  0  0  0  0  0
  161.0890  202.2210  151.1870 C   0  0  0  0  0  2  0  0  0  0  0  0
  160.1020  201.8760  145.0470 C   0  0  0  0  0  0  0  0  0  0  0  0
  160.1230  200.6490  144.7640 O   0  0  0  0  0  1  0  0  0  0  0  0
  159.4830  202.7660  144.1760 O   0  0  0  0  0  0  0  0  0  0  0  0
  2 14  1  0  0  0  0
  3  9  2  0  0  0  0
  4 21  1  0  0  0  0
  4  8  2  0  0  0  0
  5  1  2  0  0  0  0
  5  4  1  0  0  0  0
  6  7  2  0  0  0  0
  8  6  1  0  0  0  0
  9 11  1  0  0  0  0
 10  1  1  6  0  0  0
 10  8  1  0  0  0  0
 10  9  1  0  0  0  0
 11  7  1  0  0  0  0
 12  2  2  0  0  0  0
 13 12  1  0  0  0  0
 13 15  2  0  0  0  0
 14  3  1  0  0  0  0
 15 16  1  0  0  0  0
 16 14  2  0  0  0  0
 16  1  1  0  0  0  0
 17 20  1  0  0  0  0
 19 17  2  0  0  0  0
 20 18  1  0  0  0  0
 20 12  1  0  0  0  0
 22 31  1  0  0  0  0
 23 30  1  0  0  0  0
 24 25  2  0  0  0  0
 26 25  1  6  0  0  0
 26 28  1  0  0  0  0
 26 22  1  0  0  0  0
 27 28  1  0  0  0  0
 28 23  2  0  0  0  0
 29 24  1  0  0  0  0
 29 27  1  0  0  0  0
 30 21  1  1  0  0  0
 31 30  1  0  0  0  0
 32 24  1  0  0  0  0
 33 32  1  0  0  0  0
 34 32  2  0  0  0  0
M  END
>  <MODEL>
1

>  <REMARK>
 VINA RESULT:     -11.4      0.000      0.000
  Name = 
  4 active torsions:
  status: ('A' for Active; 'I' for Inactive)
    1  A    between atoms: C_7  and  C_11
    2  A    between atoms: C_8  and  C_18
    3  A    between atoms: C_18  and  C_30
    4  A    between atoms: C_23  and  N_25
                            x       y       z     vdW  Elec       q    Type
                         _______ _______ _______ _____ _____    ______ ____

>  <TORSDO>
F 4

$$$$
=
 OpenBabel11062409263D

 34 39  0  0  1  0  0  0  0  0999 V2000
  160.8340  208.0800  153.3000 C   0  0  0  0  0  0  0  0  0  0  0  0
  160.0420  211.5400  154.3100 C   0  0  0  0  0  3  0  0  0  0  0  0
  160.9380  210.6500  152.2640 N   0  0  0  0  0  0  0  0  0  0  0  0
  161.4550  206.2220  152.4170 C   0  0  0  0  0  0  0  0  0  0  0  0
  160.9340  206.7560  153.5660 N   0  0  0  0  0  2  0  0  0  0  0  0
  162.2530  207.2630  150.1040 C   0  0  0  0  0  3  0  0  0  0  0  0
  162.3430  208.4790  149.5070 C   0  0  0  0  0  3  0  0  0  0  0  0
  161.6790  207.2120  151.4630 C   0  0  0  0  0  0  0  0  0  0  0  0
  161.3520  209.5870  151.5120 C   0  0  0  0  0  0  0  0  0  0  0  0
  161.2760  208.3400  152.0590 C   0  0  0  0  0  0  0  0  0  0  0  0
  161.8970  209.6890  150.1850 N   0  0  0  0  0  2  0  0  0  0  0  0
  159.5640  211.3560  155.6210 C   0  0  0  0  0  0  0  0  0  0  0  0
  159.5170  210.0530  156.1550 C   0  0  0  0  0  3  0  0  0  0  0  0
  160.4620  210.4530  153.5440 C   0  0  0  0  0  0  0  0  0  0  0  0
  159.9330  208.9490  155.4050 C   0  0  0  0  0  3  0  0  0  0  0  0
  160.4020  209.1360  154.1060 C   0  0  0  0  0  0  0  0  0  0  0  0
  157.7370  212.7840  156.5440 C   0  0  0  0  0  3  0  0  0  0  0  0
  160.1080  213.3390  157.0720 C   0  0  0  0  0  1  0  0  0  0  0  0
  157.3450  213.7680  157.2280 O   0  0  0  0  0  0  0  0  0  0  0  0
  159.1310  212.4850  156.4060 N   0  0  0  0  0  0  0  0  0  0  0  0
  161.8130  204.7760  152.2660 C   0  0  0  0  0  2  0  0  0  0  0  0
  160.4660  201.9210  150.0340 C   0  0  0  0  0  2  0  0  0  0  0  0
  161.3100  204.6450  149.8050 C   0  0  0  0  0  3  0  0  0  0  0  0
  160.7410  202.4040  146.3470 C   0  0  0  0  0  0  0  0  0  0  0  0
  160.4820  201.8700  147.5470 C   0  0  0  0  0  3  0  0  0  0  0  0
  161.1860  202.3770  148.7700 C   0  0  1  0  0  3  0  0  0  0  0  0
  161.5940  204.5460  147.3680 C   0  0  0  0  0  2  0  0  0  0  0  0
  161.3390  203.8870  148.6990 C   0  0  0  0  0  0  0  0  0  0  0  0
  161.7510  203.5200  146.2350 C   0  0  0  0  0  2  0  0  0  0  0  0
  161.0030  204.0800  151.1720 C   0  0  1  0  0  3  0  0  0  0  0  0
  161.1370  202.5560  151.2440 C   0  0  0  0  0  2  0  0  0  0  0  0
  160.0700  201.8880  145.1450 C   0  0  0  0  0  0  0  0  0  0  0  0
  160.0680  200.6530  144.9020 O   0  0  0  0  0  1  0  0  0  0  0  0
  159.4340  202.7570  144.2660 O   0  0  0  0  0  0  0  0  0  0  0  0
  1  5  1  0  0  0  0
  1 16  1  0  0  0  0
  2 12  1  0  0  0  0
  3 14  1  0  0  0  0
  4  5  1  0  0  0  0
  6  8  1  0  0  0  0
  7  6  2  0  0  0  0
  7 11  1  0  0  0  0
  8 10  1  0  0  0  0
  8  4  2  0  0  0  0
  9 10  1  0  0  0  0
  9  3  2  0  0  0  0
 10  1  2  0  0  0  0
 11  9  1  0  0  0  0
 12 13  2  0  0  0  0
 12 20  1  0  0  0  0
 14 16  1  0  0  0  0
 14  2  2  0  0  0  0
 15 13  1  0  0  0  0
 16 15  2  0  0  0  0
 17 19  2  0  0  0  0
 20 17  1  0  0  0  0
 20 18  1  0  0  0  0
 21  4  1  0  0  0  0
 22 31  1  0  0  0  0
 23 30  1  0  0  0  0
 24 25  2  0  0  0  0
 26 25  1  6  0  0  0
 26 22  1  0  0  0  0
 27 28  1  0  0  0  0
 28 26  1  0  0  0  0
 28 23  2  0  0  0  0
 29 24  1  0  0  0  0
 29 27  1  0  0  0  0
 30 31  1  0  0  0  0
 30 21  1  1  0  0  0
 32 24  1  0  0  0  0
 33 32  1  0  0  0  0
 34 32  2  0  0  0  0
M  END
>  <MODEL>
2

>  <REMARK>
 VINA RESULT:     -10.8      2.846      4.493
  Name = 
  4 active torsions:
  status: ('A' for Active; 'I' for Inactive)
    1  A    between atoms: C_7  and  C_11
    2  A    between atoms: C_8  and  C_18
    3  A    between atoms: C_18  and  C_30
    4  A    between atoms: C_23  and  N_25
                            x       y       z     vdW  Elec       q    Type
                         _______ _______ _______ _____ _____    ______ ____

>  <TORSDO>
F 4

$$$$
=
 OpenBabel11062409263D

 34 39  0  0  1  0  0  0  0  0999 V2000
  161.6080  207.6060  149.5940 C   0  0  0  0  0  0  0  0  0  0  0  0
  161.0500  203.9590  149.6870 C   0  0  0  0  0  3  0  0  0  0  0  0
  160.9910  205.6180  151.4270 N   0  0  0  0  0  0  0  0  0  0  0  0
  161.9240  209.7080  149.9100 C   0  0  0  0  0  0  0  0  0  0  0  0
  161.9380  208.7420  148.9380 N   0  0  0  0  0  0  0  0  0  0  0  0
  161.4780  209.6690  152.5300 C   0  0  0  0  0  3  0  0  0  0  0  0
  161.1740  208.7720  153.5020 C   0  0  0  0  0  3  0  0  0  0  0  0
  161.5960  209.1630  151.1490 C   0  0  0  0  0  0  0  0  0  0  0  0
  161.1110  206.9160  151.8330 C   0  0  0  0  0  0  0  0  0  0  0  0
  161.4070  207.8630  150.8970 C   0  0  2  0  0  3  0  0  0  0  0  0
  160.9780  207.3610  153.1950 N   0  0  0  0  0  2  0  0  0  0  0  0
  161.2430  203.6030  148.3400 C   0  0  0  0  0  0  0  0  0  0  0  0
  161.5640  204.6080  147.4060 C   0  0  0  0  0  3  0  0  0  0  0  0
  161.1720  205.2860  150.1000 C   0  0  0  0  0  0  0  0  0  0  0  0
  161.6910  205.9440  147.7970 C   0  0  0  0  0  3  0  0  0  0  0  0
  161.4960  206.2920  149.1330 C   0  0  0  0  0  0  0  0  0  0  0  0
  160.9890  201.9000  146.5320 C   0  0  0  0  0  3  0  0  0  0  0  0
  161.1110  201.1540  148.9070 C   0  0  0  0  0  1  0  0  0  0  0  0
  160.8770  200.7030  146.1530 O   0  0  0  0  0  0  0  0  0  0  0  0
  161.1150  202.2290  147.9210 N   0  0  0  0  0  0  0  0  0  0  0  0
  162.3040  211.1350  149.6630 C   0  0  0  0  0  2  0  0  0  0  0  0
  162.8010  213.2170  146.4430 C   0  0  0  0  0  2  0  0  0  0  0  0
  160.8060  211.5900  147.6940 C   0  0  0  0  0  3  0  0  0  0  0  0
  159.7500  213.9320  144.4240 C   0  0  0  0  0  0  0  0  0  0  0  0
  161.0180  213.9030  144.8500 C   0  0  0  0  0  3  0  0  0  0  0  0
  161.3290  213.5800  146.2810 C   0  0  1  0  0  3  0  0  0  0  0  0
  158.9710  212.4510  146.3090 C   0  0  0  0  0  2  0  0  0  0  0  0
  160.4000  212.4890  146.7860 C   0  0  0  0  0  0  0  0  0  0  0  0
  158.6340  213.6400  145.3960 C   0  0  0  0  0  2  0  0  0  0  0  0
  162.2340  211.5160  148.1850 C   0  0  1  0  0  3  0  0  0  0  0  0
  163.0480  212.7770  147.8800 C   0  0  0  0  0  2  0  0  0  0  0  0
  159.4440  214.2760  143.0270 C   0  0  0  0  0  0  0  0  0  0  0  0
  158.2500  214.4270  142.6580 O   0  0  0  0  0  1  0  0  0  0  0  0
  160.4690  214.4370  142.1010 O   0  0  0  0  0  0  0  0  0  0  0  0
  2 14  1  0  0  0  0
  3  9  2  0  0  0  0
  4  8  2  0  0  0  0
  5  1  2  0  0  0  0
  5  4  1  0  0  0  0
  6  7  2  0  0  0  0
  8  6  1  0  0  0  0
  9 11  1  0  0  0  0
 10  1  1  1  0  0  0
 10  8  1  0  0  0  0
 10  9  1  0  0  0  0
 11  7  1  0  0  0  0
 12  2  2  0  0  0  0
 13 15  2  0  0  0  0
 13 12  1  0  0  0  0
 14  3  1  0  0  0  0
 15 16  1  0  0  0  0
 16  1  1  0  0  0  0
 16 14  2  0  0  0  0
 17 20  1  0  0  0  0
 19 17  2  0  0  0  0
 20 12  1  0  0  0  0
 20 18  1  0  0  0  0
 21  4  1  0  0  0  0
 22 31  1  0  0  0  0
 23 30  1  0  0  0  0
 24 25  2  0  0  0  0
 24 29  1  0  0  0  0
 26 25  1  6  0  0  0
 26 22  1  0  0  0  0
 26 28  1  0  0  0  0
 27 28  1  0  0  0  0
 28 23  2  0  0  0  0
 29 27  1  0  0  0  0
 30 21  1  1  0  0  0
 31 30  1  0  0  0  0
 32 24  1  0  0  0  0
 33 32  1  0  0  0  0
 34 32  2  0  0  0  0
M  END
>  <MODEL>
3

>  <REMARK>
 VINA RESULT:     -10.2      2.605      8.611
  Name = 
  4 active torsions:
  status: ('A' for Active; 'I' for Inactive)
    1  A    between atoms: C_7  and  C_11
    2  A    between atoms: C_8  and  C_18
    3  A    between atoms: C_18  and  C_30
    4  A    between atoms: C_23  and  N_25
                            x       y       z     vdW  Elec       q    Type
                         _______ _______ _______ _____ _____    ______ ____

>  <TORSDO>
F 4

$$$$
=
 OpenBabel11062409263D

 34 39  0  0  1  0  0  0  0  0999 V2000
  161.1780  205.0390  151.2070 C   0  0  0  0  0  0  0  0  0  0  0  0
  161.2750  203.7110  147.7640 C   0  0  0  0  0  3  0  0  0  0  0  0
  161.5940  205.9380  148.6160 N   0  0  0  0  0  0  0  0  0  0  0  0
  161.1380  206.1450  153.0490 C   0  0  0  0  0  0  0  0  0  0  0  0
  160.9730  204.8850  152.5360 N   0  0  0  0  0  2  0  0  0  0  0  0
  161.6530  208.5170  151.9640 C   0  0  0  0  0  2  0  0  0  0  0  0
  161.8700  209.0540  150.7370 C   0  0  0  0  0  3  0  0  0  0  0  0
  161.4320  207.0590  152.0410 C   0  0  0  0  0  0  0  0  0  0  0  0
  161.6510  206.8100  149.6650 C   0  0  0  0  0  0  0  0  0  0  0  0
  161.4480  206.3230  150.9230 C   0  0  0  0  0  0  0  0  0  0  0  0
  161.8790  208.2250  149.5380 N   0  0  0  0  0  0  0  0  0  0  0  0
  161.0000  202.3470  147.9740 C   0  0  0  0  0  0  0  0  0  0  0  0
  160.7790  201.8870  149.2870 C   0  0  0  0  0  3  0  0  0  0  0  0
  161.3340  204.6010  148.8380 C   0  0  0  0  0  0  0  0  0  0  0  0
  160.8330  202.7600  150.3780 C   0  0  0  0  0  3  0  0  0  0  0  0
  161.1100  204.1100  150.1650 C   0  0  0  0  0  0  0  0  0  0  0  0
  161.3600  200.0720  147.0110 C   0  0  0  0  0  3  0  0  0  0  0  0
  160.4550  201.8850  145.5600 C   0  0  0  0  0  1  0  0  0  0  0  0
  161.3140  199.2640  146.0450 O   0  0  0  0  0  0  0  0  0  0  0  0
  160.9410  201.4340  146.8590 N   0  0  0  0  0  0  0  0  0  0  0  0
  160.9330  206.4830  154.4930 C   0  0  0  0  0  2  0  0  0  0  0  0
  161.9920  209.6590  156.4280 C   0  0  0  0  0  2  0  0  0  0  0  0
  159.8660  208.7470  154.7420 C   0  0  0  0  0  3  0  0  0  0  0  0
  159.4060  212.3140  156.8320 C   0  0  0  0  0  0  0  0  0  0  0  0
  160.5550  211.6310  156.9080 C   0  0  0  0  0  3  0  0  0  0  0  0
  160.5720  210.1480  156.6840 C   0  0  1  0  0  3  0  0  0  0  0  0
  158.3240  210.5390  155.4050 C   0  0  0  0  0  2  0  0  0  0  0  0
  159.6150  209.7780  155.5630 C   0  0  0  0  0  0  0  0  0  0  0  0
  158.1270  211.5790  156.5190 C   0  0  0  0  0  2  0  0  0  0  0  0
  161.1590  207.9650  154.7890 C   0  0  1  0  0  3  0  0  0  0  0  0
  161.9520  208.1760  156.0820 C   0  0  0  0  0  2  0  0  0  0  0  0
  159.3870  213.7630  157.0790 C   0  0  0  0  0  0  0  0  0  0  0  0
  160.4660  214.4090  157.1450 O   0  0  0  0  0  0  0  0  0  0  0  0
  158.1800  214.4330  157.2440 O   0  0  0  0  0  1  0  0  0  0  0  0
  1  5  1  0  0  0  0
  2 12  2  0  0  0  0
  2 14  1  0  0  0  0
  3 14  1  0  0  0  0
  3  9  2  0  0  0  0
  4 21  1  0  0  0  0
  5  4  1  0  0  0  0
  6  8  1  0  0  0  0
  7  6  1  0  0  0  0
  8  4  2  0  0  0  0
  9 10  1  0  0  0  0
 10  1  2  0  0  0  0
 10  8  1  0  0  0  0
 11  9  1  0  0  0  0
 11  7  2  0  0  0  0
 12 13  1  0  0  0  0
 13 15  2  0  0  0  0
 14 16  2  0  0  0  0
 16 15  1  0  0  0  0
 16  1  1  0  0  0  0
 18 20  1  0  0  0  0
 19 17  2  0  0  0  0
 20 17  1  0  0  0  0
 20 12  1  0  0  0  0
 23 30  1  0  0  0  0
 23 28  2  0  0  0  0
 24 25  2  0  0  0  0
 24 32  1  0  0  0  0
 26 22  1  6  0  0  0
 26 25  1  0  0  0  0
 27 28  1  0  0  0  0
 27 29  1  0  0  0  0
 28 26  1  0  0  0  0
 29 24  1  0  0  0  0
 30 21  1  1  0  0  0
 30 31  1  0  0  0  0
 31 22  1  0  0  0  0
 32 33  2  0  0  0  0
 32 34  1  0  0  0  0
M  END
>  <MODEL>
4

>  <REMARK>
 VINA RESULT:     -10.1      3.742      9.748
  Name = 
  4 active torsions:
  status: ('A' for Active; 'I' for Inactive)
    1  A    between atoms: C_7  and  C_11
    2  A    between atoms: C_8  and  C_18
    3  A    between atoms: C_18  and  C_30
    4  A    between atoms: C_23  and  N_25
                            x       y       z     vdW  Elec       q    Type
                         _______ _______ _______ _____ _____    ______ ____

>  <TORSDO>
F 4

$$$$
=
 OpenBabel11062409263D

 34 39  0  0  1  0  0  0  0  0999 V2000
  161.4040  205.4730  149.6330 C   0  0  0  0  0  0  0  0  0  0  0  0
  160.7770  202.0560  148.3850 C   0  0  0  0  0  3  0  0  0  0  0  0
  160.7830  202.9550  150.6160 N   0  0  0  0  0  0  0  0  0  0  0  0
  161.7670  207.3050  150.6960 C   0  0  0  0  0  0  0  0  0  0  0  0
  161.7440  206.7680  149.4350 N   0  0  0  0  0  0  0  0  0  0  0  0
  161.3700  206.3040  153.1260 C   0  0  0  0  0  2  0  0  0  0  0  0
  161.0670  205.1140  153.7050 C   0  0  0  0  0  3  0  0  0  0  0  0
  161.4520  206.3440  151.6530 C   0  0  0  0  0  0  0  0  0  0  0  0
  160.9360  204.0090  151.4700 C   0  0  0  0  0  0  0  0  0  0  0  0
  161.2330  205.2310  150.9430 C   0  0  2  0  0  3  0  0  0  0  0  0
  160.8370  203.9190  152.9030 N   0  0  0  0  0  0  0  0  0  0  0  0
  160.9370  202.2230  146.9960 C   0  0  0  0  0  0  0  0  0  0  0  0
  161.2610  203.4990  146.4930 C   0  0  0  0  0  3  0  0  0  0  0  0
  160.9320  203.1350  149.2560 C   0  0  0  0  0  0  0  0  0  0  0  0
  161.4210  204.5930  147.3470 C   0  0  0  0  0  3  0  0  0  0  0  0
  161.2580  204.4240  148.7210 C   0  0  0  0  0  0  0  0  0  0  0  0
  161.3730  199.8370  146.4070 C   0  0  0  0  0  3  0  0  0  0  0  0
  159.9990  201.2440  144.8750 C   0  0  0  0  0  1  0  0  0  0  0  0
  161.2390  198.8500  145.6340 O   0  0  0  0  0  0  0  0  0  0  0  0
  160.7750  201.1030  146.1030 N   0  0  0  0  0  0  0  0  0  0  0  0
  162.1700  208.7170  150.9850 C   0  0  0  0  0  2  0  0  0  0  0  0
  160.1510  211.8380  152.0490 C   0  0  0  0  0  2  0  0  0  0  0  0
  160.8050  209.2320  153.0340 C   0  0  0  0  0  3  0  0  0  0  0  0
  159.0510  211.9880  155.6080 C   0  0  0  0  0  0  0  0  0  0  0  0
  159.2570  212.3020  154.3230 C   0  0  0  0  0  3  0  0  0  0  0  0
  160.3510  211.6320  153.5460 C   0  0  1  0  0  3  0  0  0  0  0  0
  160.1800  209.7490  155.3520 C   0  0  0  0  0  2  0  0  0  0  0  0
  160.4410  210.1650  153.9270 C   0  0  0  0  0  0  0  0  0  0  0  0
  159.9290  210.9560  156.2690 C   0  0  0  0  0  2  0  0  0  0  0  0
  161.0290  209.5470  151.5730 C   0  0  1  0  0  3  0  0  0  0  0  0
  161.2060  211.0420  151.2930 C   0  0  0  0  0  2  0  0  0  0  0  0
  157.9960  212.6660  156.3770 C   0  0  0  0  0  0  0  0  0  0  0  0
  158.0700  213.9020  156.6010 O   0  0  0  0  0  0  0  0  0  0  0  0
  156.9080  211.9490  156.8630 O   0  0  0  0  0  1  0  0  0  0  0  0
  2 14  1  0  0  0  0
  3  9  2  0  0  0  0
  4 21  1  0  0  0  0
  4  8  2  0  0  0  0
  5  1  2  0  0  0  0
  5  4  1  0  0  0  0
  6  7  1  0  0  0  0
  8  6  1  0  0  0  0
  9 11  1  0  0  0  0
 10  1  1  1  0  0  0
 10  9  1  0  0  0  0
 10  8  1  0  0  0  0
 11  7  2  0  0  0  0
 12  2  2  0  0  0  0
 13 12  1  0  0  0  0
 13 15  2  0  0  0  0
 14  3  1  0  0  0  0
 15 16  1  0  0  0  0
 16 14  2  0  0  0  0
 16  1  1  0  0  0  0
 18 20  1  0  0  0  0
 19 17  2  0  0  0  0
 20 17  1  0  0  0  0
 20 12  1  0  0  0  0
 23 28  2  0  0  0  0
 24 29  1  0  0  0  0
 24 32  1  0  0  0  0
 25 24  2  0  0  0  0
 26 22  1  6  0  0  0
 26 28  1  0  0  0  0
 26 25  1  0  0  0  0
 27 29  1  0  0  0  0
 28 27  1  0  0  0  0
 30 21  1  1  0  0  0
 30 23  1  0  0  0  0
 31 30  1  0  0  0  0
 31 22  1  0  0  0  0
 32 33  2  0  0  0  0
 32 34  1  0  0  0  0
M  END
>  <MODEL>
5

>  <REMARK>
 VINA RESULT:     -10.0      3.685      9.525
  Name = 
  4 active torsions:
  status: ('A' for Active; 'I' for Inactive)
    1  A    between atoms: C_7  and  C_11
    2  A    between atoms: C_8  and  C_18
    3  A    between atoms: C_18  and  C_30
    4  A    between atoms: C_23  and  N_25
                            x       y       z     vdW  Elec       q    Type
                         _______ _______ _______ _____ _____    ______ ____

>  <TORSDO>
F 4

$$$$
=
 OpenBabel11062409263D

 34 39  0  0  1  0  0  0  0  0999 V2000
  161.4090  207.0700  151.5380 C   0  0  0  0  0  0  0  0  0  0  0  0
  161.2950  204.9080  148.5480 C   0  0  0  0  0  3  0  0  0  0  0  0
  161.6300  207.2780  148.7810 N   0  0  0  0  0  0  0  0  0  0  0  0
  161.4740  208.6090  153.0360 C   0  0  0  0  0  0  0  0  0  0  0  0
  161.2980  207.2600  152.8730 N   0  0  0  0  0  2  0  0  0  0  0  0
  161.8680  210.6260  151.3490 C   0  0  0  0  0  2  0  0  0  0  0  0
  161.9910  210.8330  150.0140 C   0  0  0  0  0  3  0  0  0  0  0  0
  161.6800  209.2360  151.8100 C   0  0  0  0  0  0  0  0  0  0  0  0
  161.7410  208.3890  149.5660 C   0  0  0  0  0  0  0  0  0  0  0  0
  161.6340  208.2400  150.9180 C   0  0  0  0  0  0  0  0  0  0  0  0
  161.9330  209.7250  149.0680 N   0  0  0  0  0  0  0  0  0  0  0  0
  161.0610  203.6420  149.1170 C   0  0  0  0  0  0  0  0  0  0  0  0
  160.9390  203.5320  150.5160 C   0  0  0  0  0  3  0  0  0  0  0  0
  161.4100  206.0420  149.3530 C   0  0  0  0  0  0  0  0  0  0  0  0
  161.0510  204.6550  151.3420 C   0  0  0  0  0  3  0  0  0  0  0  0
  161.2870  205.9060  150.7740 C   0  0  0  0  0  0  0  0  0  0  0  0
  160.9320  202.6030  146.8510 C   0  0  0  0  0  3  0  0  0  0  0  0
  160.8340  201.1470  148.8720 C   0  0  0  0  0  1  0  0  0  0  0  0
  160.8290  201.5900  146.1070 O   0  0  0  0  0  0  0  0  0  0  0  0
  160.9440  202.4750  148.2780 N   0  0  0  0  0  0  0  0  0  0  0  0
  161.3620  209.3040  154.3570 C   0  0  0  0  0  2  0  0  0  0  0  0
  159.8370  212.7080  155.3750 C   0  0  0  0  0  2  0  0  0  0  0  0
  159.0040  210.1810  154.3210 C   0  0  0  0  0  3  0  0  0  0  0  0
  156.1240  212.8570  155.6790 C   0  0  0  0  0  0  0  0  0  0  0  0
  157.4190  213.1980  155.6880 C   0  0  0  0  0  3  0  0  0  0  0  0
  158.4800  212.1410  155.7740 C   0  0  1  0  0  3  0  0  0  0  0  0
  156.6350  210.5260  154.8660 C   0  0  0  0  0  2  0  0  0  0  0  0
  158.0840  210.9330  154.9440 C   0  0  0  0  0  0  0  0  0  0  0  0
  155.7410  211.4010  155.7580 C   0  0  0  0  0  2  0  0  0  0  0  0
  160.4710  210.5450  154.2960 C   0  0  1  0  0  3  0  0  0  0  0  0
  160.8600  211.5800  155.3550 C   0  0  0  0  0  2  0  0  0  0  0  0
  155.0850  213.8950  155.6220 C   0  0  0  0  0  0  0  0  0  0  0  0
  154.6870  214.4530  156.6790 O   0  0  0  0  0  1  0  0  0  0  0  0
  154.5300  214.2700  154.4030 O   0  0  0  0  0  0  0  0  0  0  0  0
  1  5  1  0  0  0  0
  2 12  2  0  0  0  0
  2 14  1  0  0  0  0
  3 14  1  0  0  0  0
  3  9  2  0  0  0  0
  4 21  1  0  0  0  0
  5  4  1  0  0  0  0
  6  8  1  0  0  0  0
  7  6  1  0  0  0  0
  8  4  2  0  0  0  0
  9 10  1  0  0  0  0
 10  1  2  0  0  0  0
 10  8  1  0  0  0  0
 11  9  1  0  0  0  0
 11  7  2  0  0  0  0
 12 13  1  0  0  0  0
 13 15  2  0  0  0  0
 14 16  2  0  0  0  0
 16 15  1  0  0  0  0
 16  1  1  0  0  0  0
 17 20  1  0  0  0  0
 19 17  2  0  0  0  0
 20 18  1  0  0  0  0
 20 12  1  0  0  0  0
 23 28  2  0  0  0  0
 24 25  2  0  0  0  0
 24 29  1  0  0  0  0
 25 26  1  0  0  0  0
 26 22  1  6  0  0  0
 27 28  1  0  0  0  0
 27 29  1  0  0  0  0
 28 26  1  0  0  0  0
 30 23  1  0  0  0  0
 30 21  1  1  0  0  0
 30 31  1  0  0  0  0
 31 22  1  0  0  0  0
 32 24  1  0  0  0  0
 32 33  1  0  0  0  0
 34 32  2  0  0  0  0
M  END
>  <MODEL>
6

>  <REMARK>
 VINA RESULT:      -9.2      4.293      9.698
  Name = 
  4 active torsions:
  status: ('A' for Active; 'I' for Inactive)
    1  A    between atoms: C_7  and  C_11
    2  A    between atoms: C_8  and  C_18
    3  A    between atoms: C_18  and  C_30
    4  A    between atoms: C_23  and  N_25
                            x       y       z     vdW  Elec       q    Type
                         _______ _______ _______ _____ _____    ______ ____

>  <TORSDO>
F 4

$$$$
=
 OpenBabel11062409263D

 34 39  0  0  1  0  0  0  0  0999 V2000
  160.7240  209.5270  152.6540 C   0  0  0  0  0  0  0  0  0  0  0  0
  159.2530  211.1380  155.6320 C   0  0  0  0  0  3  0  0  0  0  0  0
  160.0700  208.9040  155.2760 N   0  0  0  0  0  0  0  0  0  0  0  0
  161.5520  208.2760  151.1160 C   0  0  0  0  0  0  0  0  0  0  0  0
  161.0910  209.5440  151.3510 N   0  0  0  0  0  0  0  0  0  0  0  0
  161.7350  206.0820  152.6070 C   0  0  0  0  0  3  0  0  0  0  0  0
  161.4520  205.6790  153.8710 C   0  0  0  0  0  3  0  0  0  0  0  0
  161.4580  207.4900  152.2620 C   0  0  0  0  0  0  0  0  0  0  0  0
  160.6310  207.9610  154.4640 C   0  0  0  0  0  0  0  0  0  0  0  0
  160.9440  208.3130  153.1840 C   0  0  2  0  0  3  0  0  0  0  0  0
  160.8900  206.6000  154.8520 N   0  0  0  0  0  2  0  0  0  0  0  0
  158.9910  212.4360  155.1570 C   0  0  0  0  0  0  0  0  0  0  0  0
  159.3130  212.7550  153.8230 C   0  0  0  0  0  3  0  0  0  0  0  0
  159.8280  210.1760  154.8000 C   0  0  0  0  0  0  0  0  0  0  0  0
  159.8900  211.8080  152.9720 C   0  0  0  0  0  3  0  0  0  0  0  0
  160.1510  210.5240  153.4480 C   0  0  0  0  0  0  0  0  0  0  0  0
  156.9740  213.5920  156.0670 C   0  0  0  0  0  3  0  0  0  0  0  0
  159.2360  214.2690  156.8650 C   0  0  0  0  0  1  0  0  0  0  0  0
  156.4420  214.4530  156.8200 O   0  0  0  0  0  0  0  0  0  0  0  0
  158.3970  213.4250  156.0220 N   0  0  0  0  0  0  0  0  0  0  0  0
  162.0040  207.7970  149.7720 C   0  0  0  0  0  2  0  0  0  0  0  0
  161.0670  204.0550  149.5050 C   0  0  0  0  0  2  0  0  0  0  0  0
  161.3560  206.3490  147.8190 C   0  0  0  0  0  3  0  0  0  0  0  0
  160.9740  202.5910  146.0780 C   0  0  0  0  0  0  0  0  0  0  0  0
  160.9100  202.7270  147.4080 C   0  0  0  0  0  3  0  0  0  0  0  0
  161.5920  203.8780  148.0850 C   0  0  1  0  0  3  0  0  0  0  0  0
  161.4750  205.0400  145.7450 C   0  0  0  0  0  2  0  0  0  0  0  0
  161.4490  205.1380  147.2490 C   0  0  0  0  0  0  0  0  0  0  0  0
  161.7410  203.6050  145.2650 C   0  0  0  0  0  2  0  0  0  0  0  0
  161.2640  206.5400  149.3150 C   0  0  1  0  0  3  0  0  0  0  0  0
  161.6910  205.3040  150.1140 C   0  0  0  0  0  2  0  0  0  0  0  0
  160.3280  201.4470  145.4170 C   0  0  0  0  0  0  0  0  0  0  0  0
  160.6620  200.2710  145.7180 O   0  0  0  0  0  1  0  0  0  0  0  0
  159.3450  201.6530  144.4550 O   0  0  0  0  0  0  0  0  0  0  0  0
  1 10  1  0  0  0  0
  1 16  1  0  0  0  0
  4  5  1  0  0  0  0
  4  8  2  0  0  0  0
  5  1  2  0  0  0  0
  6  7  2  0  0  0  0
  7 11  1  0  0  0  0
  8  6  1  0  0  0  0
  9 11  1  0  0  0  0
  9  3  2  0  0  0  0
 10  8  1  6  0  0  0
 10  9  1  0  0  0  0
 12  2  1  0  0  0  0
 12 20  1  0  0  0  0
 13 12  2  0  0  0  0
 14  3  1  0  0  0  0
 14  2  2  0  0  0  0
 15 16  2  0  0  0  0
 15 13  1  0  0  0  0
 16 14  1  0  0  0  0
 17 19  2  0  0  0  0
 20 17  1  0  0  0  0
 20 18  1  0  0  0  0
 21  4  1  0  0  0  0
 22 31  1  0  0  0  0
 23 30  1  0  0  0  0
 24 25  2  0  0  0  0
 26 25  1  6  0  0  0
 26 22  1  0  0  0  0
 27 28  1  0  0  0  0
 28 23  2  0  0  0  0
 28 26  1  0  0  0  0
 29 27  1  0  0  0  0
 29 24  1  0  0  0  0
 30 21  1  1  0  0  0
 30 31  1  0  0  0  0
 32 33  1  0  0  0  0
 32 24  1  0  0  0  0
 34 32  2  0  0  0  0
M  END
>  <MODEL>
7

>  <REMARK>
 VINA RESULT:      -9.1      3.200      4.511
  Name = 
  4 active torsions:
  status: ('A' for Active; 'I' for Inactive)
    1  A    between atoms: C_7  and  C_11
    2  A    between atoms: C_8  and  C_18
    3  A    between atoms: C_18  and  C_30
    4  A    between atoms: C_23  and  N_25
                            x       y       z     vdW  Elec       q    Type
                         _______ _______ _______ _____ _____    ______ ____

>  <TORSDO>
F 4

$$$$
=
 OpenBabel11062409263D

 34 39  0  0  1  0  0  0  0  0999 V2000
  160.2850  209.1780  153.8630 C   0  0  0  0  0  0  0  0  0  0  0  0
  158.9780  212.5470  154.6150 C   0  0  0  0  0  3  0  0  0  0  0  0
  160.2800  211.7260  152.7670 N   0  0  0  0  0  0  0  0  0  0  0  0
  161.2330  207.3850  153.1530 C   0  0  0  0  0  0  0  0  0  0  0  0
  160.4810  207.8790  154.1870 N   0  0  0  0  0  2  0  0  0  0  0  0
  162.2760  208.4670  150.9610 C   0  0  0  0  0  2  0  0  0  0  0  0
  162.3310  209.6750  150.3440 C   0  0  0  0  0  3  0  0  0  0  0  0
  161.5010  208.3770  152.2140 C   0  0  0  0  0  0  0  0  0  0  0  0
  160.9190  210.7020  152.1280 C   0  0  0  0  0  0  0  0  0  0  0  0
  160.8890  209.4640  152.6990 C   0  0  0  0  0  0  0  0  0  0  0  0
  161.6560  210.8410  150.9000 N   0  0  0  0  0  0  0  0  0  0  0  0
  158.3180  212.3330  155.8390 C   0  0  0  0  0  0  0  0  0  0  0  0
  158.3250  211.0430  156.4050 C   0  0  0  0  0  3  0  0  0  0  0  0
  159.6280  211.4990  153.9620 C   0  0  0  0  0  0  0  0  0  0  0  0
  158.9700  209.9780  155.7680 C   0  0  0  0  0  3  0  0  0  0  0  0
  159.6190  210.1940  154.5530 C   0  0  0  0  0  0  0  0  0  0  0  0
  156.2170  213.5070  156.5030 C   0  0  0  0  0  3  0  0  0  0  0  0
  158.4170  214.4510  157.1970 C   0  0  0  0  0  1  0  0  0  0  0  0
  155.6190  214.4530  157.0830 O   0  0  0  0  0  0  0  0  0  0  0  0
  157.6480  213.4210  156.5070 N   0  0  0  0  0  0  0  0  0  0  0  0
  161.7620  205.9850  153.1110 C   0  0  0  0  0  2  0  0  0  0  0  0
  160.8550  205.3060  149.4140 C   0  0  0  0  0  2  0  0  0  0  0  0
  161.9730  203.9370  151.6660 C   0  0  0  0  0  3  0  0  0  0  0  0
  160.8300  201.7410  148.3240 C   0  0  0  0  0  0  0  0  0  0  0  0
  160.7230  203.0750  148.3220 C   0  0  0  0  0  3  0  0  0  0  0  0
  160.5600  203.8230  149.6120 C   0  0  1  0  0  3  0  0  0  0  0  0
  161.6070  201.7000  150.7220 C   0  0  0  0  0  2  0  0  0  0  0  0
  161.4200  203.1960  150.6940 C   0  0  0  0  0  0  0  0  0  0  0  0
  160.7820  200.9950  149.6340 C   0  0  0  0  0  2  0  0  0  0  0  0
  161.8880  205.4460  151.6870 C   0  0  1  0  0  3  0  0  0  0  0  0
  160.8000  206.0070  150.7650 C   0  0  0  0  0  2  0  0  0  0  0  0
  160.9630  201.0060  147.0570 C   0  0  0  0  0  0  0  0  0  0  0  0
  161.5220  199.8780  147.0350 O   0  0  0  0  0  1  0  0  0  0  0  0
  160.4750  201.5490  145.8740 O   0  0  0  0  0  0  0  0  0  0  0  0
  1  5  1  0  0  0  0
  1 16  1  0  0  0  0
  2 12  1  0  0  0  0
  3 14  1  0  0  0  0
  4  5  1  0  0  0  0
  6  8  1  0  0  0  0
  7 11  2  0  0  0  0
  7  6  1  0  0  0  0
  8 10  1  0  0  0  0
  8  4  2  0  0  0  0
  9 10  1  0  0  0  0
  9  3  2  0  0  0  0
 10  1  2  0  0  0  0
 11  9  1  0  0  0  0
 12 13  2  0  0  0  0
 12 20  1  0  0  0  0
 14 16  1  0  0  0  0
 14  2  2  0  0  0  0
 15 13  1  0  0  0  0
 16 15  2  0  0  0  0
 17 20  1  0  0  0  0
 17 19  2  0  0  0  0
 20 18  1  0  0  0  0
 21  4  1  0  0  0  0
 22 26  1  0  0  0  0
 22 31  1  0  0  0  0
 23 30  1  0  0  0  0
 24 29  1  0  0  0  0
 25 24  2  0  0  0  0
 26 25  1  6  0  0  0
 26 28  1  0  0  0  0
 28 27  1  0  0  0  0
 28 23  2  0  0  0  0
 29 27  1  0  0  0  0
 30 21  1  1  0  0  0
 31 30  1  0  0  0  0
 32 24  1  0  0  0  0
 33 32  1  0  0  0  0
 34 32  2  0  0  0  0
M  END
>  <MODEL>
8

>  <REMARK>
 VINA RESULT:      -8.9      3.434      5.181
  Name = 
  4 active torsions:
  status: ('A' for Active; 'I' for Inactive)
    1  A    between atoms: C_7  and  C_11
    2  A    between atoms: C_8  and  C_18
    3  A    between atoms: C_18  and  C_30
    4  A    between atoms: C_23  and  N_25
                            x       y       z     vdW  Elec       q    Type
                         _______ _______ _______ _____ _____    ______ ____

>  <TORSDO>
F 4

$$$$
=
 OpenBabel11062409263D

 34 39  0  0  1  0  0  0  0  0999 V2000
  161.8510  208.4240  148.9350 C   0  0  0  0  0  0  0  0  0  0  0  0
  161.1700  204.7990  149.0790 C   0  0  0  0  0  3  0  0  0  0  0  0
  161.0870  206.4990  150.7790 N   0  0  0  0  0  0  0  0  0  0  0  0
  162.2210  210.5210  149.2210 C   0  0  0  0  0  0  0  0  0  0  0  0
  162.2480  209.5340  148.2710 N   0  0  0  0  0  0  0  0  0  0  0  0
  161.6570  210.5550  151.8180 C   0  0  0  0  0  3  0  0  0  0  0  0
  161.2800  209.6900  152.7940 C   0  0  0  0  0  3  0  0  0  0  0  0
  161.8200  210.0150  150.4540 C   0  0  0  0  0  0  0  0  0  0  0  0
  161.2310  207.8010  151.1630 C   0  0  0  0  0  0  0  0  0  0  0  0
  161.6000  208.7160  150.2210 C   0  0  2  0  0  3  0  0  0  0  0  0
  161.0510  208.2800  152.5080 N   0  0  0  0  0  2  0  0  0  0  0  0
  161.4120  204.4080  147.7490 C   0  0  0  0  0  0  0  0  0  0  0  0
  161.8080  205.3810  146.8110 C   0  0  0  0  0  3  0  0  0  0  0  0
  161.3170  206.1310  149.4690 C   0  0  0  0  0  0  0  0  0  0  0  0
  161.9610  206.7210  147.1790 C   0  0  0  0  0  3  0  0  0  0  0  0
  161.7170  207.1040  148.4970 C   0  0  0  0  0  0  0  0  0  0  0  0
  161.1560  201.9960  148.3420 C   0  0  0  0  0  3  0  0  0  0  0  0
  161.2050  202.6670  145.9420 C   0  0  0  0  0  1  0  0  0  0  0  0
  161.0220  200.7870  148.0100 O   0  0  0  0  0  0  0  0  0  0  0  0
  161.2580  203.0300  147.3540 N   0  0  0  0  0  0  0  0  0  0  0  0
  162.6590  211.9300  148.9620 C   0  0  0  0  0  2  0  0  0  0  0  0
  159.7570  212.5030  146.4710 C   0  0  0  0  0  2  0  0  0  0  0  0
  162.5730  212.9690  146.6730 C   0  0  0  0  0  3  0  0  0  0  0  0
  160.7000  213.4520  142.9910 C   0  0  0  0  0  0  0  0  0  0  0  0
  159.9830  213.1330  144.0760 C   0  0  0  0  0  3  0  0  0  0  0  0
  160.6230  212.4060  145.2210 C   0  0  1  0  0  3  0  0  0  0  0  0
  162.8730  213.3330  144.2630 C   0  0  0  0  0  2  0  0  0  0  0  0
  162.0340  212.9230  145.4460 C   0  0  0  0  0  0  0  0  0  0  0  0
  162.1580  213.0710  142.9290 C   0  0  0  0  0  2  0  0  0  0  0  0
  161.7900  212.6340  147.9210 C   0  0  1  0  0  3  0  0  0  0  0  0
  160.4970  211.8630  147.6380 C   0  0  0  0  0  2  0  0  0  0  0  0
  160.0650  214.1400  141.8580 C   0  0  0  0  0  0  0  0  0  0  0  0
  158.8450  214.4510  141.9080 O   0  0  0  0  0  1  0  0  0  0  0  0
  160.8020  214.4530  140.7210 O   0  0  0  0  0  0  0  0  0  0  0  0
  2 14  1  0  0  0  0
  3  9  2  0  0  0  0
  4  8  2  0  0  0  0
  5  1  2  0  0  0  0
  5  4  1  0  0  0  0
  6  7  2  0  0  0  0
  8  6  1  0  0  0  0
  9 11  1  0  0  0  0
 10  1  1  1  0  0  0
 10  8  1  0  0  0  0
 10  9  1  0  0  0  0
 11  7  1  0  0  0  0
 12  2  2  0  0  0  0
 13 15  2  0  0  0  0
 13 12  1  0  0  0  0
 14  3  1  0  0  0  0
 15 16  1  0  0  0  0
 16  1  1  0  0  0  0
 16 14  2  0  0  0  0
 18 20  1  0  0  0  0
 19 17  2  0  0  0  0
 20 12  1  0  0  0  0
 20 17  1  0  0  0  0
 21  4  1  0  0  0  0
 22 31  1  0  0  0  0
 23 30  1  0  0  0  0
 24 25  2  0  0  0  0
 26 25  1  6  0  0  0
 26 28  1  0  0  0  0
 26 22  1  0  0  0  0
 27 28  1  0  0  0  0
 28 23  2  0  0  0  0
 29 24  1  0  0  0  0
 29 27  1  0  0  0  0
 30 21  1  1  0  0  0
 31 30  1  0  0  0  0
 32 33  1  0  0  0  0
 32 24  1  0  0  0  0
 34 32  2  0  0  0  0
M  END
>  <MODEL>
9

>  <REMARK>
 VINA RESULT:      -8.8      2.870      8.586
  Name = 
  4 active torsions:
  status: ('A' for Active; 'I' for Inactive)
    1  A    between atoms: C_7  and  C_11
    2  A    between atoms: C_8  and  C_18
    3  A    between atoms: C_18  and  C_30
    4  A    between atoms: C_23  and  N_25
                            x       y       z     vdW  Elec       q    Type
                         _______ _______ _______ _____ _____    ______ ____

>  <TORSDO>
F 4

$$$$
