=
 OpenBabel11052421443D

 30 34  0  0  1  0  0  0  0  0999 V2000
  162.0930  212.5550  142.0790 C   0  0  1  0  0  3  0  0  0  0  0  0
  162.4720  213.3070  144.4150 C   0  0  0  0  0  0  0  0  0  0  0  0
  158.5260  213.3230  141.9050 C   0  0  0  0  0  2  0  0  0  0  0  0
  161.6840  211.3060  141.2390 C   0  0  2  0  0  3  0  0  0  0  0  0
  162.4180  213.7470  141.2890 N   0  0  0  0  0  2  0  0  0  0  0  0
  164.0200  212.4550  138.3120 C   0  0  0  0  0  2  0  0  0  0  0  0
  161.3370  208.8850  139.5720 C   0  0  0  0  0  2  0  0  0  0  0  0
  162.9430  212.4070  139.3660 C   0  0  2  0  0  3  0  0  0  0  0  0
  164.0470  214.4530  139.5480 C   0  0  0  0  0  2  0  0  0  0  0  0
  158.7760  211.6610  139.1660 C   0  0  0  0  0  2  0  0  0  0  0  0
  159.5080  213.5100  140.7510 C   0  0  2  0  0  3  0  0  0  0  0  0
  163.4880  213.3380  140.3930 C   0  0  1  0  0  3  0  0  0  0  0  0
  162.6330  211.0550  140.0180 C   0  0  2  0  0  3  0  0  0  0  0  0
  162.0570  213.7480  145.6720 C   0  0  0  0  0  3  0  0  0  0  0  0
  159.2690  210.6950  138.2800 O   0  0  0  0  0  0  0  0  0  0  0  0
  160.1520  208.4970  138.6940 C   0  0  0  0  0  2  0  0  0  0  0  0
  165.9630  213.7690  138.3690 C   0  0  0  0  0  1  0  0  0  0  0  0
  163.8320  213.3130  144.1220 O   0  0  0  0  0  1  0  0  0  0  0  0
  159.0470  212.3430  142.9520 C   0  0  0  0  0  2  0  0  0  0  0  0
  160.7050  213.7690  145.9990 C   0  0  0  0  0  3  0  0  0  0  0  0
  164.5130  213.8350  138.3020 N   0  0  0  0  0  0  0  0  0  0  0  0
  161.5330  212.8720  143.4540 C   0  0  0  0  0  0  0  0  0  0  0  0
  160.3050  211.2150  140.9400 O   0  0  0  0  0  0  0  0  0  0  0  0
  159.0170  214.4530  139.8480 O   0  0  0  0  0  1  0  0  0  0  0  0
  159.9100  212.2110  140.0260 C   0  0  1  0  0  3  0  0  0  0  0  0
  158.9790  209.4590  138.8700 C   0  0  0  0  0  2  0  0  0  0  0  0
  163.0840  209.6230  138.1330 O   0  0  0  0  0  1  0  0  0  0  0  0
  159.7620  213.3350  145.0720 C   0  0  0  0  0  3  0  0  0  0  0  0
  160.1490  212.8890  143.8040 C   0  0  0  0  0  0  0  0  0  0  0  0
  162.0660  210.0790  138.9710 C   0  0  1  0  0  3  0  0  0  0  0  0
  1  5  1  6  0  0  0
  1 22  1  0  0  0  0
  2 14  1  0  0  0  0
  3 19  1  0  0  0  0
  4 23  1  6  0  0  0
  4  1  1  0  0  0  0
  8  6  1  6  0  0  0
  8 13  1  0  0  0  0
  8 12  1  0  0  0  0
 10 25  1  0  0  0  0
 11 24  1  6  0  0  0
 11  3  1  0  0  0  0
 12  9  1  6  0  0  0
 12  5  1  0  0  0  0
 13  4  1  0  0  0  0
 14 20  2  0  0  0  0
 15 26  1  0  0  0  0
 15 10  1  0  0  0  0
 16 26  1  0  0  0  0
 16  7  1  0  0  0  0
 18  2  1  0  0  0  0
 19 29  1  0  0  0  0
 21  6  1  0  0  0  0
 21 17  1  0  0  0  0
 21  9  1  0  0  0  0
 22 29  1  0  0  0  0
 22  2  2  0  0  0  0
 25 11  1  0  0  0  0
 25 23  1  0  0  0  0
 27 30  1  0  0  0  0
 28 20  1  0  0  0  0
 29 28  2  0  0  0  0
 30  7  1  0  0  0  0
 30 13  1  0  0  0  0
M  END
>  <MODEL>
1

>  <REMARK>
 VINA RESULT:      -4.7      0.000      0.000
  Name = 
  0 active torsions:
  status: ('A' for Active; 'I' for Inactive)
                            x       y       z     vdW  Elec       q    Type
                         _______ _______ _______ _____ _____    ______ ____

>  <TORSDO>
F 0

$$$$
=
 OpenBabel11052421443D

 30 34  0  0  1  0  0  0  0  0999 V2000
  160.3290  209.3030  152.3860 C   0  0  1  0  0  3  0  0  0  0  0  0
  160.8870  207.0490  151.5070 C   0  0  0  0  0  0  0  0  0  0  0  0
  161.9870  208.9740  155.6240 C   0  0  0  0  0  2  0  0  0  0  0  0
  159.2530  210.0690  153.2150 C   0  0  2  0  0  3  0  0  0  0  0  0
  161.4230  210.1380  151.8780 N   0  0  0  0  0  2  0  0  0  0  0  0
  159.8570  213.3050  151.0910 C   0  0  0  0  0  2  0  0  0  0  0  0
  157.0530  211.6560  154.4000 C   0  0  0  0  0  2  0  0  0  0  0  0
  160.0530  212.1090  151.9880 C   0  0  2  0  0  3  0  0  0  0  0  0
  161.7430  212.0970  150.3800 C   0  0  0  0  0  2  0  0  0  0  0  0
  160.4010  211.7110  156.1920 C   0  0  0  0  0  2  0  0  0  0  0  0
  161.9530  210.2560  154.7970 C   0  0  2  0  0  3  0  0  0  0  0  0
  160.7820  211.1750  151.0840 C   0  0  1  0  0  3  0  0  0  0  0  0
  158.8050  211.4110  152.5410 C   0  0  2  0  0  3  0  0  0  0  0  0
  161.3810  205.7490  151.6160 C   0  0  0  0  0  3  0  0  0  0  0  0
  159.3700  212.6510  156.0920 O   0  0  0  0  0  0  0  0  0  0  0  0
  157.0070  212.3540  155.7550 C   0  0  0  0  0  2  0  0  0  0  0  0
  160.6290  213.5330  148.8880 C   0  0  0  0  0  1  0  0  0  0  0  0
  160.5550  207.5320  150.2450 O   0  0  0  0  0  1  0  0  0  0  0  0
  160.8750  208.0050  155.2320 C   0  0  0  0  0  2  0  0  0  0  0  0
  161.7360  205.2330  152.8580 C   0  0  0  0  0  3  0  0  0  0  0  0
  161.0650  213.3940  150.2660 N   0  0  0  0  0  0  0  0  0  0  0  0
  160.7370  207.8650  152.6490 C   0  0  0  0  0  0  0  0  0  0  0  0
  159.5260  210.1690  154.5980 O   0  0  0  0  0  0  0  0  0  0  0  0
  163.0170  211.0870  155.1500 O   0  0  0  0  0  1  0  0  0  0  0  0
  160.6180  211.0240  154.8470 C   0  0  1  0  0  3  0  0  0  0  0  0
  158.2310  212.0190  156.6050 C   0  0  0  0  0  2  0  0  0  0  0  0
  157.3640  213.3330  152.7390 O   0  0  0  0  0  1  0  0  0  0  0  0
  161.5860  206.0140  154.0000 C   0  0  0  0  0  3  0  0  0  0  0  0
  161.0950  207.3220  153.9210 C   0  0  0  0  0  0  0  0  0  0  0  0
  158.0390  212.3610  153.4790 C   0  0  1  0  0  3  0  0  0  0  0  0
  1  5  1  1  0  0  0
  1 22  1  0  0  0  0
  1  4  1  0  0  0  0
  2 14  2  0  0  0  0
  2 22  1  0  0  0  0
  4 23  1  1  0  0  0
  7 16  1  0  0  0  0
  8  6  1  6  0  0  0
  8 13  1  0  0  0  0
 11 25  1  0  0  0  0
 11 24  1  1  0  0  0
 11  3  1  0  0  0  0
 12  9  1  1  0  0  0
 12  5  1  0  0  0  0
 12  8  1  0  0  0  0
 13  4  1  0  0  0  0
 13 30  1  0  0  0  0
 14 20  1  0  0  0  0
 15 10  1  0  0  0  0
 15 26  1  0  0  0  0
 16 26  1  0  0  0  0
 17 21  1  0  0  0  0
 18  2  1  0  0  0  0
 19  3  1  0  0  0  0
 20 28  2  0  0  0  0
 21  9  1  0  0  0  0
 21  6  1  0  0  0  0
 22 29  2  0  0  0  0
 23 25  1  0  0  0  0
 25 10  1  0  0  0  0
 27 30  1  0  0  0  0
 29 28  1  0  0  0  0
 29 19  1  0  0  0  0
 30  7  1  0  0  0  0
M  END
>  <MODEL>
2

>  <REMARK>
 VINA RESULT:      -4.6      9.406     13.550
  Name = 
  0 active torsions:
  status: ('A' for Active; 'I' for Inactive)
                            x       y       z     vdW  Elec       q    Type
                         _______ _______ _______ _____ _____    ______ ____

>  <TORSDO>
F 0

$$$$
=
 OpenBabel11052421443D

 30 34  0  0  1  0  0  0  0  0999 V2000
  159.3920  210.6790  153.8190 C   0  0  1  0  0  3  0  0  0  0  0  0
  160.5720  208.5240  153.4580 C   0  0  0  0  0  0  0  0  0  0  0  0
  160.5090  211.2630  157.2470 C   0  0  0  0  0  2  0  0  0  0  0  0
  158.0490  211.2740  154.3440 C   0  0  2  0  0  3  0  0  0  0  0  0
  160.3460  211.6700  153.3090 N   0  0  0  0  0  2  0  0  0  0  0  0
  158.2800  214.1970  151.7460 C   0  0  0  0  0  2  0  0  0  0  0  0
  155.3870  212.4330  154.9170 C   0  0  0  0  0  2  0  0  0  0  0  0
  158.5780  213.2360  152.8690 C   0  0  2  0  0  3  0  0  0  0  0  0
  160.4770  213.3960  151.5240 C   0  0  0  0  0  2  0  0  0  0  0  0
  158.2880  213.5800  157.0830 C   0  0  0  0  0  2  0  0  0  0  0  0
  160.3350  212.3570  156.1970 C   0  0  2  0  0  3  0  0  0  0  0  0
  159.6370  212.3840  152.2580 C   0  0  1  0  0  3  0  0  0  0  0  0
  157.4390  212.3460  153.3780 C   0  0  2  0  0  3  0  0  0  0  0  0
  161.3140  207.4170  153.8720 C   0  0  0  0  0  3  0  0  0  0  0  0
  157.1070  214.2120  156.6750 O   0  0  0  0  0  0  0  0  0  0  0  0
  154.9600  213.2960  156.0980 C   0  0  0  0  0  2  0  0  0  0  0  0
  159.3450  214.2700  149.6570 C   0  0  0  0  0  1  0  0  0  0  0  0
  160.3610  208.7130  152.0960 O   0  0  0  0  0  1  0  0  0  0  0  0
  159.7200  210.0030  156.9040 C   0  0  0  0  0  2  0  0  0  0  0  0
  161.5580  207.1990  155.2240 C   0  0  0  0  0  3  0  0  0  0  0  0
  159.5610  214.4530  151.0820 N   0  0  0  0  0  0  0  0  0  0  0  0
  160.0550  209.4420  154.3980 C   0  0  0  0  0  0  0  0  0  0  0  0
  158.0560  211.6470  155.7070 O   0  0  0  0  0  0  0  0  0  0  0  0
  161.1150  213.4670  156.5220 O   0  0  0  0  0  1  0  0  0  0  0  0
  158.8750  212.7710  155.9290 C   0  0  1  0  0  3  0  0  0  0  0  0
  156.0650  213.4050  157.1470 C   0  0  0  0  0  2  0  0  0  0  0  0
  155.6000  213.8620  153.0240 O   0  0  0  0  0  1  0  0  0  0  0  0
  161.0490  208.0840  156.1700 C   0  0  0  0  0  3  0  0  0  0  0  0
  160.3030  209.2040  155.7840 C   0  0  0  0  0  0  0  0  0  0  0  0
  156.3360  213.2100  154.0140 C   0  0  1  0  0  3  0  0  0  0  0  0
  1  5  1  1  0  0  0
  1  4  1  0  0  0  0
  1 22  1  0  0  0  0
  2 14  2  0  0  0  0
  2 22  1  0  0  0  0
  4 23  1  1  0  0  0
  7 16  1  0  0  0  0
  8  6  1  6  0  0  0
  8 13  1  0  0  0  0
 11 24  1  1  0  0  0
 11  3  1  0  0  0  0
 12  9  1  1  0  0  0
 12  8  1  0  0  0  0
 12  5  1  0  0  0  0
 13 30  1  0  0  0  0
 13  4  1  0  0  0  0
 14 20  1  0  0  0  0
 15 10  1  0  0  0  0
 15 26  1  0  0  0  0
 16 26  1  0  0  0  0
 17 21  1  0  0  0  0
 18  2  1  0  0  0  0
 19  3  1  0  0  0  0
 20 28  2  0  0  0  0
 21  9  1  0  0  0  0
 21  6  1  0  0  0  0
 22 29  2  0  0  0  0
 23 25  1  0  0  0  0
 25 11  1  0  0  0  0
 25 10  1  0  0  0  0
 27 30  1  0  0  0  0
 29 28  1  0  0  0  0
 29 19  1  0  0  0  0
 30  7  1  0  0  0  0
M  END
>  <MODEL>
3

>  <REMARK>
 VINA RESULT:      -3.3     10.329     14.556
  Name = 
  0 active torsions:
  status: ('A' for Active; 'I' for Inactive)
                            x       y       z     vdW  Elec       q    Type
                         _______ _______ _______ _____ _____    ______ ____

>  <TORSDO>
F 0

$$$$
=
 OpenBabel11052421443D

 30 34  0  0  1  0  0  0  0  0999 V2000
  161.3810  210.3530  151.8070 C   0  0  1  0  0  3  0  0  0  0  0  0
  161.9550  210.9720  149.4720 C   0  0  0  0  0  0  0  0  0  0  0  0
  158.5690  212.6440  152.2290 C   0  0  0  0  0  2  0  0  0  0  0  0
  161.6820  210.7300  153.2900 C   0  0  2  0  0  3  0  0  0  0  0  0
  160.4690  209.2170  151.6350 N   0  0  0  0  0  2  0  0  0  0  0  0
  161.2640  206.9890  154.3740 C   0  0  0  0  0  2  0  0  0  0  0  0
  162.5280  211.1070  156.1010 C   0  0  0  0  0  2  0  0  0  0  0  0
  161.0150  208.3670  153.8140 C   0  0  2  0  0  3  0  0  0  0  0  0
  160.3540  206.8020  152.2160 C   0  0  0  0  0  2  0  0  0  0  0  0
  158.8670  211.7090  155.2890 C   0  0  0  0  0  2  0  0  0  0  0  0
  158.6250  211.2300  152.8030 C   0  0  2  0  0  3  0  0  0  0  0  0
  161.0880  208.1110  152.3480 C   0  0  1  0  0  3  0  0  0  0  0  0
  161.9970  209.4830  154.1850 C   0  0  2  0  0  3  0  0  0  0  0  0
  161.8540  211.7570  148.3230 C   0  0  0  0  0  3  0  0  0  0  0  0
  159.5160  211.2680  156.4490 O   0  0  0  0  0  0  0  0  0  0  0  0
  161.7380  211.7030  157.2600 C   0  0  0  0  0  2  0  0  0  0  0  0
  161.5840  205.0220  153.1360 C   0  0  0  0  0  1  0  0  0  0  0  0
  162.6890  209.7910  149.4090 O   0  0  0  0  0  1  0  0  0  0  0  0
  159.9550  213.1870  151.8970 C   0  0  0  0  0  2  0  0  0  0  0  0
  161.1190  212.9380  148.3410 C   0  0  0  0  0  3  0  0  0  0  0  0
  160.6130  206.0550  153.4520 N   0  0  0  0  0  0  0  0  0  0  0  0
  161.3190  211.3580  150.6720 C   0  0  0  0  0  0  0  0  0  0  0  0
  160.7780  211.6520  153.8640 O   0  0  0  0  0  0  0  0  0  0  0  0
  157.3360  210.7530  153.0390 O   0  0  0  0  0  1  0  0  0  0  0  0
  159.5070  211.0760  154.0570 C   0  0  1  0  0  3  0  0  0  0  0  0
  160.4070  212.2900  156.7940 C   0  0  0  0  0  2  0  0  0  0  0  0
  162.5760  208.7450  156.4050 O   0  0  0  0  0  1  0  0  0  0  0  0
  160.4920  213.3450  149.5150 C   0  0  0  0  0  3  0  0  0  0  0  0
  160.5750  212.5770  150.6820 C   0  0  0  0  0  0  0  0  0  0  0  0
  161.9350  209.7630  155.6970 C   0  0  1  0  0  3  0  0  0  0  0  0
  1 22  1  6  0  0  0
  1  4  1  0  0  0  0
  2 22  1  0  0  0  0
  3 11  1  0  0  0  0
  4 23  1  1  0  0  0
  4 13  1  0  0  0  0
  5  1  1  0  0  0  0
  5 12  1  0  0  0  0
  7 16  1  0  0  0  0
  8 13  1  0  0  0  0
  8  6  1  1  0  0  0
  9 21  1  0  0  0  0
 10 15  1  0  0  0  0
 11 24  1  1  0  0  0
 11 25  1  0  0  0  0
 12  9  1  1  0  0  0
 12  8  1  0  0  0  0
 13 30  1  0  0  0  0
 14 20  1  0  0  0  0
 14  2  2  0  0  0  0
 15 26  1  0  0  0  0
 17 21  1  0  0  0  0
 18  2  1  0  0  0  0
 19  3  1  0  0  0  0
 20 28  2  0  0  0  0
 21  6  1  0  0  0  0
 22 29  2  0  0  0  0
 23 25  1  0  0  0  0
 25 10  1  0  0  0  0
 26 16  1  0  0  0  0
 28 29  1  0  0  0  0
 29 19  1  0  0  0  0
 30  7  1  0  0  0  0
 30 27  1  0  0  0  0
M  END
>  <MODEL>
4

>  <REMARK>
 VINA RESULT:      -2.0      9.202     13.435
  Name = 
  0 active torsions:
  status: ('A' for Active; 'I' for Inactive)
                            x       y       z     vdW  Elec       q    Type
                         _______ _______ _______ _____ _____    ______ ____

>  <TORSDO>
F 0

$$$$
