=
 OpenBabel11052423153D

 27 29  0  0  1  0  0  0  0  0999 V2000
  161.6580  206.3240  148.5170 C   0  0  2  0  0  3  0  0  0  0  0  0
  161.3080  205.2050  144.3790 C   0  0  0  0  0  2  0  0  0  0  0  0
  161.7080  206.3540  146.9840 C   0  0  2  0  0  3  0  0  0  0  0  0
  160.3380  206.1670  146.3200 C   0  0  0  0  0  2  0  0  0  0  0  0
  160.4600  206.2900  144.8690 N   0  0  0  0  0  2  0  0  0  0  0  0
  162.7280  205.3720  144.9140 C   0  0  0  0  0  2  0  0  0  0  0  0
  162.7080  205.3350  146.4390 C   0  0  0  0  0  2  0  0  0  0  0  0
  160.2790  205.3550  149.2520 S   0  0  0  0  0  0  0  0  0  0  0  0
  160.8090  201.4930  149.2300 C   0  0  0  0  0  3  0  0  0  0  0  0
  160.7370  201.1620  150.6930 C   0  0  0  0  0  2  0  0  0  0  0  0
  161.2660  203.8960  149.7170 C   0  0  1  0  0  3  0  0  0  0  0  0
  161.0360  202.9490  147.4090 O   0  0  0  0  0  1  0  0  0  0  0  0
  161.5140  202.1740  151.5240 C   0  0  0  0  0  2  0  0  0  0  0  0
  161.0010  203.5660  151.1900 C   0  0  0  0  0  2  0  0  0  0  0  0
  160.9980  202.7380  148.7800 C   0  0  0  0  0  0  0  0  0  0  0  0
  161.7980  207.7020  149.1400 C   0  0  0  0  0  2  0  0  0  0  0  0
  162.7330  207.6260  150.3350 C   0  0  0  0  0  2  0  0  0  0  0  0
  160.8610  207.3870  153.5990 C   0  0  0  0  0  3  0  0  0  0  0  0
  160.1880  209.0280  155.2240 O   0  0  0  0  0  1  0  0  0  0  0  0
  161.3390  209.7280  153.2130 C   0  0  0  0  0  0  0  0  0  0  0  0
  161.2670  211.0500  153.6370 O   0  0  0  0  0  1  0  0  0  0  0  0
  161.9460  209.4200  151.9830 C   0  0  0  0  0  0  0  0  0  0  0  0
  160.7960  208.7150  154.0140 C   0  0  0  0  0  0  0  0  0  0  0  0
  162.0300  208.0590  151.5800 C   0  0  0  0  0  0  0  0  0  0  0  0
  161.4770  207.0610  152.3920 C   0  0  0  0  0  3  0  0  0  0  0  0
  161.7740  211.0870  150.1170 C   0  0  0  0  0  1  0  0  0  0  0  0
  162.4390  210.4950  151.2240 O   0  0  0  0  0  0  0  0  0  0  0  0
  1 16  1  6  0  0  0
  1  8  1  0  0  0  0
  2  5  1  0  0  0  0
  2  6  1  0  0  0  0
  3  1  1  1  0  0  0
  4  3  1  0  0  0  0
  5  4  1  0  0  0  0
  6  7  1  0  0  0  0
  7  3  1  0  0  0  0
  9 10  1  0  0  0  0
 10 13  1  0  0  0  0
 11  8  1  6  0  0  0
 11 14  1  0  0  0  0
 12 15  1  0  0  0  0
 14 13  1  0  0  0  0
 15  9  2  0  0  0  0
 15 11  1  0  0  0  0
 16 17  1  0  0  0  0
 17 24  1  0  0  0  0
 18 23  1  0  0  0  0
 20 21  1  0  0  0  0
 20 23  2  0  0  0  0
 22 20  1  0  0  0  0
 23 19  1  0  0  0  0
 24 22  2  0  0  0  0
 24 25  1  0  0  0  0
 25 18  2  0  0  0  0
 26 27  1  0  0  0  0
 27 22  1  0  0  0  0
M  END
>  <MODEL>
1

>  <REMARK>
 VINA RESULT:      -7.4      0.000      0.000
  Name = 
  7 active torsions:
  status: ('A' for Active; 'I' for Inactive)
    1  A    between atoms: S_1  and  C_15
    2  A    between atoms: S_1  and  C_18
    3  A    between atoms: C_2  and  C_6
    4  A    between atoms: C_2  and  C_15
    5  A    between atoms: C_6  and  C_17
    6  A    between atoms: C_9  and  C_15
    7  A    between atoms: C_14  and  O_19
                            x       y       z     vdW  Elec       q    Type
                         _______ _______ _______ _____ _____    ______ ____

>  <TORSDO>
F 7

$$$$
=
 OpenBabel11052423153D

 27 29  0  0  1  0  0  0  0  0999 V2000
  161.6030  206.4170  149.7970 C   0  0  2  0  0  3  0  0  0  0  0  0
  160.5890  202.3470  150.7450 C   0  0  0  0  0  2  0  0  0  0  0  0
  161.6810  204.8980  149.9950 C   0  0  2  0  0  3  0  0  0  0  0  0
  160.6570  204.1160  149.1640 C   0  0  0  0  0  2  0  0  0  0  0  0
  160.8500  202.6790  149.3470 N   0  0  0  0  0  2  0  0  0  0  0  0
  161.6330  203.0070  151.6410 C   0  0  0  0  0  2  0  0  0  0  0  0
  161.5690  204.5210  151.4720 C   0  0  0  0  0  2  0  0  0  0  0  0
  162.3680  207.0610  148.2550 S   0  0  0  0  0  0  0  0  0  0  0  0
  162.4460  205.0580  144.9110 C   0  0  0  0  0  3  0  0  0  0  0  0
  161.2340  205.5910  144.2030 C   0  0  0  0  0  2  0  0  0  0  0  0
  161.6040  205.8600  147.1180 C   0  0  1  0  0  3  0  0  0  0  0  0
  163.8030  204.7060  146.7880 O   0  0  0  0  0  1  0  0  0  0  0  0
  160.0500  205.7120  145.1540 C   0  0  0  0  0  2  0  0  0  0  0  0
  160.4770  206.5540  146.3470 C   0  0  0  0  0  2  0  0  0  0  0  0
  162.6440  205.2210  146.2240 C   0  0  0  0  0  0  0  0  0  0  0  0
  162.0300  207.1970  151.0290 C   0  0  0  0  0  2  0  0  0  0  0  0
  160.8780  208.0660  151.5040 C   0  0  0  0  0  2  0  0  0  0  0  0
  161.0260  207.3600  155.2040 C   0  0  0  0  0  3  0  0  0  0  0  0
  161.4370  208.7540  157.1210 O   0  0  0  0  0  1  0  0  0  0  0  0
  161.3810  209.7360  154.9100 C   0  0  0  0  0  0  0  0  0  0  0  0
  161.6360  210.9860  155.4620 O   0  0  0  0  0  1  0  0  0  0  0  0
  161.2160  209.6060  153.5200 C   0  0  0  0  0  0  0  0  0  0  0  0
  161.2830  208.6170  155.7470 C   0  0  0  0  0  0  0  0  0  0  0  0
  160.9790  208.3160  152.9730 C   0  0  0  0  0  0  0  0  0  0  0  0
  160.8790  207.2100  153.8270 C   0  0  0  0  0  3  0  0  0  0  0  0
  160.1990  211.6110  152.4060 C   0  0  0  0  0  1  0  0  0  0  0  0
  161.2990  210.7810  152.7520 O   0  0  0  0  0  0  0  0  0  0  0  0
  1 16  1  1  0  0  0
  2  6  1  0  0  0  0
  3  1  1  1  0  0  0
  3  7  1  0  0  0  0
  4  5  1  0  0  0  0
  4  3  1  0  0  0  0
  5  2  1  0  0  0  0
  7  6  1  0  0  0  0
  8  1  1  0  0  0  0
  9 15  2  0  0  0  0
 10  9  1  0  0  0  0
 10 13  1  0  0  0  0
 11  8  1  1  0  0  0
 13 14  1  0  0  0  0
 14 11  1  0  0  0  0
 15 12  1  0  0  0  0
 15 11  1  0  0  0  0
 16 17  1  0  0  0  0
 17 24  1  0  0  0  0
 18 23  1  0  0  0  0
 20 21  1  0  0  0  0
 20 23  2  0  0  0  0
 22 20  1  0  0  0  0
 23 19  1  0  0  0  0
 24 22  2  0  0  0  0
 24 25  1  0  0  0  0
 25 18  2  0  0  0  0
 26 27  1  0  0  0  0
 27 22  1  0  0  0  0
M  END
>  <MODEL>
2

>  <REMARK>
 VINA RESULT:      -7.1      1.854      4.141
  Name = 
  7 active torsions:
  status: ('A' for Active; 'I' for Inactive)
    1  A    between atoms: S_1  and  C_15
    2  A    between atoms: S_1  and  C_18
    3  A    between atoms: C_2  and  C_6
    4  A    between atoms: C_2  and  C_15
    5  A    between atoms: C_6  and  C_17
    6  A    between atoms: C_9  and  C_15
    7  A    between atoms: C_14  and  O_19
                            x       y       z     vdW  Elec       q    Type
                         _______ _______ _______ _____ _____    ______ ____

>  <TORSDO>
F 7

$$$$
=
 OpenBabel11052423153D

 27 29  0  0  1  0  0  0  0  0999 V2000
  161.7570  209.7510  149.5990 C   0  0  2  0  0  3  0  0  0  0  0  0
  162.4780  213.7320  148.1400 C   0  0  0  0  0  2  0  0  0  0  0  0
  161.7410  211.0180  148.7330 C   0  0  2  0  0  3  0  0  0  0  0  0
  163.1310  211.4530  148.2550 C   0  0  0  0  0  2  0  0  0  0  0  0
  163.0210  212.6130  147.3740 N   0  0  0  0  0  2  0  0  0  0  0  0
  161.0470  213.4220  148.5710 C   0  0  0  0  0  2  0  0  0  0  0  0
  161.0360  212.1720  149.4450 C   0  0  0  0  0  2  0  0  0  0  0  0
  162.4630  209.9470  151.2850 S   0  0  0  0  0  0  0  0  0  0  0  0
  160.5490  209.0710  154.5660 C   0  0  0  0  0  3  0  0  0  0  0  0
  160.9480  207.6390  154.7850 C   0  0  0  0  0  2  0  0  0  0  0  0
  161.2020  208.9660  152.1610 C   0  0  1  0  0  3  0  0  0  0  0  0
  160.3240  211.0230  153.2910 O   0  0  0  0  0  1  0  0  0  0  0  0
  160.9090  206.8530  153.4810 C   0  0  0  0  0  2  0  0  0  0  0  0
  161.7720  207.5750  152.4580 C   0  0  0  0  0  2  0  0  0  0  0  0
  160.7090  209.6930  153.3930 C   0  0  0  0  0  0  0  0  0  0  0  0
  162.3170  208.5420  148.8690 C   0  0  0  0  0  2  0  0  0  0  0  0
  161.2040  207.8560  148.0960 C   0  0  0  0  0  2  0  0  0  0  0  0
  160.8930  204.6220  150.0080 C   0  0  0  0  0  3  0  0  0  0  0  0
  160.9470  202.3130  149.3370 O   0  0  0  0  0  1  0  0  0  0  0  0
  161.2730  204.0530  147.6870 C   0  0  0  0  0  0  0  0  0  0  0  0
  161.4170  203.0840  146.7000 O   0  0  0  0  0  1  0  0  0  0  0  0
  161.3750  205.4140  147.3510 C   0  0  0  0  0  0  0  0  0  0  0  0
  161.0360  203.6610  149.0100 C   0  0  0  0  0  0  0  0  0  0  0  0
  161.2010  206.3890  148.3710 C   0  0  0  0  0  0  0  0  0  0  0  0
  160.9700  205.9760  149.6890 C   0  0  0  0  0  3  0  0  0  0  0  0
  160.6610  205.9180  144.9990 C   0  0  0  0  0  1  0  0  0  0  0  0
  161.6440  205.7240  146.0060 O   0  0  0  0  0  0  0  0  0  0  0  0
  1 16  1  6  0  0  0
  1  8  1  0  0  0  0
  2  6  1  0  0  0  0
  3  7  1  0  0  0  0
  3  1  1  1  0  0  0
  4  3  1  0  0  0  0
  5  2  1  0  0  0  0
  5  4  1  0  0  0  0
  6  7  1  0  0  0  0
  9 10  1  0  0  0  0
 11  8  1  1  0  0  0
 11 14  1  0  0  0  0
 11 15  1  0  0  0  0
 12 15  1  0  0  0  0
 13 10  1  0  0  0  0
 14 13  1  0  0  0  0
 15  9  2  0  0  0  0
 17 24  1  0  0  0  0
 17 16  1  0  0  0  0
 20 23  1  0  0  0  0
 21 20  1  0  0  0  0
 22 20  2  0  0  0  0
 22 24  1  0  0  0  0
 23 19  1  0  0  0  0
 23 18  2  0  0  0  0
 24 25  2  0  0  0  0
 25 18  1  0  0  0  0
 26 27  1  0  0  0  0
 27 22  1  0  0  0  0
M  END
>  <MODEL>
3

>  <REMARK>
 VINA RESULT:      -6.9      2.351      6.880
  Name = 
  7 active torsions:
  status: ('A' for Active; 'I' for Inactive)
    1  A    between atoms: S_1  and  C_15
    2  A    between atoms: S_1  and  C_18
    3  A    between atoms: C_2  and  C_6
    4  A    between atoms: C_2  and  C_15
    5  A    between atoms: C_6  and  C_17
    6  A    between atoms: C_9  and  C_15
    7  A    between atoms: C_14  and  O_19
                            x       y       z     vdW  Elec       q    Type
                         _______ _______ _______ _____ _____    ______ ____

>  <TORSDO>
F 7

$$$$
=
 OpenBabel11052423153D

 27 29  0  0  1  0  0  0  0  0999 V2000
  161.6000  208.4450  152.3440 C   0  0  2  0  0  3  0  0  0  0  0  0
  160.6440  208.2210  156.5320 C   0  0  0  0  0  2  0  0  0  0  0  0
  160.8290  208.4410  153.6720 C   0  0  2  0  0  3  0  0  0  0  0  0
  161.2940  209.5210  154.6550 C   0  0  0  0  0  2  0  0  0  0  0  0
  160.4610  209.5030  155.8550 N   0  0  0  0  0  2  0  0  0  0  0  0
  160.1100  207.0890  155.6580 C   0  0  0  0  0  2  0  0  0  0  0  0
  160.8680  207.0640  154.3340 C   0  0  0  0  0  2  0  0  0  0  0  0
  162.4600  210.0150  151.9260 S   0  0  0  0  0  0  0  0  0  0  0  0
  161.0400  212.6450  149.4220 C   0  0  0  0  0  3  0  0  0  0  0  0
  160.3090  213.5830  150.3400 C   0  0  0  0  0  2  0  0  0  0  0  0
  161.0350  210.8370  151.1410 C   0  0  1  0  0  3  0  0  0  0  0  0
  162.1010  210.6270  148.8840 O   0  0  0  0  0  1  0  0  0  0  0  0
  159.5150  212.8170  151.3900 C   0  0  0  0  0  2  0  0  0  0  0  0
  160.4620  211.8720  152.1150 C   0  0  0  0  0  2  0  0  0  0  0  0
  161.4160  211.4170  149.7970 C   0  0  0  0  0  0  0  0  0  0  0  0
  160.7830  207.9010  151.1850 C   0  0  0  0  0  2  0  0  0  0  0  0
  161.7090  207.2570  150.1690 C   0  0  0  0  0  2  0  0  0  0  0  0
  160.7020  203.7620  151.1600 C   0  0  0  0  0  3  0  0  0  0  0  0
  160.3750  201.7350  149.9050 O   0  0  0  0  0  1  0  0  0  0  0  0
  161.1090  203.7450  148.7740 C   0  0  0  0  0  0  0  0  0  0  0  0
  161.1330  203.0530  147.5680 O   0  0  0  0  0  1  0  0  0  0  0  0
  161.4770  205.1010  148.8090 C   0  0  0  0  0  0  0  0  0  0  0  0
  160.7280  203.0790  149.9450 C   0  0  0  0  0  0  0  0  0  0  0  0
  161.4230  205.7970  150.0480 C   0  0  0  0  0  0  0  0  0  0  0  0
  161.0440  205.1120  151.2090 C   0  0  0  0  0  3  0  0  0  0  0  0
  160.9960  206.1940  146.6020 C   0  0  0  0  0  1  0  0  0  0  0  0
  161.8770  205.6890  147.5960 O   0  0  0  0  0  0  0  0  0  0  0  0
  1 16  1  6  0  0  0
  3  1  1  6  0  0  0
  3  7  1  0  0  0  0
  3  4  1  0  0  0  0
  4  5  1  0  0  0  0
  5  2  1  0  0  0  0
  6  2  1  0  0  0  0
  7  6  1  0  0  0  0
  8  1  1  0  0  0  0
  9 15  2  0  0  0  0
  9 10  1  0  0  0  0
 10 13  1  0  0  0  0
 11  8  1  1  0  0  0
 11 14  1  0  0  0  0
 12 15  1  0  0  0  0
 13 14  1  0  0  0  0
 15 11  1  0  0  0  0
 17 16  1  0  0  0  0
 18 25  1  0  0  0  0
 19 23  1  0  0  0  0
 20 22  2  0  0  0  0
 20 23  1  0  0  0  0
 21 20  1  0  0  0  0
 22 24  1  0  0  0  0
 23 18  2  0  0  0  0
 24 17  1  0  0  0  0
 24 25  2  0  0  0  0
 26 27  1  0  0  0  0
 27 22  1  0  0  0  0
M  END
>  <MODEL>
4

>  <REMARK>
 VINA RESULT:      -6.8      3.230      8.049
  Name = 
  7 active torsions:
  status: ('A' for Active; 'I' for Inactive)
    1  A    between atoms: S_1  and  C_15
    2  A    between atoms: S_1  and  C_18
    3  A    between atoms: C_2  and  C_6
    4  A    between atoms: C_2  and  C_15
    5  A    between atoms: C_6  and  C_17
    6  A    between atoms: C_9  and  C_15
    7  A    between atoms: C_14  and  O_19
                            x       y       z     vdW  Elec       q    Type
                         _______ _______ _______ _____ _____    ______ ____

>  <TORSDO>
F 7

$$$$
=
 OpenBabel11052423153D

 27 29  0  0  1  0  0  0  0  0999 V2000
  161.6530  209.7880  151.0790 C   0  0  2  0  0  3  0  0  0  0  0  0
  160.9910  212.8850  148.1700 C   0  0  0  0  0  2  0  0  0  0  0  0
  161.8190  211.0480  150.2190 C   0  0  2  0  0  3  0  0  0  0  0  0
  160.6690  212.0500  150.3690 C   0  0  0  0  0  2  0  0  0  0  0  0
  160.9420  213.2520  149.5840 N   0  0  0  0  0  2  0  0  0  0  0  0
  162.1780  211.9620  147.9120 C   0  0  0  0  0  2  0  0  0  0  0  0
  162.0310  210.6940  148.7480 C   0  0  0  0  0  2  0  0  0  0  0  0
  162.2060  209.9350  152.8260 S   0  0  0  0  0  0  0  0  0  0  0  0
  159.7760  209.4030  155.8280 C   0  0  0  0  0  3  0  0  0  0  0  0
  160.0850  207.9890  156.2290 C   0  0  0  0  0  2  0  0  0  0  0  0
  160.7900  209.0660  153.5740 C   0  0  1  0  0  3  0  0  0  0  0  0
  159.8220  211.2350  154.3690 O   0  0  0  0  0  1  0  0  0  0  0  0
  160.2210  207.0890  155.0090 C   0  0  0  0  0  2  0  0  0  0  0  0
  161.2570  207.6960  154.0760 C   0  0  0  0  0  2  0  0  0  0  0  0
  160.1380  209.9120  154.6450 C   0  0  0  0  0  0  0  0  0  0  0  0
  162.1850  208.5360  150.4030 C   0  0  0  0  0  2  0  0  0  0  0  0
  161.1230  207.4510  150.4350 C   0  0  0  0  0  2  0  0  0  0  0  0
  162.0550  206.2000  147.0030 C   0  0  0  0  0  3  0  0  0  0  0  0
  162.0670  204.0100  146.0070 O   0  0  0  0  0  1  0  0  0  0  0  0
  161.2930  204.2920  148.2830 C   0  0  0  0  0  0  0  0  0  0  0  0
  161.0470  202.9260  148.3640 O   0  0  0  0  0  1  0  0  0  0  0  0
  161.0180  205.1190  149.3860 C   0  0  0  0  0  0  0  0  0  0  0  0
  161.8060  204.8320  147.0970 C   0  0  0  0  0  0  0  0  0  0  0  0
  161.2990  206.5090  149.2900 C   0  0  0  0  0  0  0  0  0  0  0  0
  161.8070  207.0310  148.0930 C   0  0  0  0  0  3  0  0  0  0  0  0
  161.2290  204.0150  151.6290 C   0  0  0  0  0  1  0  0  0  0  0  0
  160.4760  204.5050  150.5280 O   0  0  0  0  0  0  0  0  0  0  0  0
  1 16  1  6  0  0  0
  1  8  1  0  0  0  0
  2  5  1  0  0  0  0
  3  4  1  0  0  0  0
  3  1  1  1  0  0  0
  5  4  1  0  0  0  0
  6  2  1  0  0  0  0
  6  7  1  0  0  0  0
  7  3  1  0  0  0  0
  9 10  1  0  0  0  0
 11  8  1  1  0  0  0
 11 14  1  0  0  0  0
 11 15  1  0  0  0  0
 12 15  1  0  0  0  0
 13 10  1  0  0  0  0
 14 13  1  0  0  0  0
 15  9  2  0  0  0  0
 16 17  1  0  0  0  0
 18 23  2  0  0  0  0
 18 25  1  0  0  0  0
 19 23  1  0  0  0  0
 20 21  1  0  0  0  0
 20 22  2  0  0  0  0
 22 27  1  0  0  0  0
 23 20  1  0  0  0  0
 24 22  1  0  0  0  0
 24 17  1  0  0  0  0
 25 24  2  0  0  0  0
 27 26  1  0  0  0  0
M  END
>  <MODEL>
5

>  <REMARK>
 VINA RESULT:      -6.8      2.659      7.172
  Name = 
  7 active torsions:
  status: ('A' for Active; 'I' for Inactive)
    1  A    between atoms: S_1  and  C_15
    2  A    between atoms: S_1  and  C_18
    3  A    between atoms: C_2  and  C_6
    4  A    between atoms: C_2  and  C_15
    5  A    between atoms: C_6  and  C_17
    6  A    between atoms: C_9  and  C_15
    7  A    between atoms: C_14  and  O_19
                            x       y       z     vdW  Elec       q    Type
                         _______ _______ _______ _____ _____    ______ ____

>  <TORSDO>
F 7

$$$$
=
 OpenBabel11052423153D

 27 29  0  0  1  0  0  0  0  0999 V2000
  161.2060  205.0470  148.7980 C   0  0  2  0  0  3  0  0  0  0  0  0
  160.4510  200.9200  149.7420 C   0  0  0  0  0  2  0  0  0  0  0  0
  161.4030  203.5680  149.1550 C   0  0  2  0  0  3  0  0  0  0  0  0
  160.8310  202.6020  148.1110 C   0  0  0  0  0  2  0  0  0  0  0  0
  161.1300  201.2210  148.4840 N   0  0  0  0  0  2  0  0  0  0  0  0
  161.0350  201.7710  150.8660 C   0  0  0  0  0  2  0  0  0  0  0  0
  160.8420  203.2490  150.5410 C   0  0  0  0  0  2  0  0  0  0  0  0
  162.7130  205.9400  148.2400 S   0  0  0  0  0  0  0  0  0  0  0  0
  160.1060  205.7220  145.3490 C   0  0  0  0  0  3  0  0  0  0  0  0
  160.5000  204.4390  144.6730 C   0  0  0  0  0  2  0  0  0  0  0  0
  162.3320  205.9110  146.4580 C   0  0  1  0  0  3  0  0  0  0  0  0
  160.4560  207.5380  146.7870 O   0  0  0  0  0  1  0  0  0  0  0  0
  162.0120  204.3340  144.5330 C   0  0  0  0  0  2  0  0  0  0  0  0
  162.6370  204.5140  145.9090 C   0  0  0  0  0  2  0  0  0  0  0  0
  160.9130  206.3670  146.1990 C   0  0  0  0  0  0  0  0  0  0  0  0
  160.4330  205.8130  149.8580 C   0  0  0  0  0  2  0  0  0  0  0  0
  161.2140  207.0520  150.2590 C   0  0  0  0  0  2  0  0  0  0  0  0
  161.2030  206.2630  153.9460 C   0  0  0  0  0  3  0  0  0  0  0  0
  161.1480  207.6430  155.9150 O   0  0  0  0  0  1  0  0  0  0  0  0
  161.0660  208.6690  153.7240 C   0  0  0  0  0  0  0  0  0  0  0  0
  161.0010  209.9240  154.3190 O   0  0  0  0  0  1  0  0  0  0  0  0
  161.0470  208.5570  152.3230 C   0  0  0  0  0  0  0  0  0  0  0  0
  161.1400  207.5260  154.5300 C   0  0  0  0  0  0  0  0  0  0  0  0
  161.1380  207.2660  151.7350 C   0  0  0  0  0  0  0  0  0  0  0  0
  161.2060  206.1340  152.5580 C   0  0  0  0  0  3  0  0  0  0  0  0
  162.0050  210.3750  150.8840 C   0  0  0  0  0  1  0  0  0  0  0  0
  160.9400  209.7490  151.5860 O   0  0  0  0  0  0  0  0  0  0  0  0
  1 16  1  1  0  0  0
  2  6  1  0  0  0  0
  3  1  1  6  0  0  0
  3  7  1  0  0  0  0
  4  5  1  0  0  0  0
  4  3  1  0  0  0  0
  5  2  1  0  0  0  0
  7  6  1  0  0  0  0
  8  1  1  0  0  0  0
  9 15  2  0  0  0  0
 10  9  1  0  0  0  0
 11  8  1  1  0  0  0
 13 10  1  0  0  0  0
 13 14  1  0  0  0  0
 14 11  1  0  0  0  0
 15 11  1  0  0  0  0
 15 12  1  0  0  0  0
 16 17  1  0  0  0  0
 17 24  1  0  0  0  0
 18 23  1  0  0  0  0
 20 21  1  0  0  0  0
 20 23  2  0  0  0  0
 22 20  1  0  0  0  0
 23 19  1  0  0  0  0
 24 22  2  0  0  0  0
 24 25  1  0  0  0  0
 25 18  2  0  0  0  0
 26 27  1  0  0  0  0
 27 22  1  0  0  0  0
M  END
>  <MODEL>
6

>  <REMARK>
 VINA RESULT:      -6.8      1.916      4.086
  Name = 
  7 active torsions:
  status: ('A' for Active; 'I' for Inactive)
    1  A    between atoms: S_1  and  C_15
    2  A    between atoms: S_1  and  C_18
    3  A    between atoms: C_2  and  C_6
    4  A    between atoms: C_2  and  C_15
    5  A    between atoms: C_6  and  C_17
    6  A    between atoms: C_9  and  C_15
    7  A    between atoms: C_14  and  O_19
                            x       y       z     vdW  Elec       q    Type
                         _______ _______ _______ _____ _____    ______ ____

>  <TORSDO>
F 7

$$$$
=
 OpenBabel11052423153D

 27 29  0  0  1  0  0  0  0  0999 V2000
  161.1740  209.2270  153.4650 C   0  0  2  0  0  3  0  0  0  0  0  0
  160.8270  207.2340  157.2610 C   0  0  0  0  0  2  0  0  0  0  0  0
  160.6920  208.8130  154.8620 C   0  0  2  0  0  3  0  0  0  0  0  0
  161.7540  208.9860  155.9540 C   0  0  0  0  0  2  0  0  0  0  0  0
  161.1930  208.6490  157.2610 N   0  0  0  0  0  2  0  0  0  0  0  0
  159.6950  206.9900  156.2660 C   0  0  0  0  0  2  0  0  0  0  0  0
  160.1520  207.3830  154.8650 C   0  0  0  0  0  2  0  0  0  0  0  0
  161.2390  211.0360  153.1470 S   0  0  0  0  0  0  0  0  0  0  0  0
  158.2170  213.3920  152.4310 C   0  0  0  0  0  3  0  0  0  0  0  0
  157.4130  213.2580  153.6920 C   0  0  0  0  0  2  0  0  0  0  0  0
  159.4500  211.2750  152.8990 C   0  0  1  0  0  3  0  0  0  0  0  0
  159.8770  212.7400  150.9120 O   0  0  0  0  0  1  0  0  0  0  0  0
  157.3370  211.8050  154.1430 C   0  0  0  0  0  2  0  0  0  0  0  0
  158.7530  211.2630  154.2630 C   0  0  0  0  0  2  0  0  0  0  0  0
  159.1760  212.5250  152.0910 C   0  0  0  0  0  0  0  0  0  0  0  0
  160.4790  208.4640  152.3500 C   0  0  0  0  0  2  0  0  0  0  0  0
  161.5080  207.9990  151.3350 C   0  0  0  0  0  2  0  0  0  0  0  0
  161.2600  204.3150  152.0970 C   0  0  0  0  0  3  0  0  0  0  0  0
  160.8840  202.3810  150.7180 O   0  0  0  0  0  1  0  0  0  0  0  0
  161.0270  204.5720  149.7020 C   0  0  0  0  0  0  0  0  0  0  0  0
  160.8250  204.0010  148.4500 O   0  0  0  0  0  1  0  0  0  0  0  0
  161.2110  205.9620  149.8150 C   0  0  0  0  0  0  0  0  0  0  0  0
  161.0560  203.7550  150.8380 C   0  0  0  0  0  0  0  0  0  0  0  0
  161.3930  206.5280  151.1060 C   0  0  0  0  0  0  0  0  0  0  0  0
  161.4240  205.6930  152.2300 C   0  0  0  0  0  3  0  0  0  0  0  0
  162.3370  206.9800  147.8180 C   0  0  0  0  0  1  0  0  0  0  0  0
  161.1990  206.7090  148.6240 O   0  0  0  0  0  0  0  0  0  0  0  0
  1 16  1  6  0  0  0
  3  1  1  6  0  0  0
  3  7  1  0  0  0  0
  3  4  1  0  0  0  0
  4  5  1  0  0  0  0
  5  2  1  0  0  0  0
  6  2  1  0  0  0  0
  7  6  1  0  0  0  0
  8  1  1  0  0  0  0
  9 10  1  0  0  0  0
 10 13  1  0  0  0  0
 11  8  1  1  0  0  0
 11 14  1  0  0  0  0
 12 15  1  0  0  0  0
 13 14  1  0  0  0  0
 15  9  2  0  0  0  0
 15 11  1  0  0  0  0
 17 16  1  0  0  0  0
 18 25  1  0  0  0  0
 19 23  1  0  0  0  0
 20 22  2  0  0  0  0
 20 23  1  0  0  0  0
 21 20  1  0  0  0  0
 22 24  1  0  0  0  0
 23 18  2  0  0  0  0
 24 17  1  0  0  0  0
 24 25  2  0  0  0  0
 26 27  1  0  0  0  0
 27 22  1  0  0  0  0
M  END
>  <MODEL>
7

>  <REMARK>
 VINA RESULT:      -6.8      3.812      8.430
  Name = 
  7 active torsions:
  status: ('A' for Active; 'I' for Inactive)
    1  A    between atoms: S_1  and  C_15
    2  A    between atoms: S_1  and  C_18
    3  A    between atoms: C_2  and  C_6
    4  A    between atoms: C_2  and  C_15
    5  A    between atoms: C_6  and  C_17
    6  A    between atoms: C_9  and  C_15
    7  A    between atoms: C_14  and  O_19
                            x       y       z     vdW  Elec       q    Type
                         _______ _______ _______ _____ _____    ______ ____

>  <TORSDO>
F 7

$$$$
=
 OpenBabel11052423153D

 27 29  0  0  1  0  0  0  0  0999 V2000
  161.6850  209.7760  151.1600 C   0  0  2  0  0  3  0  0  0  0  0  0
  161.0880  212.7890  148.1490 C   0  0  0  0  0  2  0  0  0  0  0  0
  161.8670  211.0160  150.2730 C   0  0  2  0  0  3  0  0  0  0  0  0
  160.7010  212.0070  150.3570 C   0  0  0  0  0  2  0  0  0  0  0  0
  160.9870  213.1920  149.5500 N   0  0  0  0  0  2  0  0  0  0  0  0
  162.2940  211.8740  147.9560 C   0  0  0  0  0  2  0  0  0  0  0  0
  162.1330  210.6260  148.8190 C   0  0  0  0  0  2  0  0  0  0  0  0
  162.1900  209.9720  152.9170 S   0  0  0  0  0  0  0  0  0  0  0  0
  159.6820  209.4480  155.8560 C   0  0  0  0  0  3  0  0  0  0  0  0
  160.0220  208.0570  156.3090 C   0  0  0  0  0  2  0  0  0  0  0  0
  160.7780  209.0790  153.6460 C   0  0  1  0  0  3  0  0  0  0  0  0
  159.7170  211.2380  154.3450 O   0  0  0  0  0  1  0  0  0  0  0  0
  160.2260  207.1270  155.1210 C   0  0  0  0  0  2  0  0  0  0  0  0
  161.2720  207.7400  154.2030 C   0  0  0  0  0  2  0  0  0  0  0  0
  160.0650  209.9350  154.6700 C   0  0  0  0  0  0  0  0  0  0  0  0
  162.2440  208.5120  150.5300 C   0  0  0  0  0  2  0  0  0  0  0  0
  161.1400  207.7880  149.7810 C   0  0  0  0  0  2  0  0  0  0  0  0
  161.2670  204.5750  151.7500 C   0  0  0  0  0  3  0  0  0  0  0  0
  161.1240  202.2590  151.1140 O   0  0  0  0  0  1  0  0  0  0  0  0
  161.0550  203.9800  149.4130 C   0  0  0  0  0  0  0  0  0  0  0  0
  160.9380  203.0010  148.4330 O   0  0  0  0  0  1  0  0  0  0  0  0
  161.0890  205.3360  149.0460 C   0  0  0  0  0  0  0  0  0  0  0  0
  161.1470  203.6030  150.7590 C   0  0  0  0  0  0  0  0  0  0  0  0
  161.1850  206.3220  150.0660 C   0  0  0  0  0  0  0  0  0  0  0  0
  161.2820  205.9250  151.4050 C   0  0  0  0  0  3  0  0  0  0  0  0
  162.1380  205.9190  146.8430 C   0  0  0  0  0  1  0  0  0  0  0  0
  161.0220  205.6310  147.6730 O   0  0  0  0  0  0  0  0  0  0  0  0
  1 16  1  6  0  0  0
  1  8  1  0  0  0  0
  2  5  1  0  0  0  0
  3  4  1  0  0  0  0
  3  1  1  1  0  0  0
  5  4  1  0  0  0  0
  6  2  1  0  0  0  0
  6  7  1  0  0  0  0
  7  3  1  0  0  0  0
  9 10  1  0  0  0  0
 11  8  1  1  0  0  0
 11 14  1  0  0  0  0
 11 15  1  0  0  0  0
 12 15  1  0  0  0  0
 13 10  1  0  0  0  0
 14 13  1  0  0  0  0
 15  9  2  0  0  0  0
 17 24  1  0  0  0  0
 17 16  1  0  0  0  0
 20 23  1  0  0  0  0
 21 20  1  0  0  0  0
 22 20  2  0  0  0  0
 22 24  1  0  0  0  0
 23 19  1  0  0  0  0
 23 18  2  0  0  0  0
 24 25  2  0  0  0  0
 25 18  1  0  0  0  0
 26 27  1  0  0  0  0
 27 22  1  0  0  0  0
M  END
>  <MODEL>
8

>  <REMARK>
 VINA RESULT:      -6.7      2.580      6.769
  Name = 
  7 active torsions:
  status: ('A' for Active; 'I' for Inactive)
    1  A    between atoms: S_1  and  C_15
    2  A    between atoms: S_1  and  C_18
    3  A    between atoms: C_2  and  C_6
    4  A    between atoms: C_2  and  C_15
    5  A    between atoms: C_6  and  C_17
    6  A    between atoms: C_9  and  C_15
    7  A    between atoms: C_14  and  O_19
                            x       y       z     vdW  Elec       q    Type
                         _______ _______ _______ _____ _____    ______ ____

>  <TORSDO>
F 7

$$$$
=
 OpenBabel11052423153D

 27 29  0  0  1  0  0  0  0  0999 V2000
  161.3330  207.0950  151.6070 C   0  0  2  0  0  3  0  0  0  0  0  0
  162.3770  210.1430  148.7580 C   0  0  0  0  0  2  0  0  0  0  0  0
  161.2440  208.2480  150.5990 C   0  0  2  0  0  3  0  0  0  0  0  0
  161.7770  207.8910  149.2070 C   0  0  0  0  0  2  0  0  0  0  0  0
  161.5820  209.0110  148.2890 N   0  0  0  0  0  2  0  0  0  0  0  0
  161.8450  210.6320  150.1020 C   0  0  0  0  0  2  0  0  0  0  0  0
  161.9330  209.5060  151.1280 C   0  0  0  0  0  2  0  0  0  0  0  0
  162.3140  207.4350  153.1240 S   0  0  0  0  0  0  0  0  0  0  0  0
  160.9680  209.2470  156.3020 C   0  0  0  0  0  3  0  0  0  0  0  0
  160.3430  208.1130  157.0640 C   0  0  0  0  0  2  0  0  0  0  0  0
  160.9160  207.9480  154.1740 C   0  0  1  0  0  3  0  0  0  0  0  0
  161.8650  210.2560  154.3880 O   0  0  0  0  0  1  0  0  0  0  0  0
  159.5460  207.2030  156.1390 C   0  0  0  0  0  2  0  0  0  0  0  0
  160.4570  206.7480  155.0090 C   0  0  0  0  0  2  0  0  0  0  0  0
  161.2760  209.1600  155.0040 C   0  0  0  0  0  0  0  0  0  0  0  0
  161.7010  205.7710  150.9600 C   0  0  0  0  0  2  0  0  0  0  0  0
  160.4360  205.0280  150.5690 C   0  0  0  0  0  2  0  0  0  0  0  0
  161.0760  201.3730  149.9010 C   0  0  0  0  0  3  0  0  0  0  0  0
  161.4890  200.1260  147.8860 O   0  0  0  0  0  1  0  0  0  0  0  0
  161.2020  202.5270  147.7770 C   0  0  0  0  0  0  0  0  0  0  0  0
  161.3850  202.4820  146.3990 O   0  0  0  0  0  1  0  0  0  0  0  0
  160.9760  203.7600  148.4130 C   0  0  0  0  0  0  0  0  0  0  0  0
  161.2550  201.3410  148.5190 C   0  0  0  0  0  0  0  0  0  0  0  0
  160.7690  203.7800  149.8190 C   0  0  0  0  0  0  0  0  0  0  0  0
  160.8310  202.5840  150.5440 C   0  0  0  0  0  3  0  0  0  0  0  0
  162.0790  205.3930  146.8610 C   0  0  0  0  0  1  0  0  0  0  0  0
  160.9690  204.9080  147.6010 O   0  0  0  0  0  0  0  0  0  0  0  0
  1 16  1  6  0  0  0
  1  8  1  0  0  0  0
  2  6  1  0  0  0  0
  3  7  1  0  0  0  0
  3  1  1  1  0  0  0
  4  3  1  0  0  0  0
  5  2  1  0  0  0  0
  5  4  1  0  0  0  0
  6  7  1  0  0  0  0
  9 10  1  0  0  0  0
 11  8  1  1  0  0  0
 11 15  1  0  0  0  0
 11 14  1  0  0  0  0
 12 15  1  0  0  0  0
 13 10  1  0  0  0  0
 14 13  1  0  0  0  0
 15  9  2  0  0  0  0
 17 16  1  0  0  0  0
 18 25  1  0  0  0  0
 19 23  1  0  0  0  0
 20 22  2  0  0  0  0
 20 23  1  0  0  0  0
 21 20  1  0  0  0  0
 22 24  1  0  0  0  0
 23 18  2  0  0  0  0
 24 25  2  0  0  0  0
 24 17  1  0  0  0  0
 26 27  1  0  0  0  0
 27 22  1  0  0  0  0
M  END
>  <MODEL>
9

>  <REMARK>
 VINA RESULT:      -6.6      1.980      7.192
  Name = 
  7 active torsions:
  status: ('A' for Active; 'I' for Inactive)
    1  A    between atoms: S_1  and  C_15
    2  A    between atoms: S_1  and  C_18
    3  A    between atoms: C_2  and  C_6
    4  A    between atoms: C_2  and  C_15
    5  A    between atoms: C_6  and  C_17
    6  A    between atoms: C_9  and  C_15
    7  A    between atoms: C_14  and  O_19
                            x       y       z     vdW  Elec       q    Type
                         _______ _______ _______ _____ _____    ______ ____

>  <TORSDO>
F 7

$$$$
