=
 OpenBabel11062410093D

 43 47  0  0  1  0  0  0  0  0999 V2000
  161.5110  203.4010  146.2490 C   0  0  0  0  0  0  0  0  0  0  0  0
  161.2040  205.9210  150.6230 C   0  0  0  0  0  0  0  0  0  0  0  0
  161.6000  208.6620  149.9750 N   0  0  0  0  0  0  0  0  0  0  0  0
  161.1450  204.0090  148.5650 C   0  0  0  0  0  0  0  0  0  0  0  0
  161.9270  204.7060  145.9680 C   0  0  0  0  0  3  0  0  0  0  0  0
  161.4870  202.4710  145.2640 F   0  0  0  0  0  0  0  0  0  0  0  0
  161.5670  205.3310  148.2860 C   0  0  0  0  0  0  0  0  0  0  0  0
  161.1170  203.0550  147.5450 C   0  0  0  0  0  3  0  0  0  0  0  0
  161.9540  205.6690  146.9810 C   0  0  0  0  0  3  0  0  0  0  0  0
  161.9400  207.6480  149.0580 N   0  0  0  0  0  2  0  0  0  0  0  0
  161.5700  206.2880  149.3140 C   0  0  0  0  0  0  0  0  0  0  0  0
  160.7700  204.6120  150.8790 C   0  0  0  0  0  3  0  0  0  0  0  0
  161.1890  206.9690  151.7130 C   0  0  2  0  0  3  0  0  0  0  0  0
  162.0050  208.2040  151.3050 C   0  0  0  0  0  2  0  0  0  0  0  0
  160.7450  203.6600  149.8570 C   0  0  0  0  0  3  0  0  0  0  0  0
  162.3810  209.8580  149.6410 C   0  0  2  0  0  3  0  0  0  0  0  0
  162.6610  210.5950  150.7960 O   0  0  0  0  0  1  0  0  0  0  0  0
  161.6460  210.7520  148.6400 C   0  0  0  0  0  2  0  0  0  0  0  0
  162.1930  212.1710  148.6430 C   0  0  1  0  0  3  0  0  0  0  0  0
  163.2750  212.2470  147.7650 O   0  0  0  0  0  1  0  0  0  0  0  0
  161.0960  213.1330  148.1960 C   0  0  0  0  0  2  0  0  0  0  0  0
  160.3380  212.6430  146.9610 C   0  0  2  0  0  3  0  0  0  0  0  0
  160.6570  212.6800  144.4420 C   0  0  0  0  0  0  0  0  0  0  0  0
  160.9190  213.2030  145.7480 N   0  0  0  0  0  2  0  0  0  0  0  0
  159.8880  211.6890  144.3010 O   0  0  0  0  0  0  0  0  0  0  0  0
  161.3040  213.2960  143.2700 C   0  0  0  0  0  0  0  0  0  0  0  0
  161.4150  213.8280  140.8540 C   0  0  0  0  0  2  0  0  0  0  0  0
  163.3100  214.3850  142.3790 C   0  0  0  0  0  3  0  0  0  0  0  0
  162.9390  213.8850  141.0100 C   0  0  0  0  0  2  0  0  0  0  0  0
  162.5580  214.0670  143.4380 C   0  0  0  0  0  3  0  0  0  0  0  0
  160.7880  213.1430  142.0410 C   0  0  0  0  0  3  0  0  0  0  0  0
  158.8520  212.9780  147.0410 C   0  0  0  0  0  2  0  0  0  0  0  0
  157.0080  213.2810  149.0680 S   0  0  0  0  0  1  0  0  0  0  0  0
  158.5350  213.8410  148.2550 C   0  0  0  0  0  2  0  0  0  0  0  0
  161.7390  206.4200  153.0250 C   0  0  0  0  0  2  0  0  0  0  0  0
  160.3600  209.5110  154.6210 C   0  0  0  0  0  2  0  0  0  0  0  0
  160.4410  208.9140  156.0340 C   0  0  2  0  0  3  0  0  0  0  0  0
  160.3530  206.6310  154.9010 C   0  0  0  0  0  2  0  0  0  0  0  0
  160.7970  208.5080  153.5410 C   0  0  0  0  0  2  0  0  0  0  0  0
  161.3900  207.3040  154.1230 N   0  0  0  0  0  0  0  0  0  0  0  0
  159.9580  207.4560  156.1330 C   0  0  0  0  0  2  0  0  0  0  0  0
  159.9070  209.7540  157.0340 O   0  0  0  0  0  0  0  0  0  0  0  0
  159.1760  210.7810  156.4130 C   0  0  0  0  0  1  0  0  0  0  0  0
  1  8  1  0  0  0  0
  2 12  1  0  0  0  0
  2 13  1  0  0  0  0
  3 14  1  0  0  0  0
  4 15  1  0  0  0  0
  5  1  2  0  0  0  0
  5  9  1  0  0  0  0
  6  1  1  0  0  0  0
  7  4  1  0  0  0  0
  7 11  1  0  0  0  0
  8  4  2  0  0  0  0
  9  7  2  0  0  0  0
 10 11  1  0  0  0  0
 10  3  1  0  0  0  0
 11  2  2  0  0  0  0
 13 35  1  1  0  0  0
 14 13  1  0  0  0  0
 15 12  2  0  0  0  0
 16  3  1  0  0  0  0
 16 17  1  1  0  0  0
 18 19  1  0  0  0  0
 18 16  1  0  0  0  0
 19 20  1  6  0  0  0
 21 19  1  0  0  0  0
 22 32  1  1  0  0  0
 22 21  1  0  0  0  0
 23 24  1  0  0  0  0
 24 22  1  0  0  0  0
 25 23  2  0  0  0  0
 26 30  1  0  0  0  0
 26 23  1  0  0  0  0
 27 29  1  0  0  0  0
 27 31  1  0  0  0  0
 28 30  2  0  0  0  0
 29 28  1  0  0  0  0
 31 26  2  0  0  0  0
 32 34  1  0  0  0  0
 34 33  1  0  0  0  0
 35 40  1  0  0  0  0
 36 37  1  0  0  0  0
 37 41  1  0  0  0  0
 37 42  1  1  0  0  0
 38 41  1  0  0  0  0
 39 40  1  0  0  0  0
 39 36  1  0  0  0  0
 40 38  1  0  0  0  0
 43 42  1  0  0  0  0
M  END
>  <MODEL>
1

>  <REMARK>
 VINA RESULT:      -8.6      0.000      0.000
  Name = 
  12 active torsions:
  status: ('A' for Active; 'I' for Inactive)
    1  A    between atoms: C_1  and  C_34
    2  A    between atoms: C_1  and  N_35
    3  A    between atoms: C_2  and  C_6
    4  A    between atoms: C_2  and  N_13
    5  A    between atoms: C_3  and  C_4
    6  A    between atoms: C_3  and  C_12
    7  A    between atoms: C_4  and  C_15
    8  A    between atoms: C_4  and  N_22
    9  A    between atoms: C_6  and  C_12
   10  A    between atoms: C_11  and  C_14
   11  A    between atoms: C_15  and  C_42
   12  A    between atoms: C_19  and  O_25
                            x       y       z     vdW  Elec       q    Type
                         _______ _______ _______ _____ _____    ______ ____

>  <TORSDO>
F 12

$$$$
=
 OpenBabel11062410093D

 43 47  0  0  1  0  0  0  0  0999 V2000
  159.7340  210.2650  156.1060 C   0  0  0  0  0  0  0  0  0  0  0  0
  161.3440  207.1430  152.4680 C   0  0  0  0  0  0  0  0  0  0  0  0
  162.1500  208.8090  150.3080 N   0  0  0  0  0  0  0  0  0  0  0  0
  160.4520  208.3160  154.8610 C   0  0  0  0  0  0  0  0  0  0  0  0
  159.9140  211.0620  154.9710 C   0  0  0  0  0  3  0  0  0  0  0  0
  159.2960  210.8220  157.2610 F   0  0  0  0  0  0  0  0  0  0  0  0
  160.6350  209.1180  153.7090 C   0  0  0  0  0  0  0  0  0  0  0  0
  160.0060  208.8950  156.0520 C   0  0  0  0  0  3  0  0  0  0  0  0
  160.3640  210.4920  153.7770 C   0  0  0  0  0  3  0  0  0  0  0  0
  161.3520  209.3180  151.3520 N   0  0  0  0  0  2  0  0  0  0  0  0
  161.1050  208.5290  152.5230 C   0  0  0  0  0  0  0  0  0  0  0  0
  161.1760  206.3650  153.6240 C   0  0  0  0  0  3  0  0  0  0  0  0
  161.8740  206.5290  151.1920 C   0  0  2  0  0  3  0  0  0  0  0  0
  161.6580  207.4670  149.9950 C   0  0  0  0  0  2  0  0  0  0  0  0
  160.7290  206.9470  154.8120 C   0  0  0  0  0  3  0  0  0  0  0  0
  161.9510  209.6600  149.1300 C   0  0  2  0  0  3  0  0  0  0  0  0
  162.7750  209.2380  148.0800 O   0  0  0  0  0  1  0  0  0  0  0  0
  162.2450  211.1300  149.4380 C   0  0  0  0  0  2  0  0  0  0  0  0
  161.2060  212.0540  148.8220 C   0  0  1  0  0  3  0  0  0  0  0  0
  160.8680  213.0440  149.7460 O   0  0  0  0  0  1  0  0  0  0  0  0
  161.7870  212.6970  147.5670 C   0  0  0  0  0  2  0  0  0  0  0  0
  160.8360  212.6370  146.3690 C   0  0  2  0  0  3  0  0  0  0  0  0
  161.1020  212.5740  143.8450 C   0  0  0  0  0  0  0  0  0  0  0  0
  161.5360  212.9940  145.1420 N   0  0  0  0  0  2  0  0  0  0  0  0
  160.0670  211.8620  143.7240 O   0  0  0  0  0  0  0  0  0  0  0  0
  161.8830  212.9650  142.6570 C   0  0  0  0  0  0  0  0  0  0  0  0
  163.4920  214.4290  141.4750 C   0  0  0  0  0  2  0  0  0  0  0  0
  162.2610  212.6320  140.2590 C   0  0  0  0  0  3  0  0  0  0  0  0
  162.7820  214.0400  140.1740 C   0  0  0  0  0  2  0  0  0  0  0  0
  161.8040  212.1530  141.4210 C   0  0  0  0  0  3  0  0  0  0  0  0
  162.6460  214.0690  142.6690 C   0  0  0  0  0  3  0  0  0  0  0  0
  159.6200  213.5370  146.5680 C   0  0  0  0  0  2  0  0  0  0  0  0
  157.1510  213.2590  147.7610 S   0  0  0  0  0  1  0  0  0  0  0  0
  158.3180  212.7530  146.4630 C   0  0  0  0  0  2  0  0  0  0  0  0
  161.2110  205.1870  150.8990 C   0  0  0  0  0  2  0  0  0  0  0  0
  161.2080  202.8770  147.9560 C   0  0  0  0  0  2  0  0  0  0  0  0
  161.7450  203.9580  147.0050 C   0  0  2  0  0  3  0  0  0  0  0  0
  160.7760  205.6540  148.6450 C   0  0  0  0  0  2  0  0  0  0  0  0
  160.9700  203.4170  149.3760 C   0  0  0  0  0  2  0  0  0  0  0  0
  161.5120  204.7650  149.5420 N   0  0  0  0  0  0  0  0  0  0  0  0
  161.0800  205.3350  147.1750 C   0  0  0  0  0  2  0  0  0  0  0  0
  161.8330  203.5360  145.6620 O   0  0  0  0  0  0  0  0  0  0  0  0
  160.9770  204.3350  144.8850 C   0  0  0  0  0  1  0  0  0  0  0  0
  1  6  1  0  0  0  0
  2 11  2  0  0  0  0
  2 12  1  0  0  0  0
  3 10  1  0  0  0  0
  4  8  2  0  0  0  0
  5  1  2  0  0  0  0
  7  9  2  0  0  0  0
  7  4  1  0  0  0  0
  8  1  1  0  0  0  0
  9  5  1  0  0  0  0
 10 11  1  0  0  0  0
 11  7  1  0  0  0  0
 12 15  2  0  0  0  0
 13 35  1  6  0  0  0
 13  2  1  0  0  0  0
 14  3  1  0  0  0  0
 14 13  1  0  0  0  0
 15  4  1  0  0  0  0
 16 17  1  6  0  0  0
 16 18  1  0  0  0  0
 16  3  1  0  0  0  0
 19 18  1  0  0  0  0
 19 20  1  1  0  0  0
 21 19  1  0  0  0  0
 22 32  1  1  0  0  0
 22 21  1  0  0  0  0
 23 24  1  0  0  0  0
 24 22  1  0  0  0  0
 25 23  2  0  0  0  0
 26 31  2  0  0  0  0
 26 23  1  0  0  0  0
 27 31  1  0  0  0  0
 28 30  2  0  0  0  0
 29 28  1  0  0  0  0
 29 27  1  0  0  0  0
 30 26  1  0  0  0  0
 34 32  1  0  0  0  0
 34 33  1  0  0  0  0
 36 39  1  0  0  0  0
 37 42  1  6  0  0  0
 37 41  1  0  0  0  0
 37 36  1  0  0  0  0
 38 40  1  0  0  0  0
 39 40  1  0  0  0  0
 40 35  1  0  0  0  0
 41 38  1  0  0  0  0
 43 42  1  0  0  0  0
M  END
>  <MODEL>
2

>  <REMARK>
 VINA RESULT:      -8.2      2.884      6.221
  Name = 
  12 active torsions:
  status: ('A' for Active; 'I' for Inactive)
    1  A    between atoms: C_1  and  C_34
    2  A    between atoms: C_1  and  N_35
    3  A    between atoms: C_2  and  C_6
    4  A    between atoms: C_2  and  N_13
    5  A    between atoms: C_3  and  C_4
    6  A    between atoms: C_3  and  C_12
    7  A    between atoms: C_4  and  C_15
    8  A    between atoms: C_4  and  N_22
    9  A    between atoms: C_6  and  C_12
   10  A    between atoms: C_11  and  C_14
   11  A    between atoms: C_15  and  C_42
   12  A    between atoms: C_19  and  O_25
                            x       y       z     vdW  Elec       q    Type
                         _______ _______ _______ _____ _____    ______ ____

>  <TORSDO>
F 12

$$$$
=
 OpenBabel11062410093D

 43 47  0  0  1  0  0  0  0  0999 V2000
  161.5430  203.9040  146.9840 C   0  0  0  0  0  0  0  0  0  0  0  0
  161.3150  207.5870  150.4420 C   0  0  0  0  0  0  0  0  0  0  0  0
  161.4660  210.0300  148.9930 N   0  0  0  0  0  0  0  0  0  0  0  0
  161.2740  205.1500  149.0430 C   0  0  0  0  0  0  0  0  0  0  0  0
  161.8440  205.0870  146.3020 C   0  0  0  0  0  3  0  0  0  0  0  0
  161.5300  202.7240  146.3190 F   0  0  0  0  0  0  0  0  0  0  0  0
  161.5790  206.3510  148.3570 C   0  0  0  0  0  0  0  0  0  0  0  0
  161.2550  203.9360  148.3510 C   0  0  0  0  0  3  0  0  0  0  0  0
  161.8610  206.3060  146.9840 C   0  0  0  0  0  3  0  0  0  0  0  0
  161.8250  208.8090  148.3870 N   0  0  0  0  0  2  0  0  0  0  0  0
  161.5730  207.5680  149.0580 C   0  0  0  0  0  0  0  0  0  0  0  0
  160.9960  206.3910  151.1030 C   0  0  0  0  0  3  0  0  0  0  0  0
  161.2870  208.9080  151.1760 C   0  0  2  0  0  3  0  0  0  0  0  0
  161.9830  210.0090  150.3620 C   0  0  0  0  0  2  0  0  0  0  0  0
  160.9800  205.1800  150.4080 C   0  0  0  0  0  3  0  0  0  0  0  0
  162.1350  211.1120  148.2630 C   0  0  2  0  0  3  0  0  0  0  0  0
  162.6310  212.0680  149.1560 O   0  0  0  0  0  1  0  0  0  0  0  0
  161.1890  211.7940  147.2720 C   0  0  0  0  0  2  0  0  0  0  0  0
  161.7650  213.1020  146.7500 C   0  0  1  0  0  3  0  0  0  0  0  0
  163.0900  212.8970  146.3650 O   0  0  0  0  0  1  0  0  0  0  0  0
  160.9450  213.5690  145.5520 C   0  0  0  0  0  2  0  0  0  0  0  0
  159.9110  212.5380  145.0950 C   0  0  2  0  0  3  0  0  0  0  0  0
  160.4740  212.6540  142.6220 C   0  0  0  0  0  0  0  0  0  0  0  0
  160.3230  211.9210  143.8410 N   0  0  0  0  0  2  0  0  0  0  0  0
  160.2500  213.8970  142.6000 O   0  0  0  0  0  0  0  0  0  0  0  0
  160.8760  211.9460  141.3930 C   0  0  0  0  0  0  0  0  0  0  0  0
  160.3670  210.7820  139.2680 C   0  0  0  0  0  2  0  0  0  0  0  0
  162.6980  210.8760  140.1530 C   0  0  0  0  0  3  0  0  0  0  0  0
  161.6810  210.0150  139.4570 C   0  0  0  0  0  2  0  0  0  0  0  0
  162.3120  211.7490  141.0900 C   0  0  0  0  0  3  0  0  0  0  0  0
  159.9540  211.4480  140.5550 C   0  0  0  0  0  3  0  0  0  0  0  0
  158.5230  213.1540  144.9530 C   0  0  0  0  0  2  0  0  0  0  0  0
  157.4550  212.9540  147.4870 S   0  0  0  0  0  1  0  0  0  0  0  0
  158.1540  213.9930  146.1690 C   0  0  0  0  0  2  0  0  0  0  0  0
  161.9550  208.8030  152.5430 C   0  0  0  0  0  2  0  0  0  0  0  0
  159.2950  211.1420  153.7500 C   0  0  0  0  0  2  0  0  0  0  0  0
  159.7390  211.0180  155.2160 C   0  0  2  0  0  3  0  0  0  0  0  0
  160.7510  208.7730  154.5520 C   0  0  0  0  0  2  0  0  0  0  0  0
  160.1200  210.2420  152.8150 C   0  0  0  0  0  2  0  0  0  0  0  0
  161.2670  209.6490  153.5030 N   0  0  0  0  0  0  0  0  0  0  0  0
  160.0590  209.5790  155.6590 C   0  0  0  0  0  2  0  0  0  0  0  0
  158.9080  211.7140  156.1190 O   0  0  0  0  0  0  0  0  0  0  0  0
  157.6020  211.2080  156.0070 C   0  0  0  0  0  1  0  0  0  0  0  0
  1  8  1  0  0  0  0
  2 12  1  0  0  0  0
  2 13  1  0  0  0  0
  3 14  1  0  0  0  0
  4 15  1  0  0  0  0
  5  1  2  0  0  0  0
  5  9  1  0  0  0  0
  6  1  1  0  0  0  0
  7  4  1  0  0  0  0
  7 11  1  0  0  0  0
  8  4  2  0  0  0  0
  9  7  2  0  0  0  0
 10  3  1  0  0  0  0
 10 11  1  0  0  0  0
 11  2  2  0  0  0  0
 13 35  1  1  0  0  0
 14 13  1  0  0  0  0
 15 12  2  0  0  0  0
 16  3  1  0  0  0  0
 16 17  1  1  0  0  0
 18 16  1  0  0  0  0
 19 20  1  6  0  0  0
 19 18  1  0  0  0  0
 21 19  1  0  0  0  0
 22 32  1  6  0  0  0
 22 21  1  0  0  0  0
 23 24  1  0  0  0  0
 24 22  1  0  0  0  0
 25 23  2  0  0  0  0
 26 23  1  0  0  0  0
 27 29  1  0  0  0  0
 27 31  1  0  0  0  0
 28 30  2  0  0  0  0
 29 28  1  0  0  0  0
 30 26  1  0  0  0  0
 31 26  2  0  0  0  0
 32 34  1  0  0  0  0
 34 33  1  0  0  0  0
 35 40  1  0  0  0  0
 36 37  1  0  0  0  0
 37 41  1  0  0  0  0
 37 42  1  1  0  0  0
 38 41  1  0  0  0  0
 39 40  1  0  0  0  0
 39 36  1  0  0  0  0
 40 38  1  0  0  0  0
 43 42  1  0  0  0  0
M  END
>  <MODEL>
3

>  <REMARK>
 VINA RESULT:      -8.1      1.745      2.179
  Name = 
  12 active torsions:
  status: ('A' for Active; 'I' for Inactive)
    1  A    between atoms: C_1  and  C_34
    2  A    between atoms: C_1  and  N_35
    3  A    between atoms: C_2  and  C_6
    4  A    between atoms: C_2  and  N_13
    5  A    between atoms: C_3  and  C_4
    6  A    between atoms: C_3  and  C_12
    7  A    between atoms: C_4  and  C_15
    8  A    between atoms: C_4  and  N_22
    9  A    between atoms: C_6  and  C_12
   10  A    between atoms: C_11  and  C_14
   11  A    between atoms: C_15  and  C_42
   12  A    between atoms: C_19  and  O_25
                            x       y       z     vdW  Elec       q    Type
                         _______ _______ _______ _____ _____    ______ ____

>  <TORSDO>
F 12

$$$$
=
 OpenBabel11062410093D

 43 47  0  0  1  0  0  0  0  0999 V2000
  161.8090  203.9730  146.1430 C   0  0  0  0  0  0  0  0  0  0  0  0
  161.2250  206.9870  150.1620 C   0  0  0  0  0  0  0  0  0  0  0  0
  161.5710  209.6430  149.2040 N   0  0  0  0  0  0  0  0  0  0  0  0
  161.3180  204.8410  148.3500 C   0  0  0  0  0  0  0  0  0  0  0  0
  162.2000  205.2490  145.7240 C   0  0  0  0  0  3  0  0  0  0  0  0
  161.8580  202.9320  145.2780 F   0  0  0  0  0  0  0  0  0  0  0  0
  161.7140  206.1340  147.9310 C   0  0  0  0  0  0  0  0  0  0  0  0
  161.3650  203.7710  147.4530 C   0  0  0  0  0  3  0  0  0  0  0  0
  162.1520  206.3260  146.6130 C   0  0  0  0  0  3  0  0  0  0  0  0
  161.9830  208.5380  148.4320 N   0  0  0  0  0  2  0  0  0  0  0  0
  161.6410  207.2060  148.8350 C   0  0  0  0  0  0  0  0  0  0  0  0
  160.8180  205.7030  150.5570 C   0  0  0  0  0  3  0  0  0  0  0  0
  161.1290  208.1570  151.1160 C   0  0  2  0  0  3  0  0  0  0  0  0
  161.9270  209.3620  150.5960 C   0  0  0  0  0  2  0  0  0  0  0  0
  160.8680  204.6360  149.6570 C   0  0  0  0  0  3  0  0  0  0  0  0
  162.3330  210.8160  148.7610 C   0  0  2  0  0  3  0  0  0  0  0  0
  162.8070  211.5340  149.8650 O   0  0  0  0  0  1  0  0  0  0  0  0
  161.4860  211.7420  147.8860 C   0  0  0  0  0  2  0  0  0  0  0  0
  161.1260  213.0300  148.6090 C   0  0  1  0  0  3  0  0  0  0  0  0
  161.1160  214.0820  147.6920 O   0  0  0  0  0  1  0  0  0  0  0  0
  159.7460  212.8830  149.2410 C   0  0  0  0  0  2  0  0  0  0  0  0
  158.9750  214.2030  149.3080 C   0  0  2  0  0  3  0  0  0  0  0  0
  158.5650  213.9690  151.8040 C   0  0  0  0  0  0  0  0  0  0  0  0
  158.1020  214.2260  150.4740 N   0  0  0  0  0  2  0  0  0  0  0  0
  159.7840  213.7100  152.0090 O   0  0  0  0  0  0  0  0  0  0  0  0
  157.6080  213.9940  152.9240 C   0  0  0  0  0  0  0  0  0  0  0  0
  157.0430  213.8160  155.3290 C   0  0  0  0  0  2  0  0  0  0  0  0
  155.2540  214.0310  153.6020 C   0  0  0  0  0  3  0  0  0  0  0  0
  155.6440  213.3650  154.8920 C   0  0  0  0  0  2  0  0  0  0  0  0
  156.1790  214.2830  152.6690 C   0  0  0  0  0  3  0  0  0  0  0  0
  158.0100  213.7260  154.1770 C   0  0  0  0  0  3  0  0  0  0  0  0
  158.1700  214.4530  148.0370 C   0  0  0  0  0  2  0  0  0  0  0  0
  157.2140  213.0430  145.8700 S   0  0  0  0  0  1  0  0  0  0  0  0
  157.3070  213.2520  147.6740 C   0  0  0  0  0  2  0  0  0  0  0  0
  161.6330  207.7880  152.5070 C   0  0  0  0  0  2  0  0  0  0  0  0
  160.8220  209.0880  155.9210 C   0  0  0  0  0  2  0  0  0  0  0  0
  159.5820  209.8470  155.4250 C   0  0  2  0  0  3  0  0  0  0  0  0
  160.6950  209.8420  153.1300 C   0  0  0  0  0  2  0  0  0  0  0  0
  161.5770  208.3950  154.7740 C   0  0  0  0  0  2  0  0  0  0  0  0
  160.8230  208.4400  153.5210 N   0  0  0  0  0  0  0  0  0  0  0  0
  159.7950  210.6110  154.1070 C   0  0  0  0  0  2  0  0  0  0  0  0
  158.9520  210.6150  156.4270 O   0  0  0  0  0  0  0  0  0  0  0  0
  159.8730  211.5570  156.9160 C   0  0  0  0  0  1  0  0  0  0  0  0
  1  8  1  0  0  0  0
  2 12  1  0  0  0  0
  2 13  1  0  0  0  0
  3 14  1  0  0  0  0
  4 15  1  0  0  0  0
  5  1  2  0  0  0  0
  5  9  1  0  0  0  0
  6  1  1  0  0  0  0
  7  4  1  0  0  0  0
  7 11  1  0  0  0  0
  8  4  2  0  0  0  0
  9  7  2  0  0  0  0
 10 11  1  0  0  0  0
 10  3  1  0  0  0  0
 11  2  2  0  0  0  0
 13 35  1  1  0  0  0
 14 13  1  0  0  0  0
 15 12  2  0  0  0  0
 16  3  1  0  0  0  0
 16 17  1  1  0  0  0
 18 19  1  0  0  0  0
 18 16  1  0  0  0  0
 19 20  1  6  0  0  0
 19 21  1  0  0  0  0
 21 22  1  0  0  0  0
 22 32  1  6  0  0  0
 22 24  1  0  0  0  0
 23 25  2  0  0  0  0
 23 26  1  0  0  0  0
 24 23  1  0  0  0  0
 26 31  2  0  0  0  0
 28 29  1  0  0  0  0
 29 27  1  0  0  0  0
 30 26  1  0  0  0  0
 30 28  2  0  0  0  0
 31 27  1  0  0  0  0
 33 34  1  0  0  0  0
 34 32  1  0  0  0  0
 35 40  1  0  0  0  0
 37 36  1  0  0  0  0
 37 42  1  1  0  0  0
 38 40  1  0  0  0  0
 38 41  1  0  0  0  0
 39 36  1  0  0  0  0
 40 39  1  0  0  0  0
 41 37  1  0  0  0  0
 42 43  1  0  0  0  0
M  END
>  <MODEL>
4

>  <REMARK>
 VINA RESULT:      -7.4      2.855      5.519
  Name = 
  12 active torsions:
  status: ('A' for Active; 'I' for Inactive)
    1  A    between atoms: C_1  and  C_34
    2  A    between atoms: C_1  and  N_35
    3  A    between atoms: C_2  and  C_6
    4  A    between atoms: C_2  and  N_13
    5  A    between atoms: C_3  and  C_4
    6  A    between atoms: C_3  and  C_12
    7  A    between atoms: C_4  and  C_15
    8  A    between atoms: C_4  and  N_22
    9  A    between atoms: C_6  and  C_12
   10  A    between atoms: C_11  and  C_14
   11  A    between atoms: C_15  and  C_42
   12  A    between atoms: C_19  and  O_25
                            x       y       z     vdW  Elec       q    Type
                         _______ _______ _______ _____ _____    ______ ____

>  <TORSDO>
F 12

$$$$
=
 OpenBabel11062410093D

 43 47  0  0  1  0  0  0  0  0999 V2000
  160.5470  207.7070  155.3380 C   0  0  0  0  0  0  0  0  0  0  0  0
  161.6710  207.6130  150.4080 C   0  0  0  0  0  0  0  0  0  0  0  0
  162.3460  210.2860  149.7090 N   0  0  0  0  0  0  0  0  0  0  0  0
  161.0590  206.9960  153.0800 C   0  0  0  0  0  0  0  0  0  0  0  0
  160.6560  209.0450  154.9450 C   0  0  0  0  0  3  0  0  0  0  0  0
  160.2440  207.4020  156.6220 F   0  0  0  0  0  0  0  0  0  0  0  0
  161.1690  208.3480  152.6770 C   0  0  0  0  0  0  0  0  0  0  0  0
  160.7510  206.6850  154.4070 C   0  0  0  0  0  3  0  0  0  0  0  0
  160.9670  209.3660  153.6210 C   0  0  0  0  0  3  0  0  0  0  0  0
  161.6730  210.0040  150.9140 N   0  0  0  0  0  2  0  0  0  0  0  0
  161.5000  208.6490  151.3460 C   0  0  0  0  0  0  0  0  0  0  0  0
  161.5760  206.2770  150.8270 C   0  0  0  0  0  3  0  0  0  0  0  0
  162.0520  207.9530  148.9840 C   0  0  2  0  0  3  0  0  0  0  0  0
  161.7680  209.4300  148.6730 C   0  0  0  0  0  2  0  0  0  0  0  0
  161.2680  205.9710  152.1540 C   0  0  0  0  0  3  0  0  0  0  0  0
  162.0770  211.6840  149.3550 C   0  0  2  0  0  3  0  0  0  0  0  0
  160.9360  212.1440  150.0200 O   0  0  0  0  0  1  0  0  0  0  0  0
  161.8850  211.8590  147.8470 C   0  0  0  0  0  2  0  0  0  0  0  0
  162.1220  213.2960  147.4100 C   0  0  1  0  0  3  0  0  0  0  0  0
  163.1260  213.8560  148.2020 O   0  0  0  0  0  1  0  0  0  0  0  0
  162.5500  213.3120  145.9460 C   0  0  0  0  0  2  0  0  0  0  0  0
  161.3710  213.2080  144.9760 C   0  0  2  0  0  3  0  0  0  0  0  0
  161.0890  212.2490  142.6420 C   0  0  0  0  0  0  0  0  0  0  0  0
  161.8450  212.9720  143.6190 N   0  0  0  0  0  2  0  0  0  0  0  0
  159.9520  211.7850  142.9380 O   0  0  0  0  0  0  0  0  0  0  0  0
  161.6530  212.0390  141.2970 C   0  0  0  0  0  0  0  0  0  0  0  0
  162.9440  210.7240  139.6420 C   0  0  0  0  0  2  0  0  0  0  0  0
  162.1230  213.0180  139.1000 C   0  0  0  0  0  3  0  0  0  0  0  0
  163.2650  212.0510  138.9450 C   0  0  0  0  0  2  0  0  0  0  0  0
  161.4000  213.0300  140.2250 C   0  0  0  0  0  3  0  0  0  0  0  0
  162.4220  210.9710  141.0340 C   0  0  0  0  0  3  0  0  0  0  0  0
  160.4910  214.4530  145.0220 C   0  0  0  0  0  2  0  0  0  0  0  0
  158.6790  212.5400  145.8320 S   0  0  0  0  0  1  0  0  0  0  0  0
  159.2810  214.2530  145.9240 C   0  0  0  0  0  2  0  0  0  0  0  0
  161.3050  207.0800  147.9810 C   0  0  0  0  0  2  0  0  0  0  0  0
  160.3040  203.6940  149.2210 C   0  0  0  0  0  2  0  0  0  0  0  0
  161.5870  203.0330  148.6920 C   0  0  2  0  0  3  0  0  0  0  0  0
  161.7150  204.9740  147.0420 C   0  0  0  0  0  2  0  0  0  0  0  0
  160.2320  205.1880  148.8660 C   0  0  0  0  0  2  0  0  0  0  0  0
  161.4910  205.6760  148.3040 N   0  0  0  0  0  0  0  0  0  0  0  0
  161.9920  203.4830  147.2770 C   0  0  0  0  0  2  0  0  0  0  0  0
  161.6170  201.6340  148.8690 O   0  0  0  0  0  0  0  0  0  0  0  0
  161.2280  201.3400  150.1870 C   0  0  0  0  0  1  0  0  0  0  0  0
  1  6  1  0  0  0  0
  2 12  2  0  0  0  0
  2 11  1  0  0  0  0
  3 10  1  0  0  0  0
  4  8  1  0  0  0  0
  5  1  1  0  0  0  0
  7  4  1  0  0  0  0
  7  9  1  0  0  0  0
  8  1  2  0  0  0  0
  9  5  2  0  0  0  0
 10 11  1  0  0  0  0
 11  7  2  0  0  0  0
 12 15  1  0  0  0  0
 13 35  1  6  0  0  0
 13  2  1  0  0  0  0
 14 13  1  0  0  0  0
 14  3  1  0  0  0  0
 15  4  2  0  0  0  0
 16  3  1  0  0  0  0
 16 17  1  1  0  0  0
 18 16  1  0  0  0  0
 19 18  1  0  0  0  0
 19 20  1  1  0  0  0
 21 19  1  0  0  0  0
 22 32  1  6  0  0  0
 22 21  1  0  0  0  0
 23 25  2  0  0  0  0
 23 24  1  0  0  0  0
 24 22  1  0  0  0  0
 26 23  1  0  0  0  0
 27 31  1  0  0  0  0
 28 30  2  0  0  0  0
 29 28  1  0  0  0  0
 29 27  1  0  0  0  0
 30 26  1  0  0  0  0
 31 26  2  0  0  0  0
 32 34  1  0  0  0  0
 33 34  1  0  0  0  0
 35 40  1  0  0  0  0
 37 42  1  6  0  0  0
 37 36  1  0  0  0  0
 38 41  1  0  0  0  0
 38 40  1  0  0  0  0
 39 36  1  0  0  0  0
 40 39  1  0  0  0  0
 41 37  1  0  0  0  0
 42 43  1  0  0  0  0
M  END
>  <MODEL>
5

>  <REMARK>
 VINA RESULT:      -6.7      2.896      5.715
  Name = 
  12 active torsions:
  status: ('A' for Active; 'I' for Inactive)
    1  A    between atoms: C_1  and  C_34
    2  A    between atoms: C_1  and  N_35
    3  A    between atoms: C_2  and  C_6
    4  A    between atoms: C_2  and  N_13
    5  A    between atoms: C_3  and  C_4
    6  A    between atoms: C_3  and  C_12
    7  A    between atoms: C_4  and  C_15
    8  A    between atoms: C_4  and  N_22
    9  A    between atoms: C_6  and  C_12
   10  A    between atoms: C_11  and  C_14
   11  A    between atoms: C_15  and  C_42
   12  A    between atoms: C_19  and  O_25
                            x       y       z     vdW  Elec       q    Type
                         _______ _______ _______ _____ _____    ______ ____

>  <TORSDO>
F 12

$$$$
=
 OpenBabel11062410093D

 43 47  0  0  1  0  0  0  0  0999 V2000
  162.3880  212.5890  146.9580 C   0  0  0  0  0  0  0  0  0  0  0  0
  159.7060  213.3080  151.1850 C   0  0  0  0  0  0  0  0  0  0  0  0
  160.7190  211.4440  153.0790 N   0  0  0  0  0  0  0  0  0  0  0  0
  160.8900  213.4760  148.6420 C   0  0  0  0  0  0  0  0  0  0  0  0
  162.7250  211.5320  147.8080 C   0  0  0  0  0  3  0  0  0  0  0  0
  162.9480  212.6730  145.7280 F   0  0  0  0  0  0  0  0  0  0  0  0
  161.2270  212.4060  149.5060 C   0  0  0  0  0  0  0  0  0  0  0  0
  161.4750  213.5620  147.3760 C   0  0  0  0  0  3  0  0  0  0  0  0
  162.1490  211.4400  149.0780 C   0  0  0  0  0  3  0  0  0  0  0  0
  161.0060  211.3050  151.7070 N   0  0  0  0  0  2  0  0  0  0  0  0
  160.6500  212.3430  150.7850 C   0  0  0  0  0  0  0  0  0  0  0  0
  159.3970  214.3720  150.3240 C   0  0  0  0  0  3  0  0  0  0  0  0
  159.1130  213.2390  152.5740 C   0  0  2  0  0  3  0  0  0  0  0  0
  159.3170  211.8490  153.1950 C   0  0  0  0  0  2  0  0  0  0  0  0
  159.9820  214.4530  149.0590 C   0  0  0  0  0  3  0  0  0  0  0  0
  160.8730  210.1290  153.7100 C   0  0  2  0  0  3  0  0  0  0  0  0
  161.4500  210.2610  154.9780 O   0  0  0  0  0  1  0  0  0  0  0  0
  161.7340  209.1910  152.8620 C   0  0  0  0  0  2  0  0  0  0  0  0
  161.2090  207.7640  152.8860 C   0  0  1  0  0  3  0  0  0  0  0  0
  160.0440  207.7180  153.6530 O   0  0  0  0  0  1  0  0  0  0  0  0
  160.9050  207.3170  151.4590 C   0  0  0  0  0  2  0  0  0  0  0  0
  161.6790  206.0630  151.0480 C   0  0  2  0  0  3  0  0  0  0  0  0
  161.9560  206.1810  148.5260 C   0  0  0  0  0  0  0  0  0  0  0  0
  161.3170  205.6590  149.6960 N   0  0  0  0  0  2  0  0  0  0  0  0
  162.8830  207.0300  148.6390 O   0  0  0  0  0  0  0  0  0  0  0  0
  161.5120  205.7310  147.1950 C   0  0  0  0  0  0  0  0  0  0  0  0
  161.6750  204.2570  145.2110 C   0  0  0  0  0  2  0  0  0  0  0  0
  160.1040  206.1960  145.2440 C   0  0  0  0  0  3  0  0  0  0  0  0
  161.0640  205.4040  144.3980 C   0  0  0  0  0  2  0  0  0  0  0  0
  160.3480  206.3770  146.5460 C   0  0  0  0  0  3  0  0  0  0  0  0
  162.1700  204.7590  146.5440 C   0  0  0  0  0  3  0  0  0  0  0  0
  161.4530  204.9130  152.0240 C   0  0  0  0  0  2  0  0  0  0  0  0
  161.5920  202.1640  151.8760 S   0  0  0  0  0  1  0  0  0  0  0  0
  160.8090  203.7140  151.3400 C   0  0  0  0  0  2  0  0  0  0  0  0
  157.6230  213.5650  152.5640 C   0  0  0  0  0  2  0  0  0  0  0  0
  155.2420  214.0190  155.4150 C   0  0  0  0  0  2  0  0  0  0  0  0
  155.6870  212.7160  156.0980 C   0  0  2  0  0  3  0  0  0  0  0  0
  156.4450  211.9520  153.7860 C   0  0  0  0  0  2  0  0  0  0  0  0
  155.9560  214.2430  154.0720 C   0  0  0  0  0  2  0  0  0  0  0  0
  157.0400  213.2840  153.8640 N   0  0  0  0  0  0  0  0  0  0  0  0
  155.8560  211.5260  155.1370 C   0  0  0  0  0  2  0  0  0  0  0  0
  154.9460  212.4050  157.2570 O   0  0  0  0  0  0  0  0  0  0  0  0
  154.5660  211.0530  157.1960 C   0  0  0  0  0  1  0  0  0  0  0  0
  1  8  2  0  0  0  0
  1  5  1  0  0  0  0
  2 13  1  0  0  0  0
  3 14  1  0  0  0  0
  3 16  1  0  0  0  0
  4 15  2  0  0  0  0
  4  7  1  0  0  0  0
  5  9  2  0  0  0  0
  6  1  1  0  0  0  0
  7 11  2  0  0  0  0
  8  4  1  0  0  0  0
  9  7  1  0  0  0  0
 10  3  1  0  0  0  0
 11  2  1  0  0  0  0
 11 10  1  0  0  0  0
 12  2  2  0  0  0  0
 13 35  1  6  0  0  0
 13 14  1  0  0  0  0
 15 12  1  0  0  0  0
 16 17  1  1  0  0  0
 18 19  1  0  0  0  0
 18 16  1  0  0  0  0
 19 20  1  1  0  0  0
 21 19  1  0  0  0  0
 22 21  1  1  0  0  0
 22 32  1  0  0  0  0
 23 25  2  0  0  0  0
 23 24  1  0  0  0  0
 24 22  1  0  0  0  0
 26 23  1  0  0  0  0
 27 31  1  0  0  0  0
 28 30  2  0  0  0  0
 29 27  1  0  0  0  0
 29 28  1  0  0  0  0
 30 26  1  0  0  0  0
 31 26  2  0  0  0  0
 34 33  1  0  0  0  0
 34 32  1  0  0  0  0
 35 40  1  0  0  0  0
 36 37  1  0  0  0  0
 37 42  1  1  0  0  0
 38 40  1  0  0  0  0
 38 41  1  0  0  0  0
 39 36  1  0  0  0  0
 40 39  1  0  0  0  0
 41 37  1  0  0  0  0
 43 42  1  0  0  0  0
M  END
>  <MODEL>
6

>  <REMARK>
 VINA RESULT:      -6.5      3.974      7.907
  Name = 
  12 active torsions:
  status: ('A' for Active; 'I' for Inactive)
    1  A    between atoms: C_1  and  C_34
    2  A    between atoms: C_1  and  N_35
    3  A    between atoms: C_2  and  C_6
    4  A    between atoms: C_2  and  N_13
    5  A    between atoms: C_3  and  C_4
    6  A    between atoms: C_3  and  C_12
    7  A    between atoms: C_4  and  C_15
    8  A    between atoms: C_4  and  N_22
    9  A    between atoms: C_6  and  C_12
   10  A    between atoms: C_11  and  C_14
   11  A    between atoms: C_15  and  C_42
   12  A    between atoms: C_19  and  O_25
                            x       y       z     vdW  Elec       q    Type
                         _______ _______ _______ _____ _____    ______ ____

>  <TORSDO>
F 12

$$$$
=
 OpenBabel11062410093D

 43 47  0  0  1  0  0  0  0  0999 V2000
  158.9730  212.3430  154.7200 C   0  0  0  0  0  0  0  0  0  0  0  0
  161.3300  209.2220  151.5140 C   0  0  0  0  0  0  0  0  0  0  0  0
  162.2860  210.8570  149.3920 N   0  0  0  0  0  0  0  0  0  0  0  0
  160.0180  210.4140  153.6950 C   0  0  0  0  0  0  0  0  0  0  0  0
  159.2420  213.1020  153.5770 C   0  0  0  0  0  3  0  0  0  0  0  0
  158.3340  212.9080  155.7730 F   0  0  0  0  0  0  0  0  0  0  0  0
  160.2920  211.1770  152.5350 C   0  0  0  0  0  0  0  0  0  0  0  0
  159.3640  211.0020  154.7800 C   0  0  0  0  0  3  0  0  0  0  0  0
  159.9000  212.5230  152.4880 C   0  0  0  0  0  3  0  0  0  0  0  0
  161.3110  211.3370  150.2890 N   0  0  0  0  0  2  0  0  0  0  0  0
  160.9700  210.5820  151.4580 C   0  0  0  0  0  0  0  0  0  0  0  0
  161.0680  208.4840  152.6780 C   0  0  0  0  0  3  0  0  0  0  0  0
  162.0810  208.6020  150.3570 C   0  0  2  0  0  3  0  0  0  0  0  0
  161.9560  209.4630  149.0910 C   0  0  0  0  0  2  0  0  0  0  0  0
  160.4130  209.0750  153.7600 C   0  0  0  0  0  3  0  0  0  0  0  0
  162.1830  211.6340  148.1520 C   0  0  2  0  0  3  0  0  0  0  0  0
  162.9560  212.7960  148.2400 O   0  0  0  0  0  1  0  0  0  0  0  0
  160.7340  212.0170  147.8430 C   0  0  0  0  0  2  0  0  0  0  0  0
  160.6230  212.8100  146.5510 C   0  0  1  0  0  3  0  0  0  0  0  0
  161.8870  212.9210  145.9710 O   0  0  0  0  0  1  0  0  0  0  0  0
  159.6790  212.0860  145.5960 C   0  0  0  0  0  2  0  0  0  0  0  0
  158.8070  213.0400  144.7770 C   0  0  2  0  0  3  0  0  0  0  0  0
  160.2560  212.7260  142.7160 C   0  0  0  0  0  0  0  0  0  0  0  0
  159.5500  213.5620  143.6380 N   0  0  0  0  0  2  0  0  0  0  0  0
  160.2520  211.4730  142.8680 O   0  0  0  0  0  0  0  0  0  0  0  0
  160.9990  213.3400  141.6010 C   0  0  0  0  0  0  0  0  0  0  0  0
  161.1160  214.4320  139.3810 C   0  0  0  0  0  2  0  0  0  0  0  0
  163.1920  213.7650  140.5940 C   0  0  0  0  0  3  0  0  0  0  0  0
  162.5260  213.8480  139.2480 C   0  0  0  0  0  2  0  0  0  0  0  0
  162.4710  213.4850  141.6850 C   0  0  0  0  0  3  0  0  0  0  0  0
  160.3620  213.7460  140.4920 C   0  0  0  0  0  3  0  0  0  0  0  0
  158.2680  214.1850  145.6290 C   0  0  0  0  0  2  0  0  0  0  0  0
  157.0100  213.6980  148.0340 S   0  0  0  0  0  1  0  0  0  0  0  0
  156.9070  213.8500  146.2250 C   0  0  0  0  0  2  0  0  0  0  0  0
  161.5800  207.1940  150.0530 C   0  0  0  0  0  2  0  0  0  0  0  0
  162.7390  205.6240  146.8610 C   0  0  0  0  0  2  0  0  0  0  0  0
  161.5660  206.2050  146.0560 C   0  0  2  0  0  3  0  0  0  0  0  0
  160.3180  206.3370  148.2760 C   0  0  0  0  0  2  0  0  0  0  0  0
  162.6500  205.9770  148.3550 C   0  0  0  0  0  2  0  0  0  0  0  0
  161.5960  206.9560  148.6210 N   0  0  0  0  0  0  0  0  0  0  0  0
  160.2030  206.1040  146.7640 C   0  0  0  0  0  2  0  0  0  0  0  0
  161.5360  205.7770  144.7120 O   0  0  0  0  0  0  0  0  0  0  0  0
  160.5890  204.7460  144.5910 C   0  0  0  0  0  1  0  0  0  0  0  0
  1  8  1  0  0  0  0
  1  6  1  0  0  0  0
  2 12  1  0  0  0  0
  3 10  1  0  0  0  0
  4 15  1  0  0  0  0
  4  8  2  0  0  0  0
  5  1  2  0  0  0  0
  7  4  1  0  0  0  0
  9  7  2  0  0  0  0
  9  5  1  0  0  0  0
 10 11  1  0  0  0  0
 11  2  2  0  0  0  0
 11  7  1  0  0  0  0
 12 15  2  0  0  0  0
 13 35  1  6  0  0  0
 13  2  1  0  0  0  0
 14  3  1  0  0  0  0
 14 13  1  0  0  0  0
 16 17  1  1  0  0  0
 16  3  1  0  0  0  0
 18 16  1  0  0  0  0
 19 20  1  6  0  0  0
 19 18  1  0  0  0  0
 21 19  1  0  0  0  0
 22 21  1  1  0  0  0
 22 32  1  0  0  0  0
 23 25  2  0  0  0  0
 23 24  1  0  0  0  0
 24 22  1  0  0  0  0
 26 30  1  0  0  0  0
 26 23  1  0  0  0  0
 27 31  1  0  0  0  0
 28 30  2  0  0  0  0
 29 27  1  0  0  0  0
 29 28  1  0  0  0  0
 31 26  2  0  0  0  0
 32 34  1  0  0  0  0
 34 33  1  0  0  0  0
 36 39  1  0  0  0  0
 37 42  1  6  0  0  0
 37 41  1  0  0  0  0
 37 36  1  0  0  0  0
 38 40  1  0  0  0  0
 39 40  1  0  0  0  0
 40 35  1  0  0  0  0
 41 38  1  0  0  0  0
 43 42  1  0  0  0  0
M  END
>  <MODEL>
7

>  <REMARK>
 VINA RESULT:      -6.2      3.376      6.500
  Name = 
  12 active torsions:
  status: ('A' for Active; 'I' for Inactive)
    1  A    between atoms: C_1  and  C_34
    2  A    between atoms: C_1  and  N_35
    3  A    between atoms: C_2  and  C_6
    4  A    between atoms: C_2  and  N_13
    5  A    between atoms: C_3  and  C_4
    6  A    between atoms: C_3  and  C_12
    7  A    between atoms: C_4  and  C_15
    8  A    between atoms: C_4  and  N_22
    9  A    between atoms: C_6  and  C_12
   10  A    between atoms: C_11  and  C_14
   11  A    between atoms: C_15  and  C_42
   12  A    between atoms: C_19  and  O_25
                            x       y       z     vdW  Elec       q    Type
                         _______ _______ _______ _____ _____    ______ ____

>  <TORSDO>
F 12

$$$$
=
 OpenBabel11062410093D

 43 47  0  0  1  0  0  0  0  0999 V2000
  161.9240  212.4620  147.4340 C   0  0  0  0  0  0  0  0  0  0  0  0
  159.6850  213.1920  151.9100 C   0  0  0  0  0  0  0  0  0  0  0  0
  160.5840  211.0780  153.5870 N   0  0  0  0  0  0  0  0  0  0  0  0
  160.6870  213.4000  149.2930 C   0  0  0  0  0  0  0  0  0  0  0  0
  162.1820  211.3090  148.1830 C   0  0  0  0  0  3  0  0  0  0  0  0
  162.3960  212.5670  146.1690 F   0  0  0  0  0  0  0  0  0  0  0  0
  160.9440  212.2350  150.0540 C   0  0  0  0  0  0  0  0  0  0  0  0
  161.1810  213.5070  147.9900 C   0  0  0  0  0  3  0  0  0  0  0  0
  161.6960  211.1950  149.4880 C   0  0  0  0  0  3  0  0  0  0  0  0
  160.7470  211.0080  152.1900 N   0  0  0  0  0  2  0  0  0  0  0  0
  160.4620  212.1480  151.3700 C   0  0  0  0  0  0  0  0  0  0  0  0
  159.4550  214.3480  151.1490 C   0  0  0  0  0  3  0  0  0  0  0  0
  159.1950  213.0940  153.3370 C   0  0  2  0  0  3  0  0  0  0  0  0
  159.2610  211.6460  153.8470 C   0  0  0  0  0  2  0  0  0  0  0  0
  159.9490  214.4500  149.8470 C   0  0  0  0  0  3  0  0  0  0  0  0
  160.6110  209.7100  154.1170 C   0  0  2  0  0  3  0  0  0  0  0  0
  161.6860  209.5500  154.9980 O   0  0  0  0  0  1  0  0  0  0  0  0
  160.7210  208.6730  152.9970 C   0  0  0  0  0  2  0  0  0  0  0  0
  161.3080  207.3620  153.4970 C   0  0  1  0  0  3  0  0  0  0  0  0
  160.3430  206.6840  154.2440 O   0  0  0  0  0  1  0  0  0  0  0  0
  161.7270  206.5110  152.3030 C   0  0  0  0  0  2  0  0  0  0  0  0
  160.8040  206.6800  151.0940 C   0  0  2  0  0  3  0  0  0  0  0  0
  160.8930  204.1520  150.8690 C   0  0  0  0  0  0  0  0  0  0  0  0
  160.7750  205.4600  150.2990 N   0  0  0  0  0  2  0  0  0  0  0  0
  161.0280  204.0160  152.1170 O   0  0  0  0  0  0  0  0  0  0  0  0
  160.8730  202.9710  149.9870 C   0  0  0  0  0  0  0  0  0  0  0  0
  160.8350  200.5260  149.5990 C   0  0  0  0  0  2  0  0  0  0  0  0
  161.1000  202.1230  147.7000 C   0  0  0  0  0  3  0  0  0  0  0  0
  161.5380  200.7990  148.2650 C   0  0  0  0  0  2  0  0  0  0  0  0
  160.8310  203.1460  148.5170 C   0  0  0  0  0  3  0  0  0  0  0  0
  160.9210  201.7310  150.4990 C   0  0  0  0  0  3  0  0  0  0  0  0
  161.2170  207.8670  150.2300 C   0  0  0  0  0  2  0  0  0  0  0  0
  162.7960  206.9410  148.1690 S   0  0  0  0  0  1  0  0  0  0  0  0
  162.6700  207.7610  149.7860 C   0  0  0  0  0  2  0  0  0  0  0  0
  157.7640  213.6050  153.4740 C   0  0  0  0  0  2  0  0  0  0  0  0
  155.0790  213.0300  156.0160 C   0  0  0  0  0  2  0  0  0  0  0  0
  155.5800  211.6150  156.3430 C   0  0  2  0  0  3  0  0  0  0  0  0
  156.6360  211.6260  154.0210 C   0  0  0  0  0  2  0  0  0  0  0  0
  155.8970  213.6920  154.8940 C   0  0  0  0  0  2  0  0  0  0  0  0
  157.0860  212.9100  154.5540 N   0  0  0  0  0  0  0  0  0  0  0  0
  155.9610  210.7790  155.1070 C   0  0  0  0  0  2  0  0  0  0  0  0
  154.7620  210.9240  157.2610 O   0  0  0  0  0  0  0  0  0  0  0  0
  153.8520  210.1310  156.5410 C   0  0  0  0  0  1  0  0  0  0  0  0
  1  8  2  0  0  0  0
  1  5  1  0  0  0  0
  2 13  1  0  0  0  0
  3 14  1  0  0  0  0
  3 16  1  0  0  0  0
  4 15  2  0  0  0  0
  4  7  1  0  0  0  0
  5  9  2  0  0  0  0
  6  1  1  0  0  0  0
  7 11  2  0  0  0  0
  8  4  1  0  0  0  0
  9  7  1  0  0  0  0
 10  3  1  0  0  0  0
 11  2  1  0  0  0  0
 11 10  1  0  0  0  0
 12  2  2  0  0  0  0
 13 35  1  6  0  0  0
 13 14  1  0  0  0  0
 15 12  1  0  0  0  0
 16 17  1  1  0  0  0
 18 19  1  0  0  0  0
 18 16  1  0  0  0  0
 19 20  1  6  0  0  0
 21 19  1  0  0  0  0
 22 32  1  6  0  0  0
 22 21  1  0  0  0  0
 23 25  2  0  0  0  0
 24 23  1  0  0  0  0
 24 22  1  0  0  0  0
 26 31  2  0  0  0  0
 26 23  1  0  0  0  0
 27 31  1  0  0  0  0
 28 29  1  0  0  0  0
 28 30  2  0  0  0  0
 29 27  1  0  0  0  0
 30 26  1  0  0  0  0
 33 34  1  0  0  0  0
 34 32  1  0  0  0  0
 35 40  1  0  0  0  0
 36 37  1  0  0  0  0
 37 42  1  6  0  0  0
 38 40  1  0  0  0  0
 38 41  1  0  0  0  0
 39 36  1  0  0  0  0
 40 39  1  0  0  0  0
 41 37  1  0  0  0  0
 43 42  1  0  0  0  0
M  END
>  <MODEL>
8

>  <REMARK>
 VINA RESULT:      -6.1      4.178      8.729
  Name = 
  12 active torsions:
  status: ('A' for Active; 'I' for Inactive)
    1  A    between atoms: C_1  and  C_34
    2  A    between atoms: C_1  and  N_35
    3  A    between atoms: C_2  and  C_6
    4  A    between atoms: C_2  and  N_13
    5  A    between atoms: C_3  and  C_4
    6  A    between atoms: C_3  and  C_12
    7  A    between atoms: C_4  and  C_15
    8  A    between atoms: C_4  and  N_22
    9  A    between atoms: C_6  and  C_12
   10  A    between atoms: C_11  and  C_14
   11  A    between atoms: C_15  and  C_42
   12  A    between atoms: C_19  and  O_25
                            x       y       z     vdW  Elec       q    Type
                         _______ _______ _______ _____ _____    ______ ____

>  <TORSDO>
F 12

$$$$
=
 OpenBabel11062410093D

 43 47  0  0  1  0  0  0  0  0999 V2000
  160.7750  201.5790  146.3570 C   0  0  0  0  0  0  0  0  0  0  0  0
  162.0750  206.1450  148.1010 C   0  0  0  0  0  0  0  0  0  0  0  0
  162.0430  205.9360  150.9370 N   0  0  0  0  0  0  0  0  0  0  0  0
  161.5450  203.8680  146.5420 C   0  0  0  0  0  0  0  0  0  0  0  0
  160.5410  201.5420  147.7360 C   0  0  0  0  0  3  0  0  0  0  0  0
  160.5140  200.4890  145.5970 F   0  0  0  0  0  0  0  0  0  0  0  0
  161.3080  203.8370  147.9370 C   0  0  0  0  0  0  0  0  0  0  0  0
  161.2800  202.7390  145.7620 C   0  0  0  0  0  3  0  0  0  0  0  0
  160.8070  202.6660  148.5240 C   0  0  0  0  0  3  0  0  0  0  0  0
  161.4230  204.9580  150.1360 N   0  0  0  0  0  2  0  0  0  0  0  0
  161.5990  204.9700  148.7140 C   0  0  0  0  0  0  0  0  0  0  0  0
  162.3220  206.1540  146.7200 C   0  0  0  0  0  3  0  0  0  0  0  0
  162.4070  207.3480  148.9550 C   0  0  2  0  0  3  0  0  0  0  0  0
  161.7540  207.2410  150.3410 C   0  0  0  0  0  2  0  0  0  0  0  0
  162.0540  205.0240  145.9440 C   0  0  0  0  0  3  0  0  0  0  0  0
  161.4280  205.8900  152.2680 C   0  0  2  0  0  3  0  0  0  0  0  0
  160.3270  205.0270  152.2660 O   0  0  0  0  0  1  0  0  0  0  0  0
  160.9760  207.2770  152.7300 C   0  0  0  0  0  2  0  0  0  0  0  0
  160.5350  207.2720  154.1860 C   0  0  1  0  0  3  0  0  0  0  0  0
  161.3840  206.4410  154.9180 O   0  0  0  0  0  1  0  0  0  0  0  0
  160.6020  208.6930  154.7360 C   0  0  0  0  0  2  0  0  0  0  0  0
  159.9560  208.8320  156.1160 C   0  0  2  0  0  3  0  0  0  0  0  0
  158.7310  210.7630  155.0120 C   0  0  0  0  0  0  0  0  0  0  0  0
  159.1260  210.0280  156.1750 N   0  0  0  0  0  2  0  0  0  0  0  0
  159.1010  210.3800  153.8670 O   0  0  0  0  0  0  0  0  0  0  0  0
  157.9060  211.9750  155.1640 C   0  0  0  0  0  0  0  0  0  0  0  0
  156.9900  213.8500  156.4970 C   0  0  0  0  0  2  0  0  0  0  0  0
  156.2100  213.4320  154.1640 C   0  0  0  0  0  3  0  0  0  0  0  0
  155.7870  213.8420  155.5480 C   0  0  0  0  0  2  0  0  0  0  0  0
  157.1770  212.5240  153.9980 C   0  0  0  0  0  3  0  0  0  0  0  0
  157.7810  212.5750  156.3580 C   0  0  0  0  0  3  0  0  0  0  0  0
  160.9980  208.8540  157.2290 C   0  0  0  0  0  2  0  0  0  0  0  0
  162.6310  211.0750  157.2040 S   0  0  0  0  0  1  0  0  0  0  0  0
  162.3490  209.3440  156.7240 C   0  0  0  0  0  2  0  0  0  0  0  0
  161.9580  208.6460  148.2920 C   0  0  0  0  0  2  0  0  0  0  0  0
  161.9810  210.4770  151.5550 C   0  0  0  0  0  2  0  0  0  0  0  0
  160.8680  211.4400  151.1150 C   0  0  2  0  0  3  0  0  0  0  0  0
  161.5840  210.9180  148.7230 C   0  0  0  0  0  2  0  0  0  0  0  0
  162.3850  209.5040  150.4350 C   0  0  0  0  0  2  0  0  0  0  0  0
  161.4720  209.5780  149.2940 N   0  0  0  0  0  0  0  0  0  0  0  0
  161.0300  211.9800  149.6820 C   0  0  0  0  0  2  0  0  0  0  0  0
  160.5780  212.4410  152.0650 O   0  0  0  0  0  0  0  0  0  0  0  0
  159.6790  213.3570  151.4910 C   0  0  0  0  0  1  0  0  0  0  0  0
  1  5  1  0  0  0  0
  2 11  1  0  0  0  0
  2 13  1  0  0  0  0
  3 16  1  0  0  0  0
  4  7  1  0  0  0  0
  5  9  2  0  0  0  0
  6  1  1  0  0  0  0
  7  9  1  0  0  0  0
  7 11  2  0  0  0  0
  8  1  2  0  0  0  0
  8  4  1  0  0  0  0
 10  3  1  0  0  0  0
 11 10  1  0  0  0  0
 12  2  2  0  0  0  0
 13 35  1  6  0  0  0
 13 14  1  0  0  0  0
 14  3  1  0  0  0  0
 15  4  2  0  0  0  0
 15 12  1  0  0  0  0
 16 17  1  6  0  0  0
 16 18  1  0  0  0  0
 18 19  1  0  0  0  0
 19 21  1  0  0  0  0
 19 20  1  1  0  0  0
 22 21  1  6  0  0  0
 22 24  1  0  0  0  0
 22 32  1  0  0  0  0
 23 26  1  0  0  0  0
 23 24  1  0  0  0  0
 25 23  2  0  0  0  0
 26 31  2  0  0  0  0
 28 29  1  0  0  0  0
 29 27  1  0  0  0  0
 30 28  2  0  0  0  0
 30 26  1  0  0  0  0
 31 27  1  0  0  0  0
 34 33  1  0  0  0  0
 34 32  1  0  0  0  0
 35 40  1  0  0  0  0
 37 36  1  0  0  0  0
 37 42  1  1  0  0  0
 38 40  1  0  0  0  0
 38 41  1  0  0  0  0
 39 36  1  0  0  0  0
 40 39  1  0  0  0  0
 41 37  1  0  0  0  0
 43 42  1  0  0  0  0
M  END
>  <MODEL>
9

>  <REMARK>
 VINA RESULT:      -5.8      3.931      7.953
  Name = 
  12 active torsions:
  status: ('A' for Active; 'I' for Inactive)
    1  A    between atoms: C_1  and  C_34
    2  A    between atoms: C_1  and  N_35
    3  A    between atoms: C_2  and  C_6
    4  A    between atoms: C_2  and  N_13
    5  A    between atoms: C_3  and  C_4
    6  A    between atoms: C_3  and  C_12
    7  A    between atoms: C_4  and  C_15
    8  A    between atoms: C_4  and  N_22
    9  A    between atoms: C_6  and  C_12
   10  A    between atoms: C_11  and  C_14
   11  A    between atoms: C_15  and  C_42
   12  A    between atoms: C_19  and  O_25
                            x       y       z     vdW  Elec       q    Type
                         _______ _______ _______ _____ _____    ______ ____

>  <TORSDO>
F 12

$$$$
