=
 OpenBabel11062408053D

 34 39  0  0  1  0  0  0  0  0999 V2000
  159.9340  208.7730  155.3750 C   0  0  2  0  0  3  0  0  0  0  0  0
  162.1490  209.9580  155.0000 C   0  0  0  0  0  0  0  0  0  0  0  0
  160.8610  209.0220  153.0800 N   0  0  0  0  0  0  0  0  0  0  0  0
  161.5660  209.2140  150.6950 C   0  0  0  0  0  0  0  0  0  0  0  0
  161.4600  209.3770  157.2600 C   0  0  0  0  0  2  0  0  0  0  0  0
  162.3740  209.9220  156.2740 N   0  0  0  0  0  0  0  0  0  0  0  0
  160.8800  211.1730  151.9550 C   0  0  0  0  0  3  0  0  0  0  0  0
  160.7780  209.6240  154.4230 C   0  0  1  0  0  3  0  0  0  0  0  0
  161.1290  212.0070  150.7680 C   0  0  0  0  0  3  0  0  0  0  0  0
  162.0080  210.0400  149.5190 C   0  0  0  0  0  2  0  0  0  0  0  0
  160.0110  209.3690  156.7750 C   0  0  0  0  0  2  0  0  0  0  0  0
  160.8380  207.5830  152.8980 C   0  0  0  0  0  0  0  0  0  0  0  0
  160.4310  207.3310  155.3710 C   0  0  0  0  0  2  0  0  0  0  0  0
  163.2010  210.5600  154.1290 C   0  0  0  0  0  1  0  0  0  0  0  0
  161.6370  207.9200  150.6340 N   0  0  0  0  0  0  0  0  0  0  0  0
  161.2200  207.0510  151.7060 C   0  0  0  0  0  0  0  0  0  0  0  0
  161.6330  211.4980  149.6320 C   0  0  0  0  0  0  0  0  0  0  0  0
  161.0900  209.8540  151.9290 C   0  0  0  0  0  0  0  0  0  0  0  0
  160.2660  206.7190  153.9920 C   0  0  0  0  0  2  0  0  0  0  0  0
  161.1720  203.7950  149.7820 C   0  0  0  0  0  0  0  0  0  0  0  0
  161.1520  202.8490  150.8100 C   0  0  0  0  0  3  0  0  0  0  0  0
  161.2330  205.5920  151.4220 C   0  0  0  0  0  0  0  0  0  0  0  0
  161.1610  203.2680  152.1420 C   0  0  0  0  0  3  0  0  0  0  0  0
  161.2050  205.1590  150.0880 C   0  0  0  0  0  3  0  0  0  0  0  0
  161.1950  204.6310  152.4460 C   0  0  0  0  0  3  0  0  0  0  0  0
  161.1530  203.3520  148.3640 C   0  0  0  0  0  1  0  0  0  0  0  0
  161.8520  212.3120  148.5140 O   0  0  0  0  0  0  0  0  0  0  0  0
  161.2390  213.5850  148.3480 C   0  0  0  0  0  2  0  0  0  0  0  0
  158.3480  213.0080  146.9020 O   0  0  0  0  0  1  0  0  0  0  0  0
  159.6560  212.5500  146.7390 C   0  0  2  0  0  3  0  0  0  0  0  0
  160.9440  212.7910  144.7920 C   0  0  0  0  0  2  0  0  0  0  0  0
  161.6750  213.5000  145.9060 C   0  0  0  0  0  2  0  0  0  0  0  0
  160.6260  213.6880  146.9640 C   0  0  2  0  0  3  0  0  0  0  0  0
  159.8360  212.0480  145.3810 N   0  0  0  0  0  2  0  0  0  0  0  0
  1 13  1  1  0  0  0
  1 11  1  0  0  0  0
  2  6  2  0  0  0  0
  3  8  1  0  0  0  0
  4 18  1  0  0  0  0
  6  5  1  0  0  0  0
  8  2  1  1  0  0  0
  8  1  1  0  0  0  0
  9  7  1  0  0  0  0
 10 17  1  0  0  0  0
 10  4  1  0  0  0  0
 11  5  1  0  0  0  0
 12  3  1  0  0  0  0
 12 19  1  0  0  0  0
 14  2  1  0  0  0  0
 15  4  2  0  0  0  0
 15 16  1  0  0  0  0
 16 12  2  0  0  0  0
 17  9  2  0  0  0  0
 18  7  2  0  0  0  0
 18  3  1  0  0  0  0
 19 13  1  0  0  0  0
 20 24  2  0  0  0  0
 20 21  1  0  0  0  0
 21 23  2  0  0  0  0
 22 16  1  0  0  0  0
 22 25  2  0  0  0  0
 23 25  1  0  0  0  0
 24 22  1  0  0  0  0
 26 20  1  0  0  0  0
 27 17  1  0  0  0  0
 28 27  1  0  0  0  0
 30 29  1  6  0  0  0
 30 33  1  0  0  0  0
 31 34  1  0  0  0  0
 31 32  1  0  0  0  0
 32 33  1  0  0  0  0
 33 28  1  1  0  0  0
 34 30  1  0  0  0  0
M  END
>  <MODEL>
1

>  <REMARK>
 VINA RESULT:      -7.8      0.000      0.000
  Name = 
  4 active torsions:
  status: ('A' for Active; 'I' for Inactive)
    1  A    between atoms: O_3  and  C_13
    2  A    between atoms: O_3  and  C_29
    3  A    between atoms: C_12  and  C_28
    4  A    between atoms: C_13  and  C_33
                            x       y       z     vdW  Elec       q    Type
                         _______ _______ _______ _____ _____    ______ ____

>  <TORSDO>
F 4

$$$$
=
 OpenBabel11062408053D

 34 39  0  0  1  0  0  0  0  0999 V2000
  159.0520  213.7680  155.8310 C   0  0  2  0  0  3  0  0  0  0  0  0
  157.6920  211.6260  155.9380 C   0  0  0  0  0  0  0  0  0  0  0  0
  159.5540  211.8750  154.2970 N   0  0  0  0  0  0  0  0  0  0  0  0
  160.2730  210.0860  152.7130 C   0  0  0  0  0  0  0  0  0  0  0  0
  156.9410  213.5940  157.1560 C   0  0  0  0  0  2  0  0  0  0  0  0
  156.8290  212.2230  156.6960 N   0  0  0  0  0  0  0  0  0  0  0  0
  160.6050  209.8410  155.1060 C   0  0  0  0  0  3  0  0  0  0  0  0
  159.0480  212.2500  155.6300 C   0  0  1  0  0  3  0  0  0  0  0  0
  161.2080  208.5190  154.8730 C   0  0  0  0  0  3  0  0  0  0  0  0
  160.7110  208.6750  152.4390 C   0  0  0  0  0  2  0  0  0  0  0  0
  158.3840  214.0950  157.1600 C   0  0  0  0  0  2  0  0  0  0  0  0
  159.3520  212.7340  153.1460 C   0  0  0  0  0  0  0  0  0  0  0  0
  158.3290  214.4530  154.6760 C   0  0  0  0  0  2  0  0  0  0  0  0
  157.4190  210.2070  155.5620 C   0  0  0  0  0  1  0  0  0  0  0  0
  159.9610  210.8670  151.7250 N   0  0  0  0  0  0  0  0  0  0  0  0
  159.5480  212.2380  151.8950 C   0  0  0  0  0  0  0  0  0  0  0  0
  161.2800  207.9740  153.6480 C   0  0  0  0  0  0  0  0  0  0  0  0
  160.1550  210.5840  154.0910 C   0  0  0  0  0  0  0  0  0  0  0  0
  159.0560  214.1950  153.3690 C   0  0  0  0  0  2  0  0  0  0  0  0
  157.8520  214.0200  149.0230 C   0  0  0  0  0  0  0  0  0  0  0  0
  158.9420  214.4530  148.2630 C   0  0  0  0  0  3  0  0  0  0  0  0
  159.3660  213.0360  150.6550 C   0  0  0  0  0  0  0  0  0  0  0  0
  160.2420  214.1720  148.6880 C   0  0  0  0  0  3  0  0  0  0  0  0
  158.0640  213.3090  150.2080 C   0  0  0  0  0  3  0  0  0  0  0  0
  160.4520  213.4630  149.8730 C   0  0  0  0  0  3  0  0  0  0  0  0
  156.4680  214.3090  148.5680 C   0  0  0  0  0  1  0  0  0  0  0  0
  161.8680  206.7190  153.4530 O   0  0  0  0  0  0  0  0  0  0  0  0
  161.1170  205.5460  153.1650 C   0  0  0  0  0  2  0  0  0  0  0  0
  161.8980  206.4350  150.1010 O   0  0  0  0  0  1  0  0  0  0  0  0
  161.0020  205.5390  150.6840 C   0  0  2  0  0  3  0  0  0  0  0  0
  160.9970  203.2160  150.3500 C   0  0  0  0  0  2  0  0  0  0  0  0
  161.2110  203.4580  151.8250 C   0  0  0  0  0  2  0  0  0  0  0  0
  161.6380  204.8970  151.8950 C   0  0  2  0  0  3  0  0  0  0  0  0
  160.6620  204.4920  149.7270 N   0  0  0  0  0  2  0  0  0  0  0  0
  1 13  1  6  0  0  0
  1 11  1  0  0  0  0
  2  6  2  0  0  0  0
  3  8  1  0  0  0  0
  4 18  1  0  0  0  0
  5 11  1  0  0  0  0
  6  5  1  0  0  0  0
  8  1  1  0  0  0  0
  8  2  1  6  0  0  0
  9  7  1  0  0  0  0
 10  4  1  0  0  0  0
 10 17  1  0  0  0  0
 12 19  1  0  0  0  0
 12  3  1  0  0  0  0
 14  2  1  0  0  0  0
 15 16  1  0  0  0  0
 15  4  2  0  0  0  0
 16 12  2  0  0  0  0
 17  9  2  0  0  0  0
 18  3  1  0  0  0  0
 18  7  2  0  0  0  0
 19 13  1  0  0  0  0
 20 24  1  0  0  0  0
 21 23  1  0  0  0  0
 21 20  2  0  0  0  0
 22 16  1  0  0  0  0
 23 25  2  0  0  0  0
 24 22  2  0  0  0  0
 25 22  1  0  0  0  0
 26 20  1  0  0  0  0
 27 17  1  0  0  0  0
 28 27  1  0  0  0  0
 30 29  1  6  0  0  0
 30 33  1  0  0  0  0
 31 32  1  0  0  0  0
 32 33  1  0  0  0  0
 33 28  1  1  0  0  0
 34 31  1  0  0  0  0
 34 30  1  0  0  0  0
M  END
>  <MODEL>
2

>  <REMARK>
 VINA RESULT:      -6.9      3.319      7.587
  Name = 
  4 active torsions:
  status: ('A' for Active; 'I' for Inactive)
    1  A    between atoms: O_3  and  C_13
    2  A    between atoms: O_3  and  C_29
    3  A    between atoms: C_12  and  C_28
    4  A    between atoms: C_13  and  C_33
                            x       y       z     vdW  Elec       q    Type
                         _______ _______ _______ _____ _____    ______ ____

>  <TORSDO>
F 4

$$$$
=
 OpenBabel11062408053D

 34 39  0  0  1  0  0  0  0  0999 V2000
  162.1430  204.7740  151.9940 C   0  0  2  0  0  3  0  0  0  0  0  0
  160.5110  205.4060  150.1530 C   0  0  0  0  0  0  0  0  0  0  0  0
  161.7350  207.1640  151.4310 N   0  0  0  0  0  0  0  0  0  0  0  0
  161.5320  209.6110  150.9940 C   0  0  0  0  0  0  0  0  0  0  0  0
  160.5970  203.1090  150.9520 C   0  0  0  0  0  2  0  0  0  0  0  0
  160.0790  204.1870  150.1290 N   0  0  0  0  0  0  0  0  0  0  0  0
  162.5850  208.1370  149.3770 C   0  0  0  0  0  3  0  0  0  0  0  0
  161.7810  205.7880  150.9040 C   0  0  1  0  0  3  0  0  0  0  0  0
  162.8120  209.2920  148.4930 C   0  0  0  0  0  3  0  0  0  0  0  0
  161.5750  210.7840  150.0550 C   0  0  0  0  0  2  0  0  0  0  0  0
  162.0280  203.3680  151.4220 C   0  0  0  0  0  2  0  0  0  0  0  0
  161.3320  207.4320  152.7980 C   0  0  0  0  0  0  0  0  0  0  0  0
  161.2230  204.9480  153.1980 C   0  0  0  0  0  2  0  0  0  0  0  0
  159.8630  206.3870  149.2330 C   0  0  0  0  0  1  0  0  0  0  0  0
  161.0660  209.7650  152.1940 N   0  0  0  0  0  0  0  0  0  0  0  0
  161.0040  208.7000  153.1650 C   0  0  0  0  0  0  0  0  0  0  0  0
  162.3680  210.5220  148.7980 C   0  0  0  0  0  0  0  0  0  0  0  0
  161.9760  208.2800  150.5570 C   0  0  0  0  0  0  0  0  0  0  0  0
  161.4120  206.3220  153.8140 C   0  0  0  0  0  2  0  0  0  0  0  0
  159.1550  210.4340  155.9720 C   0  0  0  0  0  0  0  0  0  0  0  0
  159.7860  209.9120  157.1040 C   0  0  0  0  0  3  0  0  0  0  0  0
  160.5770  209.0760  154.5380 C   0  0  0  0  0  0  0  0  0  0  0  0
  160.8180  208.9820  156.9590 C   0  0  0  0  0  3  0  0  0  0  0  0
  159.5540  210.0230  154.6960 C   0  0  0  0  0  3  0  0  0  0  0  0
  161.2150  208.5720  155.6840 C   0  0  0  0  0  3  0  0  0  0  0  0
  158.0630  211.4300  156.1230 C   0  0  0  0  0  1  0  0  0  0  0  0
  162.6060  211.6050  147.9440 O   0  0  0  0  0  0  0  0  0  0  0  0
  162.1020  212.9130  148.1880 C   0  0  0  0  0  2  0  0  0  0  0  0
  158.9540  213.0150  147.2580 O   0  0  0  0  0  1  0  0  0  0  0  0
  160.1260  212.4480  146.7570 C   0  0  2  0  0  3  0  0  0  0  0  0
  161.0900  212.9430  144.6750 C   0  0  0  0  0  2  0  0  0  0  0  0
  162.1020  213.3020  145.7370 C   0  0  0  0  0  2  0  0  0  0  0  0
  161.2880  213.3840  146.9970 C   0  0  2  0  0  3  0  0  0  0  0  0
  159.9930  212.2310  145.3200 N   0  0  0  0  0  2  0  0  0  0  0  0
  1 11  1  6  0  0  0
  1 13  1  0  0  0  0
  3 12  1  0  0  0  0
  4 15  2  0  0  0  0
  5 11  1  0  0  0  0
  6  2  2  0  0  0  0
  6  5  1  0  0  0  0
  7 18  2  0  0  0  0
  8  2  1  1  0  0  0
  8  3  1  0  0  0  0
  8  1  1  0  0  0  0
  9 17  2  0  0  0  0
  9  7  1  0  0  0  0
 10  4  1  0  0  0  0
 12 16  2  0  0  0  0
 12 19  1  0  0  0  0
 13 19  1  0  0  0  0
 14  2  1  0  0  0  0
 15 16  1  0  0  0  0
 16 22  1  0  0  0  0
 17 10  1  0  0  0  0
 18  4  1  0  0  0  0
 18  3  1  0  0  0  0
 20 26  1  0  0  0  0
 20 21  1  0  0  0  0
 22 24  1  0  0  0  0
 22 25  2  0  0  0  0
 23 21  2  0  0  0  0
 24 20  2  0  0  0  0
 25 23  1  0  0  0  0
 27 28  1  0  0  0  0
 27 17  1  0  0  0  0
 30 33  1  0  0  0  0
 30 29  1  6  0  0  0
 31 34  1  0  0  0  0
 31 32  1  0  0  0  0
 32 33  1  0  0  0  0
 33 28  1  1  0  0  0
 34 30  1  0  0  0  0
M  END
>  <MODEL>
3

>  <REMARK>
 VINA RESULT:      -6.8      1.408      5.221
  Name = 
  4 active torsions:
  status: ('A' for Active; 'I' for Inactive)
    1  A    between atoms: O_3  and  C_13
    2  A    between atoms: O_3  and  C_29
    3  A    between atoms: C_12  and  C_28
    4  A    between atoms: C_13  and  C_33
                            x       y       z     vdW  Elec       q    Type
                         _______ _______ _______ _____ _____    ______ ____

>  <TORSDO>
F 4

$$$$
=
 OpenBabel11062408053D

 34 39  0  0  1  0  0  0  0  0999 V2000
  159.9870  207.9400  155.3580 C   0  0  2  0  0  3  0  0  0  0  0  0
  162.0120  209.4640  155.2020 C   0  0  0  0  0  0  0  0  0  0  0  0
  160.6740  208.9070  153.1720 N   0  0  0  0  0  0  0  0  0  0  0  0
  161.1400  209.8150  150.8950 C   0  0  0  0  0  0  0  0  0  0  0  0
  161.5940  208.2200  157.2510 C   0  0  0  0  0  2  0  0  0  0  0  0
  162.3510  209.1230  156.4030 N   0  0  0  0  0  0  0  0  0  0  0  0
  160.3510  211.2620  152.6780 C   0  0  0  0  0  3  0  0  0  0  0  0
  160.6420  209.1170  154.6310 C   0  0  1  0  0  3  0  0  0  0  0  0
  160.3990  212.4050  151.7520 C   0  0  0  0  0  3  0  0  0  0  0  0
  161.3810  210.9730  149.9680 C   0  0  0  0  0  2  0  0  0  0  0  0
  160.1190  208.1490  156.8610 C   0  0  0  0  0  2  0  0  0  0  0  0
  160.7980  207.5780  152.6050 C   0  0  0  0  0  0  0  0  0  0  0  0
  160.6410  206.6290  154.9330 C   0  0  0  0  0  2  0  0  0  0  0  0
  162.9090  210.4090  154.4730 C   0  0  0  0  0  1  0  0  0  0  0  0
  161.3510  208.6040  150.4800 N   0  0  0  0  0  0  0  0  0  0  0  0
  161.1310  207.4350  151.2940 C   0  0  0  0  0  0  0  0  0  0  0  0
  160.8560  212.2860  150.4950 C   0  0  0  0  0  0  0  0  0  0  0  0
  160.7050  210.0370  152.2810 C   0  0  0  0  0  0  0  0  0  0  0  0
  160.4250  206.3870  153.4500 C   0  0  0  0  0  2  0  0  0  0  0  0
  161.5850  204.8610  148.5600 C   0  0  0  0  0  0  0  0  0  0  0  0
  161.4780  203.6610  149.2670 C   0  0  0  0  0  3  0  0  0  0  0  0
  161.2830  206.1180  150.6220 C   0  0  0  0  0  0  0  0  0  0  0  0
  161.2630  203.6830  150.6470 C   0  0  0  0  0  3  0  0  0  0  0  0
  161.4810  206.0820  149.2340 C   0  0  0  0  0  3  0  0  0  0  0  0
  161.1600  204.9040  151.3190 C   0  0  0  0  0  3  0  0  0  0  0  0
  161.8040  204.8410  147.0910 C   0  0  0  0  0  1  0  0  0  0  0  0
  160.8820  213.3880  149.6320 O   0  0  0  0  0  0  0  0  0  0  0  0
  159.9420  214.4530  149.7030 C   0  0  0  0  0  2  0  0  0  0  0  0
  156.7130  214.4200  149.1070 O   0  0  0  0  0  1  0  0  0  0  0  0
  157.7900  213.5780  148.8270 C   0  0  2  0  0  3  0  0  0  0  0  0
  158.5170  212.9760  146.6780 C   0  0  0  0  0  2  0  0  0  0  0  0
  159.6640  213.6810  147.3610 C   0  0  0  0  0  2  0  0  0  0  0  0
  159.0130  214.4050  148.5050 C   0  0  2  0  0  3  0  0  0  0  0  0
  157.4750  212.7440  147.6720 N   0  0  0  0  0  2  0  0  0  0  0  0
  1 13  1  6  0  0  0
  1 11  1  0  0  0  0
  2  6  2  0  0  0  0
  3  8  1  0  0  0  0
  4 18  1  0  0  0  0
  6  5  1  0  0  0  0
  8  2  1  1  0  0  0
  8  1  1  0  0  0  0
  9  7  1  0  0  0  0
 10 17  1  0  0  0  0
 10  4  1  0  0  0  0
 11  5  1  0  0  0  0
 12  3  1  0  0  0  0
 12 19  1  0  0  0  0
 14  2  1  0  0  0  0
 15  4  2  0  0  0  0
 15 16  1  0  0  0  0
 16 12  2  0  0  0  0
 17  9  2  0  0  0  0
 18  7  2  0  0  0  0
 18  3  1  0  0  0  0
 19 13  1  0  0  0  0
 20 24  2  0  0  0  0
 20 21  1  0  0  0  0
 21 23  2  0  0  0  0
 22 16  1  0  0  0  0
 22 25  2  0  0  0  0
 23 25  1  0  0  0  0
 24 22  1  0  0  0  0
 26 20  1  0  0  0  0
 27 28  1  0  0  0  0
 27 17  1  0  0  0  0
 30 29  1  6  0  0  0
 31 32  1  0  0  0  0
 31 34  1  0  0  0  0
 32 33  1  0  0  0  0
 33 30  1  0  0  0  0
 33 28  1  1  0  0  0
 34 30  1  0  0  0  0
M  END
>  <MODEL>
4

>  <REMARK>
 VINA RESULT:      -6.4      1.409      1.619
  Name = 
  4 active torsions:
  status: ('A' for Active; 'I' for Inactive)
    1  A    between atoms: O_3  and  C_13
    2  A    between atoms: O_3  and  C_29
    3  A    between atoms: C_12  and  C_28
    4  A    between atoms: C_13  and  C_33
                            x       y       z     vdW  Elec       q    Type
                         _______ _______ _______ _____ _____    ______ ____

>  <TORSDO>
F 4

$$$$
=
 OpenBabel11062408053D

 34 39  0  0  1  0  0  0  0  0999 V2000
  162.8270  211.0170  148.9400 C   0  0  2  0  0  3  0  0  0  0  0  0
  160.7670  211.8930  150.1380 C   0  0  0  0  0  0  0  0  0  0  0  0
  161.9020  209.8100  150.9090 N   0  0  0  0  0  0  0  0  0  0  0  0
  161.1900  208.4800  152.8960 C   0  0  0  0  0  0  0  0  0  0  0  0
  161.4150  212.8500  147.9970 C   0  0  0  0  0  2  0  0  0  0  0  0
  160.5580  212.7150  149.1600 N   0  0  0  0  0  0  0  0  0  0  0  0
  162.1270  210.7050  153.1550 C   0  0  0  0  0  3  0  0  0  0  0  0
  162.0780  211.1270  150.2700 C   0  0  1  0  0  3  0  0  0  0  0  0
  161.9630  210.5900  154.6130 C   0  0  0  0  0  3  0  0  0  0  0  0
  160.8340  208.3860  154.3530 C   0  0  0  0  0  3  0  0  0  0  0  0
  162.8440  212.3810  148.2640 C   0  0  0  0  0  2  0  0  0  0  0  0
  161.7490  208.6050  150.1180 C   0  0  0  0  0  0  0  0  0  0  0  0
  162.1590  209.9760  148.0460 C   0  0  0  0  0  2  0  0  0  0  0  0
  159.7820  211.8890  151.2600 C   0  0  0  0  0  1  0  0  0  0  0  0
  160.9620  207.4730  152.1120 N   0  0  0  0  0  0  0  0  0  0  0  0
  161.2870  207.4690  150.7070 C   0  0  0  0  0  0  0  0  0  0  0  0
  161.3830  209.5210  155.1830 C   0  0  0  0  0  0  0  0  0  0  0  0
  161.7590  209.7150  152.3380 C   0  0  1  0  0  3  0  0  0  0  0  0
  162.2290  208.6030  148.6890 C   0  0  0  0  0  2  0  0  0  0  0  0
  160.9000  203.7620  150.0690 C   0  0  0  0  0  0  0  0  0  0  0  0
  160.8320  203.7110  148.6740 C   0  0  0  0  0  3  0  0  0  0  0  0
  161.0940  206.1860  149.9830 C   0  0  0  0  0  0  0  0  0  0  0  0
  160.9060  204.8900  147.9300 C   0  0  0  0  0  3  0  0  0  0  0  0
  161.0370  204.9920  150.7180 C   0  0  0  0  0  3  0  0  0  0  0  0
  161.0420  206.1190  148.5810 C   0  0  0  0  0  3  0  0  0  0  0  0
  160.8310  202.5070  150.8620 C   0  0  0  0  0  1  0  0  0  0  0  0
  161.2480  209.4320  156.5730 O   0  0  0  0  0  0  0  0  0  0  0  0
  159.9900  209.4670  157.2350 C   0  0  0  0  0  2  0  0  0  0  0  0
  157.3220  211.1010  156.2370 O   0  0  0  0  0  1  0  0  0  0  0  0
  158.6920  211.1800  155.9900 C   0  0  2  0  0  3  0  0  0  0  0  0
  160.0500  213.0380  156.4530 C   0  0  0  0  0  2  0  0  0  0  0  0
  160.5890  211.8750  157.2520 C   0  0  0  0  0  2  0  0  0  0  0  0
  159.4570  210.8870  157.2600 C   0  0  2  0  0  3  0  0  0  0  0  0
  159.0340  212.5250  155.5400 N   0  0  0  0  0  2  0  0  0  0  0  0
  1 13  1  6  0  0  0
  1  8  1  0  0  0  0
  2 14  1  0  0  0  0
  3 18  1  0  0  0  0
  4 10  1  0  0  0  0
  5 11  1  0  0  0  0
  5  6  1  0  0  0  0
  6  2  2  0  0  0  0
  7  9  2  0  0  0  0
  8  2  1  6  0  0  0
  8  3  1  0  0  0  0
  9 17  1  0  0  0  0
 10 17  2  0  0  0  0
 11  1  1  0  0  0  0
 12 16  2  0  0  0  0
 12  3  1  0  0  0  0
 13 19  1  0  0  0  0
 15  4  2  0  0  0  0
 16 15  1  0  0  0  0
 17 27  1  0  0  0  0
 18  4  1  0  0  0  0
 18  7  1  1  0  0  0
 19 12  1  0  0  0  0
 20 24  1  0  0  0  0
 20 26  1  0  0  0  0
 21 20  2  0  0  0  0
 22 16  1  0  0  0  0
 22 24  2  0  0  0  0
 23 25  2  0  0  0  0
 23 21  1  0  0  0  0
 25 22  1  0  0  0  0
 27 28  1  0  0  0  0
 30 29  1  1  0  0  0
 30 33  1  0  0  0  0
 31 32  1  0  0  0  0
 32 33  1  0  0  0  0
 33 28  1  6  0  0  0
 34 30  1  0  0  0  0
 34 31  1  0  0  0  0
M  END
>  <MODEL>
5

>  <REMARK>
 VINA RESULT:      -6.3      2.755      6.592
  Name = 
  4 active torsions:
  status: ('A' for Active; 'I' for Inactive)
    1  A    between atoms: O_3  and  C_13
    2  A    between atoms: O_3  and  C_29
    3  A    between atoms: C_12  and  C_28
    4  A    between atoms: C_13  and  C_33
                            x       y       z     vdW  Elec       q    Type
                         _______ _______ _______ _____ _____    ______ ____

>  <TORSDO>
F 4

$$$$
=
 OpenBabel11062408053D

 34 39  0  0  1  0  0  0  0  0999 V2000
  162.3240  209.4980  155.4770 C   0  0  2  0  0  3  0  0  0  0  0  0
  160.1280  208.2220  155.4300 C   0  0  0  0  0  0  0  0  0  0  0  0
  161.6360  208.2400  153.4430 N   0  0  0  0  0  0  0  0  0  0  0  0
  161.1800  206.9980  151.3280 C   0  0  0  0  0  0  0  0  0  0  0  0
  160.5930  209.7580  157.2600 C   0  0  0  0  0  2  0  0  0  0  0  0
  159.7720  208.8130  156.5250 N   0  0  0  0  0  0  0  0  0  0  0  0
  161.6750  205.8130  153.3890 C   0  0  0  0  0  3  0  0  0  0  0  0
  161.5610  208.2950  154.9150 C   0  0  1  0  0  3  0  0  0  0  0  0
  161.5280  204.5350  152.6740 C   0  0  0  0  0  3  0  0  0  0  0  0
  160.8410  205.7270  150.5990 C   0  0  0  0  0  2  0  0  0  0  0  0
  162.0840  209.5810  156.9780 C   0  0  0  0  0  2  0  0  0  0  0  0
  161.7180  209.4500  152.6480 C   0  0  0  0  0  0  0  0  0  0  0  0
  161.8710  210.7780  154.7820 C   0  0  0  0  0  2  0  0  0  0  0  0
  159.1560  207.2750  154.8080 C   0  0  0  0  0  1  0  0  0  0  0  0
  161.1520  208.1290  150.6960 N   0  0  0  0  0  0  0  0  0  0  0  0
  161.4790  209.3920  151.3100 C   0  0  0  0  0  0  0  0  0  0  0  0
  161.1600  204.4780  151.3840 C   0  0  0  0  0  0  0  0  0  0  0  0
  161.5060  206.9800  152.7610 C   0  0  0  0  0  0  0  0  0  0  0  0
  162.1970  210.7210  153.3010 C   0  0  0  0  0  2  0  0  0  0  0  0
  160.7750  212.8260  149.8920 C   0  0  0  0  0  0  0  0  0  0  0  0
  161.5160  212.8110  148.7080 C   0  0  0  0  0  3  0  0  0  0  0  0
  161.5370  210.5740  150.4120 C   0  0  0  0  0  0  0  0  0  0  0  0
  162.2600  211.6790  148.3660 C   0  0  0  0  0  3  0  0  0  0  0  0
  160.7800  211.7110  150.7350 C   0  0  0  0  0  3  0  0  0  0  0  0
  162.2650  210.5660  149.2100 C   0  0  0  0  0  3  0  0  0  0  0  0
  159.9760  214.0250  150.2530 C   0  0  0  0  0  1  0  0  0  0  0  0
  161.0370  203.2500  150.7250 O   0  0  0  0  0  0  0  0  0  0  0  0
  160.3950  203.1060  149.4630 C   0  0  0  0  0  2  0  0  0  0  0  0
  161.5980  203.4540  146.4270 O   0  0  0  0  0  1  0  0  0  0  0  0
  160.8080  202.5120  147.0870 C   0  0  2  0  0  3  0  0  0  0  0  0
  161.3630  200.2520  147.3930 C   0  0  0  0  0  2  0  0  0  0  0  0
  161.2060  200.8670  148.7630 C   0  0  0  0  0  2  0  0  0  0  0  0
  161.2960  202.3440  148.5080 C   0  0  2  0  0  3  0  0  0  0  0  0
  160.9050  201.2250  146.4070 N   0  0  0  0  0  2  0  0  0  0  0  0
  1 13  1  6  0  0  0
  1 11  1  0  0  0  0
  2  6  2  0  0  0  0
  3  8  1  0  0  0  0
  4 18  1  0  0  0  0
  6  5  1  0  0  0  0
  8  2  1  6  0  0  0
  8  1  1  0  0  0  0
  9  7  1  0  0  0  0
 10  4  1  0  0  0  0
 10 17  1  0  0  0  0
 11  5  1  0  0  0  0
 12 19  1  0  0  0  0
 12  3  1  0  0  0  0
 14  2  1  0  0  0  0
 15 16  1  0  0  0  0
 15  4  2  0  0  0  0
 16 12  2  0  0  0  0
 17  9  2  0  0  0  0
 18  7  2  0  0  0  0
 18  3  1  0  0  0  0
 19 13  1  0  0  0  0
 20 26  1  0  0  0  0
 20 24  1  0  0  0  0
 21 20  2  0  0  0  0
 22 24  2  0  0  0  0
 22 16  1  0  0  0  0
 23 21  1  0  0  0  0
 23 25  2  0  0  0  0
 25 22  1  0  0  0  0
 27 17  1  0  0  0  0
 28 27  1  0  0  0  0
 30 29  1  6  0  0  0
 30 33  1  0  0  0  0
 31 32  1  0  0  0  0
 33 32  1  0  0  0  0
 33 28  1  1  0  0  0
 34 30  1  0  0  0  0
 34 31  1  0  0  0  0
M  END
>  <MODEL>
6

>  <REMARK>
 VINA RESULT:      -6.3      2.974      7.228
  Name = 
  4 active torsions:
  status: ('A' for Active; 'I' for Inactive)
    1  A    between atoms: O_3  and  C_13
    2  A    between atoms: O_3  and  C_29
    3  A    between atoms: C_12  and  C_28
    4  A    between atoms: C_13  and  C_33
                            x       y       z     vdW  Elec       q    Type
                         _______ _______ _______ _____ _____    ______ ____

>  <TORSDO>
F 4

$$$$
=
 OpenBabel11062408053D

 34 39  0  0  1  0  0  0  0  0999 V2000
  160.5200  213.0810  148.6850 C   0  0  2  0  0  3  0  0  0  0  0  0
  162.8380  212.1760  148.1790 C   0  0  0  0  0  0  0  0  0  0  0  0
  161.2770  210.9240  149.6690 N   0  0  0  0  0  0  0  0  0  0  0  0
  161.8000  208.7170  150.7070 C   0  0  0  0  0  0  0  0  0  0  0  0
  162.2670  214.4530  147.5400 C   0  0  0  0  0  2  0  0  0  0  0  0
  163.1620  213.3170  147.6630 N   0  0  0  0  0  0  0  0  0  0  0  0
  161.4990  208.9270  148.3070 C   0  0  0  0  0  3  0  0  0  0  0  0
  161.3910  211.8330  148.5130 C   0  0  1  0  0  3  0  0  0  0  0  0
  161.7610  207.4860  148.1620 C   0  0  0  0  0  3  0  0  0  0  0  0
  162.2520  207.2880  150.5940 C   0  0  0  0  0  3  0  0  0  0  0  0
  160.7950  214.0410  147.5360 C   0  0  0  0  0  2  0  0  0  0  0  0
  161.0410  211.4340  151.0060 C   0  0  0  0  0  0  0  0  0  0  0  0
  160.8110  213.7430  150.0280 C   0  0  0  0  0  2  0  0  0  0  0  0
  163.8870  211.1140  148.2210 C   0  0  0  0  0  1  0  0  0  0  0  0
  161.6860  209.2650  151.8770 N   0  0  0  0  0  0  0  0  0  0  0  0
  161.2440  210.6230  152.0790 C   0  0  0  0  0  0  0  0  0  0  0  0
  162.0930  206.7120  149.2080 C   0  0  0  0  0  0  0  0  0  0  0  0
  161.5220  209.5160  149.5060 C   0  0  1  0  0  3  0  0  0  0  0  0
  160.4480  212.8100  151.1690 C   0  0  0  0  0  2  0  0  0  0  0  0
  161.7270  210.9470  155.8160 C   0  0  0  0  0  0  0  0  0  0  0  0
  160.6350  211.7350  156.1850 C   0  0  0  0  0  3  0  0  0  0  0  0
  161.0310  211.0510  153.4860 C   0  0  0  0  0  0  0  0  0  0  0  0
  159.7330  212.1740  155.2120 C   0  0  0  0  0  3  0  0  0  0  0  0
  161.9190  210.6010  154.4750 C   0  0  0  0  0  3  0  0  0  0  0  0
  159.9270  211.8290  153.8730 C   0  0  0  0  0  3  0  0  0  0  0  0
  162.6820  210.4700  156.8490 C   0  0  0  0  0  1  0  0  0  0  0  0
  162.3270  205.3430  149.0440 O   0  0  0  0  0  0  0  0  0  0  0  0
  161.3030  204.4140  148.7090 C   0  0  0  0  0  2  0  0  0  0  0  0
  162.8160  204.7480  145.8130 O   0  0  0  0  0  1  0  0  0  0  0  0
  161.5850  204.2550  146.2470 C   0  0  2  0  0  3  0  0  0  0  0  0
  160.8290  202.0520  145.9600 C   0  0  0  0  0  2  0  0  0  0  0  0
  160.8780  202.3210  147.4440 C   0  0  0  0  0  2  0  0  0  0  0  0
  161.7600  203.5310  147.5620 C   0  0  2  0  0  3  0  0  0  0  0  0
  161.0580  203.3130  145.2640 N   0  0  0  0  0  2  0  0  0  0  0  0
  1 11  1  6  0  0  0
  1 13  1  0  0  0  0
  2 14  1  0  0  0  0
  3 12  1  0  0  0  0
  4 15  2  0  0  0  0
  5  6  1  0  0  0  0
  6  2  2  0  0  0  0
  8  2  1  1  0  0  0
  8  1  1  0  0  0  0
  8  3  1  0  0  0  0
  9  7  2  0  0  0  0
  9 17  1  0  0  0  0
 10  4  1  0  0  0  0
 11  5  1  0  0  0  0
 12 19  1  0  0  0  0
 12 16  2  0  0  0  0
 13 19  1  0  0  0  0
 15 16  1  0  0  0  0
 16 22  1  0  0  0  0
 17 10  2  0  0  0  0
 18  7  1  1  0  0  0
 18  3  1  0  0  0  0
 18  4  1  0  0  0  0
 20 21  1  0  0  0  0
 20 26  1  0  0  0  0
 22 25  2  0  0  0  0
 22 24  1  0  0  0  0
 23 21  2  0  0  0  0
 24 20  2  0  0  0  0
 25 23  1  0  0  0  0
 27 17  1  0  0  0  0
 28 27  1  0  0  0  0
 30 29  1  6  0  0  0
 30 33  1  0  0  0  0
 31 32  1  0  0  0  0
 32 33  1  0  0  0  0
 33 28  1  1  0  0  0
 34 31  1  0  0  0  0
 34 30  1  0  0  0  0
M  END
>  <MODEL>
7

>  <REMARK>
 VINA RESULT:      -4.9      2.952      7.727
  Name = 
  4 active torsions:
  status: ('A' for Active; 'I' for Inactive)
    1  A    between atoms: O_3  and  C_13
    2  A    between atoms: O_3  and  C_29
    3  A    between atoms: C_12  and  C_28
    4  A    between atoms: C_13  and  C_33
                            x       y       z     vdW  Elec       q    Type
                         _______ _______ _______ _____ _____    ______ ____

>  <TORSDO>
F 4

$$$$
