=
 OpenBabel11052423123D

 27 31  0  0  1  0  0  0  0  0999 V2000
  162.5130  210.0310  149.3480 C   0  0  0  0  0  2  0  0  0  0  0  0
  161.4970  211.2720  151.0380 C   0  0  2  0  0  3  0  0  0  0  0  0
  161.0410  208.8440  151.5400 N   0  0  0  0  0  2  0  0  0  0  0  0
  159.0990  211.6590  155.0080 C   0  0  0  0  0  3  0  0  0  0  0  0
  159.6810  210.0210  156.6940 C   0  0  0  0  0  1  0  0  0  0  0  0
  160.3640  212.0640  151.5230 N   0  0  0  0  0  2  0  0  0  0  0  0
  160.7190  209.9910  154.4670 C   0  0  0  0  0  0  0  0  0  0  0  0
  160.2010  206.2020  149.3620 C   0  0  0  0  0  3  0  0  0  0  0  0
  161.3920  208.9720  154.7850 O   0  0  0  0  0  0  0  0  0  0  0  0
  160.5500  206.2680  148.0790 C   0  0  0  0  0  3  0  0  0  0  0  0
  160.8500  210.5520  153.1950 C   0  0  0  0  0  0  0  0  0  0  0  0
  161.3450  210.8700  149.6280 N   0  0  1  0  0  0  0  0  0  0  0  0
  159.8460  210.5660  155.3550 N   0  0  0  0  0  0  0  0  0  0  0  0
  160.1060  211.6400  152.8430 C   0  0  0  0  0  0  0  0  0  0  0  0
  162.1220  208.5920  149.3630 C   0  0  0  0  0  0  0  0  0  0  0  0
  161.6520  210.0790  152.0360 C   0  0  2  0  0  3  0  0  0  0  0  0
  161.1270  206.6010  150.4620 C   0  0  0  0  0  2  0  0  0  0  0  0
  159.2090  212.2270  153.7300 C   0  0  0  0  0  3  0  0  0  0  0  0
  161.8270  206.8210  147.5930 C   0  0  0  0  0  3  0  0  0  0  0  0
  162.5110  207.8230  148.1600 C   0  0  0  0  0  3  0  0  0  0  0  0
  161.4560  208.0580  150.4120 C   0  0  0  0  0  0  0  0  0  0  0  0
  161.6260  214.0710  146.8270 C   0  0  0  0  0  2  0  0  0  0  0  0
  161.4140  212.0630  148.7560 C   0  0  0  0  0  3  0  0  0  0  0  0
  160.5580  211.8710  147.4870 C   0  0  0  0  0  2  0  0  0  0  0  0
  160.9330  212.8070  146.3280 C   0  0  0  0  0  2  0  0  0  0  0  0
  162.9210  213.7300  147.5760 C   0  0  0  0  0  2  0  0  0  0  0  0
  162.8550  212.3940  148.3260 C   0  0  0  0  0  2  0  0  0  0  0  0
  1 15  1  0  0  0  0
  1 12  1  0  0  0  0
  2  6  1  1  0  0  0
  2 16  1  0  0  0  0
  4 13  1  0  0  0  0
  6 14  1  0  0  0  0
  7  9  2  0  0  0  0
  7 13  1  0  0  0  0
  8 17  1  0  0  0  0
 10  8  2  0  0  0  0
 11  7  1  0  0  0  0
 12 23  1  6  0  0  0
 12  2  1  0  0  0  0
 13  5  1  0  0  0  0
 14 11  2  0  0  0  0
 14 18  1  0  0  0  0
 15 21  2  0  0  0  0
 16  3  1  6  0  0  0
 16 11  1  0  0  0  0
 18  4  2  0  0  0  0
 19 10  1  0  0  0  0
 19 20  2  0  0  0  0
 20 15  1  0  0  0  0
 21 17  1  0  0  0  0
 21  3  1  0  0  0  0
 22 26  1  0  0  0  0
 24 23  1  0  0  0  0
 25 22  1  0  0  0  0
 25 24  1  0  0  0  0
 26 27  1  0  0  0  0
 27 23  1  0  0  0  0
M  END
>  <MODEL>
1

>  <REMARK>
 VINA RESULT:      -6.3      0.000      0.000
  Name = 
  1 active torsions:
  status: ('A' for Active; 'I' for Inactive)
    1  A    between atoms: C_9  and  N_15
                            x       y       z     vdW  Elec       q    Type
                         _______ _______ _______ _____ _____    ______ ____

>  <TORSDO>
F 1

$$$$
=
 OpenBabel11052423123D

 27 31  0  0  1  0  0  0  0  0999 V2000
  161.0980  210.7800  139.1450 C   0  0  0  0  0  2  0  0  0  0  0  0
  159.1390  210.0550  138.1140 C   0  0  2  0  0  3  0  0  0  0  0  0
  158.4950  211.9350  139.6660 N   0  0  0  0  0  2  0  0  0  0  0  0
  154.5650  210.3080  137.2950 C   0  0  0  0  0  3  0  0  0  0  0  0
  153.6970  212.5640  137.1400 C   0  0  0  0  0  1  0  0  0  0  0  0
  158.0180  209.1150  138.0400 N   0  0  0  0  0  2  0  0  0  0  0  0
  156.0590  212.1330  137.6630 C   0  0  0  0  0  0  0  0  0  0  0  0
  159.6260  212.6680  142.9240 C   0  0  0  0  0  3  0  0  0  0  0  0
  156.2750  213.3730  137.7490 O   0  0  0  0  0  0  0  0  0  0  0  0
  160.8220  212.2370  143.3200 C   0  0  0  0  0  3  0  0  0  0  0  0
  157.0970  211.2220  137.8690 C   0  0  0  0  0  0  0  0  0  0  0  0
  160.1090  209.6990  139.1660 N   0  0  1  0  0  0  0  0  0  0  0  0
  154.8080  211.6530  137.3700 N   0  0  0  0  0  0  0  0  0  0  0  0
  156.8590  209.8800  137.7980 C   0  0  0  0  0  0  0  0  0  0  0  0
  160.8520  211.7180  140.2790 C   0  0  0  0  0  0  0  0  0  0  0  0
  158.5050  211.4750  138.2760 C   0  0  2  0  0  3  0  0  0  0  0  0
  159.3980  213.2580  141.5720 C   0  0  0  0  0  2  0  0  0  0  0  0
  155.5940  209.3790  137.5120 C   0  0  0  0  0  3  0  0  0  0  0  0
  162.0180  212.2030  142.4600 C   0  0  0  0  0  3  0  0  0  0  0  0
  162.0260  211.9870  141.1380 C   0  0  0  0  0  3  0  0  0  0  0  0
  159.6310  212.2620  140.4830 C   0  0  0  0  0  0  0  0  0  0  0  0
  162.4050  206.2180  138.2830 C   0  0  0  0  0  2  0  0  0  0  0  0
  160.7950  208.4390  138.8080 C   0  0  0  0  0  3  0  0  0  0  0  0
  161.5810  207.8760  140.0110 C   0  0  0  0  0  2  0  0  0  0  0  0
  162.6840  206.8770  139.6310 C   0  0  0  0  0  2  0  0  0  0  0  0
  162.3310  207.2640  137.1630 C   0  0  0  0  0  2  0  0  0  0  0  0
  161.7700  208.6130  137.6290 C   0  0  0  0  0  2  0  0  0  0  0  0
  1 12  1  0  0  0  0
  1 15  1  0  0  0  0
  2  6  1  1  0  0  0
  2 16  1  0  0  0  0
  2 12  1  0  0  0  0
  3 21  1  0  0  0  0
  4 13  1  0  0  0  0
  4 18  2  0  0  0  0
  5 13  1  0  0  0  0
  7  9  2  0  0  0  0
  7 11  1  0  0  0  0
  8 10  2  0  0  0  0
 12 23  1  6  0  0  0
 13  7  1  0  0  0  0
 14 11  2  0  0  0  0
 14  6  1  0  0  0  0
 15 21  2  0  0  0  0
 15 20  1  0  0  0  0
 16 11  1  1  0  0  0
 16  3  1  0  0  0  0
 17  8  1  0  0  0  0
 18 14  1  0  0  0  0
 19 10  1  0  0  0  0
 20 19  2  0  0  0  0
 21 17  1  0  0  0  0
 22 25  1  0  0  0  0
 23 24  1  0  0  0  0
 25 24  1  0  0  0  0
 26 27  1  0  0  0  0
 26 22  1  0  0  0  0
 27 23  1  0  0  0  0
M  END
>  <MODEL>
2

>  <REMARK>
 VINA RESULT:      -5.0      9.608     13.284
  Name = 
  1 active torsions:
  status: ('A' for Active; 'I' for Inactive)
    1  A    between atoms: C_9  and  N_15
                            x       y       z     vdW  Elec       q    Type
                         _______ _______ _______ _____ _____    ______ ____

>  <TORSDO>
F 1

$$$$
=
 OpenBabel11052423123D

 27 31  0  0  1  0  0  0  0  0999 V2000
  162.1120  210.8230  150.8650 C   0  0  0  0  0  2  0  0  0  0  0  0
  161.7230  208.5270  150.8840 C   0  0  2  0  0  3  0  0  0  0  0  0
  161.4700  209.2890  148.4950 N   0  0  0  0  0  2  0  0  0  0  0  0
  160.8070  204.4740  148.7880 C   0  0  0  0  0  3  0  0  0  0  0  0
  161.9280  204.1670  146.6640 C   0  0  0  0  0  1  0  0  0  0  0  0
  160.8190  207.3950  151.1060 N   0  0  0  0  0  2  0  0  0  0  0  0
  162.1530  206.2540  147.9420 C   0  0  0  0  0  0  0  0  0  0  0  0
  159.9520  212.1940  147.1960 C   0  0  0  0  0  3  0  0  0  0  0  0
  162.8970  206.7340  147.0440 O   0  0  0  0  0  0  0  0  0  0  0  0
  159.8460  213.2800  147.9580 C   0  0  0  0  0  3  0  0  0  0  0  0
  161.8450  207.0060  149.0770 C   0  0  0  0  0  0  0  0  0  0  0  0
  161.1050  209.8210  151.2220 N   0  0  1  0  0  0  0  0  0  0  0  0
  161.6300  204.9910  147.8250 N   0  0  0  0  0  0  0  0  0  0  0  0
  161.0230  206.4960  150.0390 C   0  0  0  0  0  0  0  0  0  0  0  0
  161.7540  211.4670  149.5680 C   0  0  0  0  0  0  0  0  0  0  0  0
  162.2100  208.4110  149.4030 C   0  0  2  0  0  3  0  0  0  0  0  0
  161.1940  211.3680  147.1520 C   0  0  0  0  0  2  0  0  0  0  0  0
  160.4770  205.2210  149.9290 C   0  0  0  0  0  3  0  0  0  0  0  0
  160.8830  213.7370  148.9010 C   0  0  0  0  0  3  0  0  0  0  0  0
  161.7150  212.9460  149.5910 C   0  0  0  0  0  3  0  0  0  0  0  0
  161.4820  210.7260  148.4700 C   0  0  0  0  0  0  0  0  0  0  0  0
  160.4110  210.4290  155.3840 C   0  0  0  0  0  2  0  0  0  0  0  0
  160.8720  209.9000  152.6800 C   0  0  0  0  0  3  0  0  0  0  0  0
  159.6300  210.7590  152.9970 C   0  0  0  0  0  2  0  0  0  0  0  0
  159.5840  211.2930  154.4360 C   0  0  0  0  0  2  0  0  0  0  0  0
  161.8840  210.3970  154.9560 C   0  0  0  0  0  2  0  0  0  0  0  0
  162.0770  210.4910  153.4370 C   0  0  0  0  0  2  0  0  0  0  0  0
  1 12  1  0  0  0  0
  2  6  1  6  0  0  0
  2 12  1  0  0  0  0
  4 18  2  0  0  0  0
  5 13  1  0  0  0  0
  7 11  1  0  0  0  0
  8 10  2  0  0  0  0
  9  7  2  0  0  0  0
 10 19  1  0  0  0  0
 11 16  1  0  0  0  0
 11 14  2  0  0  0  0
 12 23  1  1  0  0  0
 13  7  1  0  0  0  0
 13  4  1  0  0  0  0
 14  6  1  0  0  0  0
 15 20  1  0  0  0  0
 15  1  1  0  0  0  0
 16  3  1  6  0  0  0
 16  2  1  0  0  0  0
 17  8  1  0  0  0  0
 17 21  1  0  0  0  0
 18 14  1  0  0  0  0
 19 20  2  0  0  0  0
 21  3  1  0  0  0  0
 21 15  2  0  0  0  0
 23 24  1  0  0  0  0
 23 27  1  0  0  0  0
 24 25  1  0  0  0  0
 25 22  1  0  0  0  0
 26 22  1  0  0  0  0
 27 26  1  0  0  0  0
M  END
>  <MODEL>
3

>  <REMARK>
 VINA RESULT:      -4.8      2.267      6.575
  Name = 
  1 active torsions:
  status: ('A' for Active; 'I' for Inactive)
    1  A    between atoms: C_9  and  N_15
                            x       y       z     vdW  Elec       q    Type
                         _______ _______ _______ _____ _____    ______ ____

>  <TORSDO>
F 1

$$$$
=
 OpenBabel11052423123D

 27 31  0  0  1  0  0  0  0  0999 V2000
  160.5890  212.5730  139.4570 C   0  0  0  0  0  2  0  0  0  0  0  0
  158.4780  211.7700  138.8870 C   0  0  2  0  0  3  0  0  0  0  0  0
  158.2210  213.0170  141.0630 N   0  0  0  0  0  2  0  0  0  0  0  0
  153.9000  211.3190  139.5950 C   0  0  0  0  0  3  0  0  0  0  0  0
  152.8100  213.3190  140.4140 C   0  0  0  0  0  1  0  0  0  0  0  0
  157.5000  210.6780  138.8640 N   0  0  0  0  0  2  0  0  0  0  0  0
  155.2390  213.2430  140.0460 C   0  0  0  0  0  0  0  0  0  0  0  0
  160.3240  213.0860  143.8930 C   0  0  0  0  0  3  0  0  0  0  0  0
  155.3450  214.4350  140.4440 O   0  0  0  0  0  0  0  0  0  0  0  0
  161.6200  212.8120  143.7580 C   0  0  0  0  0  3  0  0  0  0  0  0
  156.3700  212.5330  139.6390 C   0  0  0  0  0  0  0  0  0  0  0  0
  159.7810  211.3520  139.4350 N   0  0  1  0  0  0  0  0  0  0  0  0
  154.0180  212.6180  140.0070 N   0  0  0  0  0  0  0  0  0  0  0  0
  156.2580  211.2360  139.2300 C   0  0  0  0  0  0  0  0  0  0  0  0
  160.6540  213.1170  140.8440 C   0  0  0  0  0  0  0  0  0  0  0  0
  157.7980  212.9450  139.6630 C   0  0  2  0  0  3  0  0  0  0  0  0
  159.5870  213.9500  142.9240 C   0  0  0  0  0  2  0  0  0  0  0  0
  155.0290  210.5870  139.1940 C   0  0  0  0  0  3  0  0  0  0  0  0
  162.4450  213.2400  142.6140 C   0  0  0  0  0  3  0  0  0  0  0  0
  162.0190  213.3810  141.3520 C   0  0  0  0  0  3  0  0  0  0  0  0
  159.5300  213.3380  141.5630 C   0  0  0  0  0  0  0  0  0  0  0  0
  161.8690  208.4790  137.0770 C   0  0  0  0  0  2  0  0  0  0  0  0
  160.4250  210.3880  138.5170 C   0  0  0  0  0  3  0  0  0  0  0  0
  160.5190  208.9890  139.1590 C   0  0  0  0  0  2  0  0  0  0  0  0
  161.5690  208.0700  138.5160 C   0  0  0  0  0  2  0  0  0  0  0  0
  162.4150  209.9110  137.0130 C   0  0  0  0  0  2  0  0  0  0  0  0
  161.8410  210.8290  138.1000 C   0  0  0  0  0  2  0  0  0  0  0  0
  1 15  1  0  0  0  0
  2  6  1  1  0  0  0
  2 12  1  0  0  0  0
  2 16  1  0  0  0  0
  3 21  1  0  0  0  0
  4 13  1  0  0  0  0
  6 14  1  0  0  0  0
  7  9  2  0  0  0  0
 10  8  2  0  0  0  0
 11  7  1  0  0  0  0
 12 23  1  6  0  0  0
 12  1  1  0  0  0  0
 13  7  1  0  0  0  0
 13  5  1  0  0  0  0
 14 11  2  0  0  0  0
 15 20  1  0  0  0  0
 15 21  2  0  0  0  0
 16 11  1  1  0  0  0
 16  3  1  0  0  0  0
 17  8  1  0  0  0  0
 18 14  1  0  0  0  0
 18  4  2  0  0  0  0
 19 10  1  0  0  0  0
 20 19  2  0  0  0  0
 21 17  1  0  0  0  0
 22 25  1  0  0  0  0
 23 24  1  0  0  0  0
 25 24  1  0  0  0  0
 26 22  1  0  0  0  0
 26 27  1  0  0  0  0
 27 23  1  0  0  0  0
M  END
>  <MODEL>
4

>  <REMARK>
 VINA RESULT:      -4.6      9.074     12.335
  Name = 
  1 active torsions:
  status: ('A' for Active; 'I' for Inactive)
    1  A    between atoms: C_9  and  N_15
                            x       y       z     vdW  Elec       q    Type
                         _______ _______ _______ _____ _____    ______ ____

>  <TORSDO>
F 1

$$$$
=
 OpenBabel11052423123D

 27 31  0  0  1  0  0  0  0  0999 V2000
  159.7470  211.4110  154.1860 C   0  0  0  0  0  2  0  0  0  0  0  0
  160.1800  210.0580  152.3400 C   0  0  2  0  0  3  0  0  0  0  0  0
  161.4020  209.0390  154.2950 N   0  0  0  0  0  2  0  0  0  0  0  0
  162.0650  206.3170  150.3120 C   0  0  0  0  0  3  0  0  0  0  0  0
  161.9750  204.3000  151.6480 C   0  0  0  0  0  1  0  0  0  0  0  0
  160.9470  209.7810  151.1220 N   0  0  0  0  0  2  0  0  0  0  0  0
  161.1420  206.4450  152.5090 C   0  0  0  0  0  0  0  0  0  0  0  0
  163.2160  210.5930  156.8890 C   0  0  0  0  0  3  0  0  0  0  0  0
  160.8370  205.8970  153.6040 O   0  0  0  0  0  0  0  0  0  0  0  0
  162.9420  211.8520  157.2230 C   0  0  0  0  0  3  0  0  0  0  0  0
  160.9050  207.8070  152.3140 C   0  0  0  0  0  0  0  0  0  0  0  0
  160.5430  211.3460  152.9570 N   0  0  1  0  0  0  0  0  0  0  0  0
  161.7150  205.7220  151.4930 N   0  0  0  0  0  0  0  0  0  0  0  0
  161.2550  208.4050  151.1380 C   0  0  0  0  0  0  0  0  0  0  0  0
  160.6010  211.0860  155.3640 C   0  0  0  0  0  0  0  0  0  0  0  0
  160.3800  208.8170  153.2710 C   0  0  2  0  0  3  0  0  0  0  0  0
  162.1460  209.5920  156.6070 C   0  0  0  0  0  2  0  0  0  0  0  0
  161.8440  207.6870  150.1040 C   0  0  0  0  0  3  0  0  0  0  0  0
  161.5840  212.4240  157.2610 C   0  0  0  0  0  3  0  0  0  0  0  0
  160.5680  212.0810  156.4580 C   0  0  0  0  0  3  0  0  0  0  0  0
  161.3460  209.9570  155.3980 C   0  0  0  0  0  0  0  0  0  0  0  0
  159.1110  214.3020  150.2410 C   0  0  0  0  0  2  0  0  0  0  0  0
  160.1250  212.4590  152.0770 C   0  0  0  0  0  3  0  0  0  0  0  0
  158.5870  212.5470  151.9900 C   0  0  0  0  0  2  0  0  0  0  0  0
  158.0690  213.3200  150.7670 C   0  0  0  0  0  2  0  0  0  0  0  0
  160.3900  213.5720  149.8110 C   0  0  0  0  0  2  0  0  0  0  0  0
  160.6860  212.3220  150.6500 C   0  0  0  0  0  2  0  0  0  0  0  0
  1 15  1  0  0  0  0
  2  6  1  6  0  0  0
  2 12  1  0  0  0  0
  2 16  1  0  0  0  0
  3 21  1  0  0  0  0
  4 13  1  0  0  0  0
  6 14  1  0  0  0  0
  7  9  2  0  0  0  0
  8 10  2  0  0  0  0
 10 19  1  0  0  0  0
 11  7  1  0  0  0  0
 12 23  1  6  0  0  0
 12  1  1  0  0  0  0
 13  5  1  0  0  0  0
 13  7  1  0  0  0  0
 14 11  2  0  0  0  0
 15 21  2  0  0  0  0
 15 20  1  0  0  0  0
 16 11  1  6  0  0  0
 16  3  1  0  0  0  0
 17  8  1  0  0  0  0
 18  4  2  0  0  0  0
 18 14  1  0  0  0  0
 20 19  2  0  0  0  0
 21 17  1  0  0  0  0
 22 25  1  0  0  0  0
 24 23  1  0  0  0  0
 25 24  1  0  0  0  0
 26 22  1  0  0  0  0
 26 27  1  0  0  0  0
 27 23  1  0  0  0  0
M  END
>  <MODEL>
5

>  <REMARK>
 VINA RESULT:      -4.1      2.273      5.998
  Name = 
  1 active torsions:
  status: ('A' for Active; 'I' for Inactive)
    1  A    between atoms: C_9  and  N_15
                            x       y       z     vdW  Elec       q    Type
                         _______ _______ _______ _____ _____    ______ ____

>  <TORSDO>
F 1

$$$$
=
 OpenBabel11052423123D

 27 31  0  0  1  0  0  0  0  0999 V2000
  162.0750  210.3980  151.1310 C   0  0  0  0  0  2  0  0  0  0  0  0
  160.4570  211.8260  152.0090 C   0  0  2  0  0  3  0  0  0  0  0  0
  160.2820  209.6550  153.2790 N   0  0  0  0  0  2  0  0  0  0  0  0
  157.0550  212.8660  155.0090 C   0  0  0  0  0  3  0  0  0  0  0  0
  157.4210  212.0540  157.2610 C   0  0  0  0  0  1  0  0  0  0  0  0
  159.1230  212.4270  151.9370 N   0  0  0  0  0  2  0  0  0  0  0  0
  159.0080  211.5660  155.4490 C   0  0  0  0  0  0  0  0  0  0  0  0
  160.4940  206.3320  152.1190 C   0  0  0  0  0  3  0  0  0  0  0  0
  159.7260  210.9020  156.2460 O   0  0  0  0  0  0  0  0  0  0  0  0
  161.1580  206.0660  150.9960 C   0  0  0  0  0  3  0  0  0  0  0  0
  159.3810  211.7020  154.1110 C   0  0  0  0  0  0  0  0  0  0  0  0
  160.7550  210.9670  150.8490 N   0  0  1  0  0  0  0  0  0  0  0  0
  157.8480  212.1620  155.8740 N   0  0  0  0  0  0  0  0  0  0  0  0
  158.5930  212.4010  153.2440 C   0  0  0  0  0  0  0  0  0  0  0  0
  161.9330  208.9900  151.6030 C   0  0  0  0  0  0  0  0  0  0  0  0
  160.5310  211.0940  153.3890 C   0  0  2  0  0  3  0  0  0  0  0  0
  161.0150  207.2790  153.1490 C   0  0  0  0  0  2  0  0  0  0  0  0
  157.4100  213.0020  153.6580 C   0  0  0  0  0  3  0  0  0  0  0  0
  162.4120  206.7300  150.5970 C   0  0  0  0  0  3  0  0  0  0  0  0
  162.7480  207.9970  150.8710 C   0  0  0  0  0  3  0  0  0  0  0  0
  161.1050  208.6760  152.6260 C   0  0  0  0  0  0  0  0  0  0  0  0
  161.4140  213.4470  147.4440 C   0  0  0  0  0  2  0  0  0  0  0  0
  160.8620  211.7950  149.6270 C   0  0  0  0  0  3  0  0  0  0  0  0
  162.1650  211.4870  148.8620 C   0  0  0  0  0  2  0  0  0  0  0  0
  162.5970  212.5910  147.8850 C   0  0  0  0  0  2  0  0  0  0  0  0
  160.7530  214.1340  148.6460 C   0  0  0  0  0  2  0  0  0  0  0  0
  160.8230  213.3040  149.9340 C   0  0  0  0  0  2  0  0  0  0  0  0
  1 15  1  0  0  0  0
  2  6  1  6  0  0  0
  2 16  1  0  0  0  0
  4 13  1  0  0  0  0
  6 14  1  0  0  0  0
  7 13  1  0  0  0  0
  7  9  2  0  0  0  0
  8 17  1  0  0  0  0
 10  8  2  0  0  0  0
 11  7  1  0  0  0  0
 12 23  1  6  0  0  0
 12  1  1  0  0  0  0
 12  2  1  0  0  0  0
 13  5  1  0  0  0  0
 14 18  1  0  0  0  0
 14 11  2  0  0  0  0
 15 21  2  0  0  0  0
 16  3  1  6  0  0  0
 16 11  1  0  0  0  0
 18  4  2  0  0  0  0
 19 20  2  0  0  0  0
 19 10  1  0  0  0  0
 20 15  1  0  0  0  0
 21 17  1  0  0  0  0
 21  3  1  0  0  0  0
 22 25  1  0  0  0  0
 22 26  1  0  0  0  0
 23 27  1  0  0  0  0
 24 23  1  0  0  0  0
 25 24  1  0  0  0  0
 26 27  1  0  0  0  0
M  END
>  <MODEL>
6

>  <REMARK>
 VINA RESULT:      -4.0      1.704      2.303
  Name = 
  1 active torsions:
  status: ('A' for Active; 'I' for Inactive)
    1  A    between atoms: C_9  and  N_15
                            x       y       z     vdW  Elec       q    Type
                         _______ _______ _______ _____ _____    ______ ____

>  <TORSDO>
F 1

$$$$
=
 OpenBabel11052423123D

 27 31  0  0  1  0  0  0  0  0999 V2000
  161.2330  210.0740  153.6840 C   0  0  0  0  0  2  0  0  0  0  0  0
  161.3420  208.0590  152.5200 C   0  0  2  0  0  3  0  0  0  0  0  0
  160.8510  209.8570  150.8220 N   0  0  0  0  0  2  0  0  0  0  0  0
  161.2360  205.5360  148.6110 C   0  0  0  0  0  3  0  0  0  0  0  0
  162.3240  206.5780  146.7150 C   0  0  0  0  0  1  0  0  0  0  0  0
  160.7070  206.8170  152.0720 N   0  0  0  0  0  2  0  0  0  0  0  0
  162.1440  207.7270  148.8790 C   0  0  0  0  0  0  0  0  0  0  0  0
  158.7050  212.6470  151.0380 C   0  0  0  0  0  3  0  0  0  0  0  0
  162.7370  208.7340  148.4040 O   0  0  0  0  0  0  0  0  0  0  0  0
  158.3980  213.1520  152.2310 C   0  0  0  0  0  3  0  0  0  0  0  0
  161.7220  207.7220  150.2100 C   0  0  0  0  0  0  0  0  0  0  0  0
  160.4750  208.8510  153.4100 N   0  0  1  0  0  0  0  0  0  0  0  0
  161.8970  206.6220  148.1050 N   0  0  0  0  0  0  0  0  0  0  0  0
  161.0610  206.6420  150.7180 C   0  0  0  0  0  0  0  0  0  0  0  0
  160.7010  211.1980  152.8600 C   0  0  0  0  0  0  0  0  0  0  0  0
  161.7910  208.8090  151.2230 C   0  0  2  0  0  3  0  0  0  0  0  0
  160.0930  212.2250  150.6840 C   0  0  0  0  0  2  0  0  0  0  0  0
  160.7950  205.5190  149.9420 C   0  0  0  0  0  3  0  0  0  0  0  0
  159.3460  213.2650  153.3540 C   0  0  0  0  0  3  0  0  0  0  0  0
  160.3510  212.4200  153.6180 C   0  0  0  0  0  3  0  0  0  0  0  0
  160.5560  211.0770  151.5210 C   0  0  0  0  0  0  0  0  0  0  0  0
  160.1260  207.0550  157.2610 C   0  0  0  0  0  2  0  0  0  0  0  0
  160.2810  208.1330  154.6890 C   0  0  0  0  0  3  0  0  0  0  0  0
  159.7870  209.0910  155.7930 C   0  0  0  0  0  2  0  0  0  0  0  0
  160.0160  208.5760  157.2220 C   0  0  0  0  0  2  0  0  0  0  0  0
  161.3020  206.5660  156.4060 C   0  0  0  0  0  2  0  0  0  0  0  0
  161.5700  207.4480  155.1800 C   0  0  0  0  0  2  0  0  0  0  0  0
  2  6  1  6  0  0  0
  2 12  1  0  0  0  0
  3 16  1  0  0  0  0
  3 21  1  0  0  0  0
  4 18  2  0  0  0  0
  5 13  1  0  0  0  0
  7 11  1  0  0  0  0
  8 10  2  0  0  0  0
  9  7  2  0  0  0  0
 10 19  1  0  0  0  0
 11 14  2  0  0  0  0
 12  1  1  0  0  0  0
 12 23  1  1  0  0  0
 13  4  1  0  0  0  0
 13  7  1  0  0  0  0
 14  6  1  0  0  0  0
 15 20  1  0  0  0  0
 15  1  1  0  0  0  0
 16 11  1  6  0  0  0
 16  2  1  0  0  0  0
 17  8  1  0  0  0  0
 17 21  1  0  0  0  0
 18 14  1  0  0  0  0
 19 20  2  0  0  0  0
 21 15  2  0  0  0  0
 23 27  1  0  0  0  0
 23 24  1  0  0  0  0
 24 25  1  0  0  0  0
 25 22  1  0  0  0  0
 26 22  1  0  0  0  0
 27 26  1  0  0  0  0
M  END
>  <MODEL>
7

>  <REMARK>
 VINA RESULT:      -3.4      2.530      7.448
  Name = 
  1 active torsions:
  status: ('A' for Active; 'I' for Inactive)
    1  A    between atoms: C_9  and  N_15
                            x       y       z     vdW  Elec       q    Type
                         _______ _______ _______ _____ _____    ______ ____

>  <TORSDO>
F 1

$$$$
