=
 OpenBabel11062409183D

 37 44  0  0  1  0  0  0  0  0999 V2000
  160.4650  212.4070  152.2560 C   0  0  0  0  0  2  0  0  0  0  0  0
  159.3440  214.4530  156.7580 C   0  0  0  0  0  1  0  0  0  0  0  0
  159.2410  209.2200  153.9770 C   0  0  2  0  0  3  0  0  0  0  0  0
  159.8350  212.9750  149.8410 C   0  0  1  0  0  3  0  0  0  0  0  0
  162.1740  209.5140  151.5050 C   0  0  0  0  0  2  0  0  0  0  0  0
  159.5720  212.0030  157.0610 C   0  0  0  0  0  2  0  0  0  0  0  0
  160.2400  209.9640  153.0610 C   0  0  2  0  0  3  0  0  0  0  0  0
  158.3690  210.2970  154.6160 C   0  0  2  0  0  3  0  0  0  0  0  0
  161.6870  209.4470  152.9530 C   0  0  1  0  0  3  0  0  0  0  0  0
  160.8220  211.1640  156.8940 C   0  0  0  0  0  2  0  0  0  0  0  0
  161.0220  213.1050  149.1070 O   0  0  0  0  0  0  0  0  0  0  0  0
  158.8190  211.6210  153.9940 C   0  0  1  0  0  3  0  0  0  0  0  0
  158.6330  212.8370  154.8960 C   0  0  1  0  0  0  0  0  0  0  0  0
  161.7670  209.2190  155.8360 C   0  0  0  0  0  3  0  0  0  0  0  0
  160.6720  209.9830  155.9760 C   0  0  0  0  0  0  0  0  0  0  0  0
  157.2720  213.4130  154.9300 C   0  0  0  0  0  2  0  0  0  0  0  0
  161.4670  211.7840  148.9540 C   0  0  2  0  0  3  0  0  0  0  0  0
  162.2370  210.8400  151.0610 O   0  0  0  0  0  0  0  0  0  0  0  0
  159.3210  209.4630  155.4950 C   0  0  2  0  0  3  0  0  0  0  0  0
  160.1980  211.4420  153.4180 C   0  0  2  0  0  3  0  0  0  0  0  0
  159.6030  213.1300  156.0490 C   0  0  1  0  0  3  0  0  0  0  0  0
  162.0160  208.0740  153.5820 C   0  0  1  0  0  3  0  0  0  0  0  0
  158.3040  213.9830  154.1520 O   0  0  0  0  0  0  0  0  0  0  0  0
  161.1160  211.0080  150.2260 C   0  0  1  0  0  3  0  0  0  0  0  0
  160.0360  211.8720  150.8770 C   0  0  1  0  0  3  0  0  0  0  0  0
  161.7600  207.9170  155.0860 C   0  0  0  0  0  2  0  0  0  0  0  0
  161.3650  205.6340  153.4040 C   0  0  0  0  0  3  0  0  0  0  0  0
  161.5490  206.8820  152.7980 C   0  0  0  0  0  0  0  0  0  0  0  0
  161.2840  207.0280  151.4340 C   0  0  0  0  0  3  0  0  0  0  0  0
  160.5810  206.0570  149.3750 F   0  0  0  0  0  0  0  0  0  0  0  0
  160.6700  204.7230  151.3080 N   0  0  0  0  0  0  0  0  0  0  0  0
  160.8410  205.9260  150.6980 C   0  0  0  0  0  0  0  0  0  0  0  0
  160.9210  204.5560  152.6350 C   0  0  0  0  0  3  0  0  0  0  0  0
  162.9450  211.7610  148.5800 C   0  0  0  0  0  2  0  0  0  0  0  0
  163.2010  212.6670  147.3920 C   0  0  0  0  0  1  0  0  0  0  0  0
  158.1470  214.4520  150.8500 C   0  0  0  0  0  2  0  0  0  0  0  0
  159.3880  214.2940  150.3980 C   0  0  0  0  0  3  0  0  0  0  0  0
  1 20  1  0  0  0  0
  3  8  1  0  0  0  0
  3 19  1  0  0  0  0
  4 37  1  0  0  0  0
  4 25  1  0  0  0  0
  5  9  1  0  0  0  0
  7 20  1  0  0  0  0
  7  3  1  0  0  0  0
  8 19  1  0  0  0  0
  9  7  1  0  0  0  0
  9 22  1  0  0  0  0
 10  6  1  0  0  0  0
 11  4  1  0  0  0  0
 12  8  1  0  0  0  0
 12 13  1  0  0  0  0
 13 16  1  0  0  0  0
 13 21  1  0  0  0  0
 14 15  2  0  0  0  0
 15 10  1  0  0  0  0
 17 11  1  0  0  0  0
 17 24  1  0  0  0  0
 18  5  1  0  0  0  0
 19 15  1  0  0  0  0
 20 12  1  0  0  0  0
 21  2  1  0  0  0  0
 21  6  1  0  0  0  0
 22 26  1  0  0  0  0
 23 13  1  0  0  0  0
 23 16  1  0  0  0  0
 24 25  1  0  0  0  0
 24 18  1  0  0  0  0
 25  1  1  0  0  0  0
 26 14  1  0  0  0  0
 28 27  1  0  0  0  0
 28 22  1  0  0  0  0
 29 28  2  0  0  0  0
 30 32  1  0  0  0  0
 31 33  1  0  0  0  0
 32 31  2  0  0  0  0
 32 29  1  0  0  0  0
 33 27  2  0  0  0  0
 34 17  1  0  0  0  0
 35 34  1  0  0  0  0
 37 36  2  0  0  0  0
M  END
>  <MODEL>
1

>  <REMARK>
 VINA RESULT:      -2.8      0.000      0.000
  Name = 
  3 active torsions:
  status: ('A' for Active; 'I' for Inactive)
    1  A    between atoms: C_5  and  C_23
    2  A    between atoms: C_6  and  C_31
    3  A    between atoms: C_11  and  C_26
                            x       y       z     vdW  Elec       q    Type
                         _______ _______ _______ _____ _____    ______ ____

>  <TORSDO>
F 3

$$$$
=
 OpenBabel11062409183D

 37 44  0  0  1  0  0  0  0  0999 V2000
  160.8610  209.6700  149.7800 C   0  0  0  0  0  2  0  0  0  0  0  0
  160.8370  205.3440  147.1360 C   0  0  0  0  0  1  0  0  0  0  0  0
  162.6990  207.4980  152.3340 C   0  0  2  0  0  3  0  0  0  0  0  0
  161.5930  212.0670  149.2580 C   0  0  1  0  0  3  0  0  0  0  0  0
  160.1110  210.2440  153.0900 C   0  0  0  0  0  2  0  0  0  0  0  0
  161.2550  204.7900  149.5160 C   0  0  0  0  0  2  0  0  0  0  0  0
  161.6500  208.5790  151.9830 C   0  0  2  0  0  3  0  0  0  0  0  0
  163.1600  206.9080  151.0050 C   0  0  2  0  0  3  0  0  0  0  0  0
  160.4220  208.7590  152.8980 C   0  0  1  0  0  3  0  0  0  0  0  0
  160.3110  204.9730  150.6870 C   0  0  0  0  0  2  0  0  0  0  0  0
  160.5120  212.9150  149.5310 O   0  0  0  0  0  0  0  0  0  0  0  0
  162.4410  207.7130  149.9200 C   0  0  1  0  0  3  0  0  0  0  0  0
  162.1790  206.9400  148.6310 C   0  0  1  0  0  0  0  0  0  0  0  0
  160.0670  205.8880  152.9000 C   0  0  0  0  0  3  0  0  0  0  0  0
  160.8870  205.7360  151.8470 C   0  0  0  0  0  0  0  0  0  0  0  0
  163.3170  206.8480  147.6910 C   0  0  0  0  0  2  0  0  0  0  0  0
  160.4670  212.9580  150.9320 C   0  0  2  0  0  3  0  0  0  0  0  0
  159.7410  210.8370  151.8790 O   0  0  0  0  0  0  0  0  0  0  0  0
  162.3750  206.0310  152.0000 C   0  0  2  0  0  3  0  0  0  0  0  0
  161.2430  208.3880  150.5300 C   0  0  2  0  0  3  0  0  0  0  0  0
  161.0370  205.9200  148.5320 C   0  0  1  0  0  3  0  0  0  0  0  0
  160.4100  208.0120  154.2500 C   0  0  1  0  0  3  0  0  0  0  0  0
  162.2680  207.7760  147.5040 O   0  0  0  0  0  0  0  0  0  0  0  0
  160.8640  211.5810  151.4680 C   0  0  1  0  0  3  0  0  0  0  0  0
  161.5810  210.9360  150.2830 C   0  0  1  0  0  3  0  0  0  0  0  0
  160.5190  206.4830  154.2030 C   0  0  0  0  0  2  0  0  0  0  0  0
  161.8980  207.8160  156.2900 C   0  0  0  0  0  3  0  0  0  0  0  0
  161.2750  208.6120  155.3210 C   0  0  0  0  0  0  0  0  0  0  0  0
  161.4690  209.9950  155.3420 C   0  0  0  0  0  3  0  0  0  0  0  0
  162.4730  211.9020  156.3580 F   0  0  0  0  0  0  0  0  0  0  0  0
  162.8730  209.7680  157.2610 N   0  0  0  0  0  0  0  0  0  0  0  0
  162.2790  210.5610  156.3300 C   0  0  0  0  0  0  0  0  0  0  0  0
  162.7000  208.4190  157.2610 C   0  0  0  0  0  3  0  0  0  0  0  0
  159.1070  213.4600  151.4050 C   0  0  0  0  0  2  0  0  0  0  0  0
  158.1840  213.6720  150.2210 C   0  0  0  0  0  1  0  0  0  0  0  0
  160.7650  212.1780  146.9440 C   0  0  0  0  0  2  0  0  0  0  0  0
  161.5930  211.6230  147.8240 C   0  0  0  0  0  3  0  0  0  0  0  0
  1 25  1  0  0  0  0
  1 20  1  0  0  0  0
  2 21  1  0  0  0  0
  4 11  1  0  0  0  0
  4 25  1  0  0  0  0
  6 10  1  0  0  0  0
  7  3  1  0  0  0  0
  7  9  1  0  0  0  0
  8 19  1  0  0  0  0
  8  3  1  0  0  0  0
  9  5  1  0  0  0  0
  9 22  1  0  0  0  0
 10 15  1  0  0  0  0
 11 17  1  0  0  0  0
 12 20  1  0  0  0  0
 12  8  1  0  0  0  0
 13 12  1  0  0  0  0
 14 26  1  0  0  0  0
 15 19  1  0  0  0  0
 15 14  2  0  0  0  0
 16 13  1  0  0  0  0
 17 34  1  0  0  0  0
 17 24  1  0  0  0  0
 18  5  1  0  0  0  0
 19  3  1  0  0  0  0
 20  7  1  0  0  0  0
 21 13  1  0  0  0  0
 21  6  1  0  0  0  0
 22 28  1  0  0  0  0
 23 16  1  0  0  0  0
 23 13  1  0  0  0  0
 24 18  1  0  0  0  0
 25 24  1  0  0  0  0
 26 22  1  0  0  0  0
 27 33  1  0  0  0  0
 28 29  1  0  0  0  0
 28 27  2  0  0  0  0
 29 32  2  0  0  0  0
 31 33  2  0  0  0  0
 32 30  1  0  0  0  0
 32 31  1  0  0  0  0
 35 34  1  0  0  0  0
 36 37  2  0  0  0  0
 37  4  1  0  0  0  0
M  END
>  <MODEL>
2

>  <REMARK>
 VINA RESULT:      -0.3      2.869      6.309
  Name = 
  3 active torsions:
  status: ('A' for Active; 'I' for Inactive)
    1  A    between atoms: C_5  and  C_23
    2  A    between atoms: C_6  and  C_31
    3  A    between atoms: C_11  and  C_26
                            x       y       z     vdW  Elec       q    Type
                         _______ _______ _______ _____ _____    ______ ____

>  <TORSDO>
F 3

$$$$
=
 OpenBabel11062409183D

 37 44  0  0  1  0  0  0  0  0999 V2000
  161.0890  211.9750  152.0670 C   0  0  0  0  0  2  0  0  0  0  0  0
  160.6330  212.2700  157.1090 C   0  0  0  0  0  1  0  0  0  0  0  0
  159.8210  208.4200  152.6760 C   0  0  2  0  0  3  0  0  0  0  0  0
  160.2420  213.4050  150.1210 C   0  0  1  0  0  3  0  0  0  0  0  0
  162.4770  209.5050  150.1130 C   0  0  0  0  0  2  0  0  0  0  0  0
  160.7040  209.8730  156.4810 C   0  0  0  0  0  2  0  0  0  0  0  0
  160.7670  209.4150  151.9650 C   0  0  2  0  0  3  0  0  0  0  0  0
  159.1100  209.2160  153.7670 C   0  0  2  0  0  3  0  0  0  0  0  0
  162.1500  208.9280  151.4910 C   0  0  1  0  0  3  0  0  0  0  0  0
  161.8600  209.1140  155.8630 C   0  0  0  0  0  2  0  0  0  0  0  0
  161.3460  213.7580  149.3340 O   0  0  0  0  0  0  0  0  0  0  0  0
  159.5900  210.6610  153.6080 C   0  0  1  0  0  3  0  0  0  0  0  0
  159.5980  211.4690  154.9020 C   0  0  1  0  0  0  0  0  0  0  0  0
  162.5300  207.6610  154.0640 C   0  0  0  0  0  3  0  0  0  0  0  0
  161.5180  208.3550  154.6100 C   0  0  0  0  0  0  0  0  0  0  0  0
  158.2970  212.0350  155.3180 C   0  0  0  0  0  2  0  0  0  0  0  0
  161.6690  212.5700  148.6610 C   0  0  2  0  0  3  0  0  0  0  0  0
  162.5920  210.8980  150.1700 O   0  0  0  0  0  0  0  0  0  0  0  0
  160.0870  208.0890  154.1550 C   0  0  2  0  0  3  0  0  0  0  0  0
  160.8780  210.6610  152.8300 C   0  0  2  0  0  3  0  0  0  0  0  0
  160.7090  211.2890  155.9450 C   0  0  1  0  0  3  0  0  0  0  0  0
  162.4400  207.4110  151.5370 C   0  0  1  0  0  3  0  0  0  0  0  0
  159.2780  212.8170  154.6670 O   0  0  0  0  0  0  0  0  0  0  0  0
  161.4020  211.3950  149.6040 C   0  0  1  0  0  3  0  0  0  0  0  0
  160.4700  211.9950  150.6570 C   0  0  1  0  0  3  0  0  0  0  0  0
  162.3400  206.7240  152.9050 C   0  0  0  0  0  2  0  0  0  0  0  0
  161.1420  205.3960  150.7180 C   0  0  0  0  0  3  0  0  0  0  0  0
  161.7980  206.6030  150.4460 C   0  0  0  0  0  0  0  0  0  0  0  0
  161.8510  207.0740  149.1320 C   0  0  0  0  0  3  0  0  0  0  0  0
  161.2960  206.7810  146.8330 F   0  0  0  0  0  0  0  0  0  0  0  0
  160.6190  205.1630  148.3990 N   0  0  0  0  0  0  0  0  0  0  0  0
  161.2500  206.3320  148.1110 C   0  0  0  0  0  0  0  0  0  0  0  0
  160.5540  204.6840  149.6710 C   0  0  0  0  0  3  0  0  0  0  0  0
  163.0910  212.6390  148.1140 C   0  0  0  0  0  2  0  0  0  0  0  0
  163.0840  213.1850  146.6990 C   0  0  0  0  0  1  0  0  0  0  0  0
  158.8090  214.4410  151.8320 C   0  0  0  0  0  2  0  0  0  0  0  0
  159.9610  214.4430  151.1680 C   0  0  0  0  0  3  0  0  0  0  0  0
  1 20  1  0  0  0  0
  3  8  1  0  0  0  0
  3 19  1  0  0  0  0
  4 25  1  0  0  0  0
  4 37  1  0  0  0  0
  5 18  1  0  0  0  0
  5  9  1  0  0  0  0
  7  3  1  0  0  0  0
  7 20  1  0  0  0  0
  8 19  1  0  0  0  0
  9 22  1  0  0  0  0
  9  7  1  0  0  0  0
 10  6  1  0  0  0  0
 11  4  1  0  0  0  0
 12  8  1  0  0  0  0
 12 13  1  0  0  0  0
 13 16  1  0  0  0  0
 13 21  1  0  0  0  0
 14 15  2  0  0  0  0
 15 10  1  0  0  0  0
 17 11  1  0  0  0  0
 17 24  1  0  0  0  0
 19 15  1  0  0  0  0
 20 12  1  0  0  0  0
 21  6  1  0  0  0  0
 21  2  1  0  0  0  0
 22 26  1  0  0  0  0
 23 13  1  0  0  0  0
 23 16  1  0  0  0  0
 24 18  1  0  0  0  0
 24 25  1  0  0  0  0
 25  1  1  0  0  0  0
 26 14  1  0  0  0  0
 28 27  1  0  0  0  0
 28 22  1  0  0  0  0
 29 28  2  0  0  0  0
 30 32  1  0  0  0  0
 31 33  1  0  0  0  0
 32 31  2  0  0  0  0
 32 29  1  0  0  0  0
 33 27  2  0  0  0  0
 34 17  1  0  0  0  0
 35 34  1  0  0  0  0
 37 36  2  0  0  0  0
M  END
>  <MODEL>
3

>  <REMARK>
 VINA RESULT:      -0.0      1.316      1.894
  Name = 
  3 active torsions:
  status: ('A' for Active; 'I' for Inactive)
    1  A    between atoms: C_5  and  C_23
    2  A    between atoms: C_6  and  C_31
    3  A    between atoms: C_11  and  C_26
                            x       y       z     vdW  Elec       q    Type
                         _______ _______ _______ _____ _____    ______ ____

>  <TORSDO>
F 3

$$$$
