=
 OpenBabel11052422173D

 25 28  0  0  1  0  0  0  0  0999 V2000
  161.1510  204.5330  148.6270 C   0  0  0  0  0  0  0  0  0  0  0  0
  161.1640  205.5240  149.6100 C   0  0  0  0  0  0  0  0  0  0  0  0
  162.1120  206.0320  147.0170 C   0  0  0  0  0  3  0  0  0  0  0  0
  160.6020  203.1520  148.6480 C   0  0  1  0  0  3  0  0  0  0  0  0
  161.2940  200.4490  147.9300 C   0  0  0  0  0  3  0  0  0  0  0  0
  162.1460  207.0030  147.9760 N   0  0  0  0  0  0  0  0  0  0  0  0
  160.9570  202.7250  147.2460 C   0  0  0  0  0  0  0  0  0  0  0  0
  161.0490  201.2990  146.9230 C   0  0  0  0  0  3  0  0  0  0  0  0
  161.8050  207.9000  150.2550 C   0  0  2  0  0  3  0  0  0  0  0  0
  163.1080  207.9370  150.7520 O   0  0  0  0  0  1  0  0  0  0  0  0
  160.5780  205.2610  150.9690 C   0  0  0  0  0  2  0  0  0  0  0  0
  161.5140  200.9500  149.3140 C   0  0  0  0  0  3  0  0  0  0  0  0
  161.5910  204.7890  147.3550 C   0  0  0  0  0  0  0  0  0  0  0  0
  161.5040  203.6470  146.5180 N   0  0  0  0  0  0  0  0  0  0  0  0
  160.8200  207.7270  151.4090 C   0  0  0  0  0  2  0  0  0  0  0  0
  161.2550  202.2270  149.6430 C   0  0  0  0  0  3  0  0  0  0  0  0
  160.8690  206.3550  151.8960 N   0  0  0  0  0  0  0  0  0  0  0  0
  161.6810  206.7930  149.2470 C   0  0  0  0  0  0  0  0  0  0  0  0
  161.0180  206.1340  153.3020 C   0  0  0  0  0  3  0  0  0  0  0  0
  160.9190  207.1070  154.1710 C   0  0  0  0  0  0  0  0  0  0  0  0
  160.8180  208.0810  155.0320 C   0  0  0  0  0  0  0  0  0  0  0  0
  160.3250  209.3100  154.6120 O   0  0  0  0  0  1  0  0  0  0  0  0
  161.2180  207.8910  156.4330 C   0  0  0  0  0  0  0  0  0  0  0  0
  160.5350  206.9950  157.2490 O   0  0  0  0  0  1  0  0  0  0  0  0
  162.1860  208.5430  156.9040 O   0  0  0  0  0  0  0  0  0  0  0  0
  1  4  1  0  0  0  0
  1  2  1  0  0  0  0
  2 11  1  0  0  0  0
  3 13  1  0  0  0  0
  3  6  2  0  0  0  0
  4 16  1  1  0  0  0
  5 12  1  0  0  0  0
  6 18  1  0  0  0  0
  7  4  1  0  0  0  0
  8  7  1  0  0  0  0
  8  5  2  0  0  0  0
  9 10  1  1  0  0  0
  9 15  1  0  0  0  0
 11 17  1  0  0  0  0
 12 16  2  0  0  0  0
 13  1  2  0  0  0  0
 14  7  2  0  0  0  0
 14 13  1  0  0  0  0
 15 17  1  0  0  0  0
 17 19  1  0  0  0  0
 18  2  2  0  0  0  0
 18  9  1  0  0  0  0
 19 20  2  0  0  0  0
 20 21  2  0  0  0  0
 21 23  1  0  0  0  0
 22 21  1  0  0  0  0
 23 25  2  0  0  0  0
 23 24  1  0  0  0  0
M  END
>  <MODEL>
1

>  <REMARK>
 VINA RESULT:      -9.2      0.000      0.000
  Name = 
  2 active torsions:
  status: ('A' for Active; 'I' for Inactive)
    1  A    between atoms: C_2  and  C_21
    2  A    between atoms: C_6  and  N_23
                            x       y       z     vdW  Elec       q    Type
                         _______ _______ _______ _____ _____    ______ ____

>  <TORSDO>
F 2

$$$$
=
 OpenBabel11052422173D

 25 28  0  0  1  0  0  0  0  0999 V2000
  161.4230  204.3690  148.4850 C   0  0  0  0  0  0  0  0  0  0  0  0
  161.4800  204.9050  149.7720 C   0  0  0  0  0  0  0  0  0  0  0  0
  160.9490  202.1810  149.3520 C   0  0  0  0  0  3  0  0  0  0  0  0
  161.7000  204.9870  147.1620 C   0  0  1  0  0  3  0  0  0  0  0  0
  160.6050  205.1900  144.5050 C   0  0  0  0  0  3  0  0  0  0  0  0
  160.9860  202.6990  150.6150 N   0  0  0  0  0  0  0  0  0  0  0  0
  161.4360  203.7980  146.2740 C   0  0  0  0  0  0  0  0  0  0  0  0
  161.1180  204.0030  144.8590 C   0  0  0  0  0  3  0  0  0  0  0  0
  161.2220  204.5190  152.2730 C   0  0  2  0  0  3  0  0  0  0  0  0
  159.9000  204.7290  152.6660 O   0  0  0  0  0  1  0  0  0  0  0  0
  161.8470  206.3480  149.9830 C   0  0  0  0  0  2  0  0  0  0  0  0
  160.3240  206.2350  145.5270 C   0  0  0  0  0  3  0  0  0  0  0  0
  161.1880  203.0350  148.2820 C   0  0  0  0  0  0  0  0  0  0  0  0
  161.1560  202.6990  146.9040 N   0  0  0  0  0  0  0  0  0  0  0  0
  162.0180  205.8110  152.4360 C   0  0  0  0  0  2  0  0  0  0  0  0
  160.7750  206.1180  146.7870 C   0  0  0  0  0  3  0  0  0  0  0  0
  161.6590  206.7470  151.3790 N   0  0  0  0  0  0  0  0  0  0  0  0
  161.2540  204.0210  150.8560 C   0  0  0  0  0  0  0  0  0  0  0  0
  161.3110  208.0870  151.7400 C   0  0  0  0  0  3  0  0  0  0  0  0
  161.1080  208.4380  152.9840 C   0  0  0  0  0  0  0  0  0  0  0  0
  160.9090  208.7830  154.2260 C   0  0  0  0  0  0  0  0  0  0  0  0
  161.2690  207.9040  155.2410 O   0  0  0  0  0  1  0  0  0  0  0  0
  160.3120  210.0830  154.5600 C   0  0  0  0  0  0  0  0  0  0  0  0
  160.7760  211.2500  153.9610 O   0  0  0  0  0  0  0  0  0  0  0  0
  159.3730  210.1470  155.3950 O   0  0  0  0  0  1  0  0  0  0  0  0
  1  2  1  0  0  0  0
  2 11  1  0  0  0  0
  2 18  2  0  0  0  0
  3  6  2  0  0  0  0
  4 16  1  6  0  0  0
  4  1  1  0  0  0  0
  5  8  2  0  0  0  0
  5 12  1  0  0  0  0
  6 18  1  0  0  0  0
  7 14  2  0  0  0  0
  7  4  1  0  0  0  0
  8  7  1  0  0  0  0
  9 15  1  0  0  0  0
  9 10  1  6  0  0  0
 11 17  1  0  0  0  0
 12 16  2  0  0  0  0
 13  1  2  0  0  0  0
 13  3  1  0  0  0  0
 14 13  1  0  0  0  0
 17 19  1  0  0  0  0
 17 15  1  0  0  0  0
 18  9  1  0  0  0  0
 19 20  2  0  0  0  0
 20 21  2  0  0  0  0
 21 23  1  0  0  0  0
 21 22  1  0  0  0  0
 23 25  1  0  0  0  0
 24 23  2  0  0  0  0
M  END
>  <MODEL>
2

>  <REMARK>
 VINA RESULT:      -8.6      1.950      3.483
  Name = 
  2 active torsions:
  status: ('A' for Active; 'I' for Inactive)
    1  A    between atoms: C_2  and  C_21
    2  A    between atoms: C_6  and  N_23
                            x       y       z     vdW  Elec       q    Type
                         _______ _______ _______ _____ _____    ______ ____

>  <TORSDO>
F 2

$$$$
=
 OpenBabel11052422173D

 25 28  0  0  1  0  0  0  0  0999 V2000
  161.5430  206.2940  151.7860 C   0  0  0  0  0  0  0  0  0  0  0  0
  161.6980  207.6500  151.4960 C   0  0  0  0  0  0  0  0  0  0  0  0
  160.7950  206.7920  154.0120 C   0  0  0  0  0  3  0  0  0  0  0  0
  161.8740  205.0860  150.9850 C   0  0  1  0  0  3  0  0  0  0  0  0
  160.7640  202.5530  150.1780 C   0  0  0  0  0  3  0  0  0  0  0  0
  160.9270  208.1220  153.7330 N   0  0  0  0  0  0  0  0  0  0  0  0
  161.4350  204.0190  151.9560 C   0  0  0  0  0  0  0  0  0  0  0  0
  161.1190  202.6750  151.4650 C   0  0  0  0  0  3  0  0  0  0  0  0
  161.4400  210.0560  152.2810 C   0  0  2  0  0  3  0  0  0  0  0  0
  160.1660  210.5360  151.9740 O   0  0  0  0  0  1  0  0  0  0  0  0
  162.2600  208.0900  150.1730 C   0  0  0  0  0  2  0  0  0  0  0  0
  160.6470  203.7500  149.3020 C   0  0  0  0  0  3  0  0  0  0  0  0
  161.1260  205.8750  153.0210 C   0  0  0  0  0  0  0  0  0  0  0  0
  161.0220  204.4620  153.1020 N   0  0  0  0  0  0  0  0  0  0  0  0
  162.4060  210.4050  151.1510 C   0  0  0  0  0  2  0  0  0  0  0  0
  161.1040  204.9510  149.6960 C   0  0  0  0  0  3  0  0  0  0  0  0
  162.1550  209.5410  150.0050 N   0  0  0  0  0  0  0  0  0  0  0  0
  161.3760  208.5750  152.5210 C   0  0  0  0  0  0  0  0  0  0  0  0
  161.9980  210.1410  148.7160 C   0  0  0  0  0  3  0  0  0  0  0  0
  161.5930  211.3770  148.5730 C   0  0  0  0  0  0  0  0  0  0  0  0
  161.1920  212.6110  148.4360 C   0  0  0  0  0  0  0  0  0  0  0  0
  161.1410  213.4350  149.5540 O   0  0  0  0  0  1  0  0  0  0  0  0
  160.7960  213.1320  147.1210 C   0  0  0  0  0  0  0  0  0  0  0  0
  160.2880  212.2810  146.1460 O   0  0  0  0  0  0  0  0  0  0  0  0
  160.9160  214.3590  146.8710 O   0  0  0  0  0  1  0  0  0  0  0  0
  1 13  1  0  0  0  0
  2  1  2  0  0  0  0
  2 18  1  0  0  0  0
  4 16  1  6  0  0  0
  4  1  1  0  0  0  0
  4  7  1  0  0  0  0
  5  8  2  0  0  0  0
  6  3  1  0  0  0  0
  7 14  2  0  0  0  0
  8  7  1  0  0  0  0
  9 10  1  6  0  0  0
  9 18  1  0  0  0  0
 11  2  1  0  0  0  0
 12 16  2  0  0  0  0
 12  5  1  0  0  0  0
 13 14  1  0  0  0  0
 13  3  2  0  0  0  0
 15  9  1  0  0  0  0
 17 11  1  0  0  0  0
 17 15  1  0  0  0  0
 18  6  2  0  0  0  0
 19 17  1  0  0  0  0
 20 19  2  0  0  0  0
 21 20  2  0  0  0  0
 21 22  1  0  0  0  0
 23 21  1  0  0  0  0
 24 23  2  0  0  0  0
 25 23  1  0  0  0  0
M  END
>  <MODEL>
3

>  <REMARK>
 VINA RESULT:      -8.5      3.419      6.143
  Name = 
  2 active torsions:
  status: ('A' for Active; 'I' for Inactive)
    1  A    between atoms: C_2  and  C_21
    2  A    between atoms: C_6  and  N_23
                            x       y       z     vdW  Elec       q    Type
                         _______ _______ _______ _____ _____    ______ ____

>  <TORSDO>
F 2

$$$$
=
 OpenBabel11052422173D

 25 28  0  0  1  0  0  0  0  0999 V2000
  161.3660  204.0280  148.2890 C   0  0  0  0  0  0  0  0  0  0  0  0
  161.2970  204.2160  149.6690 C   0  0  0  0  0  0  0  0  0  0  0  0
  160.9200  201.6800  148.5250 C   0  0  0  0  0  3  0  0  0  0  0  0
  161.7200  204.9720  147.1970 C   0  0  1  0  0  3  0  0  0  0  0  0
  160.8340  205.8280  144.5930 C   0  0  0  0  0  3  0  0  0  0  0  0
  160.8330  201.8570  149.8760 N   0  0  0  0  0  0  0  0  0  0  0  0
  161.5800  204.0450  146.0150 C   0  0  0  0  0  0  0  0  0  0  0  0
  161.3680  204.6010  144.6770 C   0  0  0  0  0  3  0  0  0  0  0  0
  160.8570  203.1930  151.9570 C   0  0  2  0  0  3  0  0  0  0  0  0
  159.4990  203.2660  152.2720 O   0  0  0  0  0  1  0  0  0  0  0  0
  161.5820  205.5630  150.2730 C   0  0  0  0  0  2  0  0  0  0  0  0
  160.4260  206.5670  145.8180 C   0  0  0  0  0  3  0  0  0  0  0  0
  161.2060  202.7860  147.7330 C   0  0  0  0  0  0  0  0  0  0  0  0
  161.3000  202.8160  146.3180 N   0  0  0  0  0  0  0  0  0  0  0  0
  161.5790  204.4170  152.5140 C   0  0  0  0  0  2  0  0  0  0  0  0
  160.7800  206.1400  147.0410 C   0  0  0  0  0  3  0  0  0  0  0  0
  161.2660  205.5850  151.7020 N   0  0  0  0  0  0  0  0  0  0  0  0
  161.0230  203.0770  150.4690 C   0  0  0  0  0  0  0  0  0  0  0  0
  160.8310  206.7790  152.3600 C   0  0  0  0  0  3  0  0  0  0  0  0
  161.2380  207.9640  151.9850 C   0  0  0  0  0  0  0  0  0  0  0  0
  161.6470  209.1430  151.6050 C   0  0  0  0  0  0  0  0  0  0  0  0
  162.3250  209.2700  150.3980 O   0  0  0  0  0  1  0  0  0  0  0  0
  161.3970  210.3290  152.4340 C   0  0  0  0  0  0  0  0  0  0  0  0
  160.5150  211.3170  152.0110 O   0  0  0  0  0  0  0  0  0  0  0  0
  161.9860  210.4570  153.5390 O   0  0  0  0  0  1  0  0  0  0  0  0
  1  2  1  0  0  0  0
  2 11  1  0  0  0  0
  2 18  2  0  0  0  0
  3  6  2  0  0  0  0
  4 16  1  6  0  0  0
  4  1  1  0  0  0  0
  5  8  2  0  0  0  0
  5 12  1  0  0  0  0
  6 18  1  0  0  0  0
  7 14  2  0  0  0  0
  7  4  1  0  0  0  0
  8  7  1  0  0  0  0
  9 10  1  6  0  0  0
  9 15  1  0  0  0  0
 11 17  1  0  0  0  0
 12 16  2  0  0  0  0
 13  1  2  0  0  0  0
 13  3  1  0  0  0  0
 14 13  1  0  0  0  0
 17 19  1  0  0  0  0
 17 15  1  0  0  0  0
 18  9  1  0  0  0  0
 20 19  2  0  0  0  0
 21 20  2  0  0  0  0
 21 23  1  0  0  0  0
 22 21  1  0  0  0  0
 23 25  1  0  0  0  0
 24 23  2  0  0  0  0
M  END
>  <MODEL>
4

>  <REMARK>
 VINA RESULT:      -8.4      2.221      4.074
  Name = 
  2 active torsions:
  status: ('A' for Active; 'I' for Inactive)
    1  A    between atoms: C_2  and  C_21
    2  A    between atoms: C_6  and  N_23
                            x       y       z     vdW  Elec       q    Type
                         _______ _______ _______ _____ _____    ______ ____

>  <TORSDO>
F 2

$$$$
=
 OpenBabel11052422173D

 25 28  0  0  1  0  0  0  0  0999 V2000
  161.7430  205.9370  148.5300 C   0  0  0  0  0  0  0  0  0  0  0  0
  161.8240  207.0780  149.3280 C   0  0  0  0  0  0  0  0  0  0  0  0
  161.4540  204.5340  150.4570 C   0  0  0  0  0  3  0  0  0  0  0  0
  161.9160  205.7630  147.0640 C   0  0  1  0  0  3  0  0  0  0  0  0
  160.6880  204.4840  144.7930 C   0  0  0  0  0  3  0  0  0  0  0  0
  161.5160  205.6460  151.2460 N   0  0  0  0  0  0  0  0  0  0  0  0
  161.6900  204.2750  146.9640 C   0  0  0  0  0  0  0  0  0  0  0  0
  161.2940  203.6850  145.6830 C   0  0  0  0  0  3  0  0  0  0  0  0
  161.7090  208.0760  151.6660 C   0  0  2  0  0  3  0  0  0  0  0  0
  160.3950  208.4220  151.9850 O   0  0  0  0  0  1  0  0  0  0  0  0
  162.1050  208.4220  148.7160 C   0  0  0  0  0  2  0  0  0  0  0  0
  160.3870  205.9030  145.1240 C   0  0  0  0  0  3  0  0  0  0  0  0
  161.5860  204.6930  149.0830 C   0  0  0  0  0  0  0  0  0  0  0  0
  161.5130  203.6740  148.0990 N   0  0  0  0  0  0  0  0  0  0  0  0
  162.4250  209.2810  151.0600 C   0  0  0  0  0  2  0  0  0  0  0  0
  160.9030  206.4900  146.2170 C   0  0  0  0  0  3  0  0  0  0  0  0
  161.9560  209.4970  149.6980 N   0  0  0  0  0  0  0  0  0  0  0  0
  161.7070  206.9010  150.7300 C   0  0  0  0  0  0  0  0  0  0  0  0
  161.5380  210.8120  149.3190 C   0  0  0  0  0  3  0  0  0  0  0  0
  162.2810  211.5870  148.5720 C   0  0  0  0  0  0  0  0  0  0  0  0
  163.0260  212.3550  147.8260 C   0  0  0  0  0  0  0  0  0  0  0  0
  164.1360  211.8120  147.1890 O   0  0  0  0  0  1  0  0  0  0  0  0
  162.7050  213.7780  147.6530 C   0  0  0  0  0  0  0  0  0  0  0  0
  162.8430  214.3900  146.4120 O   0  0  0  0  0  0  0  0  0  0  0  0
  162.3000  214.4530  148.6350 O   0  0  0  0  0  1  0  0  0  0  0  0
  1 13  2  0  0  0  0
  1  2  1  0  0  0  0
  2 18  2  0  0  0  0
  3  6  2  0  0  0  0
  4 16  1  6  0  0  0
  4  1  1  0  0  0  0
  5 12  1  0  0  0  0
  5  8  2  0  0  0  0
  7  4  1  0  0  0  0
  7 14  2  0  0  0  0
  8  7  1  0  0  0  0
  9 10  1  6  0  0  0
 11  2  1  0  0  0  0
 11 17  1  0  0  0  0
 12 16  2  0  0  0  0
 13  3  1  0  0  0  0
 14 13  1  0  0  0  0
 15  9  1  0  0  0  0
 17 15  1  0  0  0  0
 18  6  1  0  0  0  0
 18  9  1  0  0  0  0
 19 17  1  0  0  0  0
 20 19  2  0  0  0  0
 21 20  2  0  0  0  0
 22 21  1  0  0  0  0
 23 21  1  0  0  0  0
 23 25  1  0  0  0  0
 24 23  2  0  0  0  0
M  END
>  <MODEL>
5

>  <REMARK>
 VINA RESULT:      -8.3      3.375      5.825
  Name = 
  2 active torsions:
  status: ('A' for Active; 'I' for Inactive)
    1  A    between atoms: C_2  and  C_21
    2  A    between atoms: C_6  and  N_23
                            x       y       z     vdW  Elec       q    Type
                         _______ _______ _______ _____ _____    ______ ____

>  <TORSDO>
F 2

$$$$
=
 OpenBabel11052422173D

 25 28  0  0  1  0  0  0  0  0999 V2000
  161.2030  204.5750  148.6310 C   0  0  0  0  0  0  0  0  0  0  0  0
  161.3250  205.9310  148.9340 C   0  0  0  0  0  0  0  0  0  0  0  0
  162.1860  204.9060  146.4660 C   0  0  0  0  0  3  0  0  0  0  0  0
  160.5670  203.4640  149.3880 C   0  0  1  0  0  3  0  0  0  0  0  0
  161.0490  200.7490  150.2200 C   0  0  0  0  0  3  0  0  0  0  0  0
  162.3260  206.2320  146.7590 N   0  0  0  0  0  0  0  0  0  0  0  0
  160.8300  202.3310  148.4290 C   0  0  0  0  0  0  0  0  0  0  0  0
  160.8150  200.9490  148.9150 C   0  0  0  0  0  3  0  0  0  0  0  0
  162.1470  208.2270  148.2100 C   0  0  2  0  0  3  0  0  0  0  0  0
  163.4710  208.4200  148.6060 O   0  0  0  0  0  1  0  0  0  0  0  0
  160.7850  206.4780  150.2260 C   0  0  0  0  0  2  0  0  0  0  0  0
  161.3630  201.8900  151.1220 C   0  0  0  0  0  3  0  0  0  0  0  0
  161.6010  204.0800  147.4180 C   0  0  0  0  0  0  0  0  0  0  0  0
  161.4030  202.6780  147.3190 N   0  0  0  0  0  0  0  0  0  0  0  0
  161.2060  208.7730  149.2810 C   0  0  0  0  0  2  0  0  0  0  0  0
  161.2030  203.1620  150.7210 C   0  0  0  0  0  3  0  0  0  0  0  0
  161.1880  207.8720  150.4250 N   0  0  0  0  0  0  0  0  0  0  0  0
  161.9060  206.7680  147.9480 C   0  0  0  0  0  0  0  0  0  0  0  0
  161.3850  208.4200  151.7320 C   0  0  0  0  0  3  0  0  0  0  0  0
  161.2430  207.6990  152.8140 C   0  0  0  0  0  0  0  0  0  0  0  0
  161.1010  206.9740  153.8900 C   0  0  0  0  0  0  0  0  0  0  0  0
  160.9900  205.5940  153.7690 O   0  0  0  0  0  1  0  0  0  0  0  0
  161.0590  207.6000  155.2180 C   0  0  0  0  0  0  0  0  0  0  0  0
  160.4460  206.9540  156.2860 O   0  0  0  0  0  1  0  0  0  0  0  0
  161.5810  208.7310  155.3960 O   0  0  0  0  0  0  0  0  0  0  0  0
  1  2  1  0  0  0  0
  1  4  1  0  0  0  0
  2 11  1  0  0  0  0
  3  6  2  0  0  0  0
  3 13  1  0  0  0  0
  4 16  1  1  0  0  0
  5 12  1  0  0  0  0
  6 18  1  0  0  0  0
  7  8  1  0  0  0  0
  7  4  1  0  0  0  0
  8  5  2  0  0  0  0
  9 10  1  1  0  0  0
  9 15  1  0  0  0  0
 11 17  1  0  0  0  0
 13  1  2  0  0  0  0
 14 13  1  0  0  0  0
 14  7  2  0  0  0  0
 15 17  1  0  0  0  0
 16 12  2  0  0  0  0
 17 19  1  0  0  0  0
 18  9  1  0  0  0  0
 18  2  2  0  0  0  0
 19 20  2  0  0  0  0
 20 21  2  0  0  0  0
 21 23  1  0  0  0  0
 22 21  1  0  0  0  0
 23 25  2  0  0  0  0
 23 24  1  0  0  0  0
M  END
>  <MODEL>
6

>  <REMARK>
 VINA RESULT:      -8.1      1.451      1.798
  Name = 
  2 active torsions:
  status: ('A' for Active; 'I' for Inactive)
    1  A    between atoms: C_2  and  C_21
    2  A    between atoms: C_6  and  N_23
                            x       y       z     vdW  Elec       q    Type
                         _______ _______ _______ _____ _____    ______ ____

>  <TORSDO>
F 2

$$$$
=
 OpenBabel11052422173D

 25 28  0  0  1  0  0  0  0  0999 V2000
  161.1230  206.0990  149.9530 C   0  0  0  0  0  0  0  0  0  0  0  0
  161.1540  207.3320  150.6050 C   0  0  0  0  0  0  0  0  0  0  0  0
  162.2160  207.0220  148.0250 C   0  0  0  0  0  3  0  0  0  0  0  0
  160.5030  204.8070  150.3480 C   0  0  1  0  0  3  0  0  0  0  0  0
  161.0780  201.9880  150.4800 C   0  0  0  0  0  3  0  0  0  0  0  0
  162.2670  208.2290  148.6610 N   0  0  0  0  0  0  0  0  0  0  0  0
  160.8830  203.9750  149.1490 C   0  0  0  0  0  0  0  0  0  0  0  0
  160.9130  202.5140  149.2580 C   0  0  0  0  0  3  0  0  0  0  0  0
  161.8940  209.7660  150.5630 C   0  0  2  0  0  3  0  0  0  0  0  0
  163.1790  209.8950  151.0900 O   0  0  0  0  0  1  0  0  0  0  0  0
  160.5080  207.5010  151.9520 C   0  0  0  0  0  2  0  0  0  0  0  0
  161.2760  202.8620  151.6670 C   0  0  0  0  0  3  0  0  0  0  0  0
  161.6200  205.9540  148.6850 C   0  0  0  0  0  0  0  0  0  0  0  0
  161.5030  204.6220  148.2120 N   0  0  0  0  0  0  0  0  0  0  0  0
  160.8620  209.9770  151.6680 C   0  0  0  0  0  2  0  0  0  0  0  0
  161.0720  204.1880  151.5990 C   0  0  0  0  0  3  0  0  0  0  0  0
  160.8230  208.8070  152.5350 N   0  0  0  0  0  0  0  0  0  0  0  0
  161.7480  208.4190  149.9150 C   0  0  0  0  0  0  0  0  0  0  0  0
  160.9110  209.0000  153.9490 C   0  0  0  0  0  3  0  0  0  0  0  0
  160.1170  209.8210  154.5870 C   0  0  0  0  0  0  0  0  0  0  0  0
  159.3210  210.6390  155.2180 C   0  0  0  0  0  0  0  0  0  0  0  0
  158.2140  211.1560  154.5540 O   0  0  0  0  0  1  0  0  0  0  0  0
  159.5810  211.0160  156.6140 C   0  0  0  0  0  0  0  0  0  0  0  0
  158.7750  211.9480  157.2580 O   0  0  0  0  0  1  0  0  0  0  0  0
  160.5420  210.4930  157.2360 O   0  0  0  0  0  0  0  0  0  0  0  0
  1  4  1  0  0  0  0
  1  2  1  0  0  0  0
  2 11  1  0  0  0  0
  3  6  2  0  0  0  0
  3 13  1  0  0  0  0
  4 16  1  1  0  0  0
  5 12  1  0  0  0  0
  6 18  1  0  0  0  0
  7  8  1  0  0  0  0
  7  4  1  0  0  0  0
  8  5  2  0  0  0  0
  9 10  1  1  0  0  0
  9 15  1  0  0  0  0
 11 17  1  0  0  0  0
 13  1  2  0  0  0  0
 14 13  1  0  0  0  0
 14  7  2  0  0  0  0
 15 17  1  0  0  0  0
 16 12  2  0  0  0  0
 17 19  1  0  0  0  0
 18  9  1  0  0  0  0
 18  2  2  0  0  0  0
 19 20  2  0  0  0  0
 20 21  2  0  0  0  0
 21 23  1  0  0  0  0
 22 21  1  0  0  0  0
 23 25  2  0  0  0  0
 23 24  1  0  0  0  0
M  END
>  <MODEL>
7

>  <REMARK>
 VINA RESULT:      -8.0      1.964      2.619
  Name = 
  2 active torsions:
  status: ('A' for Active; 'I' for Inactive)
    1  A    between atoms: C_2  and  C_21
    2  A    between atoms: C_6  and  N_23
                            x       y       z     vdW  Elec       q    Type
                         _______ _______ _______ _____ _____    ______ ____

>  <TORSDO>
F 2

$$$$
=
 OpenBabel11052422173D

 25 28  0  0  1  0  0  0  0  0999 V2000
  161.5580  205.0460  148.9390 C   0  0  0  0  0  0  0  0  0  0  0  0
  161.6480  205.8680  150.0630 C   0  0  0  0  0  0  0  0  0  0  0  0
  160.9590  203.1560  150.2920 C   0  0  0  0  0  3  0  0  0  0  0  0
  161.8680  205.3170  147.5100 C   0  0  1  0  0  3  0  0  0  0  0  0
  160.7830  204.9470  144.8680 C   0  0  0  0  0  3  0  0  0  0  0  0
  161.0280  203.9560  151.3970 N   0  0  0  0  0  0  0  0  0  0  0  0
  161.5340  203.9680  146.9260 C   0  0  0  0  0  0  0  0  0  0  0  0
  161.2270  203.8510  145.4980 C   0  0  0  0  0  3  0  0  0  0  0  0
  161.3720  206.0990  152.5810 C   0  0  2  0  0  3  0  0  0  0  0  0
  160.0640  206.4710  152.8970 O   0  0  0  0  0  1  0  0  0  0  0  0
  162.0980  207.2960  149.9320 C   0  0  0  0  0  2  0  0  0  0  0  0
  160.5640  206.2180  145.6100 C   0  0  0  0  0  3  0  0  0  0  0  0
  161.2450  203.7180  149.0540 C   0  0  0  0  0  0  0  0  0  0  0  0
  161.1930  203.0680  147.7940 N   0  0  0  0  0  0  0  0  0  0  0  0
  162.2410  207.3470  152.4440 C   0  0  0  0  0  2  0  0  0  0  0  0
  161.0100  206.3780  146.8670 C   0  0  0  0  0  3  0  0  0  0  0  0
  161.9360  208.0240  151.1920 N   0  0  0  0  0  0  0  0  0  0  0  0
  161.3720  205.2790  151.3230 C   0  0  0  0  0  0  0  0  0  0  0  0
  161.6660  209.4290  151.2220 C   0  0  0  0  0  3  0  0  0  0  0  0
  160.9810  209.9820  152.1900 C   0  0  0  0  0  0  0  0  0  0  0  0
  160.3000  210.5280  153.1590 C   0  0  0  0  0  0  0  0  0  0  0  0
  160.0310  209.7850  154.3020 O   0  0  0  0  0  1  0  0  0  0  0  0
  159.8180  211.9120  153.0530 C   0  0  0  0  0  0  0  0  0  0  0  0
  159.2700  212.3820  151.8650 O   0  0  0  0  0  0  0  0  0  0  0  0
  159.9010  212.6830  154.0440 O   0  0  0  0  0  1  0  0  0  0  0  0
  1 13  2  0  0  0  0
  1  2  1  0  0  0  0
  2 18  2  0  0  0  0
  3  6  2  0  0  0  0
  4 16  1  6  0  0  0
  4  1  1  0  0  0  0
  5  8  2  0  0  0  0
  5 12  1  0  0  0  0
  7  4  1  0  0  0  0
  7 14  2  0  0  0  0
  8  7  1  0  0  0  0
  9 10  1  6  0  0  0
 11  2  1  0  0  0  0
 11 17  1  0  0  0  0
 12 16  2  0  0  0  0
 13  3  1  0  0  0  0
 14 13  1  0  0  0  0
 15  9  1  0  0  0  0
 17 19  1  0  0  0  0
 17 15  1  0  0  0  0
 18  6  1  0  0  0  0
 18  9  1  0  0  0  0
 19 20  2  0  0  0  0
 20 21  2  0  0  0  0
 21 22  1  0  0  0  0
 23 21  1  0  0  0  0
 23 25  1  0  0  0  0
 24 23  2  0  0  0  0
M  END
>  <MODEL>
8

>  <REMARK>
 VINA RESULT:      -7.9      2.301      3.845
  Name = 
  2 active torsions:
  status: ('A' for Active; 'I' for Inactive)
    1  A    between atoms: C_2  and  C_21
    2  A    between atoms: C_6  and  N_23
                            x       y       z     vdW  Elec       q    Type
                         _______ _______ _______ _____ _____    ______ ____

>  <TORSDO>
F 2

$$$$
=
 OpenBabel11052422173D

 25 28  0  0  1  0  0  0  0  0999 V2000
  161.6490  205.8020  148.6530 C   0  0  0  0  0  0  0  0  0  0  0  0
  161.7840  206.9680  149.4060 C   0  0  0  0  0  0  0  0  0  0  0  0
  160.9910  204.5510  150.5930 C   0  0  0  0  0  3  0  0  0  0  0  0
  161.9530  205.5280  147.2240 C   0  0  1  0  0  3  0  0  0  0  0  0
  160.8240  204.2780  144.8870 C   0  0  0  0  0  3  0  0  0  0  0  0
  161.1040  205.6910  151.3370 N   0  0  0  0  0  0  0  0  0  0  0  0
  161.5600  204.0740  147.1620 C   0  0  0  0  0  0  0  0  0  0  0  0
  161.2320  203.4640  145.8720 C   0  0  0  0  0  3  0  0  0  0  0  0
  161.5460  208.1010  151.6720 C   0  0  2  0  0  3  0  0  0  0  0  0
  160.2580  208.6150  151.8280 O   0  0  0  0  0  1  0  0  0  0  0  0
  162.2880  208.2350  148.7720 C   0  0  0  0  0  2  0  0  0  0  0  0
  160.6640  205.7380  145.1220 C   0  0  0  0  0  3  0  0  0  0  0  0
  161.2850  204.6180  149.2370 C   0  0  0  0  0  0  0  0  0  0  0  0
  161.1930  203.5610  148.2950 N   0  0  0  0  0  0  0  0  0  0  0  0
  162.4620  209.1790  151.0980 C   0  0  0  0  0  2  0  0  0  0  0  0
  161.1310  206.3210  146.2390 C   0  0  0  0  0  3  0  0  0  0  0  0
  162.1690  209.3730  149.6850 N   0  0  0  0  0  0  0  0  0  0  0  0
  161.4990  206.8840  150.7930 C   0  0  0  0  0  0  0  0  0  0  0  0
  161.9550  210.7040  149.2060 C   0  0  0  0  0  3  0  0  0  0  0  0
  161.2390  211.5730  149.8720 C   0  0  0  0  0  0  0  0  0  0  0  0
  160.5240  212.4350  150.5420 C   0  0  0  0  0  0  0  0  0  0  0  0
  160.1590  212.1430  151.8510 O   0  0  0  0  0  1  0  0  0  0  0  0
  160.1060  213.7030  149.9290 C   0  0  0  0  0  0  0  0  0  0  0  0
  158.7700  214.0860  149.9370 O   0  0  0  0  0  1  0  0  0  0  0  0
  160.9620  214.4520  149.3900 O   0  0  0  0  0  0  0  0  0  0  0  0
  1 13  2  0  0  0  0
  1  2  1  0  0  0  0
  2 18  2  0  0  0  0
  3  6  2  0  0  0  0
  4 16  1  6  0  0  0
  4  1  1  0  0  0  0
  5 12  1  0  0  0  0
  5  8  2  0  0  0  0
  7  4  1  0  0  0  0
  7 14  2  0  0  0  0
  8  7  1  0  0  0  0
  9 10  1  6  0  0  0
 11  2  1  0  0  0  0
 11 17  1  0  0  0  0
 12 16  2  0  0  0  0
 13  3  1  0  0  0  0
 14 13  1  0  0  0  0
 15  9  1  0  0  0  0
 17 15  1  0  0  0  0
 18  6  1  0  0  0  0
 18  9  1  0  0  0  0
 19 17  1  0  0  0  0
 19 20  2  0  0  0  0
 20 21  2  0  0  0  0
 21 22  1  0  0  0  0
 23 24  1  0  0  0  0
 23 21  1  0  0  0  0
 25 23  2  0  0  0  0
M  END
>  <MODEL>
9

>  <REMARK>
 VINA RESULT:      -7.8      3.112      4.953
  Name = 
  2 active torsions:
  status: ('A' for Active; 'I' for Inactive)
    1  A    between atoms: C_2  and  C_21
    2  A    between atoms: C_6  and  N_23
                            x       y       z     vdW  Elec       q    Type
                         _______ _______ _______ _____ _____    ______ ____

>  <TORSDO>
F 2

$$$$
