=
 OpenBabel11052423023D

 28 31  0  0  1  0  0  0  0  0999 V2000
  162.2530  211.1930  155.8800 O   0  0  0  0  0  1  0  0  0  0  0  0
  159.3500  211.1330  154.8520 C   0  0  2  0  0  3  0  0  0  0  0  0
  160.0830  212.7300  156.5110 O   0  0  0  0  0  1  0  0  0  0  0  0
  161.0390  209.1310  156.0990 C   0  0  0  0  0  0  0  0  0  0  0  0
  159.0450  209.6500  154.6320 C   0  0  0  0  0  2  0  0  0  0  0  0
  160.6030  208.2480  157.2470 C   0  0  0  0  0  2  0  0  0  0  0  0
  161.1750  210.5910  156.5330 C   0  0  2  0  0  3  0  0  0  0  0  0
  162.0140  208.1390  156.6970 C   0  0  0  0  0  2  0  0  0  0  0  0
  159.8770  211.3680  156.2760 C   0  0  2  0  0  3  0  0  0  0  0  0
  160.2970  208.7730  154.7950 C   0  0  1  0  0  3  0  0  0  0  0  0
  161.1680  208.6800  153.5080 C   0  0  1  0  0  0  0  0  0  0  0  0
  161.7590  207.2600  153.3250 C   0  0  2  0  0  3  0  0  0  0  0  0
  162.0370  207.8410  150.9480 C   0  0  0  0  0  0  0  0  0  0  0  0
  161.0350  208.8070  151.0570 O   0  0  0  0  0  0  0  0  0  0  0  0
  160.3050  208.9850  152.2710 C   0  0  0  0  0  2  0  0  0  0  0  0
  162.5950  207.6350  149.8400 O   0  0  0  0  0  0  0  0  0  0  0  0
  162.3090  209.6910  153.5630 C   0  0  0  0  0  1  0  0  0  0  0  0
  162.4640  207.1540  152.0850 O   0  0  0  0  0  0  0  0  0  0  0  0
  160.6860  206.1730  153.3920 C   0  0  0  0  0  2  0  0  0  0  0  0
  161.1820  204.9040  152.7290 C   0  0  0  0  0  1  0  0  0  0  0  0
  157.0000  211.8740  155.3840 C   0  0  0  0  0  3  0  0  0  0  0  0
  158.1020  212.8230  153.4400 C   0  0  0  0  0  0  0  0  0  0  0  0
  155.8410  213.4890  154.0070 C   0  0  0  0  0  0  0  0  0  0  0  0
  158.1290  211.9610  154.5550 C   0  0  0  0  0  0  0  0  0  0  0  0
  156.9590  213.5820  153.1740 C   0  0  0  0  0  3  0  0  0  0  0  0
  159.2730  212.9500  152.5250 C   0  0  0  0  0  1  0  0  0  0  0  0
  154.4150  214.4440  153.6650 Cl  0  0  0  0  0  0  0  0  0  0  0  0
  155.8610  212.6350  155.1110 C   0  0  0  0  0  3  0  0  0  0  0  0
  2 24  1  1  0  0  0
  2  9  1  0  0  0  0
  4  7  1  0  0  0  0
  4  8  1  0  0  0  0
  4  6  1  0  0  0  0
  5  2  1  0  0  0  0
  7  1  1  6  0  0  0
  8  6  1  0  0  0  0
  9  3  1  6  0  0  0
  9  7  1  0  0  0  0
 10  5  1  6  0  0  0
 10  4  1  0  0  0  0
 11 17  1  1  0  0  0
 11 10  1  0  0  0  0
 12 19  1  6  0  0  0
 12 11  1  0  0  0  0
 13 14  1  0  0  0  0
 13 18  1  0  0  0  0
 14 15  1  0  0  0  0
 15 11  1  0  0  0  0
 16 13  2  0  0  0  0
 18 12  1  0  0  0  0
 20 19  1  0  0  0  0
 22 24  1  0  0  0  0
 23 28  2  0  0  0  0
 24 21  2  0  0  0  0
 25 22  2  0  0  0  0
 25 23  1  0  0  0  0
 26 22  1  0  0  0  0
 27 23  1  0  0  0  0
 28 21  1  0  0  0  0
M  END
>  <MODEL>
1

>  <REMARK>
 VINA RESULT:      -5.0      0.000      0.000
  Name = 
  3 active torsions:
  status: ('A' for Active; 'I' for Inactive)
    1  A    between atoms: C_1  and  C_27
    2  A    between atoms: C_2  and  C_3
    3  A    between atoms: C_10  and  C_13
                            x       y       z     vdW  Elec       q    Type
                         _______ _______ _______ _____ _____    ______ ____

>  <TORSDO>
F 3

$$$$
=
 OpenBabel11052423023D

 28 31  0  0  1  0  0  0  0  0999 V2000
  159.6970  207.3450  155.8150 O   0  0  0  0  0  1  0  0  0  0  0  0
  160.7940  208.3130  153.1040 C   0  0  2  0  0  3  0  0  0  0  0  0
  161.1640  206.0610  153.8990 O   0  0  0  0  0  1  0  0  0  0  0  0
  161.1260  209.2770  155.8210 C   0  0  0  0  0  0  0  0  0  0  0  0
  161.1840  209.7740  153.3400 C   0  0  0  0  0  2  0  0  0  0  0  0
  162.4600  209.6360  156.4370 C   0  0  0  0  0  2  0  0  0  0  0  0
  161.0060  207.7720  155.5770 C   0  0  2  0  0  3  0  0  0  0  0  0
  161.1890  209.7410  157.2610 C   0  0  0  0  0  2  0  0  0  0  0  0
  161.4510  207.4050  154.1550 C   0  0  2  0  0  3  0  0  0  0  0  0
  160.7240  210.2790  154.7180 C   0  0  1  0  0  3  0  0  0  0  0  0
  159.2490  210.7750  154.7420 C   0  0  1  0  0  0  0  0  0  0  0  0
  159.0220  211.8250  155.8580 C   0  0  2  0  0  3  0  0  0  0  0  0
  157.0410  212.5400  154.5810 C   0  0  0  0  0  0  0  0  0  0  0  0
  157.5920  212.0130  153.4110 O   0  0  0  0  0  0  0  0  0  0  0  0
  158.9030  211.4450  153.3990 C   0  0  0  0  0  2  0  0  0  0  0  0
  155.9290  213.1250  154.5440 O   0  0  0  0  0  0  0  0  0  0  0  0
  158.2950  209.6040  154.9580 C   0  0  0  0  0  1  0  0  0  0  0  0
  157.6960  212.3570  155.8000 O   0  0  0  0  0  0  0  0  0  0  0  0
  160.0310  212.9710  155.7890 C   0  0  0  0  0  2  0  0  0  0  0  0
  160.3960  213.4340  157.1850 C   0  0  0  0  0  1  0  0  0  0  0  0
  160.7880  206.6340  151.2240 C   0  0  0  0  0  3  0  0  0  0  0  0
  161.8510  208.7860  150.8540 C   0  0  0  0  0  0  0  0  0  0  0  0
  161.8120  207.1240  149.0880 C   0  0  0  0  0  0  0  0  0  0  0  0
  161.1480  207.9050  151.7000 C   0  0  0  0  0  0  0  0  0  0  0  0
  162.1780  208.3900  149.5530 C   0  0  0  0  0  3  0  0  0  0  0  0
  162.2610  210.1450  151.3110 C   0  0  0  0  0  1  0  0  0  0  0  0
  162.2260  206.6390  147.4580 Cl  0  0  0  0  0  0  0  0  0  0  0  0
  161.1180  206.2460  149.9230 C   0  0  0  0  0  3  0  0  0  0  0  0
  2 24  1  6  0  0  0
  2  5  1  0  0  0  0
  2  9  1  0  0  0  0
  4  6  1  0  0  0  0
  4  8  1  0  0  0  0
  6  8  1  0  0  0  0
  7  1  1  6  0  0  0
  7  4  1  0  0  0  0
  9  3  1  6  0  0  0
  9  7  1  0  0  0  0
 10  5  1  6  0  0  0
 10 11  1  0  0  0  0
 10  4  1  0  0  0  0
 11 17  1  1  0  0  0
 11 12  1  0  0  0  0
 12 19  1  6  0  0  0
 13 18  1  0  0  0  0
 14 13  1  0  0  0  0
 15 14  1  0  0  0  0
 15 11  1  0  0  0  0
 16 13  2  0  0  0  0
 18 12  1  0  0  0  0
 19 20  1  0  0  0  0
 21 24  1  0  0  0  0
 22 26  1  0  0  0  0
 22 24  2  0  0  0  0
 23 25  2  0  0  0  0
 23 28  1  0  0  0  0
 25 22  1  0  0  0  0
 27 23  1  0  0  0  0
 28 21  2  0  0  0  0
M  END
>  <MODEL>
2

>  <REMARK>
 VINA RESULT:      -4.5      3.148      6.475
  Name = 
  3 active torsions:
  status: ('A' for Active; 'I' for Inactive)
    1  A    between atoms: C_1  and  C_27
    2  A    between atoms: C_2  and  C_3
    3  A    between atoms: C_10  and  C_13
                            x       y       z     vdW  Elec       q    Type
                         _______ _______ _______ _____ _____    ______ ____

>  <TORSDO>
F 3

$$$$
=
 OpenBabel11052423023D

 28 31  0  0  1  0  0  0  0  0999 V2000
  163.4170  205.0140  151.8460 O   0  0  0  0  0  1  0  0  0  0  0  0
  161.2750  207.2280  151.8310 C   0  0  2  0  0  3  0  0  0  0  0  0
  162.5690  206.7190  153.8080 O   0  0  0  0  0  1  0  0  0  0  0  0
  161.1830  204.3940  151.2170 C   0  0  0  0  0  0  0  0  0  0  0  0
  160.1670  206.6920  150.9220 C   0  0  0  0  0  2  0  0  0  0  0  0
  160.1320  203.4440  151.7490 C   0  0  0  0  0  2  0  0  0  0  0  0
  162.1130  204.8820  152.3290 C   0  0  2  0  0  3  0  0  0  0  0  0
  161.2470  202.9240  150.8590 C   0  0  0  0  0  2  0  0  0  0  0  0
  161.6140  206.2050  152.9260 C   0  0  2  0  0  3  0  0  0  0  0  0
  160.5830  205.3960  150.2090 C   0  0  1  0  0  3  0  0  0  0  0  0
  161.3980  205.6320  148.9040 C   0  0  1  0  0  0  0  0  0  0  0  0
  161.8390  204.2940  148.2600 C   0  0  2  0  0  3  0  0  0  0  0  0
  162.0950  205.5580  146.1620 C   0  0  0  0  0  0  0  0  0  0  0  0
  161.1980  206.5230  146.6210 O   0  0  0  0  0  0  0  0  0  0  0  0
  160.5290  206.3770  147.8740 C   0  0  0  0  0  2  0  0  0  0  0  0
  162.5940  205.6580  145.0110 O   0  0  0  0  0  0  0  0  0  0  0  0
  162.6350  206.4770  149.1940 C   0  0  0  0  0  1  0  0  0  0  0  0
  162.4890  204.5180  147.0060 O   0  0  0  0  0  0  0  0  0  0  0  0
  160.6660  203.3340  148.0580 C   0  0  0  0  0  2  0  0  0  0  0  0
  161.0870  202.1670  147.1880 C   0  0  0  0  0  1  0  0  0  0  0  0
  160.1450  208.6220  153.6020 C   0  0  0  0  0  3  0  0  0  0  0  0
  161.2160  209.7570  151.7420 C   0  0  0  0  0  0  0  0  0  0  0  0
  160.1090  211.0370  153.4780 C   0  0  0  0  0  0  0  0  0  0  0  0
  160.8740  208.5600  152.4040 C   0  0  0  0  0  0  0  0  0  0  0  0
  160.8310  210.9870  152.2840 C   0  0  0  0  0  3  0  0  0  0  0  0
  161.9850  209.7470  150.4640 C   0  0  0  0  0  1  0  0  0  0  0  0
  159.6330  212.5820  154.1480 Cl  0  0  0  0  0  0  0  0  0  0  0  0
  159.7650  209.8550  154.1370 C   0  0  0  0  0  3  0  0  0  0  0  0
  2 24  1  1  0  0  0
  2  9  1  0  0  0  0
  4  6  1  0  0  0  0
  4  7  1  0  0  0  0
  5  2  1  0  0  0  0
  7  1  1  6  0  0  0
  7  9  1  0  0  0  0
  8  4  1  0  0  0  0
  8  6  1  0  0  0  0
  9  3  1  1  0  0  0
 10  5  1  1  0  0  0
 10  4  1  0  0  0  0
 11 17  1  1  0  0  0
 11 10  1  0  0  0  0
 12 19  1  6  0  0  0
 12 11  1  0  0  0  0
 13 14  1  0  0  0  0
 13 18  1  0  0  0  0
 14 15  1  0  0  0  0
 15 11  1  0  0  0  0
 16 13  2  0  0  0  0
 18 12  1  0  0  0  0
 20 19  1  0  0  0  0
 21 28  1  0  0  0  0
 22 25  2  0  0  0  0
 22 24  1  0  0  0  0
 23 28  2  0  0  0  0
 23 27  1  0  0  0  0
 24 21  2  0  0  0  0
 25 23  1  0  0  0  0
 26 22  1  0  0  0  0
M  END
>  <MODEL>
3

>  <REMARK>
 VINA RESULT:      -4.2      3.236      5.810
  Name = 
  3 active torsions:
  status: ('A' for Active; 'I' for Inactive)
    1  A    between atoms: C_1  and  C_27
    2  A    between atoms: C_2  and  C_3
    3  A    between atoms: C_10  and  C_13
                            x       y       z     vdW  Elec       q    Type
                         _______ _______ _______ _____ _____    ______ ____

>  <TORSDO>
F 3

$$$$
=
 OpenBabel11052423023D

 28 31  0  0  1  0  0  0  0  0999 V2000
  159.4920  209.3730  156.1860 O   0  0  0  0  0  1  0  0  0  0  0  0
  160.8160  208.2130  153.6580 C   0  0  2  0  0  3  0  0  0  0  0  0
  160.3180  206.8380  155.5820 O   0  0  0  0  0  1  0  0  0  0  0  0
  161.5480  210.3750  155.4490 C   0  0  0  0  0  0  0  0  0  0  0  0
  161.7370  209.3270  153.1550 C   0  0  0  0  0  2  0  0  0  0  0  0
  162.9320  210.5620  156.0330 C   0  0  0  0  0  2  0  0  0  0  0  0
  160.8600  209.1360  156.0240 C   0  0  2  0  0  3  0  0  0  0  0  0
  161.8130  211.5220  156.4020 C   0  0  0  0  0  2  0  0  0  0  0  0
  161.1000  207.9080  155.1370 C   0  0  2  0  0  3  0  0  0  0  0  0
  161.5330  210.6390  153.9300 C   0  0  1  0  0  3  0  0  0  0  0  0
  160.3590  211.5070  153.3920 C   0  0  1  0  0  0  0  0  0  0  0  0
  160.7730  212.3030  152.1290 C   0  0  2  0  0  3  0  0  0  0  0  0
  158.3680  212.4780  151.6290 C   0  0  0  0  0  0  0  0  0  0  0  0
  158.1140  211.3430  152.4010 O   0  0  0  0  0  0  0  0  0  0  0  0
  159.1770  210.6010  153.0000 C   0  0  0  0  0  2  0  0  0  0  0  0
  157.4260  213.0550  151.0280 O   0  0  0  0  0  0  0  0  0  0  0  0
  159.8840  212.4840  154.4630 C   0  0  0  0  0  1  0  0  0  0  0  0
  159.6580  213.0090  151.5790 O   0  0  0  0  0  0  0  0  0  0  0  0
  161.3850  211.4050  151.0540 C   0  0  0  0  0  2  0  0  0  0  0  0
  161.4520  212.1420  149.7310 C   0  0  0  0  0  1  0  0  0  0  0  0
  160.9680  205.7140  153.3660 C   0  0  0  0  0  3  0  0  0  0  0  0
  161.0920  207.1210  151.3920 C   0  0  0  0  0  0  0  0  0  0  0  0
  161.2340  204.7100  151.1820 C   0  0  0  0  0  0  0  0  0  0  0  0
  160.9580  206.9930  152.7890 C   0  0  0  0  0  0  0  0  0  0  0  0
  161.2280  205.9780  150.5980 C   0  0  0  0  0  3  0  0  0  0  0  0
  161.0920  208.4570  150.7280 C   0  0  0  0  0  1  0  0  0  0  0  0
  161.4040  203.2860  150.1790 Cl  0  0  0  0  0  0  0  0  0  0  0  0
  161.1040  204.5770  152.5660 C   0  0  0  0  0  3  0  0  0  0  0  0
  2 24  1  6  0  0  0
  2  9  1  0  0  0  0
  4  7  1  0  0  0  0
  4  6  1  0  0  0  0
  4  8  1  0  0  0  0
  5  2  1  0  0  0  0
  6  8  1  0  0  0  0
  7  1  1  6  0  0  0
  9  3  1  1  0  0  0
  9  7  1  0  0  0  0
 10  5  1  6  0  0  0
 10  4  1  0  0  0  0
 11 10  1  0  0  0  0
 11 17  1  1  0  0  0
 12 19  1  6  0  0  0
 12 11  1  0  0  0  0
 13 14  1  0  0  0  0
 14 15  1  0  0  0  0
 15 11  1  0  0  0  0
 16 13  2  0  0  0  0
 18 13  1  0  0  0  0
 18 12  1  0  0  0  0
 20 19  1  0  0  0  0
 22 24  2  0  0  0  0
 23 28  1  0  0  0  0
 24 21  1  0  0  0  0
 25 23  2  0  0  0  0
 25 22  1  0  0  0  0
 26 22  1  0  0  0  0
 27 23  1  0  0  0  0
 28 21  2  0  0  0  0
M  END
>  <MODEL>
4

>  <REMARK>
 VINA RESULT:      -2.8      3.578      6.173
  Name = 
  3 active torsions:
  status: ('A' for Active; 'I' for Inactive)
    1  A    between atoms: C_1  and  C_27
    2  A    between atoms: C_2  and  C_3
    3  A    between atoms: C_10  and  C_13
                            x       y       z     vdW  Elec       q    Type
                         _______ _______ _______ _____ _____    ______ ____

>  <TORSDO>
F 3

$$$$
=
 OpenBabel11052423023D

 28 31  0  0  1  0  0  0  0  0999 V2000
  163.5750  205.2840  151.9140 O   0  0  0  0  0  1  0  0  0  0  0  0
  161.3200  207.3810  152.0050 C   0  0  2  0  0  3  0  0  0  0  0  0
  162.7530  206.9650  153.9070 O   0  0  0  0  0  1  0  0  0  0  0  0
  161.3440  204.5390  151.4230 C   0  0  0  0  0  0  0  0  0  0  0  0
  160.1910  206.7760  151.1680 C   0  0  0  0  0  2  0  0  0  0  0  0
  160.3780  203.5410  152.0250 C   0  0  0  0  0  2  0  0  0  0  0  0
  162.3100  205.0890  152.4730 C   0  0  2  0  0  3  0  0  0  0  0  0
  161.4660  203.0700  151.0750 C   0  0  0  0  0  2  0  0  0  0  0  0
  161.7770  206.3900  153.0870 C   0  0  2  0  0  3  0  0  0  0  0  0
  160.6330  205.4950  150.4430 C   0  0  1  0  0  3  0  0  0  0  0  0
  161.3570  205.7580  149.0900 C   0  0  1  0  0  0  0  0  0  0  0  0
  161.8260  204.4380  148.4310 C   0  0  2  0  0  3  0  0  0  0  0  0
  161.8940  205.6910  146.3120 C   0  0  0  0  0  0  0  0  0  0  0  0
  160.9780  206.6150  146.8170 O   0  0  0  0  0  0  0  0  0  0  0  0
  160.3920  206.4490  148.1090 C   0  0  0  0  0  2  0  0  0  0  0  0
  162.3180  205.8040  145.1330 O   0  0  0  0  0  0  0  0  0  0  0  0
  162.5650  206.6670  149.3000 C   0  0  0  0  0  1  0  0  0  0  0  0
  162.3890  204.6810  147.1390 O   0  0  0  0  0  0  0  0  0  0  0  0
  160.6940  203.4180  148.3060 C   0  0  0  0  0  2  0  0  0  0  0  0
  161.1430  202.2340  147.4750 C   0  0  0  0  0  1  0  0  0  0  0  0
  161.0610  209.8840  151.8610 C   0  0  0  0  0  3  0  0  0  0  0  0
  160.3000  208.7540  153.8710 C   0  0  0  0  0  0  0  0  0  0  0  0
  160.0830  211.1600  153.6680 C   0  0  0  0  0  0  0  0  0  0  0  0
  160.8820  208.6970  152.5880 C   0  0  0  0  0  0  0  0  0  0  0  0
  159.9040  209.9850  154.4010 C   0  0  0  0  0  3  0  0  0  0  0  0
  160.0930  207.5230  154.6870 C   0  0  0  0  0  1  0  0  0  0  0  0
  159.5820  212.6960  154.3410 Cl  0  0  0  0  0  0  0  0  0  0  0  0
  160.6610  211.1100  152.3980 C   0  0  0  0  0  3  0  0  0  0  0  0
  2 24  1  1  0  0  0
  2  9  1  0  0  0  0
  4  6  1  0  0  0  0
  4  7  1  0  0  0  0
  5  2  1  0  0  0  0
  7  1  1  6  0  0  0
  7  9  1  0  0  0  0
  8  4  1  0  0  0  0
  8  6  1  0  0  0  0
  9  3  1  6  0  0  0
 10  5  1  1  0  0  0
 10  4  1  0  0  0  0
 11 17  1  1  0  0  0
 11 10  1  0  0  0  0
 12 19  1  6  0  0  0
 12 11  1  0  0  0  0
 13 14  1  0  0  0  0
 13 18  1  0  0  0  0
 14 15  1  0  0  0  0
 15 11  1  0  0  0  0
 16 13  2  0  0  0  0
 18 12  1  0  0  0  0
 20 19  1  0  0  0  0
 21 28  2  0  0  0  0
 21 24  1  0  0  0  0
 22 25  1  0  0  0  0
 22 26  1  0  0  0  0
 23 27  1  0  0  0  0
 23 25  2  0  0  0  0
 24 22  2  0  0  0  0
 28 23  1  0  0  0  0
M  END
>  <MODEL>
5

>  <REMARK>
 VINA RESULT:      -2.6      3.084      5.729
  Name = 
  3 active torsions:
  status: ('A' for Active; 'I' for Inactive)
    1  A    between atoms: C_1  and  C_27
    2  A    between atoms: C_2  and  C_3
    3  A    between atoms: C_10  and  C_13
                            x       y       z     vdW  Elec       q    Type
                         _______ _______ _______ _____ _____    ______ ____

>  <TORSDO>
F 3

$$$$
=
 OpenBabel11052423023D

 28 31  0  0  1  0  0  0  0  0999 V2000
  164.1700  206.9970  148.6840 O   0  0  0  0  0  1  0  0  0  0  0  0
  161.8060  205.0940  148.1560 C   0  0  2  0  0  3  0  0  0  0  0  0
  163.5750  205.4090  146.5400 O   0  0  0  0  0  1  0  0  0  0  0  0
  161.9540  207.9190  148.8020 C   0  0  0  0  0  0  0  0  0  0  0  0
  160.6000  205.7810  148.8010 C   0  0  0  0  0  2  0  0  0  0  0  0
  161.1900  208.9990  148.0670 C   0  0  0  0  0  2  0  0  0  0  0  0
  163.0410  207.3010  147.9200 C   0  0  2  0  0  3  0  0  0  0  0  0
  162.1300  209.3690  149.2010 C   0  0  0  0  0  2  0  0  0  0  0  0
  162.5200  206.0540  147.1930 C   0  0  2  0  0  3  0  0  0  0  0  0
  161.0100  207.0150  149.6220 C   0  0  1  0  0  3  0  0  0  0  0  0
  161.4650  206.6790  151.0720 C   0  0  1  0  0  0  0  0  0  0  0  0
  161.5580  207.9540  151.9470 C   0  0  2  0  0  3  0  0  0  0  0  0
  161.3830  206.4540  153.8930 C   0  0  0  0  0  0  0  0  0  0  0  0
  160.7620  205.4850  153.1030 O   0  0  0  0  0  0  0  0  0  0  0  0
  160.4440  205.7370  151.7340 C   0  0  0  0  0  2  0  0  0  0  0  0
  161.5610  206.2460  155.1200 O   0  0  0  0  0  0  0  0  0  0  0  0
  162.8240  205.9860  151.0580 C   0  0  0  0  0  1  0  0  0  0  0  0
  161.8660  207.6240  153.3040 O   0  0  0  0  0  0  0  0  0  0  0  0
  160.2710  208.7790  151.9070 C   0  0  0  0  0  2  0  0  0  0  0  0
  160.4540  210.0740  152.6720 C   0  0  0  0  0  1  0  0  0  0  0  0
  161.2620  203.7780  146.0760 C   0  0  0  0  0  3  0  0  0  0  0  0
  161.0650  202.6750  148.2310 C   0  0  0  0  0  0  0  0  0  0  0  0
  160.5540  201.4680  146.1910 C   0  0  0  0  0  0  0  0  0  0  0  0
  161.3730  203.8240  147.4750 C   0  0  0  0  0  0  0  0  0  0  0  0
  160.6580  201.5050  147.5830 C   0  0  0  0  0  3  0  0  0  0  0  0
  161.1610  202.6730  149.7190 C   0  0  0  0  0  1  0  0  0  0  0  0
  160.0450  199.9970  145.3910 Cl  0  0  0  0  0  0  0  0  0  0  0  0
  160.8560  202.6040  145.4370 C   0  0  0  0  0  3  0  0  0  0  0  0
  2 24  1  6  0  0  0
  2  5  1  0  0  0  0
  4  8  1  0  0  0  0
  4 10  1  0  0  0  0
  6  4  1  0  0  0  0
  6  8  1  0  0  0  0
  7  1  1  1  0  0  0
  7  4  1  0  0  0  0
  9  3  1  1  0  0  0
  9  7  1  0  0  0  0
  9  2  1  0  0  0  0
 10  5  1  6  0  0  0
 10 11  1  0  0  0  0
 11 17  1  6  0  0  0
 11 15  1  0  0  0  0
 11 12  1  0  0  0  0
 12 19  1  1  0  0  0
 12 18  1  0  0  0  0
 13 16  2  0  0  0  0
 14 13  1  0  0  0  0
 15 14  1  0  0  0  0
 18 13  1  0  0  0  0
 19 20  1  0  0  0  0
 21 24  1  0  0  0  0
 22 26  1  0  0  0  0
 23 25  2  0  0  0  0
 24 22  2  0  0  0  0
 25 22  1  0  0  0  0
 27 23  1  0  0  0  0
 28 21  2  0  0  0  0
 28 23  1  0  0  0  0
M  END
>  <MODEL>
6

>  <REMARK>
 VINA RESULT:      -2.4      5.000      9.356
  Name = 
  3 active torsions:
  status: ('A' for Active; 'I' for Inactive)
    1  A    between atoms: C_1  and  C_27
    2  A    between atoms: C_2  and  C_3
    3  A    between atoms: C_10  and  C_13
                            x       y       z     vdW  Elec       q    Type
                         _______ _______ _______ _____ _____    ______ ____

>  <TORSDO>
F 3

$$$$
=
 OpenBabel11052423023D

 28 31  0  0  1  0  0  0  0  0999 V2000
  163.2330  210.8300  150.3350 O   0  0  0  0  0  1  0  0  0  0  0  0
  161.5260  208.2760  150.5670 C   0  0  2  0  0  3  0  0  0  0  0  0
  162.6710  208.8640  148.5210 O   0  0  0  0  0  1  0  0  0  0  0  0
  160.9350  211.0840  150.9900 C   0  0  0  0  0  0  0  0  0  0  0  0
  160.3560  208.6690  151.4710 C   0  0  0  0  0  2  0  0  0  0  0  0
  159.7210  211.7910  150.4280 C   0  0  0  0  0  2  0  0  0  0  0  0
  161.9170  210.6910  149.8860 C   0  0  2  0  0  3  0  0  0  0  0  0
  160.7400  212.5640  151.2460 C   0  0  0  0  0  2  0  0  0  0  0  0
  161.6550  209.2610  149.3950 C   0  0  2  0  0  3  0  0  0  0  0  0
  160.5440  210.0670  152.0820 C   0  0  1  0  0  3  0  0  0  0  0  0
  161.4130  210.0740  153.3740 C   0  0  1  0  0  0  0  0  0  0  0  0
  160.9820  211.2060  154.3400 C   0  0  2  0  0  3  0  0  0  0  0  0
  162.0860  209.9070  156.1180 C   0  0  0  0  0  0  0  0  0  0  0  0
  161.9400  208.7380  155.3690 O   0  0  0  0  0  0  0  0  0  0  0  0
  161.2460  208.7390  154.1210 C   0  0  0  0  0  2  0  0  0  0  0  0
  162.6120  209.8620  157.2600 O   0  0  0  0  0  0  0  0  0  0  0  0
  162.8870  210.2520  153.0240 C   0  0  0  0  0  1  0  0  0  0  0  0
  161.7090  211.1340  155.5700 O   0  0  0  0  0  0  0  0  0  0  0  0
  159.4820  211.1750  154.6360 C   0  0  0  0  0  2  0  0  0  0  0  0
  158.8790  212.5500  154.4320 C   0  0  0  0  0  1  0  0  0  0  0  0
  160.9900  206.5900  148.7700 C   0  0  0  0  0  3  0  0  0  0  0  0
  161.5680  205.7800  150.9850 C   0  0  0  0  0  0  0  0  0  0  0  0
  161.0390  204.2130  149.2120 C   0  0  0  0  0  0  0  0  0  0  0  0
  161.3620  206.8550  150.0980 C   0  0  0  0  0  0  0  0  0  0  0  0
  161.4060  204.4660  150.5360 C   0  0  0  0  0  3  0  0  0  0  0  0
  161.9590  206.0070  152.4070 C   0  0  0  0  0  1  0  0  0  0  0  0
  160.8390  202.5640  148.6610 Cl  0  0  0  0  0  0  0  0  0  0  0  0
  160.8300  205.2740  148.3300 C   0  0  0  0  0  3  0  0  0  0  0  0
  2 24  1  6  0  0  0
  2  5  1  0  0  0  0
  4  8  1  0  0  0  0
  4 10  1  0  0  0  0
  6  4  1  0  0  0  0
  6  8  1  0  0  0  0
  7  1  1  1  0  0  0
  7  4  1  0  0  0  0
  9  3  1  6  0  0  0
  9  7  1  0  0  0  0
  9  2  1  0  0  0  0
 10  5  1  6  0  0  0
 10 11  1  0  0  0  0
 11 17  1  6  0  0  0
 11 15  1  0  0  0  0
 11 12  1  0  0  0  0
 12 19  1  1  0  0  0
 12 18  1  0  0  0  0
 13 16  2  0  0  0  0
 14 13  1  0  0  0  0
 15 14  1  0  0  0  0
 18 13  1  0  0  0  0
 20 19  1  0  0  0  0
 21 24  1  0  0  0  0
 22 26  1  0  0  0  0
 23 25  2  0  0  0  0
 24 22  2  0  0  0  0
 25 22  1  0  0  0  0
 27 23  1  0  0  0  0
 28 21  2  0  0  0  0
 28 23  1  0  0  0  0
M  END
>  <MODEL>
7

>  <REMARK>
 VINA RESULT:      -2.2      3.378      7.354
  Name = 
  3 active torsions:
  status: ('A' for Active; 'I' for Inactive)
    1  A    between atoms: C_1  and  C_27
    2  A    between atoms: C_2  and  C_3
    3  A    between atoms: C_10  and  C_13
                            x       y       z     vdW  Elec       q    Type
                         _______ _______ _______ _____ _____    ______ ____

>  <TORSDO>
F 3

$$$$
=
 OpenBabel11052423023D

 28 31  0  0  1  0  0  0  0  0999 V2000
  160.5510  208.4820  153.7320 O   0  0  0  0  0  1  0  0  0  0  0  0
  160.3450  211.2960  152.4960 C   0  0  2  0  0  3  0  0  0  0  0  0
  161.4570  209.4790  151.3540 O   0  0  0  0  0  1  0  0  0  0  0  0
  161.4280  210.3210  155.0050 C   0  0  0  0  0  0  0  0  0  0  0  0
  160.4690  212.2530  153.6840 C   0  0  0  0  0  2  0  0  0  0  0  0
  162.7840  210.7100  155.5530 C   0  0  0  0  0  2  0  0  0  0  0  0
  161.5560  209.4510  153.7540 C   0  0  2  0  0  3  0  0  0  0  0  0
  161.9100  209.7270  156.3120 C   0  0  0  0  0  2  0  0  0  0  0  0
  161.5200  210.3060  152.4800 C   0  0  2  0  0  3  0  0  0  0  0  0
  160.4450  211.5100  155.0290 C   0  0  1  0  0  3  0  0  0  0  0  0
  159.0110  211.2080  155.5530 C   0  0  1  0  0  0  0  0  0  0  0  0
  158.5840  212.2140  156.6510 C   0  0  2  0  0  3  0  0  0  0  0  0
  156.2630  211.5780  156.1260 C   0  0  0  0  0  0  0  0  0  0  0  0
  156.6550  211.1630  154.8510 O   0  0  0  0  0  0  0  0  0  0  0  0
  157.9990  211.3260  154.3980 C   0  0  0  0  0  2  0  0  0  0  0  0
  155.0540  211.5170  156.4640 O   0  0  0  0  0  0  0  0  0  0  0  0
  158.9360  209.7930  156.1180 C   0  0  0  0  0  1  0  0  0  0  0  0
  157.2260  211.9980  157.0440 O   0  0  0  0  0  0  0  0  0  0  0  0
  158.7570  213.6660  156.2040 C   0  0  0  0  0  2  0  0  0  0  0  0
  159.7320  214.3830  157.1170 C   0  0  0  0  0  1  0  0  0  0  0  0
  161.2580  211.9840  150.2490 C   0  0  0  0  0  3  0  0  0  0  0  0
  159.1330  212.9100  150.9700 C   0  0  0  0  0  0  0  0  0  0  0  0
  160.0690  213.5320  148.8220 C   0  0  0  0  0  0  0  0  0  0  0  0
  160.2410  212.0750  151.2130 C   0  0  0  0  0  0  0  0  0  0  0  0
  159.0540  213.6320  149.7750 C   0  0  0  0  0  3  0  0  0  0  0  0
  158.0280  213.0470  151.9630 C   0  0  0  0  0  1  0  0  0  0  0  0
  159.9600  214.4400  147.3290 Cl  0  0  0  0  0  0  0  0  0  0  0  0
  161.1710  212.7080  149.0580 C   0  0  0  0  0  3  0  0  0  0  0  0
  2 24  1  6  0  0  0
  2  5  1  0  0  0  0
  4 10  1  0  0  0  0
  4  6  1  0  0  0  0
  4  8  1  0  0  0  0
  6  8  1  0  0  0  0
  7  1  1  6  0  0  0
  7  4  1  0  0  0  0
  9  3  1  6  0  0  0
  9  2  1  0  0  0  0
  9  7  1  0  0  0  0
 10  5  1  6  0  0  0
 10 11  1  0  0  0  0
 11 17  1  1  0  0  0
 11 12  1  0  0  0  0
 12 19  1  6  0  0  0
 12 18  1  0  0  0  0
 13 16  2  0  0  0  0
 13 18  1  0  0  0  0
 14 13  1  0  0  0  0
 15 14  1  0  0  0  0
 15 11  1  0  0  0  0
 19 20  1  0  0  0  0
 21 24  1  0  0  0  0
 22 24  2  0  0  0  0
 22 26  1  0  0  0  0
 23 28  1  0  0  0  0
 23 25  2  0  0  0  0
 25 22  1  0  0  0  0
 27 23  1  0  0  0  0
 28 21  2  0  0  0  0
M  END
>  <MODEL>
8

>  <REMARK>
 VINA RESULT:      -2.0      2.863      5.879
  Name = 
  3 active torsions:
  status: ('A' for Active; 'I' for Inactive)
    1  A    between atoms: C_1  and  C_27
    2  A    between atoms: C_2  and  C_3
    3  A    between atoms: C_10  and  C_13
                            x       y       z     vdW  Elec       q    Type
                         _______ _______ _______ _____ _____    ______ ____

>  <TORSDO>
F 3

$$$$
