=
 OpenBabel11062409343D

 34 39  0  0  1  0  0  0  0  0999 V2000
  157.6380  210.6520  155.8010 C   0  0  0  0  0  0  0  0  0  0  0  0
  159.2030  212.9550  156.5410 C   0  0  0  0  0  0  0  0  0  0  0  0
  155.7940  213.6380  156.1300 C   0  0  2  0  0  0  0  0  0  0  0  0
  162.3880  211.8290  156.7790 C   0  0  0  0  0  2  0  0  0  0  0  0
  162.2700  210.3930  156.5050 C   0  0  0  0  0  2  0  0  0  0  0  0
  155.4300  212.1380  156.0210 C   0  0  0  0  0  2  0  0  0  0  0  0
  156.6030  211.2680  155.8450 C   0  0  0  0  0  0  0  0  0  0  0  0
  160.9820  211.2050  156.7470 C   0  0  0  0  0  0  0  0  0  0  0  0
  156.8200  213.9280  157.2590 C   0  0  0  0  0  2  0  0  0  0  0  0
  158.1700  213.4400  156.9320 C   0  0  0  0  0  0  0  0  0  0  0  0
  154.5160  214.3640  156.5020 C   0  0  0  0  0  1  0  0  0  0  0  0
  160.3680  212.3270  155.9110 C   0  0  1  0  0  3  0  0  0  0  0  0
  158.9550  210.0110  155.8810 C   0  0  0  0  0  2  0  0  0  0  0  0
  160.1430  210.9060  155.4440 C   0  0  2  0  0  0  0  0  0  0  0  0
  161.1080  211.8150  153.1740 C   0  0  0  0  0  2  0  0  0  0  0  0
  159.7410  208.2730  153.5730 C   0  0  0  0  0  2  0  0  0  0  0  0
  158.4550  210.4060  152.9460 C   0  0  0  0  0  2  0  0  0  0  0  0
  160.0260  213.7780  152.0600 C   0  0  0  0  0  3  0  0  0  0  0  0
  157.7170  213.7510  151.3320 C   0  0  0  0  0  3  0  0  0  0  0  0
  158.9400  214.4160  151.4560 C   0  0  0  0  0  3  0  0  0  0  0  0
  158.6630  211.7910  152.3990 C   0  0  0  0  0  0  0  0  0  0  0  0
  159.8980  212.4730  152.5460 C   0  0  0  0  0  0  0  0  0  0  0  0
  157.5790  212.4440  151.8060 C   0  0  0  0  0  3  0  0  0  0  0  0
  161.1670  207.7020  153.6210 C   0  0  1  0  0  3  0  0  0  0  0  0
  162.0560  209.7500  154.2400 C   0  0  0  0  0  2  0  0  0  0  0  0
  162.1750  208.6640  153.3410 O   0  0  0  0  0  0  0  0  0  0  0  0
  159.8020  209.7330  153.1590 C   0  0  1  0  0  3  0  0  0  0  0  0
  160.7660  210.5720  154.0240 C   0  0  1  0  0  0  0  0  0  0  0  0
  161.4160  206.9460  154.9260 C   0  0  0  0  0  2  0  0  0  0  0  0
  160.7310  207.3350  157.1830 O   0  0  0  0  0  1  0  0  0  0  0  0
  160.2550  207.1190  155.8890 C   0  0  0  0  0  2  0  0  0  0  0  0
  156.2560  214.1890  154.7970 C   0  0  0  0  0  0  0  0  0  0  0  0
  155.4260  214.3830  153.8680 O   0  0  0  0  0  0  0  0  0  0  0  0
  157.6030  214.4320  154.5590 O   0  0  0  0  0  1  0  0  0  0  0  0
  1  7  3  0  0  0  0
  1 13  1  0  0  0  0
  2 10  3  0  0  0  0
  3 11  1  1  0  0  0
  3  9  1  0  0  0  0
  5  8  1  0  0  0  0
  5  4  1  0  0  0  0
  6  3  1  0  0  0  0
  7  6  1  0  0  0  0
  8  4  1  0  0  0  0
 10  9  1  0  0  0  0
 12  2  1  1  0  0  0
 12  8  1  0  0  0  0
 14 13  1  1  0  0  0
 14 12  1  0  0  0  0
 14  8  1  0  0  0  0
 16 24  1  0  0  0  0
 18 22  1  0  0  0  0
 19 20  1  0  0  0  0
 19 23  2  0  0  0  0
 20 18  2  0  0  0  0
 21 22  2  0  0  0  0
 21 17  1  0  0  0  0
 22 15  1  0  0  0  0
 23 21  1  0  0  0  0
 24 29  1  1  0  0  0
 26 24  1  0  0  0  0
 26 25  1  0  0  0  0
 27 17  1  1  0  0  0
 27 16  1  0  0  0  0
 27 28  1  0  0  0  0
 28 15  1  6  0  0  0
 28 25  1  0  0  0  0
 28 14  1  0  0  0  0
 29 31  1  0  0  0  0
 31 30  1  0  0  0  0
 32  3  1  0  0  0  0
 33 32  2  0  0  0  0
 34 32  1  0  0  0  0
M  END
>  <MODEL>
1

>  <REMARK>
 VINA RESULT:       0.1      0.000      0.000
  Name = 
  4 active torsions:
  status: ('A' for Active; 'I' for Inactive)
    1  A    between atoms: C_3  and  C_23
    2  A    between atoms: C_3  and  C_24
    3  A    between atoms: C_7  and  C_11
    4  A    between atoms: C_33  and  C_34
                            x       y       z     vdW  Elec       q    Type
                         _______ _______ _______ _____ _____    ______ ____

>  <TORSDO>
F 4

$$$$
=
 OpenBabel11062409343D

 34 39  0  0  1  0  0  0  0  0999 V2000
  159.1950  209.7400  153.8250 C   0  0  0  0  0  0  0  0  0  0  0  0
  159.8890  212.0140  152.1990 C   0  0  0  0  0  0  0  0  0  0  0  0
  161.9120  209.2130  151.6420 C   0  0  2  0  0  0  0  0  0  0  0  0
  157.7210  214.4530  153.1060 C   0  0  0  0  0  2  0  0  0  0  0  0
  156.8590  213.8000  154.0980 C   0  0  0  0  0  2  0  0  0  0  0  0
  161.0030  208.2940  152.4940 C   0  0  0  0  0  2  0  0  0  0  0  0
  160.0170  209.0360  153.2930 C   0  0  0  0  0  0  0  0  0  0  0  0
  157.8100  212.9250  153.2580 C   0  0  0  0  0  0  0  0  0  0  0  0
  161.1070  210.1590  150.7100 C   0  0  0  0  0  2  0  0  0  0  0  0
  160.4190  211.2280  151.4530 C   0  0  0  0  0  0  0  0  0  0  0  0
  162.7230  208.3000  150.7430 C   0  0  0  0  0  1  0  0  0  0  0  0
  159.3370  212.8880  153.2400 C   0  0  1  0  0  3  0  0  0  0  0  0
  158.1790  210.6800  154.3110 C   0  0  0  0  0  2  0  0  0  0  0  0
  158.6350  212.1600  154.3650 C   0  0  2  0  0  0  0  0  0  0  0  0
  160.4510  212.8040  156.1540 C   0  0  0  0  0  2  0  0  0  0  0  0
  156.8180  212.0620  157.0640 C   0  0  0  0  0  2  0  0  0  0  0  0
  158.7710  210.4060  156.8640 C   0  0  0  0  0  2  0  0  0  0  0  0
  162.4570  211.3420  156.4700 C   0  0  0  0  0  3  0  0  0  0  0  0
  162.2850  209.0230  157.1440 C   0  0  0  0  0  3  0  0  0  0  0  0
  163.0670  210.1270  156.7940 C   0  0  0  0  0  3  0  0  0  0  0  0
  160.2740  210.3470  156.8700 C   0  0  0  0  0  0  0  0  0  0  0  0
  161.0650  211.4620  156.4920 C   0  0  0  0  0  0  0  0  0  0  0  0
  160.8920  209.1320  157.1780 C   0  0  0  0  0  3  0  0  0  0  0  0
  156.5300  213.5620  157.2360 C   0  0  1  0  0  3  0  0  0  0  0  0
  158.3430  214.1470  155.9190 C   0  0  0  0  0  2  0  0  0  0  0  0
  157.6900  214.3780  157.1530 O   0  0  0  0  0  0  0  0  0  0  0  0
  158.3160  211.8560  156.9180 C   0  0  1  0  0  3  0  0  0  0  0  0
  158.9470  212.7290  155.8130 C   0  0  1  0  0  0  0  0  0  0  0  0
  155.4140  214.0210  156.2980 C   0  0  0  0  0  2  0  0  0  0  0  0
  153.0640  214.4530  156.3810 O   0  0  0  0  0  1  0  0  0  0  0  0
  154.0550  213.5640  156.7990 C   0  0  0  0  0  2  0  0  0  0  0  0
  162.8890  209.9770  152.5100 C   0  0  0  0  0  0  0  0  0  0  0  0
  162.7350  210.0130  153.7600 O   0  0  0  0  0  1  0  0  0  0  0  0
  163.9320  210.6960  151.9380 O   0  0  0  0  0  0  0  0  0  0  0  0
  1 13  1  0  0  0  0
  3 11  1  6  0  0  0
  3  6  1  0  0  0  0
  3 32  1  0  0  0  0
  4  8  1  0  0  0  0
  4  5  1  0  0  0  0
  6  7  1  0  0  0  0
  7  1  3  0  0  0  0
  8  5  1  0  0  0  0
  8 14  1  0  0  0  0
  9 10  1  0  0  0  0
  9  3  1  0  0  0  0
 10  2  3  0  0  0  0
 12  2  1  6  0  0  0
 12  8  1  0  0  0  0
 12 14  1  0  0  0  0
 14 13  1  6  0  0  0
 14 28  1  0  0  0  0
 15 22  1  0  0  0  0
 16 24  1  0  0  0  0
 17 21  1  0  0  0  0
 18 22  2  0  0  0  0
 18 20  1  0  0  0  0
 19 23  1  0  0  0  0
 20 19  2  0  0  0  0
 21 23  2  0  0  0  0
 22 21  1  0  0  0  0
 24 29  1  6  0  0  0
 25 26  1  0  0  0  0
 26 24  1  0  0  0  0
 27 17  1  6  0  0  0
 27 16  1  0  0  0  0
 28 25  1  1  0  0  0
 28 15  1  0  0  0  0
 28 27  1  0  0  0  0
 29 31  1  0  0  0  0
 30 31  1  0  0  0  0
 32 33  1  0  0  0  0
 34 32  2  0  0  0  0
M  END
>  <MODEL>
2

>  <REMARK>
 VINA RESULT:       1.8      1.750      6.816
  Name = 
  4 active torsions:
  status: ('A' for Active; 'I' for Inactive)
    1  A    between atoms: C_3  and  C_23
    2  A    between atoms: C_3  and  C_24
    3  A    between atoms: C_7  and  C_11
    4  A    between atoms: C_33  and  C_34
                            x       y       z     vdW  Elec       q    Type
                         _______ _______ _______ _____ _____    ______ ____

>  <TORSDO>
F 4

$$$$
=
 OpenBabel11062409343D

 34 39  0  0  1  0  0  0  0  0999 V2000
  161.7630  210.9230  153.4400 C   0  0  0  0  0  0  0  0  0  0  0  0
  160.0680  209.0550  154.8330 C   0  0  0  0  0  0  0  0  0  0  0  0
  161.8390  207.6360  152.1690 C   0  0  2  0  0  0  0  0  0  0  0  0
  158.5510  210.8670  157.2590 C   0  0  0  0  0  2  0  0  0  0  0  0
  159.1320  212.2060  157.1080 C   0  0  0  0  0  2  0  0  0  0  0  0
  162.7110  208.9000  151.9770 C   0  0  0  0  0  2  0  0  0  0  0  0
  162.2100  210.0670  152.7180 C   0  0  0  0  0  0  0  0  0  0  0  0
  159.7750  211.0330  156.3420 C   0  0  0  0  0  0  0  0  0  0  0  0
  161.6550  207.2520  153.6610 C   0  0  0  0  0  2  0  0  0  0  0  0
  160.7720  208.1880  154.3780 C   0  0  0  0  0  0  0  0  0  0  0  0
  162.5900  206.4940  151.5120 C   0  0  0  0  0  1  0  0  0  0  0  0
  159.2010  210.1750  155.2150 C   0  0  1  0  0  3  0  0  0  0  0  0
  161.2060  211.8340  154.4460 C   0  0  0  0  0  2  0  0  0  0  0  0
  159.7380  211.5410  154.8480 C   0  0  2  0  0  0  0  0  0  0  0  0
  157.6340  213.0510  155.3000 C   0  0  0  0  0  2  0  0  0  0  0  0
  158.5490  211.7590  151.8260 C   0  0  0  0  0  2  0  0  0  0  0  0
  157.1010  210.6140  153.6120 C   0  0  0  0  0  2  0  0  0  0  0  0
  155.8260  212.2390  156.8290 C   0  0  0  0  0  3  0  0  0  0  0  0
  154.5670  210.2170  156.3970 C   0  0  0  0  0  3  0  0  0  0  0  0
  154.8270  211.3350  157.1950 C   0  0  0  0  0  3  0  0  0  0  0  0
  156.2960  210.9100  154.8460 C   0  0  0  0  0  0  0  0  0  0  0  0
  156.5750  212.0330  155.6670 C   0  0  0  0  0  0  0  0  0  0  0  0
  155.3030  210.0040  155.2290 C   0  0  0  0  0  3  0  0  0  0  0  0
  159.0990  213.1390  151.4320 C   0  0  1  0  0  3  0  0  0  0  0  0
  159.3890  213.7500  153.6470 C   0  0  0  0  0  2  0  0  0  0  0  0
  158.8510  214.1490  152.4010 O   0  0  0  0  0  0  0  0  0  0  0  0
  157.8110  211.8760  153.1490 C   0  0  1  0  0  3  0  0  0  0  0  0
  158.6530  212.5380  154.2600 C   0  0  1  0  0  0  0  0  0  0  0  0
  160.5710  213.0530  151.0280 C   0  0  0  0  0  2  0  0  0  0  0  0
  161.4880  212.1910  148.9960 O   0  0  0  0  0  1  0  0  0  0  0  0
  160.7390  213.2400  149.5310 C   0  0  0  0  0  2  0  0  0  0  0  0
  160.5100  207.7720  151.4550 C   0  0  0  0  0  0  0  0  0  0  0  0
  159.7530  208.7490  151.7030 O   0  0  0  0  0  1  0  0  0  0  0  0
  160.0810  206.7940  150.5660 O   0  0  0  0  0  0  0  0  0  0  0  0
  1 13  1  0  0  0  0
  3 11  1  6  0  0  0
  3  9  1  0  0  0  0
  5  4  1  0  0  0  0
  6  3  1  0  0  0  0
  6  7  1  0  0  0  0
  7  1  3  0  0  0  0
  8  5  1  0  0  0  0
  8  4  1  0  0  0  0
  9 10  1  0  0  0  0
 10  2  3  0  0  0  0
 12  2  1  6  0  0  0
 12  8  1  0  0  0  0
 14 13  1  6  0  0  0
 14 12  1  0  0  0  0
 14  8  1  0  0  0  0
 15 22  1  0  0  0  0
 17 21  1  0  0  0  0
 18 20  1  0  0  0  0
 19 20  2  0  0  0  0
 21 23  2  0  0  0  0
 21 22  1  0  0  0  0
 22 18  2  0  0  0  0
 23 19  1  0  0  0  0
 24 29  1  1  0  0  0
 24 16  1  0  0  0  0
 24 26  1  0  0  0  0
 26 25  1  0  0  0  0
 27 16  1  6  0  0  0
 27 17  1  0  0  0  0
 27 28  1  0  0  0  0
 28 25  1  6  0  0  0
 28 14  1  0  0  0  0
 28 15  1  0  0  0  0
 30 31  1  0  0  0  0
 31 29  1  0  0  0  0
 32 33  1  0  0  0  0
 32  3  1  0  0  0  0
 34 32  2  0  0  0  0
M  END
>  <MODEL>
3

>  <REMARK>
 VINA RESULT:       2.3      2.010      6.343
  Name = 
  4 active torsions:
  status: ('A' for Active; 'I' for Inactive)
    1  A    between atoms: C_3  and  C_23
    2  A    between atoms: C_3  and  C_24
    3  A    between atoms: C_7  and  C_11
    4  A    between atoms: C_33  and  C_34
                            x       y       z     vdW  Elec       q    Type
                         _______ _______ _______ _____ _____    ______ ____

>  <TORSDO>
F 4

$$$$
=
 OpenBabel11062409343D

 34 39  0  0  1  0  0  0  0  0999 V2000
  161.2360  211.0750  153.5020 C   0  0  0  0  0  0  0  0  0  0  0  0
  160.1030  210.5150  156.0910 C   0  0  0  0  0  0  0  0  0  0  0  0
  161.3270  207.6790  154.4440 C   0  0  2  0  0  0  0  0  0  0  0  0
  159.0330  213.5070  157.2610 C   0  0  0  0  0  2  0  0  0  0  0  0
  159.4310  214.4530  156.2120 C   0  0  0  0  0  2  0  0  0  0  0  0
  162.0040  208.5220  153.3370 C   0  0  0  0  0  2  0  0  0  0  0  0
  161.5810  209.9310  153.3410 C   0  0  0  0  0  0  0  0  0  0  0  0
  159.9850  213.0160  156.1570 C   0  0  0  0  0  0  0  0  0  0  0  0
  161.5360  208.2710  155.8640 C   0  0  0  0  0  2  0  0  0  0  0  0
  160.7610  209.5040  156.0800 C   0  0  0  0  0  0  0  0  0  0  0  0
  162.0070  206.3250  154.4290 C   0  0  0  0  0  1  0  0  0  0  0  0
  159.2480  211.6960  155.9370 C   0  0  1  0  0  3  0  0  0  0  0  0
  160.8470  212.4390  153.8750 C   0  0  0  0  0  2  0  0  0  0  0  0
  159.5490  212.5380  154.7170 C   0  0  2  0  0  0  0  0  0  0  0  0
  157.1080  213.5030  154.8620 C   0  0  0  0  0  2  0  0  0  0  0  0
  158.4660  211.7600  151.7480 C   0  0  0  0  0  2  0  0  0  0  0  0
  157.2970  210.7000  153.7750 C   0  0  0  0  0  2  0  0  0  0  0  0
  155.5150  212.6050  156.5700 C   0  0  0  0  0  3  0  0  0  0  0  0
  154.8450  210.2790  156.6290 C   0  0  0  0  0  3  0  0  0  0  0  0
  154.7720  211.5740  157.1500 C   0  0  0  0  0  3  0  0  0  0  0  0
  156.3940  211.0400  154.9270 C   0  0  0  0  0  0  0  0  0  0  0  0
  156.3380  212.3500  155.4690 C   0  0  0  0  0  0  0  0  0  0  0  0
  155.6570  210.0130  155.5240 C   0  0  0  0  0  3  0  0  0  0  0  0
  158.6520  213.1130  151.0430 C   0  0  1  0  0  3  0  0  0  0  0  0
  158.6840  214.2540  153.0580 C   0  0  0  0  0  2  0  0  0  0  0  0
  158.1120  214.2110  151.7650 O   0  0  0  0  0  0  0  0  0  0  0  0
  157.6710  211.9690  153.0260 C   0  0  1  0  0  3  0  0  0  0  0  0
  158.2660  213.0590  153.9430 C   0  0  1  0  0  0  0  0  0  0  0  0
  160.1110  213.3290  150.6390 C   0  0  0  0  0  2  0  0  0  0  0  0
  161.5840  213.3480  148.7560 O   0  0  0  0  0  1  0  0  0  0  0  0
  160.2460  213.4730  149.1340 C   0  0  0  0  0  2  0  0  0  0  0  0
  159.8600  207.4510  154.1410 C   0  0  0  0  0  0  0  0  0  0  0  0
  159.2990  208.0800  153.2040 O   0  0  0  0  0  0  0  0  0  0  0  0
  159.1010  206.5930  154.9270 O   0  0  0  0  0  1  0  0  0  0  0  0
  1 13  1  0  0  0  0
  3 11  1  6  0  0  0
  3  9  1  0  0  0  0
  5  4  1  0  0  0  0
  6  7  1  0  0  0  0
  6  3  1  0  0  0  0
  7  1  3  0  0  0  0
  8  5  1  0  0  0  0
  8  4  1  0  0  0  0
  9 10  1  0  0  0  0
 10  2  3  0  0  0  0
 12  2  1  6  0  0  0
 12  8  1  0  0  0  0
 14 13  1  6  0  0  0
 14 12  1  0  0  0  0
 14  8  1  0  0  0  0
 15 22  1  0  0  0  0
 17 21  1  0  0  0  0
 18 20  1  0  0  0  0
 19 20  2  0  0  0  0
 21 22  1  0  0  0  0
 21 23  2  0  0  0  0
 22 18  2  0  0  0  0
 23 19  1  0  0  0  0
 24 29  1  1  0  0  0
 24 16  1  0  0  0  0
 24 26  1  0  0  0  0
 26 25  1  0  0  0  0
 27 16  1  6  0  0  0
 27 17  1  0  0  0  0
 27 28  1  0  0  0  0
 28 25  1  6  0  0  0
 28 14  1  0  0  0  0
 28 15  1  0  0  0  0
 30 31  1  0  0  0  0
 31 29  1  0  0  0  0
 32  3  1  0  0  0  0
 32 34  1  0  0  0  0
 33 32  2  0  0  0  0
M  END
>  <MODEL>
4

>  <REMARK>
 VINA RESULT:       2.7      1.909      6.142
  Name = 
  4 active torsions:
  status: ('A' for Active; 'I' for Inactive)
    1  A    between atoms: C_3  and  C_23
    2  A    between atoms: C_3  and  C_24
    3  A    between atoms: C_7  and  C_11
    4  A    between atoms: C_33  and  C_34
                            x       y       z     vdW  Elec       q    Type
                         _______ _______ _______ _____ _____    ______ ____

>  <TORSDO>
F 4

$$$$
