=
 OpenBabel11052423093D

 27 32  0  0  1  0  0  0  0  0999 V2000
  161.4700  213.1030  139.0300 C   0  0  2  0  0  0  0  0  0  0  0  0
  160.4660  212.6260  141.3250 C   0  0  1  0  0  3  0  0  0  0  0  0
  162.6960  213.7740  141.1680 C   0  0  0  0  0  2  0  0  0  0  0  0
  160.6130  212.8780  145.6570 C   0  0  0  0  0  2  0  0  0  0  0  0
  161.8110  213.4870  147.7440 C   0  0  0  0  0  1  0  0  0  0  0  0
  159.5410  211.7330  142.1540 C   0  0  0  0  0  2  0  0  0  0  0  0
  163.0710  213.3360  144.1240 C   0  0  0  0  0  2  0  0  0  0  0  0
  164.9950  213.2820  138.4860 C   0  0  0  0  0  2  0  0  0  0  0  0
  162.9190  213.8500  145.5520 C   0  0  0  0  0  2  0  0  0  0  0  0
  163.9320  213.6390  137.4660 C   0  0  2  0  0  3  0  0  0  0  0  0
  161.8500  212.7940  141.9860 C   0  0  1  0  0  3  0  0  0  0  0  0
  160.5770  212.1500  139.8590 C   0  0  2  0  0  3  0  0  0  0  0  0
  161.9760  212.9450  146.3400 C   0  0  2  0  0  3  0  0  0  0  0  0
  160.7670  212.3640  144.2290 C   0  0  2  0  0  3  0  0  0  0  0  0
  160.7660  214.4530  138.9260 C   0  0  0  0  0  1  0  0  0  0  0  0
  161.7070  213.2860  143.4320 C   0  0  1  0  0  3  0  0  0  0  0  0
  163.8110  214.1210  138.9210 C   0  0  1  0  0  3  0  0  0  0  0  0
  159.3990  212.2920  143.5630 C   0  0  0  0  0  2  0  0  0  0  0  0
  163.0930  212.3940  137.1600 C   0  0  0  0  0  2  0  0  0  0  0  0
  161.6340  212.5880  137.5850 C   0  0  0  0  0  2  0  0  0  0  0  0
  162.8390  213.2650  139.7350 C   0  0  2  0  0  3  0  0  0  0  0  0
  161.5760  207.9730  139.4430 C   0  0  0  0  0  3  0  0  0  0  0  0
  160.9460  210.6890  139.7300 C   0  0  0  0  0  0  0  0  0  0  0  0
  162.0810  210.1550  140.3600 C   0  0  0  0  0  3  0  0  0  0  0  0
  162.3930  208.8010  140.2160 C   0  0  0  0  0  3  0  0  0  0  0  0
  160.4440  208.4990  138.8130 C   0  0  0  0  0  3  0  0  0  0  0  0
  160.1300  209.8540  138.9560 C   0  0  0  0  0  3  0  0  0  0  0  0
  1 15  1  6  0  0  0
  1 21  1  0  0  0  0
  1 12  1  0  0  0  0
  2 11  1  0  0  0  0
  2  6  1  1  0  0  0
  4 13  1  0  0  0  0
  6 18  1  0  0  0  0
  7  9  1  0  0  0  0
  9 13  1  0  0  0  0
 10 19  1  1  0  0  0
 10  8  1  0  0  0  0
 10 17  1  0  0  0  0
 11  3  1  6  0  0  0
 11 16  1  0  0  0  0
 12 23  1  1  0  0  0
 12  2  1  0  0  0  0
 13  5  1  1  0  0  0
 14 18  1  6  0  0  0
 14  4  1  0  0  0  0
 16  7  1  1  0  0  0
 16 14  1  0  0  0  0
 17  8  1  1  0  0  0
 17 21  1  0  0  0  0
 19 20  1  0  0  0  0
 20  1  1  0  0  0  0
 21  3  1  1  0  0  0
 22 25  1  0  0  0  0
 23 24  1  0  0  0  0
 25 24  2  0  0  0  0
 26 27  1  0  0  0  0
 26 22  2  0  0  0  0
 27 23  2  0  0  0  0
M  END
>  <MODEL>
1

>  <REMARK>
 VINA RESULT:      -4.9      0.000      0.000
  Name = 
  1 active torsions:
  status: ('A' for Active; 'I' for Inactive)
    1  A    between atoms: C_9  and  C_15
                            x       y       z     vdW  Elec       q    Type
                         _______ _______ _______ _____ _____    ______ ____

>  <TORSDO>
F 1

$$$$
=
 OpenBabel11052423093D

 27 32  0  0  1  0  0  0  0  0999 V2000
  161.3550  210.1190  155.5980 C   0  0  2  0  0  0  0  0  0  0  0  0
  160.1560  211.8540  154.1620 C   0  0  1  0  0  3  0  0  0  0  0  0
  158.8530  210.5530  155.8730 C   0  0  0  0  0  2  0  0  0  0  0  0
  156.5740  214.0500  153.0660 C   0  0  0  0  0  2  0  0  0  0  0  0
  154.1360  214.4530  153.2930 C   0  0  0  0  0  1  0  0  0  0  0  0
  160.1250  212.6110  152.8340 C   0  0  0  0  0  2  0  0  0  0  0  0
  156.3060  211.5940  154.6470 C   0  0  0  0  0  2  0  0  0  0  0  0
  159.6910  207.2460  156.9110 C   0  0  0  0  0  2  0  0  0  0  0  0
  155.2010  212.6460  154.6220 C   0  0  0  0  0  2  0  0  0  0  0  0
  161.1010  207.6780  157.2600 C   0  0  2  0  0  3  0  0  0  0  0  0
  158.7920  211.2090  154.4910 C   0  0  1  0  0  3  0  0  0  0  0  0
  161.3110  210.8290  154.2230 C   0  0  2  0  0  3  0  0  0  0  0  0
  155.2160  213.3920  153.2900 C   0  0  2  0  0  3  0  0  0  0  0  0
  157.6780  212.9960  153.0930 C   0  0  2  0  0  3  0  0  0  0  0  0
  161.7220  211.1520  156.6600 C   0  0  0  0  0  1  0  0  0  0  0  0
  157.6710  212.2550  154.4410 C   0  0  1  0  0  3  0  0  0  0  0  0
  159.9600  208.7070  157.2050 C   0  0  1  0  0  3  0  0  0  0  0  0
  159.0260  213.6640  152.8570 C   0  0  0  0  0  2  0  0  0  0  0  0
  161.9630  207.6480  155.9940 C   0  0  0  0  0  2  0  0  0  0  0  0
  162.4660  209.0490  155.6310 C   0  0  0  0  0  2  0  0  0  0  0  0
  159.9650  209.5070  155.9020 C   0  0  2  0  0  3  0  0  0  0  0  0
  161.4430  208.1810  150.8190 C   0  0  0  0  0  3  0  0  0  0  0  0
  161.3390  209.8870  153.0400 C   0  0  0  0  0  0  0  0  0  0  0  0
  160.5950  208.6970  153.0260 C   0  0  0  0  0  3  0  0  0  0  0  0
  160.6470  207.8480  151.9170 C   0  0  0  0  0  3  0  0  0  0  0  0
  162.1870  209.3640  150.8280 C   0  0  0  0  0  3  0  0  0  0  0  0
  162.1350  210.2150  151.9360 C   0  0  0  0  0  3  0  0  0  0  0  0
  1 20  1  0  0  0  0
  1 21  1  0  0  0  0
  1 15  1  1  0  0  0
  2  6  1  6  0  0  0
  2 12  1  0  0  0  0
  2 11  1  0  0  0  0
  4 14  1  0  0  0  0
  4 13  1  0  0  0  0
  6 18  1  0  0  0  0
  8 10  1  0  0  0  0
  9  7  1  0  0  0  0
 10 19  1  6  0  0  0
 11  3  1  1  0  0  0
 12 23  1  6  0  0  0
 12  1  1  0  0  0  0
 13  5  1  1  0  0  0
 13  9  1  0  0  0  0
 14 18  1  1  0  0  0
 14 16  1  0  0  0  0
 16 11  1  0  0  0  0
 16  7  1  6  0  0  0
 17  8  1  6  0  0  0
 17 10  1  0  0  0  0
 20 19  1  0  0  0  0
 21  3  1  1  0  0  0
 21 17  1  0  0  0  0
 22 26  2  0  0  0  0
 22 25  1  0  0  0  0
 24 23  1  0  0  0  0
 25 24  2  0  0  0  0
 26 27  1  0  0  0  0
 27 23  2  0  0  0  0
M  END
>  <MODEL>
2

>  <REMARK>
 VINA RESULT:      -4.1     10.694     14.321
  Name = 
  1 active torsions:
  status: ('A' for Active; 'I' for Inactive)
    1  A    between atoms: C_9  and  C_15
                            x       y       z     vdW  Elec       q    Type
                         _______ _______ _______ _____ _____    ______ ____

>  <TORSDO>
F 1

$$$$
=
 OpenBabel11052423093D

 27 32  0  0  1  0  0  0  0  0999 V2000
  158.4810  212.9800  154.4930 C   0  0  2  0  0  0  0  0  0  0  0  0
  159.4410  213.5330  152.1960 C   0  0  1  0  0  3  0  0  0  0  0  0
  156.9690  213.1480  152.4410 C   0  0  0  0  0  2  0  0  0  0  0  0
  158.9230  214.3270  147.9590 C   0  0  0  0  0  2  0  0  0  0  0  0
  157.4740  214.4530  145.9480 C   0  0  0  0  0  1  0  0  0  0  0  0
  160.6600  213.4780  151.2750 C   0  0  0  0  0  2  0  0  0  0  0  0
  156.7420  213.0410  149.4400 C   0  0  0  0  0  2  0  0  0  0  0  0
  155.5300  211.0110  154.9070 C   0  0  0  0  0  2  0  0  0  0  0  0
  156.4870  213.7650  148.1200 C   0  0  0  0  0  2  0  0  0  0  0  0
  156.2530  211.7500  156.0160 C   0  0  2  0  0  3  0  0  0  0  0  0
  158.1750  212.9750  151.5120 C   0  0  1  0  0  3  0  0  0  0  0  0
  159.7080  212.8580  153.5600 C   0  0  2  0  0  3  0  0  0  0  0  0
  157.7320  213.7040  147.2380 C   0  0  2  0  0  3  0  0  0  0  0  0
  159.1760  213.6030  149.2780 C   0  0  2  0  0  3  0  0  0  0  0  0
  158.2870  214.4530  154.8430 C   0  0  0  0  0  1  0  0  0  0  0  0
  157.9250  213.6780  150.1720 C   0  0  1  0  0  3  0  0  0  0  0  0
  155.9910  212.4340  154.6640 C   0  0  1  0  0  3  0  0  0  0  0  0
  160.3730  214.2270  149.9820 C   0  0  0  0  0  2  0  0  0  0  0  0
  157.6710  211.1850  156.1530 C   0  0  0  0  0  2  0  0  0  0  0  0
  158.7260  212.2460  155.8280 C   0  0  0  0  0  2  0  0  0  0  0  0
  157.2280  212.4320  153.7650 C   0  0  2  0  0  3  0  0  0  0  0  0
  161.2960  208.8560  153.2700 C   0  0  0  0  0  3  0  0  0  0  0  0
  160.2540  211.4520  153.4360 C   0  0  0  0  0  0  0  0  0  0  0  0
  159.8660  210.5990  152.3920 C   0  0  0  0  0  3  0  0  0  0  0  0
  160.3870  209.3050  152.3100 C   0  0  0  0  0  3  0  0  0  0  0  0
  161.6860  209.7010  154.3140 C   0  0  0  0  0  3  0  0  0  0  0  0
  161.1650  210.9960  154.3960 C   0  0  0  0  0  3  0  0  0  0  0  0
  1 15  1  1  0  0  0
  1 20  1  0  0  0  0
  2  6  1  6  0  0  0
  2 12  1  0  0  0  0
  9  7  1  0  0  0  0
 10  8  1  6  0  0  0
 10 19  1  0  0  0  0
 11  2  1  0  0  0  0
 11  3  1  1  0  0  0
 12 23  1  6  0  0  0
 12  1  1  0  0  0  0
 13  5  1  6  0  0  0
 13  4  1  0  0  0  0
 13  9  1  0  0  0  0
 14  4  1  6  0  0  0
 14 18  1  0  0  0  0
 14 16  1  0  0  0  0
 16  7  1  6  0  0  0
 16 11  1  0  0  0  0
 17  8  1  6  0  0  0
 17 10  1  0  0  0  0
 18  6  1  0  0  0  0
 20 19  1  0  0  0  0
 21  3  1  6  0  0  0
 21  1  1  0  0  0  0
 21 17  1  0  0  0  0
 22 26  1  0  0  0  0
 23 27  1  0  0  0  0
 24 23  2  0  0  0  0
 25 24  1  0  0  0  0
 25 22  2  0  0  0  0
 26 27  2  0  0  0  0
M  END
>  <MODEL>
3

>  <REMARK>
 VINA RESULT:      -3.8      7.597     13.170
  Name = 
  1 active torsions:
  status: ('A' for Active; 'I' for Inactive)
    1  A    between atoms: C_9  and  C_15
                            x       y       z     vdW  Elec       q    Type
                         _______ _______ _______ _____ _____    ______ ____

>  <TORSDO>
F 1

$$$$
=
 OpenBabel11052423093D

 27 32  0  0  1  0  0  0  0  0999 V2000
  158.4170  213.0720  154.2510 C   0  0  2  0  0  0  0  0  0  0  0  0
  159.5360  210.9370  155.0840 C   0  0  1  0  0  3  0  0  0  0  0  0
  159.4440  211.4000  152.6150 C   0  0  0  0  0  2  0  0  0  0  0  0
  161.7100  207.2530  154.3380 C   0  0  0  0  0  2  0  0  0  0  0  0
  162.6760  205.5990  152.7600 C   0  0  0  0  0  1  0  0  0  0  0  0
  159.6080  209.8800  156.1860 C   0  0  0  0  0  2  0  0  0  0  0  0
  160.3380  208.5700  152.1040 C   0  0  0  0  0  2  0  0  0  0  0  0
  156.8550  213.2860  151.0460 C   0  0  0  0  0  2  0  0  0  0  0  0
  161.4740  207.5800  151.8650 C   0  0  0  0  0  2  0  0  0  0  0  0
  157.0900  214.4510  151.9860 C   0  0  2  0  0  3  0  0  0  0  0  0
  159.4100  210.3030  153.6820 C   0  0  1  0  0  3  0  0  0  0  0  0
  158.4290  211.9820  155.3480 C   0  0  2  0  0  3  0  0  0  0  0  0
  161.5250  206.5540  152.9950 C   0  0  2  0  0  3  0  0  0  0  0  0
  160.5740  208.2440  154.5750 C   0  0  2  0  0  3  0  0  0  0  0  0
  159.7120  213.8730  154.3540 C   0  0  0  0  0  1  0  0  0  0  0  0
  160.5340  209.2850  153.4430 C   0  0  1  0  0  3  0  0  0  0  0  0
  158.2000  213.4200  151.7290 C   0  0  1  0  0  3  0  0  0  0  0  0
  160.7650  208.9270  155.9230 C   0  0  0  0  0  2  0  0  0  0  0  0
  156.3170  214.2110  153.2870 C   0  0  0  0  0  2  0  0  0  0  0  0
  157.2670  214.0750  154.4810 C   0  0  0  0  0  2  0  0  0  0  0  0
  158.3140  212.3970  152.8610 C   0  0  2  0  0  3  0  0  0  0  0  0
  154.5620  210.2620  156.1870 C   0  0  0  0  0  3  0  0  0  0  0  0
  157.0750  211.3650  155.6220 C   0  0  0  0  0  0  0  0  0  0  0  0
  156.4570  210.5030  154.7020 C   0  0  0  0  0  3  0  0  0  0  0  0
  155.2040  209.9540  154.9860 C   0  0  0  0  0  3  0  0  0  0  0  0
  155.1720  211.1210  157.1060 C   0  0  0  0  0  3  0  0  0  0  0  0
  156.4260  211.6700  156.8240 C   0  0  0  0  0  3  0  0  0  0  0  0
  1 15  1  1  0  0  0
  1 20  1  0  0  0  0
  1 12  1  0  0  0  0
  2 12  1  0  0  0  0
  2  6  1  1  0  0  0
  9  7  1  0  0  0  0
  9 13  1  0  0  0  0
 10  8  1  6  0  0  0
 10 19  1  0  0  0  0
 11  3  1  6  0  0  0
 11  2  1  0  0  0  0
 12 23  1  6  0  0  0
 13  5  1  6  0  0  0
 13  4  1  0  0  0  0
 14  4  1  6  0  0  0
 14 18  1  0  0  0  0
 16  7  1  6  0  0  0
 16 11  1  0  0  0  0
 16 14  1  0  0  0  0
 17  8  1  6  0  0  0
 17 10  1  0  0  0  0
 17 21  1  0  0  0  0
 18  6  1  0  0  0  0
 19 20  1  0  0  0  0
 21  3  1  6  0  0  0
 21  1  1  0  0  0  0
 22 26  1  0  0  0  0
 23 27  1  0  0  0  0
 24 25  1  0  0  0  0
 24 23  2  0  0  0  0
 25 22  2  0  0  0  0
 27 26  2  0  0  0  0
M  END
>  <MODEL>
4

>  <REMARK>
 VINA RESULT:      -3.7     11.463     14.381
  Name = 
  1 active torsions:
  status: ('A' for Active; 'I' for Inactive)
    1  A    between atoms: C_9  and  C_15
                            x       y       z     vdW  Elec       q    Type
                         _______ _______ _______ _____ _____    ______ ____

>  <TORSDO>
F 1

$$$$
=
 OpenBabel11052423093D

 27 32  0  0  1  0  0  0  0  0999 V2000
  161.6590  212.9450  138.0330 C   0  0  2  0  0  0  0  0  0  0  0  0
  159.2710  212.1740  137.5750 C   0  0  1  0  0  3  0  0  0  0  0  0
  159.7090  213.7870  139.4520 C   0  0  0  0  0  2  0  0  0  0  0  0
  155.0170  212.2890  138.4340 C   0  0  0  0  0  2  0  0  0  0  0  0
  153.1170  213.0670  139.8290 C   0  0  0  0  0  1  0  0  0  0  0  0
  158.3700  211.0700  137.0200 C   0  0  0  0  0  2  0  0  0  0  0  0
  156.8970  213.3310  140.4300 C   0  0  0  0  0  2  0  0  0  0  0  0
  162.7630  213.9110  141.2890 C   0  0  0  0  0  2  0  0  0  0  0  0
  155.4290  213.7460  140.4300 C   0  0  0  0  0  2  0  0  0  0  0  0
  163.5640  214.0640  140.0110 C   0  0  2  0  0  3  0  0  0  0  0  0
  158.8380  212.6160  138.9890 C   0  0  1  0  0  3  0  0  0  0  0  0
  160.7670  211.7890  137.5210 C   0  0  2  0  0  3  0  0  0  0  0  0
  154.5660  212.6270  139.8510 C   0  0  2  0  0  3  0  0  0  0  0  0
  156.4850  211.8760  138.4350 C   0  0  2  0  0  3  0  0  0  0  0  0
  161.5430  214.1110  137.0550 C   0  0  0  0  0  1  0  0  0  0  0  0
  157.3550  213.0100  139.0050 C   0  0  1  0  0  3  0  0  0  0  0  0
  162.0770  214.4530  140.0520 C   0  0  1  0  0  3  0  0  0  0  0  0
  156.9200  211.5310  137.0170 C   0  0  0  0  0  2  0  0  0  0  0  0
  163.8190  212.6780  139.4100 C   0  0  0  0  0  2  0  0  0  0  0  0
  163.1460  212.5320  138.0420 C   0  0  0  0  0  2  0  0  0  0  0  0
  161.1800  213.3760  139.4410 C   0  0  2  0  0  3  0  0  0  0  0  0
  161.6350  207.9430  139.2740 C   0  0  0  0  0  3  0  0  0  0  0  0
  161.0640  210.4500  138.1580 C   0  0  0  0  0  0  0  0  0  0  0  0
  161.0220  210.2670  139.5490 C   0  0  0  0  0  3  0  0  0  0  0  0
  161.3060  209.0170  140.1040 C   0  0  0  0  0  3  0  0  0  0  0  0
  161.6790  208.1180  137.8870 C   0  0  0  0  0  3  0  0  0  0  0  0
  161.3940  209.3690  137.3310 C   0  0  0  0  0  3  0  0  0  0  0  0
  1 15  1  6  0  0  0
  1 20  1  0  0  0  0
  1 21  1  0  0  0  0
  2  6  1  1  0  0  0
  2 11  1  0  0  0  0
  4 14  1  0  0  0  0
  4 13  1  0  0  0  0
  7  9  1  0  0  0  0
 10 19  1  6  0  0  0
 10 17  1  0  0  0  0
 10  8  1  0  0  0  0
 11 16  1  0  0  0  0
 11  3  1  6  0  0  0
 12  2  1  0  0  0  0
 12  1  1  0  0  0  0
 12 23  1  1  0  0  0
 13  5  1  6  0  0  0
 13  9  1  0  0  0  0
 14 18  1  6  0  0  0
 14 16  1  0  0  0  0
 16  7  1  1  0  0  0
 17  8  1  1  0  0  0
 18  6  1  0  0  0  0
 20 19  1  0  0  0  0
 21  3  1  6  0  0  0
 21 17  1  0  0  0  0
 22 25  1  0  0  0  0
 23 24  1  0  0  0  0
 24 25  2  0  0  0  0
 26 22  2  0  0  0  0
 27 26  1  0  0  0  0
 27 23  2  0  0  0  0
M  END
>  <MODEL>
5

>  <REMARK>
 VINA RESULT:      -3.7      2.946      5.188
  Name = 
  1 active torsions:
  status: ('A' for Active; 'I' for Inactive)
    1  A    between atoms: C_9  and  C_15
                            x       y       z     vdW  Elec       q    Type
                         _______ _______ _______ _____ _____    ______ ____

>  <TORSDO>
F 1

$$$$
=
 OpenBabel11052423093D

 27 32  0  0  1  0  0  0  0  0999 V2000
  161.6670  210.0270  153.5130 C   0  0  2  0  0  0  0  0  0  0  0  0
  162.2740  207.6740  152.7380 C   0  0  1  0  0  3  0  0  0  0  0  0
  160.7740  209.0960  151.3080 C   0  0  0  0  0  2  0  0  0  0  0  0
  162.0840  204.4790  149.8040 C   0  0  0  0  0  2  0  0  0  0  0  0
  161.1910  203.5460  147.6850 C   0  0  0  0  0  1  0  0  0  0  0  0
  162.6860  206.2600  153.1500 C   0  0  0  0  0  2  0  0  0  0  0  0
  160.1310  206.6630  149.6540 C   0  0  0  0  0  2  0  0  0  0  0  0
  158.5950  211.6050  152.6040 C   0  0  0  0  0  2  0  0  0  0  0  0
  160.4370  205.7870  148.4430 C   0  0  0  0  0  2  0  0  0  0  0  0
  159.7460  212.2780  153.3250 C   0  0  2  0  0  3  0  0  0  0  0  0
  161.0760  207.6660  151.7650 C   0  0  1  0  0  3  0  0  0  0  0  0
  162.0230  208.5890  153.9580 C   0  0  2  0  0  3  0  0  0  0  0  0
  160.8620  204.3920  148.8960 C   0  0  2  0  0  3  0  0  0  0  0  0
  161.7780  205.3570  151.0140 C   0  0  2  0  0  3  0  0  0  0  0  0
  162.8920  210.6400  152.8390 C   0  0  0  0  0  1  0  0  0  0  0  0
  161.3640  206.7660  150.5560 C   0  0  1  0  0  3  0  0  0  0  0  0
  160.0090  211.3730  152.1110 C   0  0  1  0  0  3  0  0  0  0  0  0
  163.0020  205.4270  151.9170 C   0  0  0  0  0  2  0  0  0  0  0  0
  159.9700  211.5810  154.6710 C   0  0  0  0  0  2  0  0  0  0  0  0
  161.3510  210.9200  154.7310 C   0  0  0  0  0  2  0  0  0  0  0  0
  160.4790  209.9760  152.5210 C   0  0  2  0  0  3  0  0  0  0  0  0
  159.3240  206.9160  156.8780 C   0  0  0  0  0  3  0  0  0  0  0  0
  161.0610  207.9970  154.9630 C   0  0  0  0  0  0  0  0  0  0  0  0
  159.7860  207.5470  154.5880 C   0  0  0  0  0  3  0  0  0  0  0  0
  158.9210  207.0080  155.5440 C   0  0  0  0  0  3  0  0  0  0  0  0
  160.5930  207.3630  157.2580 C   0  0  0  0  0  3  0  0  0  0  0  0
  161.4590  207.9020  156.3020 C   0  0  0  0  0  3  0  0  0  0  0  0
  1 15  1  6  0  0  0
  1 12  1  0  0  0  0
  1 20  1  0  0  0  0
  2  6  1  1  0  0  0
  2 12  1  0  0  0  0
  9 13  1  0  0  0  0
  9  7  1  0  0  0  0
 10  8  1  1  0  0  0
 10 19  1  0  0  0  0
 11  3  1  6  0  0  0
 11  2  1  0  0  0  0
 12 23  1  6  0  0  0
 13  5  1  6  0  0  0
 13  4  1  0  0  0  0
 14  4  1  6  0  0  0
 14 18  1  0  0  0  0
 16  7  1  6  0  0  0
 16 14  1  0  0  0  0
 16 11  1  0  0  0  0
 17 21  1  0  0  0  0
 17  8  1  1  0  0  0
 17 10  1  0  0  0  0
 18  6  1  0  0  0  0
 19 20  1  0  0  0  0
 21  3  1  6  0  0  0
 21  1  1  0  0  0  0
 22 26  1  0  0  0  0
 23 27  1  0  0  0  0
 24 23  2  0  0  0  0
 24 25  1  0  0  0  0
 25 22  2  0  0  0  0
 27 26  2  0  0  0  0
M  END
>  <MODEL>
6

>  <REMARK>
 VINA RESULT:      -2.2     10.269     13.789
  Name = 
  1 active torsions:
  status: ('A' for Active; 'I' for Inactive)
    1  A    between atoms: C_9  and  C_15
                            x       y       z     vdW  Elec       q    Type
                         _______ _______ _______ _____ _____    ______ ____

>  <TORSDO>
F 1

$$$$
=
 OpenBabel11052423093D

 27 32  0  0  1  0  0  0  0  0999 V2000
  161.7930  213.0370  148.3830 C   0  0  2  0  0  0  0  0  0  0  0  0
  161.8760  211.2810  150.2310 C   0  0  1  0  0  3  0  0  0  0  0  0
  161.6970  210.5440  147.8350 C   0  0  0  0  0  2  0  0  0  0  0  0
  161.9530  207.1380  151.5280 C   0  0  0  0  0  2  0  0  0  0  0  0
  161.8200  204.7140  151.0150 C   0  0  0  0  0  1  0  0  0  0  0  0
  161.5840  210.9550  151.6970 C   0  0  0  0  0  2  0  0  0  0  0  0
  161.0860  207.7550  148.7940 C   0  0  0  0  0  2  0  0  0  0  0  0
  160.1180  212.4670  145.2810 C   0  0  0  0  0  2  0  0  0  0  0  0
  161.5840  206.3640  149.1740 C   0  0  0  0  0  2  0  0  0  0  0  0
  160.9900  213.6660  145.5990 C   0  0  2  0  0  3  0  0  0  0  0  0
  161.2890  210.2210  149.2760 C   0  0  1  0  0  3  0  0  0  0  0  0
  161.4320  212.7120  149.8520 C   0  0  2  0  0  3  0  0  0  0  0  0
  161.2920  206.0840  150.6460 C   0  0  2  0  0  3  0  0  0  0  0  0
  161.4550  208.5290  151.1460 C   0  0  2  0  0  3  0  0  0  0  0  0
  163.3140  213.0780  148.2590 C   0  0  0  0  0  1  0  0  0  0  0  0
  161.7640  208.8150  149.6660 C   0  0  1  0  0  3  0  0  0  0  0  0
  161.4440  212.2470  145.9790 C   0  0  1  0  0  3  0  0  0  0  0  0
  162.1150  209.5710  152.0400 C   0  0  0  0  0  2  0  0  0  0  0  0
  160.3680  214.4440  146.7630 C   0  0  0  0  0  2  0  0  0  0  0  0
  161.2880  214.4400  147.9880 C   0  0  0  0  0  2  0  0  0  0  0  0
  161.2080  211.9410  147.4590 C   0  0  2  0  0  3  0  0  0  0  0  0
  157.3540  213.5860  150.9550 C   0  0  0  0  0  3  0  0  0  0  0  0
  159.9950  213.0110  150.2170 C   0  0  0  0  0  0  0  0  0  0  0  0
  158.9570  212.8970  149.2790 C   0  0  0  0  0  3  0  0  0  0  0  0
  157.6400  213.1840  149.6490 C   0  0  0  0  0  3  0  0  0  0  0  0
  158.3840  213.7010  151.8940 C   0  0  0  0  0  3  0  0  0  0  0  0
  159.7010  213.4140  151.5250 C   0  0  0  0  0  3  0  0  0  0  0  0
  1 15  1  6  0  0  0
  1 12  1  0  0  0  0
  2  6  1  1  0  0  0
  6 18  1  0  0  0  0
  7  9  1  0  0  0  0
  9 13  1  0  0  0  0
 10  8  1  6  0  0  0
 10 17  1  0  0  0  0
 10 19  1  0  0  0  0
 11  3  1  6  0  0  0
 11 16  1  0  0  0  0
 11  2  1  0  0  0  0
 12 23  1  6  0  0  0
 12  2  1  0  0  0  0
 13  5  1  1  0  0  0
 13  4  1  0  0  0  0
 14  4  1  1  0  0  0
 14 18  1  0  0  0  0
 16  7  1  6  0  0  0
 16 14  1  0  0  0  0
 17  8  1  6  0  0  0
 17 21  1  0  0  0  0
 19 20  1  0  0  0  0
 20  1  1  0  0  0  0
 21  3  1  1  0  0  0
 21  1  1  0  0  0  0
 22 26  1  0  0  0  0
 23 27  1  0  0  0  0
 24 25  1  0  0  0  0
 24 23  2  0  0  0  0
 25 22  2  0  0  0  0
 27 26  2  0  0  0  0
M  END
>  <MODEL>
7

>  <REMARK>
 VINA RESULT:      -2.1      5.589      9.663
  Name = 
  1 active torsions:
  status: ('A' for Active; 'I' for Inactive)
    1  A    between atoms: C_9  and  C_15
                            x       y       z     vdW  Elec       q    Type
                         _______ _______ _______ _____ _____    ______ ____

>  <TORSDO>
F 1

$$$$
=
 OpenBabel11052423093D

 27 32  0  0  1  0  0  0  0  0999 V2000
  161.2080  212.9700  140.1890 C   0  0  2  0  0  0  0  0  0  0  0  0
  159.2310  213.2100  138.5940 C   0  0  1  0  0  3  0  0  0  0  0  0
  158.8590  213.4570  141.0680 C   0  0  0  0  0  2  0  0  0  0  0  0
  155.0270  214.0020  137.8560 C   0  0  0  0  0  2  0  0  0  0  0  0
  152.7320  214.4340  138.6970 C   0  0  0  0  0  1  0  0  0  0  0  0
  158.6300  212.8300  137.2410 C   0  0  0  0  0  2  0  0  0  0  0  0
  155.8900  213.3350  140.5800 C   0  0  0  0  0  2  0  0  0  0  0  0
  160.8260  211.8070  143.5440 C   0  0  0  0  0  2  0  0  0  0  0  0
  154.5760  214.0660  140.3200 C   0  0  0  0  0  2  0  0  0  0  0  0
  162.1020  212.3700  142.9520 C   0  0  2  0  0  3  0  0  0  0  0  0
  158.2430  212.9670  139.7540 C   0  0  1  0  0  3  0  0  0  0  0  0
  160.5940  212.5230  138.8410 C   0  0  2  0  0  3  0  0  0  0  0  0
  154.0180  213.6760  138.9530 C   0  0  2  0  0  3  0  0  0  0  0  0
  156.3400  213.2710  138.1180 C   0  0  2  0  0  3  0  0  0  0  0  0
  161.5550  214.4530  140.0920 C   0  0  0  0  0  1  0  0  0  0  0  0
  156.9080  213.6760  139.4890 C   0  0  1  0  0  3  0  0  0  0  0  0
  160.7540  213.0640  142.7010 C   0  0  1  0  0  3  0  0  0  0  0  0
  157.3340  213.5950  137.0110 C   0  0  0  0  0  2  0  0  0  0  0  0
  162.5560  211.4740  141.7950 C   0  0  0  0  0  2  0  0  0  0  0  0
  162.5340  212.2320  140.4630 C   0  0  0  0  0  2  0  0  0  0  0  0
  160.1800  212.7330  141.3230 C   0  0  2  0  0  3  0  0  0  0  0  0
  160.5400  208.2500  138.2500 C   0  0  0  0  0  3  0  0  0  0  0  0
  160.5540  211.0240  138.6470 C   0  0  0  0  0  0  0  0  0  0  0  0
  159.5830  210.2240  139.2710 C   0  0  0  0  0  3  0  0  0  0  0  0
  159.5770  208.8410  139.0720 C   0  0  0  0  0  3  0  0  0  0  0  0
  161.5090  209.0410  137.6260 C   0  0  0  0  0  3  0  0  0  0  0  0
  161.5150  210.4250  137.8250 C   0  0  0  0  0  3  0  0  0  0  0  0
  1 15  1  6  0  0  0
  1 20  1  0  0  0  0
  1 21  1  0  0  0  0
  2  6  1  6  0  0  0
  2 12  1  0  0  0  0
  2 11  1  0  0  0  0
  4 14  1  0  0  0  0
  4 13  1  0  0  0  0
  9  7  1  0  0  0  0
 10 19  1  6  0  0  0
 10  8  1  0  0  0  0
 11  3  1  1  0  0  0
 12 23  1  1  0  0  0
 12  1  1  0  0  0  0
 13  5  1  6  0  0  0
 13  9  1  0  0  0  0
 14 18  1  6  0  0  0
 14 16  1  0  0  0  0
 16 11  1  0  0  0  0
 16  7  1  1  0  0  0
 17 10  1  0  0  0  0
 17  8  1  1  0  0  0
 18  6  1  0  0  0  0
 20 19  1  0  0  0  0
 21  3  1  6  0  0  0
 21 17  1  0  0  0  0
 22 25  1  0  0  0  0
 23 24  1  0  0  0  0
 25 24  2  0  0  0  0
 26 27  1  0  0  0  0
 26 22  2  0  0  0  0
 27 23  2  0  0  0  0
M  END
>  <MODEL>
8

>  <REMARK>
 VINA RESULT:      -2.0      3.294      5.869
  Name = 
  1 active torsions:
  status: ('A' for Active; 'I' for Inactive)
    1  A    between atoms: C_9  and  C_15
                            x       y       z     vdW  Elec       q    Type
                         _______ _______ _______ _____ _____    ______ ____

>  <TORSDO>
F 1

$$$$
