=
 OpenBabel11052423163D

 27 31  0  0  1  0  0  0  0  0999 V2000
  162.0700  208.5030  152.3390 N   0  0  0  0  0  2  0  0  0  0  0  0
  160.8310  206.3200  152.2270 C   0  0  1  0  0  3  0  0  0  0  0  0
  160.8860  207.2450  149.9390 N   0  0  0  0  0  2  0  0  0  0  0  0
  161.0500  202.4360  150.6520 C   0  0  0  0  0  3  0  0  0  0  0  0
  160.8800  200.9230  148.7810 O   0  0  0  0  0  1  0  0  0  0  0  0
  161.4820  205.2390  153.0930 C   0  0  0  0  0  2  0  0  0  0  0  0
  161.2060  204.5970  148.8780 C   0  0  0  0  0  3  0  0  0  0  0  0
  161.9560  210.5600  148.6420 C   0  0  0  0  0  0  0  0  0  0  0  0
  161.0880  203.2940  148.3860 C   0  0  0  0  0  3  0  0  0  0  0  0
  161.8860  211.2560  147.4820 F   0  0  0  0  0  0  0  0  0  0  0  0
  161.2260  204.8290  150.2600 C   0  0  0  0  0  0  0  0  0  0  0  0
  160.9140  207.7430  152.8100 C   0  0  1  0  0  3  0  0  0  0  0  0
  161.0040  202.2160  149.2720 C   0  0  0  0  0  0  0  0  0  0  0  0
  161.1740  203.7360  151.1500 C   0  0  0  0  0  0  0  0  0  0  0  0
  162.0890  209.1280  151.0500 C   0  0  0  0  0  0  0  0  0  0  0  0
  161.4230  206.2150  150.8190 C   0  0  2  0  0  3  0  0  0  0  0  0
  161.3400  209.3110  148.7430 C   0  0  0  0  0  3  0  0  0  0  0  0
  161.2200  203.9490  152.5340 O   0  0  0  0  0  0  0  0  0  0  0  0
  162.6670  211.0780  149.7250 C   0  0  0  0  0  3  0  0  0  0  0  0
  162.7280  210.3660  150.9250 C   0  0  0  0  0  3  0  0  0  0  0  0
  161.4110  208.5780  149.9320 C   0  0  0  0  0  0  0  0  0  0  0  0
  160.4500  208.0390  157.0390 N   0  0  0  0  0  0  0  0  0  0  0  0
  160.7580  207.8250  154.2990 C   0  0  0  0  0  0  0  0  0  0  0  0
  161.2670  208.9330  154.9810 C   0  0  0  0  0  3  0  0  0  0  0  0
  161.1030  209.0220  156.3640 C   0  0  0  0  0  3  0  0  0  0  0  0
  159.9390  206.9540  156.3970 C   0  0  0  0  0  3  0  0  0  0  0  0
  160.0810  206.8270  155.0130 C   0  0  0  0  0  3  0  0  0  0  0  0
  1 12  1  0  0  0  0
  2 12  1  0  0  0  0
  2  6  1  1  0  0  0
  4 14  1  0  0  0  0
  5 13  1  0  0  0  0
  7 11  1  0  0  0  0
  8 17  2  0  0  0  0
  8 19  1  0  0  0  0
  9  7  2  0  0  0  0
  9 13  1  0  0  0  0
 10  8  1  0  0  0  0
 11 16  1  0  0  0  0
 11 14  2  0  0  0  0
 12 23  1  1  0  0  0
 13  4  2  0  0  0  0
 14 18  1  0  0  0  0
 15  1  1  0  0  0  0
 16  3  1  6  0  0  0
 16  2  1  0  0  0  0
 17 21  1  0  0  0  0
 18  6  1  0  0  0  0
 19 20  2  0  0  0  0
 20 15  1  0  0  0  0
 21  3  1  0  0  0  0
 21 15  2  0  0  0  0
 23 24  2  0  0  0  0
 23 27  1  0  0  0  0
 24 25  1  0  0  0  0
 25 22  2  0  0  0  0
 26 22  1  0  0  0  0
 27 26  2  0  0  0  0
M  END
>  <MODEL>
1

>  <REMARK>
 VINA RESULT:      -8.0      0.000      0.000
  Name = 
  1 active torsions:
  status: ('A' for Active; 'I' for Inactive)
    1  A    between atoms: C_9  and  C_15
                            x       y       z     vdW  Elec       q    Type
                         _______ _______ _______ _____ _____    ______ ____

>  <TORSDO>
F 1

$$$$
=
 OpenBabel11052423163D

 27 31  0  0  1  0  0  0  0  0999 V2000
  162.5370  208.7440  148.9250 N   0  0  0  0  0  2  0  0  0  0  0  0
  161.4140  209.5950  151.0050 C   0  0  1  0  0  3  0  0  0  0  0  0
  160.7430  207.2350  150.7270 N   0  0  0  0  0  2  0  0  0  0  0  0
  161.3130  209.1220  155.1740 C   0  0  0  0  0  3  0  0  0  0  0  0
  160.6540  207.8620  157.1230 O   0  0  0  0  0  1  0  0  0  0  0  0
  162.3390  210.4820  151.8430 C   0  0  0  0  0  2  0  0  0  0  0  0
  160.8410  206.8740  153.5730 C   0  0  0  0  0  3  0  0  0  0  0  0
  161.2370  204.8430  147.9260 C   0  0  0  0  0  0  0  0  0  0  0  0
  160.6350  206.8070  154.9540 C   0  0  0  0  0  3  0  0  0  0  0  0
  160.7950  203.6160  147.5620 F   0  0  0  0  0  0  0  0  0  0  0  0
  161.2640  208.0730  152.9820 C   0  0  0  0  0  0  0  0  0  0  0  0
  161.6080  209.7240  149.4830 C   0  0  1  0  0  3  0  0  0  0  0  0
  160.8660  207.9300  155.7530 C   0  0  0  0  0  0  0  0  0  0  0  0
  161.5260  209.1950  153.7950 C   0  0  0  0  0  0  0  0  0  0  0  0
  162.1440  207.3910  148.6680 C   0  0  0  0  0  0  0  0  0  0  0  0
  161.5620  208.1550  151.5060 C   0  0  2  0  0  3  0  0  0  0  0  0
  160.7320  205.4530  149.0760 C   0  0  0  0  0  3  0  0  0  0  0  0
  161.9750  210.3920  153.2230 O   0  0  0  0  0  0  0  0  0  0  0  0
  162.2180  205.4840  147.1670 C   0  0  0  0  0  3  0  0  0  0  0  0
  162.6650  206.7550  147.5360 C   0  0  0  0  0  3  0  0  0  0  0  0
  161.1870  206.7170  149.4670 C   0  0  0  0  0  0  0  0  0  0  0  0
  162.4560  213.6510  148.0510 N   0  0  0  0  0  0  0  0  0  0  0  0
  161.9020  211.1140  149.0010 C   0  0  0  0  0  0  0  0  0  0  0  0
  163.0530  211.3470  148.2450 C   0  0  0  0  0  3  0  0  0  0  0  0
  163.3170  212.6350  147.7760 C   0  0  0  0  0  3  0  0  0  0  0  0
  161.3250  213.4480  148.7790 C   0  0  0  0  0  3  0  0  0  0  0  0
  161.0240  212.1740  149.2660 C   0  0  0  0  0  3  0  0  0  0  0  0
  1 12  1  0  0  0  0
  2 16  1  0  0  0  0
  2  6  1  1  0  0  0
  4 13  1  0  0  0  0
  6 18  1  0  0  0  0
  7  9  1  0  0  0  0
  8 17  1  0  0  0  0
  9 13  2  0  0  0  0
 10  8  1  0  0  0  0
 11  7  2  0  0  0  0
 11 14  1  0  0  0  0
 12 23  1  1  0  0  0
 12  2  1  0  0  0  0
 13  5  1  0  0  0  0
 14  4  2  0  0  0  0
 15  1  1  0  0  0  0
 15 21  1  0  0  0  0
 16  3  1  6  0  0  0
 16 11  1  0  0  0  0
 17 21  2  0  0  0  0
 18 14  1  0  0  0  0
 19 20  1  0  0  0  0
 19  8  2  0  0  0  0
 20 15  2  0  0  0  0
 21  3  1  0  0  0  0
 22 26  1  0  0  0  0
 23 27  1  0  0  0  0
 24 23  2  0  0  0  0
 25 22  2  0  0  0  0
 25 24  1  0  0  0  0
 26 27  2  0  0  0  0
M  END
>  <MODEL>
2

>  <REMARK>
 VINA RESULT:      -7.9      3.369      6.565
  Name = 
  1 active torsions:
  status: ('A' for Active; 'I' for Inactive)
    1  A    between atoms: C_9  and  C_15
                            x       y       z     vdW  Elec       q    Type
                         _______ _______ _______ _____ _____    ______ ____

>  <TORSDO>
F 1

$$$$
=
 OpenBabel11052423163D

 27 31  0  0  1  0  0  0  0  0999 V2000
  161.6080  206.7540  153.0090 N   0  0  0  0  0  2  0  0  0  0  0  0
  161.1070  207.6910  150.7330 C   0  0  1  0  0  3  0  0  0  0  0  0
  160.4580  209.4050  152.3860 N   0  0  0  0  0  2  0  0  0  0  0  0
  162.2280  210.7170  148.0490 C   0  0  0  0  0  3  0  0  0  0  0  0
  162.1990  213.0320  147.3730 O   0  0  0  0  0  1  0  0  0  0  0  0
  162.2060  207.3680  149.7170 C   0  0  0  0  0  2  0  0  0  0  0  0
  161.3840  211.4630  150.6110 C   0  0  0  0  0  3  0  0  0  0  0  0
  160.1970  209.2870  156.0910 C   0  0  0  0  0  0  0  0  0  0  0  0
  161.5870  212.4370  149.6290 C   0  0  0  0  0  3  0  0  0  0  0  0
  159.7060  210.0590  157.0900 F   0  0  0  0  0  0  0  0  0  0  0  0
  161.5810  210.1090  150.3120 C   0  0  0  0  0  0  0  0  0  0  0  0
  160.8500  206.5840  151.7720 C   0  0  1  0  0  3  0  0  0  0  0  0
  162.0030  212.0640  148.3490 C   0  0  0  0  0  0  0  0  0  0  0  0
  162.0310  209.7390  149.0280 C   0  0  0  0  0  0  0  0  0  0  0  0
  161.1990  207.6770  154.0260 C   0  0  0  0  0  0  0  0  0  0  0  0
  161.4370  209.0440  151.3690 C   0  0  2  0  0  3  0  0  0  0  0  0
  160.0260  209.6760  154.7620 C   0  0  0  0  0  3  0  0  0  0  0  0
  162.2590  208.3910  148.7200 O   0  0  0  0  0  0  0  0  0  0  0  0
  160.8960  208.1170  156.3940 C   0  0  0  0  0  3  0  0  0  0  0  0
  161.3910  207.3140  155.3630 C   0  0  0  0  0  3  0  0  0  0  0  0
  160.5350  208.8920  153.7210 C   0  0  0  0  0  0  0  0  0  0  0  0
  161.0900  202.5840  150.3110 N   0  0  0  0  0  0  0  0  0  0  0  0
  160.9480  205.1850  151.2410 C   0  0  0  0  0  0  0  0  0  0  0  0
  161.2060  204.1340  152.1250 C   0  0  0  0  0  3  0  0  0  0  0  0
  161.2760  202.8280  151.6360 C   0  0  0  0  0  3  0  0  0  0  0  0
  160.8310  203.5890  149.4320 C   0  0  0  0  0  3  0  0  0  0  0  0
  160.7520  204.9100  149.8810 C   0  0  0  0  0  3  0  0  0  0  0  0
  1 15  1  0  0  0  0
  2  6  1  6  0  0  0
  2 16  1  0  0  0  0
  2 12  1  0  0  0  0
  3 21  1  0  0  0  0
  4 13  2  0  0  0  0
  4 14  1  0  0  0  0
  5 13  1  0  0  0  0
  8 19  1  0  0  0  0
  8 10  1  0  0  0  0
  9  7  2  0  0  0  0
 11  7  1  0  0  0  0
 12 23  1  6  0  0  0
 12  1  1  0  0  0  0
 13  9  1  0  0  0  0
 14 11  2  0  0  0  0
 15 20  1  0  0  0  0
 16 11  1  6  0  0  0
 16  3  1  0  0  0  0
 17  8  2  0  0  0  0
 18 14  1  0  0  0  0
 18  6  1  0  0  0  0
 20 19  2  0  0  0  0
 21 15  2  0  0  0  0
 21 17  1  0  0  0  0
 22 25  1  0  0  0  0
 23 24  1  0  0  0  0
 25 24  2  0  0  0  0
 26 27  1  0  0  0  0
 26 22  2  0  0  0  0
 27 23  2  0  0  0  0
M  END
>  <MODEL>
3

>  <REMARK>
 VINA RESULT:      -7.7      3.338      6.661
  Name = 
  1 active torsions:
  status: ('A' for Active; 'I' for Inactive)
    1  A    between atoms: C_9  and  C_15
                            x       y       z     vdW  Elec       q    Type
                         _______ _______ _______ _____ _____    ______ ____

>  <TORSDO>
F 1

$$$$
=
 OpenBabel11052423163D

 27 31  0  0  1  0  0  0  0  0999 V2000
  160.7980  210.1320  151.2870 N   0  0  0  0  0  2  0  0  0  0  0  0
  161.8790  208.5170  149.6950 C   0  0  1  0  0  3  0  0  0  0  0  0
  161.7590  207.4030  151.8950 N   0  0  0  0  0  2  0  0  0  0  0  0
  161.3120  204.8150  147.8010 C   0  0  0  0  0  3  0  0  0  0  0  0
  161.2760  202.4050  147.8840 O   0  0  0  0  0  1  0  0  0  0  0  0
  161.2060  208.5190  148.3210 C   0  0  0  0  0  2  0  0  0  0  0  0
  161.2030  204.9040  150.5970 C   0  0  0  0  0  3  0  0  0  0  0  0
  160.8430  208.6820  155.2630 C   0  0  0  0  0  0  0  0  0  0  0  0
  161.2060  203.6730  149.9350 C   0  0  0  0  0  3  0  0  0  0  0  0
  160.8950  208.2580  156.5480 F   0  0  0  0  0  0  0  0  0  0  0  0
  161.2760  206.0970  149.8660 C   0  0  0  0  0  0  0  0  0  0  0  0
  161.9240  209.8910  150.3890 C   0  0  1  0  0  3  0  0  0  0  0  0
  161.2660  203.6280  148.5390 C   0  0  0  0  0  0  0  0  0  0  0  0
  161.3040  206.0490  148.4570 C   0  0  0  0  0  0  0  0  0  0  0  0
  160.7490  209.5720  152.6050 C   0  0  0  0  0  0  0  0  0  0  0  0
  161.2040  207.4390  150.5490 C   0  0  2  0  0  3  0  0  0  0  0  0
  161.3790  207.8900  154.2450 C   0  0  0  0  0  3  0  0  0  0  0  0
  161.3500  207.2340  147.7100 O   0  0  0  0  0  0  0  0  0  0  0  0
  160.2300  209.8980  154.9530 C   0  0  0  0  0  3  0  0  0  0  0  0
  160.1880  210.3410  153.6300 C   0  0  0  0  0  3  0  0  0  0  0  0
  161.3250  208.3130  152.9130 C   0  0  0  0  0  0  0  0  0  0  0  0
  162.6070  213.2350  147.8300 N   0  0  0  0  0  0  0  0  0  0  0  0
  162.1690  211.0520  149.4710 C   0  0  0  0  0  0  0  0  0  0  0  0
  161.2760  212.1270  149.4750 C   0  0  0  0  0  3  0  0  0  0  0  0
  161.5140  213.2190  148.6380 C   0  0  0  0  0  3  0  0  0  0  0  0
  163.4940  212.2030  147.8130 C   0  0  0  0  0  3  0  0  0  0  0  0
  163.2930  211.0930  148.6360 C   0  0  0  0  0  3  0  0  0  0  0  0
  1 15  1  0  0  0  0
  2  6  1  6  0  0  0
  2 12  1  0  0  0  0
  2 16  1  0  0  0  0
  3 21  1  0  0  0  0
  4 14  2  0  0  0  0
  4 13  1  0  0  0  0
  5 13  1  0  0  0  0
  8 10  1  0  0  0  0
  9  7  1  0  0  0  0
 11  7  2  0  0  0  0
 12 23  1  6  0  0  0
 12  1  1  0  0  0  0
 13  9  2  0  0  0  0
 14 11  1  0  0  0  0
 15 21  2  0  0  0  0
 15 20  1  0  0  0  0
 16 11  1  6  0  0  0
 16  3  1  0  0  0  0
 17  8  2  0  0  0  0
 18  6  1  0  0  0  0
 18 14  1  0  0  0  0
 19  8  1  0  0  0  0
 20 19  2  0  0  0  0
 21 17  1  0  0  0  0
 22 25  1  0  0  0  0
 23 24  1  0  0  0  0
 25 24  2  0  0  0  0
 26 22  2  0  0  0  0
 26 27  1  0  0  0  0
 27 23  2  0  0  0  0
M  END
>  <MODEL>
4

>  <REMARK>
 VINA RESULT:      -7.6      2.845      5.547
  Name = 
  1 active torsions:
  status: ('A' for Active; 'I' for Inactive)
    1  A    between atoms: C_9  and  C_15
                            x       y       z     vdW  Elec       q    Type
                         _______ _______ _______ _____ _____    ______ ____

>  <TORSDO>
F 1

$$$$
=
 OpenBabel11052423163D

 27 31  0  0  1  0  0  0  0  0999 V2000
  160.5820  208.7880  151.9540 N   0  0  0  0  0  2  0  0  0  0  0  0
  161.6050  207.1330  150.3650 C   0  0  1  0  0  3  0  0  0  0  0  0
  161.5990  206.0880  152.6020 N   0  0  0  0  0  2  0  0  0  0  0  0
  160.9900  203.3680  148.6150 C   0  0  0  0  0  3  0  0  0  0  0  0
  160.9830  200.9610  148.7760 O   0  0  0  0  0  1  0  0  0  0  0  0
  160.8690  207.0850  149.0240 C   0  0  0  0  0  2  0  0  0  0  0  0
  161.0100  203.5440  151.4090 C   0  0  0  0  0  3  0  0  0  0  0  0
  160.8270  207.4650  155.9670 C   0  0  0  0  0  0  0  0  0  0  0  0
  160.9950  202.2930  150.7870 C   0  0  0  0  0  3  0  0  0  0  0  0
  160.9430  207.0820  157.2610 F   0  0  0  0  0  0  0  0  0  0  0  0
  161.0360  204.7140  150.6390 C   0  0  0  0  0  0  0  0  0  0  0  0
  161.6670  208.5290  151.0120 C   0  0  1  0  0  3  0  0  0  0  0  0
  160.9910  202.2050  149.3920 C   0  0  0  0  0  0  0  0  0  0  0  0
  160.9990  204.6220  149.2320 C   0  0  0  0  0  0  0  0  0  0  0  0
  160.6000  208.2690  153.2900 C   0  0  0  0  0  0  0  0  0  0  0  0
  160.9810  206.0770  151.2820 C   0  0  2  0  0  3  0  0  0  0  0  0
  161.3240  206.6460  154.9510 C   0  0  0  0  0  3  0  0  0  0  0  0
  160.9980  205.7830  148.4480 O   0  0  0  0  0  0  0  0  0  0  0  0
  160.1870  208.6650  155.6490 C   0  0  0  0  0  3  0  0  0  0  0  0
  160.0800  209.0660  154.3150 C   0  0  0  0  0  3  0  0  0  0  0  0
  161.2030  207.0260  153.6100 C   0  0  0  0  0  0  0  0  0  0  0  0
  162.2380  211.7870  148.3180 N   0  0  0  0  0  0  0  0  0  0  0  0
  161.8560  209.6630  150.0480 C   0  0  0  0  0  0  0  0  0  0  0  0
  161.5980  210.9690  150.4690 C   0  0  0  0  0  3  0  0  0  0  0  0
  161.7950  212.0280  149.5810 C   0  0  0  0  0  3  0  0  0  0  0  0
  162.5020  210.5240  147.8860 C   0  0  0  0  0  3  0  0  0  0  0  0
  162.3190  209.4370  148.7450 C   0  0  0  0  0  3  0  0  0  0  0  0
  1 15  1  0  0  0  0
  2  6  1  6  0  0  0
  2 12  1  0  0  0  0
  2 16  1  0  0  0  0
  3 21  1  0  0  0  0
  4 14  2  0  0  0  0
  4 13  1  0  0  0  0
  5 13  1  0  0  0  0
  8 10  1  0  0  0  0
  9  7  1  0  0  0  0
 11  7  2  0  0  0  0
 12 23  1  6  0  0  0
 12  1  1  0  0  0  0
 13  9  2  0  0  0  0
 14 11  1  0  0  0  0
 15 21  2  0  0  0  0
 15 20  1  0  0  0  0
 16 11  1  6  0  0  0
 16  3  1  0  0  0  0
 17  8  2  0  0  0  0
 18  6  1  0  0  0  0
 18 14  1  0  0  0  0
 19  8  1  0  0  0  0
 20 19  2  0  0  0  0
 21 17  1  0  0  0  0
 22 25  1  0  0  0  0
 23 24  1  0  0  0  0
 25 24  2  0  0  0  0
 26 22  2  0  0  0  0
 26 27  1  0  0  0  0
 27 23  2  0  0  0  0
M  END
>  <MODEL>
5

>  <REMARK>
 VINA RESULT:      -7.3      2.641      5.234
  Name = 
  1 active torsions:
  status: ('A' for Active; 'I' for Inactive)
    1  A    between atoms: C_9  and  C_15
                            x       y       z     vdW  Elec       q    Type
                         _______ _______ _______ _____ _____    ______ ____

>  <TORSDO>
F 1

$$$$
=
 OpenBabel11052423163D

 27 31  0  0  1  0  0  0  0  0999 V2000
  162.1040  208.8760  151.8770 N   0  0  0  0  0  2  0  0  0  0  0  0
  160.8580  206.7010  151.7070 C   0  0  1  0  0  3  0  0  0  0  0  0
  160.9500  207.6680  149.4370 N   0  0  0  0  0  2  0  0  0  0  0  0
  161.0850  202.8460  150.0640 C   0  0  0  0  0  3  0  0  0  0  0  0
  160.9360  201.3680  148.1630 O   0  0  0  0  0  1  0  0  0  0  0  0
  161.4920  205.6010  152.5620 C   0  0  0  0  0  2  0  0  0  0  0  0
  161.2750  205.0380  148.3330 C   0  0  0  0  0  3  0  0  0  0  0  0
  162.0530  211.0010  148.2170 C   0  0  0  0  0  0  0  0  0  0  0  0
  161.1590  203.7440  147.8150 C   0  0  0  0  0  3  0  0  0  0  0  0
  162.0030  211.7190  147.0690 F   0  0  0  0  0  0  0  0  0  0  0  0
  161.2760  205.2440  149.7190 C   0  0  0  0  0  0  0  0  0  0  0  0
  160.9380  208.1130  152.3160 C   0  0  1  0  0  3  0  0  0  0  0  0
  161.0580  202.6510  148.6790 C   0  0  0  0  0  0  0  0  0  0  0  0
  161.2060  204.1350  150.5870 C   0  0  0  0  0  0  0  0  0  0  0  0
  162.1440  209.5250  150.6000 C   0  0  0  0  0  0  0  0  0  0  0  0
  161.4700  206.6200  150.3060 C   0  0  2  0  0  3  0  0  0  0  0  0
  161.4300  209.7530  148.2860 C   0  0  0  0  0  3  0  0  0  0  0  0
  161.2320  204.3230  151.9760 O   0  0  0  0  0  0  0  0  0  0  0  0
  162.7500  211.4960  149.3200 C   0  0  0  0  0  3  0  0  0  0  0  0
  162.7900  210.7620  150.5070 C   0  0  0  0  0  3  0  0  0  0  0  0
  161.4810  208.9980  149.4630 C   0  0  0  0  0  0  0  0  0  0  0  0
  160.4770  208.2190  156.5550 N   0  0  0  0  0  0  0  0  0  0  0  0
  160.7600  208.1680  153.8050 C   0  0  0  0  0  0  0  0  0  0  0  0
  160.5760  206.9800  154.5160 C   0  0  0  0  0  3  0  0  0  0  0  0
  160.4320  207.0260  155.9040 C   0  0  0  0  0  3  0  0  0  0  0  0
  160.6620  209.3890  155.8860 C   0  0  0  0  0  3  0  0  0  0  0  0
  160.8100  209.3850  154.4970 C   0  0  0  0  0  3  0  0  0  0  0  0
  1 12  1  0  0  0  0
  2 12  1  0  0  0  0
  2  6  1  1  0  0  0
  3 21  1  0  0  0  0
  4 14  1  0  0  0  0
  5 13  1  0  0  0  0
  7 11  1  0  0  0  0
  8 17  2  0  0  0  0
  8 19  1  0  0  0  0
  9  7  2  0  0  0  0
  9 13  1  0  0  0  0
 10  8  1  0  0  0  0
 11 16  1  0  0  0  0
 11 14  2  0  0  0  0
 12 23  1  1  0  0  0
 13  4  2  0  0  0  0
 14 18  1  0  0  0  0
 15  1  1  0  0  0  0
 16  3  1  6  0  0  0
 16  2  1  0  0  0  0
 17 21  1  0  0  0  0
 18  6  1  0  0  0  0
 19 20  2  0  0  0  0
 20 15  1  0  0  0  0
 21 15  2  0  0  0  0
 23 27  2  0  0  0  0
 23 24  1  0  0  0  0
 24 25  2  0  0  0  0
 25 22  1  0  0  0  0
 26 22  2  0  0  0  0
 27 26  1  0  0  0  0
M  END
>  <MODEL>
6

>  <REMARK>
 VINA RESULT:      -6.9      0.665      1.105
  Name = 
  1 active torsions:
  status: ('A' for Active; 'I' for Inactive)
    1  A    between atoms: C_9  and  C_15
                            x       y       z     vdW  Elec       q    Type
                         _______ _______ _______ _____ _____    ______ ____

>  <TORSDO>
F 1

$$$$
=
 OpenBabel11052423163D

 27 31  0  0  1  0  0  0  0  0999 V2000
  160.5120  211.4280  151.4070 N   0  0  0  0  0  2  0  0  0  0  0  0
  161.7900  209.3900  150.6810 C   0  0  1  0  0  3  0  0  0  0  0  0
  161.5570  209.2690  153.1360 N   0  0  0  0  0  2  0  0  0  0  0  0
  161.5520  205.2050  150.4610 C   0  0  0  0  0  3  0  0  0  0  0  0
  161.6280  203.0450  151.5320 O   0  0  0  0  0  1  0  0  0  0  0  0
  161.2250  208.7780  149.3970 C   0  0  0  0  0  2  0  0  0  0  0  0
  161.2250  206.4220  152.9610 C   0  0  0  0  0  3  0  0  0  0  0  0
  160.3240  211.7400  155.6230 C   0  0  0  0  0  0  0  0  0  0  0  0
  161.3390  205.0320  152.8680 C   0  0  0  0  0  3  0  0  0  0  0  0
  160.2980  211.8840  156.9700 F   0  0  0  0  0  0  0  0  0  0  0  0
  161.2950  207.2140  151.8070 C   0  0  0  0  0  0  0  0  0  0  0  0
  161.7140  210.9270  150.7450 C   0  0  1  0  0  3  0  0  0  0  0  0
  161.5080  204.4250  151.6210 C   0  0  0  0  0  0  0  0  0  0  0  0
  161.4330  206.5950  150.5470 C   0  0  0  0  0  0  0  0  0  0  0  0
  160.3900  211.4530  152.8340 C   0  0  0  0  0  0  0  0  0  0  0  0
  161.1050  208.7080  151.8690 C   0  0  2  0  0  3  0  0  0  0  0  0
  160.9740  210.6450  155.0520 C   0  0  0  0  0  3  0  0  0  0  0  0
  161.4780  207.3710  149.3800 O   0  0  0  0  0  0  0  0  0  0  0  0
  159.6770  212.6720  154.8090 C   0  0  0  0  0  3  0  0  0  0  0  0
  159.7150  212.5300  153.4200 C   0  0  0  0  0  3  0  0  0  0  0  0
  161.0020  210.4800  153.6630 C   0  0  0  0  0  0  0  0  0  0  0  0
  162.4250  212.9710  147.0700 N   0  0  0  0  0  0  0  0  0  0  0  0
  161.9710  211.6260  149.4430 C   0  0  0  0  0  0  0  0  0  0  0  0
  161.0180  212.5180  148.9460 C   0  0  0  0  0  3  0  0  0  0  0  0
  161.2640  213.1860  147.7450 C   0  0  0  0  0  3  0  0  0  0  0  0
  163.3710  212.1120  147.5370 C   0  0  0  0  0  3  0  0  0  0  0  0
  163.1630  211.4250  148.7340 C   0  0  0  0  0  3  0  0  0  0  0  0
  1 15  1  0  0  0  0
  2  6  1  6  0  0  0
  2 12  1  0  0  0  0
  2 16  1  0  0  0  0
  3 21  1  0  0  0  0
  4 14  2  0  0  0  0
  4 13  1  0  0  0  0
  5 13  1  0  0  0  0
  8 10  1  0  0  0  0
  9  7  1  0  0  0  0
 11  7  2  0  0  0  0
 12 23  1  6  0  0  0
 12  1  1  0  0  0  0
 13  9  2  0  0  0  0
 14 11  1  0  0  0  0
 15 20  2  0  0  0  0
 15 21  1  0  0  0  0
 16 11  1  1  0  0  0
 16  3  1  0  0  0  0
 17  8  1  0  0  0  0
 18  6  1  0  0  0  0
 18 14  1  0  0  0  0
 19  8  2  0  0  0  0
 20 19  1  0  0  0  0
 21 17  2  0  0  0  0
 22 26  2  0  0  0  0
 22 25  1  0  0  0  0
 24 23  1  0  0  0  0
 25 24  2  0  0  0  0
 26 27  1  0  0  0  0
 27 23  2  0  0  0  0
M  END
>  <MODEL>
7

>  <REMARK>
 VINA RESULT:      -6.8      3.114      5.993
  Name = 
  1 active torsions:
  status: ('A' for Active; 'I' for Inactive)
    1  A    between atoms: C_9  and  C_15
                            x       y       z     vdW  Elec       q    Type
                         _______ _______ _______ _____ _____    ______ ____

>  <TORSDO>
F 1

$$$$
=
 OpenBabel11052423163D

 27 31  0  0  1  0  0  0  0  0999 V2000
  161.7270  208.8620  152.9570 N   0  0  0  0  0  2  0  0  0  0  0  0
  161.1040  209.4990  150.6080 C   0  0  1  0  0  3  0  0  0  0  0  0
  160.4210  211.3640  152.0750 N   0  0  0  0  0  2  0  0  0  0  0  0
  161.9770  212.2380  147.5500 C   0  0  0  0  0  3  0  0  0  0  0  0
  161.8050  214.4530  146.6120 O   0  0  0  0  0  1  0  0  0  0  0  0
  162.1840  209.1120  149.5950 C   0  0  0  0  0  2  0  0  0  0  0  0
  161.1800  213.2400  150.0390 C   0  0  0  0  0  3  0  0  0  0  0  0
  160.2880  211.6710  155.7770 C   0  0  0  0  0  0  0  0  0  0  0  0
  161.3000  214.1000  148.9440 C   0  0  0  0  0  3  0  0  0  0  0  0
  159.7910  212.5310  156.6970 F   0  0  0  0  0  0  0  0  0  0  0  0
  161.4380  211.8710  149.8910 C   0  0  0  0  0  0  0  0  0  0  0  0
  160.9390  208.5120  151.7790 C   0  0  1  0  0  3  0  0  0  0  0  0
  161.6930  213.5990  147.7000 C   0  0  0  0  0  0  0  0  0  0  0  0
  161.8640  211.3740  148.6420 C   0  0  0  0  0  0  0  0  0  0  0  0
  161.3050  209.8780  153.8740 C   0  0  0  0  0  0  0  0  0  0  0  0
  161.3840  210.9320  151.0700 C   0  0  2  0  0  3  0  0  0  0  0  0
  160.0540  211.8920  154.4180 C   0  0  0  0  0  3  0  0  0  0  0  0
  162.1510  210.0110  148.4850 O   0  0  0  0  0  0  0  0  0  0  0  0
  161.0570  210.5800  156.1850 C   0  0  0  0  0  3  0  0  0  0  0  0
  161.5590  209.6850  155.2370 C   0  0  0  0  0  3  0  0  0  0  0  0
  160.5680  211.0160  153.4570 C   0  0  0  0  0  0  0  0  0  0  0  0
  161.3990  204.4190  150.6700 N   0  0  0  0  0  0  0  0  0  0  0  0
  161.0920  207.0660  151.4100 C   0  0  0  0  0  0  0  0  0  0  0  0
  160.6420  206.6270  150.1620 C   0  0  0  0  0  3  0  0  0  0  0  0
  160.8040  205.2860  149.8080 C   0  0  0  0  0  3  0  0  0  0  0  0
  161.8520  204.8240  151.8870 C   0  0  0  0  0  3  0  0  0  0  0  0
  161.7090  206.1570  152.2790 C   0  0  0  0  0  3  0  0  0  0  0  0
  1 15  1  0  0  0  0
  2  6  1  6  0  0  0
  2 16  1  0  0  0  0
  2 12  1  0  0  0  0
  3 21  1  0  0  0  0
  4 13  2  0  0  0  0
  4 14  1  0  0  0  0
  5 13  1  0  0  0  0
  8 19  1  0  0  0  0
  8 10  1  0  0  0  0
  9  7  2  0  0  0  0
 11  7  1  0  0  0  0
 12 23  1  6  0  0  0
 12  1  1  0  0  0  0
 13  9  1  0  0  0  0
 14 11  2  0  0  0  0
 15 20  1  0  0  0  0
 16 11  1  6  0  0  0
 16  3  1  0  0  0  0
 17  8  2  0  0  0  0
 18 14  1  0  0  0  0
 18  6  1  0  0  0  0
 20 19  2  0  0  0  0
 21 15  2  0  0  0  0
 21 17  1  0  0  0  0
 22 26  1  0  0  0  0
 23 27  1  0  0  0  0
 24 23  2  0  0  0  0
 25 24  1  0  0  0  0
 25 22  2  0  0  0  0
 26 27  2  0  0  0  0
M  END
>  <MODEL>
8

>  <REMARK>
 VINA RESULT:      -5.9      3.798      7.058
  Name = 
  1 active torsions:
  status: ('A' for Active; 'I' for Inactive)
    1  A    between atoms: C_9  and  C_15
                            x       y       z     vdW  Elec       q    Type
                         _______ _______ _______ _____ _____    ______ ____

>  <TORSDO>
F 1

$$$$
=
 OpenBabel11052423163D

 27 31  0  0  1  0  0  0  0  0999 V2000
  161.1140  208.7720  147.8140 N   0  0  0  0  0  2  0  0  0  0  0  0
  161.8020  207.3250  149.7500 C   0  0  1  0  0  3  0  0  0  0  0  0
  162.2070  209.6690  150.4110 N   0  0  0  0  0  2  0  0  0  0  0  0
  160.8310  206.3830  153.7230 C   0  0  0  0  0  3  0  0  0  0  0  0
  160.8300  206.9480  156.0680 O   0  0  0  0  0  1  0  0  0  0  0  0
  160.8270  206.1700  149.9870 C   0  0  0  0  0  2  0  0  0  0  0  0
  161.3790  209.0550  153.0900 C   0  0  0  0  0  3  0  0  0  0  0  0
  162.0970  212.8360  148.4670 C   0  0  0  0  0  0  0  0  0  0  0  0
  161.2340  208.6670  154.4250 C   0  0  0  0  0  3  0  0  0  0  0  0
  162.4500  214.1320  148.6360 F   0  0  0  0  0  0  0  0  0  0  0  0
  161.2710  208.1050  152.0640 C   0  0  0  0  0  0  0  0  0  0  0  0
  162.0000  207.7040  148.2700 C   0  0  1  0  0  3  0  0  0  0  0  0
  160.9670  207.3320  154.7410 C   0  0  0  0  0  0  0  0  0  0  0  0
  160.9690  206.7660  152.3860 C   0  0  0  0  0  0  0  0  0  0  0  0
  161.3780  210.1490  148.1070 C   0  0  0  0  0  0  0  0  0  0  0  0
  161.3520  208.5070  150.6130 C   0  0  2  0  0  3  0  0  0  0  0  0
  162.3850  211.8990  149.4620 C   0  0  0  0  0  3  0  0  0  0  0  0
  160.8320  205.8100  151.3710 O   0  0  0  0  0  0  0  0  0  0  0  0
  161.4210  212.4420  147.3110 C   0  0  0  0  0  3  0  0  0  0  0  0
  161.0680  211.1030  147.1310 C   0  0  0  0  0  3  0  0  0  0  0  0
  162.0180  210.5590  149.3040 C   0  0  0  0  0  0  0  0  0  0  0  0
  162.0280  204.4450  145.5180 N   0  0  0  0  0  0  0  0  0  0  0  0
  162.0150  206.5430  147.3190 C   0  0  0  0  0  0  0  0  0  0  0  0
  160.9640  206.3880  146.4130 C   0  0  0  0  0  3  0  0  0  0  0  0
  160.9880  205.3210  145.5120 C   0  0  0  0  0  3  0  0  0  0  0  0
  163.0660  204.5800  146.3860 C   0  0  0  0  0  3  0  0  0  0  0  0
  163.0810  205.6330  147.3020 C   0  0  0  0  0  3  0  0  0  0  0  0
  1 15  1  0  0  0  0
  1 12  1  0  0  0  0
  2  6  1  6  0  0  0
  2 16  1  0  0  0  0
  4 13  1  0  0  0  0
  6 18  1  0  0  0  0
  7  9  1  0  0  0  0
  8 10  1  0  0  0  0
  8 17  1  0  0  0  0
  9 13  2  0  0  0  0
 11 14  1  0  0  0  0
 11  7  2  0  0  0  0
 12 23  1  6  0  0  0
 12  2  1  0  0  0  0
 13  5  1  0  0  0  0
 14  4  2  0  0  0  0
 15 21  1  0  0  0  0
 16  3  1  1  0  0  0
 16 11  1  0  0  0  0
 18 14  1  0  0  0  0
 19  8  2  0  0  0  0
 20 19  1  0  0  0  0
 20 15  2  0  0  0  0
 21 17  2  0  0  0  0
 21  3  1  0  0  0  0
 22 26  1  0  0  0  0
 24 23  2  0  0  0  0
 25 22  2  0  0  0  0
 25 24  1  0  0  0  0
 26 27  2  0  0  0  0
 27 23  1  0  0  0  0
M  END
>  <MODEL>
9

>  <REMARK>
 VINA RESULT:      -5.8      2.595      6.209
  Name = 
  1 active torsions:
  status: ('A' for Active; 'I' for Inactive)
    1  A    between atoms: C_9  and  C_15
                            x       y       z     vdW  Elec       q    Type
                         _______ _______ _______ _____ _____    ______ ____

>  <TORSDO>
F 1

$$$$
