=
 OpenBabel11052421453D

 30 32  0  0  1  0  0  0  0  0999 V2000
  160.4410  209.8730  152.2070 C   0  0  1  0  0  3  0  0  0  0  0  0
  161.1130  208.0880  150.7200 C   0  0  2  0  0  3  0  0  0  0  0  0
  160.3610  210.0780  153.6920 C   0  0  1  0  0  3  0  0  0  0  0  0
  161.0150  211.1530  151.6260 C   0  0  0  0  0  2  0  0  0  0  0  0
  158.5470  213.3980  153.4110 O   0  0  0  0  0  1  0  0  0  0  0  0
  159.3340  212.2900  153.1130 C   0  0  0  0  0  0  0  0  0  0  0  0
  160.1310  212.3300  152.0150 C   0  0  0  0  0  0  0  0  0  0  0  0
  159.2220  211.0430  153.9960 C   0  0  2  0  0  3  0  0  0  0  0  0
  161.7110  206.6620  150.6530 C   0  0  0  0  0  2  0  0  0  0  0  0
  161.7450  208.8820  149.7600 O   0  0  0  0  0  1  0  0  0  0  0  0
  161.1530  205.7100  154.0350 O   0  0  0  0  0  0  0  0  0  0  0  0
  162.8140  206.2690  152.0680 S   0  0  0  0  0  0  0  0  0  0  0  0
  161.2740  208.6940  152.0510 N   0  0  2  0  0  0  0  0  0  0  0  0
  160.2840  208.6740  154.2670 C   0  0  1  0  0  3  0  0  0  0  0  0
  161.4850  206.5700  153.2360 C   0  0  0  0  0  0  0  0  0  0  0  0
  160.6680  207.8140  153.0510 C   0  0  2  0  0  3  0  0  0  0  0  0
  160.2890  212.2960  155.9400 C   0  0  0  0  0  1  0  0  0  0  0  0
  159.1760  211.3520  155.5000 C   0  0  1  0  0  3  0  0  0  0  0  0
  157.8070  211.8770  155.9120 C   0  0  0  0  0  2  0  0  0  0  0  0
  156.6970  210.9650  155.4140 C   0  0  0  0  0  2  0  0  0  0  0  0
  155.7630  211.6980  154.6810 O   0  0  0  0  0  1  0  0  0  0  0  0
  160.1530  213.4990  151.2480 O   0  0  0  0  0  0  0  0  0  0  0  0
  159.6730  213.5450  149.9130 C   0  0  0  0  0  2  0  0  0  0  0  0
  160.8420  213.6810  148.9610 C   0  0  0  0  0  1  0  0  0  0  0  0
  161.2220  208.5240  155.3910 N   0  0  0  0  0  0  0  0  0  0  0  0
  160.8710  207.7320  156.5340 C   0  0  0  0  0  3  0  0  0  0  0  0
  159.6940  207.1270  156.6460 C   0  0  0  0  0  2  0  0  0  0  0  0
  162.3300  209.3090  155.4710 O   0  0  0  0  0  0  0  0  0  0  0  0
  163.4050  210.6430  156.9740 O   0  0  0  0  0  1  0  0  0  0  0  0
  162.5040  209.5890  156.8300 C   0  0  0  0  0  2  0  0  0  0  0  0
  1  4  1  6  0  0  0
  1  3  1  0  0  0  0
  2 10  1  6  0  0  0
  2 13  1  0  0  0  0
  3  8  1  0  0  0  0
  3 14  1  0  0  0  0
  4  7  1  0  0  0  0
  6  5  1  0  0  0  0
  6  8  1  0  0  0  0
  7  6  2  0  0  0  0
  8 18  1  0  0  0  0
  9  2  1  0  0  0  0
  9 12  1  0  0  0  0
 12 15  1  0  0  0  0
 13  1  1  0  0  0  0
 13 16  1  0  0  0  0
 14 25  1  0  0  0  0
 15 11  2  0  0  0  0
 16 15  1  0  0  0  0
 16 14  1  0  0  0  0
 18 19  1  0  0  0  0
 18 17  1  0  0  0  0
 20 19  1  0  0  0  0
 21 20  1  0  0  0  0
 22  7  1  0  0  0  0
 23 22  1  0  0  0  0
 24 23  1  0  0  0  0
 25 28  1  0  0  0  0
 25 26  1  0  0  0  0
 26 27  2  0  0  0  0
 28 30  1  0  0  0  0
 30 29  1  0  0  0  0
M  END
>  <MODEL>
1

>  <REMARK>
 VINA RESULT:      -4.6      0.000      0.000
  Name = 
  9 active torsions:
  status: ('A' for Active; 'I' for Inactive)
    1  A    between atoms: C_7  and  C_16
    2  A    between atoms: C_7  and  C_30
    3  A    between atoms: O_9  and  C_12
    4  A    between atoms: O_9  and  C_17
    5  A    between atoms: C_10  and  N_25
    6  A    between atoms: C_11  and  O_24
    7  A    between atoms: C_13  and  C_30
    8  A    between atoms: C_23  and  N_25
    9  A    between atoms: O_24  and  N_25
                            x       y       z     vdW  Elec       q    Type
                         _______ _______ _______ _____ _____    ______ ____

>  <TORSDO>
F 9

$$$$
=
 OpenBabel11052421453D

 30 32  0  0  1  0  0  0  0  0999 V2000
  160.5430  210.5550  152.7080 C   0  0  1  0  0  3  0  0  0  0  0  0
  160.6100  212.5000  151.2730 C   0  0  2  0  0  3  0  0  0  0  0  0
  159.8550  210.1700  153.9860 C   0  0  1  0  0  3  0  0  0  0  0  0
  160.4520  209.3490  151.7900 C   0  0  0  0  0  2  0  0  0  0  0  0
  161.7930  206.9310  154.3730 O   0  0  0  0  0  1  0  0  0  0  0  0
  161.1950  208.0580  153.8170 C   0  0  0  0  0  0  0  0  0  0  0  0
  161.0900  208.1440  152.4670 C   0  0  0  0  0  0  0  0  0  0  0  0
  160.7390  209.1880  154.7450 C   0  0  2  0  0  3  0  0  0  0  0  0
  160.0300  213.9170  151.0430 C   0  0  0  0  0  2  0  0  0  0  0  0
  160.6300  211.8230  150.0520 O   0  0  0  0  0  1  0  0  0  0  0  0
  158.6770  214.4530  154.2890 O   0  0  0  0  0  0  0  0  0  0  0  0
  158.3270  214.1200  151.6990 S   0  0  0  0  0  0  0  0  0  0  0  0
  159.8270  211.7340  152.2550 N   0  0  2  0  0  0  0  0  0  0  0  0
  159.5170  211.4940  154.6500 C   0  0  1  0  0  3  0  0  0  0  0  0
  158.8740  213.6930  153.3550 C   0  0  0  0  0  0  0  0  0  0  0  0
  159.7580  212.4920  153.5040 C   0  0  2  0  0  3  0  0  0  0  0  0
  159.6210  207.2290  155.9280 C   0  0  0  0  0  1  0  0  0  0  0  0
  160.0200  208.6980  156.0110 C   0  0  1  0  0  3  0  0  0  0  0  0
  160.8490  208.9800  157.2580 C   0  0  0  0  0  2  0  0  0  0  0  0
  162.2640  209.3990  156.8930 C   0  0  0  0  0  2  0  0  0  0  0  0
  162.4810  210.7290  157.2540 O   0  0  0  0  0  1  0  0  0  0  0  0
  161.5560  207.0770  151.6920 O   0  0  0  0  0  0  0  0  0  0  0  0
  161.6110  207.1310  150.2740 C   0  0  0  0  0  2  0  0  0  0  0  0
  160.9040  205.9240  149.6960 C   0  0  0  0  0  1  0  0  0  0  0  0
  158.1240  211.4930  155.1230 N   0  0  0  0  0  0  0  0  0  0  0  0
  157.8130  211.8470  156.4790 C   0  0  0  0  0  3  0  0  0  0  0  0
  158.6720  212.4910  157.2610 C   0  0  0  0  0  2  0  0  0  0  0  0
  157.1400  210.9430  154.3630 O   0  0  0  0  0  0  0  0  0  0  0  0
  155.0720  210.0460  154.7000 O   0  0  0  0  0  1  0  0  0  0  0  0
  155.9750  211.0160  155.1320 C   0  0  0  0  0  2  0  0  0  0  0  0
  1  4  1  6  0  0  0
  1  3  1  0  0  0  0
  2 10  1  6  0  0  0
  2 13  1  0  0  0  0
  3 14  1  0  0  0  0
  3  8  1  0  0  0  0
  4  7  1  0  0  0  0
  6  5  1  0  0  0  0
  6  8  1  0  0  0  0
  7  6  2  0  0  0  0
  8 18  1  0  0  0  0
  9  2  1  0  0  0  0
  9 12  1  0  0  0  0
 12 15  1  0  0  0  0
 13  1  1  0  0  0  0
 13 16  1  0  0  0  0
 14 25  1  0  0  0  0
 15 16  1  0  0  0  0
 15 11  2  0  0  0  0
 16 14  1  0  0  0  0
 17 18  1  0  0  0  0
 18 19  1  0  0  0  0
 20 21  1  0  0  0  0
 20 19  1  0  0  0  0
 22  7  1  0  0  0  0
 23 22  1  0  0  0  0
 24 23  1  0  0  0  0
 25 26  1  0  0  0  0
 26 27  2  0  0  0  0
 28 25  1  0  0  0  0
 28 30  1  0  0  0  0
 29 30  1  0  0  0  0
M  END
>  <MODEL>
2

>  <REMARK>
 VINA RESULT:      -4.1      2.309      5.701
  Name = 
  9 active torsions:
  status: ('A' for Active; 'I' for Inactive)
    1  A    between atoms: C_7  and  C_16
    2  A    between atoms: C_7  and  C_30
    3  A    between atoms: O_9  and  C_12
    4  A    between atoms: O_9  and  C_17
    5  A    between atoms: C_10  and  N_25
    6  A    between atoms: C_11  and  O_24
    7  A    between atoms: C_13  and  C_30
    8  A    between atoms: C_23  and  N_25
    9  A    between atoms: O_24  and  N_25
                            x       y       z     vdW  Elec       q    Type
                         _______ _______ _______ _____ _____    ______ ____

>  <TORSDO>
F 9

$$$$
=
 OpenBabel11052421453D

 30 32  0  0  1  0  0  0  0  0999 V2000
  160.8330  206.9730  152.5890 C   0  0  1  0  0  3  0  0  0  0  0  0
  160.2480  207.6920  154.8220 C   0  0  2  0  0  3  0  0  0  0  0  0
  161.2320  207.6370  151.3030 C   0  0  1  0  0  3  0  0  0  0  0  0
  161.7430  205.7680  152.7520 C   0  0  0  0  0  2  0  0  0  0  0  0
  161.0620  204.4340  149.2780 O   0  0  0  0  0  1  0  0  0  0  0  0
  161.1760  205.3230  150.3420 C   0  0  0  0  0  0  0  0  0  0  0  0
  161.6000  204.8540  151.5430 C   0  0  0  0  0  0  0  0  0  0  0  0
  160.7540  206.7810  150.1370 C   0  0  2  0  0  3  0  0  0  0  0  0
  160.1170  208.9180  155.7580 C   0  0  0  0  0  2  0  0  0  0  0  0
  160.8970  206.6690  155.5170 O   0  0  0  0  0  1  0  0  0  0  0  0
  160.0760  211.4610  153.2700 O   0  0  0  0  0  0  0  0  0  0  0  0
  161.2530  210.2920  155.3170 S   0  0  0  0  0  0  0  0  0  0  0  0
  160.9910  208.0090  153.5940 N   0  0  2  0  0  0  0  0  0  0  0  0
  160.6940  209.0530  151.4230 C   0  0  1  0  0  3  0  0  0  0  0  0
  160.5380  210.4070  153.6750 C   0  0  0  0  0  0  0  0  0  0  0  0
  160.3360  209.1290  152.9170 C   0  0  2  0  0  3  0  0  0  0  0  0
  162.7520  207.4430  148.7020 C   0  0  0  0  0  1  0  0  0  0  0  0
  161.2320  207.3830  148.8070 C   0  0  1  0  0  3  0  0  0  0  0  0
  160.6220  206.6490  147.6200 C   0  0  0  0  0  2  0  0  0  0  0  0
  161.6760  206.3340  146.5700 C   0  0  0  0  0  2  0  0  0  0  0  0
  161.0650  205.9450  145.3770 O   0  0  0  0  0  1  0  0  0  0  0  0
  161.9400  203.5020  151.6500 O   0  0  0  0  0  0  0  0  0  0  0  0
  160.9680  202.4830  151.8280 C   0  0  0  0  0  2  0  0  0  0  0  0
  161.0230  201.5220  150.6600 C   0  0  0  0  0  1  0  0  0  0  0  0
  161.7200  210.0310  151.0310 N   0  0  0  0  0  0  0  0  0  0  0  0
  163.0640  209.9140  151.5190 C   0  0  0  0  0  3  0  0  0  0  0  0
  163.5310  210.6720  152.5060 C   0  0  0  0  0  2  0  0  0  0  0  0
  161.3680  211.1790  150.3920 O   0  0  0  0  0  0  0  0  0  0  0  0
  162.4050  212.3440  148.7300 O   0  0  0  0  0  1  0  0  0  0  0  0
  161.9250  211.0930  149.1130 C   0  0  0  0  0  2  0  0  0  0  0  0
  1  4  1  1  0  0  0
  1 13  1  0  0  0  0
  2 10  1  1  0  0  0
  2  9  1  0  0  0  0
  3 14  1  0  0  0  0
  3  1  1  0  0  0  0
  5  6  1  0  0  0  0
  6  7  2  0  0  0  0
  7 22  1  0  0  0  0
  7  4  1  0  0  0  0
  8  6  1  0  0  0  0
  8  3  1  0  0  0  0
 11 15  2  0  0  0  0
 12  9  1  0  0  0  0
 13  2  1  0  0  0  0
 14 16  1  0  0  0  0
 15 12  1  0  0  0  0
 16 13  1  0  0  0  0
 16 15  1  0  0  0  0
 17 18  1  0  0  0  0
 18  8  1  0  0  0  0
 19 18  1  0  0  0  0
 20 19  1  0  0  0  0
 21 20  1  0  0  0  0
 22 23  1  0  0  0  0
 24 23  1  0  0  0  0
 25 14  1  0  0  0  0
 25 26  1  0  0  0  0
 26 27  2  0  0  0  0
 28 25  1  0  0  0  0
 29 30  1  0  0  0  0
 30 28  1  0  0  0  0
M  END
>  <MODEL>
3

>  <REMARK>
 VINA RESULT:      -3.7      2.840      7.443
  Name = 
  9 active torsions:
  status: ('A' for Active; 'I' for Inactive)
    1  A    between atoms: C_7  and  C_16
    2  A    between atoms: C_7  and  C_30
    3  A    between atoms: O_9  and  C_12
    4  A    between atoms: O_9  and  C_17
    5  A    between atoms: C_10  and  N_25
    6  A    between atoms: C_11  and  O_24
    7  A    between atoms: C_13  and  C_30
    8  A    between atoms: C_23  and  N_25
    9  A    between atoms: O_24  and  N_25
                            x       y       z     vdW  Elec       q    Type
                         _______ _______ _______ _____ _____    ______ ____

>  <TORSDO>
F 9

$$$$
=
 OpenBabel11052421453D

 30 32  0  0  1  0  0  0  0  0999 V2000
  161.2390  210.3450  151.6270 C   0  0  1  0  0  3  0  0  0  0  0  0
  162.2420  210.6590  149.4490 C   0  0  2  0  0  3  0  0  0  0  0  0
  160.2720  211.0950  152.4960 C   0  0  1  0  0  3  0  0  0  0  0  0
  160.8460  208.8810  151.7100 C   0  0  0  0  0  2  0  0  0  0  0  0
  160.7820  208.8250  155.4930 O   0  0  0  0  0  1  0  0  0  0  0  0
  160.7380  209.3050  154.1870 C   0  0  0  0  0  0  0  0  0  0  0  0
  160.8790  208.4260  153.1630 C   0  0  0  0  0  0  0  0  0  0  0  0
  160.6010  210.8130  153.9570 C   0  0  2  0  0  3  0  0  0  0  0  0
  162.2730  211.5650  148.1940 C   0  0  0  0  0  2  0  0  0  0  0  0
  162.1930  209.3260  149.0350 O   0  0  0  0  0  1  0  0  0  0  0  0
  160.7430  214.4500  149.6060 O   0  0  0  0  0  0  0  0  0  0  0  0
  160.6900  212.4470  147.8960 S   0  0  0  0  0  0  0  0  0  0  0  0
  161.0910  210.9530  150.3170 N   0  0  2  0  0  0  0  0  0  0  0  0
  160.3550  212.5310  152.0070 C   0  0  1  0  0  3  0  0  0  0  0  0
  160.7810  213.2350  149.5060 C   0  0  0  0  0  0  0  0  0  0  0  0
  161.1210  212.3690  150.6830 C   0  0  2  0  0  3  0  0  0  0  0  0
  158.7050  210.4820  155.6250 C   0  0  0  0  0  1  0  0  0  0  0  0
  159.5690  211.4880  154.8730 C   0  0  1  0  0  3  0  0  0  0  0  0
  160.2380  212.4690  155.8270 C   0  0  0  0  0  2  0  0  0  0  0  0
  160.5940  211.7970  157.1430 C   0  0  0  0  0  2  0  0  0  0  0  0
  161.9550  211.4910  157.1740 O   0  0  0  0  0  1  0  0  0  0  0  0
  161.0260  207.0680  153.4630 O   0  0  0  0  0  0  0  0  0  0  0  0
  161.9660  206.2370  152.7980 C   0  0  0  0  0  2  0  0  0  0  0  0
  161.2690  204.9960  152.2850 C   0  0  0  0  0  1  0  0  0  0  0  0
  159.0080  213.0930  151.8220 N   0  0  0  0  0  0  0  0  0  0  0  0
  158.5870  214.2420  152.5700 C   0  0  0  0  0  3  0  0  0  0  0  0
  157.7360  214.1580  153.5860 C   0  0  0  0  0  2  0  0  0  0  0  0
  158.0680  212.4060  151.1200 O   0  0  0  0  0  0  0  0  0  0  0  0
  157.0740  212.7490  149.0970 O   0  0  0  0  0  1  0  0  0  0  0  0
  157.4360  213.3480  150.3020 C   0  0  0  0  0  2  0  0  0  0  0  0
  1  4  1  6  0  0  0
  1  3  1  0  0  0  0
  2 10  1  6  0  0  0
  2 13  1  0  0  0  0
  3  8  1  0  0  0  0
  4  7  1  0  0  0  0
  6  5  1  0  0  0  0
  7 22  1  0  0  0  0
  7  6  2  0  0  0  0
  8  6  1  0  0  0  0
  8 18  1  0  0  0  0
  9  2  1  0  0  0  0
 12  9  1  0  0  0  0
 12 15  1  0  0  0  0
 13 16  1  0  0  0  0
 13  1  1  0  0  0  0
 14  3  1  0  0  0  0
 15 11  2  0  0  0  0
 15 16  1  0  0  0  0
 16 14  1  0  0  0  0
 18 17  1  0  0  0  0
 18 19  1  0  0  0  0
 19 20  1  0  0  0  0
 20 21  1  0  0  0  0
 23 22  1  0  0  0  0
 24 23  1  0  0  0  0
 25 14  1  0  0  0  0
 25 26  1  0  0  0  0
 26 27  2  0  0  0  0
 28 25  1  0  0  0  0
 29 30  1  0  0  0  0
 30 28  1  0  0  0  0
M  END
>  <MODEL>
4

>  <REMARK>
 VINA RESULT:      -3.6      2.515      5.938
  Name = 
  9 active torsions:
  status: ('A' for Active; 'I' for Inactive)
    1  A    between atoms: C_7  and  C_16
    2  A    between atoms: C_7  and  C_30
    3  A    between atoms: O_9  and  C_12
    4  A    between atoms: O_9  and  C_17
    5  A    between atoms: C_10  and  N_25
    6  A    between atoms: C_11  and  O_24
    7  A    between atoms: C_13  and  C_30
    8  A    between atoms: C_23  and  N_25
    9  A    between atoms: O_24  and  N_25
                            x       y       z     vdW  Elec       q    Type
                         _______ _______ _______ _____ _____    ______ ____

>  <TORSDO>
F 9

$$$$
=
 OpenBabel11052421453D

 30 32  0  0  1  0  0  0  0  0999 V2000
  160.9160  210.4410  152.2600 C   0  0  1  0  0  3  0  0  0  0  0  0
  161.0340  209.0870  154.2590 C   0  0  2  0  0  3  0  0  0  0  0  0
  161.1430  210.2320  150.7900 C   0  0  1  0  0  3  0  0  0  0  0  0
  159.6580  211.2820  152.3860 C   0  0  0  0  0  2  0  0  0  0  0  0
  160.8390  213.9170  149.9410 O   0  0  0  0  0  1  0  0  0  0  0  0
  160.7190  212.6940  150.5950 C   0  0  0  0  0  0  0  0  0  0  0  0
  159.8390  212.5870  151.6220 C   0  0  0  0  0  0  0  0  0  0  0  0
  161.6310  211.5380  150.1760 C   0  0  2  0  0  3  0  0  0  0  0  0
  161.2820  207.6570  154.8010 C   0  0  0  0  0  2  0  0  0  0  0  0
  159.9170  209.6210  154.9050 O   0  0  0  0  0  1  0  0  0  0  0  0
  162.8600  206.2830  151.9240 O   0  0  0  0  0  0  0  0  0  0  0  0
  160.8310  206.3390  153.6040 S   0  0  0  0  0  0  0  0  0  0  0  0
  160.8210  209.0990  152.8040 N   0  0  2  0  0  0  0  0  0  0  0  0
  162.0540  209.0180  150.7140 C   0  0  1  0  0  3  0  0  0  0  0  0
  161.9850  206.9920  152.3930 C   0  0  0  0  0  0  0  0  0  0  0  0
  161.9700  208.4720  152.1500 C   0  0  2  0  0  3  0  0  0  0  0  0
  160.5420  211.8540  147.8950 C   0  0  0  0  0  1  0  0  0  0  0  0
  161.7790  211.3850  148.6550 C   0  0  1  0  0  3  0  0  0  0  0  0
  163.0370  212.0800  148.1510 C   0  0  0  0  0  2  0  0  0  0  0  0
  162.7060  213.0950  147.0680 C   0  0  0  0  0  2  0  0  0  0  0  0
  162.9740  214.3870  147.5210 O   0  0  0  0  0  1  0  0  0  0  0  0
  159.0620  213.7010  151.9570 O   0  0  0  0  0  0  0  0  0  0  0  0
  157.6480  213.7110  151.8290 C   0  0  0  0  0  2  0  0  0  0  0  0
  157.2740  213.7120  150.3630 C   0  0  0  0  0  1  0  0  0  0  0  0
  161.5590  208.0640  149.7100 N   0  0  0  0  0  0  0  0  0  0  0  0
  162.0730  208.0800  148.3710 C   0  0  0  0  0  3  0  0  0  0  0  0
  163.0810  207.3060  147.9860 C   0  0  0  0  0  2  0  0  0  0  0  0
  160.4560  207.3090  149.9640 O   0  0  0  0  0  0  0  0  0  0  0  0
  160.7470  205.0720  149.6350 O   0  0  0  0  0  1  0  0  0  0  0  0
  160.4640  206.2860  149.0110 C   0  0  0  0  0  2  0  0  0  0  0  0
  1  4  1  6  0  0  0
  1 13  1  0  0  0  0
  2  9  1  0  0  0  0
  2 10  1  1  0  0  0
  3  1  1  0  0  0  0
  5  6  1  0  0  0  0
  6  7  2  0  0  0  0
  7 22  1  0  0  0  0
  7  4  1  0  0  0  0
  8  6  1  0  0  0  0
  8  3  1  0  0  0  0
 11 15  2  0  0  0  0
 12  9  1  0  0  0  0
 13  2  1  0  0  0  0
 14  3  1  0  0  0  0
 14 16  1  0  0  0  0
 15 12  1  0  0  0  0
 16 15  1  0  0  0  0
 16 13  1  0  0  0  0
 17 18  1  0  0  0  0
 18  8  1  0  0  0  0
 19 18  1  0  0  0  0
 20 21  1  0  0  0  0
 20 19  1  0  0  0  0
 23 22  1  0  0  0  0
 24 23  1  0  0  0  0
 25 28  1  0  0  0  0
 25 14  1  0  0  0  0
 26 25  1  0  0  0  0
 27 26  2  0  0  0  0
 30 29  1  0  0  0  0
 30 28  1  0  0  0  0
M  END
>  <MODEL>
5

>  <REMARK>
 VINA RESULT:      -3.4      2.420      5.776
  Name = 
  9 active torsions:
  status: ('A' for Active; 'I' for Inactive)
    1  A    between atoms: C_7  and  C_16
    2  A    between atoms: C_7  and  C_30
    3  A    between atoms: O_9  and  C_12
    4  A    between atoms: O_9  and  C_17
    5  A    between atoms: C_10  and  N_25
    6  A    between atoms: C_11  and  O_24
    7  A    between atoms: C_13  and  C_30
    8  A    between atoms: C_23  and  N_25
    9  A    between atoms: O_24  and  N_25
                            x       y       z     vdW  Elec       q    Type
                         _______ _______ _______ _____ _____    ______ ____

>  <TORSDO>
F 9

$$$$
=
 OpenBabel11052421453D

 30 32  0  0  1  0  0  0  0  0999 V2000
  161.3870  210.0240  151.4670 C   0  0  1  0  0  3  0  0  0  0  0  0
  162.1090  210.7340  149.2710 C   0  0  2  0  0  3  0  0  0  0  0  0
  160.5670  210.6040  152.5820 C   0  0  1  0  0  3  0  0  0  0  0  0
  160.9600  208.5730  151.3290 C   0  0  0  0  0  2  0  0  0  0  0  0
  161.3870  207.8060  155.0090 O   0  0  0  0  0  1  0  0  0  0  0  0
  161.1890  208.5240  153.8330 C   0  0  0  0  0  0  0  0  0  0  0  0
  161.1670  207.8530  152.6540 C   0  0  0  0  0  0  0  0  0  0  0  0
  161.0730  210.0490  153.9070 C   0  0  2  0  0  3  0  0  0  0  0  0
  162.0070  211.8610  148.2140 C   0  0  0  0  0  2  0  0  0  0  0  0
  161.9630  209.5040  148.6270 O   0  0  0  0  0  1  0  0  0  0  0  0
  160.7690  214.4400  150.3290 O   0  0  0  0  0  0  0  0  0  0  0  0
  160.4280  212.7950  148.2990 S   0  0  0  0  0  0  0  0  0  0  0  0
  161.0910  210.8690  150.3240 N   0  0  2  0  0  0  0  0  0  0  0  0
  160.6330  212.1060  152.3610 C   0  0  1  0  0  3  0  0  0  0  0  0
  160.7530  213.2650  150.0010 C   0  0  0  0  0  0  0  0  0  0  0  0
  161.2150  212.1900  150.9400 C   0  0  2  0  0  3  0  0  0  0  0  0
  159.4410  209.4170  155.7580 C   0  0  0  0  0  1  0  0  0  0  0  0
  160.1920  210.5480  155.0620 C   0  0  1  0  0  3  0  0  0  0  0  0
  161.0000  211.3710  156.0560 C   0  0  0  0  0  2  0  0  0  0  0  0
  162.0780  210.5270  156.7180 C   0  0  0  0  0  2  0  0  0  0  0  0
  163.3390  211.0630  156.4530 O   0  0  0  0  0  1  0  0  0  0  0  0
  161.3060  206.4610  152.6740 O   0  0  0  0  0  0  0  0  0  0  0  0
  161.9820  205.7480  151.6490 C   0  0  0  0  0  2  0  0  0  0  0  0
  161.0200  204.7880  150.9840 C   0  0  0  0  0  1  0  0  0  0  0  0
  159.2920  212.7030  152.4660 N   0  0  0  0  0  0  0  0  0  0  0  0
  158.2080  212.2070  151.6680 C   0  0  0  0  0  3  0  0  0  0  0  0
  157.4430  213.0060  150.9320 C   0  0  0  0  0  2  0  0  0  0  0  0
  159.1100  213.8690  153.1410 O   0  0  0  0  0  0  0  0  0  0  0  0
  158.7000  214.3800  155.3250 O   0  0  0  0  0  1  0  0  0  0  0  0
  158.3440  213.5460  154.2660 C   0  0  0  0  0  2  0  0  0  0  0  0
  1  4  1  6  0  0  0
  1  3  1  0  0  0  0
  2 10  1  6  0  0  0
  2 13  1  0  0  0  0
  3  8  1  0  0  0  0
  4  7  1  0  0  0  0
  6  8  1  0  0  0  0
  6  5  1  0  0  0  0
  7 22  1  0  0  0  0
  7  6  2  0  0  0  0
  8 18  1  0  0  0  0
  9 12  1  0  0  0  0
  9  2  1  0  0  0  0
 12 15  1  0  0  0  0
 13 16  1  0  0  0  0
 13  1  1  0  0  0  0
 14 25  1  0  0  0  0
 14  3  1  0  0  0  0
 15 11  2  0  0  0  0
 15 16  1  0  0  0  0
 16 14  1  0  0  0  0
 18 17  1  0  0  0  0
 18 19  1  0  0  0  0
 19 20  1  0  0  0  0
 21 20  1  0  0  0  0
 23 22  1  0  0  0  0
 24 23  1  0  0  0  0
 25 28  1  0  0  0  0
 26 25  1  0  0  0  0
 27 26  2  0  0  0  0
 28 30  1  0  0  0  0
 30 29  1  0  0  0  0
M  END
>  <MODEL>
6

>  <REMARK>
 VINA RESULT:      -2.7      2.414      5.723
  Name = 
  9 active torsions:
  status: ('A' for Active; 'I' for Inactive)
    1  A    between atoms: C_7  and  C_16
    2  A    between atoms: C_7  and  C_30
    3  A    between atoms: O_9  and  C_12
    4  A    between atoms: O_9  and  C_17
    5  A    between atoms: C_10  and  N_25
    6  A    between atoms: C_11  and  O_24
    7  A    between atoms: C_13  and  C_30
    8  A    between atoms: C_23  and  N_25
    9  A    between atoms: O_24  and  N_25
                            x       y       z     vdW  Elec       q    Type
                         _______ _______ _______ _____ _____    ______ ____

>  <TORSDO>
F 9

$$$$
=
 OpenBabel11052421453D

 30 32  0  0  1  0  0  0  0  0999 V2000
  159.9780  210.6960  152.5780 C   0  0  1  0  0  3  0  0  0  0  0  0
  160.8630  208.4460  152.5930 C   0  0  2  0  0  3  0  0  0  0  0  0
  159.3910  211.6400  153.5870 C   0  0  1  0  0  3  0  0  0  0  0  0
  160.9170  211.5190  151.7150 C   0  0  0  0  0  2  0  0  0  0  0  0
  158.3490  214.2020  150.9900 O   0  0  0  0  0  1  0  0  0  0  0  0
  159.0080  213.1540  151.6270 C   0  0  0  0  0  0  0  0  0  0  0  0
  160.1480  212.6670  151.0750 C   0  0  0  0  0  0  0  0  0  0  0  0
  158.3860  212.5460  152.8880 C   0  0  2  0  0  3  0  0  0  0  0  0
  161.2130  207.2350  153.4920 C   0  0  0  0  0  2  0  0  0  0  0  0
  161.9180  208.6610  151.7050 O   0  0  0  0  0  1  0  0  0  0  0  0
  159.3090  208.1520  156.3540 O   0  0  0  0  0  0  0  0  0  0  0  0
  161.6420  207.7090  155.2140 S   0  0  0  0  0  0  0  0  0  0  0  0
  160.6150  209.6650  153.3770 N   0  0  2  0  0  0  0  0  0  0  0  0
  158.8900  210.7390  154.7040 C   0  0  1  0  0  3  0  0  0  0  0  0
  160.0410  208.4890  155.4390 C   0  0  0  0  0  0  0  0  0  0  0  0
  159.5550  209.3980  154.3500 C   0  0  2  0  0  3  0  0  0  0  0  0
  158.9370  214.4430  154.4960 C   0  0  0  0  0  1  0  0  0  0  0  0
  157.8380  213.5900  153.8730 C   0  0  1  0  0  3  0  0  0  0  0  0
  156.7660  214.4530  153.2210 C   0  0  0  0  0  2  0  0  0  0  0  0
  155.3760  214.0380  153.6770 C   0  0  0  0  0  2  0  0  0  0  0  0
  154.4270  214.4040  152.7210 O   0  0  0  0  0  1  0  0  0  0  0  0
  160.6330  213.2640  149.9080 O   0  0  0  0  0  0  0  0  0  0  0  0
  160.8630  212.5300  148.7140 C   0  0  0  0  0  2  0  0  0  0  0  0
  162.3460  212.5110  148.4120 C   0  0  0  0  0  1  0  0  0  0  0  0
  159.3130  211.2580  156.0140 N   0  0  0  0  0  0  0  0  0  0  0  0
  160.6330  211.7880  156.1980 C   0  0  0  0  0  3  0  0  0  0  0  0
  161.5970  211.1030  156.8030 C   0  0  0  0  0  2  0  0  0  0  0  0
  158.5510  211.0370  157.1190 O   0  0  0  0  0  0  0  0  0  0  0  0
  156.3880  211.7510  157.0330 O   0  0  0  0  0  1  0  0  0  0  0  0
  157.7090  212.1480  157.2330 C   0  0  0  0  0  2  0  0  0  0  0  0
  1  4  1  1  0  0  0
  1 13  1  0  0  0  0
  1  3  1  0  0  0  0
  2 10  1  6  0  0  0
  2 13  1  0  0  0  0
  2  9  1  0  0  0  0
  3 14  1  0  0  0  0
  5  6  1  0  0  0  0
  6  8  1  0  0  0  0
  7  6  2  0  0  0  0
  7  4  1  0  0  0  0
  8  3  1  0  0  0  0
  8 18  1  0  0  0  0
  9 12  1  0  0  0  0
 12 15  1  0  0  0  0
 13 16  1  0  0  0  0
 14 25  1  0  0  0  0
 15 11  2  0  0  0  0
 16 14  1  0  0  0  0
 16 15  1  0  0  0  0
 18 17  1  0  0  0  0
 19 20  1  0  0  0  0
 19 18  1  0  0  0  0
 21 20  1  0  0  0  0
 22  7  1  0  0  0  0
 23 22  1  0  0  0  0
 24 23  1  0  0  0  0
 25 26  1  0  0  0  0
 25 28  1  0  0  0  0
 26 27  2  0  0  0  0
 28 30  1  0  0  0  0
 29 30  1  0  0  0  0
M  END
>  <MODEL>
7

>  <REMARK>
 VINA RESULT:      -2.6      2.158      3.199
  Name = 
  9 active torsions:
  status: ('A' for Active; 'I' for Inactive)
    1  A    between atoms: C_7  and  C_16
    2  A    between atoms: C_7  and  C_30
    3  A    between atoms: O_9  and  C_12
    4  A    between atoms: O_9  and  C_17
    5  A    between atoms: C_10  and  N_25
    6  A    between atoms: C_11  and  O_24
    7  A    between atoms: C_13  and  C_30
    8  A    between atoms: C_23  and  N_25
    9  A    between atoms: O_24  and  N_25
                            x       y       z     vdW  Elec       q    Type
                         _______ _______ _______ _____ _____    ______ ____

>  <TORSDO>
F 9

$$$$
=
 OpenBabel11052421453D

 30 32  0  0  1  0  0  0  0  0999 V2000
  161.2890  208.0910  149.2580 C   0  0  1  0  0  3  0  0  0  0  0  0
  161.0050  206.2750  147.6870 C   0  0  2  0  0  3  0  0  0  0  0  0
  161.3650  208.2360  150.7500 C   0  0  1  0  0  3  0  0  0  0  0  0
  162.3710  208.9890  148.6830 C   0  0  0  0  0  2  0  0  0  0  0  0
  161.2900  212.0280  150.6610 O   0  0  0  0  0  1  0  0  0  0  0  0
  161.4620  210.6970  150.2900 C   0  0  0  0  0  0  0  0  0  0  0  0
  162.1480  210.4200  149.1520 C   0  0  0  0  0  0  0  0  0  0  0  0
  160.8150  209.6010  151.1420 C   0  0  2  0  0  3  0  0  0  0  0  0
  160.8700  204.7390  147.5470 C   0  0  0  0  0  2  0  0  0  0  0  0
  161.9000  206.7340  146.7170 O   0  0  0  0  0  1  0  0  0  0  0  0
  160.0510  203.9850  150.9250 O   0  0  0  0  0  0  0  0  0  0  0  0
  161.7130  203.8110  148.8890 S   0  0  0  0  0  0  0  0  0  0  0  0
  161.4740  206.6700  149.0230 N   0  0  2  0  0  0  0  0  0  0  0  0
  160.6650  206.9990  151.2880 C   0  0  1  0  0  3  0  0  0  0  0  0
  160.7160  204.6330  150.1350 C   0  0  0  0  0  0  0  0  0  0  0  0
  160.5640  206.1210  150.0290 C   0  0  2  0  0  3  0  0  0  0  0  0
  162.3930  210.1920  153.0520 C   0  0  0  0  0  1  0  0  0  0  0  0
  160.9680  209.8210  152.6540 C   0  0  1  0  0  3  0  0  0  0  0  0
  159.9640  210.8440  153.1670 C   0  0  0  0  0  2  0  0  0  0  0  0
  160.4510  211.4950  154.4520 C   0  0  0  0  0  2  0  0  0  0  0  0
  159.9460  210.8110  155.5590 O   0  0  0  0  0  1  0  0  0  0  0  0
  162.6850  211.4830  148.4190 O   0  0  0  0  0  0  0  0  0  0  0  0
  161.9000  212.2760  147.5410 C   0  0  0  0  0  2  0  0  0  0  0  0
  162.3020  213.7290  147.6790 C   0  0  0  0  0  1  0  0  0  0  0  0
  161.4640  206.3770  152.3550 N   0  0  0  0  0  0  0  0  0  0  0  0
  162.8680  206.1460  152.1760 C   0  0  0  0  0  3  0  0  0  0  0  0
  163.3950  204.9270  152.1770 C   0  0  0  0  0  2  0  0  0  0  0  0
  160.8520  205.8050  153.4270 O   0  0  0  0  0  0  0  0  0  0  0  0
  160.0400  207.2890  154.9560 O   0  0  0  0  0  1  0  0  0  0  0  0
  161.1770  206.6070  154.5260 C   0  0  0  0  0  2  0  0  0  0  0  0
  1  4  1  6  0  0  0
  1  3  1  0  0  0  0
  2 10  1  6  0  0  0
  2 13  1  0  0  0  0
  3  8  1  0  0  0  0
  3 14  1  0  0  0  0
  4  7  1  0  0  0  0
  6  5  1  0  0  0  0
  6  8  1  0  0  0  0
  7  6  2  0  0  0  0
  8 18  1  0  0  0  0
  9  2  1  0  0  0  0
  9 12  1  0  0  0  0
 12 15  1  0  0  0  0
 13  1  1  0  0  0  0
 13 16  1  0  0  0  0
 14 25  1  0  0  0  0
 15 11  2  0  0  0  0
 16 15  1  0  0  0  0
 16 14  1  0  0  0  0
 18 17  1  0  0  0  0
 18 19  1  0  0  0  0
 19 20  1  0  0  0  0
 20 21  1  0  0  0  0
 22  7  1  0  0  0  0
 23 24  1  0  0  0  0
 23 22  1  0  0  0  0
 25 28  1  0  0  0  0
 26 27  2  0  0  0  0
 26 25  1  0  0  0  0
 28 30  1  0  0  0  0
 30 29  1  0  0  0  0
M  END
>  <MODEL>
8

>  <REMARK>
 VINA RESULT:      -2.5      2.573      3.985
  Name = 
  9 active torsions:
  status: ('A' for Active; 'I' for Inactive)
    1  A    between atoms: C_7  and  C_16
    2  A    between atoms: C_7  and  C_30
    3  A    between atoms: O_9  and  C_12
    4  A    between atoms: O_9  and  C_17
    5  A    between atoms: C_10  and  N_25
    6  A    between atoms: C_11  and  O_24
    7  A    between atoms: C_13  and  C_30
    8  A    between atoms: C_23  and  N_25
    9  A    between atoms: O_24  and  N_25
                            x       y       z     vdW  Elec       q    Type
                         _______ _______ _______ _____ _____    ______ ____

>  <TORSDO>
F 9

$$$$
=
 OpenBabel11052421453D

 30 32  0  0  1  0  0  0  0  0999 V2000
  161.1370  210.4000  151.9160 C   0  0  1  0  0  3  0  0  0  0  0  0
  162.3270  210.6630  149.8290 C   0  0  2  0  0  3  0  0  0  0  0  0
  160.0770  211.1540  152.6660 C   0  0  1  0  0  3  0  0  0  0  0  0
  160.7740  208.9290  152.0200 C   0  0  0  0  0  2  0  0  0  0  0  0
  160.3650  209.0070  155.7810 O   0  0  0  0  0  1  0  0  0  0  0  0
  160.4300  209.4380  154.4590 C   0  0  0  0  0  0  0  0  0  0  0  0
  160.6840  208.5280  153.4860 C   0  0  0  0  0  0  0  0  0  0  0  0
  160.2770  210.9330  154.1600 C   0  0  2  0  0  3  0  0  0  0  0  0
  162.4520  211.5240  148.5480 C   0  0  0  0  0  2  0  0  0  0  0  0
  162.3490  209.3150  149.4620 O   0  0  0  0  0  1  0  0  0  0  0  0
  160.7290  214.4140  149.7040 O   0  0  0  0  0  0  0  0  0  0  0  0
  160.8820  212.3500  148.0740 S   0  0  0  0  0  0  0  0  0  0  0  0
  161.0960  210.9550  150.5760 N   0  0  2  0  0  0  0  0  0  0  0  0
  160.1700  212.5730  152.1310 C   0  0  1  0  0  3  0  0  0  0  0  0
  160.8060  213.1980  149.6550 C   0  0  0  0  0  0  0  0  0  0  0  0
  161.0580  212.3850  150.8890 C   0  0  2  0  0  3  0  0  0  0  0  0
  159.3260  213.1240  155.0450 C   0  0  0  0  0  1  0  0  0  0  0  0
  159.1500  211.6120  154.9520 C   0  0  1  0  0  3  0  0  0  0  0  0
  157.7830  211.2450  154.3890 C   0  0  0  0  0  2  0  0  0  0  0  0
  156.7820  210.9880  155.5040 C   0  0  0  0  0  2  0  0  0  0  0  0
  155.6500  211.7840  155.3280 O   0  0  0  0  0  1  0  0  0  0  0  0
  160.8360  207.1860  153.8490 O   0  0  0  0  0  0  0  0  0  0  0  0
  161.9640  206.4140  153.4660 C   0  0  0  0  0  2  0  0  0  0  0  0
  161.5370  205.3550  152.4720 C   0  0  0  0  0  1  0  0  0  0  0  0
  158.8320  213.0900  151.8040 N   0  0  0  0  0  0  0  0  0  0  0  0
  158.3490  214.2990  152.4070 C   0  0  0  0  0  3  0  0  0  0  0  0
  157.0980  214.4310  152.8330 C   0  0  0  0  0  2  0  0  0  0  0  0
  157.9490  212.3220  151.1110 O   0  0  0  0  0  0  0  0  0  0  0  0
  157.0240  212.6000  149.0460 O   0  0  0  0  0  1  0  0  0  0  0  0
  157.2420  213.2010  150.2850 C   0  0  0  0  0  2  0  0  0  0  0  0
  1  4  1  6  0  0  0
  1  3  1  0  0  0  0
  2 10  1  6  0  0  0
  2 13  1  0  0  0  0
  3  8  1  0  0  0  0
  4  7  1  0  0  0  0
  6  5  1  0  0  0  0
  7 22  1  0  0  0  0
  7  6  2  0  0  0  0
  8  6  1  0  0  0  0
  8 18  1  0  0  0  0
  9  2  1  0  0  0  0
 12  9  1  0  0  0  0
 12 15  1  0  0  0  0
 13 16  1  0  0  0  0
 13  1  1  0  0  0  0
 14  3  1  0  0  0  0
 15 11  2  0  0  0  0
 15 16  1  0  0  0  0
 16 14  1  0  0  0  0
 18 17  1  0  0  0  0
 19 18  1  0  0  0  0
 19 20  1  0  0  0  0
 21 20  1  0  0  0  0
 23 22  1  0  0  0  0
 24 23  1  0  0  0  0
 25 14  1  0  0  0  0
 25 26  1  0  0  0  0
 26 27  2  0  0  0  0
 28 25  1  0  0  0  0
 29 30  1  0  0  0  0
 30 28  1  0  0  0  0
M  END
>  <MODEL>
9

>  <REMARK>
 VINA RESULT:      -2.4      2.408      5.739
  Name = 
  9 active torsions:
  status: ('A' for Active; 'I' for Inactive)
    1  A    between atoms: C_7  and  C_16
    2  A    between atoms: C_7  and  C_30
    3  A    between atoms: O_9  and  C_12
    4  A    between atoms: O_9  and  C_17
    5  A    between atoms: C_10  and  N_25
    6  A    between atoms: C_11  and  O_24
    7  A    between atoms: C_13  and  C_30
    8  A    between atoms: C_23  and  N_25
    9  A    between atoms: O_24  and  N_25
                            x       y       z     vdW  Elec       q    Type
                         _______ _______ _______ _____ _____    ______ ____

>  <TORSDO>
F 9

$$$$
