=
 OpenBabel11062408393D

 55 62  0  0  1  0  0  0  0  0999 V2000
  161.4030  206.1290  154.2060 O   0  0  0  0  0  0  0  0  0  0  0  0
  161.6600  208.0660  148.6940 O   0  0  0  0  0  0  0  0  0  0  0  0
  163.2730  210.0630  150.4120 C   0  0  0  0  0  1  0  0  0  0  0  0
  161.2090  205.3920  147.9230 C   0  0  0  0  0  2  0  0  0  0  0  0
  159.0040  206.1000  146.9340 C   0  0  0  0  0  2  0  0  0  0  0  0
  159.6410  211.1530  151.2440 S   0  0  0  0  0  0  0  0  0  0  0  0
  159.2740  212.8540  151.8430 C   0  0  0  0  0  2  0  0  0  0  0  0
  160.6270  211.0830  153.8140 C   0  0  1  0  0  3  0  0  0  0  0  0
  160.4160  212.5780  154.0760 C   0  0  0  0  0  2  0  0  0  0  0  0
  160.7530  208.3130  152.5980 O   0  0  0  0  0  0  0  0  0  0  0  0
  160.5960  204.8370  145.6500 O   0  0  0  0  0  0  0  0  0  0  0  0
  159.6960  205.9140  145.5820 C   0  0  0  0  0  2  0  0  0  0  0  0
  160.3270  213.4130  152.7980 C   0  0  0  0  0  2  0  0  0  0  0  0
  162.3440  203.6450  151.6370 C   0  0  0  0  0  3  0  0  0  0  0  0
  161.0440  210.7820  152.3630 C   0  0  1  0  0  3  0  0  0  0  0  0
  160.2480  204.6700  150.9830 C   0  0  0  0  0  0  0  0  0  0  0  0
  160.3580  207.0040  154.6320 C   0  0  1  0  0  3  0  0  0  0  0  0
  160.2680  205.4420  152.1510 C   0  0  0  0  0  3  0  0  0  0  0  0
  161.5120  209.0610  154.8860 C   0  0  2  0  0  3  0  0  0  0  0  0
  160.5800  207.2990  156.1110 C   0  0  0  0  0  2  0  0  0  0  0  0
  160.5520  207.8200  147.8680 C   0  0  0  0  0  2  0  0  0  0  0  0
  161.5750  210.5380  154.7900 N   0  0  0  0  0  2  0  0  0  0  0  0
  161.1770  208.8830  149.7180 C   0  0  0  0  0  2  0  0  0  0  0  0
  162.2270  209.0360  150.8090 C   0  0  2  0  0  3  0  0  0  0  0  0
  162.3710  204.4360  152.7910 C   0  0  0  0  0  3  0  0  0  0  0  0
  161.6670  205.2590  146.4610 C   0  0  2  0  0  3  0  0  0  0  0  0
  160.0360  206.3840  148.0320 C   0  0  2  0  0  0  0  0  0  0  0  0
  161.3360  205.3380  153.0540 C   0  0  0  0  0  0  0  0  0  0  0  0
  161.6180  209.3520  152.1840 C   0  0  2  0  0  3  0  0  0  0  0  0
  160.4780  208.3710  153.9920 C   0  0  1  0  0  3  0  0  0  0  0  0
  159.3230  206.2980  149.3870 C   0  0  0  0  0  2  0  0  0  0  0  0
  161.2880  208.5740  156.2570 N   0  0  0  0  0  0  0  0  0  0  0  0
  159.1820  204.8900  149.9630 C   0  0  0  0  0  2  0  0  0  0  0  0
  161.2850  203.7660  150.7320 C   0  0  0  0  0  3  0  0  0  0  0  0
  160.3740  209.4490  156.9910 C   0  0  0  0  0  2  0  0  0  0  0  0
  159.0030  209.4860  156.3180 C   0  0  0  0  0  2  0  0  0  0  0  0
  159.0120  211.8350  157.2610 C   0  0  0  0  0  2  0  0  0  0  0  0
  156.8710  212.4900  155.9800 C   0  0  0  0  0  2  0  0  0  0  0  0
  158.1690  210.7120  156.6950 C   0  0  1  0  0  3  0  0  0  0  0  0
  157.4170  211.2120  155.5580 N   0  0  0  0  0  2  0  0  0  0  0  0
  158.1210  213.3810  156.9490 S   0  0  0  0  0  0  0  0  0  0  0  0
  162.9230  204.3550  146.2630 C   0  0  2  0  0  0  0  0  0  0  0  0
  164.0550  204.7360  147.2440 C   0  0  0  0  0  3  0  0  0  0  0  0
  164.0420  206.1000  147.5420 O   0  0  0  0  0  1  0  0  0  0  0  0
  165.3160  204.3680  146.7740 O   0  0  0  0  0  1  0  0  0  0  0  0
  163.5220  204.5110  144.8470 C   0  0  0  0  0  2  0  0  0  0  0  0
  162.8740  205.5050  144.1040 O   0  0  0  0  0  1  0  0  0  0  0  0
  162.6130  202.9930  146.5300 O   0  0  0  0  0  0  0  0  0  0  0  0
  160.0640  201.4120  145.0890 O   0  0  0  0  0  0  0  0  0  0  0  0
  161.2850  202.8520  146.9840 C   0  0  2  0  0  3  0  0  0  0  0  0
  161.0280  201.5670  147.5640 C   0  0  2  0  0  0  0  0  0  0  0  0
  160.5790  201.7890  146.1270 C   0  0  0  0  0  0  0  0  0  0  0  0
  159.8560  201.4820  148.5220 C   0  0  0  0  0  1  0  0  0  0  0  0
  162.1460  200.5370  147.6880 C   0  0  0  0  0  2  0  0  0  0  0  0
  161.8970  199.4670  146.8280 O   0  0  0  0  0  1  0  0  0  0  0  0
  1 17  1  0  0  0  0
  2 23  1  0  0  0  0
  4 27  1  0  0  0  0
  6  7  1  0  0  0  0
  7 13  1  0  0  0  0
  8  9  1  6  0  0  0
  8 22  1  0  0  0  0
 11 26  1  0  0  0  0
 12 11  1  0  0  0  0
 12  5  1  0  0  0  0
 13  9  1  0  0  0  0
 14 25  1  0  0  0  0
 15  6  1  6  0  0  0
 15  8  1  0  0  0  0
 16 18  2  0  0  0  0
 17 20  1  1  0  0  0
 18 28  1  0  0  0  0
 19 22  1  1  0  0  0
 19 32  1  0  0  0  0
 20 32  1  0  0  0  0
 21 27  1  0  0  0  0
 21  2  1  0  0  0  0
 23 24  1  0  0  0  0
 24  3  1  6  0  0  0
 24 29  1  0  0  0  0
 25 28  2  0  0  0  0
 26 42  1  1  0  0  0
 26  4  1  0  0  0  0
 27  5  1  6  0  0  0
 27 31  1  0  0  0  0
 28  1  1  0  0  0  0
 29 15  1  0  0  0  0
 29 10  1  6  0  0  0
 30 10  1  6  0  0  0
 30 17  1  0  0  0  0
 30 19  1  0  0  0  0
 31 33  1  0  0  0  0
 32 35  1  0  0  0  0
 33 16  1  0  0  0  0
 34 16  1  0  0  0  0
 34 14  2  0  0  0  0
 36 35  1  0  0  0  0
 38 41  1  0  0  0  0
 39 36  1  6  0  0  0
 39 37  1  0  0  0  0
 40 38  1  0  0  0  0
 40 39  1  0  0  0  0
 41 37  1  0  0  0  0
 42 46  1  6  0  0  0
 42 48  1  0  0  0  0
 42 43  1  0  0  0  0
 43 44  1  0  0  0  0
 45 43  1  0  0  0  0
 47 46  1  0  0  0  0
 49 52  2  0  0  0  0
 50 48  1  6  0  0  0
 50 51  1  0  0  0  0
 51 54  1  0  0  0  0
 51 53  1  1  0  0  0
 52 50  1  0  0  0  0
 52 51  1  0  0  0  0
 55 54  1  0  0  0  0
M  END
>  <MODEL>
1

>  <REMARK>
 VINA RESULT:      12.8      0.000      0.000
  Name = 
  9 active torsions:
  status: ('A' for Active; 'I' for Inactive)
    1  A    between atoms: C_1  and  C_53
    2  A    between atoms: C_6  and  C_53
    3  A    between atoms: C_11  and  C_29
    4  A    between atoms: C_12  and  O_14
    5  A    between atoms: C_13  and  C_48
    6  A    between atoms: C_13  and  N_52
    7  A    between atoms: O_14  and  C_53
    8  A    between atoms: C_32  and  C_48
    9  A    between atoms: C_42  and  C_53
                            x       y       z     vdW  Elec       q    Type
                         _______ _______ _______ _____ _____    ______ ____

>  <TORSDO>
F 9

$$$$
=
 OpenBabel11062408393D

 55 62  0  0  1  0  0  0  0  0999 V2000
  161.0830  205.1130  152.1090 O   0  0  0  0  0  0  0  0  0  0  0  0
  160.4600  209.4160  148.1980 O   0  0  0  0  0  0  0  0  0  0  0  0
  158.9060  206.9840  147.0970 C   0  0  0  0  0  1  0  0  0  0  0  0
  160.9250  211.1880  150.3410 C   0  0  0  0  0  2  0  0  0  0  0  0
  163.0520  211.9210  149.2090 C   0  0  0  0  0  2  0  0  0  0  0  0
  162.5550  205.9580  146.2570 S   0  0  0  0  0  0  0  0  0  0  0  0
  162.9190  204.7610  144.9080 C   0  0  0  0  0  2  0  0  0  0  0  0
  161.7230  203.5770  147.3620 C   0  0  1  0  0  3  0  0  0  0  0  0
  161.9150  202.7630  146.0780 C   0  0  0  0  0  2  0  0  0  0  0  0
  161.5880  205.7690  149.4460 O   0  0  0  0  0  0  0  0  0  0  0  0
  161.4170  213.5230  149.9430 O   0  0  0  0  0  0  0  0  0  0  0  0
  162.2870  213.2060  148.8850 C   0  0  0  0  0  2  0  0  0  0  0  0
  161.9100  203.6170  144.8100 C   0  0  0  0  0  2  0  0  0  0  0  0
  160.0500  208.4020  153.4400 C   0  0  0  0  0  3  0  0  0  0  0  0
  161.2290  205.0100  147.0940 C   0  0  1  0  0  3  0  0  0  0  0  0
  162.0800  208.6980  152.1510 C   0  0  0  0  0  0  0  0  0  0  0  0
  162.1310  204.4270  151.4230 C   0  0  1  0  0  3  0  0  0  0  0  0
  162.1110  207.3230  151.8940 C   0  0  0  0  0  3  0  0  0  0  0  0
  160.9480  203.3390  149.6780 C   0  0  2  0  0  3  0  0  0  0  0  0
  161.9900  202.9420  151.7350 C   0  0  0  0  0  2  0  0  0  0  0  0
  161.5240  210.3210  148.0550 C   0  0  0  0  0  2  0  0  0  0  0  0
  160.8460  202.8500  148.2840 N   0  0  0  0  0  2  0  0  0  0  0  0
  160.9840  208.1780  147.8220 C   0  0  0  0  0  2  0  0  0  0  0  0
  159.9960  207.0660  148.1500 C   0  0  2  0  0  3  0  0  0  0  0  0
  160.0720  207.0310  153.1610 C   0  0  0  0  0  3  0  0  0  0  0  0
  160.3860  212.5640  149.9160 C   0  0  2  0  0  3  0  0  0  0  0  0
  162.0800  210.7540  149.4190 C   0  0  2  0  0  0  0  0  0  0  0  0
  161.1000  206.4840  152.3870 C   0  0  0  0  0  0  0  0  0  0  0  0
  160.6780  205.7070  148.3660 C   0  0  2  0  0  3  0  0  0  0  0  0
  161.9430  204.4780  149.9210 C   0  0  1  0  0  3  0  0  0  0  0  0
  162.8730  209.5730  149.9930 C   0  0  0  0  0  2  0  0  0  0  0  0
  161.2620  202.2790  150.6490 N   0  0  0  0  0  0  0  0  0  0  0  0
  163.0790  209.5990  151.5060 C   0  0  0  0  0  2  0  0  0  0  0  0
  161.0500  209.2350  152.9300 C   0  0  0  0  0  3  0  0  0  0  0  0
  162.1980  201.3040  150.0890 C   0  0  0  0  0  2  0  0  0  0  0  0
  161.4460  200.1710  149.3920 C   0  0  0  0  0  2  0  0  0  0  0  0
  162.0650  199.0290  147.2200 C   0  0  0  0  0  2  0  0  0  0  0  0
  160.2770  200.3240  145.8860 C   0  0  0  0  0  2  0  0  0  0  0  0
  161.4760  200.2650  147.8650 C   0  0  1  0  0  3  0  0  0  0  0  0
  160.1490  200.4940  147.3220 N   0  0  0  0  0  2  0  0  0  0  0  0
  161.3750  198.9170  145.5490 S   0  0  0  0  0  0  0  0  0  0  0  0
  159.1410  213.0420  150.7250 C   0  0  2  0  0  0  0  0  0  0  0  0
  157.8870  213.1450  149.8290 C   0  0  0  0  0  3  0  0  0  0  0  0
  158.2270  213.3160  148.4850 O   0  0  0  0  0  1  0  0  0  0  0  0
  157.0240  214.1650  150.2310 O   0  0  0  0  0  1  0  0  0  0  0  0
  159.3530  214.4530  151.3190 C   0  0  0  0  0  2  0  0  0  0  0  0
  160.2790  214.4530  152.3680 O   0  0  0  0  0  1  0  0  0  0  0  0
  158.8170  212.1100  151.7500 O   0  0  0  0  0  0  0  0  0  0  0  0
  156.9170  210.7010  154.0910 O   0  0  0  0  0  0  0  0  0  0  0  0
  158.0750  212.7260  152.7810 C   0  0  2  0  0  3  0  0  0  0  0  0
  158.7270  212.6510  154.0560 C   0  0  2  0  0  0  0  0  0  0  0  0
  157.6200  211.6460  153.7750 C   0  0  0  0  0  0  0  0  0  0  0  0
  158.3140  213.6840  155.0860 C   0  0  0  0  0  1  0  0  0  0  0  0
  160.1030  212.0050  154.1840 C   0  0  0  0  0  2  0  0  0  0  0  0
  160.3250  211.6300  155.5090 O   0  0  0  0  0  1  0  0  0  0  0  0
  1 28  1  0  0  0  0
  5 27  1  0  0  0  0
  7  6  1  0  0  0  0
  8  9  1  6  0  0  0
  8 22  1  0  0  0  0
 12  5  1  0  0  0  0
 12 11  1  0  0  0  0
 13  7  1  0  0  0  0
 13  9  1  0  0  0  0
 15  6  1  1  0  0  0
 15  8  1  0  0  0  0
 15 29  1  0  0  0  0
 16 34  1  0  0  0  0
 17 20  1  1  0  0  0
 17  1  1  0  0  0  0
 18 16  2  0  0  0  0
 18 28  1  0  0  0  0
 19 22  1  6  0  0  0
 19 30  1  0  0  0  0
 19 32  1  0  0  0  0
 21  2  1  0  0  0  0
 23 24  1  0  0  0  0
 23  2  1  0  0  0  0
 24  3  1  6  0  0  0
 24 29  1  0  0  0  0
 25 14  1  0  0  0  0
 26 11  1  0  0  0  0
 26  4  1  0  0  0  0
 26 42  1  1  0  0  0
 27 21  1  6  0  0  0
 27 31  1  0  0  0  0
 27  4  1  0  0  0  0
 28 25  2  0  0  0  0
 29 10  1  1  0  0  0
 30 10  1  1  0  0  0
 30 17  1  0  0  0  0
 31 33  1  0  0  0  0
 32 20  1  0  0  0  0
 33 16  1  0  0  0  0
 34 14  2  0  0  0  0
 35 32  1  0  0  0  0
 36 35  1  0  0  0  0
 37 39  1  0  0  0  0
 38 40  1  0  0  0  0
 39 36  1  1  0  0  0
 40 39  1  0  0  0  0
 41 38  1  0  0  0  0
 41 37  1  0  0  0  0
 42 46  1  1  0  0  0
 42 48  1  0  0  0  0
 43 45  1  0  0  0  0
 43 42  1  0  0  0  0
 44 43  1  0  0  0  0
 46 47  1  0  0  0  0
 50 48  1  6  0  0  0
 50 52  1  0  0  0  0
 50 51  1  0  0  0  0
 51 54  1  0  0  0  0
 51 53  1  1  0  0  0
 52 51  1  0  0  0  0
 52 49  2  0  0  0  0
 54 55  1  0  0  0  0
M  END
>  <MODEL>
2

>  <REMARK>
 VINA RESULT:      13.4      4.046      9.867
  Name = 
  9 active torsions:
  status: ('A' for Active; 'I' for Inactive)
    1  A    between atoms: C_1  and  C_53
    2  A    between atoms: C_6  and  C_53
    3  A    between atoms: C_11  and  C_29
    4  A    between atoms: C_12  and  O_14
    5  A    between atoms: C_13  and  C_48
    6  A    between atoms: C_13  and  N_52
    7  A    between atoms: O_14  and  C_53
    8  A    between atoms: C_32  and  C_48
    9  A    between atoms: C_42  and  C_53
                            x       y       z     vdW  Elec       q    Type
                         _______ _______ _______ _____ _____    ______ ____

>  <TORSDO>
F 9

$$$$
=
 OpenBabel11062408393D

 55 62  0  0  1  0  0  0  0  0999 V2000
  160.7400  202.6510  151.3710 O   0  0  0  0  0  0  0  0  0  0  0  0
  160.6140  208.3470  150.0540 O   0  0  0  0  0  0  0  0  0  0  0  0
  158.9270  206.9030  147.9070 C   0  0  0  0  0  1  0  0  0  0  0  0
  161.1210  208.8070  152.7890 C   0  0  0  0  0  2  0  0  0  0  0  0
  163.3440  209.8090  152.1580 C   0  0  0  0  0  2  0  0  0  0  0  0
  162.5200  206.0990  146.6740 S   0  0  0  0  0  0  0  0  0  0  0  0
  162.8490  205.6810  144.9120 C   0  0  0  0  0  2  0  0  0  0  0  0
  161.4630  203.5640  146.4770 C   0  0  1  0  0  3  0  0  0  0  0  0
  161.6470  203.4630  144.9600 C   0  0  0  0  0  2  0  0  0  0  0  0
  161.4070  204.4710  149.3660 O   0  0  0  0  0  0  0  0  0  0  0  0
  161.8060  210.9880  153.5790 O   0  0  0  0  0  0  0  0  0  0  0  0
  162.6930  211.1500  152.5020 C   0  0  0  0  0  2  0  0  0  0  0  0
  161.7610  204.8220  144.2680 C   0  0  0  0  0  2  0  0  0  0  0  0
  159.9050  204.9550  154.1360 C   0  0  0  0  0  3  0  0  0  0  0  0
  161.0910  204.9840  146.9420 C   0  0  1  0  0  3  0  0  0  0  0  0
  162.0050  205.6620  153.1550 C   0  0  0  0  0  0  0  0  0  0  0  0
  161.7610  202.2960  150.4380 C   0  0  1  0  0  3  0  0  0  0  0  0
  161.9420  204.5870  152.2600 C   0  0  0  0  0  3  0  0  0  0  0  0
  160.5740  202.3000  148.3840 C   0  0  2  0  0  3  0  0  0  0  0  0
  161.4940  200.8650  149.9860 C   0  0  0  0  0  2  0  0  0  0  0  0
  161.7490  209.1110  150.3700 C   0  0  0  0  0  2  0  0  0  0  0  0
  160.4950  202.5610  146.9270 N   0  0  0  0  0  2  0  0  0  0  0  0
  161.0570  207.4070  149.1220 C   0  0  0  0  0  2  0  0  0  0  0  0
  159.9750  206.3670  148.8660 C   0  0  2  0  0  3  0  0  0  0  0  0
  159.8350  203.8970  153.2240 C   0  0  0  0  0  3  0  0  0  0  0  0
  160.7070  210.2580  153.0890 C   0  0  2  0  0  3  0  0  0  0  0  0
  162.2780  208.7770  151.7720 C   0  0  2  0  0  0  0  0  0  0  0  0
  160.8500  203.7070  152.2820 C   0  0  0  0  0  0  0  0  0  0  0  0
  160.5410  205.0200  148.3930 C   0  0  2  0  0  3  0  0  0  0  0  0
  161.6420  203.0860  149.1510 C   0  0  1  0  0  3  0  0  0  0  0  0
  162.9540  207.4020  151.6970 C   0  0  0  0  0  2  0  0  0  0  0  0
  160.7650  200.8790  148.7140 N   0  0  0  0  0  0  0  0  0  0  0  0
  163.0960  206.6720  153.0310 C   0  0  0  0  0  2  0  0  0  0  0  0
  160.9870  205.8400  154.0980 C   0  0  0  0  0  3  0  0  0  0  0  0
  161.6470  200.2210  147.7500 C   0  0  0  0  0  2  0  0  0  0  0  0
  161.4770  200.8300  146.3590 C   0  0  0  0  0  2  0  0  0  0  0  0
  161.3910  198.4260  145.5700 C   0  0  0  0  0  2  0  0  0  0  0  0
  159.0860  198.7440  144.4580 C   0  0  0  0  0  2  0  0  0  0  0  0
  160.9280  199.8460  145.3230 C   0  0  1  0  0  3  0  0  0  0  0  0
  159.4770  199.8690  145.2870 N   0  0  0  0  0  2  0  0  0  0  0  0
  160.1530  197.3240  144.8390 S   0  0  0  0  0  0  0  0  0  0  0  0
  159.4690  210.3880  154.0280 C   0  0  2  0  0  0  0  0  0  0  0  0
  159.7950  211.2300  155.2830 C   0  0  0  0  0  3  0  0  0  0  0  0
  161.1180  211.0510  155.6930 O   0  0  0  0  0  1  0  0  0  0  0  0
  158.9320  210.9630  156.3460 O   0  0  0  0  0  1  0  0  0  0  0  0
  159.0030  209.0110  154.5530 C   0  0  0  0  0  2  0  0  0  0  0  0
  159.8180  208.5350  155.5860 O   0  0  0  0  0  1  0  0  0  0  0  0
  158.4030  211.0610  153.3700 O   0  0  0  0  0  0  0  0  0  0  0  0
  157.5370  213.4540  151.2270 O   0  0  0  0  0  0  0  0  0  0  0  0
  158.5230  212.4600  153.5060 C   0  0  2  0  0  3  0  0  0  0  0  0
  157.2840  213.0940  153.8510 C   0  0  2  0  0  0  0  0  0  0  0  0
  157.7100  213.1370  152.3910 C   0  0  0  0  0  0  0  0  0  0  0  0
  157.3840  214.4530  154.5150 C   0  0  0  0  0  1  0  0  0  0  0  0
  156.0280  212.2620  154.0820 C   0  0  0  0  0  2  0  0  0  0  0  0
  156.0120  211.7880  155.3940 O   0  0  0  0  0  1  0  0  0  0  0  0
  1 28  1  0  0  0  0
  2 21  1  0  0  0  0
  4 26  1  0  0  0  0
  5 12  1  0  0  0  0
  7  6  1  0  0  0  0
  8  9  1  6  0  0  0
  8 22  1  0  0  0  0
  8 15  1  0  0  0  0
 12 11  1  0  0  0  0
 13  7  1  0  0  0  0
 13  9  1  0  0  0  0
 15  6  1  1  0  0  0
 15 29  1  0  0  0  0
 16 34  2  0  0  0  0
 17 20  1  6  0  0  0
 17  1  1  0  0  0  0
 18 28  2  0  0  0  0
 18 16  1  0  0  0  0
 19 22  1  6  0  0  0
 19 32  1  0  0  0  0
 19 30  1  0  0  0  0
 23  2  1  0  0  0  0
 24  3  1  6  0  0  0
 24 23  1  0  0  0  0
 25 14  2  0  0  0  0
 26 11  1  0  0  0  0
 26 42  1  1  0  0  0
 27 21  1  6  0  0  0
 27  5  1  0  0  0  0
 27  4  1  0  0  0  0
 28 25  1  0  0  0  0
 29 24  1  0  0  0  0
 29 10  1  1  0  0  0
 30 10  1  1  0  0  0
 30 17  1  0  0  0  0
 31 27  1  0  0  0  0
 31 33  1  0  0  0  0
 32 20  1  0  0  0  0
 33 16  1  0  0  0  0
 34 14  1  0  0  0  0
 35 32  1  0  0  0  0
 36 35  1  0  0  0  0
 38 41  1  0  0  0  0
 38 40  1  0  0  0  0
 39 37  1  0  0  0  0
 39 36  1  1  0  0  0
 40 39  1  0  0  0  0
 41 37  1  0  0  0  0
 42 46  1  1  0  0  0
 42 43  1  0  0  0  0
 43 44  1  0  0  0  0
 43 45  1  0  0  0  0
 46 47  1  0  0  0  0
 48 42  1  0  0  0  0
 49 52  2  0  0  0  0
 50 48  1  6  0  0  0
 50 51  1  0  0  0  0
 51 54  1  0  0  0  0
 51 53  1  1  0  0  0
 52 50  1  0  0  0  0
 52 51  1  0  0  0  0
 54 55  1  0  0  0  0
M  END
>  <MODEL>
3

>  <REMARK>
 VINA RESULT:      15.0      4.340     10.439
  Name = 
  9 active torsions:
  status: ('A' for Active; 'I' for Inactive)
    1  A    between atoms: C_1  and  C_53
    2  A    between atoms: C_6  and  C_53
    3  A    between atoms: C_11  and  C_29
    4  A    between atoms: C_12  and  O_14
    5  A    between atoms: C_13  and  C_48
    6  A    between atoms: C_13  and  N_52
    7  A    between atoms: O_14  and  C_53
    8  A    between atoms: C_32  and  C_48
    9  A    between atoms: C_42  and  C_53
                            x       y       z     vdW  Elec       q    Type
                         _______ _______ _______ _____ _____    ______ ____

>  <TORSDO>
F 9

$$$$
