=
 OpenBabel11062408473D

 55 59  0  0  1  0  0  0  0  0999 V2000
  160.8540  208.2860  152.3560 C   0  0  2  0  0  3  0  0  0  0  0  0
  161.3890  207.9330  153.7370 C   0  0  0  0  0  3  0  0  0  0  0  0
  160.2390  207.8560  154.7230 C   0  0  0  0  0  2  0  0  0  0  0  0
  160.8470  206.5850  154.1650 C   0  0  0  0  0  2  0  0  0  0  0  0
  161.6190  207.5380  151.2640 C   0  0  0  0  0  2  0  0  0  0  0  0
  162.6260  208.4350  150.5520 C   0  0  0  0  0  2  0  0  0  0  0  0
  162.0770  208.8930  149.2130 C   0  0  0  0  0  2  0  0  0  0  0  0
  161.5520  207.7050  148.4280 C   0  0  0  0  0  2  0  0  0  0  0  0
  162.7060  206.8930  147.8760 C   0  0  0  0  0  2  0  0  0  0  0  0
  162.3180  206.3580  146.5130 C   0  0  0  0  0  2  0  0  0  0  0  0
  162.8330  204.9410  146.3250 C   0  0  1  0  0  3  0  0  0  0  0  0
  162.5790  204.1570  147.5280 N   0  0  0  0  0  2  0  0  0  0  0  0
  160.1810  204.9500  149.3210 C   0  0  0  0  0  0  0  0  0  0  0  0
  162.0300  201.4980  147.9470 F   0  0  0  0  0  0  0  0  0  0  0  0
  161.2000  203.6840  147.4730 C   0  0  1  0  0  3  0  0  0  0  0  0
  161.0940  203.2010  152.5440 C   0  0  0  0  0  3  0  0  0  0  0  0
  159.8080  201.8350  148.0190 F   0  0  0  0  0  0  0  0  0  0  0  0
  161.0400  202.3990  148.3030 C   0  0  0  0  0  0  0  0  0  0  0  0
  159.6380  206.0160  149.7190 O   0  0  0  0  0  0  0  0  0  0  0  0
  161.5200  201.9610  152.0600 C   0  0  0  0  0  3  0  0  0  0  0  0
  161.5170  201.7060  150.6880 C   0  0  0  0  0  3  0  0  0  0  0  0
  160.6560  203.9390  150.2770 C   0  0  0  0  0  0  0  0  0  0  0  0
  161.1060  202.6980  149.7840 C   0  0  0  0  0  0  0  0  0  0  0  0
  160.6590  204.1870  151.6550 C   0  0  0  0  0  3  0  0  0  0  0  0
  160.3290  204.7110  147.9520 O   0  0  0  0  0  0  0  0  0  0  0  0
  162.1990  204.2820  145.0920 C   0  0  0  0  0  2  0  0  0  0  0  0
  161.6560  205.7970  143.2050 C   0  0  0  0  0  1  0  0  0  0  0  0
  161.1050  205.1220  144.4450 C   0  0  1  0  0  3  0  0  0  0  0  0
  160.0160  204.3230  144.0960 O   0  0  0  0  0  1  0  0  0  0  0  0
  160.8760  209.7980  152.1420 C   0  0  0  0  0  2  0  0  0  0  0  0
  160.9450  210.5250  153.4770 C   0  0  0  0  0  2  0  0  0  0  0  0
  160.3140  211.9050  153.3790 C   0  0  0  0  0  2  0  0  0  0  0  0
  159.1270  211.8710  152.4320 C   0  0  0  0  0  2  0  0  0  0  0  0
  158.6560  213.2850  152.0930 C   0  0  1  0  0  3  0  0  0  0  0  0
  156.6940  214.4090  153.2220 C   0  0  0  0  0  2  0  0  0  0  0  0
  157.2050  213.5110  155.3740 C   0  0  1  0  0  3  0  0  0  0  0  0
  158.1680  214.0630  153.3230 C   0  0  1  0  0  3  0  0  0  0  0  0
  158.4010  213.3220  154.5610 N   0  0  0  0  0  2  0  0  0  0  0  0
  156.0520  213.8090  154.4450 C   0  0  0  0  0  2  0  0  0  0  0  0
  156.9110  212.2910  156.2510 C   0  0  0  0  0  3  0  0  0  0  0  0
  155.4960  212.3000  156.8080 C   0  0  0  0  0  1  0  0  0  0  0  0
  157.1460  211.0110  155.4740 C   0  0  0  0  0  1  0  0  0  0  0  0
  159.7810  214.0670  151.4270 C   0  0  0  0  0  2  0  0  0  0  0  0
  158.5290  212.9520  147.5110 C   0  0  0  0  0  2  0  0  0  0  0  0
  157.7090  214.0330  148.2020 C   0  0  0  0  0  2  0  0  0  0  0  0
  161.6430  213.5380  149.3290 O   0  0  0  0  0  0  0  0  0  0  0  0
  159.4740  214.3580  149.9620 C   0  0  2  0  0  3  0  0  0  0  0  0
  158.0160  213.9890  149.6900 C   0  0  0  0  0  2  0  0  0  0  0  0
  160.4210  213.6340  149.0280 C   0  0  0  0  0  0  0  0  0  0  0  0
  159.9550  213.1580  147.7510 N   0  0  0  0  0  0  0  0  0  0  0  0
  160.9040  212.6630  146.7580 C   0  0  0  0  0  2  0  0  0  0  0  0
  159.5190  212.0520  144.8030 C   0  0  0  0  0  1  0  0  0  0  0  0
  161.7240  213.0740  144.4170 C   0  0  0  0  0  1  0  0  0  0  0  0
  159.8640  214.4320  145.3210 C   0  0  0  0  0  1  0  0  0  0  0  0
  160.5160  213.0620  145.3330 C   0  0  0  0  0  0  0  0  0  0  0  0
  1  5  1  6  0  0  0
  1  2  1  0  0  0  0
  2  4  1  0  0  0  0
  2  3  1  0  0  0  0
  4  3  1  0  0  0  0
  6  5  1  0  0  0  0
  7  6  1  0  0  0  0
  8  7  1  0  0  0  0
  9  8  1  0  0  0  0
 10  9  1  0  0  0  0
 11 26  1  6  0  0  0
 11 10  1  0  0  0  0
 11 12  1  0  0  0  0
 13 19  2  0  0  0  0
 13 22  1  0  0  0  0
 14 18  1  0  0  0  0
 15 12  1  1  0  0  0
 15 25  1  0  0  0  0
 15 18  1  0  0  0  0
 17 18  1  0  0  0  0
 18 23  1  0  0  0  0
 20 16  1  0  0  0  0
 21 20  2  0  0  0  0
 22 24  1  0  0  0  0
 23 22  2  0  0  0  0
 23 21  1  0  0  0  0
 24 16  2  0  0  0  0
 25 13  1  0  0  0  0
 28 27  1  6  0  0  0
 28 26  1  0  0  0  0
 29 28  1  0  0  0  0
 30  1  1  0  0  0  0
 30 31  1  0  0  0  0
 32 31  1  0  0  0  0
 33 32  1  0  0  0  0
 34 43  1  1  0  0  0
 34 33  1  0  0  0  0
 35 37  1  0  0  0  0
 35 39  1  0  0  0  0
 36 40  1  6  0  0  0
 37 34  1  6  0  0  0
 37 38  1  0  0  0  0
 38 36  1  0  0  0  0
 39 36  1  0  0  0  0
 40 41  1  0  0  0  0
 42 40  1  0  0  0  0
 44 50  1  0  0  0  0
 44 45  1  0  0  0  0
 45 48  1  0  0  0  0
 47 43  1  1  0  0  0
 48 47  1  0  0  0  0
 49 46  2  0  0  0  0
 49 47  1  0  0  0  0
 50 49  1  0  0  0  0
 51 50  1  0  0  0  0
 52 55  1  0  0  0  0
 53 55  1  0  0  0  0
 54 55  1  0  0  0  0
 55 51  1  0  0  0  0
M  END
>  <MODEL>
1

>  <REMARK>
 VINA RESULT:      -5.9      0.000      0.000
  Name = 
  23 active torsions:
  status: ('A' for Active; 'I' for Inactive)
    1  A    between atoms: C_2  and  C_28
    2  A    between atoms: C_2  and  C_44
    3  A    between atoms: C_6  and  N_46
    4  A    between atoms: C_8  and  C_20
    5  A    between atoms: C_8  and  C_22
    6  A    between atoms: C_10  and  C_32
    7  A    between atoms: C_17  and  C_36
    8  A    between atoms: C_19  and  C_40
    9  A    between atoms: C_19  and  N_45
   10  A    between atoms: C_22  and  C_35
   11  A    between atoms: C_22  and  N_46
   12  A    between atoms: C_24  and  C_44
   13  A    between atoms: C_27  and  C_31
   14  A    between atoms: C_27  and  C_54
   15  A    between atoms: C_28  and  C_49
   16  A    between atoms: C_31  and  C_44
   17  A    between atoms: C_33  and  C_49
   18  A    between atoms: C_33  and  C_52
   19  A    between atoms: C_34  and  C_52
   20  A    between atoms: C_35  and  C_43
   21  A    between atoms: C_36  and  C_52
   22  A    between atoms: C_43  and  C_51
   23  A    between atoms: C_51  and  C_54
                            x       y       z     vdW  Elec       q    Type
                         _______ _______ _______ _____ _____    ______ ____

>  <TORSDO>
F 23

$$$$
=
 OpenBabel11062408473D

 55 59  0  0  1  0  0  0  0  0999 V2000
  161.2580  205.6410  146.5780 C   0  0  2  0  0  3  0  0  0  0  0  0
  162.0800  204.3640  146.4700 C   0  0  0  0  0  3  0  0  0  0  0  0
  161.6570  203.3930  147.5560 C   0  0  0  0  0  2  0  0  0  0  0  0
  161.1730  203.1990  146.1330 C   0  0  0  0  0  2  0  0  0  0  0  0
  160.8400  206.1420  145.1950 C   0  0  0  0  0  2  0  0  0  0  0  0
  161.7350  205.5920  144.0910 C   0  0  0  0  0  2  0  0  0  0  0  0
  161.2430  206.0490  142.7290 C   0  0  0  0  0  2  0  0  0  0  0  0
  162.4030  206.1300  141.7540 C   0  0  0  0  0  2  0  0  0  0  0  0
  162.4770  207.5150  141.1440 C   0  0  0  0  0  2  0  0  0  0  0  0
  161.2770  207.7170  140.2430 C   0  0  0  0  0  2  0  0  0  0  0  0
  161.4660  208.9410  139.3620 C   0  0  1  0  0  3  0  0  0  0  0  0
  161.8540  210.0850  140.1780 N   0  0  0  0  0  2  0  0  0  0  0  0
  161.9150  213.1180  139.5530 C   0  0  0  0  0  0  0  0  0  0  0  0
  160.4510  210.5760  142.4890 F   0  0  0  0  0  0  0  0  0  0  0  0
  160.7510  211.0390  140.1680 C   0  0  1  0  0  3  0  0  0  0  0  0
  163.5900  214.4520  142.6670 C   0  0  0  0  0  3  0  0  0  0  0  0
  159.3230  212.3000  141.5900 F   0  0  0  0  0  0  0  0  0  0  0  0
  160.5250  211.6150  141.5760 C   0  0  0  0  0  0  0  0  0  0  0  0
  162.3670  213.8650  138.6440 O   0  0  0  0  0  0  0  0  0  0  0  0
  162.9260  213.7220  143.6570 C   0  0  0  0  0  3  0  0  0  0  0  0
  161.9450  212.7940  143.3040 C   0  0  0  0  0  3  0  0  0  0  0  0
  162.2880  213.3260  140.9600 C   0  0  0  0  0  0  0  0  0  0  0  0
  161.6330  212.5720  141.9540 C   0  0  0  0  0  0  0  0  0  0  0  0
  163.2690  214.2580  141.3210 C   0  0  0  0  0  3  0  0  0  0  0  0
  161.0350  212.0800  139.2320 O   0  0  0  0  0  0  0  0  0  0  0  0
  162.4970  208.6720  138.2580 C   0  0  0  0  0  2  0  0  0  0  0  0
  162.2940  206.4610  137.1540 C   0  0  0  0  0  1  0  0  0  0  0  0
  161.9280  207.9280  137.0570 C   0  0  1  0  0  3  0  0  0  0  0  0
  160.5410  208.0610  137.0120 O   0  0  0  0  0  1  0  0  0  0  0  0
  162.0160  206.7030  147.3700 C   0  0  0  0  0  2  0  0  0  0  0  0
  161.2710  207.0490  148.6510 C   0  0  0  0  0  2  0  0  0  0  0  0
  162.0170  208.1080  149.4470 C   0  0  0  0  0  2  0  0  0  0  0  0
  161.6980  209.4900  148.9040 C   0  0  0  0  0  2  0  0  0  0  0  0
  161.9680  210.5670  149.9550 C   0  0  1  0  0  3  0  0  0  0  0  0
  162.8180  211.8720  147.9650 C   0  0  0  0  0  2  0  0  0  0  0  0
  160.9710  213.3840  147.9570 C   0  0  1  0  0  3  0  0  0  0  0  0
  162.1890  211.9570  149.3430 C   0  0  1  0  0  3  0  0  0  0  0  0
  160.9420  212.7140  149.2520 N   0  0  0  0  0  2  0  0  0  0  0  0
  161.8680  212.5870  147.0400 C   0  0  0  0  0  2  0  0  0  0  0  0
  159.5680  213.5420  147.3630 C   0  0  0  0  0  3  0  0  0  0  0  0
  159.2540  212.4820  146.3200 C   0  0  0  0  0  1  0  0  0  0  0  0
  158.5220  213.5080  148.4590 C   0  0  0  0  0  1  0  0  0  0  0  0
  160.8090  210.6390  150.9420 C   0  0  0  0  0  2  0  0  0  0  0  0
  160.3400  209.8050  155.0930 C   0  0  0  0  0  2  0  0  0  0  0  0
  161.4780  209.0860  154.3820 C   0  0  0  0  0  2  0  0  0  0  0  0
  160.1600  212.6730  152.8370 O   0  0  0  0  0  0  0  0  0  0  0  0
  161.2970  210.6030  152.3860 C   0  0  2  0  0  3  0  0  0  0  0  0
  161.2310  209.1600  152.8840 C   0  0  0  0  0  2  0  0  0  0  0  0
  160.5080  211.5420  153.2760 C   0  0  0  0  0  0  0  0  0  0  0  0
  160.2560  211.1950  154.6500 N   0  0  0  0  0  0  0  0  0  0  0  0
  159.6970  212.1820  155.5700 C   0  0  0  0  0  2  0  0  0  0  0  0
  157.8010  213.6950  155.0930 C   0  0  0  0  0  1  0  0  0  0  0  0
  157.5130  211.9360  156.7900 C   0  0  0  0  0  1  0  0  0  0  0  0
  157.6520  211.3420  154.3920 C   0  0  0  0  0  1  0  0  0  0  0  0
  158.1740  212.2750  155.4680 C   0  0  0  0  0  0  0  0  0  0  0  0
  1  5  1  6  0  0  0
  1 30  1  0  0  0  0
  2  1  1  0  0  0  0
  2  3  1  0  0  0  0
  4  2  1  0  0  0  0
  4  3  1  0  0  0  0
  6  5  1  0  0  0  0
  7  6  1  0  0  0  0
  8  7  1  0  0  0  0
  9  8  1  0  0  0  0
 10  9  1  0  0  0  0
 11 26  1  6  0  0  0
 11 12  1  0  0  0  0
 11 10  1  0  0  0  0
 13 22  1  0  0  0  0
 15 12  1  1  0  0  0
 15 18  1  0  0  0  0
 16 20  1  0  0  0  0
 18 17  1  0  0  0  0
 18 23  1  0  0  0  0
 18 14  1  0  0  0  0
 19 13  2  0  0  0  0
 21 20  2  0  0  0  0
 22 24  1  0  0  0  0
 22 23  2  0  0  0  0
 23 21  1  0  0  0  0
 24 16  2  0  0  0  0
 25 13  1  0  0  0  0
 25 15  1  0  0  0  0
 28 27  1  1  0  0  0
 28 26  1  0  0  0  0
 29 28  1  0  0  0  0
 30 31  1  0  0  0  0
 31 32  1  0  0  0  0
 33 32  1  0  0  0  0
 34 33  1  6  0  0  0
 34 43  1  0  0  0  0
 35 37  1  0  0  0  0
 36 40  1  6  0  0  0
 36 38  1  0  0  0  0
 37 34  1  6  0  0  0
 38 37  1  0  0  0  0
 39 36  1  0  0  0  0
 39 35  1  0  0  0  0
 40 42  1  0  0  0  0
 41 40  1  0  0  0  0
 45 44  1  0  0  0  0
 46 49  2  0  0  0  0
 47 43  1  6  0  0  0
 47 48  1  0  0  0  0
 47 49  1  0  0  0  0
 48 45  1  0  0  0  0
 49 50  1  0  0  0  0
 50 44  1  0  0  0  0
 50 51  1  0  0  0  0
 52 55  1  0  0  0  0
 54 55  1  0  0  0  0
 55 51  1  0  0  0  0
 55 53  1  0  0  0  0
M  END
>  <MODEL>
2

>  <REMARK>
 VINA RESULT:      -5.2      4.126      9.233
  Name = 
  23 active torsions:
  status: ('A' for Active; 'I' for Inactive)
    1  A    between atoms: C_2  and  C_28
    2  A    between atoms: C_2  and  C_44
    3  A    between atoms: C_6  and  N_46
    4  A    between atoms: C_8  and  C_20
    5  A    between atoms: C_8  and  C_22
    6  A    between atoms: C_10  and  C_32
    7  A    between atoms: C_17  and  C_36
    8  A    between atoms: C_19  and  C_40
    9  A    between atoms: C_19  and  N_45
   10  A    between atoms: C_22  and  C_35
   11  A    between atoms: C_22  and  N_46
   12  A    between atoms: C_24  and  C_44
   13  A    between atoms: C_27  and  C_31
   14  A    between atoms: C_27  and  C_54
   15  A    between atoms: C_28  and  C_49
   16  A    between atoms: C_31  and  C_44
   17  A    between atoms: C_33  and  C_49
   18  A    between atoms: C_33  and  C_52
   19  A    between atoms: C_34  and  C_52
   20  A    between atoms: C_35  and  C_43
   21  A    between atoms: C_36  and  C_52
   22  A    between atoms: C_43  and  C_51
   23  A    between atoms: C_51  and  C_54
                            x       y       z     vdW  Elec       q    Type
                         _______ _______ _______ _____ _____    ______ ____

>  <TORSDO>
F 23

$$$$
=
 OpenBabel11062408473D

 55 59  0  0  1  0  0  0  0  0999 V2000
  161.3750  205.8970  145.1800 C   0  0  2  0  0  3  0  0  0  0  0  0
  160.4790  204.7370  145.5920 C   0  0  0  0  0  3  0  0  0  0  0  0
  160.6310  203.5990  144.6010 C   0  0  0  0  0  2  0  0  0  0  0  0
  161.3300  203.5340  145.9450 C   0  0  0  0  0  2  0  0  0  0  0  0
  162.1430  205.5670  143.9000 C   0  0  0  0  0  2  0  0  0  0  0  0
  161.3960  206.0170  142.6500 C   0  0  0  0  0  2  0  0  0  0  0  0
  162.3730  206.4500  141.5720 C   0  0  0  0  0  2  0  0  0  0  0  0
  161.6360  207.1650  140.4540 C   0  0  0  0  0  2  0  0  0  0  0  0
  162.3300  208.4700  140.1210 C   0  0  0  0  0  2  0  0  0  0  0  0
  161.3030  209.5830  140.1200 C   0  0  0  0  0  2  0  0  0  0  0  0
  161.9790  210.9380  140.2400 C   0  0  1  0  0  3  0  0  0  0  0  0
  161.9470  211.3890  141.6260 N   0  0  0  0  0  2  0  0  0  0  0  0
  162.9330  213.7440  143.3800 C   0  0  0  0  0  0  0  0  0  0  0  0
  159.3440  211.9660  142.2920 F   0  0  0  0  0  0  0  0  0  0  0  0
  161.4910  212.7750  141.6370 C   0  0  1  0  0  3  0  0  0  0  0  0
  161.4680  212.7960  146.7320 C   0  0  0  0  0  3  0  0  0  0  0  0
  159.7190  214.1810  142.3700 F   0  0  0  0  0  0  0  0  0  0  0  0
  160.2890  212.9370  142.5820 C   0  0  0  0  0  0  0  0  0  0  0  0
  164.0380  214.2660  143.6890 O   0  0  0  0  0  0  0  0  0  0  0  0
  160.1830  212.3960  146.3550 C   0  0  0  0  0  3  0  0  0  0  0  0
  159.8060  212.4260  145.0110 C   0  0  0  0  0  3  0  0  0  0  0  0
  162.0050  213.2660  144.4150 C   0  0  0  0  0  0  0  0  0  0  0  0
  160.7180  212.8400  144.0280 C   0  0  0  0  0  0  0  0  0  0  0  0
  162.3760  213.2350  145.7650 C   0  0  0  0  0  3  0  0  0  0  0  0
  162.5690  213.6240  142.0360 O   0  0  0  0  0  0  0  0  0  0  0  0
  163.4180  210.8860  139.7080 C   0  0  0  0  0  2  0  0  0  0  0  0
  162.6330  211.5440  137.4500 C   0  0  0  0  0  1  0  0  0  0  0  0
  163.6670  211.8120  138.5250 C   0  0  1  0  0  3  0  0  0  0  0  0
  163.5900  213.1470  138.9230 O   0  0  0  0  0  1  0  0  0  0  0  0
  162.3050  206.2900  146.3240 C   0  0  0  0  0  2  0  0  0  0  0  0
  161.6480  207.3350  147.2130 C   0  0  0  0  0  2  0  0  0  0  0  0
  162.5710  207.7440  148.3500 C   0  0  0  0  0  2  0  0  0  0  0  0
  161.8260  208.6250  149.3360 C   0  0  0  0  0  2  0  0  0  0  0  0
  162.1430  208.2240  150.7770 C   0  0  1  0  0  3  0  0  0  0  0  0
  161.3430  208.1490  153.1730 C   0  0  0  0  0  2  0  0  0  0  0  0
  160.2090  210.2460  153.0340 C   0  0  1  0  0  3  0  0  0  0  0  0
  160.9690  208.4630  151.7370 C   0  0  1  0  0  3  0  0  0  0  0  0
  160.4770  209.8370  151.6600 N   0  0  0  0  0  2  0  0  0  0  0  0
  161.0820  209.4150  153.9460 C   0  0  0  0  0  2  0  0  0  0  0  0
  160.4530  211.7430  153.2440 C   0  0  0  0  0  3  0  0  0  0  0  0
  159.7460  212.6000  152.2050 C   0  0  0  0  0  1  0  0  0  0  0  0
  160.0170  212.1610  154.6340 C   0  0  0  0  0  1  0  0  0  0  0  0
  162.5410  206.7550  150.8370 C   0  0  0  0  0  2  0  0  0  0  0  0
  160.8250  203.0310  151.9920 C   0  0  0  0  0  2  0  0  0  0  0  0
  160.8560  204.1210  153.0550 C   0  0  0  0  0  2  0  0  0  0  0  0
  160.8570  205.2500  149.0900 O   0  0  0  0  0  0  0  0  0  0  0  0
  161.3980  205.8820  151.3460 C   0  0  2  0  0  3  0  0  0  0  0  0
  161.8560  205.1820  152.6240 C   0  0  0  0  0  2  0  0  0  0  0  0
  160.9290  204.8930  150.2990 C   0  0  0  0  0  0  0  0  0  0  0  0
  160.4580  203.5920  150.6940 N   0  0  0  0  0  0  0  0  0  0  0  0
  159.7990  202.7200  149.7240 C   0  0  0  0  0  2  0  0  0  0  0  0
  160.1140  201.0850  147.8970 C   0  0  0  0  0  1  0  0  0  0  0  0
  161.0150  200.5570  150.1250 C   0  0  0  0  0  1  0  0  0  0  0  0
  162.0680  202.3180  148.7420 C   0  0  0  0  0  1  0  0  0  0  0  0
  160.7510  201.6770  149.1380 C   0  0  0  0  0  0  0  0  0  0  0  0
  1  5  1  6  0  0  0
  1  2  1  0  0  0  0
  1 30  1  0  0  0  0
  2  4  1  0  0  0  0
  3  2  1  0  0  0  0
  3  4  1  0  0  0  0
  6  5  1  0  0  0  0
  7  6  1  0  0  0  0
  8  7  1  0  0  0  0
  9  8  1  0  0  0  0
 10  9  1  0  0  0  0
 10 11  1  0  0  0  0
 11 26  1  1  0  0  0
 11 12  1  0  0  0  0
 13 19  2  0  0  0  0
 13 22  1  0  0  0  0
 14 18  1  0  0  0  0
 15 12  1  1  0  0  0
 15 25  1  0  0  0  0
 15 18  1  0  0  0  0
 17 18  1  0  0  0  0
 18 23  1  0  0  0  0
 20 16  1  0  0  0  0
 21 20  2  0  0  0  0
 22 24  1  0  0  0  0
 23 22  2  0  0  0  0
 23 21  1  0  0  0  0
 24 16  2  0  0  0  0
 25 13  1  0  0  0  0
 28 27  1  6  0  0  0
 28 29  1  0  0  0  0
 28 26  1  0  0  0  0
 30 31  1  0  0  0  0
 31 32  1  0  0  0  0
 32 33  1  0  0  0  0
 34 33  1  6  0  0  0
 34 43  1  0  0  0  0
 35 39  1  0  0  0  0
 36 40  1  6  0  0  0
 36 39  1  0  0  0  0
 37 34  1  6  0  0  0
 37 35  1  0  0  0  0
 38 37  1  0  0  0  0
 38 36  1  0  0  0  0
 40 42  1  0  0  0  0
 41 40  1  0  0  0  0
 44 45  1  0  0  0  0
 46 49  2  0  0  0  0
 47 43  1  6  0  0  0
 47 48  1  0  0  0  0
 48 45  1  0  0  0  0
 49 50  1  0  0  0  0
 49 47  1  0  0  0  0
 50 44  1  0  0  0  0
 51 50  1  0  0  0  0
 52 55  1  0  0  0  0
 54 55  1  0  0  0  0
 55 51  1  0  0  0  0
 55 53  1  0  0  0  0
M  END
>  <MODEL>
3

>  <REMARK>
 VINA RESULT:      -4.6      3.970      9.465
  Name = 
  23 active torsions:
  status: ('A' for Active; 'I' for Inactive)
    1  A    between atoms: C_2  and  C_28
    2  A    between atoms: C_2  and  C_44
    3  A    between atoms: C_6  and  N_46
    4  A    between atoms: C_8  and  C_20
    5  A    between atoms: C_8  and  C_22
    6  A    between atoms: C_10  and  C_32
    7  A    between atoms: C_17  and  C_36
    8  A    between atoms: C_19  and  C_40
    9  A    between atoms: C_19  and  N_45
   10  A    between atoms: C_22  and  C_35
   11  A    between atoms: C_22  and  N_46
   12  A    between atoms: C_24  and  C_44
   13  A    between atoms: C_27  and  C_31
   14  A    between atoms: C_27  and  C_54
   15  A    between atoms: C_28  and  C_49
   16  A    between atoms: C_31  and  C_44
   17  A    between atoms: C_33  and  C_49
   18  A    between atoms: C_33  and  C_52
   19  A    between atoms: C_34  and  C_52
   20  A    between atoms: C_35  and  C_43
   21  A    between atoms: C_36  and  C_52
   22  A    between atoms: C_43  and  C_51
   23  A    between atoms: C_51  and  C_54
                            x       y       z     vdW  Elec       q    Type
                         _______ _______ _______ _____ _____    ______ ____

>  <TORSDO>
F 23

$$$$
=
 OpenBabel11062408473D

 55 59  0  0  1  0  0  0  0  0999 V2000
  161.3700  204.9970  146.7090 C   0  0  2  0  0  3  0  0  0  0  0  0
  161.9940  203.6200  146.8920 C   0  0  0  0  0  3  0  0  0  0  0  0
  161.0840  202.7590  147.7470 C   0  0  0  0  0  2  0  0  0  0  0  0
  161.1160  202.5700  146.2440 C   0  0  0  0  0  2  0  0  0  0  0  0
  161.9550  205.7050  145.4860 C   0  0  0  0  0  2  0  0  0  0  0  0
  161.0740  205.5420  144.2520 C   0  0  0  0  0  2  0  0  0  0  0  0
  161.9170  205.5590  142.9900 C   0  0  0  0  0  2  0  0  0  0  0  0
  161.4650  206.6820  142.0740 C   0  0  0  0  0  2  0  0  0  0  0  0
  162.1640  206.5770  140.7350 C   0  0  0  0  0  2  0  0  0  0  0  0
  162.5660  207.9660  140.2830 C   0  0  0  0  0  2  0  0  0  0  0  0
  161.3430  208.7800  139.8960 C   0  0  1  0  0  3  0  0  0  0  0  0
  161.7400  210.1410  139.5560 N   0  0  0  0  0  2  0  0  0  0  0  0
  161.5180  213.2050  139.1560 C   0  0  0  0  0  0  0  0  0  0  0  0
  160.7550  210.3910  142.1090 F   0  0  0  0  0  0  0  0  0  0  0  0
  160.6020  211.0180  139.8120 C   0  0  1  0  0  3  0  0  0  0  0  0
  163.6550  214.4520  142.0120 C   0  0  0  0  0  3  0  0  0  0  0  0
  159.3890  212.0880  141.5550 F   0  0  0  0  0  0  0  0  0  0  0  0
  160.6050  211.4880  141.2770 C   0  0  0  0  0  0  0  0  0  0  0  0
  161.7560  214.0360  138.2380 O   0  0  0  0  0  0  0  0  0  0  0  0
  163.2240  213.6190  143.0480 C   0  0  0  0  0  3  0  0  0  0  0  0
  162.2480  212.6500  142.8070 C   0  0  0  0  0  3  0  0  0  0  0  0
  162.1290  213.3490  140.4850 C   0  0  0  0  0  0  0  0  0  0  0  0
  161.7080  212.4920  141.5220 C   0  0  0  0  0  0  0  0  0  0  0  0
  163.1070  214.3210  140.7340 C   0  0  0  0  0  3  0  0  0  0  0  0
  160.6540  212.1330  138.9200 O   0  0  0  0  0  0  0  0  0  0  0  0
  160.5840  208.1200  138.7380 C   0  0  0  0  0  2  0  0  0  0  0  0
  162.1850  209.4620  137.4020 C   0  0  0  0  0  1  0  0  0  0  0  0
  161.2950  208.2360  137.3950 C   0  0  1  0  0  3  0  0  0  0  0  0
  162.0670  207.1010  137.1500 O   0  0  0  0  0  1  0  0  0  0  0  0
  161.5190  205.8280  147.9800 C   0  0  0  0  0  2  0  0  0  0  0  0
  161.4240  207.3130  147.6630 C   0  0  0  0  0  2  0  0  0  0  0  0
  162.0820  208.1470  148.7500 C   0  0  0  0  0  2  0  0  0  0  0  0
  161.4630  209.5340  148.7910 C   0  0  0  0  0  2  0  0  0  0  0  0
  162.4760  210.5710  149.2780 C   0  0  1  0  0  3  0  0  0  0  0  0
  163.0520  212.4160  147.6500 C   0  0  0  0  0  2  0  0  0  0  0  0
  160.7700  212.9310  147.1710 C   0  0  1  0  0  3  0  0  0  0  0  0
  162.1530  211.9920  148.7970 C   0  0  1  0  0  3  0  0  0  0  0  0
  160.7580  212.1210  148.3840 N   0  0  0  0  0  2  0  0  0  0  0  0
  162.1230  212.7730  146.5190 C   0  0  0  0  0  2  0  0  0  0  0  0
  159.6420  212.5430  146.2120 C   0  0  0  0  0  3  0  0  0  0  0  0
  158.2670  212.6540  146.8530 C   0  0  0  0  0  1  0  0  0  0  0  0
  159.6930  213.3960  144.9600 C   0  0  0  0  0  1  0  0  0  0  0  0
  162.5410  210.5650  150.8000 C   0  0  0  0  0  2  0  0  0  0  0  0
  159.6790  210.9350  153.9330 C   0  0  0  0  0  2  0  0  0  0  0  0
  159.2950  211.5430  152.5900 C   0  0  0  0  0  2  0  0  0  0  0  0
  162.0120  208.4420  152.6340 O   0  0  0  0  0  0  0  0  0  0  0  0
  161.1670  210.3380  151.4220 C   0  0  2  0  0  3  0  0  0  0  0  0
  160.5580  211.6990  151.7570 C   0  0  0  0  0  2  0  0  0  0  0  0
  161.2350  209.4370  152.6370 C   0  0  0  0  0  0  0  0  0  0  0  0
  160.3370  209.6450  153.7420 N   0  0  0  0  0  0  0  0  0  0  0  0
  160.2410  208.6540  154.8120 C   0  0  0  0  0  2  0  0  0  0  0  0
  160.0720  209.4330  157.1520 C   0  0  0  0  0  1  0  0  0  0  0  0
  161.9350  210.2480  155.7650 C   0  0  0  0  0  1  0  0  0  0  0  0
  161.8940  207.8980  156.5360 C   0  0  0  0  0  1  0  0  0  0  0  0
  161.0430  209.0560  156.0510 C   0  0  0  0  0  0  0  0  0  0  0  0
  1  5  1  6  0  0  0
  1  2  1  0  0  0  0
  1 30  1  0  0  0  0
  2  3  1  0  0  0  0
  4  2  1  0  0  0  0
  4  3  1  0  0  0  0
  6  5  1  0  0  0  0
  7  6  1  0  0  0  0
  8  7  1  0  0  0  0
  9  8  1  0  0  0  0
 10  9  1  0  0  0  0
 11 26  1  6  0  0  0
 11 10  1  0  0  0  0
 12 11  1  0  0  0  0
 13 22  1  0  0  0  0
 15 12  1  1  0  0  0
 15 18  1  0  0  0  0
 16 20  1  0  0  0  0
 18 23  1  0  0  0  0
 18 17  1  0  0  0  0
 18 14  1  0  0  0  0
 19 13  2  0  0  0  0
 21 20  2  0  0  0  0
 22 24  1  0  0  0  0
 22 23  2  0  0  0  0
 23 21  1  0  0  0  0
 24 16  2  0  0  0  0
 25 13  1  0  0  0  0
 25 15  1  0  0  0  0
 28 27  1  1  0  0  0
 28 26  1  0  0  0  0
 29 28  1  0  0  0  0
 31 30  1  0  0  0  0
 31 32  1  0  0  0  0
 32 33  1  0  0  0  0
 34 33  1  1  0  0  0
 34 43  1  0  0  0  0
 35 37  1  0  0  0  0
 36 40  1  6  0  0  0
 36 38  1  0  0  0  0
 37 34  1  6  0  0  0
 38 37  1  0  0  0  0
 39 36  1  0  0  0  0
 39 35  1  0  0  0  0
 40 41  1  0  0  0  0
 42 40  1  0  0  0  0
 45 44  1  0  0  0  0
 46 49  2  0  0  0  0
 47 43  1  1  0  0  0
 47 48  1  0  0  0  0
 47 49  1  0  0  0  0
 48 45  1  0  0  0  0
 49 50  1  0  0  0  0
 50 44  1  0  0  0  0
 50 51  1  0  0  0  0
 51 55  1  0  0  0  0
 53 55  1  0  0  0  0
 55 54  1  0  0  0  0
 55 52  1  0  0  0  0
M  END
>  <MODEL>
4

>  <REMARK>
 VINA RESULT:      -4.6      4.266      9.479
  Name = 
  23 active torsions:
  status: ('A' for Active; 'I' for Inactive)
    1  A    between atoms: C_2  and  C_28
    2  A    between atoms: C_2  and  C_44
    3  A    between atoms: C_6  and  N_46
    4  A    between atoms: C_8  and  C_20
    5  A    between atoms: C_8  and  C_22
    6  A    between atoms: C_10  and  C_32
    7  A    between atoms: C_17  and  C_36
    8  A    between atoms: C_19  and  C_40
    9  A    between atoms: C_19  and  N_45
   10  A    between atoms: C_22  and  C_35
   11  A    between atoms: C_22  and  N_46
   12  A    between atoms: C_24  and  C_44
   13  A    between atoms: C_27  and  C_31
   14  A    between atoms: C_27  and  C_54
   15  A    between atoms: C_28  and  C_49
   16  A    between atoms: C_31  and  C_44
   17  A    between atoms: C_33  and  C_49
   18  A    between atoms: C_33  and  C_52
   19  A    between atoms: C_34  and  C_52
   20  A    between atoms: C_35  and  C_43
   21  A    between atoms: C_36  and  C_52
   22  A    between atoms: C_43  and  C_51
   23  A    between atoms: C_51  and  C_54
                            x       y       z     vdW  Elec       q    Type
                         _______ _______ _______ _____ _____    ______ ____

>  <TORSDO>
F 23

$$$$
=
 OpenBabel11062408473D

 55 59  0  0  1  0  0  0  0  0999 V2000
  161.1910  205.1810  146.3400 C   0  0  2  0  0  3  0  0  0  0  0  0
  162.0010  203.9010  146.1830 C   0  0  0  0  0  3  0  0  0  0  0  0
  161.4310  202.8240  147.0860 C   0  0  0  0  0  2  0  0  0  0  0  0
  161.1260  202.8100  145.6020 C   0  0  0  0  0  2  0  0  0  0  0  0
  161.4390  206.1330  145.1690 C   0  0  0  0  0  2  0  0  0  0  0  0
  161.3420  205.4250  143.8230 C   0  0  0  0  0  2  0  0  0  0  0  0
  162.2640  206.0780  142.8090 C   0  0  0  0  0  2  0  0  0  0  0  0
  161.5910  206.1340  141.4500 C   0  0  0  0  0  2  0  0  0  0  0  0
  162.1590  207.2770  140.6330 C   0  0  0  0  0  2  0  0  0  0  0  0
  161.1400  208.3970  140.5870 C   0  0  0  0  0  2  0  0  0  0  0  0
  161.5310  209.4360  139.5490 C   0  0  1  0  0  3  0  0  0  0  0  0
  162.0240  210.6390  140.2110 N   0  0  0  0  0  2  0  0  0  0  0  0
  162.7280  213.6350  140.5630 C   0  0  0  0  0  0  0  0  0  0  0  0
  159.3470  211.2350  140.3810 F   0  0  0  0  0  0  0  0  0  0  0  0
  161.4910  211.7940  139.4960 C   0  0  1  0  0  3  0  0  0  0  0  0
  161.0500  214.3760  143.8660 C   0  0  0  0  0  3  0  0  0  0  0  0
  159.5890  213.2120  139.3380 F   0  0  0  0  0  0  0  0  0  0  0  0
  160.2080  212.3010  140.1760 C   0  0  0  0  0  0  0  0  0  0  0  0
  163.7730  214.3380  140.6090 O   0  0  0  0  0  0  0  0  0  0  0  0
  159.8250  213.7260  143.6920 C   0  0  0  0  0  3  0  0  0  0  0  0
  159.5570  213.0420  142.5050 C   0  0  0  0  0  3  0  0  0  0  0  0
  161.7470  213.6610  141.6570 C   0  0  0  0  0  0  0  0  0  0  0  0
  160.5220  212.9850  141.4870 C   0  0  0  0  0  0  0  0  0  0  0  0
  162.0080  214.3480  142.8500 C   0  0  0  0  0  3  0  0  0  0  0  0
  162.4830  212.8210  139.4530 O   0  0  0  0  0  0  0  0  0  0  0  0
  162.5740  208.8760  138.5720 C   0  0  0  0  0  2  0  0  0  0  0  0
  161.9550  207.0440  137.0190 C   0  0  0  0  0  1  0  0  0  0  0  0
  162.0090  208.5480  137.1960 C   0  0  1  0  0  3  0  0  0  0  0  0
  160.7270  209.0800  137.0540 O   0  0  0  0  0  1  0  0  0  0  0  0
  161.4800  205.8380  147.6870 C   0  0  0  0  0  2  0  0  0  0  0  0
  160.8830  207.2370  147.7380 C   0  0  0  0  0  2  0  0  0  0  0  0
  161.9570  208.2790  148.0030 C   0  0  0  0  0  2  0  0  0  0  0  0
  161.3630  209.4640  148.7450 C   0  0  0  0  0  2  0  0  0  0  0  0
  162.4630  210.3540  149.3250 C   0  0  1  0  0  3  0  0  0  0  0  0
  162.3100  212.0470  147.4560 C   0  0  0  0  0  2  0  0  0  0  0  0
  160.4910  213.2290  148.4530 C   0  0  1  0  0  3  0  0  0  0  0  0
  162.2900  211.8340  148.9580 C   0  0  1  0  0  3  0  0  0  0  0  0
  161.0520  212.3870  149.5020 N   0  0  0  0  0  2  0  0  0  0  0  0
  161.0060  212.7250  147.1250 C   0  0  0  0  0  2  0  0  0  0  0  0
  158.9600  213.2430  148.4860 C   0  0  0  0  0  3  0  0  0  0  0  0
  158.4100  214.0220  149.6710 C   0  0  0  0  0  1  0  0  0  0  0  0
  158.4070  213.8150  147.1960 C   0  0  0  0  0  1  0  0  0  0  0  0
  162.4990  210.2210  150.8420 C   0  0  0  0  0  2  0  0  0  0  0  0
  161.1180  207.3830  153.7030 C   0  0  0  0  0  2  0  0  0  0  0  0
  160.1440  208.4890  153.3220 C   0  0  0  0  0  2  0  0  0  0  0  0
  163.0650  207.4320  150.6120 O   0  0  0  0  0  0  0  0  0  0  0  0
  161.5400  209.1430  151.3370 C   0  0  2  0  0  3  0  0  0  0  0  0
  160.9280  209.6090  152.6570 C   0  0  0  0  0  2  0  0  0  0  0  0
  162.2200  207.7970  151.4760 C   0  0  0  0  0  0  0  0  0  0  0  0
  161.8220  206.8910  152.5220 N   0  0  0  0  0  0  0  0  0  0  0  0
  162.3090  205.5140  152.5290 C   0  0  0  0  0  2  0  0  0  0  0  0
  162.0630  203.3570  151.3450 C   0  0  0  0  0  1  0  0  0  0  0  0
  160.5180  205.1920  150.7940 C   0  0  0  0  0  1  0  0  0  0  0  0
  160.3410  204.0270  152.9700 C   0  0  0  0  0  1  0  0  0  0  0  0
  161.3030  204.5380  151.9150 C   0  0  0  0  0  0  0  0  0  0  0  0
  1  5  1  6  0  0  0
  1 30  1  0  0  0  0
  2  1  1  0  0  0  0
  2  3  1  0  0  0  0
  4  2  1  0  0  0  0
  4  3  1  0  0  0  0
  6  5  1  0  0  0  0
  7  6  1  0  0  0  0
  8  7  1  0  0  0  0
  9  8  1  0  0  0  0
 10  9  1  0  0  0  0
 11 26  1  6  0  0  0
 11 12  1  0  0  0  0
 11 10  1  0  0  0  0
 13 19  2  0  0  0  0
 13 22  1  0  0  0  0
 15 18  1  0  0  0  0
 15 12  1  1  0  0  0
 17 18  1  0  0  0  0
 18 14  1  0  0  0  0
 18 23  1  0  0  0  0
 20 16  1  0  0  0  0
 21 20  2  0  0  0  0
 22 24  1  0  0  0  0
 23 22  2  0  0  0  0
 23 21  1  0  0  0  0
 24 16  2  0  0  0  0
 25 15  1  0  0  0  0
 25 13  1  0  0  0  0
 28 27  1  1  0  0  0
 28 26  1  0  0  0  0
 29 28  1  0  0  0  0
 30 31  1  0  0  0  0
 31 32  1  0  0  0  0
 32 33  1  0  0  0  0
 34 33  1  1  0  0  0
 34 43  1  0  0  0  0
 35 37  1  0  0  0  0
 36 40  1  6  0  0  0
 36 38  1  0  0  0  0
 37 34  1  6  0  0  0
 37 38  1  0  0  0  0
 39 35  1  0  0  0  0
 39 36  1  0  0  0  0
 40 41  1  0  0  0  0
 42 40  1  0  0  0  0
 45 44  1  0  0  0  0
 46 49  2  0  0  0  0
 47 43  1  1  0  0  0
 47 49  1  0  0  0  0
 47 48  1  0  0  0  0
 48 45  1  0  0  0  0
 49 50  1  0  0  0  0
 50 51  1  0  0  0  0
 50 44  1  0  0  0  0
 52 55  1  0  0  0  0
 53 55  1  0  0  0  0
 55 51  1  0  0  0  0
 55 54  1  0  0  0  0
M  END
>  <MODEL>
5

>  <REMARK>
 VINA RESULT:      -4.4      4.348      9.441
  Name = 
  23 active torsions:
  status: ('A' for Active; 'I' for Inactive)
    1  A    between atoms: C_2  and  C_28
    2  A    between atoms: C_2  and  C_44
    3  A    between atoms: C_6  and  N_46
    4  A    between atoms: C_8  and  C_20
    5  A    between atoms: C_8  and  C_22
    6  A    between atoms: C_10  and  C_32
    7  A    between atoms: C_17  and  C_36
    8  A    between atoms: C_19  and  C_40
    9  A    between atoms: C_19  and  N_45
   10  A    between atoms: C_22  and  C_35
   11  A    between atoms: C_22  and  N_46
   12  A    between atoms: C_24  and  C_44
   13  A    between atoms: C_27  and  C_31
   14  A    between atoms: C_27  and  C_54
   15  A    between atoms: C_28  and  C_49
   16  A    between atoms: C_31  and  C_44
   17  A    between atoms: C_33  and  C_49
   18  A    between atoms: C_33  and  C_52
   19  A    between atoms: C_34  and  C_52
   20  A    between atoms: C_35  and  C_43
   21  A    between atoms: C_36  and  C_52
   22  A    between atoms: C_43  and  C_51
   23  A    between atoms: C_51  and  C_54
                            x       y       z     vdW  Elec       q    Type
                         _______ _______ _______ _____ _____    ______ ____

>  <TORSDO>
F 23

$$$$
=
 OpenBabel11062408473D

 55 59  0  0  1  0  0  0  0  0999 V2000
  162.3110  208.1740  149.9100 C   0  0  2  0  0  3  0  0  0  0  0  0
  162.1550  207.2910  148.6800 C   0  0  0  0  0  3  0  0  0  0  0  0
  160.7160  206.8240  148.5680 C   0  0  0  0  0  2  0  0  0  0  0  0
  161.2170  207.9530  147.6910 C   0  0  0  0  0  2  0  0  0  0  0  0
  161.6310  207.5450  151.1270 C   0  0  0  0  0  2  0  0  0  0  0  0
  162.5400  206.5530  151.8440 C   0  0  0  0  0  2  0  0  0  0  0  0
  162.0000  206.2400  153.2270 C   0  0  0  0  0  2  0  0  0  0  0  0
  161.0140  205.0880  153.1550 C   0  0  0  0  0  2  0  0  0  0  0  0
  161.3400  204.1950  151.9760 C   0  0  0  0  0  2  0  0  0  0  0  0
  160.2340  204.3210  150.9480 C   0  0  0  0  0  2  0  0  0  0  0  0
  160.3720  203.2520  149.8770 C   0  0  1  0  0  3  0  0  0  0  0  0
  160.8000  203.8590  148.6220 N   0  0  0  0  0  2  0  0  0  0  0  0
  163.0820  204.3240  146.5800 C   0  0  0  0  0  0  0  0  0  0  0  0
  159.5640  202.1400  146.8690 F   0  0  0  0  0  0  0  0  0  0  0  0
  161.5910  202.8730  147.8930 C   0  0  1  0  0  3  0  0  0  0  0  0
  161.1240  205.5730  143.5980 C   0  0  0  0  0  3  0  0  0  0  0  0
  161.5120  201.3570  146.0630 F   0  0  0  0  0  0  0  0  0  0  0  0
  160.8810  202.4710  146.5900 C   0  0  0  0  0  0  0  0  0  0  0  0
  164.1470  204.9960  146.5230 O   0  0  0  0  0  0  0  0  0  0  0  0
  160.0470  204.6820  143.5980 C   0  0  0  0  0  3  0  0  0  0  0  0
  159.9590  203.6880  144.5740 C   0  0  0  0  0  3  0  0  0  0  0  0
  162.0370  204.4740  145.5560 C   0  0  0  0  0  0  0  0  0  0  0  0
  160.9400  203.5880  145.5730 C   0  0  0  0  0  0  0  0  0  0  0  0
  162.1190  205.4670  144.5730 C   0  0  0  0  0  3  0  0  0  0  0  0
  162.8850  203.4140  147.6210 O   0  0  0  0  0  0  0  0  0  0  0  0
  161.3450  202.1500  150.3180 C   0  0  0  0  0  2  0  0  0  0  0  0
  159.3260  200.8050  149.8060 C   0  0  0  0  0  1  0  0  0  0  0  0
  160.8100  200.7400  150.1060 C   0  0  1  0  0  3  0  0  0  0  0  0
  161.4720  200.1190  149.0470 O   0  0  0  0  0  1  0  0  0  0  0  0
  161.7960  209.5830  149.6280 C   0  0  0  0  0  2  0  0  0  0  0  0
  162.1160  210.5120  150.7910 C   0  0  0  0  0  2  0  0  0  0  0  0
  160.8520  210.9130  151.5330 C   0  0  0  0  0  2  0  0  0  0  0  0
  160.0270  211.8640  150.6840 C   0  0  0  0  0  2  0  0  0  0  0  0
  160.6960  213.2370  150.5950 C   0  0  1  0  0  3  0  0  0  0  0  0
  161.8790  212.9880  148.3760 C   0  0  0  0  0  2  0  0  0  0  0  0
  159.8740  213.1890  147.0960 C   0  0  1  0  0  3  0  0  0  0  0  0
  160.8200  213.7470  149.1530 C   0  0  1  0  0  3  0  0  0  0  0  0
  159.5500  213.6630  148.4360 N   0  0  0  0  0  2  0  0  0  0  0  0
  161.1700  212.4170  147.1760 C   0  0  0  0  0  2  0  0  0  0  0  0
  158.7510  212.3300  146.5050 C   0  0  0  0  0  3  0  0  0  0  0  0
  157.4030  212.6110  147.1490 C   0  0  0  0  0  1  0  0  0  0  0  0
  158.6570  212.5390  145.0070 C   0  0  0  0  0  1  0  0  0  0  0  0
  159.9140  214.2550  151.4150 C   0  0  0  0  0  2  0  0  0  0  0  0
  156.2850  214.4510  153.6370 C   0  0  0  0  0  2  0  0  0  0  0  0
  156.1640  214.0320  152.1790 C   0  0  0  0  0  2  0  0  0  0  0  0
  159.7380  213.3600  154.1200 O   0  0  0  0  0  0  0  0  0  0  0  0
  158.6420  213.6500  152.0010 C   0  0  2  0  0  3  0  0  0  0  0  0
  157.4440  214.4280  151.4590 C   0  0  0  0  0  2  0  0  0  0  0  0
  158.6650  213.6340  153.5150 C   0  0  0  0  0  0  0  0  0  0  0  0
  157.4460  213.8180  154.2580 N   0  0  0  0  0  0  0  0  0  0  0  0
  157.4180  213.5820  155.6990 C   0  0  0  0  0  2  0  0  0  0  0  0
  157.0200  211.7070  157.2610 C   0  0  0  0  0  1  0  0  0  0  0  0
  156.2200  211.5060  154.9420 C   0  0  0  0  0  1  0  0  0  0  0  0
  155.1060  213.0600  156.5120 C   0  0  0  0  0  1  0  0  0  0  0  0
  156.4400  212.4730  156.0890 C   0  0  0  0  0  0  0  0  0  0  0  0
  1 30  1  6  0  0  0
  1  5  1  0  0  0  0
  2  1  1  0  0  0  0
  3  2  1  0  0  0  0
  4  3  1  0  0  0  0
  4  2  1  0  0  0  0
  5  6  1  0  0  0  0
  6  7  1  0  0  0  0
  8  7  1  0  0  0  0
  9  8  1  0  0  0  0
 10  9  1  0  0  0  0
 11 26  1  1  0  0  0
 11 10  1  0  0  0  0
 12 11  1  0  0  0  0
 13 25  1  0  0  0  0
 15 12  1  6  0  0  0
 16 24  1  0  0  0  0
 17 18  1  0  0  0  0
 18 14  1  0  0  0  0
 18 15  1  0  0  0  0
 19 13  2  0  0  0  0
 20 16  2  0  0  0  0
 20 21  1  0  0  0  0
 21 23  2  0  0  0  0
 22 23  1  0  0  0  0
 22 13  1  0  0  0  0
 23 18  1  0  0  0  0
 24 22  2  0  0  0  0
 25 15  1  0  0  0  0
 28 27  1  6  0  0  0
 28 26  1  0  0  0  0
 29 28  1  0  0  0  0
 30 31  1  0  0  0  0
 31 32  1  0  0  0  0
 33 32  1  0  0  0  0
 34 33  1  6  0  0  0
 34 43  1  0  0  0  0
 35 37  1  0  0  0  0
 36 40  1  1  0  0  0
 36 39  1  0  0  0  0
 36 38  1  0  0  0  0
 37 34  1  1  0  0  0
 38 37  1  0  0  0  0
 39 35  1  0  0  0  0
 40 41  1  0  0  0  0
 42 40  1  0  0  0  0
 44 50  1  0  0  0  0
 45 44  1  0  0  0  0
 47 43  1  1  0  0  0
 47 49  1  0  0  0  0
 48 47  1  0  0  0  0
 48 45  1  0  0  0  0
 49 46  2  0  0  0  0
 49 50  1  0  0  0  0
 50 51  1  0  0  0  0
 51 55  1  0  0  0  0
 53 55  1  0  0  0  0
 55 54  1  0  0  0  0
 55 52  1  0  0  0  0
M  END
>  <MODEL>
6

>  <REMARK>
 VINA RESULT:      -4.0      1.784      6.473
  Name = 
  23 active torsions:
  status: ('A' for Active; 'I' for Inactive)
    1  A    between atoms: C_2  and  C_28
    2  A    between atoms: C_2  and  C_44
    3  A    between atoms: C_6  and  N_46
    4  A    between atoms: C_8  and  C_20
    5  A    between atoms: C_8  and  C_22
    6  A    between atoms: C_10  and  C_32
    7  A    between atoms: C_17  and  C_36
    8  A    between atoms: C_19  and  C_40
    9  A    between atoms: C_19  and  N_45
   10  A    between atoms: C_22  and  C_35
   11  A    between atoms: C_22  and  N_46
   12  A    between atoms: C_24  and  C_44
   13  A    between atoms: C_27  and  C_31
   14  A    between atoms: C_27  and  C_54
   15  A    between atoms: C_28  and  C_49
   16  A    between atoms: C_31  and  C_44
   17  A    between atoms: C_33  and  C_49
   18  A    between atoms: C_33  and  C_52
   19  A    between atoms: C_34  and  C_52
   20  A    between atoms: C_35  and  C_43
   21  A    between atoms: C_36  and  C_52
   22  A    between atoms: C_43  and  C_51
   23  A    between atoms: C_51  and  C_54
                            x       y       z     vdW  Elec       q    Type
                         _______ _______ _______ _____ _____    ______ ____

>  <TORSDO>
F 23

$$$$
=
 OpenBabel11062408473D

 55 59  0  0  1  0  0  0  0  0999 V2000
  161.4100  212.5340  148.9380 C   0  0  2  0  0  3  0  0  0  0  0  0
  161.4150  213.5980  147.8480 C   0  0  0  0  0  3  0  0  0  0  0  0
  162.7310  214.3510  147.8780 C   0  0  0  0  0  2  0  0  0  0  0  0
  162.4910  213.2820  146.8300 C   0  0  0  0  0  2  0  0  0  0  0  0
  161.1860  211.1430  148.3440 C   0  0  0  0  0  2  0  0  0  0  0  0
  162.3090  210.1770  148.7050 C   0  0  0  0  0  2  0  0  0  0  0  0
  161.7400  208.8730  149.2360 C   0  0  0  0  0  2  0  0  0  0  0  0
  162.3470  207.6970  148.4930 C   0  0  0  0  0  2  0  0  0  0  0  0
  161.3030  207.0410  147.6130 C   0  0  0  0  0  2  0  0  0  0  0  0
  161.4370  205.5370  147.7350 C   0  0  0  0  0  2  0  0  0  0  0  0
  162.4480  205.0040  146.7340 C   0  0  1  0  0  3  0  0  0  0  0  0
  162.2190  203.5820  146.5060 N   0  0  0  0  0  2  0  0  0  0  0  0
  161.1620  201.3400  148.3640 C   0  0  0  0  0  0  0  0  0  0  0  0
  160.3930  202.8660  144.5820 F   0  0  0  0  0  0  0  0  0  0  0  0
  160.8430  203.2820  146.8870 C   0  0  1  0  0  3  0  0  0  0  0  0
  161.6570  198.3050  146.1670 C   0  0  0  0  0  3  0  0  0  0  0  0
  158.8270  202.3030  146.0930 F   0  0  0  0  0  0  0  0  0  0  0  0
  160.1890  202.3520  145.8520 C   0  0  0  0  0  0  0  0  0  0  0  0
  161.4160  200.9010  149.5180 O   0  0  0  0  0  0  0  0  0  0  0  0
  161.1930  198.7880  144.9410 C   0  0  0  0  0  3  0  0  0  0  0  0
  160.7320  200.1020  144.8340 C   0  0  0  0  0  3  0  0  0  0  0  0
  161.1970  200.4530  147.1920 C   0  0  0  0  0  0  0  0  0  0  0  0
  160.7500  200.9510  145.9510 C   0  0  0  0  0  0  0  0  0  0  0  0
  161.6550  199.1340  147.2920 C   0  0  0  0  0  3  0  0  0  0  0  0
  160.8320  202.6860  148.1860 O   0  0  0  0  0  0  0  0  0  0  0  0
  162.3900  205.7920  145.4180 C   0  0  0  0  0  2  0  0  0  0  0  0
  159.9850  206.1180  144.9100 C   0  0  0  0  0  1  0  0  0  0  0  0
  161.2420  205.3760  144.5070 C   0  0  1  0  0  3  0  0  0  0  0  0
  161.5460  205.6610  143.1760 O   0  0  0  0  0  1  0  0  0  0  0  0
  160.3820  212.8730  150.0140 C   0  0  0  0  0  2  0  0  0  0  0  0
  160.6900  212.1220  151.3020 C   0  0  0  0  0  2  0  0  0  0  0  0
  159.7140  212.5060  152.4040 C   0  0  0  0  0  2  0  0  0  0  0  0
  160.4670  212.7930  153.6910 C   0  0  0  0  0  2  0  0  0  0  0  0
  159.9000  211.9730  154.8510 C   0  0  1  0  0  3  0  0  0  0  0  0
  158.9280  214.2310  155.4380 C   0  0  0  0  0  2  0  0  0  0  0  0
  157.1120  213.3090  156.6850 C   0  0  1  0  0  3  0  0  0  0  0  0
  159.2760  212.8450  155.9490 C   0  0  1  0  0  3  0  0  0  0  0  0
  158.0780  212.2290  156.5150 N   0  0  0  0  0  2  0  0  0  0  0  0
  157.4540  214.3990  155.6970 C   0  0  0  0  0  2  0  0  0  0  0  0
  155.6720  212.8230  156.5010 C   0  0  0  0  0  3  0  0  0  0  0  0
  154.7600  213.9020  155.9400 C   0  0  0  0  0  1  0  0  0  0  0  0
  155.6350  211.6030  155.6030 C   0  0  0  0  0  1  0  0  0  0  0  0
  158.8510  210.9950  154.3380 C   0  0  0  0  0  2  0  0  0  0  0  0
  161.6270  207.9460  155.4080 C   0  0  0  0  0  2  0  0  0  0  0  0
  160.4160  208.1090  156.3170 C   0  0  0  0  0  2  0  0  0  0  0  0
  160.0940  209.3200  152.3890 O   0  0  0  0  0  0  0  0  0  0  0  0
  159.2410  209.5490  154.6250 C   0  0  2  0  0  3  0  0  0  0  0  0
  159.7940  209.4700  156.0470 C   0  0  0  0  0  2  0  0  0  0  0  0
  160.2250  209.0130  153.6070 C   0  0  0  0  0  0  0  0  0  0  0  0
  161.2350  208.0680  154.0050 N   0  0  0  0  0  0  0  0  0  0  0  0
  162.0400  207.3790  152.9990 C   0  0  0  0  0  2  0  0  0  0  0  0
  162.4430  205.1290  152.0580 C   0  0  0  0  0  1  0  0  0  0  0  0
  160.4730  206.3930  151.2980 C   0  0  0  0  0  1  0  0  0  0  0  0
  160.5450  205.4570  153.5880 C   0  0  0  0  0  1  0  0  0  0  0  0
  161.3660  206.1040  152.4890 C   0  0  0  0  0  0  0  0  0  0  0  0
  1  5  1  6  0  0  0
  1 30  1  0  0  0  0
  2  3  1  0  0  0  0
  2  1  1  0  0  0  0
  4  2  1  0  0  0  0
  4  3  1  0  0  0  0
  5  6  1  0  0  0  0
  6  7  1  0  0  0  0
  8  7  1  0  0  0  0
  9 10  1  0  0  0  0
  9  8  1  0  0  0  0
 11 26  1  6  0  0  0
 11 10  1  0  0  0  0
 12 11  1  0  0  0  0
 13 19  2  0  0  0  0
 14 18  1  0  0  0  0
 15 12  1  6  0  0  0
 15 25  1  0  0  0  0
 16 24  1  0  0  0  0
 18 23  1  0  0  0  0
 18 17  1  0  0  0  0
 18 15  1  0  0  0  0
 20 16  2  0  0  0  0
 21 20  1  0  0  0  0
 21 23  2  0  0  0  0
 22 24  2  0  0  0  0
 22 13  1  0  0  0  0
 23 22  1  0  0  0  0
 25 13  1  0  0  0  0
 28 27  1  1  0  0  0
 28 26  1  0  0  0  0
 29 28  1  0  0  0  0
 30 31  1  0  0  0  0
 31 32  1  0  0  0  0
 32 33  1  0  0  0  0
 34 33  1  6  0  0  0
 35 39  1  0  0  0  0
 35 37  1  0  0  0  0
 36 40  1  6  0  0  0
 37 34  1  6  0  0  0
 37 38  1  0  0  0  0
 38 36  1  0  0  0  0
 39 36  1  0  0  0  0
 41 40  1  0  0  0  0
 42 40  1  0  0  0  0
 43 34  1  0  0  0  0
 44 45  1  0  0  0  0
 46 49  2  0  0  0  0
 47 43  1  6  0  0  0
 47 48  1  0  0  0  0
 48 45  1  0  0  0  0
 49 50  1  0  0  0  0
 49 47  1  0  0  0  0
 50 44  1  0  0  0  0
 51 50  1  0  0  0  0
 52 55  1  0  0  0  0
 53 55  1  0  0  0  0
 55 51  1  0  0  0  0
 55 54  1  0  0  0  0
M  END
>  <MODEL>
7

>  <REMARK>
 VINA RESULT:      -3.3      2.399      5.620
  Name = 
  23 active torsions:
  status: ('A' for Active; 'I' for Inactive)
    1  A    between atoms: C_2  and  C_28
    2  A    between atoms: C_2  and  C_44
    3  A    between atoms: C_6  and  N_46
    4  A    between atoms: C_8  and  C_20
    5  A    between atoms: C_8  and  C_22
    6  A    between atoms: C_10  and  C_32
    7  A    between atoms: C_17  and  C_36
    8  A    between atoms: C_19  and  C_40
    9  A    between atoms: C_19  and  N_45
   10  A    between atoms: C_22  and  C_35
   11  A    between atoms: C_22  and  N_46
   12  A    between atoms: C_24  and  C_44
   13  A    between atoms: C_27  and  C_31
   14  A    between atoms: C_27  and  C_54
   15  A    between atoms: C_28  and  C_49
   16  A    between atoms: C_31  and  C_44
   17  A    between atoms: C_33  and  C_49
   18  A    between atoms: C_33  and  C_52
   19  A    between atoms: C_34  and  C_52
   20  A    between atoms: C_35  and  C_43
   21  A    between atoms: C_36  and  C_52
   22  A    between atoms: C_43  and  C_51
   23  A    between atoms: C_51  and  C_54
                            x       y       z     vdW  Elec       q    Type
                         _______ _______ _______ _____ _____    ______ ____

>  <TORSDO>
F 23

$$$$
=
 OpenBabel11062408473D

 55 59  0  0  1  0  0  0  0  0999 V2000
  160.7510  204.4680  145.4440 C   0  0  2  0  0  3  0  0  0  0  0  0
  161.5170  203.1600  145.5920 C   0  0  0  0  0  3  0  0  0  0  0  0
  160.8910  202.3250  146.6930 C   0  0  0  0  0  2  0  0  0  0  0  0
  160.6130  201.9960  145.2390 C   0  0  0  0  0  2  0  0  0  0  0  0
  160.5460  204.8200  143.9710 C   0  0  0  0  0  2  0  0  0  0  0  0
  161.5900  205.8100  143.4670 C   0  0  0  0  0  2  0  0  0  0  0  0
  161.6080  205.8380  141.9490 C   0  0  0  0  0  2  0  0  0  0  0  0
  162.3520  207.0660  141.4580 C   0  0  0  0  0  2  0  0  0  0  0  0
  161.6870  207.6170  140.2130 C   0  0  0  0  0  2  0  0  0  0  0  0
  162.4970  208.7910  139.7050 C   0  0  0  0  0  2  0  0  0  0  0  0
  161.6480  210.0510  139.6590 C   0  0  1  0  0  3  0  0  0  0  0  0
  162.0530  210.9620  140.7230 N   0  0  0  0  0  2  0  0  0  0  0  0
  162.6560  213.6680  142.1060 C   0  0  0  0  0  0  0  0  0  0  0  0
  159.3580  211.4810  140.8550 F   0  0  0  0  0  0  0  0  0  0  0  0
  161.5530  212.2910  140.3890 C   0  0  1  0  0  3  0  0  0  0  0  0
  160.6980  213.2780  145.3140 C   0  0  0  0  0  3  0  0  0  0  0  0
  159.6370  213.6900  140.5500 F   0  0  0  0  0  0  0  0  0  0  0  0
  160.2070  212.5500  141.0880 C   0  0  0  0  0  0  0  0  0  0  0  0
  163.6770  214.3110  142.4710 O   0  0  0  0  0  0  0  0  0  0  0  0
  159.5070  212.7280  144.8310 C   0  0  0  0  0  3  0  0  0  0  0  0
  159.3530  212.4790  143.4670 C   0  0  0  0  0  3  0  0  0  0  0  0
  161.5890  213.3340  143.0610 C   0  0  0  0  0  0  0  0  0  0  0  0
  160.3980  212.7580  142.5730 C   0  0  0  0  0  0  0  0  0  0  0  0
  161.7360  213.5840  144.4310 C   0  0  0  0  0  3  0  0  0  0  0  0
  162.5210  213.2700  140.7730 O   0  0  0  0  0  0  0  0  0  0  0  0
  161.7400  210.7290  138.2850 C   0  0  0  0  0  2  0  0  0  0  0  0
  159.5180  209.6420  138.1040 C   0  0  0  0  0  1  0  0  0  0  0  0
  160.4440  210.6710  137.4870 C   0  0  1  0  0  3  0  0  0  0  0  0
  159.8180  211.9170  137.4800 O   0  0  0  0  0  1  0  0  0  0  0  0
  161.4480  205.5880  146.2120 C   0  0  0  0  0  2  0  0  0  0  0  0
  160.4440  206.6480  146.6420 C   0  0  0  0  0  2  0  0  0  0  0  0
  161.0700  207.6260  147.6230 C   0  0  0  0  0  2  0  0  0  0  0  0
  162.4870  207.1960  147.9560 C   0  0  0  0  0  2  0  0  0  0  0  0
  162.9070  207.7140  149.3320 C   0  0  1  0  0  3  0  0  0  0  0  0
  162.3440  209.2090  151.2900 C   0  0  0  0  0  2  0  0  0  0  0  0
  161.5770  211.0030  149.9130 C   0  0  1  0  0  3  0  0  0  0  0  0
  161.8910  208.6910  149.9380 C   0  0  1  0  0  3  0  0  0  0  0  0
  161.6360  209.8260  149.0530 N   0  0  0  0  0  2  0  0  0  0  0  0
  162.3800  210.7090  151.1580 C   0  0  0  0  0  2  0  0  0  0  0  0
  162.0920  212.2570  149.2020 C   0  0  0  0  0  3  0  0  0  0  0  0
  162.7520  211.9430  147.8680 C   0  0  0  0  0  1  0  0  0  0  0  0
  160.9650  213.2490  148.9950 C   0  0  0  0  0  1  0  0  0  0  0  0
  163.1060  206.5480  150.2930 C   0  0  0  0  0  2  0  0  0  0  0  0
  160.6980  203.8030  152.4870 C   0  0  0  0  0  2  0  0  0  0  0  0
  160.7110  205.2410  152.9860 C   0  0  0  0  0  2  0  0  0  0  0  0
  161.5340  204.5410  149.0080 O   0  0  0  0  0  0  0  0  0  0  0  0
  161.7800  206.0530  150.8610 C   0  0  2  0  0  3  0  0  0  0  0  0
  161.9130  205.9480  152.3790 C   0  0  0  0  0  2  0  0  0  0  0  0
  161.3510  204.7390  150.2410 C   0  0  0  0  0  0  0  0  0  0  0  0
  160.6370  203.7680  151.0270 N   0  0  0  0  0  0  0  0  0  0  0  0
  160.0270  202.6050  150.3870 C   0  0  0  0  0  2  0  0  0  0  0  0
  162.2160  201.7440  151.1490 C   0  0  0  0  0  1  0  0  0  0  0  0
  161.3310  200.9750  148.9850 C   0  0  0  0  0  1  0  0  0  0  0  0
  160.2880  200.2160  151.0970 C   0  0  0  0  0  1  0  0  0  0  0  0
  160.9510  201.3860  150.3950 C   0  0  0  0  0  0  0  0  0  0  0  0
  1  5  1  6  0  0  0
  1  2  1  0  0  0  0
  1 30  1  0  0  0  0
  2  3  1  0  0  0  0
  4  2  1  0  0  0  0
  4  3  1  0  0  0  0
  6  5  1  0  0  0  0
  7  6  1  0  0  0  0
  8  7  1  0  0  0  0
  9  8  1  0  0  0  0
 10  9  1  0  0  0  0
 11 26  1  6  0  0  0
 11 10  1  0  0  0  0
 11 12  1  0  0  0  0
 13 19  2  0  0  0  0
 13 22  1  0  0  0  0
 14 18  1  0  0  0  0
 15 12  1  1  0  0  0
 15 25  1  0  0  0  0
 15 18  1  0  0  0  0
 17 18  1  0  0  0  0
 18 23  1  0  0  0  0
 20 16  1  0  0  0  0
 21 20  2  0  0  0  0
 22 24  1  0  0  0  0
 23 22  2  0  0  0  0
 23 21  1  0  0  0  0
 24 16  2  0  0  0  0
 25 13  1  0  0  0  0
 28 27  1  1  0  0  0
 28 26  1  0  0  0  0
 29 28  1  0  0  0  0
 30 31  1  0  0  0  0
 31 32  1  0  0  0  0
 32 33  1  0  0  0  0
 34 33  1  6  0  0  0
 34 43  1  0  0  0  0
 36 40  1  6  0  0  0
 36 39  1  0  0  0  0
 37 34  1  6  0  0  0
 37 35  1  0  0  0  0
 38 36  1  0  0  0  0
 38 37  1  0  0  0  0
 39 35  1  0  0  0  0
 41 40  1  0  0  0  0
 42 40  1  0  0  0  0
 44 45  1  0  0  0  0
 46 49  2  0  0  0  0
 47 43  1  6  0  0  0
 47 48  1  0  0  0  0
 48 45  1  0  0  0  0
 49 47  1  0  0  0  0
 49 50  1  0  0  0  0
 50 44  1  0  0  0  0
 51 55  1  0  0  0  0
 51 50  1  0  0  0  0
 53 55  1  0  0  0  0
 55 54  1  0  0  0  0
 55 52  1  0  0  0  0
M  END
>  <MODEL>
8

>  <REMARK>
 VINA RESULT:      -3.1      4.246     10.023
  Name = 
  23 active torsions:
  status: ('A' for Active; 'I' for Inactive)
    1  A    between atoms: C_2  and  C_28
    2  A    between atoms: C_2  and  C_44
    3  A    between atoms: C_6  and  N_46
    4  A    between atoms: C_8  and  C_20
    5  A    between atoms: C_8  and  C_22
    6  A    between atoms: C_10  and  C_32
    7  A    between atoms: C_17  and  C_36
    8  A    between atoms: C_19  and  C_40
    9  A    between atoms: C_19  and  N_45
   10  A    between atoms: C_22  and  C_35
   11  A    between atoms: C_22  and  N_46
   12  A    between atoms: C_24  and  C_44
   13  A    between atoms: C_27  and  C_31
   14  A    between atoms: C_27  and  C_54
   15  A    between atoms: C_28  and  C_49
   16  A    between atoms: C_31  and  C_44
   17  A    between atoms: C_33  and  C_49
   18  A    between atoms: C_33  and  C_52
   19  A    between atoms: C_34  and  C_52
   20  A    between atoms: C_35  and  C_43
   21  A    between atoms: C_36  and  C_52
   22  A    between atoms: C_43  and  C_51
   23  A    between atoms: C_51  and  C_54
                            x       y       z     vdW  Elec       q    Type
                         _______ _______ _______ _____ _____    ______ ____

>  <TORSDO>
F 23

$$$$
