=
 OpenBabel11062409003D

 55 57  0  0  1  0  0  0  0  0999 V2000
  161.3210  203.3740  146.4790 S   0  0  0  0  0  0  0  0  0  0  0  0
  161.2700  205.6960  144.4970 C   0  0  2  0  0  3  0  0  0  0  0  0
  162.5630  205.5740  145.3150 C   0  0  2  0  0  3  0  0  0  0  0  0
  160.4050  203.3490  144.8850 C   0  0  0  0  0  2  0  0  0  0  0  0
  162.8390  204.1570  145.8320 C   0  0  0  0  0  2  0  0  0  0  0  0
  160.9040  204.3620  143.8470 C   0  0  0  0  0  2  0  0  0  0  0  0
  161.4800  206.7590  143.4340 C   0  0  0  0  0  2  0  0  0  0  0  0
  161.7690  206.1820  142.1960 O   0  0  0  0  0  0  0  0  0  0  0  0
  161.2370  207.0930  141.2780 C   0  0  0  0  0  2  0  0  0  0  0  0
  162.3470  207.7940  140.5100 C   0  0  1  0  0  3  0  0  0  0  0  0
  163.3620  206.7490  140.0840 C   0  0  0  0  0  1  0  0  0  0  0  0
  161.8070  208.4310  139.3710 O   0  0  0  0  0  0  0  0  0  0  0  0
  161.3970  209.7520  139.7010 C   0  0  2  0  0  0  0  0  0  0  0  0
  160.4350  209.7240  140.7130 F   0  0  0  0  0  0  0  0  0  0  0  0
  158.5650  211.2180  139.5080 C   0  0  0  0  0  2  0  0  0  0  0  0
  158.6680  208.9880  138.4610 C   0  0  0  0  0  1  0  0  0  0  0  0
  161.3400  209.7630  137.1720 C   0  0  0  0  0  1  0  0  0  0  0  0
  160.7810  210.4530  138.4250 C   0  0  1  0  0  0  0  0  0  0  0  0
  160.2270  212.9840  138.7640 C   0  0  0  0  0  2  0  0  0  0  0  0
  158.6810  210.9770  137.0620 C   0  0  0  0  0  1  0  0  0  0  0  0
  159.3410  212.4880  139.8940 C   0  0  1  0  0  3  0  0  0  0  0  0
  159.2030  210.4010  138.3760 C   0  0  0  0  0  0  0  0  0  0  0  0
  161.2710  211.9280  138.3630 C   0  0  0  0  0  2  0  0  0  0  0  0
  158.3960  213.5620  140.3270 C   0  0  0  0  0  0  0  0  0  0  0  0
  158.5870  214.2510  141.5560 N   0  0  0  0  0  1  0  0  0  0  0  0
  157.4160  213.8560  139.5880 O   0  0  0  0  0  0  0  0  0  0  0  0
  163.6950  210.4700  139.6030 O   0  0  0  0  0  0  0  0  0  0  0  0
  162.5970  210.5350  140.2080 C   0  0  0  0  0  0  0  0  0  0  0  0
  162.5000  211.3060  141.3600 O   0  0  0  0  0  1  0  0  0  0  0  0
  162.5710  206.5790  146.4540 C   0  0  0  0  0  2  0  0  0  0  0  0
  161.2500  206.7910  146.8920 O   0  0  0  0  0  0  0  0  0  0  0  0
  161.2820  207.4000  148.1690 C   0  0  1  0  0  3  0  0  0  0  0  0
  160.8040  205.1820  149.1060 C   0  0  0  0  0  3  0  0  0  0  0  0
  161.2220  206.4350  149.3460 C   0  0  0  0  0  0  0  0  0  0  0  0
  160.4130  207.7650  151.3110 C   0  0  0  0  0  2  0  0  0  0  0  0
  161.0470  207.0930  153.6330 C   0  0  0  0  0  2  0  0  0  0  0  0
  161.8770  205.7350  151.6960 C   0  0  1  0  0  3  0  0  0  0  0  0
  162.2030  206.2550  153.0940 C   0  0  0  0  0  2  0  0  0  0  0  0
  160.7780  208.2730  152.7070 C   0  0  0  0  0  2  0  0  0  0  0  0
  161.5390  206.8960  150.7490 C   0  0  1  0  0  3  0  0  0  0  0  0
  162.9630  205.0140  151.2100 O   0  0  0  0  0  1  0  0  0  0  0  0
  160.6820  204.0580  150.0540 C   0  0  0  0  0  3  0  0  0  0  0  0
  161.0720  202.8130  149.8030 C   0  0  0  0  0  3  0  0  0  0  0  0
  160.8780  201.7320  150.7750 C   0  0  0  0  0  0  0  0  0  0  0  0
  160.0140  200.8410  150.5480 O   0  0  0  0  0  0  0  0  0  0  0  0
  161.6230  201.6890  151.9890 N   0  0  0  0  0  1  0  0  0  0  0  0
  162.3260  208.5150  148.2730 C   0  0  0  0  0  2  0  0  0  0  0  0
  161.6770  209.7840  148.7860 C   0  0  0  0  0  2  0  0  0  0  0  0
  162.5000  210.9710  148.3420 C   0  0  0  0  0  2  0  0  0  0  0  0
  161.7230  213.0420  147.1280 C   0  0  0  0  0  0  0  0  0  0  0  0
  162.5800  212.8750  146.2220 O   0  0  0  0  0  0  0  0  0  0  0  0
  161.6610  212.1540  148.2440 N   0  0  0  0  0  2  0  0  0  0  0  0
  160.7840  214.1930  147.0470 C   0  0  0  0  0  2  0  0  0  0  0  0
  159.7790  214.0010  145.9250 C   0  0  0  0  0  2  0  0  0  0  0  0
  159.3350  212.6180  145.8800 N   0  0  0  0  0  1  0  0  0  0  0  0
  2  7  1  6  0  0  0
  2  3  1  0  0  0  0
  3  5  1  0  0  0  0
  3 30  1  1  0  0  0
  4  1  1  0  0  0  0
  5  1  1  0  0  0  0
  6  2  1  0  0  0  0
  6  4  1  0  0  0  0
  8  7  1  0  0  0  0
  9  8  1  0  0  0  0
 10 11  1  6  0  0  0
 10  9  1  0  0  0  0
 12 13  1  0  0  0  0
 12 10  1  0  0  0  0
 13 28  1  0  0  0  0
 13 14  1  1  0  0  0
 15 21  1  0  0  0  0
 18 17  1  6  0  0  0
 18 13  1  0  0  0  0
 19 21  1  0  0  0  0
 20 22  1  0  0  0  0
 21 24  1  6  0  0  0
 22 18  1  0  0  0  0
 22 16  1  0  0  0  0
 22 15  1  0  0  0  0
 23 18  1  0  0  0  0
 23 19  1  0  0  0  0
 24 25  1  0  0  0  0
 26 24  2  0  0  0  0
 27 28  2  0  0  0  0
 28 29  1  0  0  0  0
 30 31  1  0  0  0  0
 31 32  1  0  0  0  0
 32 47  1  1  0  0  0
 32 34  1  0  0  0  0
 33 34  2  0  0  0  0
 33 42  1  0  0  0  0
 35 39  1  0  0  0  0
 37 41  1  6  0  0  0
 37 38  1  0  0  0  0
 38 36  1  0  0  0  0
 39 36  1  0  0  0  0
 40 34  1  6  0  0  0
 40 35  1  0  0  0  0
 40 37  1  0  0  0  0
 43 42  2  0  0  0  0
 43 44  1  0  0  0  0
 44 46  1  0  0  0  0
 45 44  2  0  0  0  0
 47 48  1  0  0  0  0
 49 48  1  0  0  0  0
 50 52  1  0  0  0  0
 51 50  2  0  0  0  0
 52 49  1  0  0  0  0
 53 50  1  0  0  0  0
 54 53  1  0  0  0  0
 55 54  1  0  0  0  0
M  END
>  <MODEL>
1

>  <REMARK>
 VINA RESULT:      -2.2      0.000      0.000
  Name = 
  22 active torsions:
  status: ('A' for Active; 'I' for Inactive)
    1  A    between atoms: C_1  and  C_29
    2  A    between atoms: C_2  and  O_28
    3  A    between atoms: C_2  and  C_31
    4  A    between atoms: C_4  and  C_40
    5  A    between atoms: C_6  and  C_14
    6  A    between atoms: C_6  and  C_20
    7  A    between atoms: C_6  and  O_22
    8  A    between atoms: C_8  and  O_22
    9  A    between atoms: C_8  and  C_35
   10  A    between atoms: C_10  and  C_32
   11  A    between atoms: C_13  and  N_48
   12  A    between atoms: C_13  and  C_52
   13  A    between atoms: C_19  and  C_45
   14  A    between atoms: C_26  and  C_49
   15  A    between atoms: C_27  and  C_54
   16  A    between atoms: O_28  and  C_33
   17  A    between atoms: C_32  and  C_39
   18  A    between atoms: C_33  and  C_34
   19  A    between atoms: C_33  and  C_49
   20  A    between atoms: C_34  and  C_52
   21  A    between atoms: C_35  and  O_51
   22  A    between atoms: O_51  and  C_54
                            x       y       z     vdW  Elec       q    Type
                         _______ _______ _______ _____ _____    ______ ____

>  <TORSDO>
F 22

$$$$
=
 OpenBabel11062409003D

 55 57  0  0  1  0  0  0  0  0999 V2000
  161.2620  201.8480  150.1350 S   0  0  0  0  0  0  0  0  0  0  0  0
  161.2870  204.4810  151.6800 C   0  0  2  0  0  3  0  0  0  0  0  0
  160.6370  204.5540  150.2910 C   0  0  2  0  0  3  0  0  0  0  0  0
  161.1820  201.9690  151.9670 C   0  0  0  0  0  2  0  0  0  0  0  0
  160.0960  203.2110  149.7880 C   0  0  0  0  0  2  0  0  0  0  0  0
  160.7060  203.3270  152.4970 C   0  0  0  0  0  2  0  0  0  0  0  0
  161.0420  205.8010  152.3870 C   0  0  0  0  0  2  0  0  0  0  0  0
  161.1040  205.6490  153.7730 O   0  0  0  0  0  0  0  0  0  0  0  0
  161.1530  206.9650  154.2460 C   0  0  0  0  0  2  0  0  0  0  0  0
  159.9230  207.2830  155.0820 C   0  0  1  0  0  3  0  0  0  0  0  0
  160.2760  207.0780  156.5440 C   0  0  0  0  0  1  0  0  0  0  0  0
  159.5360  208.6240  154.8660 O   0  0  0  0  0  0  0  0  0  0  0  0
  160.6860  209.4590  154.8140 C   0  0  2  0  0  0  0  0  0  0  0  0
  161.7520  208.8600  155.4860 F   0  0  0  0  0  0  0  0  0  0  0  0
  158.2580  211.4130  154.1090 C   0  0  0  0  0  2  0  0  0  0  0  0
  160.4620  212.1260  153.2630 C   0  0  0  0  0  1  0  0  0  0  0  0
  161.6810  211.4610  155.9970 C   0  0  0  0  0  1  0  0  0  0  0  0
  160.3650  210.8500  155.4930 C   0  0  1  0  0  0  0  0  0  0  0  0
  157.9990  210.9760  156.5950 C   0  0  0  0  0  2  0  0  0  0  0  0
  159.5000  213.2380  155.1990 C   0  0  0  0  0  1  0  0  0  0  0  0
  157.4930  210.6460  155.2010 C   0  0  1  0  0  3  0  0  0  0  0  0
  159.6620  211.8790  154.5230 C   0  0  0  0  0  0  0  0  0  0  0  0
  159.4850  210.6140  156.7550 C   0  0  0  0  0  2  0  0  0  0  0  0
  156.0280  210.9210  155.0970 C   0  0  0  0  0  0  0  0  0  0  0  0
  155.0770  210.0310  155.6660 N   0  0  0  0  0  1  0  0  0  0  0  0
  155.6360  211.9600  154.4950 O   0  0  0  0  0  0  0  0  0  0  0  0
  162.2440  210.0700  153.0800 O   0  0  0  0  0  1  0  0  0  0  0  0
  161.0920  209.6590  153.3620 C   0  0  0  0  0  0  0  0  0  0  0  0
  160.1860  209.4160  152.3370 O   0  0  0  0  0  0  0  0  0  0  0  0
  161.5980  205.1650  149.2840 C   0  0  0  0  0  2  0  0  0  0  0  0
  161.0820  204.9860  147.9870 O   0  0  0  0  0  0  0  0  0  0  0  0
  162.0230  205.4720  147.0480 C   0  0  1  0  0  3  0  0  0  0  0  0
  161.8750  205.9910  144.6540 C   0  0  0  0  0  3  0  0  0  0  0  0
  161.7740  205.0500  145.6070 C   0  0  0  0  0  0  0  0  0  0  0  0
  161.7280  202.6670  146.3810 C   0  0  0  0  0  2  0  0  0  0  0  0
  159.8420  201.1640  145.7240 C   0  0  0  0  0  2  0  0  0  0  0  0
  159.8490  203.5420  144.9290 C   0  0  1  0  0  3  0  0  0  0  0  0
  159.4690  202.1050  144.5820 C   0  0  0  0  0  2  0  0  0  0  0  0
  161.3400  201.2380  145.9950 C   0  0  0  0  0  2  0  0  0  0  0  0
  161.3420  203.6430  145.2690 C   0  0  1  0  0  3  0  0  0  0  0  0
  159.5390  204.3710  143.8550 O   0  0  0  0  0  1  0  0  0  0  0  0
  161.7120  205.8400  143.1950 C   0  0  0  0  0  3  0  0  0  0  0  0
  162.2860  206.6220  142.2870 C   0  0  0  0  0  3  0  0  0  0  0  0
  162.0430  206.4450  140.8510 C   0  0  0  0  0  0  0  0  0  0  0  0
  162.5270  205.4410  140.2600 O   0  0  0  0  0  0  0  0  0  0  0  0
  161.2980  207.4030  140.1050 N   0  0  0  0  0  1  0  0  0  0  0  0
  162.3730  206.9470  147.2610 C   0  0  0  0  0  2  0  0  0  0  0  0
  161.2700  207.6320  148.0440 C   0  0  0  0  0  2  0  0  0  0  0  0
  161.8850  208.6760  148.9470 C   0  0  0  0  0  2  0  0  0  0  0  0
  162.1290  211.1860  148.8690 C   0  0  0  0  0  0  0  0  0  0  0  0
  161.9130  211.2810  150.1050 O   0  0  0  0  0  0  0  0  0  0  0  0
  162.0810  209.9180  148.2160 N   0  0  0  0  0  2  0  0  0  0  0  0
  162.4100  212.4140  148.0770 C   0  0  0  0  0  2  0  0  0  0  0  0
  161.1270  213.1560  147.7470 C   0  0  0  0  0  2  0  0  0  0  0  0
  160.4830  212.5580  146.5910 N   0  0  0  0  0  1  0  0  0  0  0  0
  1  4  1  0  0  0  0
  2  7  1  1  0  0  0
  2  6  1  0  0  0  0
  3 30  1  6  0  0  0
  3  2  1  0  0  0  0
  4  6  1  0  0  0  0
  5  1  1  0  0  0  0
  5  3  1  0  0  0  0
  7  8  1  0  0  0  0
  8  9  1  0  0  0  0
  9 10  1  0  0  0  0
 10 11  1  1  0  0  0
 12 10  1  0  0  0  0
 13 12  1  0  0  0  0
 13 14  1  1  0  0  0
 13 18  1  0  0  0  0
 15 22  1  0  0  0  0
 15 21  1  0  0  0  0
 16 22  1  0  0  0  0
 18 17  1  1  0  0  0
 18 23  1  0  0  0  0
 19 23  1  0  0  0  0
 21 24  1  1  0  0  0
 21 19  1  0  0  0  0
 22 20  1  0  0  0  0
 22 18  1  0  0  0  0
 24 25  1  0  0  0  0
 26 24  2  0  0  0  0
 27 28  1  0  0  0  0
 28 13  1  0  0  0  0
 29 28  2  0  0  0  0
 31 30  1  0  0  0  0
 32 47  1  6  0  0  0
 32 31  1  0  0  0  0
 33 34  2  0  0  0  0
 34 32  1  0  0  0  0
 36 39  1  0  0  0  0
 37 41  1  6  0  0  0
 37 40  1  0  0  0  0
 38 37  1  0  0  0  0
 38 36  1  0  0  0  0
 39 35  1  0  0  0  0
 40 34  1  1  0  0  0
 40 35  1  0  0  0  0
 42 33  1  0  0  0  0
 43 42  2  0  0  0  0
 44 43  1  0  0  0  0
 45 44  2  0  0  0  0
 46 44  1  0  0  0  0
 47 48  1  0  0  0  0
 48 49  1  0  0  0  0
 50 51  2  0  0  0  0
 52 50  1  0  0  0  0
 52 49  1  0  0  0  0
 53 50  1  0  0  0  0
 54 53  1  0  0  0  0
 55 54  1  0  0  0  0
M  END
>  <MODEL>
2

>  <REMARK>
 VINA RESULT:      -1.8      4.359     11.109
  Name = 
  22 active torsions:
  status: ('A' for Active; 'I' for Inactive)
    1  A    between atoms: C_1  and  C_29
    2  A    between atoms: C_2  and  O_28
    3  A    between atoms: C_2  and  C_31
    4  A    between atoms: C_4  and  C_40
    5  A    between atoms: C_6  and  C_14
    6  A    between atoms: C_6  and  C_20
    7  A    between atoms: C_6  and  O_22
    8  A    between atoms: C_8  and  O_22
    9  A    between atoms: C_8  and  C_35
   10  A    between atoms: C_10  and  C_32
   11  A    between atoms: C_13  and  N_48
   12  A    between atoms: C_13  and  C_52
   13  A    between atoms: C_19  and  C_45
   14  A    between atoms: C_26  and  C_49
   15  A    between atoms: C_27  and  C_54
   16  A    between atoms: O_28  and  C_33
   17  A    between atoms: C_32  and  C_39
   18  A    between atoms: C_33  and  C_34
   19  A    between atoms: C_33  and  C_49
   20  A    between atoms: C_34  and  C_52
   21  A    between atoms: C_35  and  O_51
   22  A    between atoms: O_51  and  C_54
                            x       y       z     vdW  Elec       q    Type
                         _______ _______ _______ _____ _____    ______ ____

>  <TORSDO>
F 22

$$$$
=
 OpenBabel11062409003D

 55 57  0  0  1  0  0  0  0  0999 V2000
  161.0100  203.7500  147.5630 S   0  0  0  0  0  0  0  0  0  0  0  0
  161.6890  205.5090  145.1620 C   0  0  2  0  0  3  0  0  0  0  0  0
  162.3500  205.9340  146.4810 C   0  0  2  0  0  3  0  0  0  0  0  0
  161.0990  203.1410  145.8310 C   0  0  0  0  0  2  0  0  0  0  0  0
  162.5080  204.7920  147.4920 C   0  0  0  0  0  2  0  0  0  0  0  0
  161.9230  204.0240  144.8850 C   0  0  0  0  0  2  0  0  0  0  0  0
  162.2790  206.3510  144.0450 C   0  0  0  0  0  2  0  0  0  0  0  0
  162.0050  205.7920  142.7960 O   0  0  0  0  0  0  0  0  0  0  0  0
  161.2840  206.7940  142.1380 C   0  0  0  0  0  2  0  0  0  0  0  0
  161.9400  207.1470  140.8120 C   0  0  1  0  0  3  0  0  0  0  0  0
  162.4590  205.8670  140.1840 C   0  0  0  0  0  1  0  0  0  0  0  0
  160.9900  207.7490  139.9580 O   0  0  0  0  0  0  0  0  0  0  0  0
  161.6430  208.6160  139.0390 C   0  0  2  0  0  0  0  0  0  0  0  0
  162.9030  208.9740  139.5200 F   0  0  0  0  0  0  0  0  0  0  0  0
  162.4550  211.5910  139.8730 C   0  0  0  0  0  2  0  0  0  0  0  0
  160.7960  210.5030  141.3390 C   0  0  0  0  0  1  0  0  0  0  0  0
  159.2930  209.5330  138.8480 C   0  0  0  0  0  1  0  0  0  0  0  0
  160.7790  209.9240  138.8340 C   0  0  1  0  0  0  0  0  0  0  0  0
  161.9530  211.7600  137.3930 C   0  0  0  0  0  2  0  0  0  0  0  0
  160.0740  212.2020  139.7570 C   0  0  0  0  0  1  0  0  0  0  0  0
  163.0380  211.6920  138.4540 C   0  0  1  0  0  3  0  0  0  0  0  0
  161.0290  211.0240  139.9380 C   0  0  0  0  0  0  0  0  0  0  0  0
  161.0600  210.5080  137.4190 C   0  0  0  0  0  2  0  0  0  0  0  0
  163.9460  212.8740  138.3500 C   0  0  0  0  0  0  0  0  0  0  0  0
  165.3220  212.7700  138.6930 N   0  0  0  0  0  1  0  0  0  0  0  0
  163.4790  213.9780  137.9520 O   0  0  0  0  0  0  0  0  0  0  0  0
  160.8300  207.5590  137.0310 O   0  0  0  0  0  0  0  0  0  0  0  0
  161.8290  207.8910  137.7160 C   0  0  0  0  0  0  0  0  0  0  0  0
  163.1010  207.5630  137.2640 O   0  0  0  0  0  1  0  0  0  0  0  0
  161.6050  207.1070  147.0970 C   0  0  0  0  0  2  0  0  0  0  0  0
  161.2560  206.7860  148.4230 O   0  0  0  0  0  0  0  0  0  0  0  0
  162.1650  207.4210  149.3020 C   0  0  1  0  0  3  0  0  0  0  0  0
  162.0320  209.7770  148.6280 C   0  0  0  0  0  3  0  0  0  0  0  0
  161.8540  208.8790  149.6100 C   0  0  0  0  0  0  0  0  0  0  0  0
  160.5560  208.2630  151.6630 C   0  0  0  0  0  2  0  0  0  0  0  0
  161.3130  209.0420  153.9140 C   0  0  0  0  0  2  0  0  0  0  0  0
  162.6420  209.6790  151.8860 C   0  0  1  0  0  3  0  0  0  0  0  0
  162.1730  210.1250  153.2690 C   0  0  0  0  0  2  0  0  0  0  0  0
  160.0990  208.7470  153.0410 C   0  0  0  0  0  2  0  0  0  0  0  0
  161.4450  209.3140  150.9980 C   0  0  1  0  0  3  0  0  0  0  0  0
  163.3850  210.7010  151.3020 O   0  0  0  0  0  1  0  0  0  0  0  0
  161.7800  211.2300  148.6560 C   0  0  0  0  0  3  0  0  0  0  0  0
  162.3600  212.1140  147.8500 C   0  0  0  0  0  3  0  0  0  0  0  0
  162.0970  213.5520  147.9650 C   0  0  0  0  0  0  0  0  0  0  0  0
  163.0610  214.3640  147.9060 O   0  0  0  0  0  0  0  0  0  0  0  0
  160.7780  214.0470  148.1750 N   0  0  0  0  0  1  0  0  0  0  0  0
  162.5400  206.5500  150.5040 C   0  0  0  0  0  2  0  0  0  0  0  0
  161.3540  205.7030  150.9190 C   0  0  0  0  0  2  0  0  0  0  0  0
  161.7850  204.7590  152.0180 C   0  0  0  0  0  2  0  0  0  0  0  0
  160.9700  202.5570  151.0960 C   0  0  0  0  0  0  0  0  0  0  0  0
  159.7710  202.8700  151.3120 O   0  0  0  0  0  0  0  0  0  0  0  0
  162.0310  203.4350  151.4710 N   0  0  0  0  0  2  0  0  0  0  0  0
  161.2840  201.2440  150.4700 C   0  0  0  0  0  2  0  0  0  0  0  0
  160.9170  201.2400  148.9960 C   0  0  0  0  0  2  0  0  0  0  0  0
  161.5610  200.1270  148.3210 N   0  0  0  0  0  1  0  0  0  0  0  0
  2  7  1  6  0  0  0
  2  3  1  0  0  0  0
  3 30  1  1  0  0  0
  3  5  1  0  0  0  0
  4  1  1  0  0  0  0
  5  1  1  0  0  0  0
  6  2  1  0  0  0  0
  6  4  1  0  0  0  0
  8  7  1  0  0  0  0
  9  8  1  0  0  0  0
 10 11  1  6  0  0  0
 10  9  1  0  0  0  0
 12 10  1  0  0  0  0
 13 14  1  1  0  0  0
 13 12  1  0  0  0  0
 15 22  1  0  0  0  0
 18 17  1  1  0  0  0
 18 13  1  0  0  0  0
 18 22  1  0  0  0  0
 19 23  1  0  0  0  0
 19 21  1  0  0  0  0
 20 22  1  0  0  0  0
 21 24  1  1  0  0  0
 21 15  1  0  0  0  0
 22 16  1  0  0  0  0
 23 18  1  0  0  0  0
 24 25  1  0  0  0  0
 26 24  2  0  0  0  0
 27 28  2  0  0  0  0
 28 13  1  0  0  0  0
 29 28  1  0  0  0  0
 30 31  1  0  0  0  0
 31 32  1  0  0  0  0
 32 34  1  0  0  0  0
 32 47  1  1  0  0  0
 33 42  1  0  0  0  0
 33 34  2  0  0  0  0
 35 39  1  0  0  0  0
 37 41  1  6  0  0  0
 37 38  1  0  0  0  0
 38 36  1  0  0  0  0
 39 36  1  0  0  0  0
 40 34  1  6  0  0  0
 40 35  1  0  0  0  0
 40 37  1  0  0  0  0
 43 44  1  0  0  0  0
 43 42  2  0  0  0  0
 44 46  1  0  0  0  0
 45 44  2  0  0  0  0
 47 48  1  0  0  0  0
 48 49  1  0  0  0  0
 50 51  2  0  0  0  0
 50 52  1  0  0  0  0
 52 49  1  0  0  0  0
 53 50  1  0  0  0  0
 54 53  1  0  0  0  0
 55 54  1  0  0  0  0
M  END
>  <MODEL>
3

>  <REMARK>
 VINA RESULT:      -1.8      2.126      6.073
  Name = 
  22 active torsions:
  status: ('A' for Active; 'I' for Inactive)
    1  A    between atoms: C_1  and  C_29
    2  A    between atoms: C_2  and  O_28
    3  A    between atoms: C_2  and  C_31
    4  A    between atoms: C_4  and  C_40
    5  A    between atoms: C_6  and  C_14
    6  A    between atoms: C_6  and  C_20
    7  A    between atoms: C_6  and  O_22
    8  A    between atoms: C_8  and  O_22
    9  A    between atoms: C_8  and  C_35
   10  A    between atoms: C_10  and  C_32
   11  A    between atoms: C_13  and  N_48
   12  A    between atoms: C_13  and  C_52
   13  A    between atoms: C_19  and  C_45
   14  A    between atoms: C_26  and  C_49
   15  A    between atoms: C_27  and  C_54
   16  A    between atoms: O_28  and  C_33
   17  A    between atoms: C_32  and  C_39
   18  A    between atoms: C_33  and  C_34
   19  A    between atoms: C_33  and  C_49
   20  A    between atoms: C_34  and  C_52
   21  A    between atoms: C_35  and  O_51
   22  A    between atoms: O_51  and  C_54
                            x       y       z     vdW  Elec       q    Type
                         _______ _______ _______ _____ _____    ______ ____

>  <TORSDO>
F 22

$$$$
=
 OpenBabel11062409003D

 55 57  0  0  1  0  0  0  0  0999 V2000
  161.7750  204.8420  151.3430 S   0  0  0  0  0  0  0  0  0  0  0  0
  162.0840  207.8170  150.7330 C   0  0  2  0  0  3  0  0  0  0  0  0
  161.1320  207.0620  149.7960 C   0  0  2  0  0  3  0  0  0  0  0  0
  162.1140  206.1250  152.6150 C   0  0  0  0  0  2  0  0  0  0  0  0
  160.5250  205.7970  150.4150 C   0  0  0  0  0  2  0  0  0  0  0  0
  161.7360  207.5520  152.1980 C   0  0  0  0  0  2  0  0  0  0  0  0
  161.9730  209.2990  150.4270 C   0  0  0  0  0  2  0  0  0  0  0  0
  162.4970  210.0690  151.4670 O   0  0  0  0  0  0  0  0  0  0  0  0
  161.3740  210.3820  152.2410 C   0  0  0  0  0  2  0  0  0  0  0  0
  161.7270  210.3910  153.7210 C   0  0  1  0  0  3  0  0  0  0  0  0
  163.2400  210.4080  153.8480 C   0  0  0  0  0  1  0  0  0  0  0  0
  161.1820  211.5420  154.3320 O   0  0  0  0  0  0  0  0  0  0  0  0
  160.2410  211.1630  155.3290 C   0  0  2  0  0  0  0  0  0  0  0  0
  159.4310  210.1250  154.8630 F   0  0  0  0  0  0  0  0  0  0  0  0
  157.4110  211.9020  154.0420 C   0  0  0  0  0  2  0  0  0  0  0  0
  159.3050  213.2880  153.2840 C   0  0  0  0  0  1  0  0  0  0  0  0
  160.2320  213.5390  156.1970 C   0  0  0  0  0  1  0  0  0  0  0  0
  159.3290  212.4010  155.6980 C   0  0  1  0  0  0  0  0  0  0  0  0
  156.9390  211.7520  156.5290 C   0  0  0  0  0  2  0  0  0  0  0  0
  157.7080  214.1980  154.8750 C   0  0  0  0  0  1  0  0  0  0  0  0
  156.8180  211.0590  155.1830 C   0  0  1  0  0  3  0  0  0  0  0  0
  158.4620  212.9290  154.4880 C   0  0  0  0  0  0  0  0  0  0  0  0
  158.4090  212.0220  156.8930 C   0  0  0  0  0  2  0  0  0  0  0  0
  155.3900  210.7260  154.8930 C   0  0  0  0  0  0  0  0  0  0  0  0
  154.8810  209.4220  155.1370 N   0  0  0  0  0  1  0  0  0  0  0  0
  154.6310  211.6200  154.4230 O   0  0  0  0  0  0  0  0  0  0  0  0
  160.6010  209.6360  157.1580 O   0  0  0  0  0  1  0  0  0  0  0  0
  160.9870  210.6690  156.5570 C   0  0  0  0  0  0  0  0  0  0  0  0
  162.0840  211.3690  157.0450 O   0  0  0  0  0  0  0  0  0  0  0  0
  161.8200  206.7460  148.4780 C   0  0  0  0  0  2  0  0  0  0  0  0
  162.2790  205.4150  148.5040 O   0  0  0  0  0  0  0  0  0  0  0  0
  162.0470  204.8260  147.2390 C   0  0  1  0  0  3  0  0  0  0  0  0
  161.0240  202.8970  146.1190 C   0  0  0  0  0  3  0  0  0  0  0  0
  161.4390  203.4310  147.2780 C   0  0  0  0  0  0  0  0  0  0  0  0
  159.8240  202.9670  149.1390 C   0  0  0  0  0  2  0  0  0  0  0  0
  159.8940  200.7820  150.3520 C   0  0  0  0  0  2  0  0  0  0  0  0
  161.5260  201.2060  148.4960 C   0  0  1  0  0  3  0  0  0  0  0  0
  161.3120  200.5280  149.8470 C   0  0  0  0  0  2  0  0  0  0  0  0
  159.6490  202.2800  150.4950 C   0  0  0  0  0  2  0  0  0  0  0  0
  161.2270  202.7090  148.5880 C   0  0  1  0  0  3  0  0  0  0  0  0
  162.8370  200.9970  148.0800 O   0  0  0  0  0  1  0  0  0  0  0  0
  160.4320  201.5660  145.8810 C   0  0  0  0  0  3  0  0  0  0  0  0
  161.0640  200.5510  145.3010 C   0  0  0  0  0  3  0  0  0  0  0  0
  160.3980  199.2680  145.0530 C   0  0  0  0  0  0  0  0  0  0  0  0
  159.1930  199.2560  144.6780 O   0  0  0  0  0  0  0  0  0  0  0  0
  161.0770  198.0320  145.2610 N   0  0  0  0  0  1  0  0  0  0  0  0
  161.4260  205.7970  146.2320 C   0  0  0  0  0  2  0  0  0  0  0  0
  162.1990  205.7560  144.9290 C   0  0  0  0  0  2  0  0  0  0  0  0
  161.2610  206.0900  143.7910 C   0  0  0  0  0  2  0  0  0  0  0  0
  161.9050  206.5980  141.4050 C   0  0  0  0  0  0  0  0  0  0  0  0
  161.3420  207.7210  141.4550 O   0  0  0  0  0  0  0  0  0  0  0  0
  161.8600  205.7090  142.5220 N   0  0  0  0  0  2  0  0  0  0  0  0
  162.6000  206.1790  140.1580 C   0  0  0  0  0  2  0  0  0  0  0  0
  162.2940  207.1340  139.0160 C   0  0  0  0  0  2  0  0  0  0  0  0
  162.3970  206.4430  137.7420 N   0  0  0  0  0  1  0  0  0  0  0  0
  1  4  1  0  0  0  0
  2  7  1  6  0  0  0
  2  6  1  0  0  0  0
  3 30  1  6  0  0  0
  3  5  1  0  0  0  0
  3  2  1  0  0  0  0
  5  1  1  0  0  0  0
  6  4  1  0  0  0  0
  7  8  1  0  0  0  0
  8  9  1  0  0  0  0
  9 10  1  0  0  0  0
 10 11  1  6  0  0  0
 10 12  1  0  0  0  0
 12 13  1  0  0  0  0
 13 14  1  6  0  0  0
 13 18  1  0  0  0  0
 13 28  1  0  0  0  0
 15 22  1  0  0  0  0
 15 21  1  0  0  0  0
 16 22  1  0  0  0  0
 18 17  1  1  0  0  0
 18 23  1  0  0  0  0
 19 23  1  0  0  0  0
 21 24  1  6  0  0  0
 21 19  1  0  0  0  0
 22 20  1  0  0  0  0
 22 18  1  0  0  0  0
 24 25  1  0  0  0  0
 26 24  2  0  0  0  0
 28 29  2  0  0  0  0
 28 27  1  0  0  0  0
 30 31  1  0  0  0  0
 32 47  1  6  0  0  0
 32 34  1  0  0  0  0
 32 31  1  0  0  0  0
 33 34  2  0  0  0  0
 35 39  1  0  0  0  0
 36 39  1  0  0  0  0
 37 41  1  1  0  0  0
 37 40  1  0  0  0  0
 37 38  1  0  0  0  0
 38 36  1  0  0  0  0
 40 34  1  6  0  0  0
 40 35  1  0  0  0  0
 42 33  1  0  0  0  0
 43 42  2  0  0  0  0
 44 46  1  0  0  0  0
 44 43  1  0  0  0  0
 45 44  2  0  0  0  0
 48 47  1  0  0  0  0
 49 48  1  0  0  0  0
 50 51  2  0  0  0  0
 50 52  1  0  0  0  0
 52 49  1  0  0  0  0
 53 50  1  0  0  0  0
 54 53  1  0  0  0  0
 55 54  1  0  0  0  0
M  END
>  <MODEL>
4

>  <REMARK>
 VINA RESULT:      -0.8      5.089     11.195
  Name = 
  22 active torsions:
  status: ('A' for Active; 'I' for Inactive)
    1  A    between atoms: C_1  and  C_29
    2  A    between atoms: C_2  and  O_28
    3  A    between atoms: C_2  and  C_31
    4  A    between atoms: C_4  and  C_40
    5  A    between atoms: C_6  and  C_14
    6  A    between atoms: C_6  and  C_20
    7  A    between atoms: C_6  and  O_22
    8  A    between atoms: C_8  and  O_22
    9  A    between atoms: C_8  and  C_35
   10  A    between atoms: C_10  and  C_32
   11  A    between atoms: C_13  and  N_48
   12  A    between atoms: C_13  and  C_52
   13  A    between atoms: C_19  and  C_45
   14  A    between atoms: C_26  and  C_49
   15  A    between atoms: C_27  and  C_54
   16  A    between atoms: O_28  and  C_33
   17  A    between atoms: C_32  and  C_39
   18  A    between atoms: C_33  and  C_34
   19  A    between atoms: C_33  and  C_49
   20  A    between atoms: C_34  and  C_52
   21  A    between atoms: C_35  and  O_51
   22  A    between atoms: O_51  and  C_54
                            x       y       z     vdW  Elec       q    Type
                         _______ _______ _______ _____ _____    ______ ____

>  <TORSDO>
F 22

$$$$
=
 OpenBabel11062409003D

 55 57  0  0  1  0  0  0  0  0999 V2000
  161.8530  207.6040  147.3490 S   0  0  0  0  0  0  0  0  0  0  0  0
  161.3680  208.9860  150.0270 C   0  0  2  0  0  3  0  0  0  0  0  0
  161.9070  207.5530  150.1290 C   0  0  2  0  0  3  0  0  0  0  0  0
  162.0120  209.4160  147.6180 C   0  0  0  0  0  2  0  0  0  0  0  0
  162.6860  207.0930  148.8920 C   0  0  0  0  0  2  0  0  0  0  0  0
  162.2240  209.8270  149.0800 C   0  0  0  0  0  2  0  0  0  0  0  0
  161.3730  209.5940  151.4190 C   0  0  0  0  0  2  0  0  0  0  0  0
  161.1210  210.9650  151.3700 O   0  0  0  0  0  0  0  0  0  0  0  0
  161.0970  211.3430  152.7170 C   0  0  0  0  0  2  0  0  0  0  0  0
  159.7510  211.9500  153.0820 C   0  0  1  0  0  3  0  0  0  0  0  0
  158.7230  210.8340  153.1240 C   0  0  0  0  0  1  0  0  0  0  0  0
  159.8380  212.5700  154.3480 O   0  0  0  0  0  0  0  0  0  0  0  0
  158.8970  211.9850  155.2400 C   0  0  2  0  0  0  0  0  0  0  0  0
  158.2500  210.9100  154.6280 F   0  0  0  0  0  0  0  0  0  0  0  0
  155.7430  211.8220  154.7540 C   0  0  0  0  0  2  0  0  0  0  0  0
  156.9610  213.3530  153.2530 C   0  0  0  0  0  1  0  0  0  0  0  0
  158.4920  214.4430  155.6760 C   0  0  0  0  0  1  0  0  0  0  0  0
  157.8190  213.0630  155.6590 C   0  0  1  0  0  0  0  0  0  0  0  0
  155.9660  212.1500  157.2590 C   0  0  0  0  0  2  0  0  0  0  0  0
  155.6350  214.2590  155.0780 C   0  0  0  0  0  1  0  0  0  0  0  0
  155.6940  211.1590  156.1400 C   0  0  1  0  0  3  0  0  0  0  0  0
  156.5700  213.1150  154.6950 C   0  0  0  0  0  0  0  0  0  0  0  0
  157.3590  212.7880  157.1200 C   0  0  0  0  0  2  0  0  0  0  0  0
  154.3750  210.4870  156.3470 C   0  0  0  0  0  0  0  0  0  0  0  0
  153.3850  211.0640  157.1870 N   0  0  0  0  0  1  0  0  0  0  0  0
  154.1450  209.3900  155.7650 O   0  0  0  0  0  0  0  0  0  0  0  0
  160.5660  212.1270  156.9720 O   0  0  0  0  0  0  0  0  0  0  0  0
  159.6290  211.4630  156.4660 C   0  0  0  0  0  0  0  0  0  0  0  0
  159.2880  210.2360  157.0210 O   0  0  0  0  0  1  0  0  0  0  0  0
  160.7830  206.5830  150.4560 C   0  0  0  0  0  2  0  0  0  0  0  0
  160.2290  206.0970  149.2550 O   0  0  0  0  0  0  0  0  0  0  0  0
  159.9940  204.7080  149.3880 C   0  0  1  0  0  3  0  0  0  0  0  0
  160.3140  202.5290  148.3060 C   0  0  0  0  0  3  0  0  0  0  0  0
  160.5770  203.8450  148.2790 C   0  0  0  0  0  0  0  0  0  0  0  0
  162.8630  203.7550  147.2540 C   0  0  0  0  0  2  0  0  0  0  0  0
  163.1850  204.3150  144.8400 C   0  0  0  0  0  2  0  0  0  0  0  0
  160.8820  204.4170  145.8250 C   0  0  1  0  0  3  0  0  0  0  0  0
  161.8400  205.0350  144.8100 C   0  0  0  0  0  2  0  0  0  0  0  0
  163.7980  204.4060  146.2320 C   0  0  0  0  0  2  0  0  0  0  0  0
  161.4940  204.4350  147.2320 C   0  0  1  0  0  3  0  0  0  0  0  0
  159.6810  205.1190  145.8090 O   0  0  0  0  0  1  0  0  0  0  0  0
  160.7310  201.4900  147.3450 C   0  0  0  0  0  3  0  0  0  0  0  0
  160.1700  201.2920  146.1560 C   0  0  0  0  0  3  0  0  0  0  0  0
  160.6040  200.2080  145.2690 C   0  0  0  0  0  0  0  0  0  0  0  0
  160.1400  200.1420  144.0970 O   0  0  0  0  0  0  0  0  0  0  0  0
  161.5140  199.2070  145.7170 N   0  0  0  0  0  1  0  0  0  0  0  0
  160.2130  204.1990  150.8160 C   0  0  0  0  0  2  0  0  0  0  0  0
  161.5850  203.5670  150.9330 C   0  0  0  0  0  2  0  0  0  0  0  0
  161.9210  203.3920  152.3960 C   0  0  0  0  0  2  0  0  0  0  0  0
  161.6000  205.6150  153.5460 C   0  0  0  0  0  0  0  0  0  0  0  0
  162.7600  205.9860  153.2310 O   0  0  0  0  0  0  0  0  0  0  0  0
  161.1340  204.3100  153.2040 N   0  0  0  0  0  2  0  0  0  0  0  0
  160.7160  206.5370  154.3100 C   0  0  0  0  0  2  0  0  0  0  0  0
  161.5240  207.6290  154.9900 C   0  0  0  0  0  2  0  0  0  0  0  0
  160.8090  208.8920  154.9350 N   0  0  0  0  0  1  0  0  0  0  0  0
  1  4  1  0  0  0  0
  1  5  1  0  0  0  0
  2  3  1  0  0  0  0
  2  7  1  1  0  0  0
  3 30  1  6  0  0  0
  4  6  1  0  0  0  0
  5  3  1  0  0  0  0
  6  2  1  0  0  0  0
  8  7  1  0  0  0  0
  8  9  1  0  0  0  0
  9 10  1  0  0  0  0
 10 11  1  1  0  0  0
 10 12  1  0  0  0  0
 12 13  1  0  0  0  0
 13 14  1  6  0  0  0
 13 18  1  0  0  0  0
 13 28  1  0  0  0  0
 15 21  1  0  0  0  0
 16 22  1  0  0  0  0
 18 17  1  6  0  0  0
 18 23  1  0  0  0  0
 21 24  1  1  0  0  0
 21 19  1  0  0  0  0
 22 15  1  0  0  0  0
 22 20  1  0  0  0  0
 22 18  1  0  0  0  0
 23 19  1  0  0  0  0
 24 25  1  0  0  0  0
 26 24  2  0  0  0  0
 28 27  2  0  0  0  0
 28 29  1  0  0  0  0
 31 32  1  0  0  0  0
 31 30  1  0  0  0  0
 32 47  1  1  0  0  0
 34 33  2  0  0  0  0
 34 32  1  0  0  0  0
 36 39  1  0  0  0  0
 37 41  1  1  0  0  0
 37 40  1  0  0  0  0
 38 36  1  0  0  0  0
 38 37  1  0  0  0  0
 39 35  1  0  0  0  0
 40 35  1  0  0  0  0
 40 34  1  1  0  0  0
 42 33  1  0  0  0  0
 43 42  2  0  0  0  0
 44 46  1  0  0  0  0
 44 43  1  0  0  0  0
 45 44  2  0  0  0  0
 47 48  1  0  0  0  0
 48 49  1  0  0  0  0
 49 52  1  0  0  0  0
 50 53  1  0  0  0  0
 51 50  2  0  0  0  0
 52 50  1  0  0  0  0
 53 54  1  0  0  0  0
 55 54  1  0  0  0  0
M  END
>  <MODEL>
5

>  <REMARK>
 VINA RESULT:       0.4      6.205     11.642
  Name = 
  22 active torsions:
  status: ('A' for Active; 'I' for Inactive)
    1  A    between atoms: C_1  and  C_29
    2  A    between atoms: C_2  and  O_28
    3  A    between atoms: C_2  and  C_31
    4  A    between atoms: C_4  and  C_40
    5  A    between atoms: C_6  and  C_14
    6  A    between atoms: C_6  and  C_20
    7  A    between atoms: C_6  and  O_22
    8  A    between atoms: C_8  and  O_22
    9  A    between atoms: C_8  and  C_35
   10  A    between atoms: C_10  and  C_32
   11  A    between atoms: C_13  and  N_48
   12  A    between atoms: C_13  and  C_52
   13  A    between atoms: C_19  and  C_45
   14  A    between atoms: C_26  and  C_49
   15  A    between atoms: C_27  and  C_54
   16  A    between atoms: O_28  and  C_33
   17  A    between atoms: C_32  and  C_39
   18  A    between atoms: C_33  and  C_34
   19  A    between atoms: C_33  and  C_49
   20  A    between atoms: C_34  and  C_52
   21  A    between atoms: C_35  and  O_51
   22  A    between atoms: O_51  and  C_54
                            x       y       z     vdW  Elec       q    Type
                         _______ _______ _______ _____ _____    ______ ____

>  <TORSDO>
F 22

$$$$
=
 OpenBabel11062409003D

 55 57  0  0  1  0  0  0  0  0999 V2000
  160.6210  202.9870  149.5020 S   0  0  0  0  0  0  0  0  0  0  0  0
  162.0170  204.8100  151.5140 C   0  0  2  0  0  3  0  0  0  0  0  0
  160.9550  205.4990  150.6460 C   0  0  2  0  0  3  0  0  0  0  0  0
  161.2650  202.4240  151.1290 C   0  0  0  0  0  2  0  0  0  0  0  0
  159.8850  204.5470  150.1010 C   0  0  0  0  0  2  0  0  0  0  0  0
  161.4570  203.5420  152.1610 C   0  0  0  0  0  2  0  0  0  0  0  0
  162.4650  205.7900  152.5820 C   0  0  0  0  0  2  0  0  0  0  0  0
  161.3940  206.1850  153.3850 O   0  0  0  0  0  0  0  0  0  0  0  0
  161.7330  207.4870  153.7680 C   0  0  0  0  0  2  0  0  0  0  0  0
  161.0780  207.8460  155.0930 C   0  0  1  0  0  3  0  0  0  0  0  0
  161.8710  207.1880  156.2070 C   0  0  0  0  0  1  0  0  0  0  0  0
  161.0870  209.2480  155.2620 O   0  0  0  0  0  0  0  0  0  0  0  0
  159.7560  209.7290  155.4040 C   0  0  2  0  0  0  0  0  0  0  0  0
  159.2010  209.9990  154.1510 F   0  0  0  0  0  0  0  0  0  0  0  0
  158.3750  212.5050  154.6320 C   0  0  0  0  0  2  0  0  0  0  0  0
  160.8270  212.4450  154.3820 C   0  0  0  0  0  1  0  0  0  0  0  0
  161.0310  211.0800  157.1200 C   0  0  0  0  0  1  0  0  0  0  0  0
  159.7570  211.0560  156.2630 C   0  0  1  0  0  0  0  0  0  0  0  0
  157.3720  211.9220  156.8880 C   0  0  0  0  0  2  0  0  0  0  0  0
  159.8380  213.6120  156.2720 C   0  0  0  0  0  1  0  0  0  0  0  0
  157.1510  211.9580  155.3850 C   0  0  1  0  0  3  0  0  0  0  0  0
  159.7030  212.3720  155.3910 C   0  0  0  0  0  0  0  0  0  0  0  0
  158.5640  211.0230  157.2600 C   0  0  0  0  0  2  0  0  0  0  0  0
  155.9360  212.7620  155.0550 C   0  0  0  0  0  0  0  0  0  0  0  0
  155.5540  213.8710  155.8590 N   0  0  0  0  0  1  0  0  0  0  0  0
  155.2430  212.4480  154.0470 O   0  0  0  0  0  0  0  0  0  0  0  0
  157.7000  208.5260  155.7690 O   0  0  0  0  0  0  0  0  0  0  0  0
  158.9090  208.6620  156.0780 C   0  0  0  0  0  0  0  0  0  0  0  0
  159.4550  207.8460  157.0620 O   0  0  0  0  0  1  0  0  0  0  0  0
  161.6120  206.2810  149.5210 C   0  0  0  0  0  2  0  0  0  0  0  0
  160.9240  207.4960  149.3400 O   0  0  0  0  0  0  0  0  0  0  0  0
  161.7270  208.3670  148.5650 C   0  0  1  0  0  3  0  0  0  0  0  0
  161.2560  210.1800  150.1490 C   0  0  0  0  0  3  0  0  0  0  0  0
  161.5730  209.8460  148.8880 C   0  0  0  0  0  0  0  0  0  0  0  0
  160.3070  211.3100  147.2940 C   0  0  0  0  0  2  0  0  0  0  0  0
  161.2130  213.5480  146.6490 C   0  0  0  0  0  2  0  0  0  0  0  0
  162.5100  212.1160  148.2470 C   0  0  1  0  0  3  0  0  0  0  0  0
  162.6060  213.1380  147.1170 C   0  0  0  0  0  2  0  0  0  0  0  0
  160.4440  212.3270  146.1600 C   0  0  0  0  0  2  0  0  0  0  0  0
  161.6870  210.8970  147.8080 C   0  0  1  0  0  3  0  0  0  0  0  0
  163.7910  211.7260  148.6240 O   0  0  0  0  0  1  0  0  0  0  0  0
  161.0780  211.5280  150.7240 C   0  0  0  0  0  3  0  0  0  0  0  0
  159.9480  212.2270  150.6760 C   0  0  0  0  0  3  0  0  0  0  0  0
  159.8550  213.5820  151.2280 C   0  0  0  0  0  0  0  0  0  0  0  0
  158.7490  213.9960  151.6720 O   0  0  0  0  0  0  0  0  0  0  0  0
  160.9830  214.4530  151.2400 N   0  0  0  0  0  1  0  0  0  0  0  0
  163.1640  207.8650  148.3990 C   0  0  0  0  0  2  0  0  0  0  0  0
  163.1670  206.5360  147.6710 C   0  0  0  0  0  2  0  0  0  0  0  0
  162.0980  206.5590  146.6040 C   0  0  0  0  0  2  0  0  0  0  0  0
  160.8620  204.9230  145.1320 C   0  0  0  0  0  0  0  0  0  0  0  0
  160.0080  205.7920  144.8220 O   0  0  0  0  0  0  0  0  0  0  0  0
  161.9070  205.2250  146.0580 N   0  0  0  0  0  2  0  0  0  0  0  0
  160.7650  203.5580  144.5490 C   0  0  0  0  0  2  0  0  0  0  0  0
  160.3970  202.5350  145.6100 C   0  0  0  0  0  2  0  0  0  0  0  0
  159.9300  201.3090  144.9870 N   0  0  0  0  0  1  0  0  0  0  0  0
  1  5  1  0  0  0  0
  1  4  1  0  0  0  0
  2  6  1  0  0  0  0
  2  7  1  1  0  0  0
  3 30  1  6  0  0  0
  3  2  1  0  0  0  0
  4  6  1  0  0  0  0
  5  3  1  0  0  0  0
  7  8  1  0  0  0  0
  8  9  1  0  0  0  0
  9 10  1  0  0  0  0
 10 12  1  0  0  0  0
 10 11  1  1  0  0  0
 12 13  1  0  0  0  0
 13 14  1  6  0  0  0
 13 28  1  0  0  0  0
 13 18  1  0  0  0  0
 15 21  1  0  0  0  0
 15 22  1  0  0  0  0
 16 22  1  0  0  0  0
 18 17  1  1  0  0  0
 18 23  1  0  0  0  0
 19 23  1  0  0  0  0
 21 24  1  1  0  0  0
 21 19  1  0  0  0  0
 22 18  1  0  0  0  0
 22 20  1  0  0  0  0
 24 25  1  0  0  0  0
 26 24  2  0  0  0  0
 27 28  2  0  0  0  0
 28 29  1  0  0  0  0
 31 30  1  0  0  0  0
 32 47  1  1  0  0  0
 32 34  1  0  0  0  0
 32 31  1  0  0  0  0
 33 42  1  0  0  0  0
 34 33  2  0  0  0  0
 35 40  1  0  0  0  0
 36 38  1  0  0  0  0
 37 41  1  6  0  0  0
 38 37  1  0  0  0  0
 39 36  1  0  0  0  0
 39 35  1  0  0  0  0
 40 37  1  0  0  0  0
 40 34  1  1  0  0  0
 43 42  2  0  0  0  0
 43 44  1  0  0  0  0
 44 46  1  0  0  0  0
 44 45  2  0  0  0  0
 48 47  1  0  0  0  0
 49 48  1  0  0  0  0
 50 52  1  0  0  0  0
 51 50  2  0  0  0  0
 52 49  1  0  0  0  0
 53 50  1  0  0  0  0
 53 54  1  0  0  0  0
 55 54  1  0  0  0  0
M  END
>  <MODEL>
6

>  <REMARK>
 VINA RESULT:       0.5      5.307     11.883
  Name = 
  22 active torsions:
  status: ('A' for Active; 'I' for Inactive)
    1  A    between atoms: C_1  and  C_29
    2  A    between atoms: C_2  and  O_28
    3  A    between atoms: C_2  and  C_31
    4  A    between atoms: C_4  and  C_40
    5  A    between atoms: C_6  and  C_14
    6  A    between atoms: C_6  and  C_20
    7  A    between atoms: C_6  and  O_22
    8  A    between atoms: C_8  and  O_22
    9  A    between atoms: C_8  and  C_35
   10  A    between atoms: C_10  and  C_32
   11  A    between atoms: C_13  and  N_48
   12  A    between atoms: C_13  and  C_52
   13  A    between atoms: C_19  and  C_45
   14  A    between atoms: C_26  and  C_49
   15  A    between atoms: C_27  and  C_54
   16  A    between atoms: O_28  and  C_33
   17  A    between atoms: C_32  and  C_39
   18  A    between atoms: C_33  and  C_34
   19  A    between atoms: C_33  and  C_49
   20  A    between atoms: C_34  and  C_52
   21  A    between atoms: C_35  and  O_51
   22  A    between atoms: O_51  and  C_54
                            x       y       z     vdW  Elec       q    Type
                         _______ _______ _______ _____ _____    ______ ____

>  <TORSDO>
F 22

$$$$
