=
 OpenBabel11052423193D

 27 32  0  0  1  0  0  0  0  0999 V2000
  160.6320  210.0190  153.1840 C   0  0  2  0  0  3  0  0  0  0  0  0
  160.8950  208.7820  152.3700 C   0  0  0  0  0  0  0  0  0  0  0  0
  160.7230  208.0280  154.5050 C   0  0  2  0  0  0  0  0  0  0  0  0
  161.0450  205.3060  150.4370 N   0  0  0  0  0  0  0  0  0  0  0  0
  162.0140  203.2870  151.3850 C   0  0  0  0  0  1  0  0  0  0  0  0
  161.2270  208.7750  150.9300 C   0  0  0  0  0  3  0  0  0  0  0  0
  160.4820  204.8940  152.9940 S   0  0  0  0  0  0  0  0  0  0  0  0
  162.2000  209.4320  156.4900 C   0  0  0  0  0  0  0  0  0  0  0  0
  159.8730  207.1460  155.3810 C   0  0  0  0  0  2  0  0  0  0  0  0
  163.2130  209.9870  157.2610 O   0  0  0  0  0  1  0  0  0  0  0  0
  161.4270  206.3720  152.5180 C   0  0  1  0  0  3  0  0  0  0  0  0
  160.7950  204.1910  151.3350 C   0  0  1  0  0  3  0  0  0  0  0  0
  161.3610  206.4060  151.0280 C   0  0  0  0  0  0  0  0  0  0  0  0
  160.5570  209.5380  154.6450 C   0  0  1  0  0  3  0  0  0  0  0  0
  160.8890  207.6620  153.0840 C   0  0  0  0  0  0  0  0  0  0  0  0
  161.6850  208.0620  156.8400 C   0  0  0  0  0  2  0  0  0  0  0  0
  161.4280  207.6480  150.3120 N   0  0  0  0  0  0  0  0  0  0  0  0
  162.1200  211.4160  155.2110 O   0  0  0  0  0  1  0  0  0  0  0  0
  161.6700  210.1260  155.4730 C   0  0  0  0  0  0  0  0  0  0  0  0
  161.3920  207.2120  155.6000 C   0  0  2  0  0  3  0  0  0  0  0  0
  159.3290  210.7020  152.7630 C   0  0  0  0  0  2  0  0  0  0  0  0
  157.1550  213.8700  154.4970 C   0  0  0  0  0  2  0  0  0  0  0  0
  158.9370  211.7290  153.7180 N   0  0  0  0  0  0  0  0  0  0  0  0
  157.5610  211.4400  154.1180 C   0  0  0  0  0  2  0  0  0  0  0  0
  157.0850  212.4820  155.1270 C   0  0  0  0  0  2  0  0  0  0  0  0
  158.5550  214.1340  153.9490 C   0  0  0  0  0  2  0  0  0  0  0  0
  158.9530  213.0050  153.0030 C   0  0  0  0  0  2  0  0  0  0  0  0
  1 21  1  6  0  0  0
  1 14  1  0  0  0  0
  2 15  2  0  0  0  0
  2  1  1  0  0  0  0
  3 14  1  0  0  0  0
  3  9  1  1  0  0  0
  3 20  1  0  0  0  0
  4 13  2  0  0  0  0
  4 12  1  0  0  0  0
  6  2  1  0  0  0  0
  8 16  1  0  0  0  0
  8 10  1  0  0  0  0
 11 13  1  6  0  0  0
 11  7  1  0  0  0  0
 11 15  1  0  0  0  0
 12  5  1  1  0  0  0
 12  7  1  0  0  0  0
 14 19  1  1  0  0  0
 15  3  1  0  0  0  0
 17  6  2  0  0  0  0
 17 13  1  0  0  0  0
 18 19  1  0  0  0  0
 19  8  2  0  0  0  0
 20  9  1  1  0  0  0
 20 16  1  0  0  0  0
 21 23  1  0  0  0  0
 22 25  1  0  0  0  0
 23 24  1  0  0  0  0
 24 25  1  0  0  0  0
 26 22  1  0  0  0  0
 27 23  1  0  0  0  0
 27 26  1  0  0  0  0
M  END
>  <MODEL>
1

>  <REMARK>
 VINA RESULT:      -5.9      0.000      0.000
  Name = 
  2 active torsions:
  status: ('A' for Active; 'I' for Inactive)
    1  A    between atoms: C_1  and  C_15
    2  A    between atoms: N_9  and  C_15
                            x       y       z     vdW  Elec       q    Type
                         _______ _______ _______ _____ _____    ______ ____

>  <TORSDO>
F 2

$$$$
=
 OpenBabel11052423193D

 27 32  0  0  1  0  0  0  0  0999 V2000
  160.8780  209.4280  153.0910 C   0  0  2  0  0  3  0  0  0  0  0  0
  159.9400  210.5700  153.3630 C   0  0  0  0  0  0  0  0  0  0  0  0
  160.9860  210.2140  155.3470 C   0  0  2  0  0  0  0  0  0  0  0  0
  157.9680  213.9170  154.2330 N   0  0  0  0  0  0  0  0  0  0  0  0
  157.1560  214.4530  156.4610 C   0  0  0  0  0  1  0  0  0  0  0  0
  158.9280  211.0760  152.4110 C   0  0  0  0  0  3  0  0  0  0  0  0
  159.6360  213.3140  156.2020 S   0  0  0  0  0  0  0  0  0  0  0  0
  161.1320  207.5250  156.2610 C   0  0  0  0  0  0  0  0  0  0  0  0
  161.9160  210.8780  156.3280 C   0  0  0  0  0  2  0  0  0  0  0  0
  160.8300  206.2490  156.7220 O   0  0  0  0  0  1  0  0  0  0  0  0
  158.9810  211.9830  155.1520 C   0  0  1  0  0  3  0  0  0  0  0  0
  158.3570  214.4370  155.5320 C   0  0  1  0  0  3  0  0  0  0  0  0
  158.2820  212.6840  154.0360 C   0  0  0  0  0  0  0  0  0  0  0  0
  161.5680  209.1370  154.4370 C   0  0  1  0  0  3  0  0  0  0  0  0
  160.0330  211.0560  154.5960 C   0  0  0  0  0  0  0  0  0  0  0  0
  161.3960  208.6180  157.2600 C   0  0  0  0  0  2  0  0  0  0  0  0
  158.1680  212.0800  152.7390 N   0  0  0  0  0  0  0  0  0  0  0  0
  161.0350  206.7170  154.0430 O   0  0  0  0  0  1  0  0  0  0  0  0
  161.2200  207.7610  154.9450 C   0  0  0  0  0  0  0  0  0  0  0  0
  160.7940  209.9600  156.8340 C   0  0  2  0  0  3  0  0  0  0  0  0
  161.9050  209.7870  152.0150 C   0  0  0  0  0  2  0  0  0  0  0  0
  161.1110  207.1640  148.8130 C   0  0  0  0  0  2  0  0  0  0  0  0
  162.0800  208.6970  151.0650 N   0  0  0  0  0  0  0  0  0  0  0  0
  162.0470  209.2860  149.7270 C   0  0  0  0  0  2  0  0  0  0  0  0
  162.2300  208.1930  148.6760 C   0  0  0  0  0  2  0  0  0  0  0  0
  161.0440  206.6390  150.2440 C   0  0  0  0  0  2  0  0  0  0  0  0
  160.9250  207.8130  151.2120 C   0  0  0  0  0  2  0  0  0  0  0  0
  1 21  1  6  0  0  0
  1  2  1  0  0  0  0
  1 14  1  0  0  0  0
  2 15  2  0  0  0  0
  3  9  1  1  0  0  0
  3 20  1  0  0  0  0
  4 12  1  0  0  0  0
  6 17  2  0  0  0  0
  6  2  1  0  0  0  0
  8 10  1  0  0  0  0
  8 16  1  0  0  0  0
 11 13  1  6  0  0  0
 11  7  1  0  0  0  0
 12  7  1  0  0  0  0
 12  5  1  1  0  0  0
 13  4  2  0  0  0  0
 14 19  1  1  0  0  0
 14  3  1  0  0  0  0
 15 11  1  0  0  0  0
 15  3  1  0  0  0  0
 17 13  1  0  0  0  0
 18 19  1  0  0  0  0
 19  8  2  0  0  0  0
 20  9  1  1  0  0  0
 20 16  1  0  0  0  0
 22 26  1  0  0  0  0
 23 27  1  0  0  0  0
 23 21  1  0  0  0  0
 24 23  1  0  0  0  0
 25 22  1  0  0  0  0
 25 24  1  0  0  0  0
 26 27  1  0  0  0  0
M  END
>  <MODEL>
2

>  <REMARK>
 VINA RESULT:      -5.7      2.678      6.420
  Name = 
  2 active torsions:
  status: ('A' for Active; 'I' for Inactive)
    1  A    between atoms: C_1  and  C_15
    2  A    between atoms: N_9  and  C_15
                            x       y       z     vdW  Elec       q    Type
                         _______ _______ _______ _____ _____    ______ ____

>  <TORSDO>
F 2

$$$$
=
 OpenBabel11052423193D

 27 32  0  0  1  0  0  0  0  0999 V2000
  160.8660  209.9480  153.0090 C   0  0  2  0  0  3  0  0  0  0  0  0
  161.1210  208.6950  152.2180 C   0  0  0  0  0  0  0  0  0  0  0  0
  160.7570  207.9620  154.3360 C   0  0  2  0  0  0  0  0  0  0  0  0
  161.2240  205.2060  150.3060 N   0  0  0  0  0  0  0  0  0  0  0  0
  162.0140  203.1430  151.3230 C   0  0  0  0  0  1  0  0  0  0  0  0
  161.5540  208.6630  150.8050 C   0  0  0  0  0  3  0  0  0  0  0  0
  160.4590  204.8370  152.8160 S   0  0  0  0  0  0  0  0  0  0  0  0
  162.1600  209.2960  156.4200 C   0  0  0  0  0  0  0  0  0  0  0  0
  159.8010  207.1300  155.1500 C   0  0  0  0  0  2  0  0  0  0  0  0
  163.1440  209.8010  157.2600 O   0  0  0  0  0  1  0  0  0  0  0  0
  161.5120  206.2610  152.4070 C   0  0  1  0  0  3  0  0  0  0  0  0
  160.8520  204.1100  151.1840 C   0  0  1  0  0  3  0  0  0  0  0  0
  161.5550  206.2900  150.9150 C   0  0  0  0  0  0  0  0  0  0  0  0
  160.6610  209.4790  154.4620 C   0  0  1  0  0  3  0  0  0  0  0  0
  161.0040  207.5800  152.9310 C   0  0  0  0  0  0  0  0  0  0  0  0
  161.5500  207.9570  156.7340 C   0  0  0  0  0  2  0  0  0  0  0  0
  161.7390  207.5230  150.2040 N   0  0  0  0  0  0  0  0  0  0  0  0
  162.2770  211.2750  155.1360 O   0  0  0  0  0  1  0  0  0  0  0  0
  161.7420  210.0110  155.3670 C   0  0  0  0  0  0  0  0  0  0  0  0
  161.3010  207.1170  155.4780 C   0  0  2  0  0  3  0  0  0  0  0  0
  159.6340  210.6960  152.4950 C   0  0  0  0  0  2  0  0  0  0  0  0
  159.4470  214.4510  150.5880 C   0  0  0  0  0  2  0  0  0  0  0  0
  159.9550  212.0770  152.1600 N   0  0  0  0  0  0  0  0  0  0  0  0
  158.7410  212.8630  152.3750 C   0  0  0  0  0  2  0  0  0  0  0  0
  159.0080  214.3290  152.0450 C   0  0  0  0  0  2  0  0  0  0  0  0
  160.6320  213.5300  150.3120 C   0  0  0  0  0  2  0  0  0  0  0  0
  160.2790  212.1060  150.7350 C   0  0  0  0  0  2  0  0  0  0  0  0
  1 21  1  6  0  0  0
  1 14  1  0  0  0  0
  2 15  2  0  0  0  0
  2  1  1  0  0  0  0
  3 14  1  0  0  0  0
  3  9  1  1  0  0  0
  3 20  1  0  0  0  0
  4 13  2  0  0  0  0
  4 12  1  0  0  0  0
  6  2  1  0  0  0  0
  8 16  1  0  0  0  0
  8 10  1  0  0  0  0
 11 13  1  6  0  0  0
 11  7  1  0  0  0  0
 11 15  1  0  0  0  0
 12  5  1  1  0  0  0
 12  7  1  0  0  0  0
 14 19  1  1  0  0  0
 15  3  1  0  0  0  0
 17  6  2  0  0  0  0
 17 13  1  0  0  0  0
 18 19  1  0  0  0  0
 19  8  2  0  0  0  0
 20  9  1  1  0  0  0
 20 16  1  0  0  0  0
 22 25  1  0  0  0  0
 23 24  1  0  0  0  0
 23 21  1  0  0  0  0
 25 24  1  0  0  0  0
 26 22  1  0  0  0  0
 26 27  1  0  0  0  0
 27 23  1  0  0  0  0
M  END
>  <MODEL>
3

>  <REMARK>
 VINA RESULT:      -5.4      1.124      1.660
  Name = 
  2 active torsions:
  status: ('A' for Active; 'I' for Inactive)
    1  A    between atoms: C_1  and  C_15
    2  A    between atoms: N_9  and  C_15
                            x       y       z     vdW  Elec       q    Type
                         _______ _______ _______ _____ _____    ______ ____

>  <TORSDO>
F 2

$$$$
=
 OpenBabel11052423193D

 27 32  0  0  1  0  0  0  0  0999 V2000
  161.4770  205.6110  148.9530 C   0  0  2  0  0  3  0  0  0  0  0  0
  161.2010  206.4710  150.1560 C   0  0  0  0  0  0  0  0  0  0  0  0
  161.5990  204.4080  151.0160 C   0  0  2  0  0  0  0  0  0  0  0  0
  161.0430  208.5870  153.5230 N   0  0  0  0  0  0  0  0  0  0  0  0
  160.2610  207.6810  155.6400 C   0  0  0  0  0  1  0  0  0  0  0  0
  160.7410  207.8750  150.1010 C   0  0  0  0  0  3  0  0  0  0  0  0
  161.8520  206.1180  154.0450 S   0  0  0  0  0  0  0  0  0  0  0  0
  160.2410  202.2220  149.8040 C   0  0  0  0  0  0  0  0  0  0  0  0
  162.5650  203.6630  151.8990 C   0  0  0  0  0  2  0  0  0  0  0  0
  159.2760  201.3350  149.3450 O   0  0  0  0  0  1  0  0  0  0  0  0
  160.8000  206.4210  152.5950 C   0  0  1  0  0  3  0  0  0  0  0  0
  161.4260  207.7830  154.6710 C   0  0  1  0  0  3  0  0  0  0  0  0
  160.7300  207.9070  152.4760 C   0  0  0  0  0  0  0  0  0  0  0  0
  161.7050  204.1930  149.5100 C   0  0  1  0  0  3  0  0  0  0  0  0
  161.3240  205.8280  151.3110 C   0  0  0  0  0  0  0  0  0  0  0  0
  160.8500  202.0010  151.1610 C   0  0  0  0  0  2  0  0  0  0  0  0
  160.5400  208.5390  151.2020 N   0  0  0  0  0  0  0  0  0  0  0  0
  160.1120  203.3830  147.7500 O   0  0  0  0  0  1  0  0  0  0  0  0
  160.6440  203.2380  149.0280 C   0  0  0  0  0  0  0  0  0  0  0  0
  161.0710  203.3090  151.9260 C   0  0  2  0  0  3  0  0  0  0  0  0
  162.7030  206.1020  148.1810 C   0  0  0  0  0  2  0  0  0  0  0  0
  161.1720  204.8450  144.4600 C   0  0  0  0  0  2  0  0  0  0  0  0
  162.4800  206.0460  146.7430 N   0  0  0  0  0  0  0  0  0  0  0  0
  161.0470  206.2380  146.5230 C   0  0  0  0  0  2  0  0  0  0  0  0
  160.7420  206.1940  145.0280 C   0  0  0  0  0  2  0  0  0  0  0  0
  162.6340  204.5670  144.8000 C   0  0  0  0  0  2  0  0  0  0  0  0
  162.8390  204.6970  146.3070 C   0  0  0  0  0  2  0  0  0  0  0  0
  1 21  1  1  0  0  0
  1 14  1  0  0  0  0
  1  2  1  0  0  0  0
  2 15  2  0  0  0  0
  3 15  1  0  0  0  0
  3  9  1  1  0  0  0
  3 20  1  0  0  0  0
  4 12  1  0  0  0  0
  6  2  1  0  0  0  0
  6 17  2  0  0  0  0
  7 12  1  0  0  0  0
  8 16  1  0  0  0  0
  9 20  1  0  0  0  0
 10  8  1  0  0  0  0
 11 15  1  6  0  0  0
 11  7  1  0  0  0  0
 12  5  1  1  0  0  0
 13 11  1  0  0  0  0
 13  4  2  0  0  0  0
 14 19  1  6  0  0  0
 14  3  1  0  0  0  0
 17 13  1  0  0  0  0
 18 19  1  0  0  0  0
 19  8  2  0  0  0  0
 20 16  1  6  0  0  0
 22 26  1  0  0  0  0
 22 25  1  0  0  0  0
 23 21  1  0  0  0  0
 24 23  1  0  0  0  0
 25 24  1  0  0  0  0
 26 27  1  0  0  0  0
 27 23  1  0  0  0  0
M  END
>  <MODEL>
4

>  <REMARK>
 VINA RESULT:      -5.2      4.408      8.056
  Name = 
  2 active torsions:
  status: ('A' for Active; 'I' for Inactive)
    1  A    between atoms: C_1  and  C_15
    2  A    between atoms: N_9  and  C_15
                            x       y       z     vdW  Elec       q    Type
                         _______ _______ _______ _____ _____    ______ ____

>  <TORSDO>
F 2

$$$$
=
 OpenBabel11052423193D

 27 32  0  0  1  0  0  0  0  0999 V2000
  161.3970  209.1080  152.7440 C   0  0  2  0  0  3  0  0  0  0  0  0
  161.2680  209.9190  154.0030 C   0  0  0  0  0  0  0  0  0  0  0  0
  160.1930  211.1500  152.4260 C   0  0  2  0  0  0  0  0  0  0  0  0
  160.3120  212.0080  157.2530 N   0  0  0  0  0  0  0  0  0  0  0  0
  159.9370  214.4110  157.2400 C   0  0  0  0  0  1  0  0  0  0  0  0
  161.9370  209.6020  155.2820 C   0  0  0  0  0  3  0  0  0  0  0  0
  158.9500  212.9120  155.1670 S   0  0  0  0  0  0  0  0  0  0  0  0
  161.5490  211.5460  149.9570 C   0  0  0  0  0  0  0  0  0  0  0  0
  158.8290  211.6790  152.0670 C   0  0  0  0  0  2  0  0  0  0  0  0
  162.4510  211.9270  148.9720 O   0  0  0  0  0  1  0  0  0  0  0  0
  160.5610  212.1120  154.9000 C   0  0  1  0  0  3  0  0  0  0  0  0
  159.3410  213.0450  156.9490 C   0  0  1  0  0  3  0  0  0  0  0  0
  160.9260  211.5340  156.2260 C   0  0  0  0  0  0  0  0  0  0  0  0
  160.7130  209.9460  151.6470 C   0  0  1  0  0  3  0  0  0  0  0  0
  160.5500  211.0270  153.8530 C   0  0  0  0  0  0  0  0  0  0  0  0
  160.3860  212.4480  150.2680 C   0  0  0  0  0  2  0  0  0  0  0  0
  161.7530  210.3650  156.3220 N   0  0  0  0  0  0  0  0  0  0  0  0
  162.7470  209.5300  150.2390 O   0  0  0  0  0  1  0  0  0  0  0  0
  161.6990  210.3750  150.5910 C   0  0  0  0  0  0  0  0  0  0  0  0
  160.0810  212.5160  151.7670 C   0  0  2  0  0  3  0  0  0  0  0  0
  160.7270  207.7390  152.8860 C   0  0  0  0  0  2  0  0  0  0  0  0
  161.1930  204.3230  150.4600 C   0  0  0  0  0  2  0  0  0  0  0  0
  161.3620  206.7480  152.0280 N   0  0  0  0  0  0  0  0  0  0  0  0
  160.6150  206.7280  150.7710 C   0  0  0  0  0  2  0  0  0  0  0  0
  161.2320  205.7070  149.8180 C   0  0  0  0  0  2  0  0  0  0  0  0
  161.8490  204.3580  151.8380 C   0  0  0  0  0  2  0  0  0  0  0  0
  161.2000  205.4510  152.6830 C   0  0  0  0  0  2  0  0  0  0  0  0
  1 21  1  1  0  0  0
  1  2  1  0  0  0  0
  2  6  1  0  0  0  0
  3  9  1  1  0  0  0
  3 15  1  0  0  0  0
  6 17  2  0  0  0  0
  7 12  1  0  0  0  0
  8 16  1  0  0  0  0
  8 19  2  0  0  0  0
 10  8  1  0  0  0  0
 11 15  1  6  0  0  0
 11  7  1  0  0  0  0
 11 13  1  0  0  0  0
 12  5  1  6  0  0  0
 12  4  1  0  0  0  0
 13 17  1  0  0  0  0
 13  4  2  0  0  0  0
 14 19  1  6  0  0  0
 14  3  1  0  0  0  0
 14  1  1  0  0  0  0
 15  2  2  0  0  0  0
 18 19  1  0  0  0  0
 20 16  1  6  0  0  0
 20  9  1  0  0  0  0
 20  3  1  0  0  0  0
 22 26  1  0  0  0  0
 23 27  1  0  0  0  0
 23 21  1  0  0  0  0
 24 23  1  0  0  0  0
 25 22  1  0  0  0  0
 25 24  1  0  0  0  0
 26 27  1  0  0  0  0
M  END
>  <MODEL>
5

>  <REMARK>
 VINA RESULT:      -4.8      3.002      7.265
  Name = 
  2 active torsions:
  status: ('A' for Active; 'I' for Inactive)
    1  A    between atoms: C_1  and  C_15
    2  A    between atoms: N_9  and  C_15
                            x       y       z     vdW  Elec       q    Type
                         _______ _______ _______ _____ _____    ______ ____

>  <TORSDO>
F 2

$$$$
=
 OpenBabel11052423193D

 27 32  0  0  1  0  0  0  0  0999 V2000
  161.4040  208.9920  150.4630 C   0  0  2  0  0  3  0  0  0  0  0  0
  160.9100  209.0930  151.8800 C   0  0  0  0  0  0  0  0  0  0  0  0
  161.8610  207.0350  151.7590 C   0  0  2  0  0  0  0  0  0  0  0  0
  160.2000  209.2790  155.7920 N   0  0  0  0  0  0  0  0  0  0  0  0
  159.7060  207.3280  157.1580 C   0  0  0  0  0  1  0  0  0  0  0  0
  160.0850  210.2000  152.4080 C   0  0  0  0  0  3  0  0  0  0  0  0
  161.6550  207.1340  155.2390 S   0  0  0  0  0  0  0  0  0  0  0  0
  161.1450  205.4140  149.5340 C   0  0  0  0  0  0  0  0  0  0  0  0
  162.9990  206.2250  152.3220 C   0  0  0  0  0  2  0  0  0  0  0  0
  160.4560  204.6380  148.6100 O   0  0  0  0  0  1  0  0  0  0  0  0
  160.5520  207.8130  153.9640 C   0  0  1  0  0  3  0  0  0  0  0  0
  160.7930  208.1520  156.4910 C   0  0  1  0  0  3  0  0  0  0  0  0
  160.0780  209.1140  154.5210 C   0  0  0  0  0  0  0  0  0  0  0  0
  162.0140  207.5830  150.3430 C   0  0  1  0  0  3  0  0  0  0  0  0
  161.2110  208.0370  152.6270 C   0  0  0  0  0  0  0  0  0  0  0  0
  161.7990  204.7390  150.7090 C   0  0  0  0  0  2  0  0  0  0  0  0
  159.7150  210.2010  153.6560 N   0  0  0  0  0  0  0  0  0  0  0  0
  160.6920  207.3280  148.2260 O   0  0  0  0  0  1  0  0  0  0  0  0
  161.2510  206.7380  149.3560 C   0  0  0  0  0  0  0  0  0  0  0  0
  161.6580  205.5480  152.0020 C   0  0  2  0  0  3  0  0  0  0  0  0
  162.4450  210.0690  150.1520 C   0  0  0  0  0  2  0  0  0  0  0  0
  161.8690  213.6850  148.0640 C   0  0  0  0  0  2  0  0  0  0  0  0
  161.9550  211.0060  149.1510 N   0  0  0  0  0  0  0  0  0  0  0  0
  163.1270  211.5760  148.4870 C   0  0  0  0  0  2  0  0  0  0  0  0
  162.6840  212.5700  147.4170 C   0  0  0  0  0  2  0  0  0  0  0  0
  160.7170  213.0980  148.8760 C   0  0  0  0  0  2  0  0  0  0  0  0
  161.2640  212.0760  149.8690 C   0  0  0  0  0  2  0  0  0  0  0  0
  1 21  1  1  0  0  0
  1  2  1  0  0  0  0
  2  6  1  0  0  0  0
  2 15  2  0  0  0  0
  3 20  1  0  0  0  0
  3  9  1  1  0  0  0
  3 15  1  0  0  0  0
  4 12  1  0  0  0  0
  6 17  2  0  0  0  0
  7 12  1  0  0  0  0
  8 16  1  0  0  0  0
 10  8  1  0  0  0  0
 11 15  1  6  0  0  0
 11 13  1  0  0  0  0
 11  7  1  0  0  0  0
 12  5  1  6  0  0  0
 13  4  2  0  0  0  0
 14 19  1  6  0  0  0
 14  1  1  0  0  0  0
 14  3  1  0  0  0  0
 17 13  1  0  0  0  0
 18 19  1  0  0  0  0
 19  8  2  0  0  0  0
 20 16  1  6  0  0  0
 20  9  1  0  0  0  0
 22 26  1  0  0  0  0
 23 27  1  0  0  0  0
 23 21  1  0  0  0  0
 24 23  1  0  0  0  0
 25 22  1  0  0  0  0
 25 24  1  0  0  0  0
 26 27  1  0  0  0  0
M  END
>  <MODEL>
6

>  <REMARK>
 VINA RESULT:      -4.8      3.531      5.901
  Name = 
  2 active torsions:
  status: ('A' for Active; 'I' for Inactive)
    1  A    between atoms: C_1  and  C_15
    2  A    between atoms: N_9  and  C_15
                            x       y       z     vdW  Elec       q    Type
                         _______ _______ _______ _____ _____    ______ ____

>  <TORSDO>
F 2

$$$$
=
 OpenBabel11052423193D

 27 32  0  0  1  0  0  0  0  0999 V2000
  160.5060  211.1590  153.4670 C   0  0  2  0  0  3  0  0  0  0  0  0
  161.0230  210.5830  152.1790 C   0  0  0  0  0  0  0  0  0  0  0  0
  160.8310  208.7920  153.5610 C   0  0  2  0  0  0  0  0  0  0  0  0
  161.8720  208.7130  148.7690 N   0  0  0  0  0  0  0  0  0  0  0  0
  163.0900  206.6110  148.6610 C   0  0  0  0  0  1  0  0  0  0  0  0
  161.4500  211.3800  151.0100 C   0  0  0  0  0  3  0  0  0  0  0  0
  161.2100  206.9440  150.6280 S   0  0  0  0  0  0  0  0  0  0  0  0
  161.9180  209.0610  156.1760 C   0  0  0  0  0  0  0  0  0  0  0  0
  160.0780  207.4970  153.7190 C   0  0  0  0  0  2  0  0  0  0  0  0
  162.7720  209.2190  157.2610 O   0  0  0  0  0  1  0  0  0  0  0  0
  161.9300  208.5350  151.1300 C   0  0  1  0  0  3  0  0  0  0  0  0
  161.7470  207.2730  148.9110 C   0  0  1  0  0  3  0  0  0  0  0  0
  161.9630  209.3530  149.8830 C   0  0  0  0  0  0  0  0  0  0  0  0
  160.4110  209.9670  154.4380 C   0  0  1  0  0  3  0  0  0  0  0  0
  161.1510  209.2610  152.1980 C   0  0  0  0  0  0  0  0  0  0  0  0
  161.6110  207.6720  155.6860 C   0  0  0  0  0  2  0  0  0  0  0  0
  161.8750  210.7840  149.9330 N   0  0  0  0  0  0  0  0  0  0  0  0
  161.6030  211.4010  156.1160 O   0  0  0  0  0  1  0  0  0  0  0  0
  161.3530  210.1320  155.6030 C   0  0  0  0  0  0  0  0  0  0  0  0
  161.5470  207.5900  154.1580 C   0  0  2  0  0  3  0  0  0  0  0  0
  159.1410  211.8240  153.2780 C   0  0  0  0  0  2  0  0  0  0  0  0
  156.5420  213.3590  156.2200 C   0  0  0  0  0  2  0  0  0  0  0  0
  158.4350  211.9540  154.5450 N   0  0  0  0  0  0  0  0  0  0  0  0
  157.0050  211.9110  154.2450 C   0  0  0  0  0  2  0  0  0  0  0  0
  156.2010  212.0380  155.5370 C   0  0  0  0  0  2  0  0  0  0  0  0
  158.0510  213.4810  156.4180 C   0  0  0  0  0  2  0  0  0  0  0  0
  158.7570  213.2760  155.0800 C   0  0  0  0  0  2  0  0  0  0  0  0
  1 21  1  6  0  0  0
  1 14  1  0  0  0  0
  2 15  2  0  0  0  0
  2  1  1  0  0  0  0
  3  9  1  6  0  0  0
  3 20  1  0  0  0  0
  3 14  1  0  0  0  0
  4 12  1  0  0  0  0
  4 13  2  0  0  0  0
  6  2  1  0  0  0  0
  7 11  1  0  0  0  0
  8 10  1  0  0  0  0
 11 13  1  6  0  0  0
 11 15  1  0  0  0  0
 12  5  1  1  0  0  0
 12  7  1  0  0  0  0
 13 17  1  0  0  0  0
 14 19  1  1  0  0  0
 15  3  1  0  0  0  0
 16  8  1  0  0  0  0
 17  6  2  0  0  0  0
 19 18  1  0  0  0  0
 19  8  2  0  0  0  0
 20  9  1  1  0  0  0
 20 16  1  0  0  0  0
 21 23  1  0  0  0  0
 22 26  1  0  0  0  0
 23 27  1  0  0  0  0
 24 23  1  0  0  0  0
 24 25  1  0  0  0  0
 25 22  1  0  0  0  0
 27 26  1  0  0  0  0
M  END
>  <MODEL>
7

>  <REMARK>
 VINA RESULT:      -4.6      1.893      2.223
  Name = 
  2 active torsions:
  status: ('A' for Active; 'I' for Inactive)
    1  A    between atoms: C_1  and  C_15
    2  A    between atoms: N_9  and  C_15
                            x       y       z     vdW  Elec       q    Type
                         _______ _______ _______ _____ _____    ______ ____

>  <TORSDO>
F 2

$$$$
=
 OpenBabel11052423193D

 27 32  0  0  1  0  0  0  0  0999 V2000
  161.0560  207.6680  152.8910 C   0  0  2  0  0  3  0  0  0  0  0  0
  160.9870  206.9070  151.5960 C   0  0  0  0  0  0  0  0  0  0  0  0
  161.6440  208.9950  150.9900 C   0  0  2  0  0  0  0  0  0  0  0  0
  161.4100  205.0290  148.1120 N   0  0  0  0  0  0  0  0  0  0  0  0
  161.1090  206.1170  145.9590 C   0  0  0  0  0  1  0  0  0  0  0  0
  160.4620  205.5330  151.4530 C   0  0  0  0  0  3  0  0  0  0  0  0
  162.4200  207.4740  147.9480 S   0  0  0  0  0  0  0  0  0  0  0  0
  160.1730  211.1740  152.0750 C   0  0  0  0  0  0  0  0  0  0  0  0
  162.8010  209.7360  150.3740 C   0  0  0  0  0  2  0  0  0  0  0  0
  159.1770  212.0860  152.4010 O   0  0  0  0  0  1  0  0  0  0  0  0
  161.0850  207.1400  149.1370 C   0  0  1  0  0  3  0  0  0  0  0  0
  162.0510  205.8820  147.1260 C   0  0  1  0  0  3  0  0  0  0  0  0
  160.9250  205.6570  149.1260 C   0  0  0  0  0  0  0  0  0  0  0  0
  161.4560  209.1040  152.5000 C   0  0  1  0  0  3  0  0  0  0  0  0
  161.3690  207.6160  150.5400 C   0  0  0  0  0  0  0  0  0  0  0  0
  161.0510  211.4470  150.8840 C   0  0  0  0  0  2  0  0  0  0  0  0
  160.4540  204.9550  150.2870 N   0  0  0  0  0  0  0  0  0  0  0  0
  159.5820  209.8920  153.9690 O   0  0  0  0  0  1  0  0  0  0  0  0
  160.3650  210.0880  152.8350 C   0  0  0  0  0  0  0  0  0  0  0  0
  161.3600  210.1800  150.0810 C   0  0  2  0  0  3  0  0  0  0  0  0
  162.0790  207.0560  153.8500 C   0  0  0  0  0  2  0  0  0  0  0  0
  159.9630  208.3410  157.2610 C   0  0  0  0  0  2  0  0  0  0  0  0
  161.6140  207.1130  155.2290 N   0  0  0  0  0  0  0  0  0  0  0  0
  160.1600  206.9570  155.1970 C   0  0  0  0  0  2  0  0  0  0  0  0
  159.6030  207.0050  156.6180 C   0  0  0  0  0  2  0  0  0  0  0  0
  161.4670  208.5830  157.1790 C   0  0  0  0  0  2  0  0  0  0  0  0
  161.9260  208.4510  155.7290 C   0  0  0  0  0  2  0  0  0  0  0  0
  1 21  1  1  0  0  0
  2  1  1  0  0  0  0
  3  9  1  6  0  0  0
  3 14  1  0  0  0  0
  4 13  2  0  0  0  0
  6  2  1  0  0  0  0
  8 10  1  0  0  0  0
  8 19  2  0  0  0  0
 11  7  1  6  0  0  0
 11 15  1  0  0  0  0
 12  5  1  6  0  0  0
 12  7  1  0  0  0  0
 12  4  1  0  0  0  0
 13 11  1  0  0  0  0
 13 17  1  0  0  0  0
 14 19  1  6  0  0  0
 14  1  1  0  0  0  0
 15  3  1  0  0  0  0
 15  2  2  0  0  0  0
 16  8  1  0  0  0  0
 17  6  2  0  0  0  0
 19 18  1  0  0  0  0
 20  9  1  1  0  0  0
 20 16  1  0  0  0  0
 20  3  1  0  0  0  0
 21 23  1  0  0  0  0
 23 27  1  0  0  0  0
 24 23  1  0  0  0  0
 24 25  1  0  0  0  0
 25 22  1  0  0  0  0
 26 22  1  0  0  0  0
 27 26  1  0  0  0  0
M  END
>  <MODEL>
8

>  <REMARK>
 VINA RESULT:      -4.3      2.791      4.882
  Name = 
  2 active torsions:
  status: ('A' for Active; 'I' for Inactive)
    1  A    between atoms: C_1  and  C_15
    2  A    between atoms: N_9  and  C_15
                            x       y       z     vdW  Elec       q    Type
                         _______ _______ _______ _____ _____    ______ ____

>  <TORSDO>
F 2

$$$$
=
 OpenBabel11052423193D

 27 32  0  0  1  0  0  0  0  0999 V2000
  160.3050  210.8710  153.5350 C   0  0  2  0  0  3  0  0  0  0  0  0
  160.7030  211.1570  152.1130 C   0  0  0  0  0  0  0  0  0  0  0  0
  159.3750  212.9060  152.6900 C   0  0  2  0  0  0  0  0  0  0  0  0
  162.0050  212.4380  148.5770 N   0  0  0  0  0  0  0  0  0  0  0  0
  160.6970  213.8630  147.1030 C   0  0  0  0  0  1  0  0  0  0  0  0
  161.4540  210.2260  151.2450 C   0  0  0  0  0  3  0  0  0  0  0  0
  160.6620  214.3690  149.7980 S   0  0  0  0  0  0  0  0  0  0  0  0
  156.9060  212.2850  153.9580 C   0  0  0  0  0  0  0  0  0  0  0  0
  159.4080  214.3990  152.8920 C   0  0  0  0  0  2  0  0  0  0  0  0
  155.6270  211.8220  154.2440 O   0  0  0  0  0  1  0  0  0  0  0  0
  160.2710  212.6350  150.1790 C   0  0  1  0  0  3  0  0  0  0  0  0
  161.5940  213.8090  148.3270 C   0  0  1  0  0  3  0  0  0  0  0  0
  161.3440  211.8440  149.5090 C   0  0  0  0  0  0  0  0  0  0  0  0
  159.3640  212.0240  153.9340 C   0  0  1  0  0  3  0  0  0  0  0  0
  160.2420  212.3140  151.6520 C   0  0  0  0  0  0  0  0  0  0  0  0
  157.0690  213.6670  153.3860 C   0  0  0  0  0  2  0  0  0  0  0  0
  161.7600  210.5720  150.0280 N   0  0  0  0  0  0  0  0  0  0  0  0
  157.7980  210.2720  154.8130 O   0  0  0  0  0  1  0  0  0  0  0  0
  157.9730  211.5210  154.2240 C   0  0  0  0  0  0  0  0  0  0  0  0
  158.1550  213.7300  152.3070 C   0  0  2  0  0  3  0  0  0  0  0  0
  161.5230  210.8120  154.4590 C   0  0  0  0  0  2  0  0  0  0  0  0
  160.2400  207.3400  156.4750 C   0  0  0  0  0  2  0  0  0  0  0  0
  161.5850  209.5440  155.1730 N   0  0  0  0  0  0  0  0  0  0  0  0
  160.8230  208.5730  154.3890 C   0  0  0  0  0  2  0  0  0  0  0  0
  160.8490  207.2130  155.0810 C   0  0  0  0  0  2  0  0  0  0  0  0
  160.9360  208.4470  157.2610 C   0  0  0  0  0  2  0  0  0  0  0  0
  160.9060  209.7410  156.4520 C   0  0  0  0  0  2  0  0  0  0  0  0
  1 14  1  0  0  0  0
  1 21  1  1  0  0  0
  2  1  1  0  0  0  0
  3  9  1  1  0  0  0
  3 14  1  0  0  0  0
  4 13  2  0  0  0  0
  6  2  1  0  0  0  0
  7 11  1  0  0  0  0
  8 19  2  0  0  0  0
  8 10  1  0  0  0  0
 11 13  1  6  0  0  0
 11 15  1  0  0  0  0
 12  5  1  6  0  0  0
 12  4  1  0  0  0  0
 12  7  1  0  0  0  0
 13 17  1  0  0  0  0
 14 19  1  6  0  0  0
 15  2  2  0  0  0  0
 15  3  1  0  0  0  0
 16  8  1  0  0  0  0
 17  6  2  0  0  0  0
 19 18  1  0  0  0  0
 20  3  1  0  0  0  0
 20  9  1  1  0  0  0
 20 16  1  0  0  0  0
 21 23  1  0  0  0  0
 22 26  1  0  0  0  0
 23 27  1  0  0  0  0
 24 25  1  0  0  0  0
 24 23  1  0  0  0  0
 25 22  1  0  0  0  0
 27 26  1  0  0  0  0
M  END
>  <MODEL>
9

>  <REMARK>
 VINA RESULT:      -4.2      3.476      6.375
  Name = 
  2 active torsions:
  status: ('A' for Active; 'I' for Inactive)
    1  A    between atoms: C_1  and  C_15
    2  A    between atoms: N_9  and  C_15
                            x       y       z     vdW  Elec       q    Type
                         _______ _______ _______ _____ _____    ______ ____

>  <TORSDO>
F 2

$$$$
