=
 OpenBabel11052423073D

 27 31  0  0  1  0  0  0  0  0999 V2000
  162.0150  209.6070  151.3250 C   0  0  0  0  0  2  0  0  0  0  0  0
  160.8310  209.5630  153.5180 C   0  0  0  0  0  0  0  0  0  0  0  0
  159.7020  211.5200  152.2340 C   0  0  0  0  0  2  0  0  0  0  0  0
  160.0740  211.5730  156.9690 N   0  0  0  0  0  0  0  0  0  0  0  0
  159.1350  213.7150  157.2610 O   0  0  0  0  0  0  0  0  0  0  0  0
  161.1380  208.9750  154.6510 N   0  0  0  0  0  0  0  0  0  0  0  0
  159.3440  212.8370  154.9950 C   0  0  2  0  0  3  0  0  0  0  0  0
  161.3030  213.2970  149.2610 C   0  0  0  0  0  2  0  0  0  0  0  0
  157.8690  212.8250  154.6260 C   0  0  0  0  0  1  0  0  0  0  0  0
  161.5660  212.0570  148.4260 C   0  0  1  0  0  3  0  0  0  0  0  0
  159.9670  211.5190  154.6810 C   0  0  0  0  0  0  0  0  0  0  0  0
  161.1510  208.9200  152.2740 N   0  0  0  0  0  0  0  0  0  0  0  0
  159.4860  212.7840  156.4900 C   0  0  0  0  0  0  0  0  0  0  0  0
  160.3340  210.8830  155.9140 C   0  0  0  0  0  0  0  0  0  0  0  0
  161.2480  210.6060  150.4650 C   0  0  2  0  0  3  0  0  0  0  0  0
  160.1940  210.9140  153.5090 C   0  0  0  0  0  0  0  0  0  0  0  0
  160.3050  212.9590  150.3570 C   0  0  0  0  0  2  0  0  0  0  0  0
  160.9080  209.5820  155.9030 N   0  0  0  0  0  2  0  0  0  0  0  0
  162.4530  212.3690  147.3950 O   0  0  0  0  0  1  0  0  0  0  0  0
  162.1780  210.9800  149.3090 C   0  0  0  0  0  2  0  0  0  0  0  0
  160.8350  211.8550  151.2750 C   0  0  1  0  0  3  0  0  0  0  0  0
  161.5830  204.7640  151.3370 C   0  0  0  0  0  2  0  0  0  0  0  0
  160.8440  207.5140  152.0180 C   0  0  0  0  0  3  0  0  0  0  0  0
  161.1910  207.1180  150.5810 C   0  0  0  0  0  2  0  0  0  0  0  0
  160.8440  205.6520  150.3400 C   0  0  0  0  0  2  0  0  0  0  0  0
  161.2060  205.1490  152.7640 C   0  0  0  0  0  2  0  0  0  0  0  0
  161.5570  206.6110  153.0270 C   0  0  0  0  0  2  0  0  0  0  0  0
  1 12  1  0  0  0  0
  2  6  2  0  0  0  0
  3 16  1  0  0  0  0
  6 18  1  0  0  0  0
  7  9  1  1  0  0  0
  7 13  1  0  0  0  0
  8 17  1  0  0  0  0
 10 19  1  6  0  0  0
 10  8  1  0  0  0  0
 10 20  1  0  0  0  0
 11  7  1  0  0  0  0
 11 14  1  0  0  0  0
 12  2  1  0  0  0  0
 13  4  1  0  0  0  0
 13  5  2  0  0  0  0
 14  4  2  0  0  0  0
 15 20  1  6  0  0  0
 15 21  1  0  0  0  0
 15  1  1  0  0  0  0
 16  2  1  0  0  0  0
 16 11  2  0  0  0  0
 18 14  1  0  0  0  0
 21 17  1  6  0  0  0
 21  3  1  0  0  0  0
 22 26  1  0  0  0  0
 23 12  1  0  0  0  0
 23 27  1  0  0  0  0
 24 23  1  0  0  0  0
 25 24  1  0  0  0  0
 25 22  1  0  0  0  0
 26 27  1  0  0  0  0
M  END
>  <MODEL>
1

>  <REMARK>
 VINA RESULT:      -6.7      0.000      0.000
  Name = 
  1 active torsions:
  status: ('A' for Active; 'I' for Inactive)
    1  A    between atoms: C_9  and  N_15
                            x       y       z     vdW  Elec       q    Type
                         _______ _______ _______ _____ _____    ______ ____

>  <TORSDO>
F 1

$$$$
=
 OpenBabel11052423073D

 27 31  0  0  1  0  0  0  0  0999 V2000
  162.3350  211.0100  150.0120 C   0  0  0  0  0  2  0  0  0  0  0  0
  161.4880  210.4090  152.2780 C   0  0  0  0  0  0  0  0  0  0  0  0
  159.6740  212.0140  151.3350 C   0  0  0  0  0  2  0  0  0  0  0  0
  160.5680  211.7780  155.9940 N   0  0  0  0  0  0  0  0  0  0  0  0
  159.0640  213.4830  156.6140 O   0  0  0  0  0  0  0  0  0  0  0  0
  162.0900  209.8540  153.3040 N   0  0  0  0  0  0  0  0  0  0  0  0
  159.2610  212.9120  154.2510 C   0  0  2  0  0  3  0  0  0  0  0  0
  160.2970  214.4510  148.4640 C   0  0  0  0  0  2  0  0  0  0  0  0
  157.8270  212.4680  154.0110 C   0  0  0  0  0  1  0  0  0  0  0  0
  160.8250  213.4320  147.4700 C   0  0  1  0  0  3  0  0  0  0  0  0
  160.2140  211.8880  153.7330 C   0  0  0  0  0  0  0  0  0  0  0  0
  161.8390  210.0090  150.9440 N   0  0  0  0  0  0  0  0  0  0  0  0
  159.5880  212.7790  155.7120 C   0  0  0  0  0  0  0  0  0  0  0  0
  160.8990  211.2970  154.8470 C   0  0  0  0  0  0  0  0  0  0  0  0
  161.2050  211.7870  149.3440 C   0  0  2  0  0  3  0  0  0  0  0  0
  160.4740  211.4880  152.4830 C   0  0  0  0  0  0  0  0  0  0  0  0
  159.5860  213.7240  149.5950 C   0  0  0  0  0  2  0  0  0  0  0  0
  161.8360  210.2490  154.6340 N   0  0  0  0  0  2  0  0  0  0  0  0
  161.4460  214.0940  146.4120 O   0  0  0  0  0  1  0  0  0  0  0  0
  161.8350  212.5310  148.1650 C   0  0  0  0  0  2  0  0  0  0  0  0
  160.5300  212.7680  150.3280 C   0  0  1  0  0  3  0  0  0  0  0  0
  160.9450  206.1730  149.2610 C   0  0  0  0  0  2  0  0  0  0  0  0
  161.9450  208.6040  150.5520 C   0  0  0  0  0  3  0  0  0  0  0  0
  160.8450  207.7580  151.1970 C   0  0  0  0  0  2  0  0  0  0  0  0
  160.9910  206.2970  150.7820 C   0  0  0  0  0  2  0  0  0  0  0  0
  162.0640  206.9960  148.6320 C   0  0  0  0  0  2  0  0  0  0  0  0
  161.9270  208.4640  149.0280 C   0  0  0  0  0  2  0  0  0  0  0  0
  1 12  1  0  0  0  0
  2 16  1  0  0  0  0
  2  6  2  0  0  0  0
  3 16  1  0  0  0  0
  6 18  1  0  0  0  0
  7  9  1  1  0  0  0
  7 13  1  0  0  0  0
  8 17  1  0  0  0  0
 10 19  1  6  0  0  0
 10 20  1  0  0  0  0
 10  8  1  0  0  0  0
 11  7  1  0  0  0  0
 11 14  1  0  0  0  0
 12  2  1  0  0  0  0
 13  4  1  0  0  0  0
 13  5  2  0  0  0  0
 14  4  2  0  0  0  0
 15 20  1  6  0  0  0
 15  1  1  0  0  0  0
 15 21  1  0  0  0  0
 16 11  2  0  0  0  0
 18 14  1  0  0  0  0
 21 17  1  6  0  0  0
 21  3  1  0  0  0  0
 22 25  1  0  0  0  0
 23 12  1  0  0  0  0
 23 24  1  0  0  0  0
 25 24  1  0  0  0  0
 26 27  1  0  0  0  0
 26 22  1  0  0  0  0
 27 23  1  0  0  0  0
M  END
>  <MODEL>
2

>  <REMARK>
 VINA RESULT:      -6.5      1.309      1.923
  Name = 
  1 active torsions:
  status: ('A' for Active; 'I' for Inactive)
    1  A    between atoms: C_9  and  N_15
                            x       y       z     vdW  Elec       q    Type
                         _______ _______ _______ _____ _____    ______ ____

>  <TORSDO>
F 1

$$$$
=
 OpenBabel11052423073D

 27 31  0  0  1  0  0  0  0  0999 V2000
  162.3060  208.2830  149.9560 C   0  0  0  0  0  2  0  0  0  0  0  0
  161.3270  207.5720  152.1360 C   0  0  0  0  0  0  0  0  0  0  0  0
  160.3580  209.9540  151.7580 C   0  0  0  0  0  2  0  0  0  0  0  0
  161.1540  208.2860  156.1340 N   0  0  0  0  0  0  0  0  0  0  0  0
  160.5370  210.2620  157.2610 O   0  0  0  0  0  0  0  0  0  0  0  0
  161.6530  206.5940  152.9490 N   0  0  0  0  0  0  0  0  0  0  0  0
  160.4250  210.2310  154.8250 C   0  0  2  0  0  3  0  0  0  0  0  0
  161.9090  212.5150  149.3920 C   0  0  0  0  0  2  0  0  0  0  0  0
  158.9350  210.4880  154.6690 C   0  0  0  0  0  1  0  0  0  0  0  0
  161.9310  211.6330  148.1560 C   0  0  1  0  0  3  0  0  0  0  0  0
  160.8380  209.0590  154.0000 C   0  0  0  0  0  0  0  0  0  0  0  0
  161.4470  207.3870  150.7170 N   0  0  0  0  0  0  0  0  0  0  0  0
  160.6920  209.6380  156.1790 C   0  0  0  0  0  0  0  0  0  0  0  0
  161.2250  207.9950  154.8820 C   0  0  0  0  0  0  0  0  0  0  0  0
  161.6060  209.5890  149.5980 C   0  0  2  0  0  3  0  0  0  0  0  0
  160.8770  208.8920  152.6730 C   0  0  0  0  0  0  0  0  0  0  0  0
  160.9770  211.9030  150.4260 C   0  0  0  0  0  2  0  0  0  0  0  0
  161.6180  206.7360  154.3520 N   0  0  0  0  0  2  0  0  0  0  0  0
  162.7550  212.2070  147.1890 O   0  0  0  0  0  1  0  0  0  0  0  0
  162.4700  210.2610  148.5290 C   0  0  0  0  0  2  0  0  0  0  0  0
  161.4350  210.5010  150.8330 C   0  0  1  0  0  3  0  0  0  0  0  0
  161.2590  203.6230  148.6810 C   0  0  0  0  0  2  0  0  0  0  0  0
  160.9340  206.1990  150.0370 C   0  0  0  0  0  3  0  0  0  0  0  0
  161.4360  206.1190  148.5930 C   0  0  0  0  0  2  0  0  0  0  0  0
  160.8710  204.8790  147.9060 C   0  0  0  0  0  2  0  0  0  0  0  0
  160.7290  203.7010  150.1090 C   0  0  0  0  0  2  0  0  0  0  0  0
  161.2920  204.9310  150.8160 C   0  0  0  0  0  2  0  0  0  0  0  0
  1 12  1  0  0  0  0
  2 16  1  0  0  0  0
  2  6  2  0  0  0  0
  3 16  1  0  0  0  0
  4 13  1  0  0  0  0
  6 18  1  0  0  0  0
  7  9  1  1  0  0  0
  7 13  1  0  0  0  0
  8 17  1  0  0  0  0
 10 19  1  6  0  0  0
 10 20  1  0  0  0  0
 10  8  1  0  0  0  0
 11  7  1  0  0  0  0
 11 14  1  0  0  0  0
 12  2  1  0  0  0  0
 13  5  2  0  0  0  0
 14  4  2  0  0  0  0
 15 20  1  6  0  0  0
 15  1  1  0  0  0  0
 15 21  1  0  0  0  0
 16 11  2  0  0  0  0
 18 14  1  0  0  0  0
 21 17  1  6  0  0  0
 21  3  1  0  0  0  0
 22 26  1  0  0  0  0
 23 12  1  0  0  0  0
 23 27  1  0  0  0  0
 24 23  1  0  0  0  0
 25 24  1  0  0  0  0
 25 22  1  0  0  0  0
 26 27  1  0  0  0  0
M  END
>  <MODEL>
3

>  <REMARK>
 VINA RESULT:      -6.4      1.732      2.467
  Name = 
  1 active torsions:
  status: ('A' for Active; 'I' for Inactive)
    1  A    between atoms: C_9  and  N_15
                            x       y       z     vdW  Elec       q    Type
                         _______ _______ _______ _____ _____    ______ ____

>  <TORSDO>
F 1

$$$$
=
 OpenBabel11052423073D

 27 31  0  0  1  0  0  0  0  0999 V2000
  162.5450  210.0810  151.3510 C   0  0  0  0  0  2  0  0  0  0  0  0
  161.8920  208.5860  149.4660 C   0  0  0  0  0  0  0  0  0  0  0  0
  160.6040  207.6230  151.5070 C   0  0  0  0  0  2  0  0  0  0  0  0
  162.0480  204.8140  147.9590 N   0  0  0  0  0  0  0  0  0  0  0  0
  161.3130  202.7980  148.9340 O   0  0  0  0  0  0  0  0  0  0  0  0
  162.4180  208.4220  148.2740 N   0  0  0  0  0  0  0  0  0  0  0  0
  160.9540  204.8770  150.1570 C   0  0  2  0  0  3  0  0  0  0  0  0
  161.5740  208.3100  155.1330 C   0  0  0  0  0  2  0  0  0  0  0  0
  159.4350  204.8390  150.2160 C   0  0  0  0  0  1  0  0  0  0  0  0
  161.5750  209.8250  155.0390 C   0  0  1  0  0  3  0  0  0  0  0  0
  161.4200  206.2070  149.6670 C   0  0  0  0  0  0  0  0  0  0  0  0
  161.8860  209.8910  150.0670 N   0  0  0  0  0  0  0  0  0  0  0  0
  161.4310  204.0490  148.9970 C   0  0  0  0  0  0  0  0  0  0  0  0
  162.0250  206.0310  148.3770 C   0  0  0  0  0  0  0  0  0  0  0  0
  161.6560  209.6770  152.5220 C   0  0  2  0  0  3  0  0  0  0  0  0
  161.3410  207.4220  150.2220 C   0  0  0  0  0  0  0  0  0  0  0  0
  160.8370  207.7350  153.9340 C   0  0  0  0  0  2  0  0  0  0  0  0
  162.5120  207.1570  147.6580 N   0  0  0  0  0  2  0  0  0  0  0  0
  162.2180  210.3600  156.1540 O   0  0  0  0  0  1  0  0  0  0  0  0
  162.3160  210.2480  153.7790 C   0  0  0  0  0  2  0  0  0  0  0  0
  161.5030  208.1430  152.6180 C   0  0  1  0  0  3  0  0  0  0  0  0
  161.5670  213.9450  148.7230 C   0  0  0  0  0  2  0  0  0  0  0  0
  161.4550  211.0840  149.3410 C   0  0  0  0  0  3  0  0  0  0  0  0
  160.8490  212.1250  150.2850 C   0  0  0  0  0  2  0  0  0  0  0  0
  160.3940  213.3500  149.4970 C   0  0  0  0  0  2  0  0  0  0  0  0
  162.1440  212.9080  147.7650 C   0  0  0  0  0  2  0  0  0  0  0  0
  162.6140  211.6780  148.5370 C   0  0  0  0  0  2  0  0  0  0  0  0
  2 12  1  0  0  0  0
  2 16  1  0  0  0  0
  4 14  2  0  0  0  0
  4 13  1  0  0  0  0
  5 13  2  0  0  0  0
  6  2  2  0  0  0  0
  7  9  1  6  0  0  0
 10  8  1  0  0  0  0
 10 19  1  1  0  0  0
 11  7  1  0  0  0  0
 11 16  2  0  0  0  0
 12  1  1  0  0  0  0
 13  7  1  0  0  0  0
 14 11  1  0  0  0  0
 15  1  1  6  0  0  0
 15 21  1  0  0  0  0
 15 20  1  0  0  0  0
 16  3  1  0  0  0  0
 17  8  1  0  0  0  0
 18  6  1  0  0  0  0
 18 14  1  0  0  0  0
 20 10  1  0  0  0  0
 21  3  1  6  0  0  0
 21 17  1  0  0  0  0
 22 25  1  0  0  0  0
 23 12  1  0  0  0  0
 23 24  1  0  0  0  0
 25 24  1  0  0  0  0
 26 27  1  0  0  0  0
 26 22  1  0  0  0  0
 27 23  1  0  0  0  0
M  END
>  <MODEL>
4

>  <REMARK>
 VINA RESULT:      -5.9      3.402      7.602
  Name = 
  1 active torsions:
  status: ('A' for Active; 'I' for Inactive)
    1  A    between atoms: C_9  and  N_15
                            x       y       z     vdW  Elec       q    Type
                         _______ _______ _______ _____ _____    ______ ____

>  <TORSDO>
F 1

$$$$
=
 OpenBabel11052423073D

 27 31  0  0  1  0  0  0  0  0999 V2000
  161.6850  210.3290  153.1880 C   0  0  0  0  0  2  0  0  0  0  0  0
  161.4510  210.0520  150.7220 C   0  0  0  0  0  0  0  0  0  0  0  0
  160.5300  207.8250  151.6950 C   0  0  0  0  0  2  0  0  0  0  0  0
  162.6480  207.9630  147.4460 N   0  0  0  0  0  0  0  0  0  0  0  0
  162.5370  205.6420  147.0470 O   0  0  0  0  0  0  0  0  0  0  0  0
  161.9800  210.7230  149.7250 N   0  0  0  0  0  0  0  0  0  0  0  0
  161.6230  206.5060  149.1360 C   0  0  2  0  0  3  0  0  0  0  0  0
  161.3320  206.5630  155.2060 C   0  0  0  0  0  2  0  0  0  0  0  0
  160.1800  206.0690  148.9430 C   0  0  0  0  0  1  0  0  0  0  0  0
  160.8990  207.8120  155.9540 C   0  0  1  0  0  3  0  0  0  0  0  0
  161.6810  207.9450  149.5230 C   0  0  0  0  0  0  0  0  0  0  0  0
  161.0840  210.7400  151.9280 N   0  0  0  0  0  0  0  0  0  0  0  0
  162.2940  206.6230  147.7970 C   0  0  0  0  0  0  0  0  0  0  0  0
  162.2860  208.6820  148.4510 C   0  0  0  0  0  0  0  0  0  0  0  0
  160.9710  209.1320  153.8050 C   0  0  2  0  0  3  0  0  0  0  0  0
  161.2700  208.5710  150.6320 C   0  0  0  0  0  0  0  0  0  0  0  0
  160.7670  206.6030  153.7950 C   0  0  0  0  0  2  0  0  0  0  0  0
  162.4190  210.0940  148.5410 N   0  0  0  0  0  2  0  0  0  0  0  0
  161.3830  207.7630  157.2600 O   0  0  0  0  0  1  0  0  0  0  0  0
  161.4640  209.0370  155.2510 C   0  0  0  0  0  2  0  0  0  0  0  0
  161.2640  207.8310  153.0270 C   0  0  1  0  0  3  0  0  0  0  0  0
  158.0740  213.6590  151.0520 C   0  0  0  0  0  2  0  0  0  0  0  0
  160.3170  211.9850  151.9150 C   0  0  0  0  0  3  0  0  0  0  0  0
  160.2830  212.6070  150.5180 C   0  0  0  0  0  2  0  0  0  0  0  0
  159.4900  213.9110  150.5410 C   0  0  0  0  0  2  0  0  0  0  0  0
  158.1210  213.0660  152.4570 C   0  0  0  0  0  2  0  0  0  0  0  0
  158.9020  211.7550  152.4510 C   0  0  0  0  0  2  0  0  0  0  0  0
  2 12  1  0  0  0  0
  4 13  1  0  0  0  0
  4 14  2  0  0  0  0
  5 13  2  0  0  0  0
  6  2  2  0  0  0  0
  7  9  1  6  0  0  0
  7 11  1  0  0  0  0
  8 10  1  0  0  0  0
 10 19  1  1  0  0  0
 11 16  2  0  0  0  0
 12  1  1  0  0  0  0
 13  7  1  0  0  0  0
 14 18  1  0  0  0  0
 14 11  1  0  0  0  0
 15  1  1  6  0  0  0
 15 20  1  0  0  0  0
 16  2  1  0  0  0  0
 16  3  1  0  0  0  0
 17  8  1  0  0  0  0
 18  6  1  0  0  0  0
 20 10  1  0  0  0  0
 21  3  1  6  0  0  0
 21 17  1  0  0  0  0
 21 15  1  0  0  0  0
 22 26  1  0  0  0  0
 23 12  1  0  0  0  0
 23 27  1  0  0  0  0
 24 25  1  0  0  0  0
 24 23  1  0  0  0  0
 25 22  1  0  0  0  0
 27 26  1  0  0  0  0
M  END
>  <MODEL>
5

>  <REMARK>
 VINA RESULT:      -5.7      2.866      7.533
  Name = 
  1 active torsions:
  status: ('A' for Active; 'I' for Inactive)
    1  A    between atoms: C_9  and  N_15
                            x       y       z     vdW  Elec       q    Type
                         _______ _______ _______ _____ _____    ______ ____

>  <TORSDO>
F 1

$$$$
=
 OpenBabel11052423073D

 27 31  0  0  1  0  0  0  0  0999 V2000
  160.9590  213.6690  141.0020 C   0  0  0  0  0  2  0  0  0  0  0  0
  158.4880  213.3580  141.1130 C   0  0  0  0  0  0  0  0  0  0  0  0
  159.3250  211.2770  139.8010 C   0  0  0  0  0  2  0  0  0  0  0  0
  155.0300  213.1350  138.9870 N   0  0  0  0  0  0  0  0  0  0  0  0
  154.4650  211.6730  137.2270 O   0  0  0  0  0  0  0  0  0  0  0  0
  157.5260  214.1990  141.4150 N   0  0  0  0  0  0  0  0  0  0  0  0
  156.6410  211.4150  138.2970 C   0  0  2  0  0  3  0  0  0  0  0  0
  162.7050  211.1110  138.0370 C   0  0  0  0  0  2  0  0  0  0  0  0
  156.4640  209.9990  138.8190 C   0  0  0  0  0  1  0  0  0  0  0  0
  163.5560  211.4930  139.2350 C   0  0  1  0  0  3  0  0  0  0  0  0
  157.1310  212.3110  139.3840 C   0  0  0  0  0  0  0  0  0  0  0  0
  159.7530  213.4520  141.7870 N   0  0  0  0  0  0  0  0  0  0  0  0
  155.2930  212.0480  138.0980 C   0  0  0  0  0  0  0  0  0  0  0  0
  156.0960  213.2540  139.6990 C   0  0  0  0  0  0  0  0  0  0  0  0
  161.5100  212.3720  140.4190 C   0  0  2  0  0  3  0  0  0  0  0  0
  158.2960  212.3340  140.0430 C   0  0  0  0  0  0  0  0  0  0  0  0
  161.3200  210.7050  138.5160 C   0  0  0  0  0  2  0  0  0  0  0  0
  156.2850  214.1990  140.7450 N   0  0  0  0  0  2  0  0  0  0  0  0
  164.8390  211.8310  138.8060 O   0  0  0  0  0  1  0  0  0  0  0  0
  162.9270  212.6870  139.9360 C   0  0  0  0  0  2  0  0  0  0  0  0
  160.6290  211.8480  139.2640 C   0  0  1  0  0  3  0  0  0  0  0  0
  161.1460  213.0500  145.8180 C   0  0  0  0  0  2  0  0  0  0  0  0
  159.8570  213.5750  143.2400 C   0  0  0  0  0  3  0  0  0  0  0  0
  159.7320  212.2140  143.9280 C   0  0  0  0  0  2  0  0  0  0  0  0
  159.8290  212.3770  145.4420 C   0  0  0  0  0  2  0  0  0  0  0  0
  161.2450  214.4180  145.1500 C   0  0  0  0  0  2  0  0  0  0  0  0
  161.1610  214.2730  143.6330 C   0  0  0  0  0  2  0  0  0  0  0  0
  1 12  1  0  0  0  0
  2  6  2  0  0  0  0
  2 12  1  0  0  0  0
  3 16  1  0  0  0  0
  4 14  2  0  0  0  0
  5 13  2  0  0  0  0
  7  9  1  1  0  0  0
  7 11  1  0  0  0  0
  8 17  1  0  0  0  0
  8 10  1  0  0  0  0
 10 19  1  6  0  0  0
 10 20  1  0  0  0  0
 11 14  1  0  0  0  0
 11 16  2  0  0  0  0
 12 23  1  0  0  0  0
 13  7  1  0  0  0  0
 13  4  1  0  0  0  0
 14 18  1  0  0  0  0
 15 20  1  6  0  0  0
 15  1  1  0  0  0  0
 16  2  1  0  0  0  0
 18  6  1  0  0  0  0
 21 17  1  1  0  0  0
 21  3  1  0  0  0  0
 21 15  1  0  0  0  0
 23 27  1  0  0  0  0
 23 24  1  0  0  0  0
 24 25  1  0  0  0  0
 25 22  1  0  0  0  0
 26 22  1  0  0  0  0
 27 26  1  0  0  0  0
M  END
>  <MODEL>
6

>  <REMARK>
 VINA RESULT:      -5.3      9.703     13.481
  Name = 
  1 active torsions:
  status: ('A' for Active; 'I' for Inactive)
    1  A    between atoms: C_9  and  N_15
                            x       y       z     vdW  Elec       q    Type
                         _______ _______ _______ _____ _____    ______ ____

>  <TORSDO>
F 1

$$$$
=
 OpenBabel11052423073D

 27 31  0  0  1  0  0  0  0  0999 V2000
  161.3030  211.1880  139.7330 C   0  0  0  0  0  2  0  0  0  0  0  0
  159.2500  212.4540  140.3620 C   0  0  0  0  0  0  0  0  0  0  0  0
  158.3380  210.2550  139.3180 C   0  0  0  0  0  2  0  0  0  0  0  0
  155.9050  214.3230  139.0010 N   0  0  0  0  0  0  0  0  0  0  0  0
  154.1590  213.4570  137.6760 O   0  0  0  0  0  0  0  0  0  0  0  0
  159.0790  213.7160  140.6800 N   0  0  0  0  0  0  0  0  0  0  0  0
  155.9620  211.9570  138.3470 C   0  0  2  0  0  3  0  0  0  0  0  0
  160.3820  208.0060  137.0110 C   0  0  0  0  0  2  0  0  0  0  0  0
  155.1360  210.9600  139.1430 C   0  0  0  0  0  1  0  0  0  0  0  0
  161.5710  207.8250  137.9370 C   0  0  1  0  0  3  0  0  0  0  0  0
  157.1450  212.4000  139.1400 C   0  0  0  0  0  0  0  0  0  0  0  0
  160.4530  211.7770  140.7570 N   0  0  0  0  0  0  0  0  0  0  0  0
  155.2420  213.2750  138.2920 C   0  0  0  0  0  0  0  0  0  0  0  0
  156.9810  213.7880  139.4660 C   0  0  0  0  0  0  0  0  0  0  0  0
  160.8190  209.8070  139.3040 C   0  0  2  0  0  3  0  0  0  0  0  0
  158.2260  211.7270  139.5520 C   0  0  0  0  0  0  0  0  0  0  0  0
  159.2050  208.5450  137.8080 C   0  0  0  0  0  2  0  0  0  0  0  0
  157.9490  214.4530  140.2660 N   0  0  0  0  0  2  0  0  0  0  0  0
  162.6440  207.2960  137.2200 O   0  0  0  0  0  1  0  0  0  0  0  0
  161.9670  209.1760  138.5130 C   0  0  0  0  0  2  0  0  0  0  0  0
  159.5340  209.8940  138.4510 C   0  0  1  0  0  3  0  0  0  0  0  0
  161.5290  213.2610  144.6280 C   0  0  0  0  0  2  0  0  0  0  0  0
  160.9840  211.8560  142.1170 C   0  0  0  0  0  3  0  0  0  0  0  0
  162.1070  212.8900  142.2200 C   0  0  0  0  0  2  0  0  0  0  0  0
  162.6510  212.9370  143.6450 C   0  0  0  0  0  2  0  0  0  0  0  0
  160.4300  212.2080  144.5360 C   0  0  0  0  0  2  0  0  0  0  0  0
  159.8660  212.1540  143.1190 C   0  0  0  0  0  2  0  0  0  0  0  0
  1 12  1  0  0  0  0
  2  6  2  0  0  0  0
  2 12  1  0  0  0  0
  3 16  1  0  0  0  0
  4 14  2  0  0  0  0
  5 13  2  0  0  0  0
  7 11  1  0  0  0  0
  7  9  1  1  0  0  0
  8 17  1  0  0  0  0
  8 10  1  0  0  0  0
 10 19  1  6  0  0  0
 10 20  1  0  0  0  0
 11 14  1  0  0  0  0
 11 16  2  0  0  0  0
 12 23  1  0  0  0  0
 13  7  1  0  0  0  0
 13  4  1  0  0  0  0
 14 18  1  0  0  0  0
 15 20  1  6  0  0  0
 15  1  1  0  0  0  0
 16  2  1  0  0  0  0
 18  6  1  0  0  0  0
 21 17  1  1  0  0  0
 21 15  1  0  0  0  0
 21  3  1  0  0  0  0
 23 24  1  0  0  0  0
 23 27  1  0  0  0  0
 24 25  1  0  0  0  0
 25 22  1  0  0  0  0
 26 22  1  0  0  0  0
 27 26  1  0  0  0  0
M  END
>  <MODEL>
7

>  <REMARK>
 VINA RESULT:      -4.9     10.522     13.926
  Name = 
  1 active torsions:
  status: ('A' for Active; 'I' for Inactive)
    1  A    between atoms: C_9  and  N_15
                            x       y       z     vdW  Elec       q    Type
                         _______ _______ _______ _____ _____    ______ ____

>  <TORSDO>
F 1

$$$$
=
 OpenBabel11052423073D

 27 31  0  0  1  0  0  0  0  0999 V2000
  160.2760  210.0950  152.8310 C   0  0  0  0  0  2  0  0  0  0  0  0
  161.1590  207.8330  152.2660 C   0  0  0  0  0  0  0  0  0  0  0  0
  161.9440  209.3260  150.2890 C   0  0  0  0  0  2  0  0  0  0  0  0
  160.9920  204.7150  149.6630 N   0  0  0  0  0  0  0  0  0  0  0  0
  161.3580  204.7080  147.3350 O   0  0  0  0  0  0  0  0  0  0  0  0
  160.8620  206.6480  152.7460 N   0  0  0  0  0  0  0  0  0  0  0  0
  161.6410  206.8040  148.5480 C   0  0  2  0  0  3  0  0  0  0  0  0
  160.3470  212.6790  149.4100 C   0  0  0  0  0  2  0  0  0  0  0  0
  163.1110  207.0410  148.2410 C   0  0  0  0  0  1  0  0  0  0  0  0
  160.4870  213.3140  150.7820 C   0  0  1  0  0  3  0  0  0  0  0  0
  161.3890  206.9450  150.0110 C   0  0  0  0  0  0  0  0  0  0  0  0
  161.1540  208.9750  153.1370 N   0  0  0  0  0  0  0  0  0  0  0  0
  161.3330  205.3390  148.4230 C   0  0  0  0  0  0  0  0  0  0  0  0
  161.0330  205.6580  150.5380 C   0  0  0  0  0  0  0  0  0  0  0  0
  160.8850  211.0420  151.8030 C   0  0  2  0  0  3  0  0  0  0  0  0
  161.4560  208.0140  150.8130 C   0  0  0  0  0  0  0  0  0  0  0  0
  161.2540  211.4610  149.3280 C   0  0  0  0  0  2  0  0  0  0  0  0
  160.7880  205.5000  151.9300 N   0  0  0  0  0  2  0  0  0  0  0  0
  159.6860  214.4530  150.8520 O   0  0  0  0  0  1  0  0  0  0  0  0
  160.0430  212.3190  151.8430 C   0  0  0  0  0  2  0  0  0  0  0  0
  160.8910  210.4200  150.3890 C   0  0  1  0  0  3  0  0  0  0  0  0
  162.0310  209.7310  157.2610 C   0  0  0  0  0  2  0  0  0  0  0  0
  161.8130  208.9660  154.4420 C   0  0  0  0  0  3  0  0  0  0  0  0
  162.2640  210.3700  154.8510 C   0  0  0  0  0  2  0  0  0  0  0  0
  162.9620  210.3250  156.2080 C   0  0  0  0  0  2  0  0  0  0  0  0
  161.6120  208.3210  156.8560 C   0  0  0  0  0  2  0  0  0  0  0  0
  160.9020  208.3480  155.5050 C   0  0  0  0  0  2  0  0  0  0  0  0
  1 12  1  0  0  0  0
  2  6  2  0  0  0  0
  2 12  1  0  0  0  0
  3 21  1  0  0  0  0
  3 16  1  0  0  0  0
  4 14  2  0  0  0  0
  5 13  2  0  0  0  0
  7  9  1  1  0  0  0
  7 11  1  0  0  0  0
  8 10  1  0  0  0  0
 10 19  1  6  0  0  0
 10 20  1  0  0  0  0
 11 14  1  0  0  0  0
 11 16  2  0  0  0  0
 12 23  1  0  0  0  0
 13  7  1  0  0  0  0
 13  4  1  0  0  0  0
 14 18  1  0  0  0  0
 15 20  1  6  0  0  0
 15  1  1  0  0  0  0
 16  2  1  0  0  0  0
 17  8  1  0  0  0  0
 18  6  1  0  0  0  0
 21 17  1  6  0  0  0
 21 15  1  0  0  0  0
 23 24  1  0  0  0  0
 23 27  1  0  0  0  0
 24 25  1  0  0  0  0
 25 22  1  0  0  0  0
 26 22  1  0  0  0  0
 27 26  1  0  0  0  0
M  END
>  <MODEL>
8

>  <REMARK>
 VINA RESULT:      -4.7      2.631      6.180
  Name = 
  1 active torsions:
  status: ('A' for Active; 'I' for Inactive)
    1  A    between atoms: C_9  and  N_15
                            x       y       z     vdW  Elec       q    Type
                         _______ _______ _______ _____ _____    ______ ____

>  <TORSDO>
F 1

$$$$
=
 OpenBabel11052423073D

 27 31  0  0  1  0  0  0  0  0999 V2000
  160.7340  209.4330  150.8950 C   0  0  0  0  0  2  0  0  0  0  0  0
  159.9920  211.4340  152.1850 C   0  0  0  0  0  0  0  0  0  0  0  0
  160.9990  209.8590  153.9910 C   0  0  0  0  0  2  0  0  0  0  0  0
  157.4550  212.8470  155.0290 N   0  0  0  0  0  0  0  0  0  0  0  0
  157.1870  212.1370  157.2610 O   0  0  0  0  0  0  0  0  0  0  0  0
  159.1920  212.4210  151.8580 N   0  0  0  0  0  0  0  0  0  0  0  0
  158.9010  211.0620  155.8980 C   0  0  2  0  0  3  0  0  0  0  0  0
  161.4680  206.1040  153.4960 C   0  0  0  0  0  2  0  0  0  0  0  0
  160.1150  211.4460  156.7260 C   0  0  0  0  0  1  0  0  0  0  0  0
  162.2660  206.1870  152.2080 C   0  0  1  0  0  3  0  0  0  0  0  0
  159.1290  211.3890  154.4600 C   0  0  0  0  0  0  0  0  0  0  0  0
  160.8500  210.8540  151.1890 N   0  0  0  0  0  0  0  0  0  0  0  0
  157.7870  212.0370  156.1590 C   0  0  0  0  0  0  0  0  0  0  0  0
  158.2360  212.4480  154.0860 C   0  0  0  0  0  0  0  0  0  0  0  0
  161.5130  208.5730  151.8840 C   0  0  2  0  0  3  0  0  0  0  0  0
  159.9860  210.8750  153.5700 C   0  0  0  0  0  0  0  0  0  0  0  0
  161.4590  207.4690  154.1680 C   0  0  0  0  0  2  0  0  0  0  0  0
  158.2810  212.9900  152.7720 N   0  0  0  0  0  2  0  0  0  0  0  0
  162.3090  204.9310  151.6050 O   0  0  0  0  0  1  0  0  0  0  0  0
  161.5960  207.1760  151.2660 C   0  0  0  0  0  2  0  0  0  0  0  0
  160.8260  208.5330  153.2670 C   0  0  1  0  0  3  0  0  0  0  0  0
  162.3260  212.8160  147.6800 C   0  0  0  0  0  2  0  0  0  0  0  0
  161.6690  211.6680  150.2930 C   0  0  0  0  0  3  0  0  0  0  0  0
  162.3050  210.8190  149.1900 C   0  0  0  0  0  2  0  0  0  0  0  0
  163.1660  211.6930  148.2820 C   0  0  0  0  0  2  0  0  0  0  0  0
  161.7220  213.6730  148.7890 C   0  0  0  0  0  2  0  0  0  0  0  0
  160.8490  212.8160  149.7010 C   0  0  0  0  0  2  0  0  0  0  0  0
  1 12  1  0  0  0  0
  2 16  1  0  0  0  0
  4 13  1  0  0  0  0
  6  2  2  0  0  0  0
  6 18  1  0  0  0  0
  7 13  1  0  0  0  0
  7  9  1  1  0  0  0
  8 17  1  0  0  0  0
 10 19  1  6  0  0  0
 10  8  1  0  0  0  0
 11  7  1  0  0  0  0
 12  2  1  0  0  0  0
 13  5  2  0  0  0  0
 14 11  1  0  0  0  0
 14  4  2  0  0  0  0
 15  1  1  6  0  0  0
 15 21  1  0  0  0  0
 16  3  1  0  0  0  0
 16 11  2  0  0  0  0
 18 14  1  0  0  0  0
 20 15  1  0  0  0  0
 20 10  1  0  0  0  0
 21  3  1  1  0  0  0
 21 17  1  0  0  0  0
 22 25  1  0  0  0  0
 22 26  1  0  0  0  0
 23 12  1  0  0  0  0
 24 23  1  0  0  0  0
 25 24  1  0  0  0  0
 26 27  1  0  0  0  0
 27 23  1  0  0  0  0
M  END
>  <MODEL>
9

>  <REMARK>
 VINA RESULT:      -4.5      2.445      5.092
  Name = 
  1 active torsions:
  status: ('A' for Active; 'I' for Inactive)
    1  A    between atoms: C_9  and  N_15
                            x       y       z     vdW  Elec       q    Type
                         _______ _______ _______ _____ _____    ______ ____

>  <TORSDO>
F 1

$$$$
