=
 OpenBabel11052423133D

 27 31  0  0  1  0  0  0  0  0999 V2000
  160.4530  207.9640  152.7820 C   0  0  0  0  0  2  0  0  0  0  0  0
  160.9870  210.3320  152.2430 C   0  0  0  0  0  0  0  0  0  0  0  0
  162.2930  208.9650  150.5780 C   0  0  0  0  0  2  0  0  0  0  0  0
  160.6430  213.5120  149.6130 N   0  0  0  0  0  2  0  0  0  0  0  0
  161.0150  214.4530  147.5840 O   0  0  0  0  0  0  0  0  0  0  0  0
  160.3670  211.4890  152.6070 N   0  0  0  0  0  0  0  0  0  0  0  0
  161.9400  211.2240  148.7570 C   0  0  0  0  0  3  0  0  0  0  0  0
  161.1420  205.6890  149.3400 C   0  0  2  0  0  3  0  0  0  0  0  0
  161.8030  212.3160  147.8990 C   0  0  0  0  0  3  0  0  0  0  0  0
  161.8490  204.6790  148.4620 C   0  0  0  0  0  1  0  0  0  0  0  0
  161.4180  211.2820  150.0560 C   0  0  0  0  0  0  0  0  0  0  0  0
  161.0500  209.2400  153.1740 N   0  0  0  0  0  0  0  0  0  0  0  0
  161.1440  213.4630  148.3490 C   0  0  0  0  0  0  0  0  0  0  0  0
  160.7630  212.4610  150.4670 C   0  0  0  0  0  0  0  0  0  0  0  0
  161.3680  207.1850  151.8430 C   0  0  1  0  0  3  0  0  0  0  0  0
  161.5360  210.2050  150.9530 C   0  0  0  0  0  0  0  0  0  0  0  0
  162.0320  206.9060  149.5520 C   0  0  0  0  0  2  0  0  0  0  0  0
  160.2460  212.5440  151.7580 C   0  0  0  0  0  3  0  0  0  0  0  0
  160.7910  205.0630  150.6570 C   0  0  0  0  0  3  0  0  0  0  0  0
  160.8590  205.7610  151.7980 C   0  0  0  0  0  3  0  0  0  0  0  0
  161.4000  207.8160  150.5070 N   0  0  2  0  0  0  0  0  0  0  0  0
  162.6990  209.7130  157.0290 N   0  0  0  0  0  0  0  0  0  0  0  0
  161.6070  209.4070  154.4950 C   0  0  0  0  0  0  0  0  0  0  0  0
  162.3590  210.5470  154.8190 C   0  0  0  0  0  3  0  0  0  0  0  0
  162.8980  210.6840  156.0990 C   0  0  0  0  0  3  0  0  0  0  0  0
  161.9800  208.5940  156.7460 C   0  0  0  0  0  3  0  0  0  0  0  0
  161.4230  208.4220  155.4770 C   0  0  0  0  0  3  0  0  0  0  0  0
  1 12  1  0  0  0  0
  2  6  1  0  0  0  0
  2 12  1  0  0  0  0
  3 16  1  0  0  0  0
  4 14  1  0  0  0  0
  5 13  2  0  0  0  0
  7 11  1  0  0  0  0
  8 10  1  6  0  0  0
  8 17  1  0  0  0  0
  8 19  1  0  0  0  0
  9 13  1  0  0  0  0
  9  7  2  0  0  0  0
 11 14  2  0  0  0  0
 11 16  1  0  0  0  0
 12 23  1  0  0  0  0
 13  4  1  0  0  0  0
 14 18  1  0  0  0  0
 15 20  1  6  0  0  0
 15  1  1  0  0  0  0
 16  2  2  0  0  0  0
 18  6  2  0  0  0  0
 19 20  2  0  0  0  0
 21 17  1  6  0  0  0
 21  3  1  0  0  0  0
 21 15  1  0  0  0  0
 23 24  2  0  0  0  0
 23 27  1  0  0  0  0
 24 25  1  0  0  0  0
 25 22  2  0  0  0  0
 26 22  1  0  0  0  0
 27 26  2  0  0  0  0
M  END
>  <MODEL>
1

>  <REMARK>
 VINA RESULT:      -6.9      0.000      0.000
  Name = 
  1 active torsions:
  status: ('A' for Active; 'I' for Inactive)
    1  A    between atoms: C_9  and  N_15
                            x       y       z     vdW  Elec       q    Type
                         _______ _______ _______ _____ _____    ______ ____

>  <TORSDO>
F 1

$$$$
=
 OpenBabel11052423133D

 27 31  0  0  1  0  0  0  0  0999 V2000
  162.5970  208.8150  149.1440 C   0  0  0  0  0  2  0  0  0  0  0  0
  161.8790  209.5900  151.3950 C   0  0  0  0  0  0  0  0  0  0  0  0
  160.4630  207.5620  150.9120 C   0  0  0  0  0  2  0  0  0  0  0  0
  161.7450  208.9160  155.4790 N   0  0  0  0  0  2  0  0  0  0  0  0
  161.0910  207.6770  157.2610 O   0  0  0  0  0  0  0  0  0  0  0  0
  162.4740  210.4430  152.2740 N   0  0  0  0  0  0  0  0  0  0  0  0
  160.4820  207.1170  153.8000 C   0  0  0  0  0  3  0  0  0  0  0  0
  161.6360  204.7560  148.8300 C   0  0  2  0  0  3  0  0  0  0  0  0
  160.4600  206.9230  155.1820 C   0  0  0  0  0  3  0  0  0  0  0  0
  160.8870  203.5410  148.3240 C   0  0  0  0  0  1  0  0  0  0  0  0
  161.1470  208.2240  153.2580 C   0  0  0  0  0  0  0  0  0  0  0  0
  161.9820  209.8410  149.9840 N   0  0  0  0  0  0  0  0  0  0  0  0
  161.1040  207.8410  156.0140 C   0  0  0  0  0  0  0  0  0  0  0  0
  161.7810  209.1260  154.1360 C   0  0  0  0  0  0  0  0  0  0  0  0
  161.6220  207.6800  148.8460 C   0  0  1  0  0  3  0  0  0  0  0  0
  161.1910  208.4580  151.8710 C   0  0  0  0  0  0  0  0  0  0  0  0
  160.7130  205.6200  149.6780 C   0  0  0  0  0  2  0  0  0  0  0  0
  162.4400  210.2390  153.6170 C   0  0  0  0  0  3  0  0  0  0  0  0
  162.1700  205.5440  147.6720 C   0  0  0  0  0  3  0  0  0  0  0  0
  162.1980  206.8830  147.6970 C   0  0  0  0  0  3  0  0  0  0  0  0
  161.4020  206.8550  150.0510 N   0  0  2  0  0  0  0  0  0  0  0  0
  160.8100  213.5390  148.3220 N   0  0  0  0  0  0  0  0  0  0  0  0
  161.5740  211.1020  149.4120 C   0  0  0  0  0  0  0  0  0  0  0  0
  161.9440  211.4490  148.1030 C   0  0  0  0  0  3  0  0  0  0  0  0
  161.5480  212.6790  147.5720 C   0  0  0  0  0  3  0  0  0  0  0  0
  160.4400  213.2340  149.5950 C   0  0  0  0  0  3  0  0  0  0  0  0
  160.8150  212.0140  150.1600 C   0  0  0  0  0  3  0  0  0  0  0  0
  1 12  1  0  0  0  0
  2 16  2  0  0  0  0
  2  6  1  0  0  0  0
  3 16  1  0  0  0  0
  4 13  1  0  0  0  0
  6 18  2  0  0  0  0
  7  9  2  0  0  0  0
  8 10  1  6  0  0  0
  8 17  1  0  0  0  0
  9 13  1  0  0  0  0
 11  7  1  0  0  0  0
 11 14  2  0  0  0  0
 12  2  1  0  0  0  0
 13  5  2  0  0  0  0
 14  4  1  0  0  0  0
 15 20  1  6  0  0  0
 15  1  1  0  0  0  0
 15 21  1  0  0  0  0
 16 11  1  0  0  0  0
 18 14  1  0  0  0  0
 19 20  2  0  0  0  0
 19  8  1  0  0  0  0
 21 17  1  6  0  0  0
 21  3  1  0  0  0  0
 22 26  1  0  0  0  0
 23 12  1  0  0  0  0
 23 27  1  0  0  0  0
 24 23  2  0  0  0  0
 25 24  1  0  0  0  0
 25 22  2  0  0  0  0
 26 27  2  0  0  0  0
M  END
>  <MODEL>
2

>  <REMARK>
 VINA RESULT:      -6.1      2.631      5.879
  Name = 
  1 active torsions:
  status: ('A' for Active; 'I' for Inactive)
    1  A    between atoms: C_9  and  N_15
                            x       y       z     vdW  Elec       q    Type
                         _______ _______ _______ _____ _____    ______ ____

>  <TORSDO>
F 1

$$$$
=
 OpenBabel11052423133D

 27 31  0  0  1  0  0  0  0  0999 V2000
  160.3400  208.9850  153.2060 C   0  0  0  0  0  2  0  0  0  0  0  0
  160.8490  211.2280  152.2620 C   0  0  0  0  0  0  0  0  0  0  0  0
  162.2510  209.6170  150.9270 C   0  0  0  0  0  2  0  0  0  0  0  0
  160.5520  213.8640  149.0820 N   0  0  0  0  0  2  0  0  0  0  0  0
  160.9900  214.4290  146.9310 O   0  0  0  0  0  0  0  0  0  0  0  0
  160.1910  212.4150  152.3840 N   0  0  0  0  0  0  0  0  0  0  0  0
  161.9290  211.4950  148.7110 C   0  0  0  0  0  3  0  0  0  0  0  0
  161.2190  206.1400  150.2690 C   0  0  2  0  0  3  0  0  0  0  0  0
  161.8070  212.4080  147.6620 C   0  0  0  0  0  3  0  0  0  0  0  0
  161.9820  205.0050  149.6190 C   0  0  0  0  0  1  0  0  0  0  0  0
  161.3520  211.7750  149.9560 C   0  0  0  0  0  0  0  0  0  0  0  0
  160.8950  210.3270  153.3790 N   0  0  0  0  0  0  0  0  0  0  0  0
  161.1070  213.5990  147.8680 C   0  0  0  0  0  0  0  0  0  0  0  0
  160.6570  212.9910  150.1180 C   0  0  0  0  0  0  0  0  0  0  0  0
  161.3090  208.0730  152.4620 C   0  0  1  0  0  3  0  0  0  0  0  0
  161.4540  210.8830  151.0390 C   0  0  0  0  0  0  0  0  0  0  0  0
  162.0740  207.3990  150.2880 C   0  0  0  0  0  2  0  0  0  0  0  0
  160.0840  213.2930  151.3520 C   0  0  0  0  0  3  0  0  0  0  0  0
  160.8250  205.7550  151.6640 C   0  0  0  0  0  3  0  0  0  0  0  0
  160.8310  206.6520  152.6590 C   0  0  0  0  0  3  0  0  0  0  0  0
  161.3850  208.4500  151.0350 N   0  0  2  0  0  0  0  0  0  0  0  0
  162.3630  211.5770  157.1330 N   0  0  0  0  0  0  0  0  0  0  0  0
  161.3920  210.7480  154.6670 C   0  0  0  0  0  0  0  0  0  0  0  0
  160.6390  211.6070  155.4820 C   0  0  0  0  0  3  0  0  0  0  0  0
  161.1430  212.0110  156.7200 C   0  0  0  0  0  3  0  0  0  0  0  0
  163.1190  210.7480  156.3660 C   0  0  0  0  0  3  0  0  0  0  0  0
  162.6480  210.3210  155.1220 C   0  0  0  0  0  3  0  0  0  0  0  0
  1 12  1  0  0  0  0
  2  6  1  0  0  0  0
  2 12  1  0  0  0  0
  3 21  1  0  0  0  0
  3 16  1  0  0  0  0
  4 14  1  0  0  0  0
  5 13  2  0  0  0  0
  7 11  1  0  0  0  0
  8 10  1  1  0  0  0
  8 17  1  0  0  0  0
  8 19  1  0  0  0  0
  9 13  1  0  0  0  0
  9  7  2  0  0  0  0
 11 14  2  0  0  0  0
 11 16  1  0  0  0  0
 12 23  1  0  0  0  0
 13  4  1  0  0  0  0
 14 18  1  0  0  0  0
 15 20  1  6  0  0  0
 15  1  1  0  0  0  0
 16  2  2  0  0  0  0
 18  6  2  0  0  0  0
 19 20  2  0  0  0  0
 21 17  1  6  0  0  0
 21 15  1  0  0  0  0
 23 27  2  0  0  0  0
 23 24  1  0  0  0  0
 24 25  2  0  0  0  0
 25 22  1  0  0  0  0
 26 22  2  0  0  0  0
 27 26  1  0  0  0  0
M  END
>  <MODEL>
3

>  <REMARK>
 VINA RESULT:      -5.6      1.077      1.257
  Name = 
  1 active torsions:
  status: ('A' for Active; 'I' for Inactive)
    1  A    between atoms: C_9  and  N_15
                            x       y       z     vdW  Elec       q    Type
                         _______ _______ _______ _____ _____    ______ ____

>  <TORSDO>
F 1

$$$$
=
 OpenBabel11052423133D

 27 31  0  0  1  0  0  0  0  0999 V2000
  162.2140  206.6700  153.0980 C   0  0  0  0  0  2  0  0  0  0  0  0
  161.8730  207.7490  150.8840 C   0  0  0  0  0  0  0  0  0  0  0  0
  160.3340  208.9730  152.4590 C   0  0  0  0  0  2  0  0  0  0  0  0
  162.3420  211.0900  148.4820 N   0  0  0  0  0  2  0  0  0  0  0  0
  161.9270  213.2700  148.0190 O   0  0  0  0  0  0  0  0  0  0  0  0
  162.6240  207.7060  149.7480 N   0  0  0  0  0  0  0  0  0  0  0  0
  160.7790  211.3040  150.7530 C   0  0  0  0  0  3  0  0  0  0  0  0
  161.0810  209.4180  156.0410 C   0  0  2  0  0  3  0  0  0  0  0  0
  160.9610  212.4090  149.9190 C   0  0  0  0  0  3  0  0  0  0  0  0
  160.2250  209.9920  157.1490 C   0  0  0  0  0  1  0  0  0  0  0  0
  161.3890  210.0830  150.4430 C   0  0  0  0  0  0  0  0  0  0  0  0
  161.7680  206.5780  151.7080 N   0  0  0  0  0  0  0  0  0  0  0  0
  161.7550  212.2820  148.7770 C   0  0  0  0  0  0  0  0  0  0  0  0
  162.1790  210.0000  149.2790 C   0  0  0  0  0  0  0  0  0  0  0  0
  161.1670  207.3500  153.9750 C   0  0  1  0  0  3  0  0  0  0  0  0
  161.2290  208.9450  151.2550 C   0  0  0  0  0  0  0  0  0  0  0  0
  160.3280  209.4730  154.7200 C   0  0  0  0  0  2  0  0  0  0  0  0
  162.7880  208.7910  148.9470 C   0  0  0  0  0  3  0  0  0  0  0  0
  161.4590  208.0040  156.3680 C   0  0  0  0  0  3  0  0  0  0  0  0
  161.5340  207.0670  155.4150 C   0  0  0  0  0  3  0  0  0  0  0  0
  161.1070  208.7970  153.6820 N   0  0  2  0  0  0  0  0  0  0  0  0
  160.4820  202.8830  150.1250 N   0  0  0  0  0  0  0  0  0  0  0  0
  161.3200  205.3160  151.1710 C   0  0  0  0  0  0  0  0  0  0  0  0
  161.2810  204.1650  151.9740 C   0  0  0  0  0  3  0  0  0  0  0  0
  160.8550  202.9520  151.4300 C   0  0  0  0  0  3  0  0  0  0  0  0
  160.5120  203.9780  149.3190 C   0  0  0  0  0  3  0  0  0  0  0  0
  160.9310  205.2100  149.8270 C   0  0  0  0  0  3  0  0  0  0  0  0
  2 16  1  0  0  0  0
  2 12  1  0  0  0  0
  4 13  1  0  0  0  0
  4 14  1  0  0  0  0
  5 13  2  0  0  0  0
  6  2  2  0  0  0  0
  8 19  1  0  0  0  0
  8 10  1  1  0  0  0
  9  7  2  0  0  0  0
 11  7  1  0  0  0  0
 11 16  2  0  0  0  0
 12  1  1  0  0  0  0
 13  9  1  0  0  0  0
 14 11  1  0  0  0  0
 15  1  1  6  0  0  0
 15 20  1  0  0  0  0
 16  3  1  0  0  0  0
 17  8  1  0  0  0  0
 18 14  2  0  0  0  0
 18  6  1  0  0  0  0
 20 19  2  0  0  0  0
 21  3  1  6  0  0  0
 21 15  1  0  0  0  0
 21 17  1  0  0  0  0
 22 25  1  0  0  0  0
 23 12  1  0  0  0  0
 23 24  1  0  0  0  0
 25 24  2  0  0  0  0
 26 27  1  0  0  0  0
 26 22  2  0  0  0  0
 27 23  2  0  0  0  0
M  END
>  <MODEL>
4

>  <REMARK>
 VINA RESULT:      -5.5      1.748      5.384
  Name = 
  1 active torsions:
  status: ('A' for Active; 'I' for Inactive)
    1  A    between atoms: C_9  and  N_15
                            x       y       z     vdW  Elec       q    Type
                         _______ _______ _______ _____ _____    ______ ____

>  <TORSDO>
F 1

$$$$
=
 OpenBabel11052423133D

 27 31  0  0  1  0  0  0  0  0999 V2000
  161.8750  209.7040  154.0640 C   0  0  0  0  0  2  0  0  0  0  0  0
  161.4950  210.0410  151.6300 C   0  0  0  0  0  0  0  0  0  0  0  0
  159.6610  211.3390  152.7700 C   0  0  0  0  0  2  0  0  0  0  0  0
  161.5200  212.6080  148.3800 N   0  0  0  0  0  2  0  0  0  0  0  0
  160.7540  214.4530  147.3080 O   0  0  0  0  0  0  0  0  0  0  0  0
  162.3150  209.8270  150.5630 N   0  0  0  0  0  0  0  0  0  0  0  0
  159.7960  213.1450  150.4750 C   0  0  0  0  0  3  0  0  0  0  0  0
  160.0770  212.8960  156.0840 C   0  0  2  0  0  3  0  0  0  0  0  0
  159.8330  213.9870  149.3630 C   0  0  0  0  0  3  0  0  0  0  0  0
  159.0600  213.5810  156.9720 C   0  0  0  0  0  1  0  0  0  0  0  0
  160.6330  212.0240  150.5350 C   0  0  0  0  0  0  0  0  0  0  0  0
  161.5460  209.1470  152.7530 N   0  0  0  0  0  0  0  0  0  0  0  0
  160.7110  213.7010  148.3150 C   0  0  0  0  0  0  0  0  0  0  0  0
  161.5010  211.7730  149.4520 C   0  0  0  0  0  0  0  0  0  0  0  0
  160.6680  210.3900  154.6960 C   0  0  1  0  0  3  0  0  0  0  0  0
  160.6250  211.1480  151.6350 C   0  0  0  0  0  0  0  0  0  0  0  0
  159.4160  212.4370  154.7930 C   0  0  0  0  0  2  0  0  0  0  0  0
  162.3360  210.6580  149.4880 C   0  0  0  0  0  3  0  0  0  0  0  0
  160.6780  211.7270  156.8070 C   0  0  0  0  0  3  0  0  0  0  0  0
  160.9830  210.5940  156.1610 C   0  0  0  0  0  3  0  0  0  0  0  0
  160.3700  211.6600  154.0020 N   0  0  2  0  0  0  0  0  0  0  0  0
  161.0470  204.9830  152.2760 N   0  0  0  0  0  0  0  0  0  0  0  0
  161.3660  207.7240  152.5920 C   0  0  0  0  0  0  0  0  0  0  0  0
  161.3640  206.8700  153.7050 C   0  0  0  0  0  3  0  0  0  0  0  0
  161.2000  205.4950  153.5260 C   0  0  0  0  0  3  0  0  0  0  0  0
  161.0500  205.7830  151.1760 C   0  0  0  0  0  3  0  0  0  0  0  0
  161.2100  207.1640  151.3150 C   0  0  0  0  0  3  0  0  0  0  0  0
  2 16  1  0  0  0  0
  2 12  1  0  0  0  0
  4 14  1  0  0  0  0
  5 13  2  0  0  0  0
  6  2  2  0  0  0  0
  7 11  1  0  0  0  0
  8 19  1  0  0  0  0
  8 10  1  1  0  0  0
  9  7  2  0  0  0  0
 11 16  2  0  0  0  0
 12  1  1  0  0  0  0
 13  4  1  0  0  0  0
 13  9  1  0  0  0  0
 14 18  2  0  0  0  0
 14 11  1  0  0  0  0
 15  1  1  6  0  0  0
 15 20  1  0  0  0  0
 16  3  1  0  0  0  0
 17  8  1  0  0  0  0
 18  6  1  0  0  0  0
 20 19  2  0  0  0  0
 21  3  1  6  0  0  0
 21 15  1  0  0  0  0
 21 17  1  0  0  0  0
 22 25  1  0  0  0  0
 23 12  1  0  0  0  0
 23 24  1  0  0  0  0
 25 24  2  0  0  0  0
 26 27  1  0  0  0  0
 26 22  2  0  0  0  0
 27 23  2  0  0  0  0
M  END
>  <MODEL>
5

>  <REMARK>
 VINA RESULT:      -5.5      1.915      5.228
  Name = 
  1 active torsions:
  status: ('A' for Active; 'I' for Inactive)
    1  A    between atoms: C_9  and  N_15
                            x       y       z     vdW  Elec       q    Type
                         _______ _______ _______ _____ _____    ______ ____

>  <TORSDO>
F 1

$$$$
=
 OpenBabel11052423133D

 27 31  0  0  1  0  0  0  0  0999 V2000
  160.2180  208.9570  151.9360 C   0  0  0  0  0  2  0  0  0  0  0  0
  160.9590  207.1410  150.4080 C   0  0  0  0  0  0  0  0  0  0  0  0
  161.9590  206.5680  152.6490 C   0  0  0  0  0  2  0  0  0  0  0  0
  160.7400  203.1560  149.3010 N   0  0  0  0  0  2  0  0  0  0  0  0
  161.0360  200.9550  149.7560 O   0  0  0  0  0  0  0  0  0  0  0  0
  160.5040  206.7700  149.1790 N   0  0  0  0  0  0  0  0  0  0  0  0
  161.6990  203.7770  151.8190 C   0  0  0  0  0  3  0  0  0  0  0  0
  160.3540  207.4670  155.8430 C   0  0  2  0  0  3  0  0  0  0  0  0
  161.6100  202.4460  151.4110 C   0  0  0  0  0  3  0  0  0  0  0  0
  160.8670  207.3320  157.2610 C   0  0  0  0  0  1  0  0  0  0  0  0
  161.3010  204.8050  150.9550 C   0  0  0  0  0  0  0  0  0  0  0  0
  160.9830  208.5320  150.7650 N   0  0  0  0  0  0  0  0  0  0  0  0
  161.1220  202.1510  150.1360 C   0  0  0  0  0  0  0  0  0  0  0  0
  160.8180  204.4610  149.6770 C   0  0  0  0  0  0  0  0  0  0  0  0
  160.9580  208.6380  153.2320 C   0  0  1  0  0  3  0  0  0  0  0  0
  161.3780  206.1600  151.3270 C   0  0  0  0  0  0  0  0  0  0  0  0
  161.3860  206.9280  154.8630 C   0  0  0  0  0  2  0  0  0  0  0  0
  160.4260  205.4680  148.7980 C   0  0  0  0  0  3  0  0  0  0  0  0
  160.0520  208.9050  155.5440 C   0  0  0  0  0  3  0  0  0  0  0  0
  160.2940  209.4290  154.3360 C   0  0  0  0  0  3  0  0  0  0  0  0
  160.9430  207.1830  153.4920 N   0  0  2  0  0  0  0  0  0  0  0  0
  162.9600  211.3850  148.3660 N   0  0  0  0  0  0  0  0  0  0  0  0
  161.6670  209.5070  149.9500 C   0  0  0  0  0  0  0  0  0  0  0  0
  161.6730  210.8650  150.3070 C   0  0  0  0  0  3  0  0  0  0  0  0
  162.3300  211.7930  149.4990 C   0  0  0  0  0  3  0  0  0  0  0  0
  162.9690  210.0790  147.9890 C   0  0  0  0  0  3  0  0  0  0  0  0
  162.3240  209.1200  148.7730 C   0  0  0  0  0  3  0  0  0  0  0  0
  2 12  1  0  0  0  0
  2 16  1  0  0  0  0
  4 14  1  0  0  0  0
  4 13  1  0  0  0  0
  5 13  2  0  0  0  0
  6  2  2  0  0  0  0
  8 10  1  1  0  0  0
  9  7  2  0  0  0  0
 11 16  2  0  0  0  0
 11  7  1  0  0  0  0
 12  1  1  0  0  0  0
 13  9  1  0  0  0  0
 14 11  1  0  0  0  0
 15  1  1  6  0  0  0
 15 21  1  0  0  0  0
 15 20  1  0  0  0  0
 16  3  1  0  0  0  0
 17  8  1  0  0  0  0
 18  6  1  0  0  0  0
 18 14  2  0  0  0  0
 19  8  1  0  0  0  0
 20 19  2  0  0  0  0
 21  3  1  6  0  0  0
 21 17  1  0  0  0  0
 22 25  1  0  0  0  0
 23 24  1  0  0  0  0
 23 12  1  0  0  0  0
 25 24  2  0  0  0  0
 26 22  2  0  0  0  0
 26 27  1  0  0  0  0
 27 23  2  0  0  0  0
M  END
>  <MODEL>
6

>  <REMARK>
 VINA RESULT:      -5.4      3.309      7.130
  Name = 
  1 active torsions:
  status: ('A' for Active; 'I' for Inactive)
    1  A    between atoms: C_9  and  N_15
                            x       y       z     vdW  Elec       q    Type
                         _______ _______ _______ _____ _____    ______ ____

>  <TORSDO>
F 1

$$$$
=
 OpenBabel11052423133D

 27 31  0  0  1  0  0  0  0  0999 V2000
  160.7950  209.6490  152.5800 C   0  0  0  0  0  2  0  0  0  0  0  0
  159.1740  210.8660  154.0220 C   0  0  0  0  0  0  0  0  0  0  0  0
  160.0330  212.5880  152.3950 C   0  0  0  0  0  2  0  0  0  0  0  0
  155.5200  212.7820  154.3780 N   0  0  0  0  0  2  0  0  0  0  0  0
  154.0970  214.4530  153.8100 O   0  0  0  0  0  0  0  0  0  0  0  0
  158.2090  210.4010  154.8640 N   0  0  0  0  0  0  0  0  0  0  0  0
  157.4020  213.8350  152.6460 C   0  0  0  0  0  3  0  0  0  0  0  0
  161.1080  211.7430  148.9730 C   0  0  2  0  0  3  0  0  0  0  0  0
  156.1590  214.4530  152.7920 C   0  0  0  0  0  3  0  0  0  0  0  0
  161.7730  212.6060  147.9210 C   0  0  0  0  0  1  0  0  0  0  0  0
  157.7010  212.6780  153.3750 C   0  0  0  0  0  0  0  0  0  0  0  0
  160.4130  210.1480  153.9000 N   0  0  0  0  0  0  0  0  0  0  0  0
  155.2210  213.9060  153.6710 C   0  0  0  0  0  0  0  0  0  0  0  0
  156.7240  212.1630  154.2520 C   0  0  0  0  0  0  0  0  0  0  0  0
  161.3810  210.7590  151.7130 C   0  0  1  0  0  3  0  0  0  0  0  0
  158.9420  212.0260  153.2590 C   0  0  0  0  0  0  0  0  0  0  0  0
  160.8390  212.5640  150.2250 C   0  0  0  0  0  2  0  0  0  0  0  0
  157.0050  211.0170  154.9950 C   0  0  0  0  0  3  0  0  0  0  0  0
  161.9840  210.5690  149.2960 C   0  0  0  0  0  3  0  0  0  0  0  0
  162.0780  210.0970  150.5460 C   0  0  0  0  0  3  0  0  0  0  0  0
  160.3210  211.6940  151.2810 N   0  0  2  0  0  0  0  0  0  0  0  0
  162.8020  209.2480  157.2610 N   0  0  0  0  0  0  0  0  0  0  0  0
  161.2250  209.8460  155.0550 C   0  0  0  0  0  0  0  0  0  0  0  0
  162.2360  210.7240  155.4720 C   0  0  0  0  0  3  0  0  0  0  0  0
  163.0180  210.4070  156.5850 C   0  0  0  0  0  3  0  0  0  0  0  0
  161.8330  208.3730  156.8800 C   0  0  0  0  0  3  0  0  0  0  0  0
  161.0300  208.6560  155.7730 C   0  0  0  0  0  3  0  0  0  0  0  0
  1 12  1  0  0  0  0
  2  6  1  0  0  0  0
  3 16  1  0  0  0  0
  6 18  2  0  0  0  0
  7  9  2  0  0  0  0
  7 11  1  0  0  0  0
  8 10  1  6  0  0  0
  8 19  1  0  0  0  0
  8 17  1  0  0  0  0
  9 13  1  0  0  0  0
 11 14  2  0  0  0  0
 12  2  1  0  0  0  0
 12 23  1  0  0  0  0
 13  5  2  0  0  0  0
 13  4  1  0  0  0  0
 14  4  1  0  0  0  0
 14 18  1  0  0  0  0
 15 20  1  6  0  0  0
 15  1  1  0  0  0  0
 16 11  1  0  0  0  0
 16  2  2  0  0  0  0
 19 20  2  0  0  0  0
 21 17  1  6  0  0  0
 21 15  1  0  0  0  0
 21  3  1  0  0  0  0
 23 24  2  0  0  0  0
 23 27  1  0  0  0  0
 24 25  1  0  0  0  0
 25 22  2  0  0  0  0
 26 22  1  0  0  0  0
 27 26  2  0  0  0  0
M  END
>  <MODEL>
7

>  <REMARK>
 VINA RESULT:      -4.7      3.106      4.958
  Name = 
  1 active torsions:
  status: ('A' for Active; 'I' for Inactive)
    1  A    between atoms: C_9  and  N_15
                            x       y       z     vdW  Elec       q    Type
                         _______ _______ _______ _____ _____    ______ ____

>  <TORSDO>
F 1

$$$$
