=
 OpenBabel11062408103D

 34 37  0  0  1  0  0  0  0  0999 V2000
  161.5910  209.8690  155.3860 N   0  0  0  0  0  0  0  0  0  0  0  0
  161.5990  208.3730  153.3460 C   0  0  2  0  0  3  0  0  0  0  0  0
  161.4140  207.2120  151.1790 C   0  0  0  0  0  0  0  0  0  0  0  0
  161.2230  205.8750  153.3170 C   0  0  0  0  0  2  0  0  0  0  0  0
  161.1790  208.5530  154.8290 C   0  0  2  0  0  3  0  0  0  0  0  0
  160.7190  204.7310  152.4470 C   0  0  0  0  0  2  0  0  0  0  0  0
  161.5910  206.0770  150.4940 C   0  0  0  0  0  3  0  0  0  0  0  0
  161.4480  209.7130  152.6150 C   0  0  2  0  0  3  0  0  0  0  0  0
  162.7590  210.4280  154.6930 C   0  0  0  0  0  2  0  0  0  0  0  0
  161.5460  208.4620  150.4960 N   0  0  0  0  0  0  0  0  0  0  0  0
  161.5560  209.6210  151.0930 C   0  0  0  0  0  0  0  0  0  0  0  0
  161.5110  204.7180  151.1360 C   0  0  2  0  0  3  0  0  0  0  0  0
  160.9400  207.2070  152.6130 C   0  0  1  0  0  3  0  0  0  0  0  0
  162.4590  210.7050  153.2110 C   0  0  0  0  0  2  0  0  0  0  0  0
  162.2690  212.0770  148.2950 C   0  0  0  0  0  0  0  0  0  0  0  0
  161.3880  213.1180  148.6070 C   0  0  0  0  0  3  0  0  0  0  0  0
  161.5160  210.8460  150.2580 C   0  0  0  0  0  0  0  0  0  0  0  0
  160.5760  213.0310  149.7410 C   0  0  0  0  0  3  0  0  0  0  0  0
  162.3340  210.9480  149.1170 C   0  0  0  0  0  3  0  0  0  0  0  0
  160.6340  211.8990  150.5570 C   0  0  0  0  0  3  0  0  0  0  0  0
  163.0510  212.1560  147.1890 F   0  0  0  0  0  0  0  0  0  0  0  0
  161.9320  209.7800  156.8170 C   0  0  0  0  0  3  0  0  0  0  0  0
  162.3240  208.3610  157.2050 C   0  0  0  0  0  1  0  0  0  0  0  0
  162.9990  210.7780  157.2600 C   0  0  0  0  0  1  0  0  0  0  0  0
  159.6750  208.3210  155.0550 C   0  0  0  0  0  2  0  0  0  0  0  0
  159.4000  207.2270  156.0750 C   0  0  0  0  0  1  0  0  0  0  0  0
  160.8330  202.4380  150.7520 O   0  0  0  0  0  1  0  0  0  0  0  0
  160.9830  203.6850  150.1390 C   0  0  2  0  0  3  0  0  0  0  0  0
  161.8770  203.5600  148.9920 N   0  0  0  0  0  2  0  0  0  0  0  0
  161.0670  203.4260  147.7870 C   0  0  0  0  0  3  0  0  0  0  0  0
  161.7280  204.1640  146.6310 C   0  0  0  0  0  2  0  0  0  0  0  0
  162.2320  205.4000  147.0600 O   0  0  0  0  0  1  0  0  0  0  0  0
  160.8560  201.9560  147.4420 C   0  0  0  0  0  2  0  0  0  0  0  0
  160.8330  201.7990  146.0540 O   0  0  0  0  0  1  0  0  0  0  0  0
  1 22  1  0  0  0  0
  2  5  1  0  0  0  0
  3 13  1  0  0  0  0
  5 25  1  0  0  0  0
  5  1  1  0  0  0  0
  6  4  1  0  0  0  0
  7 12  1  0  0  0  0
  7  3  2  0  0  0  0
  8 14  1  0  0  0  0
  8  2  1  0  0  0  0
  9  1  1  0  0  0  0
 10 11  2  0  0  0  0
 10  3  1  0  0  0  0
 11  8  1  0  0  0  0
 12  6  1  0  0  0  0
 13  4  1  0  0  0  0
 13  2  1  0  0  0  0
 14  9  1  0  0  0  0
 15 16  2  0  0  0  0
 15 19  1  0  0  0  0
 16 18  1  0  0  0  0
 17 20  1  0  0  0  0
 17 11  1  0  0  0  0
 18 20  2  0  0  0  0
 19 17  2  0  0  0  0
 21 15  1  0  0  0  0
 22 23  1  0  0  0  0
 22 24  1  0  0  0  0
 25 26  1  0  0  0  0
 28 27  1  0  0  0  0
 28 12  1  0  0  0  0
 29 28  1  0  0  0  0
 30 29  1  0  0  0  0
 31 32  1  0  0  0  0
 31 30  1  0  0  0  0
 33 30  1  0  0  0  0
 34 33  1  0  0  0  0
M  END
>  <MODEL>
1

>  <REMARK>
 VINA RESULT:      -6.0      0.000      0.000
  Name = 
  8 active torsions:
  status: ('A' for Active; 'I' for Inactive)
    1  A    between atoms: N_1  and  C_6
    2  A    between atoms: C_2  and  C_15
    3  A    between atoms: C_11  and  CA_20
    4  A    between atoms: C_12  and  C_28
    5  A    between atoms: N_13  and  CA_20
    6  A    between atoms: N_13  and  C_33
    7  A    between atoms: CB_14  and  CA_20
    8  A    between atoms: C_29  and  C_33
                            x       y       z     vdW  Elec       q    Type
                         _______ _______ _______ _____ _____    ______ ____

>  <TORSDO>
F 8

$$$$
=
 OpenBabel11062408103D

 34 37  0  0  1  0  0  0  0  0999 V2000
  161.2300  204.4510  150.6460 N   0  0  0  0  0  0  0  0  0  0  0  0
  161.6670  206.9420  150.6610 C   0  0  2  0  0  3  0  0  0  0  0  0
  161.8220  209.3840  150.9650 C   0  0  0  0  0  0  0  0  0  0  0  0
  162.0240  208.4140  148.6390 C   0  0  0  0  0  2  0  0  0  0  0  0
  161.2130  205.7030  149.8430 C   0  0  2  0  0  3  0  0  0  0  0  0
  161.8700  209.8420  148.1310 C   0  0  0  0  0  2  0  0  0  0  0  0
  162.3160  210.5430  150.5170 C   0  0  0  0  0  3  0  0  0  0  0  0
  161.1360  206.8200  152.0950 C   0  0  2  0  0  3  0  0  0  0  0  0
  162.1870  204.5120  151.7580 C   0  0  0  0  0  2  0  0  0  0  0  0
  161.5880  209.2260  152.3680 N   0  0  0  0  0  0  0  0  0  0  0  0
  161.2650  208.0950  152.9290 C   0  0  0  0  0  0  0  0  0  0  0  0
  162.6310  210.7870  149.0660 C   0  0  2  0  0  3  0  0  0  0  0  0
  161.3690  208.2960  150.0200 C   0  0  1  0  0  3  0  0  0  0  0  0
  161.8190  205.6160  152.7610 C   0  0  0  0  0  2  0  0  0  0  0  0
  160.6020  209.3110  156.4580 C   0  0  0  0  0  0  0  0  0  0  0  0
  160.0510  208.1680  157.0470 C   0  0  0  0  0  3  0  0  0  0  0  0
  160.8740  208.1030  154.3600 C   0  0  0  0  0  0  0  0  0  0  0  0
  159.9150  206.9930  156.3030 C   0  0  0  0  0  3  0  0  0  0  0  0
  161.0130  209.2780  155.1220 C   0  0  0  0  0  3  0  0  0  0  0  0
  160.3170  206.9630  154.9660 C   0  0  0  0  0  3  0  0  0  0  0  0
  160.7260  210.4550  157.1770 F   0  0  0  0  0  0  0  0  0  0  0  0
  161.5830  203.2770  149.8280 C   0  0  0  0  0  3  0  0  0  0  0  0
  160.6950  202.0850  150.1560 C   0  0  0  0  0  1  0  0  0  0  0  0
  161.5880  203.5520  148.3250 C   0  0  0  0  0  1  0  0  0  0  0  0
  159.8390  205.8970  149.1790 C   0  0  0  0  0  2  0  0  0  0  0  0
  159.9480  206.1930  147.6910 C   0  0  0  0  0  1  0  0  0  0  0  0
  161.2950  212.7690  149.3610 O   0  0  0  0  0  1  0  0  0  0  0  0
  162.4220  212.2600  148.7120 C   0  0  2  0  0  3  0  0  0  0  0  0
  162.2760  212.4360  147.2700 N   0  0  0  0  0  2  0  0  0  0  0  0
  161.1050  213.2690  147.0230 C   0  0  0  0  0  3  0  0  0  0  0  0
  161.4840  214.4500  146.1400 C   0  0  0  0  0  2  0  0  0  0  0  0
  161.7340  214.0240  144.8290 O   0  0  0  0  0  1  0  0  0  0  0  0
  159.9890  212.4500  146.3850 C   0  0  0  0  0  2  0  0  0  0  0  0
  158.8120  212.6070  147.1220 O   0  0  0  0  0  1  0  0  0  0  0  0
  1  9  1  0  0  0  0
  2  8  1  0  0  0  0
  3 10  1  0  0  0  0
  4 13  1  0  0  0  0
  5  1  1  0  0  0  0
  5  2  1  0  0  0  0
  6  4  1  0  0  0  0
  6 12  1  0  0  0  0
  7  3  2  0  0  0  0
  8 14  1  0  0  0  0
  8 11  1  0  0  0  0
  9 14  1  0  0  0  0
 10 11  2  0  0  0  0
 11 17  1  0  0  0  0
 12  7  1  0  0  0  0
 13  2  1  0  0  0  0
 13  3  1  0  0  0  0
 15 16  1  0  0  0  0
 15 21  1  0  0  0  0
 17 20  2  0  0  0  0
 17 19  1  0  0  0  0
 18 16  2  0  0  0  0
 19 15  2  0  0  0  0
 20 18  1  0  0  0  0
 22 23  1  0  0  0  0
 22  1  1  0  0  0  0
 24 22  1  0  0  0  0
 25  5  1  0  0  0  0
 26 25  1  0  0  0  0
 28 12  1  0  0  0  0
 28 27  1  0  0  0  0
 29 28  1  0  0  0  0
 30 29  1  0  0  0  0
 31 30  1  0  0  0  0
 32 31  1  0  0  0  0
 33 30  1  0  0  0  0
 33 34  1  0  0  0  0
M  END
>  <MODEL>
2

>  <REMARK>
 VINA RESULT:      -5.5      3.743      7.709
  Name = 
  8 active torsions:
  status: ('A' for Active; 'I' for Inactive)
    1  A    between atoms: N_1  and  C_6
    2  A    between atoms: C_2  and  C_15
    3  A    between atoms: C_11  and  CA_20
    4  A    between atoms: C_12  and  C_28
    5  A    between atoms: N_13  and  CA_20
    6  A    between atoms: N_13  and  C_33
    7  A    between atoms: CB_14  and  CA_20
    8  A    between atoms: C_29  and  C_33
                            x       y       z     vdW  Elec       q    Type
                         _______ _______ _______ _____ _____    ______ ____

>  <TORSDO>
F 8

$$$$
=
 OpenBabel11062408103D

 34 37  0  0  1  0  0  0  0  0999 V2000
  161.8510  206.1740  149.3230 N   0  0  0  0  0  0  0  0  0  0  0  0
  161.2440  208.1400  150.7930 C   0  0  2  0  0  3  0  0  0  0  0  0
  160.9310  210.2530  152.0240 C   0  0  0  0  0  0  0  0  0  0  0  0
  160.7140  208.0590  153.2630 C   0  0  0  0  0  2  0  0  0  0  0  0
  161.7530  206.6750  150.7200 C   0  0  2  0  0  3  0  0  0  0  0  0
  160.7510  208.8830  154.5420 C   0  0  0  0  0  2  0  0  0  0  0  0
  160.3420  210.8800  153.0480 C   0  0  0  0  0  3  0  0  0  0  0  0
  161.8330  208.9360  149.6230 C   0  0  2  0  0  3  0  0  0  0  0  0
  160.9320  206.8690  148.4130 C   0  0  0  0  0  2  0  0  0  0  0  0
  161.2250  210.9920  150.8350 N   0  0  0  0  0  0  0  0  0  0  0  0
  161.6460  210.4490  149.7270 C   0  0  0  0  0  0  0  0  0  0  0  0
  159.9600  210.1770  154.3230 C   0  0  2  0  0  3  0  0  0  0  0  0
  161.4240  208.8300  152.1440 C   0  0  1  0  0  3  0  0  0  0  0  0
  161.2590  208.3670  148.3160 C   0  0  0  0  0  2  0  0  0  0  0  0
  161.5340  212.7930  146.7500 C   0  0  0  0  0  0  0  0  0  0  0  0
  162.8870  213.1120  146.5950 C   0  0  0  0  0  3  0  0  0  0  0  0
  162.0860  211.3420  148.6270 C   0  0  0  0  0  0  0  0  0  0  0  0
  163.8410  212.5480  147.4470 C   0  0  0  0  0  3  0  0  0  0  0  0
  161.1360  211.9120  147.7590 C   0  0  0  0  0  3  0  0  0  0  0  0
  163.4420  211.6740  148.4610 C   0  0  0  0  0  3  0  0  0  0  0  0
  160.6060  213.3480  145.9290 F   0  0  0  0  0  0  0  0  0  0  0  0
  161.5520  204.7330  149.2330 C   0  0  0  0  0  3  0  0  0  0  0  0
  160.3900  204.3510  150.1380 C   0  0  0  0  0  1  0  0  0  0  0  0
  161.3120  204.2420  147.8060 C   0  0  0  0  0  1  0  0  0  0  0  0
  163.0850  206.4690  151.4600 C   0  0  0  0  0  2  0  0  0  0  0  0
  162.9720  205.4620  152.5940 C   0  0  0  0  0  1  0  0  0  0  0  0
  161.0560  210.7270  156.3960 O   0  0  0  0  0  1  0  0  0  0  0  0
  160.0530  211.1340  155.5120 C   0  0  2  0  0  3  0  0  0  0  0  0
  158.7800  211.2120  156.2220 N   0  0  0  0  0  2  0  0  0  0  0  0
  157.7320  211.5240  155.2570 C   0  0  0  0  0  3  0  0  0  0  0  0
  156.3840  211.0520  155.7830 C   0  0  0  0  0  2  0  0  0  0  0  0
  155.5130  210.7700  154.7210 O   0  0  0  0  0  1  0  0  0  0  0  0
  157.7050  213.0180  154.9580 C   0  0  0  0  0  2  0  0  0  0  0  0
  157.6580  213.2190  153.5760 O   0  0  0  0  0  1  0  0  0  0  0  0
  1  5  1  0  0  0  0
  2 13  1  0  0  0  0
  3 13  1  0  0  0  0
  3  7  2  0  0  0  0
  4  6  1  0  0  0  0
  5  2  1  0  0  0  0
  5 25  1  0  0  0  0
  7 12  1  0  0  0  0
  8 11  1  0  0  0  0
  8  2  1  0  0  0  0
  9  1  1  0  0  0  0
 10  3  1  0  0  0  0
 11 10  2  0  0  0  0
 12  6  1  0  0  0  0
 12 28  1  0  0  0  0
 13  4  1  0  0  0  0
 14  9  1  0  0  0  0
 14  8  1  0  0  0  0
 15 19  1  0  0  0  0
 16 15  2  0  0  0  0
 16 18  1  0  0  0  0
 17 11  1  0  0  0  0
 18 20  2  0  0  0  0
 19 17  2  0  0  0  0
 20 17  1  0  0  0  0
 21 15  1  0  0  0  0
 22  1  1  0  0  0  0
 22 23  1  0  0  0  0
 24 22  1  0  0  0  0
 25 26  1  0  0  0  0
 28 29  1  0  0  0  0
 28 27  1  0  0  0  0
 30 31  1  0  0  0  0
 30 29  1  0  0  0  0
 32 31  1  0  0  0  0
 33 30  1  0  0  0  0
 34 33  1  0  0  0  0
M  END
>  <MODEL>
3

>  <REMARK>
 VINA RESULT:      -5.2      3.917      7.300
  Name = 
  8 active torsions:
  status: ('A' for Active; 'I' for Inactive)
    1  A    between atoms: N_1  and  C_6
    2  A    between atoms: C_2  and  C_15
    3  A    between atoms: C_11  and  CA_20
    4  A    between atoms: C_12  and  C_28
    5  A    between atoms: N_13  and  CA_20
    6  A    between atoms: N_13  and  C_33
    7  A    between atoms: CB_14  and  CA_20
    8  A    between atoms: C_29  and  C_33
                            x       y       z     vdW  Elec       q    Type
                         _______ _______ _______ _____ _____    ______ ____

>  <TORSDO>
F 8

$$$$
=
 OpenBabel11062408103D

 34 37  0  0  1  0  0  0  0  0999 V2000
  161.1120  212.1950  150.6080 N   0  0  0  0  0  0  0  0  0  0  0  0
  161.1310  209.6730  150.4240 C   0  0  2  0  0  3  0  0  0  0  0  0
  161.3320  207.2220  150.5960 C   0  0  0  0  0  0  0  0  0  0  0  0
  161.5750  208.3240  148.3330 C   0  0  0  0  0  2  0  0  0  0  0  0
  161.5570  211.0290  149.7990 C   0  0  2  0  0  3  0  0  0  0  0  0
  162.1040  206.9840  147.8400 C   0  0  0  0  0  2  0  0  0  0  0  0
  161.1820  206.0370  149.9930 C   0  0  0  0  0  3  0  0  0  0  0  0
  161.2410  209.7660  151.9500 C   0  0  2  0  0  3  0  0  0  0  0  0
  159.9250  211.8950  151.4170 C   0  0  0  0  0  2  0  0  0  0  0  0
  161.1620  207.3050  152.0140 N   0  0  0  0  0  0  0  0  0  0  0  0
  161.1250  208.4260  152.6770 C   0  0  0  0  0  0  0  0  0  0  0  0
  161.3040  205.8600  148.5040 C   0  0  2  0  0  3  0  0  0  0  0  0
  161.8170  208.4380  149.8420 C   0  0  1  0  0  3  0  0  0  0  0  0
  160.2070  210.7890  152.4470 C   0  0  0  0  0  2  0  0  0  0  0  0
  161.6470  209.4030  156.3030 C   0  0  0  0  0  0  0  0  0  0  0  0
  161.0510  208.3280  156.9700 C   0  0  0  0  0  3  0  0  0  0  0  0
  161.1250  208.3700  154.1600 C   0  0  0  0  0  0  0  0  0  0  0  0
  160.4980  207.2710  156.2410 C   0  0  0  0  0  3  0  0  0  0  0  0
  161.6850  209.4230  154.9060 C   0  0  0  0  0  3  0  0  0  0  0  0
  160.5280  207.2960  154.8440 C   0  0  0  0  0  3  0  0  0  0  0  0
  162.1760  210.4340  157.0100 F   0  0  0  0  0  0  0  0  0  0  0  0
  160.7840  213.3570  149.7630 C   0  0  0  0  0  3  0  0  0  0  0  0
  160.0540  212.9340  148.4970 C   0  0  0  0  0  1  0  0  0  0  0  0
  160.0100  214.4530  150.4940 C   0  0  0  0  0  1  0  0  0  0  0  0
  163.0680  211.1090  149.5240 C   0  0  0  0  0  2  0  0  0  0  0  0
  163.3850  211.8170  148.2150 C   0  0  0  0  0  1  0  0  0  0  0  0
  162.4630  204.4680  146.9160 O   0  0  0  0  0  1  0  0  0  0  0  0
  161.8530  204.4710  148.1720 C   0  0  2  0  0  3  0  0  0  0  0  0
  160.7920  203.4680  148.2010 N   0  0  0  0  0  2  0  0  0  0  0  0
  161.2460  202.3390  149.0040 C   0  0  0  0  0  3  0  0  0  0  0  0
  160.4180  202.2400  150.2780 C   0  0  0  0  0  2  0  0  0  0  0  0
  161.2100  202.5080  151.4020 O   0  0  0  0  0  1  0  0  0  0  0  0
  161.1670  201.0450  148.2030 C   0  0  0  0  0  2  0  0  0  0  0  0
  160.7590  201.3270  146.8970 O   0  0  0  0  0  1  0  0  0  0  0  0
  1  9  1  0  0  0  0
  2  8  1  0  0  0  0
  3 10  1  0  0  0  0
  4 13  1  0  0  0  0
  5  2  1  0  0  0  0
  5  1  1  0  0  0  0
  6  4  1  0  0  0  0
  6 12  1  0  0  0  0
  7  3  2  0  0  0  0
  8 14  1  0  0  0  0
  8 11  1  0  0  0  0
  9 14  1  0  0  0  0
 10 11  2  0  0  0  0
 11 17  1  0  0  0  0
 12  7  1  0  0  0  0
 13  2  1  0  0  0  0
 13  3  1  0  0  0  0
 15 16  1  0  0  0  0
 15 21  1  0  0  0  0
 17 20  2  0  0  0  0
 17 19  1  0  0  0  0
 18 16  2  0  0  0  0
 19 15  2  0  0  0  0
 20 18  1  0  0  0  0
 22 24  1  0  0  0  0
 22  1  1  0  0  0  0
 23 22  1  0  0  0  0
 25  5  1  0  0  0  0
 26 25  1  0  0  0  0
 27 28  1  0  0  0  0
 28 29  1  0  0  0  0
 28 12  1  0  0  0  0
 29 30  1  0  0  0  0
 30 31  1  0  0  0  0
 31 32  1  0  0  0  0
 33 30  1  0  0  0  0
 34 33  1  0  0  0  0
M  END
>  <MODEL>
4

>  <REMARK>
 VINA RESULT:      -5.2      2.279      5.648
  Name = 
  8 active torsions:
  status: ('A' for Active; 'I' for Inactive)
    1  A    between atoms: N_1  and  C_6
    2  A    between atoms: C_2  and  C_15
    3  A    between atoms: C_11  and  CA_20
    4  A    between atoms: C_12  and  C_28
    5  A    between atoms: N_13  and  CA_20
    6  A    between atoms: N_13  and  C_33
    7  A    between atoms: CB_14  and  CA_20
    8  A    between atoms: C_29  and  C_33
                            x       y       z     vdW  Elec       q    Type
                         _______ _______ _______ _____ _____    ______ ____

>  <TORSDO>
F 8

$$$$
=
 OpenBabel11062408103D

 34 37  0  0  1  0  0  0  0  0999 V2000
  161.5220  212.9320  149.4820 N   0  0  0  0  0  0  0  0  0  0  0  0
  161.2930  210.4580  149.9550 C   0  0  2  0  0  3  0  0  0  0  0  0
  161.2470  208.1290  150.7630 C   0  0  0  0  0  0  0  0  0  0  0  0
  161.6420  208.5760  148.3060 C   0  0  0  0  0  2  0  0  0  0  0  0
  161.8640  211.5590  149.0220 C   0  0  2  0  0  3  0  0  0  0  0  0
  162.0440  207.1120  148.1980 C   0  0  0  0  0  2  0  0  0  0  0  0
  160.9910  206.8470  150.4800 C   0  0  0  0  0  3  0  0  0  0  0  0
  161.3820  210.9360  151.4100 C   0  0  2  0  0  3  0  0  0  0  0  0
  160.2950  212.9630  150.2880 C   0  0  0  0  0  2  0  0  0  0  0  0
  161.0580  208.5950  152.1020 N   0  0  0  0  0  0  0  0  0  0  0  0
  161.1200  209.8490  152.4520 C   0  0  0  0  0  0  0  0  0  0  0  0
  161.1240  206.2770  149.0940 C   0  0  2  0  0  3  0  0  0  0  0  0
  161.8640  209.0570  149.7440 C   0  0  1  0  0  3  0  0  0  0  0  0
  160.4460  212.1430  151.5790 C   0  0  0  0  0  2  0  0  0  0  0  0
  162.2660  210.7150  155.9600 C   0  0  0  0  0  0  0  0  0  0  0  0
  161.0450  210.9050  156.6140 C   0  0  0  0  0  3  0  0  0  0  0  0
  161.0850  210.1810  153.8970 C   0  0  0  0  0  0  0  0  0  0  0  0
  159.8440  210.7310  155.9190 C   0  0  0  0  0  3  0  0  0  0  0  0
  162.2870  210.3530  154.6100 C   0  0  0  0  0  3  0  0  0  0  0  0
  159.8650  210.3780  154.5670 C   0  0  0  0  0  3  0  0  0  0  0  0
  163.4330  210.8930  156.6310 F   0  0  0  0  0  0  0  0  0  0  0  0
  161.3270  213.8580  148.3520 C   0  0  0  0  0  3  0  0  0  0  0  0
  162.6500  214.4530  147.8890 C   0  0  0  0  0  1  0  0  0  0  0  0
  160.5660  213.2470  147.1770 C   0  0  0  0  0  1  0  0  0  0  0  0
  163.3800  211.4280  148.8030 C   0  0  0  0  0  2  0  0  0  0  0  0
  163.7720  211.5670  147.3400 C   0  0  0  0  0  1  0  0  0  0  0  0
  161.7590  204.3000  147.8730 O   0  0  0  0  0  1  0  0  0  0  0  0
  161.5380  204.8060  149.1560 C   0  0  2  0  0  3  0  0  0  0  0  0
  160.5200  204.0040  149.8280 N   0  0  0  0  0  2  0  0  0  0  0  0
  161.0950  202.7010  150.1470 C   0  0  0  0  0  3  0  0  0  0  0  0
  161.1560  202.5150  151.6560 C   0  0  0  0  0  2  0  0  0  0  0  0
  160.8820  203.7230  152.3130 O   0  0  0  0  0  1  0  0  0  0  0  0
  160.2880  201.5850  149.4940 C   0  0  0  0  0  2  0  0  0  0  0  0
  161.1380  200.7690  148.7440 O   0  0  0  0  0  1  0  0  0  0  0  0
  1  9  1  0  0  0  0
  2  8  1  0  0  0  0
  3 10  1  0  0  0  0
  4 13  1  0  0  0  0
  5  1  1  0  0  0  0
  5  2  1  0  0  0  0
  6  4  1  0  0  0  0
  6 12  1  0  0  0  0
  7  3  2  0  0  0  0
  8 14  1  0  0  0  0
  8 11  1  0  0  0  0
  9 14  1  0  0  0  0
 10 11  2  0  0  0  0
 11 17  1  0  0  0  0
 12 28  1  0  0  0  0
 12  7  1  0  0  0  0
 13  2  1  0  0  0  0
 13  3  1  0  0  0  0
 15 16  1  0  0  0  0
 15 21  1  0  0  0  0
 17 20  2  0  0  0  0
 17 19  1  0  0  0  0
 18 16  2  0  0  0  0
 19 15  2  0  0  0  0
 20 18  1  0  0  0  0
 22  1  1  0  0  0  0
 23 22  1  0  0  0  0
 24 22  1  0  0  0  0
 25  5  1  0  0  0  0
 26 25  1  0  0  0  0
 27 28  1  0  0  0  0
 28 29  1  0  0  0  0
 29 30  1  0  0  0  0
 30 31  1  0  0  0  0
 31 32  1  0  0  0  0
 33 30  1  0  0  0  0
 34 33  1  0  0  0  0
M  END
>  <MODEL>
5

>  <REMARK>
 VINA RESULT:      -4.8      2.474      5.841
  Name = 
  8 active torsions:
  status: ('A' for Active; 'I' for Inactive)
    1  A    between atoms: N_1  and  C_6
    2  A    between atoms: C_2  and  C_15
    3  A    between atoms: C_11  and  CA_20
    4  A    between atoms: C_12  and  C_28
    5  A    between atoms: N_13  and  CA_20
    6  A    between atoms: N_13  and  C_33
    7  A    between atoms: CB_14  and  CA_20
    8  A    between atoms: C_29  and  C_33
                            x       y       z     vdW  Elec       q    Type
                         _______ _______ _______ _____ _____    ______ ____

>  <TORSDO>
F 8

$$$$
=
 OpenBabel11062408103D

 34 37  0  0  1  0  0  0  0  0999 V2000
  161.4360  212.3500  149.4770 N   0  0  0  0  0  0  0  0  0  0  0  0
  161.1900  209.8630  149.8680 C   0  0  2  0  0  3  0  0  0  0  0  0
  161.1840  207.4980  150.5650 C   0  0  0  0  0  0  0  0  0  0  0  0
  161.1900  208.0590  148.0990 C   0  0  0  0  0  2  0  0  0  0  0  0
  161.6440  210.9930  148.9040 C   0  0  2  0  0  3  0  0  0  0  0  0
  161.5110  206.5900  147.8600 C   0  0  0  0  0  2  0  0  0  0  0  0
  160.8350  206.2410  150.2690 C   0  0  0  0  0  3  0  0  0  0  0  0
  161.5340  210.2620  151.3080 C   0  0  2  0  0  3  0  0  0  0  0  0
  160.3600  212.3780  150.4750 C   0  0  0  0  0  2  0  0  0  0  0  0
  161.2350  207.9000  151.9370 N   0  0  0  0  0  0  0  0  0  0  0  0
  161.4020  209.1320  152.3280 C   0  0  0  0  0  0  0  0  0  0  0  0
  160.7160  205.7390  148.8560 C   0  0  2  0  0  3  0  0  0  0  0  0
  161.6630  208.4580  149.5010 C   0  0  1  0  0  3  0  0  0  0  0  0
  160.6870  211.4880  151.6840 C   0  0  0  0  0  2  0  0  0  0  0  0
  161.3330  208.7110  156.0950 C   0  0  0  0  0  0  0  0  0  0  0  0
  162.0950  209.8070  156.5120 C   0  0  0  0  0  3  0  0  0  0  0  0
  161.6180  209.3900  153.7730 C   0  0  0  0  0  0  0  0  0  0  0  0
  162.6150  210.6980  155.5690 C   0  0  0  0  0  3  0  0  0  0  0  0
  161.0940  208.5050  154.7330 C   0  0  0  0  0  3  0  0  0  0  0  0
  162.3840  210.4860  154.2070 C   0  0  0  0  0  3  0  0  0  0  0  0
  160.8350  207.8400  157.0100 F   0  0  0  0  0  0  0  0  0  0  0  0
  161.0970  213.3390  148.4380 C   0  0  0  0  0  3  0  0  0  0  0  0
  160.8090  212.6650  147.1040 C   0  0  0  0  0  1  0  0  0  0  0  0
  159.9560  214.2770  148.8290 C   0  0  0  0  0  1  0  0  0  0  0  0
  163.0980  210.8250  148.4320 C   0  0  0  0  0  2  0  0  0  0  0  0
  163.7980  212.1580  148.2160 C   0  0  0  0  0  1  0  0  0  0  0  0
  161.5370  203.7950  150.0180 O   0  0  0  0  0  1  0  0  0  0  0  0
  161.0760  204.2550  148.7810 C   0  0  2  0  0  3  0  0  0  0  0  0
  162.0930  204.0130  147.7620 N   0  0  0  0  0  2  0  0  0  0  0  0
  161.6590  202.8940  146.9340 C   0  0  0  0  0  3  0  0  0  0  0  0
  160.7960  201.9450  147.7530 C   0  0  0  0  0  2  0  0  0  0  0  0
  161.0170  200.6170  147.3630 O   0  0  0  0  0  1  0  0  0  0  0  0
  160.9040  203.3940  145.7080 C   0  0  0  0  0  2  0  0  0  0  0  0
  160.4450  202.3030  144.9640 O   0  0  0  0  0  1  0  0  0  0  0  0
  1  9  1  0  0  0  0
  2  8  1  0  0  0  0
  3 10  1  0  0  0  0
  4 13  1  0  0  0  0
  5  1  1  0  0  0  0
  5  2  1  0  0  0  0
  6  4  1  0  0  0  0
  6 12  1  0  0  0  0
  7  3  2  0  0  0  0
  8 14  1  0  0  0  0
  8 11  1  0  0  0  0
  9 14  1  0  0  0  0
 10 11  2  0  0  0  0
 11 17  1  0  0  0  0
 12  7  1  0  0  0  0
 13  2  1  0  0  0  0
 13  3  1  0  0  0  0
 15 16  1  0  0  0  0
 15 21  1  0  0  0  0
 17 20  2  0  0  0  0
 17 19  1  0  0  0  0
 18 16  2  0  0  0  0
 19 15  2  0  0  0  0
 20 18  1  0  0  0  0
 22 24  1  0  0  0  0
 22  1  1  0  0  0  0
 23 22  1  0  0  0  0
 25  5  1  0  0  0  0
 26 25  1  0  0  0  0
 28 12  1  0  0  0  0
 28 27  1  0  0  0  0
 29 28  1  0  0  0  0
 30 31  1  0  0  0  0
 30 29  1  0  0  0  0
 32 31  1  0  0  0  0
 33 30  1  0  0  0  0
 34 33  1  0  0  0  0
M  END
>  <MODEL>
6

>  <REMARK>
 VINA RESULT:      -3.7      2.473      5.710
  Name = 
  8 active torsions:
  status: ('A' for Active; 'I' for Inactive)
    1  A    between atoms: N_1  and  C_6
    2  A    between atoms: C_2  and  C_15
    3  A    between atoms: C_11  and  CA_20
    4  A    between atoms: C_12  and  C_28
    5  A    between atoms: N_13  and  CA_20
    6  A    between atoms: N_13  and  C_33
    7  A    between atoms: CB_14  and  CA_20
    8  A    between atoms: C_29  and  C_33
                            x       y       z     vdW  Elec       q    Type
                         _______ _______ _______ _____ _____    ______ ____

>  <TORSDO>
F 8

$$$$
=
 OpenBabel11062408103D

 34 37  0  0  1  0  0  0  0  0999 V2000
  161.4650  208.5950  153.2170 N   0  0  0  0  0  0  0  0  0  0  0  0
  161.3840  209.5600  150.8800 C   0  0  2  0  0  3  0  0  0  0  0  0
  161.5270  210.1880  148.5000 C   0  0  0  0  0  0  0  0  0  0  0  0
  161.5580  212.0040  150.2600 C   0  0  0  0  0  2  0  0  0  0  0  0
  161.7820  209.7730  152.3650 C   0  0  2  0  0  3  0  0  0  0  0  0
  161.9890  212.9480  149.1450 C   0  0  0  0  0  2  0  0  0  0  0  0
  161.2760  211.1100  147.5640 C   0  0  0  0  0  3  0  0  0  0  0  0
  161.6620  208.1040  150.4890 C   0  0  2  0  0  3  0  0  0  0  0  0
  160.3630  207.7920  152.6710 C   0  0  0  0  0  2  0  0  0  0  0  0
  161.5140  208.8050  148.1330 N   0  0  0  0  0  0  0  0  0  0  0  0
  161.5830  207.8240  148.9880 C   0  0  0  0  0  0  0  0  0  0  0  0
  161.2300  212.5840  147.8650 C   0  0  2  0  0  3  0  0  0  0  0  0
  161.9650  210.5720  149.8940 C   0  0  1  0  0  3  0  0  0  0  0  0
  160.7200  207.1990  151.2990 C   0  0  0  0  0  2  0  0  0  0  0  0
  161.2550  204.0640  148.6410 C   0  0  0  0  0  0  0  0  0  0  0  0
  161.9490  203.8320  147.4490 C   0  0  0  0  0  3  0  0  0  0  0  0
  161.7420  206.4440  148.4680 C   0  0  0  0  0  0  0  0  0  0  0  0
  162.5440  204.8980  146.7660 C   0  0  0  0  0  3  0  0  0  0  0  0
  161.1540  205.3620  149.1480 C   0  0  0  0  0  3  0  0  0  0  0  0
  162.4340  206.1960  147.2690 C   0  0  0  0  0  3  0  0  0  0  0  0
  160.6700  203.0310  149.2990 F   0  0  0  0  0  0  0  0  0  0  0  0
  161.0830  208.9910  154.5840 C   0  0  0  0  0  3  0  0  0  0  0  0
  159.9650  210.0230  154.5710 C   0  0  0  0  0  1  0  0  0  0  0  0
  160.7250  207.8140  155.4900 C   0  0  0  0  0  1  0  0  0  0  0  0
  163.2570  210.1770  152.5350 C   0  0  0  0  0  2  0  0  0  0  0  0
  163.5590  210.7050  153.9300 C   0  0  0  0  0  1  0  0  0  0  0  0
  162.5160  214.4520  147.0530 O   0  0  0  0  0  1  0  0  0  0  0  0
  161.6960  213.3930  146.6540 C   0  0  2  0  0  3  0  0  0  0  0  0
  160.5580  213.9130  145.9020 N   0  0  0  0  0  2  0  0  0  0  0  0
  160.6100  213.3690  144.5500 C   0  0  0  0  0  3  0  0  0  0  0  0
  162.0320  212.9370  144.2180 C   0  0  0  0  0  2  0  0  0  0  0  0
  162.0860  212.3630  142.9410 O   0  0  0  0  0  1  0  0  0  0  0  0
  159.6400  212.2020  144.4030 C   0  0  0  0  0  2  0  0  0  0  0  0
  158.5060  212.4350  145.1850 O   0  0  0  0  0  1  0  0  0  0  0  0
  1 22  1  0  0  0  0
  2  5  1  0  0  0  0
  3 13  1  0  0  0  0
  5 25  1  0  0  0  0
  5  1  1  0  0  0  0
  6  4  1  0  0  0  0
  7 12  1  0  0  0  0
  7  3  2  0  0  0  0
  8  2  1  0  0  0  0
  8 14  1  0  0  0  0
  9  1  1  0  0  0  0
 10  3  1  0  0  0  0
 10 11  2  0  0  0  0
 11  8  1  0  0  0  0
 12  6  1  0  0  0  0
 13  4  1  0  0  0  0
 13  2  1  0  0  0  0
 14  9  1  0  0  0  0
 15 19  1  0  0  0  0
 15 21  1  0  0  0  0
 16 15  2  0  0  0  0
 17 11  1  0  0  0  0
 17 19  2  0  0  0  0
 18 20  2  0  0  0  0
 18 16  1  0  0  0  0
 20 17  1  0  0  0  0
 22 24  1  0  0  0  0
 23 22  1  0  0  0  0
 25 26  1  0  0  0  0
 28 27  1  0  0  0  0
 28 12  1  0  0  0  0
 29 28  1  0  0  0  0
 30 29  1  0  0  0  0
 31 30  1  0  0  0  0
 32 31  1  0  0  0  0
 33 30  1  0  0  0  0
 33 34  1  0  0  0  0
M  END
>  <MODEL>
7

>  <REMARK>
 VINA RESULT:      -3.4      3.926      7.173
  Name = 
  8 active torsions:
  status: ('A' for Active; 'I' for Inactive)
    1  A    between atoms: N_1  and  C_6
    2  A    between atoms: C_2  and  C_15
    3  A    between atoms: C_11  and  CA_20
    4  A    between atoms: C_12  and  C_28
    5  A    between atoms: N_13  and  CA_20
    6  A    between atoms: N_13  and  C_33
    7  A    between atoms: CB_14  and  CA_20
    8  A    between atoms: C_29  and  C_33
                            x       y       z     vdW  Elec       q    Type
                         _______ _______ _______ _____ _____    ______ ____

>  <TORSDO>
F 8

$$$$
=
 OpenBabel11062408103D

 34 37  0  0  1  0  0  0  0  0999 V2000
  157.6660  212.2940  155.8670 N   0  0  0  0  0  0  0  0  0  0  0  0
  158.7680  212.1100  153.5970 C   0  0  2  0  0  3  0  0  0  0  0  0
  160.1050  211.6980  151.5680 C   0  0  0  0  0  0  0  0  0  0  0  0
  159.0620  213.9740  151.9170 C   0  0  0  0  0  2  0  0  0  0  0  0
  158.2990  213.0420  154.7470 C   0  0  2  0  0  3  0  0  0  0  0  0
  159.9470  214.4530  150.7740 C   0  0  0  0  0  2  0  0  0  0  0  0
  160.3220  212.0030  150.2840 C   0  0  0  0  0  3  0  0  0  0  0  0
  159.3180  210.8100  154.1960 C   0  0  2  0  0  3  0  0  0  0  0  0
  157.0850  211.0180  155.4300 C   0  0  0  0  0  2  0  0  0  0  0  0
  160.3920  210.3720  152.0240 N   0  0  0  0  0  0  0  0  0  0  0  0
  160.0690  209.9230  153.2040 C   0  0  0  0  0  0  0  0  0  0  0  0
  160.0140  213.3580  149.7060 C   0  0  2  0  0  3  0  0  0  0  0  0
  159.7060  212.7500  152.5760 C   0  0  1  0  0  3  0  0  0  0  0  0
  158.1600  210.0660  154.8810 C   0  0  0  0  0  2  0  0  0  0  0  0
  161.4140  206.3830  153.0210 C   0  0  0  0  0  0  0  0  0  0  0  0
  161.6450  206.1030  154.3720 C   0  0  0  0  0  3  0  0  0  0  0  0
  160.5820  208.5940  153.6180 C   0  0  0  0  0  0  0  0  0  0  0  0
  161.3440  207.0580  155.3470 C   0  0  0  0  0  3  0  0  0  0  0  0
  160.8840  207.6210  152.6460 C   0  0  0  0  0  3  0  0  0  0  0  0
  160.8220  208.2990  154.9710 C   0  0  0  0  0  3  0  0  0  0  0  0
  161.7150  205.4600  152.0730 F   0  0  0  0  0  0  0  0  0  0  0  0
  156.5890  213.0700  156.5070 C   0  0  0  0  0  3  0  0  0  0  0  0
  155.9700  214.0650  155.5360 C   0  0  0  0  0  1  0  0  0  0  0  0
  155.5110  212.2060  157.1590 C   0  0  0  0  0  1  0  0  0  0  0  0
  159.4230  213.9500  155.2750 C   0  0  0  0  0  2  0  0  0  0  0  0
  160.0300  213.4340  156.5710 C   0  0  0  0  0  1  0  0  0  0  0  0
  162.0690  214.4380  149.0630 O   0  0  0  0  0  1  0  0  0  0  0  0
  160.9900  213.6940  148.5770 C   0  0  2  0  0  3  0  0  0  0  0  0
  160.3240  214.4380  147.5130 N   0  0  0  0  0  2  0  0  0  0  0  0
  160.1120  213.5390  146.3840 C   0  0  0  0  0  3  0  0  0  0  0  0
  158.7460  213.7980  145.7630 C   0  0  0  0  0  2  0  0  0  0  0  0
  157.9230  212.6720  145.8960 O   0  0  0  0  0  1  0  0  0  0  0  0
  161.2190  213.7060  145.3500 C   0  0  0  0  0  2  0  0  0  0  0  0
  161.0010  212.8280  144.2850 O   0  0  0  0  0  1  0  0  0  0  0  0
  1 22  1  0  0  0  0
  2  8  1  0  0  0  0
  2  5  1  0  0  0  0
  3 10  1  0  0  0  0
  3 13  1  0  0  0  0
  4 13  1  0  0  0  0
  5 25  1  0  0  0  0
  5  1  1  0  0  0  0
  6  4  1  0  0  0  0
  7  3  2  0  0  0  0
  8 14  1  0  0  0  0
  9  1  1  0  0  0  0
 10 11  2  0  0  0  0
 11 17  1  0  0  0  0
 11  8  1  0  0  0  0
 12  7  1  0  0  0  0
 12  6  1  0  0  0  0
 13  2  1  0  0  0  0
 14  9  1  0  0  0  0
 15 16  1  0  0  0  0
 16 18  2  0  0  0  0
 17 20  2  0  0  0  0
 19 15  2  0  0  0  0
 19 17  1  0  0  0  0
 20 18  1  0  0  0  0
 21 15  1  0  0  0  0
 22 24  1  0  0  0  0
 23 22  1  0  0  0  0
 25 26  1  0  0  0  0
 28 27  1  0  0  0  0
 28 12  1  0  0  0  0
 29 28  1  0  0  0  0
 30 29  1  0  0  0  0
 31 32  1  0  0  0  0
 31 30  1  0  0  0  0
 33 30  1  0  0  0  0
 34 33  1  0  0  0  0
M  END
>  <MODEL>
8

>  <REMARK>
 VINA RESULT:      -3.4      4.594      7.682
  Name = 
  8 active torsions:
  status: ('A' for Active; 'I' for Inactive)
    1  A    between atoms: N_1  and  C_6
    2  A    between atoms: C_2  and  C_15
    3  A    between atoms: C_11  and  CA_20
    4  A    between atoms: C_12  and  C_28
    5  A    between atoms: N_13  and  CA_20
    6  A    between atoms: N_13  and  C_33
    7  A    between atoms: CB_14  and  CA_20
    8  A    between atoms: C_29  and  C_33
                            x       y       z     vdW  Elec       q    Type
                         _______ _______ _______ _____ _____    ______ ____

>  <TORSDO>
F 8

$$$$
