=
 OpenBabel11052423003D

 28 32  0  0  1  0  0  0  0  0999 V2000
  160.9570  207.1680  151.8120 C   0  0  0  0  0  0  0  0  0  0  0  0
  161.0510  206.3050  146.7140 C   0  0  0  0  0  2  0  0  0  0  0  0
  161.5130  202.2560  151.3140 C   0  0  0  0  0  1  0  0  0  0  0  0
  161.6420  203.9180  146.6990 C   0  0  2  0  0  3  0  0  0  0  0  0
  161.1820  204.9590  148.8300 N   0  0  1  0  0  0  0  0  0  0  0  0
  161.0300  204.9830  144.5710 C   0  0  0  0  0  0  0  0  0  0  0  0
  160.8000  204.9720  147.4200 C   0  0  1  0  0  3  0  0  0  0  0  0
  160.8310  202.4740  148.5070 C   0  0  0  0  0  2  0  0  0  0  0  0
  161.0960  203.6680  145.3020 C   0  0  0  0  0  2  0  0  0  0  0  0
  161.1870  204.7450  151.6040 C   0  0  0  0  0  0  0  0  0  0  0  0
  160.5490  206.0630  149.5560 C   0  0  0  0  0  2  0  0  0  0  0  0
  161.8470  202.6780  147.4680 N   0  0  0  0  0  2  0  0  0  0  0  0
  161.5820  205.8290  153.7380 C   0  0  0  0  0  3  0  0  0  0  0  0
  161.1350  203.5620  150.7810 N   0  0  0  0  0  0  0  0  0  0  0  0
  161.5250  204.6710  152.9620 C   0  0  0  0  0  3  0  0  0  0  0  0
  161.3080  205.0310  143.3850 O   0  0  0  0  0  0  0  0  0  0  0  0
  160.5290  206.2220  145.2730 C   0  0  0  0  0  2  0  0  0  0  0  0
  160.6400  203.7200  149.4090 C   0  0  1  0  0  3  0  0  0  0  0  0
  161.2990  207.0700  153.1660 C   0  0  0  0  0  3  0  0  0  0  0  0
  160.9180  206.0040  151.0210 C   0  0  0  0  0  0  0  0  0  0  0  0
  160.6460  208.5250  151.2310 C   0  0  0  0  0  2  0  0  0  0  0  0
  161.8270  209.2280  150.7110 N   0  0  0  0  0  0  0  0  0  0  0  0
  162.2020  210.6720  148.9650 C   0  0  0  0  0  0  0  0  0  0  0  0
  161.8660  210.4920  151.2500 O   0  0  0  0  0  0  0  0  0  0  0  0
  162.7060  208.3130  148.6360 C   0  0  0  0  0  1  0  0  0  0  0  0
  161.7560  209.3190  149.2580 C   0  0  1  0  0  3  0  0  0  0  0  0
  161.8410  211.2860  147.9010 N   0  0  0  0  0  2  0  0  0  0  0  0
  162.3310  211.3680  150.2490 C   0  0  0  0  0  2  0  0  0  0  0  0
  1 19  1  0  0  0  0
  4  9  1  6  0  0  0
  4  7  1  0  0  0  0
  4 12  1  0  0  0  0
  5 18  1  0  0  0  0
  5 11  1  1  0  0  0
  6 17  1  0  0  0  0
  6  9  1  0  0  0  0
  7  2  1  6  0  0  0
  7  5  1  0  0  0  0
 10 15  2  0  0  0  0
 11 20  1  0  0  0  0
 12  8  1  0  0  0  0
 14  3  1  0  0  0  0
 14 10  1  0  0  0  0
 15 13  1  0  0  0  0
 16  6  2  0  0  0  0
 17  2  1  0  0  0  0
 18  8  1  6  0  0  0
 18 14  1  0  0  0  0
 19 13  2  0  0  0  0
 20 10  1  0  0  0  0
 20  1  2  0  0  0  0
 21  1  1  0  0  0  0
 22 21  1  0  0  0  0
 22 24  1  0  0  0  0
 23 26  1  0  0  0  0
 23 28  1  0  0  0  0
 26 25  1  6  0  0  0
 26 22  1  0  0  0  0
 27 23  2  0  0  0  0
 28 24  1  0  0  0  0
M  END
>  <MODEL>
1

>  <REMARK>
 VINA RESULT:      -7.8      0.000      0.000
  Name = 
  2 active torsions:
  status: ('A' for Active; 'I' for Inactive)
    1  A    between atoms: C_1  and  C_2
    2  A    between atoms: C_2  and  N_3
                            x       y       z     vdW  Elec       q    Type
                         _______ _______ _______ _____ _____    ______ ____

>  <TORSDO>
F 2

$$$$
=
 OpenBabel11052423003D

 28 32  0  0  1  0  0  0  0  0999 V2000
  161.9420  209.5820  149.8520 C   0  0  0  0  0  0  0  0  0  0  0  0
  161.5910  205.3040  146.9670 C   0  0  0  0  0  2  0  0  0  0  0  0
  161.1230  205.8840  153.0670 C   0  0  0  0  0  1  0  0  0  0  0  0
  161.5100  203.6020  148.7400 C   0  0  2  0  0  3  0  0  0  0  0  0
  161.4360  205.9270  149.3950 N   0  0  1  0  0  0  0  0  0  0  0  0
  161.1230  202.8920  146.4200 C   0  0  0  0  0  0  0  0  0  0  0  0
  161.0160  204.9970  148.3500 C   0  0  1  0  0  3  0  0  0  0  0  0
  160.4110  204.1410  150.8650 C   0  0  0  0  0  2  0  0  0  0  0  0
  160.8590  202.5450  147.8610 C   0  0  0  0  0  2  0  0  0  0  0  0
  161.4970  207.7940  151.4560 C   0  0  0  0  0  0  0  0  0  0  0  0
  161.1580  207.3120  149.0080 C   0  0  0  0  0  2  0  0  0  0  0  0
  161.4000  203.3030  150.1780 N   0  0  0  0  0  2  0  0  0  0  0  0
  162.2580  209.9650  152.2290 C   0  0  0  0  0  3  0  0  0  0  0  0
  161.0920  206.4340  151.7150 N   0  0  0  0  0  0  0  0  0  0  0  0
  161.8570  208.6560  152.5010 C   0  0  0  0  0  3  0  0  0  0  0  0
  161.3550  202.0040  145.6160 O   0  0  0  0  0  0  0  0  0  0  0  0
  161.0070  204.3200  145.9440 C   0  0  0  0  0  2  0  0  0  0  0  0
  160.6020  205.6510  150.5750 C   0  0  1  0  0  3  0  0  0  0  0  0
  162.3000  210.4240  150.9110 C   0  0  0  0  0  3  0  0  0  0  0  0
  161.5570  208.2550  150.1210 C   0  0  0  0  0  0  0  0  0  0  0  0
  161.9890  210.1170  148.4430 C   0  0  0  0  0  2  0  0  0  0  0  0
  161.7810  211.5690  148.3550 N   0  0  0  0  0  0  0  0  0  0  0  0
  162.0130  213.1300  146.6870 C   0  0  0  0  0  0  0  0  0  0  0  0
  160.5200  211.8090  147.8670 O   0  0  0  0  0  0  0  0  0  0  0  0
  163.8340  212.8720  148.2820 C   0  0  0  0  0  1  0  0  0  0  0  0
  162.7710  212.1630  147.4640 C   0  0  1  0  0  3  0  0  0  0  0  0
  162.3850  213.4980  145.5180 N   0  0  0  0  0  2  0  0  0  0  0  0
  160.5980  212.9300  147.0150 C   0  0  0  0  0  2  0  0  0  0  0  0
  1 20  2  0  0  0  0
  1 19  1  0  0  0  0
  4  9  1  6  0  0  0
  4 12  1  0  0  0  0
  5 11  1  6  0  0  0
  5 18  1  0  0  0  0
  6  9  1  0  0  0  0
  7  2  1  6  0  0  0
  7  4  1  0  0  0  0
  7  5  1  0  0  0  0
 10 14  1  0  0  0  0
 10 15  2  0  0  0  0
 11 20  1  0  0  0  0
 12  8  1  0  0  0  0
 13 15  1  0  0  0  0
 14  3  1  0  0  0  0
 16  6  2  0  0  0  0
 17  6  1  0  0  0  0
 17  2  1  0  0  0  0
 18  8  1  1  0  0  0
 18 14  1  0  0  0  0
 19 13  2  0  0  0  0
 20 10  1  0  0  0  0
 21  1  1  0  0  0  0
 22 21  1  0  0  0  0
 23 28  1  0  0  0  0
 23 26  1  0  0  0  0
 24 22  1  0  0  0  0
 26 25  1  1  0  0  0
 26 22  1  0  0  0  0
 27 23  2  0  0  0  0
 28 24  1  0  0  0  0
M  END
>  <MODEL>
2

>  <REMARK>
 VINA RESULT:      -7.7      1.993      3.172
  Name = 
  2 active torsions:
  status: ('A' for Active; 'I' for Inactive)
    1  A    between atoms: C_1  and  C_2
    2  A    between atoms: C_2  and  N_3
                            x       y       z     vdW  Elec       q    Type
                         _______ _______ _______ _____ _____    ______ ____

>  <TORSDO>
F 2

$$$$
=
 OpenBabel11052423003D

 28 32  0  0  1  0  0  0  0  0999 V2000
  161.0920  207.8380  152.0500 C   0  0  0  0  0  0  0  0  0  0  0  0
  161.2740  206.6100  147.0290 C   0  0  0  0  0  2  0  0  0  0  0  0
  161.2550  202.8740  151.9090 C   0  0  0  0  0  1  0  0  0  0  0  0
  161.6650  204.1880  147.1990 C   0  0  2  0  0  3  0  0  0  0  0  0
  161.2260  205.4110  149.2360 N   0  0  1  0  0  0  0  0  0  0  0  0
  161.2100  205.1450  144.9830 C   0  0  0  0  0  0  0  0  0  0  0  0
  160.8920  205.3550  147.8160 C   0  0  1  0  0  3  0  0  0  0  0  0
  160.6810  202.9460  149.0710 C   0  0  0  0  0  2  0  0  0  0  0  0
  161.1440  203.8840  145.8030 C   0  0  0  0  0  2  0  0  0  0  0  0
  161.1280  205.3950  152.0160 C   0  0  0  0  0  0  0  0  0  0  0  0
  160.6650  206.6120  149.8610 C   0  0  0  0  0  2  0  0  0  0  0  0
  161.7420  202.9940  148.0580 N   0  0  0  0  0  2  0  0  0  0  0  0
  161.5440  206.5930  154.0850 C   0  0  0  0  0  3  0  0  0  0  0  0
  161.0040  204.1650  151.2740 N   0  0  0  0  0  0  0  0  0  0  0  0
  161.4150  205.3910  153.3880 C   0  0  0  0  0  3  0  0  0  0  0  0
  161.5280  205.0860  143.8070 O   0  0  0  0  0  0  0  0  0  0  0  0
  160.7910  206.4670  145.5800 C   0  0  0  0  0  2  0  0  0  0  0  0
  160.5660  204.2640  149.8780 C   0  0  1  0  0  3  0  0  0  0  0  0
  161.3830  207.8090  153.4190 C   0  0  0  0  0  3  0  0  0  0  0  0
  160.9820  206.6280  151.3390 C   0  0  0  0  0  0  0  0  0  0  0  0
  160.9140  209.1700  151.3660 C   0  0  0  0  0  2  0  0  0  0  0  0
  160.9910  210.3180  152.2810 N   0  0  0  0  0  0  0  0  0  0  0  0
  160.3010  210.7090  154.4360 C   0  0  0  0  0  0  0  0  0  0  0  0
  162.1010  210.1780  153.0780 O   0  0  0  0  0  0  0  0  0  0  0  0
  158.8780  211.4760  152.6160 C   0  0  0  0  0  1  0  0  0  0  0  0
  159.7960  210.3750  153.1140 C   0  0  1  0  0  3  0  0  0  0  0  0
  159.6660  210.3890  155.5020 N   0  0  0  0  0  2  0  0  0  0  0  0
  161.7640  210.6450  154.3650 C   0  0  0  0  0  2  0  0  0  0  0  0
  1 19  1  0  0  0  0
  4  9  1  6  0  0  0
  4  7  1  0  0  0  0
  4 12  1  0  0  0  0
  5 11  1  1  0  0  0
  5 18  1  0  0  0  0
  6 17  1  0  0  0  0
  6  9  1  0  0  0  0
  7  2  1  6  0  0  0
  7  5  1  0  0  0  0
 10 15  2  0  0  0  0
 11 20  1  0  0  0  0
 12  8  1  0  0  0  0
 14  3  1  0  0  0  0
 14 10  1  0  0  0  0
 15 13  1  0  0  0  0
 16  6  2  0  0  0  0
 17  2  1  0  0  0  0
 18  8  1  6  0  0  0
 18 14  1  0  0  0  0
 19 13  2  0  0  0  0
 20 10  1  0  0  0  0
 20  1  2  0  0  0  0
 21  1  1  0  0  0  0
 21 22  1  0  0  0  0
 22 24  1  0  0  0  0
 22 26  1  0  0  0  0
 23 27  2  0  0  0  0
 24 28  1  0  0  0  0
 26 25  1  6  0  0  0
 26 23  1  0  0  0  0
 28 23  1  0  0  0  0
M  END
>  <MODEL>
3

>  <REMARK>
 VINA RESULT:      -7.7      1.863      2.623
  Name = 
  2 active torsions:
  status: ('A' for Active; 'I' for Inactive)
    1  A    between atoms: C_1  and  C_2
    2  A    between atoms: C_2  and  N_3
                            x       y       z     vdW  Elec       q    Type
                         _______ _______ _______ _____ _____    ______ ____

>  <TORSDO>
F 2

$$$$
=
 OpenBabel11052423003D

 28 32  0  0  1  0  0  0  0  0999 V2000
  161.1740  206.6940  151.3660 C   0  0  0  0  0  0  0  0  0  0  0  0
  159.2560  211.4230  152.2070 C   0  0  0  0  0  2  0  0  0  0  0  0
  160.6380  207.0450  156.2930 C   0  0  0  0  0  1  0  0  0  0  0  0
  158.7800  211.2650  154.6150 C   0  0  2  0  0  3  0  0  0  0  0  0
  159.9510  209.4300  153.5680 N   0  0  1  0  0  0  0  0  0  0  0  0
  158.5390  213.4500  153.5170 C   0  0  0  0  0  0  0  0  0  0  0  0
  159.7910  210.8810  153.5340 C   0  0  1  0  0  3  0  0  0  0  0  0
  160.2420  209.9040  156.0360 C   0  0  0  0  0  2  0  0  0  0  0  0
  158.7870  212.7700  154.8370 C   0  0  0  0  0  2  0  0  0  0  0  0
  160.9640  206.8490  153.7950 C   0  0  0  0  0  0  0  0  0  0  0  0
  160.7670  208.9640  152.4440 C   0  0  0  0  0  2  0  0  0  0  0  0
  158.9110  210.4980  155.8650 N   0  0  0  0  0  2  0  0  0  0  0  0
  161.3390  204.6980  152.7370 C   0  0  0  0  0  3  0  0  0  0  0  0
  160.7520  207.6560  154.9710 N   0  0  0  0  0  0  0  0  0  0  0  0
  161.1480  205.4630  153.8890 C   0  0  0  0  0  3  0  0  0  0  0  0
  157.8460  214.4530  153.4740 O   0  0  0  0  0  0  0  0  0  0  0  0
  159.2200  212.9560  152.2630 C   0  0  0  0  0  2  0  0  0  0  0  0
  160.7080  209.1110  154.7880 C   0  0  1  0  0  3  0  0  0  0  0  0
  161.3530  205.3110  151.4840 C   0  0  0  0  0  3  0  0  0  0  0  0
  160.9600  207.4670  152.5240 C   0  0  0  0  0  0  0  0  0  0  0  0
  161.2060  207.3240  149.9960 C   0  0  0  0  0  2  0  0  0  0  0  0
  161.8540  206.4870  148.9770 N   0  0  0  0  0  0  0  0  0  0  0  0
  161.3170  205.8520  146.8360 C   0  0  0  0  0  0  0  0  0  0  0  0
  162.5810  207.2930  148.1360 O   0  0  0  0  0  0  0  0  0  0  0  0
  160.8100  204.3130  148.6530 C   0  0  0  0  0  1  0  0  0  0  0  0
  160.8470  205.7640  148.2090 C   0  0  1  0  0  3  0  0  0  0  0  0
  160.5140  205.7740  145.8410 N   0  0  0  0  0  2  0  0  0  0  0  0
  162.4580  206.7720  146.8320 C   0  0  0  0  0  2  0  0  0  0  0  0
  1 19  2  0  0  0  0
  1 20  1  0  0  0  0
  2 17  1  0  0  0  0
  4  9  1  1  0  0  0
  4 12  1  0  0  0  0
  5 11  1  6  0  0  0
  5 18  1  0  0  0  0
  6  9  1  0  0  0  0
  7  2  1  6  0  0  0
  7  5  1  0  0  0  0
  7  4  1  0  0  0  0
 10 15  1  0  0  0  0
 10 14  1  0  0  0  0
 11 20  1  0  0  0  0
 12  8  1  0  0  0  0
 13 15  2  0  0  0  0
 14  3  1  0  0  0  0
 16  6  2  0  0  0  0
 17  6  1  0  0  0  0
 18 14  1  0  0  0  0
 18  8  1  1  0  0  0
 19 13  1  0  0  0  0
 20 10  2  0  0  0  0
 21  1  1  0  0  0  0
 22 21  1  0  0  0  0
 23 26  1  0  0  0  0
 24 22  1  0  0  0  0
 26 25  1  1  0  0  0
 26 22  1  0  0  0  0
 27 23  2  0  0  0  0
 28 23  1  0  0  0  0
 28 24  1  0  0  0  0
M  END
>  <MODEL>
4

>  <REMARK>
 VINA RESULT:      -7.6      3.328      7.411
  Name = 
  2 active torsions:
  status: ('A' for Active; 'I' for Inactive)
    1  A    between atoms: C_1  and  C_2
    2  A    between atoms: C_2  and  N_3
                            x       y       z     vdW  Elec       q    Type
                         _______ _______ _______ _____ _____    ______ ____

>  <TORSDO>
F 2

$$$$
=
 OpenBabel11052423003D

 28 32  0  0  1  0  0  0  0  0999 V2000
  161.5870  203.5770  148.9250 C   0  0  0  0  0  0  0  0  0  0  0  0
  161.8290  208.7420  148.7900 C   0  0  0  0  0  2  0  0  0  0  0  0
  160.8310  205.0580  153.6070 C   0  0  0  0  0  1  0  0  0  0  0  0
  161.1260  209.2600  151.0890 C   0  0  2  0  0  3  0  0  0  0  0  0
  161.4770  206.9420  150.5060 N   0  0  1  0  0  0  0  0  0  0  0  0
  161.9460  211.0950  149.6760 C   0  0  0  0  0  0  0  0  0  0  0  0
  161.9620  208.2940  150.2470 C   0  0  1  0  0  3  0  0  0  0  0  0
  161.7300  207.7200  152.9000 C   0  0  0  0  0  2  0  0  0  0  0  0
  161.7620  210.6410  151.1000 C   0  0  0  0  0  2  0  0  0  0  0  0
  161.2550  204.2690  151.2450 C   0  0  0  0  0  0  0  0  0  0  0  0
  162.1070  205.9760  149.6010 C   0  0  0  0  0  2  0  0  0  0  0  0
  160.8050  208.7620  152.4380 N   0  0  0  0  0  2  0  0  0  0  0  0
  160.7560  201.9930  150.5670 C   0  0  0  0  0  3  0  0  0  0  0  0
  161.3100  205.3020  152.2500 N   0  0  0  0  0  0  0  0  0  0  0  0
  160.8140  202.9760  151.5570 C   0  0  0  0  0  3  0  0  0  0  0  0
  161.7590  212.2650  149.3860 O   0  0  0  0  0  0  0  0  0  0  0  0
  162.4530  210.1350  148.6280 C   0  0  0  0  0  2  0  0  0  0  0  0
  161.9140  206.5820  151.8630 C   0  0  1  0  0  3  0  0  0  0  0  0
  161.1400  202.2930  149.2590 C   0  0  0  0  0  3  0  0  0  0  0  0
  161.6270  204.5770  149.9170 C   0  0  0  0  0  0  0  0  0  0  0  0
  162.0040  203.8620  147.5040 C   0  0  0  0  0  2  0  0  0  0  0  0
  160.8830  204.1940  146.6150 N   0  0  0  0  0  0  0  0  0  0  0  0
  160.7120  205.0660  144.4970 C   0  0  0  0  0  0  0  0  0  0  0  0
  160.6540  203.1330  145.7730 O   0  0  0  0  0  0  0  0  0  0  0  0
  160.4560  206.5780  146.3880 C   0  0  0  0  0  1  0  0  0  0  0  0
  161.2020  205.3800  145.8290 C   0  0  1  0  0  3  0  0  0  0  0  0
  161.2060  205.6120  143.4490 N   0  0  0  0  0  2  0  0  0  0  0  0
  160.3070  203.6570  144.5110 C   0  0  0  0  0  2  0  0  0  0  0  0
  1 19  2  0  0  0  0
  1 20  1  0  0  0  0
  4  9  1  1  0  0  0
  4 12  1  0  0  0  0
  5 11  1  6  0  0  0
  5 18  1  0  0  0  0
  6  9  1  0  0  0  0
  7  2  1  6  0  0  0
  7  5  1  0  0  0  0
  7  4  1  0  0  0  0
 10 15  1  0  0  0  0
 10 14  1  0  0  0  0
 11 20  1  0  0  0  0
 12  8  1  0  0  0  0
 13 15  2  0  0  0  0
 14  3  1  0  0  0  0
 16  6  2  0  0  0  0
 17  2  1  0  0  0  0
 17  6  1  0  0  0  0
 18 14  1  0  0  0  0
 18  8  1  1  0  0  0
 19 13  1  0  0  0  0
 20 10  2  0  0  0  0
 21  1  1  0  0  0  0
 22 21  1  0  0  0  0
 23 28  1  0  0  0  0
 23 26  1  0  0  0  0
 24 22  1  0  0  0  0
 26 25  1  1  0  0  0
 26 22  1  0  0  0  0
 27 23  2  0  0  0  0
 28 24  1  0  0  0  0
M  END
>  <MODEL>
5

>  <REMARK>
 VINA RESULT:      -7.4      1.723      5.986
  Name = 
  2 active torsions:
  status: ('A' for Active; 'I' for Inactive)
    1  A    between atoms: C_1  and  C_2
    2  A    between atoms: C_2  and  N_3
                            x       y       z     vdW  Elec       q    Type
                         _______ _______ _______ _____ _____    ______ ____

>  <TORSDO>
F 2

$$$$
=
 OpenBabel11052423003D

 28 32  0  0  1  0  0  0  0  0999 V2000
  160.8520  208.7890  153.4450 C   0  0  0  0  0  0  0  0  0  0  0  0
  160.5660  204.1940  151.0890 C   0  0  0  0  0  2  0  0  0  0  0  0
  161.9610  209.6740  148.6830 C   0  0  0  0  0  1  0  0  0  0  0  0
  160.8270  204.9000  148.7480 C   0  0  2  0  0  3  0  0  0  0  0  0
  161.1080  206.5680  150.4740 N   0  0  1  0  0  0  0  0  0  0  0  0
  160.8310  202.4950  149.2500 C   0  0  0  0  0  0  0  0  0  0  0  0
  161.3240  205.1550  150.1720 C   0  0  1  0  0  3  0  0  0  0  0  0
  162.2540  206.8270  148.2330 C   0  0  0  0  0  2  0  0  0  0  0  0
  161.2890  203.5350  148.2620 C   0  0  0  0  0  2  0  0  0  0  0  0
  161.4440  209.2520  151.1200 C   0  0  0  0  0  0  0  0  0  0  0  0
  161.3920  206.8530  151.8820 C   0  0  0  0  0  2  0  0  0  0  0  0
  161.1340  205.9840  147.7990 N   0  0  0  0  0  2  0  0  0  0  0  0
  160.9110  211.0750  152.6300 C   0  0  0  0  0  3  0  0  0  0  0  0
  161.8170  208.7640  149.8160 N   0  0  0  0  0  0  0  0  0  0  0  0
  161.2850  210.6230  151.3640 C   0  0  0  0  0  3  0  0  0  0  0  0
  160.4400  201.4110  148.8500 O   0  0  0  0  0  0  0  0  0  0  0  0
  160.9440  202.7490  150.7330 C   0  0  0  0  0  2  0  0  0  0  0  0
  162.0940  207.3280  149.6910 C   0  0  1  0  0  3  0  0  0  0  0  0
  160.6960  210.1620  153.6640 C   0  0  0  0  0  3  0  0  0  0  0  0
  161.2090  208.3270  152.1630 C   0  0  0  0  0  0  0  0  0  0  0  0
  160.6220  207.8330  154.5880 C   0  0  0  0  0  2  0  0  0  0  0  0
  160.3590  208.5000  155.8710 N   0  0  0  0  0  0  0  0  0  0  0  0
  160.7680  210.5990  156.7080 C   0  0  0  0  0  0  0  0  0  0  0  0
  159.1780  209.1950  155.7770 O   0  0  0  0  0  0  0  0  0  0  0  0
  162.3310  208.8160  157.2600 C   0  0  0  0  0  1  0  0  0  0  0  0
  161.4440  209.4210  156.1880 C   0  0  1  0  0  3  0  0  0  0  0  0
  161.2980  211.7630  156.6480 N   0  0  0  0  0  2  0  0  0  0  0  0
  159.3310  210.3970  156.4980 C   0  0  0  0  0  2  0  0  0  0  0  0
  1 19  1  0  0  0  0
  1 21  1  0  0  0  0
  3 14  1  0  0  0  0
  4  9  1  6  0  0  0
  4  7  1  0  0  0  0
  5 11  1  1  0  0  0
  6 17  1  0  0  0  0
  7  5  1  0  0  0  0
  7  2  1  1  0  0  0
  9  6  1  0  0  0  0
 10 15  2  0  0  0  0
 10 20  1  0  0  0  0
 11 20  1  0  0  0  0
 12  8  1  0  0  0  0
 12  4  1  0  0  0  0
 13 19  2  0  0  0  0
 14 10  1  0  0  0  0
 15 13  1  0  0  0  0
 16  6  2  0  0  0  0
 17  2  1  0  0  0  0
 18  8  1  6  0  0  0
 18 14  1  0  0  0  0
 18  5  1  0  0  0  0
 20  1  2  0  0  0  0
 21 22  1  0  0  0  0
 22 26  1  0  0  0  0
 24 22  1  0  0  0  0
 24 28  1  0  0  0  0
 26 23  1  0  0  0  0
 26 25  1  1  0  0  0
 27 23  2  0  0  0  0
 28 23  1  0  0  0  0
M  END
>  <MODEL>
6

>  <REMARK>
 VINA RESULT:      -7.2      3.166      5.353
  Name = 
  2 active torsions:
  status: ('A' for Active; 'I' for Inactive)
    1  A    between atoms: C_1  and  C_2
    2  A    between atoms: C_2  and  N_3
                            x       y       z     vdW  Elec       q    Type
                         _______ _______ _______ _____ _____    ______ ____

>  <TORSDO>
F 2

$$$$
=
 OpenBabel11052423003D

 28 32  0  0  1  0  0  0  0  0999 V2000
  160.9160  206.8070  151.8360 C   0  0  0  0  0  0  0  0  0  0  0  0
  161.1480  206.3150  146.6920 C   0  0  0  0  0  2  0  0  0  0  0  0
  161.2890  201.9260  150.9910 C   0  0  0  0  0  1  0  0  0  0  0  0
  161.6420  203.9120  146.5180 C   0  0  2  0  0  3  0  0  0  0  0  0
  161.1520  204.8140  148.7060 N   0  0  1  0  0  0  0  0  0  0  0  0
  161.1450  205.1560  144.4580 C   0  0  0  0  0  0  0  0  0  0  0  0
  160.8200  204.9460  147.2900 C   0  0  1  0  0  3  0  0  0  0  0  0
  160.7120  202.3770  148.1880 C   0  0  0  0  0  2  0  0  0  0  0  0
  161.1330  203.7890  145.0900 C   0  0  0  0  0  2  0  0  0  0  0  0
  161.0550  204.3980  151.4550 C   0  0  0  0  0  0  0  0  0  0  0  0
  160.5410  205.8890  149.4920 C   0  0  0  0  0  2  0  0  0  0  0  0
  161.7690  202.6130  147.1990 N   0  0  0  0  0  2  0  0  0  0  0  0
  161.4210  205.3050  153.6750 C   0  0  0  0  0  3  0  0  0  0  0  0
  160.9830  203.2820  150.5450 N   0  0  0  0  0  0  0  0  0  0  0  0
  161.3430  204.2100  152.8130 C   0  0  0  0  0  3  0  0  0  0  0  0
  161.4650  205.2780  143.2870 O   0  0  0  0  0  0  0  0  0  0  0  0
  160.6720  206.3600  145.2340 C   0  0  0  0  0  2  0  0  0  0  0  0
  160.5410  203.5600  149.1740 C   0  0  1  0  0  3  0  0  0  0  0  0
  161.2080  206.5960  153.1880 C   0  0  0  0  0  3  0  0  0  0  0  0
  160.8570  205.7070  150.9590 C   0  0  0  0  0  0  0  0  0  0  0  0
  160.6820  208.2150  151.3480 C   0  0  0  0  0  2  0  0  0  0  0  0
  160.8160  209.2340  152.3980 N   0  0  0  0  0  0  0  0  0  0  0  0
  160.5440  211.5130  152.4730 C   0  0  0  0  0  0  0  0  0  0  0  0
  159.5820  209.4620  152.9570 O   0  0  0  0  0  0  0  0  0  0  0  0
  162.7960  210.6320  152.1900 C   0  0  0  0  0  1  0  0  0  0  0  0
  161.3310  210.4740  151.8290 C   0  0  1  0  0  3  0  0  0  0  0  0
  160.3520  212.6540  151.9230 N   0  0  0  0  0  2  0  0  0  0  0  0
  159.4880  210.8410  153.2360 C   0  0  0  0  0  2  0  0  0  0  0  0
  1 19  1  0  0  0  0
  4  9  1  6  0  0  0
  4 12  1  0  0  0  0
  4  7  1  0  0  0  0
  5 18  1  0  0  0  0
  5 11  1  1  0  0  0
  6  9  1  0  0  0  0
  6 17  1  0  0  0  0
  7  2  1  6  0  0  0
  7  5  1  0  0  0  0
 10 15  2  0  0  0  0
 11 20  1  0  0  0  0
 12  8  1  0  0  0  0
 14  3  1  0  0  0  0
 14 10  1  0  0  0  0
 15 13  1  0  0  0  0
 16  6  2  0  0  0  0
 17  2  1  0  0  0  0
 18  8  1  6  0  0  0
 18 14  1  0  0  0  0
 19 13  2  0  0  0  0
 20 10  1  0  0  0  0
 20  1  2  0  0  0  0
 21  1  1  0  0  0  0
 21 22  1  0  0  0  0
 22 24  1  0  0  0  0
 23 28  1  0  0  0  0
 24 28  1  0  0  0  0
 26 25  1  1  0  0  0
 26 22  1  0  0  0  0
 26 23  1  0  0  0  0
 27 23  2  0  0  0  0
M  END
>  <MODEL>
7

>  <REMARK>
 VINA RESULT:      -7.1      1.535      1.841
  Name = 
  2 active torsions:
  status: ('A' for Active; 'I' for Inactive)
    1  A    between atoms: C_1  and  C_2
    2  A    between atoms: C_2  and  N_3
                            x       y       z     vdW  Elec       q    Type
                         _______ _______ _______ _____ _____    ______ ____

>  <TORSDO>
F 2

$$$$
=
 OpenBabel11052423003D

 28 32  0  0  1  0  0  0  0  0999 V2000
  161.7540  206.8850  152.4140 C   0  0  0  0  0  0  0  0  0  0  0  0
  161.1420  211.2300  149.6770 C   0  0  0  0  0  2  0  0  0  0  0  0
  159.6320  210.1210  155.5300 C   0  0  0  0  0  1  0  0  0  0  0  0
  159.8190  212.5530  151.2720 C   0  0  2  0  0  3  0  0  0  0  0  0
  160.6900  210.4250  152.0130 N   0  0  1  0  0  0  0  0  0  0  0  0
  160.6370  213.6560  149.2350 C   0  0  0  0  0  0  0  0  0  0  0  0
  160.9870  211.5720  151.1600 C   0  0  1  0  0  3  0  0  0  0  0  0
  160.2120  212.2710  153.6760 C   0  0  0  0  0  2  0  0  0  0  0  0
  160.1890  213.8920  150.6530 C   0  0  0  0  0  2  0  0  0  0  0  0
  160.7510  208.4640  153.9850 C   0  0  0  0  0  0  0  0  0  0  0  0
  161.6780  209.3590  151.8220 C   0  0  0  0  0  2  0  0  0  0  0  0
  159.2660  212.6800  152.6310 N   0  0  0  0  0  2  0  0  0  0  0  0
  160.8270  206.0980  154.5160 C   0  0  0  0  0  3  0  0  0  0  0  0
  160.3820  209.8190  154.3140 N   0  0  0  0  0  0  0  0  0  0  0  0
  160.4730  207.4030  154.8580 C   0  0  0  0  0  3  0  0  0  0  0  0
  160.3310  214.4530  148.3630 O   0  0  0  0  0  0  0  0  0  0  0  0
  161.5410  212.4940  148.9030 C   0  0  0  0  0  2  0  0  0  0  0  0
  160.8350  210.8780  153.4050 C   0  0  1  0  0  3  0  0  0  0  0  0
  161.4640  205.8410  153.3000 C   0  0  0  0  0  3  0  0  0  0  0  0
  161.3800  208.2010  152.7470 C   0  0  0  0  0  0  0  0  0  0  0  0
  162.4540  206.5710  151.1150 C   0  0  0  0  0  2  0  0  0  0  0  0
  161.5360  206.3320  149.9930 N   0  0  0  0  0  0  0  0  0  0  0  0
  161.8010  205.6900  147.8050 C   0  0  0  0  0  0  0  0  0  0  0  0
  161.2370  204.9920  149.9400 O   0  0  0  0  0  0  0  0  0  0  0  0
  161.5680  208.0650  148.2860 C   0  0  0  0  0  1  0  0  0  0  0  0
  162.1590  206.7430  148.7410 C   0  0  1  0  0  3  0  0  0  0  0  0
  162.5180  205.4290  146.7750 N   0  0  0  0  0  2  0  0  0  0  0  0
  161.1570  204.6260  148.5810 C   0  0  0  0  0  2  0  0  0  0  0  0
  1 20  2  0  0  0  0
  1 19  1  0  0  0  0
  4  9  1  1  0  0  0
  4 12  1  0  0  0  0
  5 11  1  6  0  0  0
  5 18  1  0  0  0  0
  6  9  1  0  0  0  0
  7  2  1  6  0  0  0
  7  4  1  0  0  0  0
  7  5  1  0  0  0  0
 10 14  1  0  0  0  0
 10 15  2  0  0  0  0
 11 20  1  0  0  0  0
 12  8  1  0  0  0  0
 13 15  1  0  0  0  0
 14  3  1  0  0  0  0
 16  6  2  0  0  0  0
 17  6  1  0  0  0  0
 17  2  1  0  0  0  0
 18  8  1  6  0  0  0
 18 14  1  0  0  0  0
 19 13  2  0  0  0  0
 20 10  1  0  0  0  0
 21  1  1  0  0  0  0
 22 21  1  0  0  0  0
 23 28  1  0  0  0  0
 23 26  1  0  0  0  0
 24 22  1  0  0  0  0
 26 25  1  6  0  0  0
 26 22  1  0  0  0  0
 27 23  2  0  0  0  0
 28 24  1  0  0  0  0
M  END
>  <MODEL>
8

>  <REMARK>
 VINA RESULT:      -6.9      2.772      6.861
  Name = 
  2 active torsions:
  status: ('A' for Active; 'I' for Inactive)
    1  A    between atoms: C_1  and  C_2
    2  A    between atoms: C_2  and  N_3
                            x       y       z     vdW  Elec       q    Type
                         _______ _______ _______ _____ _____    ______ ____

>  <TORSDO>
F 2

$$$$
=
 OpenBabel11052423003D

 28 32  0  0  1  0  0  0  0  0999 V2000
  161.1290  205.4490  148.6210 C   0  0  0  0  0  0  0  0  0  0  0  0
  160.9010  209.5490  151.7660 C   0  0  0  0  0  2  0  0  0  0  0  0
  160.8960  203.5770  153.2170 C   0  0  0  0  0  1  0  0  0  0  0  0
  160.4770  208.4170  153.9080 C   0  0  2  0  0  3  0  0  0  0  0  0
  160.9450  207.0460  151.9740 N   0  0  1  0  0  0  0  0  0  0  0  0
  160.9330  210.8310  153.9320 C   0  0  0  0  0  0  0  0  0  0  0  0
  161.2700  208.3230  152.6030 C   0  0  1  0  0  3  0  0  0  0  0  0
  161.4550  206.2030  154.3040 C   0  0  0  0  0  2  0  0  0  0  0  0
  160.9860  209.5720  154.7560 C   0  0  0  0  0  2  0  0  0  0  0  0
  161.0590  204.4960  150.8690 C   0  0  0  0  0  0  0  0  0  0  0  0
  161.5260  206.9580  150.6320 C   0  0  0  0  0  2  0  0  0  0  0  0
  160.3880  207.1500  154.6530 N   0  0  0  0  0  2  0  0  0  0  0  0
  160.6720  203.0850  148.9330 C   0  0  0  0  0  3  0  0  0  0  0  0
  161.1620  204.6780  152.2960 N   0  0  0  0  0  0  0  0  0  0  0  0
  160.7800  203.2390  150.3160 C   0  0  0  0  0  3  0  0  0  0  0  0
  160.6070  211.8830  154.4560 O   0  0  0  0  0  0  0  0  0  0  0  0
  161.3730  210.8180  152.4880 C   0  0  0  0  0  2  0  0  0  0  0  0
  161.5930  205.9960  152.7750 C   0  0  1  0  0  3  0  0  0  0  0  0
  160.8460  204.1850  148.0910 C   0  0  0  0  0  3  0  0  0  0  0  0
  161.2180  205.6120  150.0170 C   0  0  0  0  0  0  0  0  0  0  0  0
  161.3220  206.6120  147.6800 C   0  0  0  0  0  2  0  0  0  0  0  0
  161.5890  206.2100  146.2920 N   0  0  0  0  0  0  0  0  0  0  0  0
  161.2950  204.2750  145.0910 C   0  0  0  0  0  0  0  0  0  0  0  0
  160.4450  206.3800  145.5510 O   0  0  0  0  0  0  0  0  0  0  0  0
  163.4970  204.7230  146.0290 C   0  0  0  0  0  1  0  0  0  0  0  0
  161.9970  204.8110  146.2460 C   0  0  1  0  0  3  0  0  0  0  0  0
  161.0080  203.0300  144.9930 N   0  0  0  0  0  2  0  0  0  0  0  0
  160.3710  205.3150  144.6300 C   0  0  0  0  0  2  0  0  0  0  0  0
  1 20  1  0  0  0  0
  2 17  1  0  0  0  0
  4 12  1  0  0  0  0
  4  9  1  1  0  0  0
  5 11  1  6  0  0  0
  5  7  1  0  0  0  0
  5 18  1  0  0  0  0
  6 16  2  0  0  0  0
  6  9  1  0  0  0  0
  7  2  1  6  0  0  0
  7  4  1  0  0  0  0
  8 12  1  0  0  0  0
 10 14  1  0  0  0  0
 13 15  2  0  0  0  0
 14 18  1  0  0  0  0
 14  3  1  0  0  0  0
 15 10  1  0  0  0  0
 17  6  1  0  0  0  0
 18  8  1  1  0  0  0
 19  1  2  0  0  0  0
 19 13  1  0  0  0  0
 20 11  1  0  0  0  0
 20 10  2  0  0  0  0
 21  1  1  0  0  0  0
 22 21  1  0  0  0  0
 23 26  1  0  0  0  0
 24 22  1  0  0  0  0
 26 25  1  6  0  0  0
 26 22  1  0  0  0  0
 27 23  2  0  0  0  0
 28 23  1  0  0  0  0
 28 24  1  0  0  0  0
M  END
>  <MODEL>
9

>  <REMARK>
 VINA RESULT:      -6.6      2.103      6.672
  Name = 
  2 active torsions:
  status: ('A' for Active; 'I' for Inactive)
    1  A    between atoms: C_1  and  C_2
    2  A    between atoms: C_2  and  N_3
                            x       y       z     vdW  Elec       q    Type
                         _______ _______ _______ _____ _____    ______ ____

>  <TORSDO>
F 2

$$$$
