=
 OpenBabel11062409443D

 34 36  0  0  1  0  0  0  0  0999 V2000
  160.8680  209.5730  152.6230 C   0  0  1  0  0  3  0  0  0  0  0  0
  159.7490  209.8590  155.2580 C   0  0  0  0  0  3  0  0  0  0  0  0
  160.8060  207.1540  153.1840 C   0  0  0  0  0  1  0  0  0  0  0  0
  160.4830  208.7670  155.0450 C   0  0  0  0  0  0  0  0  0  0  0  0
  161.1810  208.5290  153.7150 C   0  0  2  0  0  3  0  0  0  0  0  0
  159.6420  210.8980  154.2810 N   0  0  0  0  0  0  0  0  0  0  0  0
  160.1580  211.8110  152.1790 O   0  0  0  0  0  1  0  0  0  0  0  0
  160.6200  210.9660  153.1940 C   0  0  2  0  0  3  0  0  0  0  0  0
  161.4660  208.0920  157.2190 C   0  0  0  0  0  1  0  0  0  0  0  0
  160.6100  207.8660  156.1090 O   0  0  0  0  0  0  0  0  0  0  0  0
  158.7760  212.0320  154.5820 C   0  0  0  0  0  2  0  0  0  0  0  0
  157.4090  211.8570  153.9270 C   0  0  2  0  0  3  0  0  0  0  0  0
  157.0970  212.9890  153.1690 O   0  0  0  0  0  1  0  0  0  0  0  0
  156.3280  211.6160  154.9760 C   0  0  0  0  0  0  0  0  0  0  0  0
  155.6620  212.7980  155.2430 F   0  0  0  0  0  0  0  0  0  0  0  0
  156.9140  211.1610  156.1430 F   0  0  0  0  0  0  0  0  0  0  0  0
  155.4230  210.6710  154.5260 F   0  0  0  0  0  0  0  0  0  0  0  0
  162.0140  209.6420  151.6170 C   0  0  0  0  0  2  0  0  0  0  0  0
  162.1710  208.3520  150.8900 C   0  0  0  0  0  0  0  0  0  0  0  0
  163.0740  207.5490  151.2450 O   0  0  0  0  0  0  0  0  0  0  0  0
  161.2880  208.0440  149.8030 N   0  0  0  0  0  2  0  0  0  0  0  0
  161.4740  205.7680  146.8560 C   0  0  0  0  0  3  0  0  0  0  0  0
  161.0270  205.5850  149.6150 C   0  0  0  0  0  3  0  0  0  0  0  0
  160.9780  202.1140  147.2390 C   0  0  0  0  0  0  0  0  0  0  0  0
  161.2190  203.3670  146.6530 C   0  0  0  0  0  3  0  0  0  0  0  0
  161.2350  204.5220  147.4390 C   0  0  0  0  0  0  0  0  0  0  0  0
  160.7700  203.1850  149.4150 C   0  0  0  0  0  3  0  0  0  0  0  0
  161.0100  204.4300  148.8300 C   0  0  0  0  0  0  0  0  0  0  0  0
  160.7540  202.0330  148.6220 C   0  0  0  0  0  3  0  0  0  0  0  0
  161.2680  206.8380  149.0290 C   0  0  0  0  0  0  0  0  0  0  0  0
  161.4900  206.9190  147.6490 C   0  0  0  0  0  3  0  0  0  0  0  0
  160.9610  200.9270  146.4360 N   0  0  0  0  0  0  0  0  0  0  0  0
  161.5250  199.7630  146.9040 O   0  0  0  0  0  0  0  0  0  0  0  0
  160.4360  200.9360  145.3030 O   0  0  0  0  0  0  0  0  0  0  0  0
  1 18  1  6  0  0  0
  1  8  1  0  0  0  0
  1  5  1  0  0  0  0
  4  2  2  0  0  0  0
  4 10  1  0  0  0  0
  5  3  1  6  0  0  0
  5  4  1  0  0  0  0
  6 11  1  0  0  0  0
  6  2  1  0  0  0  0
  8  7  1  6  0  0  0
  8  6  1  0  0  0  0
 10  9  1  0  0  0  0
 12 13  1  1  0  0  0
 12 11  1  0  0  0  0
 12 14  1  0  0  0  0
 14 15  1  0  0  0  0
 14 16  1  0  0  0  0
 17 14  1  0  0  0  0
 19 20  2  0  0  0  0
 19 18  1  0  0  0  0
 21 19  1  0  0  0  0
 22 26  2  0  0  0  0
 22 31  1  0  0  0  0
 24 29  1  0  0  0  0
 25 24  2  0  0  0  0
 25 26  1  0  0  0  0
 26 28  1  0  0  0  0
 28 27  1  0  0  0  0
 28 23  2  0  0  0  0
 29 27  2  0  0  0  0
 30 23  1  0  0  0  0
 30 21  1  0  0  0  0
 31 30  2  0  0  0  0
 32 33  2  0  0  0  0
 32 24  1  0  0  0  0
 34 32  2  0  0  0  0
M  END
>  <MODEL>
1

>  <REMARK>
 VINA RESULT:      -8.9      0.000      0.000
  Name = 
  8 active torsions:
  status: ('A' for Active; 'I' for Inactive)
    1  A    between atoms: C_1  and  C_9
    2  A    between atoms: C_2  and  C_23
    3  A    between atoms: C_2  and  N_32
    4  A    between atoms: C_3  and  C_23
    5  A    between atoms: C_7  and  N_11
    6  A    between atoms: C_8  and  C_9
    7  A    between atoms: N_18  and  C_30
    8  A    between atoms: C_19  and  O_22
                            x       y       z     vdW  Elec       q    Type
                         _______ _______ _______ _____ _____    ______ ____

>  <TORSDO>
F 8

$$$$
=
 OpenBabel11062409443D

 34 36  0  0  1  0  0  0  0  0999 V2000
  160.8570  209.2130  152.9040 C   0  0  1  0  0  3  0  0  0  0  0  0
  159.7900  210.4390  155.2780 C   0  0  0  0  0  3  0  0  0  0  0  0
  160.3940  207.1100  154.1430 C   0  0  0  0  0  1  0  0  0  0  0  0
  160.3350  209.2320  155.4320 C   0  0  0  0  0  0  0  0  0  0  0  0
  160.9900  208.5040  154.2680 C   0  0  2  0  0  3  0  0  0  0  0  0
  159.8600  211.1450  154.0370 N   0  0  0  0  0  0  0  0  0  0  0  0
  160.5290  211.3020  151.7900 O   0  0  0  0  0  1  0  0  0  0  0  0
  160.8400  210.7340  153.0300 C   0  0  2  0  0  3  0  0  0  0  0  0
  161.3790  207.9210  157.2610 C   0  0  0  0  0  1  0  0  0  0  0  0
  160.3070  208.6790  156.7170 O   0  0  0  0  0  0  0  0  0  0  0  0
  159.1920  212.4380  153.9470 C   0  0  0  0  0  2  0  0  0  0  0  0
  157.7540  212.2710  153.4670 C   0  0  2  0  0  3  0  0  0  0  0  0
  157.4850  213.1870  152.4460 O   0  0  0  0  0  1  0  0  0  0  0  0
  156.7680  212.4640  154.6150 C   0  0  0  0  0  0  0  0  0  0  0  0
  155.8780  213.4750  154.3050 F   0  0  0  0  0  0  0  0  0  0  0  0
  157.4600  212.8160  155.7600 F   0  0  0  0  0  0  0  0  0  0  0  0
  156.0680  211.2940  154.8510 F   0  0  0  0  0  0  0  0  0  0  0  0
  162.0030  208.8010  151.9840 C   0  0  0  0  0  2  0  0  0  0  0  0
  161.5600  207.7760  150.9990 C   0  0  0  0  0  0  0  0  0  0  0  0
  160.9070  208.1360  149.9840 O   0  0  0  0  0  0  0  0  0  0  0  0
  161.8870  206.3970  151.2210 N   0  0  0  0  0  2  0  0  0  0  0  0
  160.7180  203.0350  150.1150 C   0  0  0  0  0  3  0  0  0  0  0  0
  161.8310  205.3400  148.9780 C   0  0  0  0  0  3  0  0  0  0  0  0
  160.9080  202.0310  146.5510 C   0  0  0  0  0  0  0  0  0  0  0  0
  160.6590  201.9850  147.9320 C   0  0  0  0  0  3  0  0  0  0  0  0
  160.9650  203.0810  148.7410 C   0  0  0  0  0  0  0  0  0  0  0  0
  161.7740  204.2920  146.7950 C   0  0  0  0  0  3  0  0  0  0  0  0
  161.5260  204.2440  148.1680 C   0  0  0  0  0  0  0  0  0  0  0  0
  161.4670  203.1900  145.9910 C   0  0  0  0  0  3  0  0  0  0  0  0
  161.5820  205.2940  150.3590 C   0  0  0  0  0  0  0  0  0  0  0  0
  161.0260  204.1370  150.9180 C   0  0  0  0  0  3  0  0  0  0  0  0
  160.5940  200.9070  145.7180 N   0  0  0  0  0  0  0  0  0  0  0  0
  161.1280  199.6690  145.9910 O   0  0  0  0  0  0  0  0  0  0  0  0
  159.8370  201.0390  144.7340 O   0  0  0  0  0  0  0  0  0  0  0  0
  1 18  1  6  0  0  0
  1  8  1  0  0  0  0
  1  5  1  0  0  0  0
  2  4  2  0  0  0  0
  4 10  1  0  0  0  0
  5  3  1  6  0  0  0
  5  4  1  0  0  0  0
  6  2  1  0  0  0  0
  8  7  1  6  0  0  0
  8  6  1  0  0  0  0
 10  9  1  0  0  0  0
 11  6  1  0  0  0  0
 12 13  1  6  0  0  0
 12 11  1  0  0  0  0
 12 14  1  0  0  0  0
 14 17  1  0  0  0  0
 14 16  1  0  0  0  0
 15 14  1  0  0  0  0
 19 21  1  0  0  0  0
 19 18  1  0  0  0  0
 20 19  2  0  0  0  0
 22 31  1  0  0  0  0
 23 30  1  0  0  0  0
 24 25  2  0  0  0  0
 25 26  1  0  0  0  0
 26 22  2  0  0  0  0
 27 28  1  0  0  0  0
 28 26  1  0  0  0  0
 28 23  2  0  0  0  0
 29 24  1  0  0  0  0
 29 27  2  0  0  0  0
 30 31  2  0  0  0  0
 30 21  1  0  0  0  0
 32 33  2  0  0  0  0
 32 24  1  0  0  0  0
 34 32  2  0  0  0  0
M  END
>  <MODEL>
2

>  <REMARK>
 VINA RESULT:      -8.7      1.102      1.697
  Name = 
  8 active torsions:
  status: ('A' for Active; 'I' for Inactive)
    1  A    between atoms: C_1  and  C_9
    2  A    between atoms: C_2  and  C_23
    3  A    between atoms: C_2  and  N_32
    4  A    between atoms: C_3  and  C_23
    5  A    between atoms: C_7  and  N_11
    6  A    between atoms: C_8  and  C_9
    7  A    between atoms: N_18  and  C_30
    8  A    between atoms: C_19  and  O_22
                            x       y       z     vdW  Elec       q    Type
                         _______ _______ _______ _____ _____    ______ ____

>  <TORSDO>
F 8

$$$$
=
 OpenBabel11062409443D

 34 36  0  0  1  0  0  0  0  0999 V2000
  161.1930  208.9850  151.9470 C   0  0  1  0  0  3  0  0  0  0  0  0
  160.9850  211.6860  150.9770 C   0  0  0  0  0  3  0  0  0  0  0  0
  159.3500  209.7000  153.4510 C   0  0  0  0  0  1  0  0  0  0  0  0
  160.5840  211.4770  152.2320 C   0  0  0  0  0  0  0  0  0  0  0  0
  160.7010  210.1080  152.8830 C   0  0  2  0  0  3  0  0  0  0  0  0
  161.6150  210.6600  150.2070 N   0  0  0  0  0  0  0  0  0  0  0  0
  162.4220  208.4670  149.9640 O   0  0  0  0  0  1  0  0  0  0  0  0
  162.1690  209.4880  150.8860 C   0  0  2  0  0  3  0  0  0  0  0  0
  158.7090  212.9430  152.9290 C   0  0  0  0  0  1  0  0  0  0  0  0
  160.0820  212.5800  152.9320 O   0  0  0  0  0  0  0  0  0  0  0  0
  161.9740  210.9640  148.8260 C   0  0  0  0  0  2  0  0  0  0  0  0
  161.4400  212.3330  148.4180 C   0  0  2  0  0  3  0  0  0  0  0  0
  160.4610  212.1860  147.4320 O   0  0  0  0  0  1  0  0  0  0  0  0
  162.5650  213.2290  147.9080 C   0  0  0  0  0  0  0  0  0  0  0  0
  162.4200  213.4350  146.5480 F   0  0  0  0  0  0  0  0  0  0  0  0
  163.7820  212.6130  148.1370 F   0  0  0  0  0  0  0  0  0  0  0  0
  162.5440  214.4480  148.5610 F   0  0  0  0  0  0  0  0  0  0  0  0
  161.8620  207.8790  152.7580 C   0  0  0  0  0  2  0  0  0  0  0  0
  162.0040  206.6330  151.9540 C   0  0  0  0  0  0  0  0  0  0  0  0
  163.0760  205.9760  152.0180 O   0  0  0  0  0  0  0  0  0  0  0  0
  160.9160  206.2030  151.1240 N   0  0  0  0  0  2  0  0  0  0  0  0
  160.5040  202.6120  150.2110 C   0  0  0  0  0  3  0  0  0  0  0  0
  161.1180  205.0340  148.9460 C   0  0  0  0  0  3  0  0  0  0  0  0
  160.9550  201.4740  146.7110 C   0  0  0  0  0  0  0  0  0  0  0  0
  160.7020  201.4530  148.0920 C   0  0  0  0  0  3  0  0  0  0  0  0
  160.7560  202.6330  148.8370 C   0  0  0  0  0  0  0  0  0  0  0  0
  161.3170  203.8780  146.8270 C   0  0  0  0  0  3  0  0  0  0  0  0
  161.0650  203.8550  148.2000 C   0  0  0  0  0  0  0  0  0  0  0  0
  161.2630  202.6930  146.0870 C   0  0  0  0  0  3  0  0  0  0  0  0
  160.8650  205.0130  150.3260 C   0  0  0  0  0  0  0  0  0  0  0  0
  160.5590  203.7970  150.9500 C   0  0  0  0  0  3  0  0  0  0  0  0
  160.9000  200.2650  145.9430 N   0  0  0  0  0  0  0  0  0  0  0  0
  160.0930  200.1840  144.8330 O   0  0  0  0  0  0  0  0  0  0  0  0
  161.5810  199.2720  146.2740 O   0  0  0  0  0  0  0  0  0  0  0  0
  1 18  1  1  0  0  0
  1  5  1  0  0  0  0
  2  4  2  0  0  0  0
  4  5  1  0  0  0  0
  4 10  1  0  0  0  0
  5  3  1  6  0  0  0
  6  8  1  0  0  0  0
  6  2  1  0  0  0  0
  8  7  1  6  0  0  0
  8  1  1  0  0  0  0
  9 10  1  0  0  0  0
 11  6  1  0  0  0  0
 12 13  1  6  0  0  0
 12 11  1  0  0  0  0
 14 16  1  0  0  0  0
 14 12  1  0  0  0  0
 14 17  1  0  0  0  0
 15 14  1  0  0  0  0
 19 20  2  0  0  0  0
 19 18  1  0  0  0  0
 21 19  1  0  0  0  0
 22 31  1  0  0  0  0
 23 30  1  0  0  0  0
 24 25  2  0  0  0  0
 25 26  1  0  0  0  0
 26 22  2  0  0  0  0
 27 28  1  0  0  0  0
 28 26  1  0  0  0  0
 28 23  2  0  0  0  0
 29 24  1  0  0  0  0
 29 27  2  0  0  0  0
 30 31  2  0  0  0  0
 30 21  1  0  0  0  0
 32 34  2  0  0  0  0
 32 24  1  0  0  0  0
 33 32  2  0  0  0  0
M  END
>  <MODEL>
3

>  <REMARK>
 VINA RESULT:      -8.1      3.662      5.015
  Name = 
  8 active torsions:
  status: ('A' for Active; 'I' for Inactive)
    1  A    between atoms: C_1  and  C_9
    2  A    between atoms: C_2  and  C_23
    3  A    between atoms: C_2  and  N_32
    4  A    between atoms: C_3  and  C_23
    5  A    between atoms: C_7  and  N_11
    6  A    between atoms: C_8  and  C_9
    7  A    between atoms: N_18  and  C_30
    8  A    between atoms: C_19  and  O_22
                            x       y       z     vdW  Elec       q    Type
                         _______ _______ _______ _____ _____    ______ ____

>  <TORSDO>
F 8

$$$$
=
 OpenBabel11062409443D

 34 36  0  0  1  0  0  0  0  0999 V2000
  159.6230  211.8440  152.3940 C   0  0  1  0  0  3  0  0  0  0  0  0
  157.9470  214.1150  151.8410 C   0  0  0  0  0  3  0  0  0  0  0  0
  157.8570  211.3220  154.0600 C   0  0  0  0  0  1  0  0  0  0  0  0
  157.8530  213.5980  153.0660 C   0  0  0  0  0  0  0  0  0  0  0  0
  158.7310  212.4360  153.5040 C   0  0  2  0  0  3  0  0  0  0  0  0
  158.9250  213.6610  150.9040 N   0  0  0  0  0  0  0  0  0  0  0  0
  160.7150  212.2600  150.3090 O   0  0  0  0  0  1  0  0  0  0  0  0
  160.0760  212.8920  151.3810 C   0  0  2  0  0  3  0  0  0  0  0  0
  157.2220  214.4530  155.3070 C   0  0  0  0  0  1  0  0  0  0  0  0
  156.9350  214.1920  153.9410 O   0  0  0  0  0  0  0  0  0  0  0  0
  158.9200  214.2500  149.5700 C   0  0  0  0  0  2  0  0  0  0  0  0
  157.7510  213.7160  148.7470 C   0  0  2  0  0  3  0  0  0  0  0  0
  157.0990  212.7020  149.4520 O   0  0  0  0  0  1  0  0  0  0  0  0
  158.2280  213.1920  147.3960 C   0  0  0  0  0  0  0  0  0  0  0  0
  159.4830  212.6250  147.5300 F   0  0  0  0  0  0  0  0  0  0  0  0
  158.3080  214.2400  146.4980 F   0  0  0  0  0  0  0  0  0  0  0  0
  157.3470  212.2440  146.9090 F   0  0  0  0  0  0  0  0  0  0  0  0
  160.8530  211.1780  153.0070 C   0  0  0  0  0  2  0  0  0  0  0  0
  160.8070  209.7000  152.8320 C   0  0  0  0  0  0  0  0  0  0  0  0
  160.4350  208.9760  153.7930 O   0  0  0  0  0  0  0  0  0  0  0  0
  161.1820  209.1280  151.5720 N   0  0  0  0  0  2  0  0  0  0  0  0
  161.1260  205.4180  151.9420 C   0  0  0  0  0  3  0  0  0  0  0  0
  161.1380  207.3140  149.8800 C   0  0  0  0  0  3  0  0  0  0  0  0
  161.0700  203.2090  148.9660 C   0  0  0  0  0  0  0  0  0  0  0  0
  161.0860  203.6340  150.3040 C   0  0  0  0  0  3  0  0  0  0  0  0
  161.1090  204.9960  150.6110 C   0  0  0  0  0  0  0  0  0  0  0  0
  161.0990  205.5320  148.2400 C   0  0  0  0  0  3  0  0  0  0  0  0
  161.1150  205.9520  149.5720 C   0  0  0  0  0  0  0  0  0  0  0  0
  161.0770  204.1670  147.9400 C   0  0  0  0  0  3  0  0  0  0  0  0
  161.1540  207.7390  151.2180 C   0  0  0  0  0  0  0  0  0  0  0  0
  161.1480  206.7840  152.2420 C   0  0  0  0  0  3  0  0  0  0  0  0
  161.0460  201.8110  148.6470 N   0  0  0  0  0  0  0  0  0  0  0  0
  160.9390  201.4000  147.3380 O   0  0  0  0  0  0  0  0  0  0  0  0
  161.1190  200.9530  149.5510 O   0  0  0  0  0  0  0  0  0  0  0  0
  1 18  1  1  0  0  0
  1  5  1  0  0  0  0
  2  4  2  0  0  0  0
  4  5  1  0  0  0  0
  4 10  1  0  0  0  0
  5  3  1  6  0  0  0
  6  8  1  0  0  0  0
  6  2  1  0  0  0  0
  8  7  1  6  0  0  0
  8  1  1  0  0  0  0
 10  9  1  0  0  0  0
 11  6  1  0  0  0  0
 12 13  1  1  0  0  0
 12 11  1  0  0  0  0
 14 15  1  0  0  0  0
 14 12  1  0  0  0  0
 16 14  1  0  0  0  0
 17 14  1  0  0  0  0
 19 18  1  0  0  0  0
 19 20  2  0  0  0  0
 21 19  1  0  0  0  0
 22 31  1  0  0  0  0
 23 30  1  0  0  0  0
 24 25  2  0  0  0  0
 25 26  1  0  0  0  0
 26 22  2  0  0  0  0
 27 28  1  0  0  0  0
 28 23  2  0  0  0  0
 28 26  1  0  0  0  0
 29 27  2  0  0  0  0
 29 24  1  0  0  0  0
 30 21  1  0  0  0  0
 30 31  2  0  0  0  0
 32 24  1  0  0  0  0
 32 34  2  0  0  0  0
 33 32  2  0  0  0  0
M  END
>  <MODEL>
4

>  <REMARK>
 VINA RESULT:      -8.1      3.580      4.891
  Name = 
  8 active torsions:
  status: ('A' for Active; 'I' for Inactive)
    1  A    between atoms: C_1  and  C_9
    2  A    between atoms: C_2  and  C_23
    3  A    between atoms: C_2  and  N_32
    4  A    between atoms: C_3  and  C_23
    5  A    between atoms: C_7  and  N_11
    6  A    between atoms: C_8  and  C_9
    7  A    between atoms: N_18  and  C_30
    8  A    between atoms: C_19  and  O_22
                            x       y       z     vdW  Elec       q    Type
                         _______ _______ _______ _____ _____    ______ ____

>  <TORSDO>
F 8

$$$$
=
 OpenBabel11062409443D

 34 36  0  0  1  0  0  0  0  0999 V2000
  160.9570  208.6220  153.1990 C   0  0  1  0  0  3  0  0  0  0  0  0
  159.4060  210.7080  154.4320 C   0  0  0  0  0  3  0  0  0  0  0  0
  160.3570  207.3680  155.2570 C   0  0  0  0  0  1  0  0  0  0  0  0
  159.9620  209.8210  155.2570 C   0  0  0  0  0  0  0  0  0  0  0  0
  160.8570  208.7070  154.7360 C   0  0  2  0  0  3  0  0  0  0  0  0
  159.6810  210.7080  153.0290 N   0  0  0  0  0  0  0  0  0  0  0  0
  160.7580  209.8190  151.1390 O   0  0  0  0  0  1  0  0  0  0  0  0
  160.8510  209.9880  152.5250 C   0  0  2  0  0  3  0  0  0  0  0  0
  158.9470  211.0510  157.1560 C   0  0  0  0  0  1  0  0  0  0  0  0
  159.7130  209.9790  156.6250 O   0  0  0  0  0  0  0  0  0  0  0  0
  158.9870  211.6850  152.1960 C   0  0  0  0  0  2  0  0  0  0  0  0
  159.8190  212.9540  152.0440 C   0  0  2  0  0  3  0  0  0  0  0  0
  159.1660  214.0260  152.6580 O   0  0  0  0  0  1  0  0  0  0  0  0
  160.0730  213.2690  150.5730 C   0  0  0  0  0  0  0  0  0  0  0  0
  158.8680  213.3790  149.9030 F   0  0  0  0  0  0  0  0  0  0  0  0
  160.8070  212.2440  150.0040 F   0  0  0  0  0  0  0  0  0  0  0  0
  160.7770  214.4530  150.4480 F   0  0  0  0  0  0  0  0  0  0  0  0
  162.2740  207.9660  152.7920 C   0  0  0  0  0  2  0  0  0  0  0  0
  162.0820  207.0430  151.6390 C   0  0  0  0  0  0  0  0  0  0  0  0
  162.4180  207.4190  150.4850 O   0  0  0  0  0  0  0  0  0  0  0  0
  161.5210  205.7420  151.8640 N   0  0  0  0  0  2  0  0  0  0  0  0
  160.6940  202.4190  150.3920 C   0  0  0  0  0  3  0  0  0  0  0  0
  161.5070  204.9520  149.5140 C   0  0  0  0  0  3  0  0  0  0  0  0
  160.8740  201.8610  146.7310 C   0  0  0  0  0  0  0  0  0  0  0  0
  160.6780  201.6280  148.1010 C   0  0  0  0  0  3  0  0  0  0  0  0
  160.8880  202.6510  149.0280 C   0  0  0  0  0  0  0  0  0  0  0  0
  161.4930  204.1630  147.2230 C   0  0  0  0  0  3  0  0  0  0  0  0
  161.2970  203.9290  148.5860 C   0  0  0  0  0  0  0  0  0  0  0  0
  161.2820  203.1340  146.3010 C   0  0  0  0  0  3  0  0  0  0  0  0
  161.3110  204.7180  150.8840 C   0  0  0  0  0  0  0  0  0  0  0  0
  160.9050  203.4490  151.3130 C   0  0  0  0  0  3  0  0  0  0  0  0
  160.6590  200.8130  145.7760 N   0  0  0  0  0  0  0  0  0  0  0  0
  161.2730  199.5930  145.9360 O   0  0  0  0  0  0  0  0  0  0  0  0
  159.9150  200.9960  144.7910 O   0  0  0  0  0  0  0  0  0  0  0  0
  1 18  1  1  0  0  0
  1  5  1  0  0  0  0
  2  4  2  0  0  0  0
  4 10  1  0  0  0  0
  5  4  1  0  0  0  0
  5  3  1  6  0  0  0
  6  2  1  0  0  0  0
  8  7  1  6  0  0  0
  8  6  1  0  0  0  0
  8  1  1  0  0  0  0
 10  9  1  0  0  0  0
 11  6  1  0  0  0  0
 12 11  1  0  0  0  0
 12 13  1  6  0  0  0
 14 12  1  0  0  0  0
 15 14  1  0  0  0  0
 16 14  1  0  0  0  0
 17 14  1  0  0  0  0
 19 21  1  0  0  0  0
 19 18  1  0  0  0  0
 20 19  2  0  0  0  0
 22 31  1  0  0  0  0
 23 30  1  0  0  0  0
 24 25  2  0  0  0  0
 25 26  1  0  0  0  0
 26 22  2  0  0  0  0
 27 28  1  0  0  0  0
 28 26  1  0  0  0  0
 28 23  2  0  0  0  0
 29 24  1  0  0  0  0
 29 27  2  0  0  0  0
 30 31  2  0  0  0  0
 30 21  1  0  0  0  0
 32 33  2  0  0  0  0
 32 24  1  0  0  0  0
 34 32  2  0  0  0  0
M  END
>  <MODEL>
5

>  <REMARK>
 VINA RESULT:      -8.1      2.552      3.224
  Name = 
  8 active torsions:
  status: ('A' for Active; 'I' for Inactive)
    1  A    between atoms: C_1  and  C_9
    2  A    between atoms: C_2  and  C_23
    3  A    between atoms: C_2  and  N_32
    4  A    between atoms: C_3  and  C_23
    5  A    between atoms: C_7  and  N_11
    6  A    between atoms: C_8  and  C_9
    7  A    between atoms: N_18  and  C_30
    8  A    between atoms: C_19  and  O_22
                            x       y       z     vdW  Elec       q    Type
                         _______ _______ _______ _____ _____    ______ ____

>  <TORSDO>
F 8

$$$$
=
 OpenBabel11062409443D

 34 36  0  0  1  0  0  0  0  0999 V2000
  161.0230  210.8540  151.4160 C   0  0  1  0  0  3  0  0  0  0  0  0
  159.2790  213.1100  151.7930 C   0  0  0  0  0  3  0  0  0  0  0  0
  159.6550  209.8700  153.2410 C   0  0  0  0  0  1  0  0  0  0  0  0
  159.4490  212.3140  152.8490 C   0  0  0  0  0  0  0  0  0  0  0  0
  160.3950  211.1240  152.7980 C   0  0  2  0  0  3  0  0  0  0  0  0
  160.0290  212.9360  150.5890 N   0  0  0  0  0  0  0  0  0  0  0  0
  161.6410  211.8010  149.3100 O   0  0  0  0  0  1  0  0  0  0  0  0
  161.2510  212.1310  150.6130 C   0  0  2  0  0  3  0  0  0  0  0  0
  159.3590  213.2310  155.1510 C   0  0  0  0  0  1  0  0  0  0  0  0
  158.7460  212.6410  154.0140 O   0  0  0  0  0  0  0  0  0  0  0  0
  159.7390  213.8240  149.4680 C   0  0  0  0  0  2  0  0  0  0  0  0
  158.9120  213.1030  148.4080 C   0  0  2  0  0  3  0  0  0  0  0  0
  159.3950  213.4160  147.1350 O   0  0  0  0  0  1  0  0  0  0  0  0
  157.4380  213.4820  148.5150 C   0  0  0  0  0  0  0  0  0  0  0  0
  156.6800  212.3500  148.7560 F   0  0  0  0  0  0  0  0  0  0  0  0
  157.0220  214.0510  147.3250 F   0  0  0  0  0  0  0  0  0  0  0  0
  157.2460  214.3890  149.5420 F   0  0  0  0  0  0  0  0  0  0  0  0
  162.3520  210.1200  151.5760 C   0  0  0  0  0  2  0  0  0  0  0  0
  162.2680  208.7320  151.0440 C   0  0  0  0  0  0  0  0  0  0  0  0
  162.3320  207.7600  151.8420 O   0  0  0  0  0  0  0  0  0  0  0  0
  162.1100  208.5270  149.6330 N   0  0  0  0  0  2  0  0  0  0  0  0
  162.2160  205.9740  146.9180 C   0  0  0  0  0  3  0  0  0  0  0  0
  161.4560  206.1350  149.6090 C   0  0  0  0  0  3  0  0  0  0  0  0
  161.0670  202.5010  147.5250 C   0  0  0  0  0  0  0  0  0  0  0  0
  161.5790  203.6360  146.8760 C   0  0  0  0  0  3  0  0  0  0  0  0
  161.7090  204.8450  147.5650 C   0  0  0  0  0  0  0  0  0  0  0  0
  160.8170  203.7980  149.5690 C   0  0  0  0  0  3  0  0  0  0  0  0
  161.3260  204.9260  148.9220 C   0  0  0  0  0  0  0  0  0  0  0  0
  160.6890  202.5920  148.8740 C   0  0  0  0  0  3  0  0  0  0  0  0
  161.9670  207.2690  148.9600 C   0  0  0  0  0  0  0  0  0  0  0  0
  162.3440  207.1790  147.6150 C   0  0  0  0  0  3  0  0  0  0  0  0
  160.9330  201.2600  146.8210 N   0  0  0  0  0  0  0  0  0  0  0  0
  161.4280  200.0970  147.3650 O   0  0  0  0  0  0  0  0  0  0  0  0
  160.3690  201.2190  145.7090 O   0  0  0  0  0  0  0  0  0  0  0  0
  1 18  1  1  0  0  0
  1  5  1  0  0  0  0
  2  4  2  0  0  0  0
  4 10  1  0  0  0  0
  5  4  1  0  0  0  0
  5  3  1  6  0  0  0
  6  8  1  0  0  0  0
  6  2  1  0  0  0  0
  8  7  1  6  0  0  0
  8  1  1  0  0  0  0
 10  9  1  0  0  0  0
 11  6  1  0  0  0  0
 12 13  1  6  0  0  0
 12 14  1  0  0  0  0
 12 11  1  0  0  0  0
 14 15  1  0  0  0  0
 14 17  1  0  0  0  0
 16 14  1  0  0  0  0
 19 18  1  0  0  0  0
 19 20  2  0  0  0  0
 21 19  1  0  0  0  0
 22 26  2  0  0  0  0
 22 31  1  0  0  0  0
 24 29  1  0  0  0  0
 25 24  2  0  0  0  0
 25 26  1  0  0  0  0
 26 28  1  0  0  0  0
 28 27  1  0  0  0  0
 28 23  2  0  0  0  0
 29 27  2  0  0  0  0
 30 23  1  0  0  0  0
 30 21  1  0  0  0  0
 31 30  2  0  0  0  0
 32 33  2  0  0  0  0
 32 24  1  0  0  0  0
 34 32  2  0  0  0  0
M  END
>  <MODEL>
6

>  <REMARK>
 VINA RESULT:      -7.9      3.072      3.819
  Name = 
  8 active torsions:
  status: ('A' for Active; 'I' for Inactive)
    1  A    between atoms: C_1  and  C_9
    2  A    between atoms: C_2  and  C_23
    3  A    between atoms: C_2  and  N_32
    4  A    between atoms: C_3  and  C_23
    5  A    between atoms: C_7  and  N_11
    6  A    between atoms: C_8  and  C_9
    7  A    between atoms: N_18  and  C_30
    8  A    between atoms: C_19  and  O_22
                            x       y       z     vdW  Elec       q    Type
                         _______ _______ _______ _____ _____    ______ ____

>  <TORSDO>
F 8

$$$$
=
 OpenBabel11062409443D

 34 36  0  0  1  0  0  0  0  0999 V2000
  160.9650  209.5170  155.2310 C   0  0  1  0  0  3  0  0  0  0  0  0
  158.9940  211.3150  154.1540 C   0  0  0  0  0  3  0  0  0  0  0  0
  162.3180  210.3260  153.3100 C   0  0  0  0  0  1  0  0  0  0  0  0
  159.8860  210.8330  153.2890 C   0  0  0  0  0  0  0  0  0  0  0  0
  160.9410  209.8250  153.7190 C   0  0  2  0  0  3  0  0  0  0  0  0
  158.9310  210.8570  155.5070 N   0  0  0  0  0  0  0  0  0  0  0  0
  159.7040  209.4980  157.2610 O   0  0  0  0  0  1  0  0  0  0  0  0
  159.5820  209.5980  155.8700 C   0  0  2  0  0  3  0  0  0  0  0  0
  159.8080  212.6390  151.5920 C   0  0  0  0  0  1  0  0  0  0  0  0
  159.7890  211.2680  151.9630 O   0  0  0  0  0  0  0  0  0  0  0  0
  157.9560  211.4790  156.3950 C   0  0  0  0  0  2  0  0  0  0  0  0
  157.3130  212.6920  155.7280 C   0  0  2  0  0  3  0  0  0  0  0  0
  157.5670  213.8390  156.4840 O   0  0  0  0  0  1  0  0  0  0  0  0
  155.8090  212.4940  155.5670 C   0  0  0  0  0  0  0  0  0  0  0  0
  155.2660  213.5640  154.8800 F   0  0  0  0  0  0  0  0  0  0  0  0
  155.2190  212.4200  156.8160 F   0  0  0  0  0  0  0  0  0  0  0  0
  155.5480  211.3250  154.8730 F   0  0  0  0  0  0  0  0  0  0  0  0
  161.5490  208.1290  155.4760 C   0  0  0  0  0  2  0  0  0  0  0  0
  161.1610  207.1830  154.3940 C   0  0  0  0  0  0  0  0  0  0  0  0
  160.0460  206.5990  154.4550 O   0  0  0  0  0  0  0  0  0  0  0  0
  162.0600  206.9560  153.3000 N   0  0  0  0  0  2  0  0  0  0  0  0
  161.5470  205.9350  149.7520 C   0  0  0  0  0  3  0  0  0  0  0  0
  161.6480  204.7330  152.2800 C   0  0  0  0  0  3  0  0  0  0  0  0
  160.9590  202.3850  148.8590 C   0  0  0  0  0  0  0  0  0  0  0  0
  161.1400  203.7710  148.7380 C   0  0  0  0  0  3  0  0  0  0  0  0
  161.3680  204.5550  149.8720 C   0  0  0  0  0  0  0  0  0  0  0  0
  161.2400  202.5700  151.2690 C   0  0  0  0  0  3  0  0  0  0  0  0
  161.4200  203.9490  151.1470 C   0  0  0  0  0  0  0  0  0  0  0  0
  161.0110  201.7920  150.1300 C   0  0  0  0  0  3  0  0  0  0  0  0
  161.8290  206.1200  152.1590 C   0  0  0  0  0  0  0  0  0  0  0  0
  161.7760  206.7120  150.8910 C   0  0  0  0  0  3  0  0  0  0  0  0
  160.7250  201.5780  147.6970 N   0  0  0  0  0  0  0  0  0  0  0  0
  161.2040  200.2890  147.6390 O   0  0  0  0  0  0  0  0  0  0  0  0
  160.0880  202.0340  146.7260 O   0  0  0  0  0  0  0  0  0  0  0  0
  1 18  1  6  0  0  0
  1  8  1  0  0  0  0
  2  6  1  0  0  0  0
  4  5  1  0  0  0  0
  4  2  2  0  0  0  0
  5  3  1  1  0  0  0
  5  1  1  0  0  0  0
  6  8  1  0  0  0  0
  6 11  1  0  0  0  0
  8  7  1  1  0  0  0
  9 10  1  0  0  0  0
 10  4  1  0  0  0  0
 12 11  1  0  0  0  0
 12 13  1  1  0  0  0
 14 12  1  0  0  0  0
 14 16  1  0  0  0  0
 15 14  1  0  0  0  0
 17 14  1  0  0  0  0
 19 20  2  0  0  0  0
 19 18  1  0  0  0  0
 21 19  1  0  0  0  0
 22 26  2  0  0  0  0
 22 31  1  0  0  0  0
 24 29  1  0  0  0  0
 25 24  2  0  0  0  0
 25 26  1  0  0  0  0
 26 28  1  0  0  0  0
 28 27  1  0  0  0  0
 28 23  2  0  0  0  0
 29 27  2  0  0  0  0
 30 23  1  0  0  0  0
 30 21  1  0  0  0  0
 31 30  2  0  0  0  0
 32 24  1  0  0  0  0
 33 32  2  0  0  0  0
 34 32  2  0  0  0  0
M  END
>  <MODEL>
7

>  <REMARK>
 VINA RESULT:      -7.8      1.809      3.089
  Name = 
  8 active torsions:
  status: ('A' for Active; 'I' for Inactive)
    1  A    between atoms: C_1  and  C_9
    2  A    between atoms: C_2  and  C_23
    3  A    between atoms: C_2  and  N_32
    4  A    between atoms: C_3  and  C_23
    5  A    between atoms: C_7  and  N_11
    6  A    between atoms: C_8  and  C_9
    7  A    between atoms: N_18  and  C_30
    8  A    between atoms: C_19  and  O_22
                            x       y       z     vdW  Elec       q    Type
                         _______ _______ _______ _____ _____    ______ ____

>  <TORSDO>
F 8

$$$$
=
 OpenBabel11062409443D

 34 36  0  0  1  0  0  0  0  0999 V2000
  161.1440  203.6080  148.7600 C   0  0  1  0  0  3  0  0  0  0  0  0
  161.2050  202.9480  145.9610 C   0  0  0  0  0  3  0  0  0  0  0  0
  161.2900  205.9370  147.9090 C   0  0  0  0  0  1  0  0  0  0  0  0
  161.7750  204.1030  146.3070 C   0  0  0  0  0  0  0  0  0  0  0  0
  161.8660  204.5360  147.7610 C   0  0  2  0  0  3  0  0  0  0  0  0
  160.7190  202.0250  146.9380 N   0  0  0  0  0  0  0  0  0  0  0  0
  160.3390  201.3950  149.1690 O   0  0  0  0  0  1  0  0  0  0  0  0
  161.1660  202.1450  148.3260 C   0  0  2  0  0  3  0  0  0  0  0  0
  161.5310  205.4510  144.2390 C   0  0  0  0  0  1  0  0  0  0  0  0
  162.3160  204.8800  145.2770 O   0  0  0  0  0  0  0  0  0  0  0  0
  160.0640  200.8110  146.4650 C   0  0  0  0  0  2  0  0  0  0  0  0
  160.8330  200.2010  145.2970 C   0  0  2  0  0  3  0  0  0  0  0  0
  160.0590  200.2610  144.1360 O   0  0  0  0  0  1  0  0  0  0  0  0
  161.2190  198.7550  145.5930 C   0  0  0  0  0  0  0  0  0  0  0  0
  161.5160  198.6140  146.9370 F   0  0  0  0  0  0  0  0  0  0  0  0
  162.3380  198.4180  144.8530 F   0  0  0  0  0  0  0  0  0  0  0  0
  160.1830  197.9010  145.2610 F   0  0  0  0  0  0  0  0  0  0  0  0
  161.7790  203.7280  150.1430 C   0  0  0  0  0  2  0  0  0  0  0  0
  161.1290  204.8050  150.9410 C   0  0  0  0  0  0  0  0  0  0  0  0
  159.8720  204.8740  150.9760 O   0  0  0  0  0  0  0  0  0  0  0  0
  161.9460  205.7400  151.6590 N   0  0  0  0  0  2  0  0  0  0  0  0
  160.7940  207.5300  154.7190 C   0  0  0  0  0  3  0  0  0  0  0  0
  161.2800  208.1010  152.0200 C   0  0  0  0  0  3  0  0  0  0  0  0
  159.9250  211.1320  154.6030 C   0  0  0  0  0  0  0  0  0  0  0  0
  160.1360  209.8330  155.0900 C   0  0  0  0  0  3  0  0  0  0  0  0
  160.5850  208.8230  154.2350 C   0  0  0  0  0  0  0  0  0  0  0  0
  160.6210  210.4030  152.3880 C   0  0  0  0  0  3  0  0  0  0  0  0
  160.8300  209.1110  152.8740 C   0  0  0  0  0  0  0  0  0  0  0  0
  160.1700  211.4080  153.2490 C   0  0  0  0  0  3  0  0  0  0  0  0
  161.4910  206.8010  152.5070 C   0  0  0  0  0  0  0  0  0  0  0  0
  161.2450  206.5260  153.8580 C   0  0  0  0  0  3  0  0  0  0  0  0
  159.4640  212.1710  155.4780 N   0  0  0  0  0  0  0  0  0  0  0  0
  158.1270  212.4920  155.5310 O   0  0  0  0  0  0  0  0  0  0  0  0
  160.2690  212.7960  156.1990 O   0  0  0  0  0  0  0  0  0  0  0  0
  1 18  1  1  0  0  0
  2  4  2  0  0  0  0
  2  6  1  0  0  0  0
  4  5  1  0  0  0  0
  5  3  1  6  0  0  0
  5  1  1  0  0  0  0
  6  8  1  0  0  0  0
  8  1  1  0  0  0  0
  8  7  1  1  0  0  0
  9 10  1  0  0  0  0
 10  4  1  0  0  0  0
 11  6  1  0  0  0  0
 12 13  1  6  0  0  0
 12 14  1  0  0  0  0
 12 11  1  0  0  0  0
 14 15  1  0  0  0  0
 16 14  1  0  0  0  0
 17 14  1  0  0  0  0
 18 19  1  0  0  0  0
 19 20  2  0  0  0  0
 19 21  1  0  0  0  0
 21 30  1  0  0  0  0
 23 30  2  0  0  0  0
 23 28  1  0  0  0  0
 24 25  1  0  0  0  0
 24 32  1  0  0  0  0
 26 22  1  0  0  0  0
 26 25  2  0  0  0  0
 27 28  2  0  0  0  0
 27 29  1  0  0  0  0
 28 26  1  0  0  0  0
 29 24  2  0  0  0  0
 30 31  1  0  0  0  0
 31 22  2  0  0  0  0
 32 33  2  0  0  0  0
 32 34  2  0  0  0  0
M  END
>  <MODEL>
8

>  <REMARK>
 VINA RESULT:      -7.4      5.276     11.266
  Name = 
  8 active torsions:
  status: ('A' for Active; 'I' for Inactive)
    1  A    between atoms: C_1  and  C_9
    2  A    between atoms: C_2  and  C_23
    3  A    between atoms: C_2  and  N_32
    4  A    between atoms: C_3  and  C_23
    5  A    between atoms: C_7  and  N_11
    6  A    between atoms: C_8  and  C_9
    7  A    between atoms: N_18  and  C_30
    8  A    between atoms: C_19  and  O_22
                            x       y       z     vdW  Elec       q    Type
                         _______ _______ _______ _____ _____    ______ ____

>  <TORSDO>
F 8

$$$$
=
 OpenBabel11062409443D

 34 36  0  0  1  0  0  0  0  0999 V2000
  161.2430  203.0410  149.3710 C   0  0  1  0  0  3  0  0  0  0  0  0
  161.2010  203.0840  146.4950 C   0  0  0  0  0  3  0  0  0  0  0  0
  161.5900  200.6050  149.0330 C   0  0  0  0  0  1  0  0  0  0  0  0
  160.8460  201.9360  147.0730 C   0  0  0  0  0  0  0  0  0  0  0  0
  160.7660  201.8020  148.5850 C   0  0  2  0  0  3  0  0  0  0  0  0
  161.4500  204.2670  147.2590 N   0  0  0  0  0  0  0  0  0  0  0  0
  161.5860  205.4050  149.3090 O   0  0  0  0  0  1  0  0  0  0  0  0
  160.9630  204.3480  148.6360 C   0  0  2  0  0  3  0  0  0  0  0  0
  160.0050  201.0520  144.9140 C   0  0  0  0  0  1  0  0  0  0  0  0
  160.5180  200.8710  146.2260 O   0  0  0  0  0  0  0  0  0  0  0  0
  161.8830  205.4630  146.5450 C   0  0  0  0  0  2  0  0  0  0  0  0
  162.0980  205.1620  145.0650 C   0  0  2  0  0  3  0  0  0  0  0  0
  163.1860  205.8940  144.5850 O   0  0  0  0  0  1  0  0  0  0  0  0
  160.8480  205.4890  144.2540 C   0  0  0  0  0  0  0  0  0  0  0  0
  161.2090  206.0240  143.0310 F   0  0  0  0  0  0  0  0  0  0  0  0
  160.0860  206.4180  144.9390 F   0  0  0  0  0  0  0  0  0  0  0  0
  160.0930  204.3470  144.0500 F   0  0  0  0  0  0  0  0  0  0  0  0
  160.5730  203.0850  150.7420 C   0  0  0  0  0  2  0  0  0  0  0  0
  161.1260  204.1880  151.5760 C   0  0  0  0  0  0  0  0  0  0  0  0
  162.3140  204.1140  151.9880 O   0  0  0  0  0  0  0  0  0  0  0  0
  160.2980  205.3150  151.8920 N   0  0  0  0  0  2  0  0  0  0  0  0
  161.3010  208.8280  152.6360 C   0  0  0  0  0  3  0  0  0  0  0  0
  160.8280  206.4470  154.0340 C   0  0  0  0  0  3  0  0  0  0  0  0
  161.9730  209.9190  156.1150 C   0  0  0  0  0  0  0  0  0  0  0  0
  161.8250  209.9490  154.7190 C   0  0  0  0  0  3  0  0  0  0  0  0
  161.4460  208.7980  154.0250 C   0  0  0  0  0  0  0  0  0  0  0  0
  161.3540  207.5660  156.1180 C   0  0  0  0  0  3  0  0  0  0  0  0
  161.2080  207.5980  154.7300 C   0  0  0  0  0  0  0  0  0  0  0  0
  161.7340  208.7210  156.8060 C   0  0  0  0  0  3  0  0  0  0  0  0
  160.6810  206.4770  152.6390 C   0  0  0  0  0  0  0  0  0  0  0  0
  160.9200  207.6720  151.9480 C   0  0  0  0  0  3  0  0  0  0  0  0
  162.3610  211.0990  156.8310 N   0  0  0  0  0  0  0  0  0  0  0  0
  163.6710  211.2810  157.2110 O   0  0  0  0  0  0  0  0  0  0  0  0
  161.5170  211.9730  157.1180 O   0  0  0  0  0  0  0  0  0  0  0  0
  1 18  1  1  0  0  0
  2  4  2  0  0  0  0
  2  6  1  0  0  0  0
  4  5  1  0  0  0  0
  5  3  1  1  0  0  0
  5  1  1  0  0  0  0
  6  8  1  0  0  0  0
  8  7  1  1  0  0  0
  8  1  1  0  0  0  0
  9 10  1  0  0  0  0
 10  4  1  0  0  0  0
 11  6  1  0  0  0  0
 12 13  1  6  0  0  0
 12 11  1  0  0  0  0
 14 16  1  0  0  0  0
 14 12  1  0  0  0  0
 15 14  1  0  0  0  0
 17 14  1  0  0  0  0
 18 19  1  0  0  0  0
 19 21  1  0  0  0  0
 19 20  2  0  0  0  0
 21 30  1  0  0  0  0
 22 26  1  0  0  0  0
 23 28  1  0  0  0  0
 24 29  1  0  0  0  0
 24 32  1  0  0  0  0
 25 24  2  0  0  0  0
 26 25  1  0  0  0  0
 26 28  2  0  0  0  0
 27 29  2  0  0  0  0
 28 27  1  0  0  0  0
 30 23  2  0  0  0  0
 31 22  2  0  0  0  0
 31 30  1  0  0  0  0
 32 34  2  0  0  0  0
 32 33  2  0  0  0  0
M  END
>  <MODEL>
9

>  <REMARK>
 VINA RESULT:      -7.3      4.521     10.254
  Name = 
  8 active torsions:
  status: ('A' for Active; 'I' for Inactive)
    1  A    between atoms: C_1  and  C_9
    2  A    between atoms: C_2  and  C_23
    3  A    between atoms: C_2  and  N_32
    4  A    between atoms: C_3  and  C_23
    5  A    between atoms: C_7  and  N_11
    6  A    between atoms: C_8  and  C_9
    7  A    between atoms: N_18  and  C_30
    8  A    between atoms: C_19  and  O_22
                            x       y       z     vdW  Elec       q    Type
                         _______ _______ _______ _____ _____    ______ ____

>  <TORSDO>
F 8

$$$$
