=
 OpenBabel11062409493D

 34 37  0  0  1  0  0  0  0  0999 V2000
  161.2030  211.1830  152.4320 N   0  0  2  0  0  0  0  0  0  0  0  0
  159.4940  214.0830  149.9940 C   0  0  0  0  0  2  0  0  0  0  0  0
  159.0830  212.2640  151.6960 C   0  0  2  0  0  3  0  0  0  0  0  0
  161.6510  210.0580  153.2540 C   0  0  2  0  0  3  0  0  0  0  0  0
  163.0560  210.3190  153.7660 C   0  0  0  0  0  1  0  0  0  0  0  0
  161.6930  209.1010  152.0810 C   0  0  2  0  0  3  0  0  0  0  0  0
  159.8070  211.4660  152.7970 C   0  0  2  0  0  3  0  0  0  0  0  0
  160.0600  213.0770  148.9940 C   0  0  0  0  0  2  0  0  0  0  0  0
  161.5420  212.8110  149.2380 C   0  0  1  0  0  3  0  0  0  0  0  0
  161.7810  211.3220  149.0460 C   0  0  0  0  0  2  0  0  0  0  0  0
  159.6980  213.6390  151.4390 C   0  0  0  0  0  2  0  0  0  0  0  0
  162.3440  210.7010  150.3140 C   0  0  0  0  0  2  0  0  0  0  0  0
  161.2270  210.2910  151.2680 C   0  0  2  0  0  3  0  0  0  0  0  0
  161.4340  205.5090  153.2880 C   0  0  0  0  0  2  0  0  0  0  0  0
  160.5690  208.0650  152.2040 C   0  0  1  0  0  3  0  0  0  0  0  0
  161.2190  204.6970  149.5820 C   0  0  0  0  0  0  0  0  0  0  0  0
  161.4560  204.5790  150.9620 C   0  0  0  0  0  3  0  0  0  0  0  0
  161.2440  205.6690  151.8100 C   0  0  0  0  0  0  0  0  0  0  0  0
  160.5320  207.0010  149.9110 C   0  0  0  0  0  3  0  0  0  0  0  0
  160.7730  206.8830  151.2850 C   0  0  0  0  0  0  0  0  0  0  0  0
  160.7550  205.9100  149.0650 C   0  0  0  0  0  3  0  0  0  0  0  0
  160.3680  207.6590  153.5500 O   0  0  0  0  0  0  0  0  0  0  0  0
  161.4670  206.8770  153.9670 C   0  0  0  0  0  2  0  0  0  0  0  0
  161.4310  203.6270  148.7080 O   0  0  0  0  0  0  0  0  0  0  0  0
  160.8550  201.5910  147.5820 C   0  0  0  0  0  1  0  0  0  0  0  0
  160.8200  202.3560  148.8880 C   0  0  0  0  0  2  0  0  0  0  0  0
  162.4200  213.6330  148.2840 C   0  0  0  0  0  3  0  0  0  0  0  0
  163.4930  212.7690  147.6430 C   0  0  0  0  0  1  0  0  0  0  0  0
  161.5870  214.2480  147.1720 C   0  0  0  0  0  1  0  0  0  0  0  0
  159.8810  213.3900  154.2390 O   0  0  0  0  0  0  0  0  0  0  0  0
  159.7320  212.1440  154.1380 C   0  0  0  0  0  0  0  0  0  0  0  0
  159.4890  211.3860  155.2760 O   0  0  0  0  0  1  0  0  0  0  0  0
  157.5670  212.3150  151.8780 C   0  0  0  0  0  2  0  0  0  0  0  0
  157.1570  213.5610  152.3590 O   0  0  0  0  0  1  0  0  0  0  0  0
  1  7  1  0  0  0  0
  1  4  1  0  0  0  0
  2 11  1  0  0  0  0
  3 33  1  0  0  0  0
  3  7  1  0  0  0  0
  4  5  1  0  0  0  0
  6 15  1  0  0  0  0
  6  4  1  0  0  0  0
  7 31  1  0  0  0  0
  8  9  1  0  0  0  0
  8  2  1  0  0  0  0
 10  9  1  0  0  0  0
 10 12  1  0  0  0  0
 11  3  1  0  0  0  0
 12 13  1  0  0  0  0
 13  6  1  0  0  0  0
 13  1  1  0  0  0  0
 14 23  1  0  0  0  0
 15 22  1  0  0  0  0
 16 17  1  0  0  0  0
 17 18  2  0  0  0  0
 18 14  1  0  0  0  0
 19 20  2  0  0  0  0
 20 18  1  0  0  0  0
 20 15  1  0  0  0  0
 21 16  2  0  0  0  0
 21 19  1  0  0  0  0
 22 23  1  0  0  0  0
 24 26  1  0  0  0  0
 24 16  1  0  0  0  0
 25 26  1  0  0  0  0
 27  9  1  0  0  0  0
 28 27  1  0  0  0  0
 29 27  1  0  0  0  0
 31 30  2  0  0  0  0
 31 32  1  0  0  0  0
 33 34  1  0  0  0  0
M  END
>  <MODEL>
1

>  <REMARK>
 VINA RESULT:      -5.5      0.000      0.000
  Name = 
  6 active torsions:
  status: ('A' for Active; 'I' for Inactive)
    1  A    between atoms: C_3  and  C_25
    2  A    between atoms: C_5  and  C_19
    3  A    between atoms: C_6  and  C_18
    4  A    between atoms: C_7  and  O_11
    5  A    between atoms: O_11  and  C_21
    6  A    between atoms: C_12  and  C_20
                            x       y       z     vdW  Elec       q    Type
                         _______ _______ _______ _____ _____    ______ ____

>  <TORSDO>
F 6

$$$$
=
 OpenBabel11062409493D

 34 37  0  0  1  0  0  0  0  0999 V2000
  160.6900  210.9960  153.3770 N   0  0  2  0  0  0  0  0  0  0  0  0
  157.9270  213.9350  152.3740 C   0  0  0  0  0  2  0  0  0  0  0  0
  158.3270  211.7570  153.5880 C   0  0  2  0  0  3  0  0  0  0  0  0
  161.5200  209.8380  153.7150 C   0  0  2  0  0  3  0  0  0  0  0  0
  162.9710  210.2650  153.8520 C   0  0  0  0  0  1  0  0  0  0  0  0
  161.2970  209.1750  152.3720 C   0  0  2  0  0  3  0  0  0  0  0  0
  159.4650  210.9100  154.1880 C   0  0  2  0  0  3  0  0  0  0  0  0
  158.2580  213.2930  151.0280 C   0  0  0  0  0  2  0  0  0  0  0  0
  159.7590  213.2870  150.7600 C   0  0  1  0  0  3  0  0  0  0  0  0
  160.1080  211.9490  150.1270 C   0  0  0  0  0  2  0  0  0  0  0  0
  158.6460  213.2500  153.5330 C   0  0  0  0  0  2  0  0  0  0  0  0
  161.1270  211.2050  150.9720 C   0  0  0  0  0  2  0  0  0  0  0  0
  160.4450  210.3890  152.0650 C   0  0  2  0  0  3  0  0  0  0  0  0
  161.8490  205.5840  153.4800 C   0  0  0  0  0  2  0  0  0  0  0  0
  160.4150  207.9310  152.5370 C   0  0  1  0  0  3  0  0  0  0  0  0
  161.5360  204.8090  149.7740 C   0  0  0  0  0  0  0  0  0  0  0  0
  161.8900  204.7180  151.1300 C   0  0  0  0  0  3  0  0  0  0  0  0
  161.5260  205.7280  152.0250 C   0  0  0  0  0  0  0  0  0  0  0  0
  160.4280  206.9210  150.2200 C   0  0  0  0  0  3  0  0  0  0  0  0
  160.7850  206.8310  151.5700 C   0  0  0  0  0  0  0  0  0  0  0  0
  160.8030  205.9120  149.3270 C   0  0  0  0  0  3  0  0  0  0  0  0
  160.3960  207.4700  153.8800 O   0  0  0  0  0  0  0  0  0  0  0  0
  161.6570  206.9200  154.1980 C   0  0  0  0  0  2  0  0  0  0  0  0
  161.8950  203.8190  148.8550 O   0  0  0  0  0  0  0  0  0  0  0  0
  160.6030  201.8460  149.2820 C   0  0  0  0  0  1  0  0  0  0  0  0
  160.9500  202.9260  148.2800 C   0  0  0  0  0  2  0  0  0  0  0  0
  160.1660  214.4480  149.8430 C   0  0  0  0  0  3  0  0  0  0  0  0
  161.6300  214.3490  149.4470 C   0  0  0  0  0  1  0  0  0  0  0  0
  159.3360  214.4530  148.5700 C   0  0  0  0  0  1  0  0  0  0  0  0
  159.3370  210.5310  156.5590 O   0  0  0  0  0  1  0  0  0  0  0  0
  159.7480  211.2650  155.6230 C   0  0  0  0  0  0  0  0  0  0  0  0
  160.4770  212.4090  155.9150 O   0  0  0  0  0  0  0  0  0  0  0  0
  156.9600  211.4620  154.2030 C   0  0  0  0  0  2  0  0  0  0  0  0
  156.8780  211.9500  155.5090 O   0  0  0  0  0  1  0  0  0  0  0  0
  1  4  1  0  0  0  0
  1  7  1  0  0  0  0
  2 11  1  0  0  0  0
  3  7  1  0  0  0  0
  3 33  1  0  0  0  0
  4  5  1  0  0  0  0
  6 15  1  0  0  0  0
  6  4  1  0  0  0  0
  7 31  1  0  0  0  0
  8  2  1  0  0  0  0
  9  8  1  0  0  0  0
 10  9  1  0  0  0  0
 10 12  1  0  0  0  0
 11  3  1  0  0  0  0
 12 13  1  0  0  0  0
 13  6  1  0  0  0  0
 13  1  1  0  0  0  0
 14 23  1  0  0  0  0
 15 22  1  0  0  0  0
 16 17  1  0  0  0  0
 17 18  2  0  0  0  0
 18 14  1  0  0  0  0
 19 20  2  0  0  0  0
 20 18  1  0  0  0  0
 20 15  1  0  0  0  0
 21 16  2  0  0  0  0
 21 19  1  0  0  0  0
 22 23  1  0  0  0  0
 24 16  1  0  0  0  0
 26 24  1  0  0  0  0
 26 25  1  0  0  0  0
 27  9  1  0  0  0  0
 28 27  1  0  0  0  0
 29 27  1  0  0  0  0
 31 32  2  0  0  0  0
 31 30  1  0  0  0  0
 33 34  1  0  0  0  0
M  END
>  <MODEL>
2

>  <REMARK>
 VINA RESULT:      -3.7      1.368      1.810
  Name = 
  6 active torsions:
  status: ('A' for Active; 'I' for Inactive)
    1  A    between atoms: C_3  and  C_25
    2  A    between atoms: C_5  and  C_19
    3  A    between atoms: C_6  and  C_18
    4  A    between atoms: C_7  and  O_11
    5  A    between atoms: O_11  and  C_21
    6  A    between atoms: C_12  and  C_20
                            x       y       z     vdW  Elec       q    Type
                         _______ _______ _______ _____ _____    ______ ____

>  <TORSDO>
F 6

$$$$
=
 OpenBabel11062409493D

 34 37  0  0  1  0  0  0  0  0999 V2000
  159.5920  212.1950  154.7460 N   0  0  2  0  0  0  0  0  0  0  0  0
  157.0750  214.1640  152.0870 C   0  0  0  0  0  2  0  0  0  0  0  0
  157.2400  212.5070  153.9860 C   0  0  2  0  0  3  0  0  0  0  0  0
  160.3620  211.3530  155.6640 C   0  0  2  0  0  3  0  0  0  0  0  0
  161.6280  212.0770  156.0900 C   0  0  0  0  0  1  0  0  0  0  0  0
  160.6830  210.3280  154.5970 C   0  0  2  0  0  3  0  0  0  0  0  0
  158.1770  212.0890  155.1340 C   0  0  2  0  0  3  0  0  0  0  0  0
  157.9120  213.2660  151.1770 C   0  0  0  0  0  2  0  0  0  0  0  0
  159.4060  213.4830  151.3880 C   0  0  1  0  0  3  0  0  0  0  0  0
  160.0800  212.1200  151.3450 C   0  0  0  0  0  2  0  0  0  0  0  0
  157.4120  213.9650  153.5620 C   0  0  0  0  0  2  0  0  0  0  0  0
  160.8110  211.8410  152.6470 C   0  0  0  0  0  2  0  0  0  0  0  0
  159.8760  211.2260  153.6820 C   0  0  2  0  0  3  0  0  0  0  0  0
  161.5400  206.9560  156.1210 C   0  0  0  0  0  2  0  0  0  0  0  0
  159.9230  209.0240  154.8710 C   0  0  1  0  0  3  0  0  0  0  0  0
  161.4720  205.7540  152.5170 C   0  0  0  0  0  0  0  0  0  0  0  0
  161.7730  205.8480  153.8860 C   0  0  0  0  0  3  0  0  0  0  0  0
  161.2700  206.9060  154.6480 C   0  0  0  0  0  0  0  0  0  0  0  0
  160.1390  207.7750  152.6840 C   0  0  0  0  0  3  0  0  0  0  0  0
  160.4430  207.8700  154.0470 C   0  0  0  0  0  0  0  0  0  0  0  0
  160.6530  206.7200  151.9240 C   0  0  0  0  0  3  0  0  0  0  0  0
  159.8890  208.7130  156.2570 O   0  0  0  0  0  0  0  0  0  0  0  0
  161.1830  208.3340  156.6760 C   0  0  0  0  0  2  0  0  0  0  0  0
  161.9690  204.7130  151.7280 O   0  0  0  0  0  0  0  0  0  0  0  0
  160.8590  203.6450  149.8910 C   0  0  0  0  0  1  0  0  0  0  0  0
  161.1870  203.5820  151.3680 C   0  0  0  0  0  2  0  0  0  0  0  0
  159.9910  214.4170  150.3200 C   0  0  0  0  0  3  0  0  0  0  0  0
  161.3770  213.9640  149.8930 C   0  0  0  0  0  1  0  0  0  0  0  0
  159.1080  214.4500  149.0850 C   0  0  0  0  0  1  0  0  0  0  0  0
  157.0990  212.4230  157.2580 O   0  0  0  0  0  1  0  0  0  0  0  0
  157.9110  212.8580  156.4000 C   0  0  0  0  0  0  0  0  0  0  0  0
  158.5740  214.0570  156.6260 O   0  0  0  0  0  0  0  0  0  0  0  0
  155.7800  212.1230  154.2210 C   0  0  0  0  0  2  0  0  0  0  0  0
  154.9870  213.2560  154.4200 O   0  0  0  0  0  1  0  0  0  0  0  0
  1  7  1  0  0  0  0
  1  4  1  0  0  0  0
  2 11  1  0  0  0  0
  3 33  1  0  0  0  0
  3  7  1  0  0  0  0
  4  5  1  0  0  0  0
  6 15  1  0  0  0  0
  6  4  1  0  0  0  0
  7 31  1  0  0  0  0
  8  9  1  0  0  0  0
  8  2  1  0  0  0  0
 10  9  1  0  0  0  0
 10 12  1  0  0  0  0
 11  3  1  0  0  0  0
 12 13  1  0  0  0  0
 13  6  1  0  0  0  0
 13  1  1  0  0  0  0
 14 23  1  0  0  0  0
 15 22  1  0  0  0  0
 16 17  1  0  0  0  0
 17 18  2  0  0  0  0
 18 14  1  0  0  0  0
 19 20  2  0  0  0  0
 20 18  1  0  0  0  0
 20 15  1  0  0  0  0
 21 16  2  0  0  0  0
 21 19  1  0  0  0  0
 22 23  1  0  0  0  0
 24 16  1  0  0  0  0
 25 26  1  0  0  0  0
 26 24  1  0  0  0  0
 27  9  1  0  0  0  0
 28 27  1  0  0  0  0
 29 27  1  0  0  0  0
 31 32  2  0  0  0  0
 31 30  1  0  0  0  0
 33 34  1  0  0  0  0
M  END
>  <MODEL>
3

>  <REMARK>
 VINA RESULT:      -2.8      2.079      3.099
  Name = 
  6 active torsions:
  status: ('A' for Active; 'I' for Inactive)
    1  A    between atoms: C_3  and  C_25
    2  A    between atoms: C_5  and  C_19
    3  A    between atoms: C_6  and  C_18
    4  A    between atoms: C_7  and  O_11
    5  A    between atoms: O_11  and  C_21
    6  A    between atoms: C_12  and  C_20
                            x       y       z     vdW  Elec       q    Type
                         _______ _______ _______ _____ _____    ______ ____

>  <TORSDO>
F 6

$$$$
=
 OpenBabel11062409493D

 34 37  0  0  1  0  0  0  0  0999 V2000
  161.1720  210.3650  153.7080 N   0  0  2  0  0  0  0  0  0  0  0  0
  158.5440  212.4250  156.1830 C   0  0  0  0  0  2  0  0  0  0  0  0
  159.7800  210.2620  155.7710 C   0  0  2  0  0  3  0  0  0  0  0  0
  161.9960  209.4860  152.8770 C   0  0  2  0  0  3  0  0  0  0  0  0
  163.0320  210.3050  152.1260 C   0  0  0  0  0  1  0  0  0  0  0  0
  160.8470  209.1310  151.9560 C   0  0  2  0  0  3  0  0  0  0  0  0
  160.9960  209.7020  155.0090 C   0  0  2  0  0  3  0  0  0  0  0  0
  157.7510  212.2660  154.8870 C   0  0  0  0  0  2  0  0  0  0  0  0
  158.5210  212.8030  153.6850 C   0  0  1  0  0  3  0  0  0  0  0  0
  158.3000  211.8390  152.5290 C   0  0  0  0  0  2  0  0  0  0  0  0
  159.9090  211.7460  156.1120 C   0  0  0  0  0  2  0  0  0  0  0  0
  159.6220  211.2760  152.0380 C   0  0  0  0  0  2  0  0  0  0  0  0
  160.0300  210.0480  152.8440 C   0  0  2  0  0  3  0  0  0  0  0  0
  162.6660  205.8200  152.3470 C   0  0  0  0  0  2  0  0  0  0  0  0
  160.4300  207.6710  152.1700 C   0  0  1  0  0  3  0  0  0  0  0  0
  161.4860  205.2040  148.7880 C   0  0  0  0  0  0  0  0  0  0  0  0
  162.2400  205.1460  149.9720 C   0  0  0  0  0  3  0  0  0  0  0  0
  161.8970  205.9430  151.0670 C   0  0  0  0  0  0  0  0  0  0  0  0
  160.0270  206.8490  149.8140 C   0  0  0  0  0  3  0  0  0  0  0  0
  160.7810  206.7940  150.9920 C   0  0  0  0  0  0  0  0  0  0  0  0
  160.3800  206.0570  148.7180 C   0  0  0  0  0  3  0  0  0  0  0  0
  160.9400  207.1480  153.3890 O   0  0  0  0  0  0  0  0  0  0  0  0
  162.3380  206.9890  153.2750 C   0  0  0  0  0  2  0  0  0  0  0  0
  161.8120  204.4260  147.6740 O   0  0  0  0  0  0  0  0  0  0  0  0
  161.4660  204.2340  145.3100 C   0  0  0  0  0  1  0  0  0  0  0  0
  162.1640  204.9920  146.4190 C   0  0  0  0  0  2  0  0  0  0  0  0
  158.0600  214.2180  153.3130 C   0  0  0  0  0  3  0  0  0  0  0  0
  158.1410  214.4460  151.8130 C   0  0  0  0  0  1  0  0  0  0  0  0
  156.6230  214.4530  153.7460 C   0  0  0  0  0  1  0  0  0  0  0  0
  163.1100  210.6780  155.6120 O   0  0  0  0  0  0  0  0  0  0  0  0
  162.2620  209.7710  155.8200 C   0  0  0  0  0  0  0  0  0  0  0  0
  162.4920  208.8280  156.8120 O   0  0  0  0  0  1  0  0  0  0  0  0
  159.3670  209.4090  156.9700 C   0  0  0  0  0  2  0  0  0  0  0  0
  159.3670  208.0500  156.6460 O   0  0  0  0  0  1  0  0  0  0  0  0
  1  7  1  0  0  0  0
  3 11  1  0  0  0  0
  3 33  1  0  0  0  0
  4  1  1  0  0  0  0
  5  4  1  0  0  0  0
  6 15  1  0  0  0  0
  6 13  1  0  0  0  0
  6  4  1  0  0  0  0
  7  3  1  0  0  0  0
  7 31  1  0  0  0  0
  8  2  1  0  0  0  0
  9  8  1  0  0  0  0
 10  9  1  0  0  0  0
 11  2  1  0  0  0  0
 12 10  1  0  0  0  0
 12 13  1  0  0  0  0
 13  1  1  0  0  0  0
 14 23  1  0  0  0  0
 15 22  1  0  0  0  0
 16 17  1  0  0  0  0
 17 18  2  0  0  0  0
 18 14  1  0  0  0  0
 19 20  2  0  0  0  0
 20 18  1  0  0  0  0
 20 15  1  0  0  0  0
 21 16  2  0  0  0  0
 21 19  1  0  0  0  0
 23 22  1  0  0  0  0
 24 16  1  0  0  0  0
 25 26  1  0  0  0  0
 26 24  1  0  0  0  0
 27  9  1  0  0  0  0
 27 29  1  0  0  0  0
 28 27  1  0  0  0  0
 30 31  2  0  0  0  0
 31 32  1  0  0  0  0
 34 33  1  0  0  0  0
M  END
>  <MODEL>
4

>  <REMARK>
 VINA RESULT:      -2.6      2.813      4.046
  Name = 
  6 active torsions:
  status: ('A' for Active; 'I' for Inactive)
    1  A    between atoms: C_3  and  C_25
    2  A    between atoms: C_5  and  C_19
    3  A    between atoms: C_6  and  C_18
    4  A    between atoms: C_7  and  O_11
    5  A    between atoms: O_11  and  C_21
    6  A    between atoms: C_12  and  C_20
                            x       y       z     vdW  Elec       q    Type
                         _______ _______ _______ _____ _____    ______ ____

>  <TORSDO>
F 6

$$$$
