=
 OpenBabel11062409143D

 37 41  0  0  1  0  0  0  0  0999 V2000
  160.5090  209.3730  154.6970 C   0  0  1  0  0  3  0  0  0  0  0  0
  162.7550  210.2590  150.1400 C   0  0  0  0  0  2  0  0  0  0  0  0
  161.9700  208.3390  151.5600 C   0  0  1  0  0  3  0  0  0  0  0  0
  158.4700  211.6330  152.7870 O   0  0  0  0  0  0  0  0  0  0  0  0
  161.9860  208.9420  150.1500 C   0  0  0  0  0  2  0  0  0  0  0  0
  159.6320  210.4580  154.3860 O   0  0  0  0  0  0  0  0  0  0  0  0
  159.4020  210.8340  153.0610 C   0  0  0  0  0  0  0  0  0  0  0  0
  161.8910  211.4290  150.3470 N   0  0  2  0  0  0  0  0  0  0  0  0
  160.9840  209.0580  152.5170 C   0  0  2  0  0  3  0  0  0  0  0  0
  161.3620  211.4390  151.7200 C   0  0  0  0  0  2  0  0  0  0  0  0
  160.3200  210.3450  151.9890 C   0  0  2  0  0  3  0  0  0  0  0  0
  161.5730  209.3010  153.7720 O   0  0  0  0  0  0  0  0  0  0  0  0
  160.1760  212.9000  149.3560 C   0  0  0  0  0  0  0  0  0  0  0  0
  161.3860  211.3140  147.9090 C   0  0  0  0  0  2  0  0  0  0  0  0
  162.3010  212.4640  147.4770 C   0  0  0  0  0  2  0  0  0  0  0  0
  160.5580  213.7850  146.5090 F   0  0  0  0  0  0  0  0  0  0  0  0
  160.9300  214.0950  148.8490 C   0  0  2  0  0  3  0  0  0  0  0  0
  161.5450  213.7970  147.4790 C   0  0  1  0  0  3  0  0  0  0  0  0
  160.8280  211.5400  149.3240 C   0  0  1  0  0  3  0  0  0  0  0  0
  161.9260  214.4380  149.7470 F   0  0  0  0  0  0  0  0  0  0  0  0
  158.8920  213.0170  149.6860 C   0  0  0  0  0  2  0  0  0  0  0  0
  161.7670  206.7900  151.5210 C   0  0  0  0  0  0  0  0  0  0  0  0
  163.0150  206.0940  152.0720 C   0  0  0  0  0  1  0  0  0  0  0  0
  160.6450  206.3520  152.4630 C   0  0  0  0  0  1  0  0  0  0  0  0
  162.0820  204.4320  148.6040 C   0  0  0  0  0  3  0  0  0  0  0  0
  161.4070  204.8120  149.8990 C   0  0  0  0  0  0  0  0  0  0  0  0
  161.4440  206.2860  150.1540 N   0  0  0  0  0  0  0  0  0  0  0  0
  161.8970  203.9100  151.0260 C   0  0  0  0  0  2  0  0  0  0  0  0
  160.3380  207.0160  149.5020 C   0  0  0  0  0  2  0  0  0  0  0  0
  161.6440  206.6080  147.3860 C   0  0  0  0  0  2  0  0  0  0  0  0
  160.5180  203.2860  151.1320 C   0  0  0  0  0  2  0  0  0  0  0  0
  160.2590  206.7510  147.9960 C   0  0  0  0  0  2  0  0  0  0  0  0
  160.0230  204.1860  150.0170 C   0  0  0  0  0  2  0  0  0  0  0  0
  162.1560  205.1980  147.5020 C   0  0  0  0  0  3  0  0  0  0  0  0
  161.0510  209.5670  156.1010 C   0  0  0  0  0  2  0  0  0  0  0  0
  160.0140  207.3250  156.2100 C   0  0  0  0  0  1  0  0  0  0  0  0
  160.9910  208.2680  156.8780 C   0  0  0  0  0  2  0  0  0  0  0  0
  1 35  1  1  0  0  0
  2  5  1  0  0  0  0
  3 22  1  6  0  0  0
  3  9  1  0  0  0  0
  4  7  2  0  0  0  0
  5  3  1  0  0  0  0
  6  1  1  0  0  0  0
  7  6  1  0  0  0  0
  8  2  1  6  0  0  0
  8 10  1  0  0  0  0
  9 12  1  1  0  0  0
 11 10  1  1  0  0  0
 11  9  1  0  0  0  0
 11  7  1  0  0  0  0
 12  1  1  0  0  0  0
 13 21  2  0  0  0  0
 15 18  1  0  0  0  0
 15 14  1  0  0  0  0
 17 13  1  0  0  0  0
 17 20  1  1  0  0  0
 18 16  1  6  0  0  0
 18 17  1  0  0  0  0
 19 14  1  6  0  0  0
 19 13  1  0  0  0  0
 19  8  1  0  0  0  0
 22 23  1  0  0  0  0
 22 24  1  0  0  0  0
 25 26  1  0  0  0  0
 26 33  1  0  0  0  0
 26 27  1  0  0  0  0
 26 28  1  0  0  0  0
 27 22  1  0  0  0  0
 28 31  1  0  0  0  0
 29 27  1  0  0  0  0
 30 34  1  0  0  0  0
 30 32  1  0  0  0  0
 32 29  1  0  0  0  0
 33 31  1  0  0  0  0
 34 25  2  0  0  0  0
 35 37  1  0  0  0  0
 36 37  1  0  0  0  0
M  END
>  <MODEL>
1

>  <REMARK>
 VINA RESULT:      -3.7      0.000      0.000
  Name = 
  5 active torsions:
  status: ('A' for Active; 'I' for Inactive)
    1  A    between atoms: C_1  and  C_5
    2  A    between atoms: C_4  and  C_10
    3  A    between atoms: C_4  and  N_13
    4  A    between atoms: C_5  and  C_23
    5  A    between atoms: N_27  and  C_31
                            x       y       z     vdW  Elec       q    Type
                         _______ _______ _______ _____ _____    ______ ____

>  <TORSDO>
F 5

$$$$
=
 OpenBabel11062409143D

 37 41  0  0  1  0  0  0  0  0999 V2000
  162.2230  211.7400  149.0160 C   0  0  1  0  0  3  0  0  0  0  0  0
  161.6490  208.6950  153.1400 C   0  0  0  0  0  2  0  0  0  0  0  0
  160.8000  210.8760  152.2230 C   0  0  1  0  0  3  0  0  0  0  0  0
  161.3170  208.4330  147.9360 O   0  0  0  0  0  0  0  0  0  0  0  0
  160.4120  209.5490  152.8850 C   0  0  0  0  0  2  0  0  0  0  0  0
  162.1740  210.5480  148.2290 O   0  0  0  0  0  0  0  0  0  0  0  0
  161.5480  209.3970  148.7120 C   0  0  0  0  0  0  0  0  0  0  0  0
  161.9370  207.7620  152.0420 N   0  0  2  0  0  0  0  0  0  0  0  0
  161.1500  210.7250  150.7190 C   0  0  2  0  0  3  0  0  0  0  0  0
  162.3630  208.4980  150.8410 C   0  0  0  0  0  2  0  0  0  0  0  0
  161.2330  209.2880  150.1680 C   0  0  2  0  0  3  0  0  0  0  0  0
  162.3210  211.4340  150.3910 O   0  0  0  0  0  0  0  0  0  0  0  0
  161.2430  205.7070  150.8670 C   0  0  0  0  0  0  0  0  0  0  0  0
  160.2800  206.2150  153.0780 C   0  0  0  0  0  2  0  0  0  0  0  0
  161.2930  205.2490  153.7000 C   0  0  0  0  0  2  0  0  0  0  0  0
  160.5050  203.3160  152.5330 F   0  0  0  0  0  0  0  0  0  0  0  0
  162.1450  204.6300  151.3950 C   0  0  2  0  0  3  0  0  0  0  0  0
  161.6240  204.1050  152.7360 C   0  0  1  0  0  3  0  0  0  0  0  0
  160.8180  206.8330  151.7760 C   0  0  1  0  0  3  0  0  0  0  0  0
  163.4280  205.1250  151.5520 F   0  0  0  0  0  0  0  0  0  0  0  0
  160.7030  205.5850  149.6570 C   0  0  0  0  0  2  0  0  0  0  0  0
  159.7380  211.9890  152.4960 C   0  0  0  0  0  0  0  0  0  0  0  0
  160.1350  213.2710  151.7600 C   0  0  0  0  0  1  0  0  0  0  0  0
  158.3790  211.6190  151.8990 C   0  0  0  0  0  1  0  0  0  0  0  0
  159.4150  214.1830  155.5380 C   0  0  0  0  0  3  0  0  0  0  0  0
  158.7650  213.4560  154.3860 C   0  0  0  0  0  0  0  0  0  0  0  0
  159.5450  212.2550  153.9510 N   0  0  0  0  0  0  0  0  0  0  0  0
  158.3720  214.4490  153.2970 C   0  0  0  0  0  2  0  0  0  0  0  0
  159.2330  211.0450  154.7370 C   0  0  0  0  0  2  0  0  0  0  0  0
  160.5750  212.1710  156.5470 C   0  0  0  0  0  2  0  0  0  0  0  0
  156.9050  214.1800  153.5750 C   0  0  0  0  0  2  0  0  0  0  0  0
  159.4010  211.2550  156.2440 C   0  0  0  0  0  2  0  0  0  0  0  0
  157.2890  213.1860  154.6540 C   0  0  0  0  0  2  0  0  0  0  0  0
  160.1740  213.6210  156.4940 C   0  0  0  0  0  3  0  0  0  0  0  0
  163.4160  212.5690  148.5790 C   0  0  0  0  0  2  0  0  0  0  0  0
  161.5210  214.1370  148.3250 C   0  0  0  0  0  1  0  0  0  0  0  0
  162.9580  213.8630  147.9390 C   0  0  0  0  0  2  0  0  0  0  0  0
  1 35  1  6  0  0  0
  1 12  1  0  0  0  0
  3 22  1  6  0  0  0
  3  5  1  0  0  0  0
  4  7  2  0  0  0  0
  5  2  1  0  0  0  0
  6  7  1  0  0  0  0
  6  1  1  0  0  0  0
  7 11  1  0  0  0  0
  8 10  1  6  0  0  0
  8  2  1  0  0  0  0
  9 12  1  1  0  0  0
  9  3  1  0  0  0  0
 11  9  1  0  0  0  0
 11 10  1  1  0  0  0
 13 17  1  0  0  0  0
 13 19  1  0  0  0  0
 14 15  1  0  0  0  0
 17 20  1  1  0  0  0
 17 18  1  0  0  0  0
 18 16  1  6  0  0  0
 18 15  1  0  0  0  0
 19  8  1  0  0  0  0
 19 14  1  1  0  0  0
 21 13  2  0  0  0  0
 22 27  1  0  0  0  0
 23 22  1  0  0  0  0
 24 22  1  0  0  0  0
 25 34  2  0  0  0  0
 26 33  1  0  0  0  0
 26 25  1  0  0  0  0
 27 26  1  0  0  0  0
 27 29  1  0  0  0  0
 28 31  1  0  0  0  0
 28 26  1  0  0  0  0
 29 32  1  0  0  0  0
 31 33  1  0  0  0  0
 32 30  1  0  0  0  0
 34 30  1  0  0  0  0
 37 36  1  0  0  0  0
 37 35  1  0  0  0  0
M  END
>  <MODEL>
2

>  <REMARK>
 VINA RESULT:      -2.7      3.581      8.209
  Name = 
  5 active torsions:
  status: ('A' for Active; 'I' for Inactive)
    1  A    between atoms: C_1  and  C_5
    2  A    between atoms: C_4  and  C_10
    3  A    between atoms: C_4  and  N_13
    4  A    between atoms: C_5  and  C_23
    5  A    between atoms: N_27  and  C_31
                            x       y       z     vdW  Elec       q    Type
                         _______ _______ _______ _____ _____    ______ ____

>  <TORSDO>
F 5

$$$$
=
 OpenBabel11062409143D

 37 41  0  0  1  0  0  0  0  0999 V2000
  162.4210  210.9450  149.4820 C   0  0  1  0  0  3  0  0  0  0  0  0
  162.0200  206.7230  152.4170 C   0  0  0  0  0  2  0  0  0  0  0  0
  161.3760  209.1530  152.4390 C   0  0  1  0  0  3  0  0  0  0  0  0
  160.8890  208.3120  147.5740 O   0  0  0  0  0  0  0  0  0  0  0  0
  160.8980  207.7180  152.6930 C   0  0  0  0  0  2  0  0  0  0  0  0
  162.0820  210.1090  148.3730 O   0  0  0  0  0  0  0  0  0  0  0  0
  161.3710  208.9220  148.5630 C   0  0  0  0  0  0  0  0  0  0  0  0
  162.0020  206.2070  151.0410 N   0  0  2  0  0  0  0  0  0  0  0  0
  161.4740  209.5020  150.9310 C   0  0  2  0  0  3  0  0  0  0  0  0
  162.3500  207.2730  150.0880 C   0  0  0  0  0  2  0  0  0  0  0  0
  161.2610  208.3440  149.9360 C   0  0  2  0  0  3  0  0  0  0  0  0
  162.6750  210.1740  150.6370 O   0  0  0  0  0  0  0  0  0  0  0  0
  160.6250  205.2700  149.2210 C   0  0  0  0  0  0  0  0  0  0  0  0
  160.6020  204.1820  151.4330 C   0  0  0  0  0  2  0  0  0  0  0  0
  161.6060  203.1570  150.8970 C   0  0  0  0  0  2  0  0  0  0  0  0
  160.1640  202.2990  149.1930 F   0  0  0  0  0  0  0  0  0  0  0  0
  161.4760  204.2050  148.5940 C   0  0  2  0  0  3  0  0  0  0  0  0
  161.3900  202.9070  149.4020 C   0  0  1  0  0  3  0  0  0  0  0  0
  160.7310  205.5300  150.7030 C   0  0  1  0  0  3  0  0  0  0  0  0
  162.7910  204.6310  148.5290 F   0  0  0  0  0  0  0  0  0  0  0  0
  159.6780  205.8700  148.5050 C   0  0  0  0  0  2  0  0  0  0  0  0
  160.5410  210.1910  153.2550 C   0  0  0  0  0  0  0  0  0  0  0  0
  160.8640  211.6070  152.7690 C   0  0  0  0  0  1  0  0  0  0  0  0
  159.0440  210.0350  152.9880 C   0  0  0  0  0  1  0  0  0  0  0  0
  161.3750  211.5090  156.6820 C   0  0  0  0  0  3  0  0  0  0  0  0
  160.3420  211.1970  155.6260 C   0  0  0  0  0  0  0  0  0  0  0  0
  160.7610  210.0760  154.7270 N   0  0  0  0  0  0  0  0  0  0  0  0
  159.8830  212.4840  154.9490 C   0  0  0  0  0  2  0  0  0  0  0  0
  160.4350  208.7430  155.2700 C   0  0  0  0  0  2  0  0  0  0  0  0
  162.3600  209.1810  156.8350 C   0  0  0  0  0  2  0  0  0  0  0  0
  158.5050  212.3190  155.5610 C   0  0  0  0  0  2  0  0  0  0  0  0
  161.0010  208.5200  156.6750 C   0  0  0  0  0  2  0  0  0  0  0  0
  158.9530  211.0350  156.2300 C   0  0  0  0  0  2  0  0  0  0  0  0
  162.2290  210.6270  157.2300 C   0  0  0  0  0  3  0  0  0  0  0  0
  163.6460  211.7650  149.1210 C   0  0  0  0  0  2  0  0  0  0  0  0
  162.3750  213.6100  148.0740 C   0  0  0  0  0  1  0  0  0  0  0  0
  163.4110  212.5330  147.8360 C   0  0  0  0  0  2  0  0  0  0  0  0
  1 35  1  6  0  0  0
  1 12  1  0  0  0  0
  2  5  1  0  0  0  0
  3  5  1  0  0  0  0
  3 22  1  1  0  0  0
  4  7  2  0  0  0  0
  6  7  1  0  0  0  0
  6  1  1  0  0  0  0
  7 11  1  0  0  0  0
  8 10  1  6  0  0  0
  8  2  1  0  0  0  0
  9 12  1  1  0  0  0
  9  3  1  0  0  0  0
 11 10  1  1  0  0  0
 11  9  1  0  0  0  0
 13 19  1  0  0  0  0
 15 14  1  0  0  0  0
 17 20  1  1  0  0  0
 17 13  1  0  0  0  0
 17 18  1  0  0  0  0
 18 16  1  1  0  0  0
 18 15  1  0  0  0  0
 19  8  1  0  0  0  0
 19 14  1  1  0  0  0
 21 13  2  0  0  0  0
 22 27  1  0  0  0  0
 23 22  1  0  0  0  0
 24 22  1  0  0  0  0
 25 34  2  0  0  0  0
 26 33  1  0  0  0  0
 26 25  1  0  0  0  0
 27 29  1  0  0  0  0
 27 26  1  0  0  0  0
 28 31  1  0  0  0  0
 28 26  1  0  0  0  0
 29 32  1  0  0  0  0
 30 34  1  0  0  0  0
 31 33  1  0  0  0  0
 32 30  1  0  0  0  0
 37 36  1  0  0  0  0
 37 35  1  0  0  0  0
M  END
>  <MODEL>
3

>  <REMARK>
 VINA RESULT:      -2.4      3.312      7.732
  Name = 
  5 active torsions:
  status: ('A' for Active; 'I' for Inactive)
    1  A    between atoms: C_1  and  C_5
    2  A    between atoms: C_4  and  C_10
    3  A    between atoms: C_4  and  N_13
    4  A    between atoms: C_5  and  C_23
    5  A    between atoms: N_27  and  C_31
                            x       y       z     vdW  Elec       q    Type
                         _______ _______ _______ _____ _____    ______ ____

>  <TORSDO>
F 5

$$$$
=
 OpenBabel11062409143D

 37 41  0  0  1  0  0  0  0  0999 V2000
  161.3310  207.5280  153.0980 C   0  0  1  0  0  3  0  0  0  0  0  0
  162.7050  209.3370  148.4680 C   0  0  0  0  0  2  0  0  0  0  0  0
  161.6500  207.3060  149.5060 C   0  0  1  0  0  3  0  0  0  0  0  0
  159.8000  210.7380  152.5740 O   0  0  0  0  0  0  0  0  0  0  0  0
  161.5620  208.3330  148.3710 C   0  0  0  0  0  2  0  0  0  0  0  0
  160.8200  208.8360  153.3690 O   0  0  0  0  0  0  0  0  0  0  0  0
  160.4490  209.6880  152.3270 C   0  0  0  0  0  0  0  0  0  0  0  0
  162.3460  210.5410  149.2310 N   0  0  2  0  0  0  0  0  0  0  0  0
  161.1910  207.8740  150.8750 C   0  0  2  0  0  3  0  0  0  0  0  0
  162.1600  210.2100  150.6530 C   0  0  0  0  0  2  0  0  0  0  0  0
  160.8970  209.3850  150.9350 C   0  0  2  0  0  3  0  0  0  0  0  0
  162.0840  207.5170  151.9040 O   0  0  0  0  0  0  0  0  0  0  0  0
  161.1620  212.7010  149.0910 C   0  0  0  0  0  0  0  0  0  0  0  0
  161.2180  211.2250  147.1160 C   0  0  0  0  0  2  0  0  0  0  0  0
  162.3660  212.0740  146.5620 C   0  0  0  0  0  2  0  0  0  0  0  0
  161.1030  214.1010  146.4310 F   0  0  0  0  0  0  0  0  0  0  0  0
  162.1670  213.6620  148.5260 C   0  0  2  0  0  3  0  0  0  0  0  0
  162.2310  213.5350  147.0010 C   0  0  1  0  0  3  0  0  0  0  0  0
  161.1870  211.2570  148.6540 C   0  0  1  0  0  3  0  0  0  0  0  0
  163.4150  213.4130  149.0700 F   0  0  0  0  0  0  0  0  0  0  0  0
  160.1660  213.1510  149.8480 C   0  0  0  0  0  2  0  0  0  0  0  0
  160.9390  205.9670  149.1290 C   0  0  0  0  0  0  0  0  0  0  0  0
  161.2440  204.9060  150.1900 C   0  0  0  0  0  1  0  0  0  0  0  0
  159.4180  206.1140  149.1700 C   0  0  0  0  0  1  0  0  0  0  0  0
  162.9260  203.8960  146.6930 C   0  0  0  0  0  3  0  0  0  0  0  0
  161.7190  204.0470  147.5860 C   0  0  0  0  0  0  0  0  0  0  0  0
  161.3180  205.4770  147.7710 N   0  0  0  0  0  0  0  0  0  0  0  0
  161.9000  203.2180  148.8520 C   0  0  0  0  0  2  0  0  0  0  0  0
  160.4370  205.9770  146.6960 C   0  0  0  0  0  2  0  0  0  0  0  0
  162.5410  205.9820  145.3100 C   0  0  0  0  0  2  0  0  0  0  0  0
  160.7750  202.2990  148.4160 C   0  0  0  0  0  2  0  0  0  0  0  0
  161.0350  205.7820  145.3010 C   0  0  0  0  0  2  0  0  0  0  0  0
  160.5850  203.1250  147.1590 C   0  0  0  0  0  2  0  0  0  0  0  0
  163.2650  204.7170  145.6840 C   0  0  0  0  0  3  0  0  0  0  0  0
  162.1950  207.0870  154.2640 C   0  0  0  0  0  2  0  0  0  0  0  0
  159.9950  207.0830  155.3930 C   0  0  0  0  0  1  0  0  0  0  0  0
  161.4770  207.3260  155.5770 C   0  0  0  0  0  2  0  0  0  0  0  0
  1  6  1  0  0  0  0
  1 35  1  1  0  0  0
  3 22  1  6  0  0  0
  3  9  1  0  0  0  0
  5  2  1  0  0  0  0
  5  3  1  0  0  0  0
  7  4  2  0  0  0  0
  7  6  1  0  0  0  0
  8  2  1  6  0  0  0
  8 10  1  0  0  0  0
  9 11  1  0  0  0  0
  9 12  1  1  0  0  0
 11 10  1  1  0  0  0
 11  7  1  0  0  0  0
 12  1  1  0  0  0  0
 13 21  2  0  0  0  0
 15 18  1  0  0  0  0
 15 14  1  0  0  0  0
 17 20  1  1  0  0  0
 17 13  1  0  0  0  0
 18 16  1  6  0  0  0
 18 17  1  0  0  0  0
 19 14  1  6  0  0  0
 19 13  1  0  0  0  0
 19  8  1  0  0  0  0
 22 24  1  0  0  0  0
 22 23  1  0  0  0  0
 25 26  1  0  0  0  0
 26 27  1  0  0  0  0
 26 28  1  0  0  0  0
 27 22  1  0  0  0  0
 29 27  1  0  0  0  0
 30 34  1  0  0  0  0
 31 28  1  0  0  0  0
 32 30  1  0  0  0  0
 32 29  1  0  0  0  0
 33 26  1  0  0  0  0
 33 31  1  0  0  0  0
 34 25  2  0  0  0  0
 35 37  1  0  0  0  0
 36 37  1  0  0  0  0
M  END
>  <MODEL>
4

>  <REMARK>
 VINA RESULT:      -1.4      1.594      2.150
  Name = 
  5 active torsions:
  status: ('A' for Active; 'I' for Inactive)
    1  A    between atoms: C_1  and  C_5
    2  A    between atoms: C_4  and  C_10
    3  A    between atoms: C_4  and  N_13
    4  A    between atoms: C_5  and  C_23
    5  A    between atoms: N_27  and  C_31
                            x       y       z     vdW  Elec       q    Type
                         _______ _______ _______ _____ _____    ______ ____

>  <TORSDO>
F 5

$$$$
=
 OpenBabel11062409143D

 37 41  0  0  1  0  0  0  0  0999 V2000
  161.1230  209.1150  153.2840 C   0  0  1  0  0  3  0  0  0  0  0  0
  162.7300  210.1900  148.5030 C   0  0  0  0  0  2  0  0  0  0  0  0
  161.8570  208.2580  149.8520 C   0  0  1  0  0  3  0  0  0  0  0  0
  159.2350  211.8860  151.9910 O   0  0  0  0  0  0  0  0  0  0  0  0
  161.7530  209.0200  148.5260 C   0  0  0  0  0  2  0  0  0  0  0  0
  160.4130  210.3540  153.2390 O   0  0  0  0  0  0  0  0  0  0  0  0
  160.0430  210.9220  152.0180 C   0  0  0  0  0  0  0  0  0  0  0  0
  162.1300  211.4480  148.9710 N   0  0  2  0  0  0  0  0  0  0  0  0
  161.1790  209.0000  151.0340 C   0  0  2  0  0  3  0  0  0  0  0  0
  161.8380  211.3720  150.4120 C   0  0  0  0  0  2  0  0  0  0  0  0
  160.6760  210.4300  150.7570 C   0  0  2  0  0  3  0  0  0  0  0  0
  161.9960  208.9910  152.1810 O   0  0  0  0  0  0  0  0  0  0  0  0
  160.6060  213.3010  148.3950 C   0  0  0  0  0  0  0  0  0  0  0  0
  161.2040  211.6490  146.6650 C   0  0  0  0  0  2  0  0  0  0  0  0
  162.2460  212.6380  146.1350 C   0  0  0  0  0  2  0  0  0  0  0  0
  160.6690  214.3480  145.5780 F   0  0  0  0  0  0  0  0  0  0  0  0
  161.4900  214.3700  147.8220 C   0  0  2  0  0  3  0  0  0  0  0  0
  161.7890  214.0850  146.3480 C   0  0  1  0  0  3  0  0  0  0  0  0
  160.9530  211.8500  148.1700 C   0  0  1  0  0  3  0  0  0  0  0  0
  162.6730  214.4360  148.5370 F   0  0  0  0  0  0  0  0  0  0  0  0
  159.4490  213.6300  148.9620 C   0  0  0  0  0  2  0  0  0  0  0  0
  161.3800  206.7770  149.7040 C   0  0  0  0  0  0  0  0  0  0  0  0
  159.8970  206.7500  149.3250 C   0  0  0  0  0  1  0  0  0  0  0  0
  162.0800  206.0820  148.5360 C   0  0  0  0  0  1  0  0  0  0  0  0
  160.4180  204.3850  152.4480 C   0  0  0  0  0  3  0  0  0  0  0  0
  160.9900  204.6200  151.0710 C   0  0  0  0  0  0  0  0  0  0  0  0
  161.6240  205.9690  150.9350 N   0  0  0  0  0  0  0  0  0  0  0  0
  159.9660  204.2340  150.0080 C   0  0  0  0  0  2  0  0  0  0  0  0
  163.0270  205.9990  151.3930 C   0  0  0  0  0  2  0  0  0  0  0  0
  162.0190  205.8950  153.6990 C   0  0  0  0  0  2  0  0  0  0  0  0
  160.8460  203.0770  149.5740 C   0  0  0  0  0  2  0  0  0  0  0  0
  163.1950  205.4890  152.8260 C   0  0  0  0  0  2  0  0  0  0  0  0
  161.8720  203.4610  150.6230 C   0  0  0  0  0  2  0  0  0  0  0  0
  160.8850  204.9120  153.5920 C   0  0  0  0  0  3  0  0  0  0  0  0
  161.9090  209.0470  154.5810 C   0  0  0  0  0  2  0  0  0  0  0  0
  161.6480  208.6290  157.0040 C   0  0  0  0  0  1  0  0  0  0  0  0
  161.1410  208.2640  155.6260 C   0  0  0  0  0  2  0  0  0  0  0  0
  1 35  1  1  0  0  0
  2  5  1  0  0  0  0
  3 22  1  6  0  0  0
  3  9  1  0  0  0  0
  4  7  2  0  0  0  0
  5  3  1  0  0  0  0
  6  1  1  0  0  0  0
  7  6  1  0  0  0  0
  8  2  1  6  0  0  0
  8 10  1  0  0  0  0
  9 12  1  1  0  0  0
 11 10  1  1  0  0  0
 11  9  1  0  0  0  0
 11  7  1  0  0  0  0
 12  1  1  0  0  0  0
 13 21  2  0  0  0  0
 15 18  1  0  0  0  0
 15 14  1  0  0  0  0
 17 13  1  0  0  0  0
 17 20  1  1  0  0  0
 18 16  1  6  0  0  0
 18 17  1  0  0  0  0
 19 14  1  6  0  0  0
 19 13  1  0  0  0  0
 19  8  1  0  0  0  0
 22 27  1  0  0  0  0
 23 22  1  0  0  0  0
 24 22  1  0  0  0  0
 25 34  2  0  0  0  0
 26 25  1  0  0  0  0
 27 26  1  0  0  0  0
 27 29  1  0  0  0  0
 28 26  1  0  0  0  0
 29 32  1  0  0  0  0
 31 28  1  0  0  0  0
 31 33  1  0  0  0  0
 32 30  1  0  0  0  0
 33 26  1  0  0  0  0
 34 30  1  0  0  0  0
 35 37  1  0  0  0  0
 37 36  1  0  0  0  0
M  END
>  <MODEL>
5

>  <REMARK>
 VINA RESULT:      -1.1      1.216      2.571
  Name = 
  5 active torsions:
  status: ('A' for Active; 'I' for Inactive)
    1  A    between atoms: C_1  and  C_5
    2  A    between atoms: C_4  and  C_10
    3  A    between atoms: C_4  and  N_13
    4  A    between atoms: C_5  and  C_23
    5  A    between atoms: N_27  and  C_31
                            x       y       z     vdW  Elec       q    Type
                         _______ _______ _______ _____ _____    ______ ____

>  <TORSDO>
F 5

$$$$
=
 OpenBabel11062409143D

 37 41  0  0  1  0  0  0  0  0999 V2000
  162.1810  206.8280  147.9920 C   0  0  1  0  0  3  0  0  0  0  0  0
  162.5130  210.1610  151.9130 C   0  0  0  0  0  2  0  0  0  0  0  0
  162.0980  210.1390  149.4340 C   0  0  1  0  0  3  0  0  0  0  0  0
  159.8920  205.8460  150.5840 O   0  0  0  0  0  0  0  0  0  0  0  0
  161.6330  210.6920  150.7860 C   0  0  0  0  0  2  0  0  0  0  0  0
  161.4170  205.9960  148.8680 O   0  0  0  0  0  0  0  0  0  0  0  0
  160.7310  206.5420  149.9550 C   0  0  0  0  0  0  0  0  0  0  0  0
  161.9810  208.9370  152.5270 N   0  0  2  0  0  0  0  0  0  0  0  0
  161.6910  208.6580  149.2120 C   0  0  2  0  0  3  0  0  0  0  0  0
  162.0540  207.8140  151.5790 C   0  0  0  0  0  2  0  0  0  0  0  0
  161.0620  207.9250  150.4130 C   0  0  2  0  0  3  0  0  0  0  0  0
  162.7620  207.9050  148.6960 O   0  0  0  0  0  0  0  0  0  0  0  0
  160.5590  208.6730  154.5260 C   0  0  0  0  0  0  0  0  0  0  0  0
  160.1940  210.6000  153.0320 C   0  0  0  0  0  2  0  0  0  0  0  0
  161.0110  211.4590  154.0030 C   0  0  0  0  0  2  0  0  0  0  0  0
  159.5340  211.1650  155.8610 F   0  0  0  0  0  0  0  0  0  0  0  0
  161.2240  209.4960  155.5910 C   0  0  2  0  0  3  0  0  0  0  0  0
  160.8400  210.9710  155.4450 C   0  0  1  0  0  3  0  0  0  0  0  0
  160.6250  209.1240  153.0880 C   0  0  1  0  0  3  0  0  0  0  0  0
  162.5990  209.3580  155.5030 F   0  0  0  0  0  0  0  0  0  0  0  0
  159.7910  207.6420  154.8670 C   0  0  0  0  0  2  0  0  0  0  0  0
  161.6770  211.0730  148.2540 C   0  0  0  0  0  0  0  0  0  0  0  0
  162.9200  211.4990  147.4680 C   0  0  0  0  0  1  0  0  0  0  0  0
  160.8230  210.3260  147.2300 C   0  0  0  0  0  1  0  0  0  0  0  0
  161.2870  214.4530  149.8650 C   0  0  0  0  0  3  0  0  0  0  0  0
  161.5320  213.6250  148.6270 C   0  0  0  0  0  0  0  0  0  0  0  0
  160.9080  212.2670  148.7120 N   0  0  0  0  0  0  0  0  0  0  0  0
  163.0080  213.6780  148.2490 C   0  0  0  0  0  2  0  0  0  0  0  0
  159.4920  212.2520  148.2960 C   0  0  0  0  0  2  0  0  0  0  0  0
  159.0850  213.3830  150.5110 C   0  0  0  0  0  2  0  0  0  0  0  0
  162.6620  214.4530  146.9910 C   0  0  0  0  0  2  0  0  0  0  0  0
  158.6380  213.2650  149.0630 C   0  0  0  0  0  2  0  0  0  0  0  0
  161.1920  214.3970  147.3580 C   0  0  0  0  0  2  0  0  0  0  0  0
  160.2090  214.3710  150.6640 C   0  0  0  0  0  3  0  0  0  0  0  0
  163.2610  205.9880  147.3360 C   0  0  0  0  0  2  0  0  0  0  0  0
  161.8540  205.6090  145.3380 C   0  0  0  0  0  1  0  0  0  0  0  0
  162.6440  204.9350  146.4380 C   0  0  0  0  0  2  0  0  0  0  0  0
  1 35  1  1  0  0  0
  1 12  1  0  0  0  0
  1  6  1  0  0  0  0
  2  8  1  0  0  0  0
  3 22  1  6  0  0  0
  3  5  1  0  0  0  0
  5  2  1  0  0  0  0
  6  7  1  0  0  0  0
  7 11  1  0  0  0  0
  7  4  2  0  0  0  0
  8 10  1  6  0  0  0
  8 19  1  0  0  0  0
  9 12  1  1  0  0  0
  9  3  1  0  0  0  0
  9 11  1  0  0  0  0
 11 10  1  1  0  0  0
 13 21  2  0  0  0  0
 13 17  1  0  0  0  0
 14 15  1  0  0  0  0
 15 18  1  0  0  0  0
 17 20  1  6  0  0  0
 18 17  1  0  0  0  0
 18 16  1  6  0  0  0
 19 14  1  1  0  0  0
 19 13  1  0  0  0  0
 22 27  1  0  0  0  0
 23 22  1  0  0  0  0
 24 22  1  0  0  0  0
 25 34  2  0  0  0  0
 26 27  1  0  0  0  0
 26 25  1  0  0  0  0
 28 26  1  0  0  0  0
 29 27  1  0  0  0  0
 29 32  1  0  0  0  0
 30 34  1  0  0  0  0
 31 33  1  0  0  0  0
 31 28  1  0  0  0  0
 32 30  1  0  0  0  0
 33 26  1  0  0  0  0
 36 37  1  0  0  0  0
 37 35  1  0  0  0  0
M  END
>  <MODEL>
6

>  <REMARK>
 VINA RESULT:      -1.0      3.030      7.424
  Name = 
  5 active torsions:
  status: ('A' for Active; 'I' for Inactive)
    1  A    between atoms: C_1  and  C_5
    2  A    between atoms: C_4  and  C_10
    3  A    between atoms: C_4  and  N_13
    4  A    between atoms: C_5  and  C_23
    5  A    between atoms: N_27  and  C_31
                            x       y       z     vdW  Elec       q    Type
                         _______ _______ _______ _____ _____    ______ ____

>  <TORSDO>
F 5

$$$$
=
 OpenBabel11062409143D

 37 41  0  0  1  0  0  0  0  0999 V2000
  160.8400  211.8770  152.0850 C   0  0  1  0  0  3  0  0  0  0  0  0
  160.8260  208.7370  147.9940 C   0  0  0  0  0  2  0  0  0  0  0  0
  161.5830  211.0420  148.6500 C   0  0  1  0  0  3  0  0  0  0  0  0
  162.3750  208.7530  152.9800 O   0  0  0  0  0  0  0  0  0  0  0  0
  161.9720  209.7410  147.9380 C   0  0  0  0  0  2  0  0  0  0  0  0
  161.2160  210.7360  152.8600 O   0  0  0  0  0  0  0  0  0  0  0  0
  161.8530  209.6460  152.2630 C   0  0  0  0  0  0  0  0  0  0  0  0
  160.9170  207.8270  149.1450 N   0  0  2  0  0  0  0  0  0  0  0  0
  161.6100  210.9190  150.1960 C   0  0  2  0  0  3  0  0  0  0  0  0
  160.6900  208.5620  150.3990 C   0  0  0  0  0  2  0  0  0  0  0  0
  161.8370  209.5090  150.7760 C   0  0  2  0  0  3  0  0  0  0  0  0
  160.4670  211.5000  150.7770 O   0  0  0  0  0  0  0  0  0  0  0  0
  162.1000  205.9010  150.1320 C   0  0  0  0  0  0  0  0  0  0  0  0
  162.4920  206.4720  147.7660 C   0  0  0  0  0  2  0  0  0  0  0  0
  161.4970  205.3750  147.3760 C   0  0  0  0  0  2  0  0  0  0  0  0
  162.7540  203.5810  148.3360 F   0  0  0  0  0  0  0  0  0  0  0  0
  161.2470  204.7090  149.8080 C   0  0  2  0  0  3  0  0  0  0  0  0
  161.5280  204.2210  148.3840 C   0  0  1  0  0  3  0  0  0  0  0  0
  162.1750  207.0490  149.1570 C   0  0  1  0  0  3  0  0  0  0  0  0
  159.9090  205.0390  149.9360 F   0  0  0  0  0  0  0  0  0  0  0  0
  162.9000  205.8740  151.1950 C   0  0  0  0  0  2  0  0  0  0  0  0
  162.4070  212.2580  148.1170 C   0  0  0  0  0  0  0  0  0  0  0  0
  162.3920  213.3840  149.1560 C   0  0  0  0  0  1  0  0  0  0  0  0
  163.8870  211.9050  147.9680 C   0  0  0  0  0  1  0  0  0  0  0  0
  159.9500  212.4910  145.2750 C   0  0  0  0  0  3  0  0  0  0  0  0
  160.4530  213.0040  146.6020 C   0  0  0  0  0  0  0  0  0  0  0  0
  161.9150  212.7520  146.7980 N   0  0  0  0  0  0  0  0  0  0  0  0
  159.5230  212.5510  147.7220 C   0  0  0  0  0  2  0  0  0  0  0  0
  162.7690  213.8000  146.2040 C   0  0  0  0  0  2  0  0  0  0  0  0
  162.1320  212.7310  144.0130 C   0  0  0  0  0  2  0  0  0  0  0  0
  159.0950  213.9890  147.9540 C   0  0  0  0  0  2  0  0  0  0  0  0
  162.4770  214.0320  144.7190 C   0  0  0  0  0  2  0  0  0  0  0  0
  160.0230  214.4460  146.8460 C   0  0  0  0  0  2  0  0  0  0  0  0
  160.6690  212.4030  144.1430 C   0  0  0  0  0  3  0  0  0  0  0  0
  159.6840  212.5790  152.7750 C   0  0  0  0  0  2  0  0  0  0  0  0
  158.1530  214.2790  151.8360 C   0  0  0  0  0  1  0  0  0  0  0  0
  158.5500  212.8190  151.8000 C   0  0  0  0  0  2  0  0  0  0  0  0
  1 35  1  1  0  0  0
  1  6  1  0  0  0  0
  3 22  1  1  0  0  0
  3  9  1  0  0  0  0
  5  2  1  0  0  0  0
  5  3  1  0  0  0  0
  7  6  1  0  0  0  0
  7  4  2  0  0  0  0
  8  2  1  6  0  0  0
  8 19  1  0  0  0  0
  8 10  1  0  0  0  0
  9 11  1  0  0  0  0
  9 12  1  1  0  0  0
 11 10  1  1  0  0  0
 11  7  1  0  0  0  0
 12  1  1  0  0  0  0
 13 21  2  0  0  0  0
 15 14  1  0  0  0  0
 15 18  1  0  0  0  0
 17 20  1  6  0  0  0
 17 13  1  0  0  0  0
 18 16  1  1  0  0  0
 18 17  1  0  0  0  0
 19 14  1  6  0  0  0
 19 13  1  0  0  0  0
 22 23  1  0  0  0  0
 24 22  1  0  0  0  0
 25 26  1  0  0  0  0
 26 27  1  0  0  0  0
 26 33  1  0  0  0  0
 26 28  1  0  0  0  0
 27 22  1  0  0  0  0
 28 31  1  0  0  0  0
 29 27  1  0  0  0  0
 30 34  1  0  0  0  0
 30 32  1  0  0  0  0
 32 29  1  0  0  0  0
 33 31  1  0  0  0  0
 34 25  2  0  0  0  0
 37 36  1  0  0  0  0
 37 35  1  0  0  0  0
M  END
>  <MODEL>
7

>  <REMARK>
 VINA RESULT:      -0.9      3.030      7.063
  Name = 
  5 active torsions:
  status: ('A' for Active; 'I' for Inactive)
    1  A    between atoms: C_1  and  C_5
    2  A    between atoms: C_4  and  C_10
    3  A    between atoms: C_4  and  N_13
    4  A    between atoms: C_5  and  C_23
    5  A    between atoms: N_27  and  C_31
                            x       y       z     vdW  Elec       q    Type
                         _______ _______ _______ _____ _____    ______ ____

>  <TORSDO>
F 5

$$$$
