=
 OpenBabel11052422393D

 31 35  0  0  1  0  0  0  0  0999 V2000
  160.8290  202.1580  150.5980 C   0  0  0  0  0  0  0  0  0  0  0  0
  161.5770  205.6340  149.1770 C   0  0  2  0  0  3  0  0  0  0  0  0
  161.3210  205.3500  147.6790 C   0  0  2  0  0  3  0  0  0  0  0  0
  161.6320  208.0090  153.8830 O   0  0  0  0  0  0  0  0  0  0  0  0
  161.4460  208.8870  152.9970 C   0  0  0  0  0  0  0  0  0  0  0  0
  162.7800  204.6570  145.6400 C   0  0  0  0  0  2  0  0  0  0  0  0
  161.1890  204.5100  150.1080 C   0  0  0  0  0  0  0  0  0  0  0  0
  160.6810  202.4610  151.9540 C   0  0  0  0  0  3  0  0  0  0  0  0
  162.4810  204.4960  147.1330 C   0  0  0  0  0  2  0  0  0  0  0  0
  161.1770  207.1800  151.1180 C   0  0  0  0  0  0  0  0  0  0  0  0
  160.7260  200.8110  150.1540 N   0  0  0  0  0  1  0  0  0  0  0  0
  161.1030  207.8340  147.3550 C   0  0  0  0  0  3  0  0  0  0  0  0
  161.6130  204.2540  144.7360 C   0  0  0  0  0  2  0  0  0  0  0  0
  161.1540  206.1640  151.9350 N   0  0  0  0  0  0  0  0  0  0  0  0
  160.9490  206.9570  149.6410 C   0  0  1  0  0  3  0  0  0  0  0  0
  161.2470  208.5190  151.6280 N   0  0  0  0  0  2  0  0  0  0  0  0
  161.0960  203.1780  149.6800 C   0  0  0  0  0  3  0  0  0  0  0  0
  160.3120  205.0140  145.0110 C   0  0  0  0  0  2  0  0  0  0  0  0
  161.0440  204.8070  151.4770 C   0  0  0  0  0  0  0  0  0  0  0  0
  160.7910  203.7830  152.3950 C   0  0  0  0  0  3  0  0  0  0  0  0
  161.5120  208.0750  148.7780 C   0  0  0  0  0  2  0  0  0  0  0  0
  161.0320  206.5980  146.8360 C   0  0  0  0  0  0  0  0  0  0  0  0
  160.5390  206.4710  145.4160 C   0  0  0  0  0  2  0  0  0  0  0  0
  160.4280  210.8910  155.9610 C   0  0  1  0  0  3  0  0  0  0  0  0
  162.3120  210.6290  154.4620 O   0  0  0  0  0  0  0  0  0  0  0  0
  159.2450  210.6600  152.4430 O   0  0  0  0  0  1  0  0  0  0  0  0
  159.8450  210.3770  157.2610 C   0  0  0  0  0  1  0  0  0  0  0  0
  161.7220  210.1440  155.6500 C   0  0  0  0  0  2  0  0  0  0  0  0
  160.0840  211.0140  153.5000 C   0  0  2  0  0  3  0  0  0  0  0  0
  161.4660  210.3480  153.3600 C   0  0  2  0  0  3  0  0  0  0  0  0
  159.4370  210.6500  154.8320 C   0  0  0  0  0  2  0  0  0  0  0  0
  1  8  1  0  0  0  0
  2 15  1  0  0  0  0
  2  7  1  1  0  0  0
  3  9  1  6  0  0  0
  3  2  1  0  0  0  0
  5  4  2  0  0  0  0
  6  9  1  0  0  0  0
  7 19  2  0  0  0  0
  8 20  2  0  0  0  0
 10 16  1  0  0  0  0
 10 14  2  0  0  0  0
 11  1  1  0  0  0  0
 12 21  1  0  0  0  0
 13 18  1  0  0  0  0
 13  6  1  0  0  0  0
 15 21  1  6  0  0  0
 15 10  1  0  0  0  0
 16  5  1  0  0  0  0
 17  7  1  0  0  0  0
 17  1  2  0  0  0  0
 18 23  1  0  0  0  0
 19 14  1  0  0  0  0
 19 20  1  0  0  0  0
 22 12  2  0  0  0  0
 22  3  1  0  0  0  0
 23 22  1  0  0  0  0
 24 27  1  1  0  0  0
 25 28  1  0  0  0  0
 28 24  1  0  0  0  0
 29 26  1  6  0  0  0
 29 31  1  0  0  0  0
 30  5  1  1  0  0  0
 30 29  1  0  0  0  0
 30 25  1  0  0  0  0
 31 24  1  0  0  0  0
M  END
>  <MODEL>
1

>  <REMARK>
 VINA RESULT:     -10.3      0.000      0.000
  Name = 
  1 active torsions:
  status: ('A' for Active; 'I' for Inactive)
    1  A    between atoms: C_9  and  C_22
                            x       y       z     vdW  Elec       q    Type
                         _______ _______ _______ _____ _____    ______ ____

>  <TORSDO>
F 1

$$$$
=
 OpenBabel11052422393D

 31 35  0  0  1  0  0  0  0  0999 V2000
  161.2950  204.7420  151.4860 C   0  0  0  0  0  0  0  0  0  0  0  0
  160.9700  208.3170  152.8160 C   0  0  2  0  0  3  0  0  0  0  0  0
  161.0880  208.0300  154.3300 C   0  0  2  0  0  3  0  0  0  0  0  0
  161.5520  210.5780  148.0890 O   0  0  0  0  0  0  0  0  0  0  0  0
  161.8080  211.4390  148.9760 C   0  0  0  0  0  0  0  0  0  0  0  0
  159.4190  207.5960  156.2780 C   0  0  0  0  0  2  0  0  0  0  0  0
  161.2490  207.1300  151.9240 C   0  0  0  0  0  0  0  0  0  0  0  0
  161.5700  204.9920  150.1390 C   0  0  0  0  0  3  0  0  0  0  0  0
  159.7850  207.3620  154.8100 C   0  0  0  0  0  2  0  0  0  0  0  0
  161.7090  209.7490  150.8870 C   0  0  0  0  0  0  0  0  0  0  0  0
  161.1750  203.4030  151.9510 N   0  0  0  0  0  1  0  0  0  0  0  0
  161.6420  210.4640  154.6400 C   0  0  0  0  0  3  0  0  0  0  0  0
  160.4570  207.0480  157.2610 C   0  0  0  0  0  2  0  0  0  0  0  0
  161.6360  208.7240  150.0860 N   0  0  0  0  0  0  0  0  0  0  0  0
  161.8100  209.5260  152.3780 C   0  0  1  0  0  3  0  0  0  0  0  0
  161.8660  211.0740  150.3590 N   0  0  0  0  0  2  0  0  0  0  0  0
  161.1220  205.8080  152.3740 C   0  0  0  0  0  3  0  0  0  0  0  0
  161.8690  207.6080  157.0620 C   0  0  0  0  0  2  0  0  0  0  0  0
  161.5200  207.3750  150.5650 C   0  0  0  0  0  0  0  0  0  0  0  0
  161.6800  206.3060  149.6770 C   0  0  0  0  0  3  0  0  0  0  0  0
  161.3620  210.7310  153.1910 C   0  0  0  0  0  2  0  0  0  0  0  0
  161.5010  209.2410  155.1760 C   0  0  0  0  0  0  0  0  0  0  0  0
  161.8800  209.0730  156.6270 C   0  0  0  0  0  2  0  0  0  0  0  0
  160.4080  213.7300  146.4020 C   0  0  1  0  0  3  0  0  0  0  0  0
  160.8630  213.6750  148.7800 O   0  0  0  0  0  0  0  0  0  0  0  0
  163.7660  212.2620  147.0320 O   0  0  0  0  0  1  0  0  0  0  0  0
  159.3420  213.4150  145.3740 C   0  0  0  0  0  1  0  0  0  0  0  0
  159.9040  213.3550  147.7920 C   0  0  0  0  0  2  0  0  0  0  0  0
  162.6750  213.1100  147.2190 C   0  0  2  0  0  3  0  0  0  0  0  0
  162.0210  212.8800  148.5960 C   0  0  2  0  0  3  0  0  0  0  0  0
  161.6610  212.9210  146.0970 C   0  0  0  0  0  2  0  0  0  0  0  0
  1 11  1  0  0  0  0
  1 17  1  0  0  0  0
  2  7  1  6  0  0  0
  2  3  1  0  0  0  0
  3  9  1  1  0  0  0
  3 22  1  0  0  0  0
  4  5  2  0  0  0  0
  5 16  1  0  0  0  0
  6 13  1  0  0  0  0
  7 17  2  0  0  0  0
  8  1  2  0  0  0  0
  9  6  1  0  0  0  0
 10 15  1  0  0  0  0
 12 22  2  0  0  0  0
 14 19  1  0  0  0  0
 14 10  2  0  0  0  0
 15  2  1  0  0  0  0
 15 21  1  1  0  0  0
 16 10  1  0  0  0  0
 18 13  1  0  0  0  0
 19  7  1  0  0  0  0
 20  8  1  0  0  0  0
 20 19  2  0  0  0  0
 21 12  1  0  0  0  0
 22 23  1  0  0  0  0
 23 18  1  0  0  0  0
 24 27  1  6  0  0  0
 24 28  1  0  0  0  0
 28 25  1  0  0  0  0
 29 26  1  6  0  0  0
 29 30  1  0  0  0  0
 30 25  1  0  0  0  0
 30  5  1  6  0  0  0
 31 24  1  0  0  0  0
 31 29  1  0  0  0  0
M  END
>  <MODEL>
2

>  <REMARK>
 VINA RESULT:      -8.7      3.469      7.327
  Name = 
  1 active torsions:
  status: ('A' for Active; 'I' for Inactive)
    1  A    between atoms: C_9  and  C_22
                            x       y       z     vdW  Elec       q    Type
                         _______ _______ _______ _____ _____    ______ ____

>  <TORSDO>
F 1

$$$$
=
 OpenBabel11052422393D

 31 35  0  0  1  0  0  0  0  0999 V2000
  161.9940  206.6330  147.1720 C   0  0  0  0  0  0  0  0  0  0  0  0
  160.8580  205.2010  150.5350 C   0  0  2  0  0  3  0  0  0  0  0  0
  161.0750  203.6970  150.2500 C   0  0  2  0  0  3  0  0  0  0  0  0
  160.7810  209.8720  152.9770 O   0  0  0  0  0  0  0  0  0  0  0  0
  160.8440  208.9670  153.8530 C   0  0  0  0  0  0  0  0  0  0  0  0
  159.6010  201.7350  149.3860 C   0  0  0  0  0  2  0  0  0  0  0  0
  161.3910  206.1290  149.4690 C   0  0  0  0  0  0  0  0  0  0  0  0
  162.1720  207.9770  147.5110 C   0  0  0  0  0  3  0  0  0  0  0  0
  159.9780  203.2150  149.2810 C   0  0  0  0  0  2  0  0  0  0  0  0
  161.1930  207.1010  152.1460 C   0  0  0  0  0  0  0  0  0  0  0  0
  162.2070  206.2040  145.8330 N   0  0  0  0  0  1  0  0  0  0  0  0
  161.0400  203.3300  152.7380 C   0  0  0  0  0  3  0  0  0  0  0  0
  160.7610  200.7850  149.0800 C   0  0  0  0  0  2  0  0  0  0  0  0
  161.3480  207.9290  151.1510 N   0  0  0  0  0  0  0  0  0  0  0  0
  161.3770  205.6180  151.9190 C   0  0  1  0  0  3  0  0  0  0  0  0
  161.0180  207.5950  153.4810 N   0  0  0  0  0  2  0  0  0  0  0  0
  161.5920  205.7140  148.1450 C   0  0  0  0  0  3  0  0  0  0  0  0
  161.9940  200.9910  149.9640 C   0  0  0  0  0  2  0  0  0  0  0  0
  161.5670  207.4850  149.8030 C   0  0  0  0  0  0  0  0  0  0  0  0
  161.9560  208.4050  148.8240 C   0  0  0  0  0  3  0  0  0  0  0  0
  160.6730  204.7660  152.9640 C   0  0  0  0  0  2  0  0  0  0  0  0
  161.2060  202.8250  151.5050 C   0  0  0  0  0  0  0  0  0  0  0  0
  161.6470  201.3860  151.4000 C   0  0  0  0  0  2  0  0  0  0  0  0
  159.1270  211.6430  155.7830 C   0  0  1  0  0  3  0  0  0  0  0  0
  159.3600  209.2320  155.7660 O   0  0  0  0  0  0  0  0  0  0  0  0
  162.6830  210.7030  155.2320 O   0  0  0  0  0  1  0  0  0  0  0  0
  158.2820  212.7730  155.2340 C   0  0  0  0  0  1  0  0  0  0  0  0
  158.6160  210.3120  155.2390 C   0  0  0  0  0  2  0  0  0  0  0  0
  161.3920  210.6150  155.7550 C   0  0  2  0  0  3  0  0  0  0  0  0
  160.7010  209.3110  155.3120 C   0  0  2  0  0  3  0  0  0  0  0  0
  160.5720  211.8320  155.3440 C   0  0  0  0  0  2  0  0  0  0  0  0
  1  8  2  0  0  0  0
  1 17  1  0  0  0  0
  2  7  1  6  0  0  0
  2 15  1  0  0  0  0
  3  9  1  1  0  0  0
  3  2  1  0  0  0  0
  3 22  1  0  0  0  0
  4  5  2  0  0  0  0
  7 19  1  0  0  0  0
  8 20  1  0  0  0  0
  9  6  1  0  0  0  0
 10 16  1  0  0  0  0
 11  1  1  0  0  0  0
 12 21  1  0  0  0  0
 13  6  1  0  0  0  0
 13 18  1  0  0  0  0
 14 10  2  0  0  0  0
 15 10  1  0  0  0  0
 15 21  1  1  0  0  0
 16  5  1  0  0  0  0
 17  7  2  0  0  0  0
 18 23  1  0  0  0  0
 19 14  1  0  0  0  0
 20 19  2  0  0  0  0
 22 12  2  0  0  0  0
 23 22  1  0  0  0  0
 24 27  1  6  0  0  0
 28 25  1  0  0  0  0
 28 24  1  0  0  0  0
 29 26  1  6  0  0  0
 30  5  1  6  0  0  0
 30 29  1  0  0  0  0
 30 25  1  0  0  0  0
 31 29  1  0  0  0  0
 31 24  1  0  0  0  0
M  END
>  <MODEL>
3

>  <REMARK>
 VINA RESULT:      -8.2      2.007      4.389
  Name = 
  1 active torsions:
  status: ('A' for Active; 'I' for Inactive)
    1  A    between atoms: C_9  and  C_22
                            x       y       z     vdW  Elec       q    Type
                         _______ _______ _______ _____ _____    ______ ____

>  <TORSDO>
F 1

$$$$
=
 OpenBabel11052422393D

 31 35  0  0  1  0  0  0  0  0999 V2000
  161.9510  206.7890  147.1870 C   0  0  0  0  0  0  0  0  0  0  0  0
  160.9430  205.7700  150.7370 C   0  0  2  0  0  3  0  0  0  0  0  0
  161.1440  204.2420  150.6230 C   0  0  2  0  0  3  0  0  0  0  0  0
  160.9730  210.6970  152.6130 O   0  0  0  0  0  0  0  0  0  0  0  0
  161.0670  209.9000  153.5860 C   0  0  0  0  0  0  0  0  0  0  0  0
  159.6330  202.2020  150.0530 C   0  0  0  0  0  2  0  0  0  0  0  0
  161.4360  206.5630  149.5490 C   0  0  0  0  0  0  0  0  0  0  0  0
  162.1450  208.1630  147.3580 C   0  0  0  0  0  3  0  0  0  0  0  0
  160.0100  203.6570  149.7590 C   0  0  0  0  0  2  0  0  0  0  0  0
  161.3440  207.8440  152.0980 C   0  0  0  0  0  0  0  0  0  0  0  0
  162.1100  206.2030  145.9010 N   0  0  0  0  0  1  0  0  0  0  0  0
  161.2060  204.1700  153.1360 C   0  0  0  0  0  3  0  0  0  0  0  0
  160.7780  201.2140  149.8170 C   0  0  0  0  0  2  0  0  0  0  0  0
  161.4630  208.5490  151.0080 N   0  0  0  0  0  0  0  0  0  0  0  0
  161.5160  206.3440  152.0410 C   0  0  1  0  0  3  0  0  0  0  0  0
  161.2230  208.4930  153.3720 N   0  0  0  0  0  2  0  0  0  0  0  0
  161.5840  205.9940  148.2760 C   0  0  0  0  0  3  0  0  0  0  0  0
  162.0450  201.5150  150.6220 C   0  0  0  0  0  2  0  0  0  0  0  0
  161.6280  207.9480  149.7140 C   0  0  0  0  0  0  0  0  0  0  0  0
  161.9810  208.7430  148.6190 C   0  0  0  0  0  3  0  0  0  0  0  0
  160.8510  205.6250  153.2050 C   0  0  0  0  0  2  0  0  0  0  0  0
  161.3220  203.5220  151.9660 C   0  0  0  0  0  0  0  0  0  0  0  0
  161.7550  202.0780  152.0140 C   0  0  0  0  0  2  0  0  0  0  0  0
  160.5190  208.3670  156.9310 C   0  0  1  0  0  3  0  0  0  0  0  0
  162.0170  209.9180  155.8280 O   0  0  0  0  0  0  0  0  0  0  0  0
  158.5860  210.7210  154.7960 O   0  0  0  0  0  1  0  0  0  0  0  0
  160.3280  206.8990  157.2480 C   0  0  0  0  0  1  0  0  0  0  0  0
  161.7900  208.5510  156.1070 C   0  0  0  0  0  2  0  0  0  0  0  0
  159.5950  210.2970  155.6620 C   0  0  2  0  0  3  0  0  0  0  0  0
  160.9810  210.4140  154.9990 C   0  0  2  0  0  3  0  0  0  0  0  0
  159.3310  208.8690  156.1220 C   0  0  0  0  0  2  0  0  0  0  0  0
  1  8  2  0  0  0  0
  1 17  1  0  0  0  0
  2  7  1  6  0  0  0
  2 15  1  0  0  0  0
  3  9  1  1  0  0  0
  3  2  1  0  0  0  0
  3 22  1  0  0  0  0
  4  5  2  0  0  0  0
  7 19  1  0  0  0  0
  8 20  1  0  0  0  0
  9  6  1  0  0  0  0
 10 16  1  0  0  0  0
 11  1  1  0  0  0  0
 12 21  1  0  0  0  0
 13  6  1  0  0  0  0
 13 18  1  0  0  0  0
 14 10  2  0  0  0  0
 15 10  1  0  0  0  0
 15 21  1  1  0  0  0
 16  5  1  0  0  0  0
 17  7  2  0  0  0  0
 18 23  1  0  0  0  0
 19 14  1  0  0  0  0
 20 19  2  0  0  0  0
 22 23  1  0  0  0  0
 22 12  2  0  0  0  0
 24 27  1  6  0  0  0
 25 28  1  0  0  0  0
 28 24  1  0  0  0  0
 29 26  1  6  0  0  0
 29 31  1  0  0  0  0
 30  5  1  6  0  0  0
 30 29  1  0  0  0  0
 30 25  1  0  0  0  0
 31 24  1  0  0  0  0
M  END
>  <MODEL>
4

>  <REMARK>
 VINA RESULT:      -7.6      2.063      4.390
  Name = 
  1 active torsions:
  status: ('A' for Active; 'I' for Inactive)
    1  A    between atoms: C_9  and  C_22
                            x       y       z     vdW  Elec       q    Type
                         _______ _______ _______ _____ _____    ______ ____

>  <TORSDO>
F 1

$$$$
