=
 OpenBabel11062410263D

 43 47  0  0  1  0  0  0  0  0999 V2000
  160.7400  207.6480  155.1640 C   0  0  0  0  0  0  0  0  0  0  0  0
  161.6840  207.4420  150.2110 C   0  0  0  0  0  0  0  0  0  0  0  0
  161.8140  209.9340  150.6680 C   0  0  0  0  0  2  0  0  0  0  0  0
  161.1020  206.9070  152.8870 C   0  0  0  0  0  0  0  0  0  0  0  0
  160.9340  208.9740  154.7680 C   0  0  0  0  0  3  0  0  0  0  0  0
  160.4720  207.3620  156.4600 F   0  0  0  0  0  0  0  0  0  0  0  0
  161.2990  208.2470  152.4770 C   0  0  0  0  0  0  0  0  0  0  0  0
  160.8240  206.6170  154.2240 C   0  0  0  0  0  3  0  0  0  0  0  0
  161.2110  209.2730  153.4310 C   0  0  0  0  0  3  0  0  0  0  0  0
  161.5070  210.1110  149.1840 C   0  0  2  0  0  3  0  0  0  0  0  0
  161.5720  208.5170  151.1240 C   0  0  0  0  0  0  0  0  0  0  0  0
  161.4520  206.1390  150.6720 C   0  0  0  0  0  3  0  0  0  0  0  0
  161.9010  207.6750  148.7290 C   0  0  1  0  0  3  0  0  0  0  0  0
  162.3470  209.1050  148.4100 C   0  0  0  0  0  2  0  0  0  0  0  0
  161.1770  205.9010  151.9790 N   0  0  0  0  0  0  0  0  0  0  0  0
  161.8400  211.5320  148.7420 C   0  0  1  0  0  3  0  0  0  0  0  0
  163.2240  211.6890  148.6360 O   0  0  0  0  0  1  0  0  0  0  0  0
  161.2290  211.8090  147.4510 N   0  0  0  0  0  2  0  0  0  0  0  0
  162.3410  214.1820  147.0820 O   0  0  0  0  0  0  0  0  0  0  0  0
  161.0110  213.5240  147.3230 S   0  0  0  0  0  0  0  0  0  0  0  0
  160.4120  214.0410  148.6010 O   0  0  0  0  0  0  0  0  0  0  0  0
  159.9420  213.8730  145.9980 N   0  0  0  0  0  0  0  0  0  0  0  0
  160.3650  213.7330  144.6310 C   0  0  0  0  0  0  0  0  0  0  0  0
  159.6380  214.1690  143.6980 O   0  0  0  0  0  0  0  0  0  0  0  0
  161.6500  213.0490  144.2840 C   0  0  0  0  0  2  0  0  0  0  0  0
  161.6610  212.6510  142.8460 C   0  0  0  0  0  0  0  0  0  0  0  0
  162.4690  212.9810  140.5850 C   0  0  0  0  0  3  0  0  0  0  0  0
  160.8400  211.2490  141.0470 C   0  0  0  0  0  3  0  0  0  0  0  0
  161.6540  211.9360  140.1410 C   0  0  0  0  0  3  0  0  0  0  0  0
  160.8430  211.6080  142.3980 C   0  0  0  0  0  3  0  0  0  0  0  0
  162.4720  213.3400  141.9370 C   0  0  0  0  0  3  0  0  0  0  0  0
  158.5820  214.3070  146.2950 C   0  0  0  0  0  2  0  0  0  0  0  0
  157.5560  212.4980  147.4710 O   0  0  0  0  0  1  0  0  0  0  0  0
  157.6230  213.1290  146.2300 C   0  0  0  0  0  2  0  0  0  0  0  0
  162.9130  206.6890  148.1530 C   0  0  0  0  0  2  0  0  0  0  0  0
  161.3140  203.4770  146.9370 C   0  0  0  0  0  3  0  0  0  0  0  0
  161.0220  203.7940  145.6000 C   0  0  0  0  0  0  0  0  0  0  0  0
  161.9590  206.0060  145.9390 C   0  0  0  0  0  3  0  0  0  0  0  0
  161.9240  204.4200  147.7680 C   0  0  0  0  0  3  0  0  0  0  0  0
  162.2450  205.6880  147.2720 C   0  0  0  0  0  0  0  0  0  0  0  0
  161.3490  205.0630  145.1080 C   0  0  0  0  0  3  0  0  0  0  0  0
  160.0590  201.5600  145.1550 C   0  0  0  0  0  1  0  0  0  0  0  0
  160.4130  202.8730  144.7430 O   0  0  0  0  0  0  0  0  0  0  0  0
  1  6  1  0  0  0  0
  2 12  2  0  0  0  0
  2 11  1  0  0  0  0
  3 11  1  0  0  0  0
  4  8  1  0  0  0  0
  5  1  1  0  0  0  0
  7  4  1  0  0  0  0
  7  9  1  0  0  0  0
  8  1  2  0  0  0  0
  9  5  2  0  0  0  0
 10 16  1  6  0  0  0
 10  3  1  0  0  0  0
 11  7  2  0  0  0  0
 12 15  1  0  0  0  0
 13 35  1  1  0  0  0
 13  2  1  0  0  0  0
 14 13  1  0  0  0  0
 14 10  1  0  0  0  0
 15  4  2  0  0  0  0
 16 17  1  6  0  0  0
 18 16  1  0  0  0  0
 19 20  2  0  0  0  0
 20 18  1  0  0  0  0
 20 21  2  0  0  0  0
 22 32  1  0  0  0  0
 22 20  1  0  0  0  0
 23 22  1  0  0  0  0
 24 23  2  0  0  0  0
 25 23  1  0  0  0  0
 26 25  1  0  0  0  0
 27 31  1  0  0  0  0
 28 30  2  0  0  0  0
 29 27  2  0  0  0  0
 29 28  1  0  0  0  0
 30 26  1  0  0  0  0
 31 26  2  0  0  0  0
 34 32  1  0  0  0  0
 34 33  1  0  0  0  0
 36 39  1  0  0  0  0
 37 36  2  0  0  0  0
 38 40  1  0  0  0  0
 40 39  2  0  0  0  0
 40 35  1  0  0  0  0
 41 37  1  0  0  0  0
 41 38  2  0  0  0  0
 43 42  1  0  0  0  0
 43 37  1  0  0  0  0
M  END
>  <MODEL>
1

>  <REMARK>
 VINA RESULT:      -8.2      0.000      0.000
  Name = 
  11 active torsions:
  status: ('A' for Active; 'I' for Inactive)
    1  A    between atoms: C_1  and  C_34
    2  A    between atoms: C_1  and  C_35
    3  A    between atoms: C_2  and  N_6
    4  A    between atoms: C_2  and  C_27
    5  A    between atoms: N_4  and  S_12
    6  A    between atoms: N_4  and  C_15
    7  A    between atoms: N_6  and  S_12
    8  A    between atoms: C_11  and  C_14
    9  A    between atoms: C_14  and  C_22
   10  A    between atoms: C_15  and  C_42
   11  A    between atoms: C_19  and  O_37
                            x       y       z     vdW  Elec       q    Type
                         _______ _______ _______ _____ _____    ______ ____

>  <TORSDO>
F 11

$$$$
=
 OpenBabel11062410263D

 43 47  0  0  1  0  0  0  0  0999 V2000
  161.1870  202.8710  147.6860 C   0  0  0  0  0  0  0  0  0  0  0  0
  161.6310  207.6830  149.1380 C   0  0  0  0  0  0  0  0  0  0  0  0
  161.2410  206.5000  151.3480 C   0  0  0  0  0  2  0  0  0  0  0  0
  161.4670  205.2760  147.7370 C   0  0  0  0  0  0  0  0  0  0  0  0
  161.0330  202.8550  149.0740 C   0  0  0  0  0  3  0  0  0  0  0  0
  161.1270  201.7130  146.9860 F   0  0  0  0  0  0  0  0  0  0  0  0
  161.3120  205.2690  149.1430 C   0  0  0  0  0  0  0  0  0  0  0  0
  161.4030  204.0800  147.0190 C   0  0  0  0  0  3  0  0  0  0  0  0
  161.0950  204.0470  149.8010 C   0  0  0  0  0  3  0  0  0  0  0  0
  160.7500  207.8510  151.8600 C   0  0  2  0  0  3  0  0  0  0  0  0
  161.3740  206.4850  149.8460 C   0  0  0  0  0  0  0  0  0  0  0  0
  161.7480  207.6300  147.7420 C   0  0  0  0  0  3  0  0  0  0  0  0
  161.6340  209.0320  149.8300 C   0  0  1  0  0  3  0  0  0  0  0  0
  161.7090  208.9190  151.3550 C   0  0  0  0  0  2  0  0  0  0  0  0
  161.6720  206.4470  147.0820 N   0  0  0  0  0  0  0  0  0  0  0  0
  160.7050  207.8540  153.3840 C   0  0  1  0  0  3  0  0  0  0  0  0
  161.4290  206.7710  153.8860 O   0  0  0  0  0  1  0  0  0  0  0  0
  161.2770  209.0890  153.8980 N   0  0  0  0  0  2  0  0  0  0  0  0
  161.8850  208.4490  156.3920 O   0  0  0  0  0  0  0  0  0  0  0  0
  160.8720  209.2050  155.5780 S   0  0  0  0  0  0  0  0  0  0  0  0
  159.5050  208.6170  155.7960 O   0  0  0  0  0  0  0  0  0  0  0  0
  160.8690  210.8740  156.0590 N   0  0  0  0  0  0  0  0  0  0  0  0
  160.0020  211.8370  155.4370 C   0  0  0  0  0  0  0  0  0  0  0  0
  160.1520  213.0660  155.6710 O   0  0  0  0  0  0  0  0  0  0  0  0
  158.8940  211.4070  154.5280 C   0  0  0  0  0  2  0  0  0  0  0  0
  158.9270  212.1850  153.2550 C   0  0  0  0  0  0  0  0  0  0  0  0
  160.0510  212.7910  151.1960 C   0  0  0  0  0  3  0  0  0  0  0  0
  157.9320  213.8160  151.7630 C   0  0  0  0  0  3  0  0  0  0  0  0
  159.0130  213.6750  150.8880 C   0  0  0  0  0  3  0  0  0  0  0  0
  157.8900  213.0730  152.9470 C   0  0  0  0  0  3  0  0  0  0  0  0
  160.0100  212.0480  152.3800 C   0  0  0  0  0  3  0  0  0  0  0  0
  161.7670  211.2930  157.1300 C   0  0  0  0  0  2  0  0  0  0  0  0
  163.8250  211.1720  155.9230 O   0  0  0  0  0  1  0  0  0  0  0  0
  163.1180  210.6120  156.9860 C   0  0  0  0  0  2  0  0  0  0  0  0
  162.7760  209.9110  149.3290 C   0  0  0  0  0  2  0  0  0  0  0  0
  162.5750  213.3450  147.7410 C   0  0  0  0  0  3  0  0  0  0  0  0
  161.2620  213.3490  147.2410 C   0  0  0  0  0  0  0  0  0  0  0  0
  160.9460  211.1020  148.1000 C   0  0  0  0  0  3  0  0  0  0  0  0
  163.0680  212.2240  148.4160 C   0  0  0  0  0  3  0  0  0  0  0  0
  162.2560  211.1000  148.5930 C   0  0  0  0  0  0  0  0  0  0  0  0
  160.4530  212.2210  147.4250 C   0  0  0  0  0  3  0  0  0  0  0  0
  159.6320  214.3540  145.6770 C   0  0  0  0  0  1  0  0  0  0  0  0
  160.7390  214.4530  146.5620 O   0  0  0  0  0  0  0  0  0  0  0  0
  1  5  1  0  0  0  0
  2 13  1  0  0  0  0
  2 11  1  0  0  0  0
  3 10  1  0  0  0  0
  4  7  1  0  0  0  0
  5  9  2  0  0  0  0
  6  1  1  0  0  0  0
  7  9  1  0  0  0  0
  7 11  2  0  0  0  0
  8  1  2  0  0  0  0
  8  4  1  0  0  0  0
 10 16  1  1  0  0  0
 11  3  1  0  0  0  0
 12  2  2  0  0  0  0
 13 35  1  6  0  0  0
 13 14  1  0  0  0  0
 14 10  1  0  0  0  0
 15  4  2  0  0  0  0
 15 12  1  0  0  0  0
 16 17  1  1  0  0  0
 16 18  1  0  0  0  0
 18 20  1  0  0  0  0
 20 21  2  0  0  0  0
 20 22  1  0  0  0  0
 20 19  2  0  0  0  0
 22 32  1  0  0  0  0
 23 24  2  0  0  0  0
 23 22  1  0  0  0  0
 25 23  1  0  0  0  0
 26 25  1  0  0  0  0
 27 31  1  0  0  0  0
 28 30  2  0  0  0  0
 29 27  2  0  0  0  0
 29 28  1  0  0  0  0
 30 26  1  0  0  0  0
 31 26  2  0  0  0  0
 33 34  1  0  0  0  0
 34 32  1  0  0  0  0
 36 39  1  0  0  0  0
 37 41  1  0  0  0  0
 37 36  2  0  0  0  0
 38 40  1  0  0  0  0
 39 40  2  0  0  0  0
 40 35  1  0  0  0  0
 41 38  2  0  0  0  0
 42 43  1  0  0  0  0
 43 37  1  0  0  0  0
M  END
>  <MODEL>
2

>  <REMARK>
 VINA RESULT:      -8.1      4.294      8.680
  Name = 
  11 active torsions:
  status: ('A' for Active; 'I' for Inactive)
    1  A    between atoms: C_1  and  C_34
    2  A    between atoms: C_1  and  C_35
    3  A    between atoms: C_2  and  N_6
    4  A    between atoms: C_2  and  C_27
    5  A    between atoms: N_4  and  S_12
    6  A    between atoms: N_4  and  C_15
    7  A    between atoms: N_6  and  S_12
    8  A    between atoms: C_11  and  C_14
    9  A    between atoms: C_14  and  C_22
   10  A    between atoms: C_15  and  C_42
   11  A    between atoms: C_19  and  O_37
                            x       y       z     vdW  Elec       q    Type
                         _______ _______ _______ _____ _____    ______ ____

>  <TORSDO>
F 11

$$$$
=
 OpenBabel11062410263D

 43 47  0  0  1  0  0  0  0  0999 V2000
  161.5940  204.2810  146.6220 C   0  0  0  0  0  0  0  0  0  0  0  0
  161.4650  207.4820  150.5210 C   0  0  0  0  0  0  0  0  0  0  0  0
  161.7150  209.0610  148.5520 C   0  0  0  0  0  2  0  0  0  0  0  0
  161.4870  205.2600  148.8360 C   0  0  0  0  0  0  0  0  0  0  0  0
  161.7130  205.5550  146.0610 C   0  0  0  0  0  3  0  0  0  0  0  0
  161.5860  203.1880  145.8240 F   0  0  0  0  0  0  0  0  0  0  0  0
  161.6080  206.5520  148.2750 C   0  0  0  0  0  0  0  0  0  0  0  0
  161.4820  204.1340  148.0080 C   0  0  0  0  0  3  0  0  0  0  0  0
  161.7210  206.6860  146.8820 C   0  0  0  0  0  3  0  0  0  0  0  0
  162.2910  210.0520  149.5600 C   0  0  2  0  0  3  0  0  0  0  0  0
  161.6170  207.6710  149.1280 C   0  0  0  0  0  0  0  0  0  0  0  0
  161.3770  206.1750  151.0200 C   0  0  0  0  0  3  0  0  0  0  0  0
  161.5430  208.6420  151.4950 C   0  0  1  0  0  3  0  0  0  0  0  0
  161.4230  210.0050  150.8090 C   0  0  0  0  0  2  0  0  0  0  0  0
  161.3820  205.1080  150.1800 N   0  0  0  0  0  0  0  0  0  0  0  0
  162.3000  211.4590  148.9710 C   0  0  1  0  0  3  0  0  0  0  0  0
  163.4450  211.6450  148.1940 O   0  0  0  0  0  1  0  0  0  0  0  0
  161.1230  211.6590  148.1400 N   0  0  0  0  0  2  0  0  0  0  0  0
  161.7810  214.2090  148.4000 O   0  0  0  0  0  0  0  0  0  0  0  0
  160.5890  213.2930  148.3590 S   0  0  0  0  0  0  0  0  0  0  0  0
  159.8260  213.3930  149.6510 O   0  0  0  0  0  0  0  0  0  0  0  0
  159.5560  213.7460  147.0380 N   0  0  0  0  0  0  0  0  0  0  0  0
  160.0570  213.8670  145.6960 C   0  0  0  0  0  0  0  0  0  0  0  0
  159.3350  214.3750  144.7960 O   0  0  0  0  0  0  0  0  0  0  0  0
  161.4220  213.3740  145.3310 C   0  0  0  0  0  2  0  0  0  0  0  0
  161.4500  212.9050  143.9150 C   0  0  0  0  0  0  0  0  0  0  0  0
  162.4210  212.9890  141.6970 C   0  0  0  0  0  3  0  0  0  0  0  0
  160.5200  211.5540  142.1310 C   0  0  0  0  0  3  0  0  0  0  0  0
  161.4790  212.0590  141.2480 C   0  0  0  0  0  3  0  0  0  0  0  0
  160.5050  211.9770  143.4630 C   0  0  0  0  0  3  0  0  0  0  0  0
  162.4060  213.4140  143.0290 C   0  0  0  0  0  3  0  0  0  0  0  0
  158.1440  213.9940  147.3100 C   0  0  0  0  0  2  0  0  0  0  0  0
  157.0210  212.2470  146.1300 O   0  0  0  0  0  1  0  0  0  0  0  0
  157.3830  212.6820  147.4040 C   0  0  0  0  0  2  0  0  0  0  0  0
  160.4800  208.5260  152.5840 C   0  0  0  0  0  2  0  0  0  0  0  0
  161.2180  211.1720  155.1930 C   0  0  0  0  0  3  0  0  0  0  0  0
  160.2160  212.1190  154.9270 C   0  0  0  0  0  0  0  0  0  0  0  0
  159.3940  210.7190  153.1240 C   0  0  0  0  0  3  0  0  0  0  0  0
  161.3070  210.0060  154.4270 C   0  0  0  0  0  3  0  0  0  0  0  0
  160.3970  209.7790  153.3890 C   0  0  0  0  0  0  0  0  0  0  0  0
  159.3060  211.8840  153.8890 C   0  0  0  0  0  3  0  0  0  0  0  0
  159.9610  213.2930  157.0880 C   0  0  0  0  0  1  0  0  0  0  0  0
  160.1000  213.2950  155.6740 O   0  0  0  0  0  0  0  0  0  0  0  0
  1  8  1  0  0  0  0
  2 12  1  0  0  0  0
  2 13  1  0  0  0  0
  3 11  1  0  0  0  0
  3 10  1  0  0  0  0
  4 15  1  0  0  0  0
  5  1  2  0  0  0  0
  5  9  1  0  0  0  0
  6  1  1  0  0  0  0
  7  4  1  0  0  0  0
  7 11  1  0  0  0  0
  8  4  2  0  0  0  0
  9  7  2  0  0  0  0
 10 16  1  6  0  0  0
 10 14  1  0  0  0  0
 11  2  2  0  0  0  0
 13 35  1  1  0  0  0
 14 13  1  0  0  0  0
 15 12  2  0  0  0  0
 16 17  1  6  0  0  0
 18 20  1  0  0  0  0
 18 16  1  0  0  0  0
 20 19  2  0  0  0  0
 20 21  2  0  0  0  0
 22 32  1  0  0  0  0
 22 20  1  0  0  0  0
 23 22  1  0  0  0  0
 24 23  2  0  0  0  0
 25 23  1  0  0  0  0
 26 25  1  0  0  0  0
 27 31  1  0  0  0  0
 28 30  2  0  0  0  0
 29 27  2  0  0  0  0
 29 28  1  0  0  0  0
 30 26  1  0  0  0  0
 31 26  2  0  0  0  0
 32 34  1  0  0  0  0
 33 34  1  0  0  0  0
 35 40  1  0  0  0  0
 37 36  1  0  0  0  0
 37 43  1  0  0  0  0
 38 40  2  0  0  0  0
 38 41  1  0  0  0  0
 39 36  2  0  0  0  0
 40 39  1  0  0  0  0
 41 37  2  0  0  0  0
 43 42  1  0  0  0  0
M  END
>  <MODEL>
3

>  <REMARK>
 VINA RESULT:      -7.9      2.618      6.210
  Name = 
  11 active torsions:
  status: ('A' for Active; 'I' for Inactive)
    1  A    between atoms: C_1  and  C_34
    2  A    between atoms: C_1  and  C_35
    3  A    between atoms: C_2  and  N_6
    4  A    between atoms: C_2  and  C_27
    5  A    between atoms: N_4  and  S_12
    6  A    between atoms: N_4  and  C_15
    7  A    between atoms: N_6  and  S_12
    8  A    between atoms: C_11  and  C_14
    9  A    between atoms: C_14  and  C_22
   10  A    between atoms: C_15  and  C_42
   11  A    between atoms: C_19  and  O_37
                            x       y       z     vdW  Elec       q    Type
                         _______ _______ _______ _____ _____    ______ ____

>  <TORSDO>
F 11

$$$$
=
 OpenBabel11062410263D

 43 47  0  0  1  0  0  0  0  0999 V2000
  161.0590  201.2010  147.8040 C   0  0  0  0  0  0  0  0  0  0  0  0
  161.1970  204.6460  151.4890 C   0  0  0  0  0  0  0  0  0  0  0  0
  161.3340  206.0930  149.4100 C   0  0  0  0  0  2  0  0  0  0  0  0
  161.0980  202.3200  149.9520 C   0  0  0  0  0  0  0  0  0  0  0  0
  161.1510  202.4350  147.1550 C   0  0  0  0  0  3  0  0  0  0  0  0
  160.9930  200.0590  147.0800 F   0  0  0  0  0  0  0  0  0  0  0  0
  161.1920  203.5730  149.3030 C   0  0  0  0  0  0  0  0  0  0  0  0
  161.0330  201.1440  149.2010 C   0  0  0  0  0  3  0  0  0  0  0  0
  161.2180  203.6160  147.9000 C   0  0  0  0  0  3  0  0  0  0  0  0
  161.9790  207.1400  150.3140 C   0  0  2  0  0  3  0  0  0  0  0  0
  161.2630  204.7440  150.0790 C   0  0  0  0  0  0  0  0  0  0  0  0
  161.1320  203.3750  152.0750 C   0  0  0  0  0  3  0  0  0  0  0  0
  161.3450  205.8650  152.3790 C   0  0  1  0  0  3  0  0  0  0  0  0
  161.1910  207.1830  151.6150 C   0  0  0  0  0  2  0  0  0  0  0  0
  161.0780  202.2560  151.3080 N   0  0  0  0  0  0  0  0  0  0  0  0
  161.9610  208.5060  149.6360 C   0  0  1  0  0  3  0  0  0  0  0  0
  161.6160  208.3680  148.2900 O   0  0  0  0  0  1  0  0  0  0  0  0
  160.9920  209.3740  150.2890 N   0  0  0  0  0  2  0  0  0  0  0  0
  162.6540  211.2730  149.4930 O   0  0  0  0  0  0  0  0  0  0  0  0
  161.7810  210.8740  150.6500 S   0  0  0  0  0  0  0  0  0  0  0  0
  162.6200  210.7050  151.8860 O   0  0  0  0  0  0  0  0  0  0  0  0
  160.5840  212.1040  150.9240 N   0  0  0  0  0  0  0  0  0  0  0  0
  159.5990  211.9800  151.9630 C   0  0  0  0  0  0  0  0  0  0  0  0
  158.6350  212.7890  152.0190 O   0  0  0  0  0  0  0  0  0  0  0  0
  159.7080  210.9150  153.0090 C   0  0  0  0  0  2  0  0  0  0  0  0
  159.2660  211.4350  154.3360 C   0  0  0  0  0  0  0  0  0  0  0  0
  159.6690  212.8120  156.2900 C   0  0  0  0  0  3  0  0  0  0  0  0
  157.6540  211.4750  156.1470 C   0  0  0  0  0  3  0  0  0  0  0  0
  158.4600  212.3810  156.8440 C   0  0  0  0  0  3  0  0  0  0  0  0
  158.0580  211.0020  154.8950 C   0  0  0  0  0  3  0  0  0  0  0  0
  160.0730  212.3380  155.0370 C   0  0  0  0  0  3  0  0  0  0  0  0
  160.5990  213.2930  150.0780 C   0  0  0  0  0  2  0  0  0  0  0  0
  160.5510  213.2250  147.6910 O   0  0  0  0  0  1  0  0  0  0  0  0
  159.7630  213.0660  148.8300 C   0  0  0  0  0  2  0  0  0  0  0  0
  160.3510  205.8310  153.5370 C   0  0  0  0  0  2  0  0  0  0  0  0
  160.2130  207.9740  156.6580 C   0  0  0  0  0  3  0  0  0  0  0  0
  161.1390  208.9840  156.3480 C   0  0  0  0  0  0  0  0  0  0  0  0
  161.5530  207.9250  154.2050 C   0  0  0  0  0  3  0  0  0  0  0  0
  159.9620  206.9450  155.7450 C   0  0  0  0  0  3  0  0  0  0  0  0
  160.6330  206.9180  154.5190 C   0  0  0  0  0  0  0  0  0  0  0  0
  161.8050  208.9530  155.1180 C   0  0  0  0  0  3  0  0  0  0  0  0
  162.6590  210.7090  157.2600 C   0  0  0  0  0  1  0  0  0  0  0  0
  161.4130  210.0260  157.2390 O   0  0  0  0  0  0  0  0  0  0  0  0
  1  8  1  0  0  0  0
  2 12  1  0  0  0  0
  2 13  1  0  0  0  0
  3 11  1  0  0  0  0
  3 10  1  0  0  0  0
  4 15  1  0  0  0  0
  5  1  2  0  0  0  0
  5  9  1  0  0  0  0
  6  1  1  0  0  0  0
  7  4  1  0  0  0  0
  7 11  1  0  0  0  0
  8  4  2  0  0  0  0
  9  7  2  0  0  0  0
 10 16  1  6  0  0  0
 10 14  1  0  0  0  0
 11  2  2  0  0  0  0
 13 35  1  1  0  0  0
 14 13  1  0  0  0  0
 15 12  2  0  0  0  0
 16 17  1  6  0  0  0
 16 18  1  0  0  0  0
 18 20  1  0  0  0  0
 19 20  2  0  0  0  0
 20 22  1  0  0  0  0
 20 21  2  0  0  0  0
 22 23  1  0  0  0  0
 23 24  2  0  0  0  0
 23 25  1  0  0  0  0
 25 26  1  0  0  0  0
 26 30  2  0  0  0  0
 26 31  1  0  0  0  0
 27 29  1  0  0  0  0
 28 29  2  0  0  0  0
 30 28  1  0  0  0  0
 31 27  2  0  0  0  0
 32 22  1  0  0  0  0
 33 34  1  0  0  0  0
 34 32  1  0  0  0  0
 35 40  1  0  0  0  0
 37 36  1  0  0  0  0
 37 43  1  0  0  0  0
 38 40  2  0  0  0  0
 38 41  1  0  0  0  0
 39 36  2  0  0  0  0
 40 39  1  0  0  0  0
 41 37  2  0  0  0  0
 43 42  1  0  0  0  0
M  END
>  <MODEL>
4

>  <REMARK>
 VINA RESULT:      -7.8      4.276      8.796
  Name = 
  11 active torsions:
  status: ('A' for Active; 'I' for Inactive)
    1  A    between atoms: C_1  and  C_34
    2  A    between atoms: C_1  and  C_35
    3  A    between atoms: C_2  and  N_6
    4  A    between atoms: C_2  and  C_27
    5  A    between atoms: N_4  and  S_12
    6  A    between atoms: N_4  and  C_15
    7  A    between atoms: N_6  and  S_12
    8  A    between atoms: C_11  and  C_14
    9  A    between atoms: C_14  and  C_22
   10  A    between atoms: C_15  and  C_42
   11  A    between atoms: C_19  and  O_37
                            x       y       z     vdW  Elec       q    Type
                         _______ _______ _______ _____ _____    ______ ____

>  <TORSDO>
F 11

$$$$
=
 OpenBabel11062410263D

 43 47  0  0  1  0  0  0  0  0999 V2000
  161.0570  201.1980  148.1160 C   0  0  0  0  0  0  0  0  0  0  0  0
  161.2420  204.9200  151.5180 C   0  0  0  0  0  0  0  0  0  0  0  0
  161.3370  206.2010  149.3300 C   0  0  0  0  0  2  0  0  0  0  0  0
  161.1280  202.4810  150.1690 C   0  0  0  0  0  0  0  0  0  0  0  0
  161.1320  202.3770  147.3710 C   0  0  0  0  0  3  0  0  0  0  0  0
  160.9850  200.0030  147.4830 F   0  0  0  0  0  0  0  0  0  0  0  0
  161.2050  203.6800  149.4220 C   0  0  0  0  0  0  0  0  0  0  0  0
  161.0550  201.2500  149.5120 C   0  0  0  0  0  3  0  0  0  0  0  0
  161.2070  203.6130  148.0200 C   0  0  0  0  0  3  0  0  0  0  0  0
  161.9920  207.3170  150.1390 C   0  0  2  0  0  3  0  0  0  0  0  0
  161.2830  204.9080  150.1030 C   0  0  0  0  0  0  0  0  0  0  0  0
  161.1920  203.6980  152.2020 C   0  0  0  0  0  3  0  0  0  0  0  0
  161.3990  206.2050  152.3080 C   0  0  1  0  0  3  0  0  0  0  0  0
  161.2260  207.4590  151.4460 C   0  0  0  0  0  2  0  0  0  0  0  0
  161.1300  202.5230  151.5250 N   0  0  0  0  0  0  0  0  0  0  0  0
  161.9560  208.6260  149.3570 C   0  0  1  0  0  3  0  0  0  0  0  0
  161.5500  208.3880  148.0420 O   0  0  0  0  0  1  0  0  0  0  0  0
  161.0250  209.5550  149.9810 N   0  0  0  0  0  2  0  0  0  0  0  0
  162.7830  211.4420  149.3900 O   0  0  0  0  0  0  0  0  0  0  0  0
  161.9290  210.9330  150.5170 S   0  0  0  0  0  0  0  0  0  0  0  0
  162.8000  210.5310  151.6750 O   0  0  0  0  0  0  0  0  0  0  0  0
  160.8310  212.1820  151.0230 N   0  0  0  0  0  0  0  0  0  0  0  0
  160.4460  213.2500  150.1410 C   0  0  0  0  0  0  0  0  0  0  0  0
  159.8030  214.2370  150.5890 O   0  0  0  0  0  0  0  0  0  0  0  0
  160.7700  213.2030  148.6810 C   0  0  0  0  0  2  0  0  0  0  0  0
  159.5260  213.0630  147.8710 C   0  0  0  0  0  0  0  0  0  0  0  0
  158.4410  212.5770  145.7580 C   0  0  0  0  0  3  0  0  0  0  0  0
  157.1140  213.2170  147.6800 C   0  0  0  0  0  3  0  0  0  0  0  0
  157.1960  212.8400  146.3360 C   0  0  0  0  0  3  0  0  0  0  0  0
  158.2780  213.3300  148.4460 C   0  0  0  0  0  3  0  0  0  0  0  0
  159.6060  212.6910  146.5240 C   0  0  0  0  0  3  0  0  0  0  0  0
  160.2870  212.1260  152.3750 C   0  0  0  0  0  2  0  0  0  0  0  0
  158.4940  211.2530  153.6910 O   0  0  0  0  0  1  0  0  0  0  0  0
  158.9670  211.3730  152.3840 C   0  0  0  0  0  2  0  0  0  0  0  0
  160.4250  206.2580  153.4810 C   0  0  0  0  0  2  0  0  0  0  0  0
  161.3440  207.9530  156.7420 C   0  0  0  0  0  3  0  0  0  0  0  0
  161.5500  209.2780  156.3250 C   0  0  0  0  0  0  0  0  0  0  0  0
  161.0290  208.6230  154.0470 C   0  0  0  0  0  3  0  0  0  0  0  0
  160.9840  206.9700  155.8160 C   0  0  0  0  0  3  0  0  0  0  0  0
  160.8280  207.3030  154.4670 C   0  0  0  0  0  0  0  0  0  0  0  0
  161.3890  209.6050  154.9730 C   0  0  0  0  0  3  0  0  0  0  0  0
  163.2140  210.8510  157.2590 C   0  0  0  0  0  1  0  0  0  0  0  0
  161.9110  210.2840  157.2250 O   0  0  0  0  0  0  0  0  0  0  0  0
  1  8  1  0  0  0  0
  2 12  1  0  0  0  0
  2 13  1  0  0  0  0
  3 11  1  0  0  0  0
  3 10  1  0  0  0  0
  4 15  1  0  0  0  0
  5  9  1  0  0  0  0
  5  1  2  0  0  0  0
  6  1  1  0  0  0  0
  7 11  1  0  0  0  0
  7  4  1  0  0  0  0
  8  4  2  0  0  0  0
  9  7  2  0  0  0  0
 10 16  1  6  0  0  0
 10 14  1  0  0  0  0
 11  2  2  0  0  0  0
 13 35  1  1  0  0  0
 14 13  1  0  0  0  0
 15 12  2  0  0  0  0
 16 17  1  6  0  0  0
 16 18  1  0  0  0  0
 18 20  1  0  0  0  0
 19 20  2  0  0  0  0
 20 22  1  0  0  0  0
 20 21  2  0  0  0  0
 22 32  1  0  0  0  0
 23 24  2  0  0  0  0
 23 22  1  0  0  0  0
 25 23  1  0  0  0  0
 26 30  1  0  0  0  0
 26 25  1  0  0  0  0
 27 29  2  0  0  0  0
 27 31  1  0  0  0  0
 28 30  2  0  0  0  0
 29 28  1  0  0  0  0
 31 26  2  0  0  0  0
 32 34  1  0  0  0  0
 34 33  1  0  0  0  0
 35 40  1  0  0  0  0
 37 36  1  0  0  0  0
 37 43  1  0  0  0  0
 38 40  2  0  0  0  0
 38 41  1  0  0  0  0
 39 36  2  0  0  0  0
 40 39  1  0  0  0  0
 41 37  2  0  0  0  0
 43 42  1  0  0  0  0
M  END
>  <MODEL>
5

>  <REMARK>
 VINA RESULT:      -7.4      3.721      7.282
  Name = 
  11 active torsions:
  status: ('A' for Active; 'I' for Inactive)
    1  A    between atoms: C_1  and  C_34
    2  A    between atoms: C_1  and  C_35
    3  A    between atoms: C_2  and  N_6
    4  A    between atoms: C_2  and  C_27
    5  A    between atoms: N_4  and  S_12
    6  A    between atoms: N_4  and  C_15
    7  A    between atoms: N_6  and  S_12
    8  A    between atoms: C_11  and  C_14
    9  A    between atoms: C_14  and  C_22
   10  A    between atoms: C_15  and  C_42
   11  A    between atoms: C_19  and  O_37
                            x       y       z     vdW  Elec       q    Type
                         _______ _______ _______ _____ _____    ______ ____

>  <TORSDO>
F 11

$$$$
=
 OpenBabel11062410263D

 43 47  0  0  1  0  0  0  0  0999 V2000
  161.3600  203.8460  146.3100 C   0  0  0  0  0  0  0  0  0  0  0  0
  161.4050  206.9730  150.2700 C   0  0  0  0  0  0  0  0  0  0  0  0
  161.6300  208.5850  148.3250 C   0  0  0  0  0  2  0  0  0  0  0  0
  161.3360  204.7830  148.5440 C   0  0  0  0  0  0  0  0  0  0  0  0
  161.4870  205.1280  145.7690 C   0  0  0  0  0  3  0  0  0  0  0  0
  161.3080  202.7690  145.4920 F   0  0  0  0  0  0  0  0  0  0  0  0
  161.4660  206.0840  148.0040 C   0  0  0  0  0  0  0  0  0  0  0  0
  161.2850  203.6740  147.6950 C   0  0  0  0  0  3  0  0  0  0  0  0
  161.5410  206.2420  146.6110 C   0  0  0  0  0  3  0  0  0  0  0  0
  162.2540  209.5440  149.3340 C   0  0  2  0  0  3  0  0  0  0  0  0
  161.5210  207.1860  148.8770 C   0  0  0  0  0  0  0  0  0  0  0  0
  161.3060  205.6580  150.7460 C   0  0  0  0  0  3  0  0  0  0  0  0
  161.5340  208.1120  151.2630 C   0  0  1  0  0  3  0  0  0  0  0  0
  161.4220  209.4900  150.6070 C   0  0  0  0  0  2  0  0  0  0  0  0
  161.2670  204.6080  149.8880 N   0  0  0  0  0  0  0  0  0  0  0  0
  162.2730  210.9620  148.7720 C   0  0  1  0  0  3  0  0  0  0  0  0
  161.6570  210.9880  147.5190 O   0  0  0  0  0  1  0  0  0  0  0  0
  161.5680  211.8640  149.6690 N   0  0  0  0  0  2  0  0  0  0  0  0
  161.3750  213.0390  147.3050 O   0  0  0  0  0  0  0  0  0  0  0  0
  161.1460  213.2850  148.7710 S   0  0  0  0  0  0  0  0  0  0  0  0
  162.0000  214.4320  149.2340 O   0  0  0  0  0  0  0  0  0  0  0  0
  159.4710  213.6620  149.0400 N   0  0  0  0  0  0  0  0  0  0  0  0
  158.9030  213.6690  150.3600 C   0  0  0  0  0  0  0  0  0  0  0  0
  157.6540  213.7610  150.5100 O   0  0  0  0  0  0  0  0  0  0  0  0
  159.7700  213.5970  151.5770 C   0  0  0  0  0  2  0  0  0  0  0  0
  159.0270  212.9810  152.7160 C   0  0  0  0  0  0  0  0  0  0  0  0
  157.7800  213.2190  154.7800 C   0  0  0  0  0  3  0  0  0  0  0  0
  158.2400  211.0130  153.8920 C   0  0  0  0  0  3  0  0  0  0  0  0
  157.6700  211.8280  154.8750 C   0  0  0  0  0  3  0  0  0  0  0  0
  158.9190  211.5890  152.8140 C   0  0  0  0  0  3  0  0  0  0  0  0
  158.4610  213.7950  153.7030 C   0  0  0  0  0  3  0  0  0  0  0  0
  158.6360  213.9900  147.8900 C   0  0  0  0  0  2  0  0  0  0  0  0
  156.6920  213.0450  146.8730 O   0  0  0  0  0  1  0  0  0  0  0  0
  157.9670  212.7380  147.3470 C   0  0  0  0  0  2  0  0  0  0  0  0
  160.5010  207.9960  152.3800 C   0  0  0  0  0  2  0  0  0  0  0  0
  161.2890  208.4960  156.0510 C   0  0  0  0  0  3  0  0  0  0  0  0
  161.9330  209.7440  156.0340 C   0  0  0  0  0  0  0  0  0  0  0  0
  161.6460  209.8420  153.6270 C   0  0  0  0  0  3  0  0  0  0  0  0
  160.8290  207.9250  154.8610 C   0  0  0  0  0  3  0  0  0  0  0  0
  161.0090  208.5950  153.6470 C   0  0  0  0  0  0  0  0  0  0  0  0
  162.1060  210.4120  154.8170 C   0  0  0  0  0  3  0  0  0  0  0  0
  163.6300  211.0600  157.2610 C   0  0  0  0  0  1  0  0  0  0  0  0
  162.4050  210.3430  157.2060 O   0  0  0  0  0  0  0  0  0  0  0  0
  1  8  1  0  0  0  0
  2 12  1  0  0  0  0
  2 13  1  0  0  0  0
  3 11  1  0  0  0  0
  3 10  1  0  0  0  0
  4 15  1  0  0  0  0
  5  1  2  0  0  0  0
  5  9  1  0  0  0  0
  6  1  1  0  0  0  0
  7  4  1  0  0  0  0
  7 11  1  0  0  0  0
  8  4  2  0  0  0  0
  9  7  2  0  0  0  0
 10 16  1  6  0  0  0
 10 14  1  0  0  0  0
 11  2  2  0  0  0  0
 13 35  1  1  0  0  0
 14 13  1  0  0  0  0
 15 12  2  0  0  0  0
 16 17  1  6  0  0  0
 16 18  1  0  0  0  0
 19 20  2  0  0  0  0
 20 22  1  0  0  0  0
 20 21  2  0  0  0  0
 20 18  1  0  0  0  0
 22 23  1  0  0  0  0
 23 24  2  0  0  0  0
 23 25  1  0  0  0  0
 25 26  1  0  0  0  0
 26 30  2  0  0  0  0
 26 31  1  0  0  0  0
 27 29  1  0  0  0  0
 28 29  2  0  0  0  0
 30 28  1  0  0  0  0
 31 27  2  0  0  0  0
 32 22  1  0  0  0  0
 33 34  1  0  0  0  0
 34 32  1  0  0  0  0
 35 40  1  0  0  0  0
 37 36  1  0  0  0  0
 37 43  1  0  0  0  0
 38 40  2  0  0  0  0
 38 41  1  0  0  0  0
 39 36  2  0  0  0  0
 40 39  1  0  0  0  0
 41 37  2  0  0  0  0
 43 42  1  0  0  0  0
M  END
>  <MODEL>
6

>  <REMARK>
 VINA RESULT:      -7.2      3.842      7.998
  Name = 
  11 active torsions:
  status: ('A' for Active; 'I' for Inactive)
    1  A    between atoms: C_1  and  C_34
    2  A    between atoms: C_1  and  C_35
    3  A    between atoms: C_2  and  N_6
    4  A    between atoms: C_2  and  C_27
    5  A    between atoms: N_4  and  S_12
    6  A    between atoms: N_4  and  C_15
    7  A    between atoms: N_6  and  S_12
    8  A    between atoms: C_11  and  C_14
    9  A    between atoms: C_14  and  C_22
   10  A    between atoms: C_15  and  C_42
   11  A    between atoms: C_19  and  O_37
                            x       y       z     vdW  Elec       q    Type
                         _______ _______ _______ _____ _____    ______ ____

>  <TORSDO>
F 11

$$$$
=
 OpenBabel11062410263D

 43 47  0  0  1  0  0  0  0  0999 V2000
  161.3810  203.6560  147.3950 C   0  0  0  0  0  0  0  0  0  0  0  0
  161.7060  208.1960  149.5720 C   0  0  0  0  0  0  0  0  0  0  0  0
  161.4420  206.6680  151.5800 C   0  0  0  0  0  2  0  0  0  0  0  0
  161.5770  206.0330  147.8160 C   0  0  0  0  0  0  0  0  0  0  0  0
  161.2800  203.4170  148.7680 C   0  0  0  0  0  3  0  0  0  0  0  0
  161.3370  202.6210  146.5240 F   0  0  0  0  0  0  0  0  0  0  0  0
  161.4740  205.8000  149.2070 C   0  0  0  0  0  0  0  0  0  0  0  0
  161.5280  204.9620  146.9200 C   0  0  0  0  0  3  0  0  0  0  0  0
  161.3250  204.4830  149.6710 C   0  0  0  0  0  3  0  0  0  0  0  0
  160.9210  207.9010  152.3130 C   0  0  2  0  0  3  0  0  0  0  0  0
  161.5190  206.8930  150.0910 C   0  0  0  0  0  0  0  0  0  0  0  0
  161.7730  208.3670  148.1830 C   0  0  0  0  0  3  0  0  0  0  0  0
  161.6860  209.4200  150.4680 C   0  0  1  0  0  3  0  0  0  0  0  0
  161.8220  209.0740  151.9530 C   0  0  0  0  0  2  0  0  0  0  0  0
  161.7150  207.2990  147.3470 N   0  0  0  0  0  0  0  0  0  0  0  0
  160.9330  207.6640  153.8190 C   0  0  1  0  0  3  0  0  0  0  0  0
  161.5910  206.4670  154.1100 O   0  0  0  0  0  1  0  0  0  0  0  0
  161.6160  208.7590  154.4910 N   0  0  0  0  0  2  0  0  0  0  0  0
  161.3370  208.2830  157.0790 O   0  0  0  0  0  0  0  0  0  0  0  0
  160.7590  209.1010  155.9580 S   0  0  0  0  0  0  0  0  0  0  0  0
  159.3070  208.7540  155.7710 O   0  0  0  0  0  0  0  0  0  0  0  0
  160.9090  210.7900  156.3340 N   0  0  0  0  0  0  0  0  0  0  0  0
  160.0230  211.7710  155.7680 C   0  0  0  0  0  0  0  0  0  0  0  0
  160.2680  212.9990  155.9070 O   0  0  0  0  0  0  0  0  0  0  0  0
  158.7860  211.3630  155.0300 C   0  0  0  0  0  2  0  0  0  0  0  0
  157.6050  212.1310  155.5210 C   0  0  0  0  0  0  0  0  0  0  0  0
  155.8660  212.4750  157.1730 C   0  0  0  0  0  3  0  0  0  0  0  0
  155.9780  213.9030  155.2200 C   0  0  0  0  0  3  0  0  0  0  0  0
  155.3630  213.5420  156.4230 C   0  0  0  0  0  3  0  0  0  0  0  0
  157.0970  213.1960  154.7690 C   0  0  0  0  0  3  0  0  0  0  0  0
  156.9850  211.7680  156.7210 C   0  0  0  0  0  3  0  0  0  0  0  0
  161.9560  211.2090  157.2580 C   0  0  0  0  0  2  0  0  0  0  0  0
  163.5580  211.3000  155.4880 O   0  0  0  0  0  1  0  0  0  0  0  0
  163.3190  210.7640  156.7520 C   0  0  0  0  0  2  0  0  0  0  0  0
  162.7770  210.4130  150.0770 C   0  0  0  0  0  2  0  0  0  0  0  0
  160.4560  212.9840  148.5420 C   0  0  0  0  0  3  0  0  0  0  0  0
  161.2180  213.4380  147.4530 C   0  0  0  0  0  0  0  0  0  0  0  0
  163.0010  211.9200  148.0880 C   0  0  0  0  0  3  0  0  0  0  0  0
  160.9660  212.0040  149.3980 C   0  0  0  0  0  3  0  0  0  0  0  0
  162.2400  211.4730  149.1740 C   0  0  0  0  0  0  0  0  0  0  0  0
  162.4910  212.9000  147.2320 C   0  0  0  0  0  3  0  0  0  0  0  0
  160.1440  214.1020  145.3260 C   0  0  0  0  0  1  0  0  0  0  0  0
  160.7380  214.4170  146.5780 O   0  0  0  0  0  0  0  0  0  0  0  0
  1  5  1  0  0  0  0
  2 11  1  0  0  0  0
  2 13  1  0  0  0  0
  3 10  1  0  0  0  0
  4  7  1  0  0  0  0
  5  9  2  0  0  0  0
  6  1  1  0  0  0  0
  7  9  1  0  0  0  0
  7 11  2  0  0  0  0
  8  1  2  0  0  0  0
  8  4  1  0  0  0  0
 10 16  1  1  0  0  0
 11  3  1  0  0  0  0
 12  2  2  0  0  0  0
 13 35  1  6  0  0  0
 13 14  1  0  0  0  0
 14 10  1  0  0  0  0
 15  4  2  0  0  0  0
 15 12  1  0  0  0  0
 16 17  1  6  0  0  0
 16 18  1  0  0  0  0
 18 20  1  0  0  0  0
 20 22  1  0  0  0  0
 20 19  2  0  0  0  0
 21 20  2  0  0  0  0
 22 32  1  0  0  0  0
 23 24  2  0  0  0  0
 23 22  1  0  0  0  0
 25 26  1  0  0  0  0
 25 23  1  0  0  0  0
 26 31  1  0  0  0  0
 28 29  2  0  0  0  0
 29 27  1  0  0  0  0
 30 28  1  0  0  0  0
 30 26  2  0  0  0  0
 31 27  2  0  0  0  0
 33 34  1  0  0  0  0
 34 32  1  0  0  0  0
 36 39  1  0  0  0  0
 37 36  2  0  0  0  0
 38 40  1  0  0  0  0
 40 39  2  0  0  0  0
 40 35  1  0  0  0  0
 41 37  1  0  0  0  0
 41 38  2  0  0  0  0
 42 43  1  0  0  0  0
 43 37  1  0  0  0  0
M  END
>  <MODEL>
7

>  <REMARK>
 VINA RESULT:      -7.1      4.653      9.689
  Name = 
  11 active torsions:
  status: ('A' for Active; 'I' for Inactive)
    1  A    between atoms: C_1  and  C_34
    2  A    between atoms: C_1  and  C_35
    3  A    between atoms: C_2  and  N_6
    4  A    between atoms: C_2  and  C_27
    5  A    between atoms: N_4  and  S_12
    6  A    between atoms: N_4  and  C_15
    7  A    between atoms: N_6  and  S_12
    8  A    between atoms: C_11  and  C_14
    9  A    between atoms: C_14  and  C_22
   10  A    between atoms: C_15  and  C_42
   11  A    between atoms: C_19  and  O_37
                            x       y       z     vdW  Elec       q    Type
                         _______ _______ _______ _____ _____    ______ ____

>  <TORSDO>
F 11

$$$$
=
 OpenBabel11062410263D

 43 47  0  0  1  0  0  0  0  0999 V2000
  161.5860  213.6820  147.3220 C   0  0  0  0  0  0  0  0  0  0  0  0
  160.0310  212.4330  151.9570 C   0  0  0  0  0  0  0  0  0  0  0  0
  161.3640  210.3840  151.2800 C   0  0  0  0  0  2  0  0  0  0  0  0
  160.5480  213.6690  149.5100 C   0  0  0  0  0  0  0  0  0  0  0  0
  162.1080  212.4080  147.5570 C   0  0  0  0  0  3  0  0  0  0  0  0
  161.8370  214.3090  146.1480 F   0  0  0  0  0  0  0  0  0  0  0  0
  161.0710  212.3790  149.7560 C   0  0  0  0  0  0  0  0  0  0  0  0
  160.8070  214.3120  148.2970 C   0  0  0  0  0  3  0  0  0  0  0  0
  161.8520  211.7580  148.7670 C   0  0  0  0  0  3  0  0  0  0  0  0
  160.5290  209.6340  152.3130 C   0  0  2  0  0  3  0  0  0  0  0  0
  160.7930  211.7480  150.9820 C   0  0  0  0  0  0  0  0  0  0  0  0
  159.5160  213.6990  151.6440 C   0  0  0  0  0  3  0  0  0  0  0  0
  159.6340  211.7760  153.2650 C   0  0  1  0  0  3  0  0  0  0  0  0
  160.4340  210.5030  153.5580 C   0  0  0  0  0  2  0  0  0  0  0  0
  159.7860  214.2850  150.4500 N   0  0  0  0  0  0  0  0  0  0  0  0
  161.1800  208.2960  152.6460 C   0  0  1  0  0  3  0  0  0  0  0  0
  160.9020  207.9450  153.9700 O   0  0  0  0  0  1  0  0  0  0  0  0
  160.6700  207.2590  151.7620 N   0  0  0  0  0  2  0  0  0  0  0  0
  161.6150  205.4340  153.4290 O   0  0  0  0  0  0  0  0  0  0  0  0
  161.6470  205.8440  151.9830 S   0  0  0  0  0  0  0  0  0  0  0  0
  163.0600  206.1530  151.5730 O   0  0  0  0  0  0  0  0  0  0  0  0
  161.0260  204.5540  150.9990 N   0  0  0  0  0  0  0  0  0  0  0  0
  160.9890  204.6500  149.5650 C   0  0  0  0  0  0  0  0  0  0  0  0
  160.3660  203.7860  148.8910 O   0  0  0  0  0  0  0  0  0  0  0  0
  161.7040  205.7490  148.8440 C   0  0  0  0  0  2  0  0  0  0  0  0
  161.5570  205.5900  147.3680 C   0  0  0  0  0  0  0  0  0  0  0  0
  162.3000  204.6100  145.2790 C   0  0  0  0  0  3  0  0  0  0  0  0
  160.4470  206.1690  145.2920 C   0  0  0  0  0  3  0  0  0  0  0  0
  161.3110  205.3220  144.5930 C   0  0  0  0  0  3  0  0  0  0  0  0
  160.5700  206.3040  146.6780 C   0  0  0  0  0  3  0  0  0  0  0  0
  162.4240  204.7460  146.6650 C   0  0  0  0  0  3  0  0  0  0  0  0
  160.5450  203.3450  151.6580 C   0  0  0  0  0  2  0  0  0  0  0  0
  161.7070  201.5120  150.6580 O   0  0  0  0  0  1  0  0  0  0  0  0
  161.6670  202.3290  151.7880 C   0  0  0  0  0  2  0  0  0  0  0  0
  159.7720  212.7430  154.4370 C   0  0  0  0  0  2  0  0  0  0  0  0
  157.0420  212.1560  156.9970 C   0  0  0  0  0  3  0  0  0  0  0  0
  156.0590  213.0660  156.5760 C   0  0  0  0  0  0  0  0  0  0  0  0
  157.5100  213.7680  154.7620 C   0  0  0  0  0  3  0  0  0  0  0  0
  158.2520  212.0550  156.3040 C   0  0  0  0  0  3  0  0  0  0  0  0
  158.4890  212.8630  155.1880 C   0  0  0  0  0  0  0  0  0  0  0  0
  156.3010  213.8690  155.4550 C   0  0  0  0  0  3  0  0  0  0  0  0
  153.8910  214.2010  156.9300 C   0  0  0  0  0  1  0  0  0  0  0  0
  154.8390  213.1910  157.2460 O   0  0  0  0  0  0  0  0  0  0  0  0
  1  5  2  0  0  0  0
  1  8  1  0  0  0  0
  2 13  1  0  0  0  0
  3 10  1  0  0  0  0
  4  7  1  0  0  0  0
  4 15  1  0  0  0  0
  5  9  1  0  0  0  0
  6  1  1  0  0  0  0
  7 11  1  0  0  0  0
  8  4  2  0  0  0  0
  9  7  2  0  0  0  0
 10 16  1  1  0  0  0
 10 14  1  0  0  0  0
 11  3  1  0  0  0  0
 11  2  2  0  0  0  0
 12  2  1  0  0  0  0
 13 14  1  0  0  0  0
 13 35  1  1  0  0  0
 15 12  2  0  0  0  0
 16 17  1  1  0  0  0
 18 20  1  0  0  0  0
 18 16  1  0  0  0  0
 20 19  2  0  0  0  0
 21 20  2  0  0  0  0
 22 32  1  0  0  0  0
 22 20  1  0  0  0  0
 23 22  1  0  0  0  0
 24 23  2  0  0  0  0
 25 23  1  0  0  0  0
 26 25  1  0  0  0  0
 27 31  1  0  0  0  0
 28 30  2  0  0  0  0
 29 27  2  0  0  0  0
 29 28  1  0  0  0  0
 30 26  1  0  0  0  0
 31 26  2  0  0  0  0
 32 34  1  0  0  0  0
 33 34  1  0  0  0  0
 35 40  1  0  0  0  0
 37 36  1  0  0  0  0
 37 43  1  0  0  0  0
 38 40  2  0  0  0  0
 38 41  1  0  0  0  0
 39 36  2  0  0  0  0
 40 39  1  0  0  0  0
 41 37  2  0  0  0  0
 42 43  1  0  0  0  0
M  END
>  <MODEL>
8

>  <REMARK>
 VINA RESULT:      -7.1      4.909      9.965
  Name = 
  11 active torsions:
  status: ('A' for Active; 'I' for Inactive)
    1  A    between atoms: C_1  and  C_34
    2  A    between atoms: C_1  and  C_35
    3  A    between atoms: C_2  and  N_6
    4  A    between atoms: C_2  and  C_27
    5  A    between atoms: N_4  and  S_12
    6  A    between atoms: N_4  and  C_15
    7  A    between atoms: N_6  and  S_12
    8  A    between atoms: C_11  and  C_14
    9  A    between atoms: C_14  and  C_22
   10  A    between atoms: C_15  and  C_42
   11  A    between atoms: C_19  and  O_37
                            x       y       z     vdW  Elec       q    Type
                         _______ _______ _______ _____ _____    ______ ____

>  <TORSDO>
F 11

$$$$
=
 OpenBabel11062410263D

 43 47  0  0  1  0  0  0  0  0999 V2000
  160.6600  207.3290  155.1980 C   0  0  0  0  0  0  0  0  0  0  0  0
  161.5820  210.0390  151.0420 C   0  0  0  0  0  0  0  0  0  0  0  0
  161.6250  207.6670  150.1440 C   0  0  0  0  0  2  0  0  0  0  0  0
  161.0650  209.1280  153.6280 C   0  0  0  0  0  0  0  0  0  0  0  0
  160.8030  206.3940  154.1700 C   0  0  0  0  0  3  0  0  0  0  0  0
  160.3930  206.9130  156.4580 F   0  0  0  0  0  0  0  0  0  0  0  0
  161.2120  208.1880  152.5810 C   0  0  0  0  0  0  0  0  0  0  0  0
  160.7910  208.6940  154.9270 C   0  0  0  0  0  3  0  0  0  0  0  0
  161.0790  206.8200  152.8680 C   0  0  0  0  0  3  0  0  0  0  0  0
  162.4750  208.2290  149.0080 C   0  0  2  0  0  3  0  0  0  0  0  0
  161.4930  208.6470  151.2820 C   0  0  0  0  0  0  0  0  0  0  0  0
  161.4540  210.9200  152.1250 C   0  0  0  0  0  3  0  0  0  0  0  0
  161.9570  210.5900  149.6800 C   0  0  1  0  0  3  0  0  0  0  0  0
  161.8530  209.5450  148.5660 C   0  0  0  0  0  2  0  0  0  0  0  0
  161.1950  210.4550  153.3730 N   0  0  0  0  0  0  0  0  0  0  0  0
  162.5200  207.2440  147.8450 C   0  0  1  0  0  3  0  0  0  0  0  0
  163.3870  206.1900  148.1430 O   0  0  0  0  0  1  0  0  0  0  0  0
  161.1900  206.7090  147.5930 N   0  0  0  0  0  2  0  0  0  0  0  0
  162.4280  206.4210  145.2720 O   0  0  0  0  0  0  0  0  0  0  0  0
  161.1980  205.9850  146.0190 S   0  0  0  0  0  0  0  0  0  0  0  0
  159.9680  206.4210  145.2710 O   0  0  0  0  0  0  0  0  0  0  0  0
  161.1980  204.2550  146.1780 N   0  0  0  0  0  0  0  0  0  0  0  0
  161.1100  203.6160  147.4630 C   0  0  0  0  0  0  0  0  0  0  0  0
  161.3010  202.3740  147.5650 O   0  0  0  0  0  0  0  0  0  0  0  0
  160.7670  204.3960  148.6940 C   0  0  0  0  0  2  0  0  0  0  0  0
  160.9170  203.5470  149.9110 C   0  0  0  0  0  0  0  0  0  0  0  0
  160.9880  201.3560  150.9450 C   0  0  0  0  0  3  0  0  0  0  0  0
  161.1980  203.3450  152.3110 C   0  0  0  0  0  3  0  0  0  0  0  0
  161.1530  201.9520  152.1990 C   0  0  0  0  0  3  0  0  0  0  0  0
  161.0780  204.1410  151.1680 C   0  0  0  0  0  3  0  0  0  0  0  0
  160.8670  202.1530  149.8020 C   0  0  0  0  0  3  0  0  0  0  0  0
  161.2780  203.4430  144.9690 C   0  0  0  0  0  2  0  0  0  0  0  0
  159.8020  201.5670  144.8750 O   0  0  0  0  0  1  0  0  0  0  0  0
  159.9010  202.9270  144.5850 C   0  0  0  0  0  2  0  0  0  0  0  0
  161.1070  211.8040  149.3180 C   0  0  0  0  0  2  0  0  0  0  0  0
  160.7260  212.7050  145.6580 C   0  0  0  0  0  3  0  0  0  0  0  0
  162.0170  213.1590  145.3430 C   0  0  0  0  0  0  0  0  0  0  0  0
  162.7070  212.7350  147.6300 C   0  0  0  0  0  3  0  0  0  0  0  0
  160.4290  212.2690  146.9530 C   0  0  0  0  0  3  0  0  0  0  0  0
  161.4180  212.2860  147.9410 C   0  0  0  0  0  0  0  0  0  0  0  0
  163.0030  213.1700  146.3360 C   0  0  0  0  0  3  0  0  0  0  0  0
  162.3470  212.7410  142.9280 C   0  0  0  0  0  1  0  0  0  0  0  0
  162.3460  213.6020  144.0580 O   0  0  0  0  0  0  0  0  0  0  0  0
  1  6  1  0  0  0  0
  2 11  2  0  0  0  0
  2 12  1  0  0  0  0
  3 11  1  0  0  0  0
  4  8  2  0  0  0  0
  5  1  2  0  0  0  0
  7  9  2  0  0  0  0
  7  4  1  0  0  0  0
  8  1  1  0  0  0  0
  9  5  1  0  0  0  0
 10 16  1  6  0  0  0
 10  3  1  0  0  0  0
 11  7  1  0  0  0  0
 12 15  2  0  0  0  0
 13 35  1  6  0  0  0
 13  2  1  0  0  0  0
 14 10  1  0  0  0  0
 14 13  1  0  0  0  0
 15  4  1  0  0  0  0
 16 17  1  1  0  0  0
 18 16  1  0  0  0  0
 19 20  2  0  0  0  0
 20 22  1  0  0  0  0
 20 18  1  0  0  0  0
 21 20  2  0  0  0  0
 22 23  1  0  0  0  0
 23 24  2  0  0  0  0
 23 25  1  0  0  0  0
 25 26  1  0  0  0  0
 26 30  1  0  0  0  0
 27 29  2  0  0  0  0
 29 28  1  0  0  0  0
 30 28  2  0  0  0  0
 31 26  2  0  0  0  0
 31 27  1  0  0  0  0
 32 22  1  0  0  0  0
 34 33  1  0  0  0  0
 34 32  1  0  0  0  0
 36 39  1  0  0  0  0
 37 36  2  0  0  0  0
 37 41  1  0  0  0  0
 38 40  1  0  0  0  0
 39 40  2  0  0  0  0
 40 35  1  0  0  0  0
 41 38  2  0  0  0  0
 42 43  1  0  0  0  0
 43 37  1  0  0  0  0
M  END
>  <MODEL>
9

>  <REMARK>
 VINA RESULT:      -6.8      2.795      8.378
  Name = 
  11 active torsions:
  status: ('A' for Active; 'I' for Inactive)
    1  A    between atoms: C_1  and  C_34
    2  A    between atoms: C_1  and  C_35
    3  A    between atoms: C_2  and  N_6
    4  A    between atoms: C_2  and  C_27
    5  A    between atoms: N_4  and  S_12
    6  A    between atoms: N_4  and  C_15
    7  A    between atoms: N_6  and  S_12
    8  A    between atoms: C_11  and  C_14
    9  A    between atoms: C_14  and  C_22
   10  A    between atoms: C_15  and  C_42
   11  A    between atoms: C_19  and  O_37
                            x       y       z     vdW  Elec       q    Type
                         _______ _______ _______ _____ _____    ______ ____

>  <TORSDO>
F 11

$$$$
