=
 OpenBabel11062409463D

 34 39  0  0  1  0  0  0  0  0999 V2000
  158.6010  211.6560  152.6510 C   0  0  1  0  0  3  0  0  0  0  0  0
  160.4010  214.4530  150.7970 C   0  0  0  0  0  2  0  0  0  0  0  0
  159.3700  214.4460  152.9920 C   0  0  0  0  0  2  0  0  0  0  0  0
  159.3550  210.3840  154.6210 C   0  0  2  0  0  3  0  0  0  0  0  0
  159.1340  210.2970  153.1140 C   0  0  0  0  0  2  0  0  0  0  0  0
  156.8830  212.0540  154.2640 O   0  0  0  0  0  0  0  0  0  0  0  0
  156.0650  213.1330  153.8630 C   0  0  0  0  0  2  0  0  0  0  0  0
  159.1690  211.8370  155.0020 C   0  0  2  0  0  3  0  0  0  0  0  0
  158.6380  211.9660  156.4240 C   0  0  0  0  0  1  0  0  0  0  0  0
  158.2890  213.9080  153.9060 C   0  0  2  0  0  3  0  0  0  0  0  0
  158.2170  212.3960  153.9530 C   0  0  1  0  0  0  0  0  0  0  0  0
  156.9200  214.3180  153.4720 C   0  0  0  0  0  2  0  0  0  0  0  0
  160.1530  214.2220  149.3120 C   0  0  0  0  0  2  0  0  0  0  0  0
  160.8340  212.9540  148.7850 C   0  0  2  0  0  3  0  0  0  0  0  0
  160.8100  211.7610  149.7420 C   0  0  0  0  0  2  0  0  0  0  0  0
  159.3370  213.7530  151.6440 C   0  0  2  0  0  3  0  0  0  0  0  0
  159.5020  211.6610  150.5090 C   0  0  0  0  0  2  0  0  0  0  0  0
  159.6240  212.3150  151.8140 N   0  0  2  0  0  0  0  0  0  0  0  0
  162.1450  209.9770  153.0320 C   0  0  0  0  0  3  0  0  0  0  0  0
  160.7100  208.3600  155.3800 C   0  0  0  0  0  3  0  0  0  0  0  0
  161.2120  206.5400  150.8430 C   0  0  0  0  0  0  0  0  0  0  0  0
  161.6930  207.7260  150.2070 N   0  0  0  0  0  0  0  0  0  0  0  0
  162.3560  208.7670  150.9860 C   0  0  0  0  0  2  0  0  0  0  0  0
  160.9070  205.5200  150.1660 O   0  0  0  0  0  0  0  0  0  0  0  0
  161.8850  208.8200  152.4150 C   0  0  0  0  0  0  0  0  0  0  0  0
  161.7580  207.8080  148.7570 C   0  0  0  0  0  1  0  0  0  0  0  0
  161.3020  207.5890  153.0510 C   0  0  0  0  0  0  0  0  0  0  0  0
  160.9650  207.4170  154.4760 C   0  0  0  0  0  3  0  0  0  0  0  0
  161.0310  206.5260  152.2930 C   0  0  0  0  0  2  0  0  0  0  0  0
  160.6960  209.8250  155.1170 C   0  0  0  0  0  0  0  0  0  0  0  0
  161.9840  210.3200  154.4770 C   0  0  0  0  0  2  0  0  0  0  0  0
  162.2350  213.2450  148.3590 C   0  0  0  0  0  0  0  0  0  0  0  0
  162.5980  214.4370  148.1840 O   0  0  0  0  0  1  0  0  0  0  0  0
  163.1410  212.2110  148.1610 O   0  0  0  0  0  0  0  0  0  0  0  0
  1  5  1  1  0  0  0
  1 11  1  0  0  0  0
  4  8  1  0  0  0  0
  4 30  1  6  0  0  0
  5  4  1  0  0  0  0
  7  6  1  0  0  0  0
  8  9  1  1  0  0  0
 10  3  1  6  0  0  0
 10 11  1  0  0  0  0
 11  6  1  1  0  0  0
 11  8  1  0  0  0  0
 12  7  1  0  0  0  0
 12 10  1  0  0  0  0
 13  2  1  0  0  0  0
 14 32  1  1  0  0  0
 14 13  1  0  0  0  0
 14 15  1  0  0  0  0
 15 17  1  0  0  0  0
 16  2  1  6  0  0  0
 16 18  1  0  0  0  0
 16  3  1  0  0  0  0
 18 17  1  6  0  0  0
 18  1  1  0  0  0  0
 19 31  1  0  0  0  0
 21 29  1  0  0  0  0
 22 21  1  0  0  0  0
 22 23  1  0  0  0  0
 23 25  1  0  0  0  0
 24 21  2  0  0  0  0
 25 19  2  0  0  0  0
 25 27  1  0  0  0  0
 26 22  1  0  0  0  0
 27 28  2  0  0  0  0
 28 20  1  0  0  0  0
 29 27  1  0  0  0  0
 30 20  2  3  0  0  0
 31 30  1  0  0  0  0
 33 32  1  0  0  0  0
 34 32  2  0  0  0  0
M  END
>  <MODEL>
1

>  <REMARK>
 VINA RESULT:      -4.4      0.000      0.000
  Name = 
  2 active torsions:
  status: ('A' for Active; 'I' for Inactive)
    1  A    between atoms: C_3  and  C_25
    2  A    between atoms: C_8  and  C_30
                            x       y       z     vdW  Elec       q    Type
                         _______ _______ _______ _____ _____    ______ ____

>  <TORSDO>
F 2

$$$$
=
 OpenBabel11062409463D

 34 39  0  0  1  0  0  0  0  0999 V2000
  161.5010  210.2780  154.3360 C   0  0  1  0  0  3  0  0  0  0  0  0
  160.9290  206.8470  152.7890 C   0  0  0  0  0  2  0  0  0  0  0  0
  160.3530  207.6810  154.9910 C   0  0  0  0  0  2  0  0  0  0  0  0
  159.8450  212.0260  154.8540 C   0  0  2  0  0  3  0  0  0  0  0  0
  160.9680  211.6450  153.8950 C   0  0  0  0  0  2  0  0  0  0  0  0
  161.7690  210.6220  156.6860 O   0  0  0  0  0  0  0  0  0  0  0  0
  162.5170  209.5710  157.2600 C   0  0  0  0  0  2  0  0  0  0  0  0
  159.5720  210.8070  155.7080 C   0  0  2  0  0  3  0  0  0  0  0  0
  159.0760  211.2070  157.0910 C   0  0  0  0  0  1  0  0  0  0  0  0
  160.6810  208.6060  156.1450 C   0  0  2  0  0  3  0  0  0  0  0  0
  160.8920  210.0500  155.7390 C   0  0  1  0  0  0  0  0  0  0  0  0
  161.9570  208.2350  156.8270 C   0  0  0  0  0  2  0  0  0  0  0  0
  162.0760  206.6100  151.8160 C   0  0  0  0  0  2  0  0  0  0  0  0
  162.0360  207.5530  150.6070 C   0  0  2  0  0  3  0  0  0  0  0  0
  161.6030  208.9870  150.9190 C   0  0  0  0  0  2  0  0  0  0  0  0
  161.3060  207.8990  153.8320 C   0  0  2  0  0  3  0  0  0  0  0  0
  162.1450  209.4770  152.2520 C   0  0  0  0  0  2  0  0  0  0  0  0
  161.1550  209.2720  153.3120 N   0  0  2  0  0  0  0  0  0  0  0  0
  158.6230  211.4010  151.9240 C   0  0  0  0  0  3  0  0  0  0  0  0
  158.6210  213.9930  153.7850 C   0  0  0  0  0  3  0  0  0  0  0  0
  161.1610  213.7610  149.5860 C   0  0  0  0  0  0  0  0  0  0  0  0
  160.9780  212.3680  149.3210 N   0  0  0  0  0  0  0  0  0  0  0  0
  159.8390  211.6510  149.8850 C   0  0  0  0  0  2  0  0  0  0  0  0
  161.9530  214.4530  148.8900 O   0  0  0  0  0  0  0  0  0  0  0  0
  159.3640  212.2370  151.1890 C   0  0  0  0  0  0  0  0  0  0  0  0
  161.7680  211.7040  148.2970 C   0  0  0  0  0  1  0  0  0  0  0  0
  159.6340  213.6820  151.4960 C   0  0  0  0  0  0  0  0  0  0  0  0
  159.0900  214.4530  152.6280 C   0  0  0  0  0  3  0  0  0  0  0  0
  160.4540  214.3780  150.7050 C   0  0  0  0  0  2  0  0  0  0  0  0
  158.5700  212.5610  154.1870 C   0  0  0  0  0  0  0  0  0  0  0  0
  157.8500  211.6900  153.1690 C   0  0  0  0  0  2  0  0  0  0  0  0
  161.1880  206.9830  149.5200 C   0  0  0  0  0  0  0  0  0  0  0  0
  161.0640  207.6060  148.4340 O   0  0  0  0  0  0  0  0  0  0  0  0
  160.5410  205.7660  149.6960 O   0  0  0  0  0  1  0  0  0  0  0  0
  1  5  1  6  0  0  0
  1 11  1  0  0  0  0
  4 30  1  6  0  0  0
  4  8  1  0  0  0  0
  5  4  1  0  0  0  0
  6  7  1  0  0  0  0
  8 11  1  0  0  0  0
  8  9  1  1  0  0  0
 10  3  1  6  0  0  0
 10 12  1  0  0  0  0
 11 10  1  0  0  0  0
 11  6  1  1  0  0  0
 12  7  1  0  0  0  0
 13  2  1  0  0  0  0
 14 32  1  6  0  0  0
 14 15  1  0  0  0  0
 14 13  1  0  0  0  0
 15 17  1  0  0  0  0
 16  2  1  6  0  0  0
 16  3  1  0  0  0  0
 18 17  1  6  0  0  0
 18 16  1  0  0  0  0
 18  1  1  0  0  0  0
 19 31  1  0  0  0  0
 20 30  2  3  0  0  0
 21 29  1  0  0  0  0
 22 21  1  0  0  0  0
 22 23  1  0  0  0  0
 23 25  1  0  0  0  0
 24 21  2  0  0  0  0
 25 27  1  0  0  0  0
 25 19  2  0  0  0  0
 26 22  1  0  0  0  0
 27 28  2  0  0  0  0
 28 20  1  0  0  0  0
 29 27  1  0  0  0  0
 31 30  1  0  0  0  0
 32 34  1  0  0  0  0
 33 32  2  0  0  0  0
M  END
>  <MODEL>
2

>  <REMARK>
 VINA RESULT:      -3.7      1.672      5.814
  Name = 
  2 active torsions:
  status: ('A' for Active; 'I' for Inactive)
    1  A    between atoms: C_3  and  C_25
    2  A    between atoms: C_8  and  C_30
                            x       y       z     vdW  Elec       q    Type
                         _______ _______ _______ _____ _____    ______ ____

>  <TORSDO>
F 2

$$$$
=
 OpenBabel11062409463D

 34 39  0  0  1  0  0  0  0  0999 V2000
  161.9790  209.6440  153.6370 C   0  0  1  0  0  3  0  0  0  0  0  0
  160.4690  206.1490  153.6560 C   0  0  0  0  0  2  0  0  0  0  0  0
  160.0880  208.0210  155.1490 C   0  0  0  0  0  2  0  0  0  0  0  0
  160.8990  211.7810  153.0610 C   0  0  2  0  0  3  0  0  0  0  0  0
  161.8920  210.7350  152.5660 C   0  0  0  0  0  2  0  0  0  0  0  0
  162.2520  210.9580  155.6150 O   0  0  0  0  0  0  0  0  0  0  0  0
  162.6330  210.1450  156.7040 C   0  0  0  0  0  2  0  0  0  0  0  0
  160.2450  211.2060  154.2990 C   0  0  2  0  0  3  0  0  0  0  0  0
  159.8420  212.3100  155.2680 C   0  0  0  0  0  1  0  0  0  0  0  0
  160.6340  209.2610  155.8260 C   0  0  2  0  0  3  0  0  0  0  0  0
  161.2790  210.2490  154.8760 C   0  0  1  0  0  0  0  0  0  0  0  0
  161.7170  208.9460  156.8050 C   0  0  0  0  0  2  0  0  0  0  0  0
  161.5290  205.2120  153.0900 C   0  0  0  0  0  2  0  0  0  0  0  0
  161.8150  205.4660  151.6050 C   0  0  2  0  0  3  0  0  0  0  0  0
  161.8160  206.9380  151.1880 C   0  0  0  0  0  2  0  0  0  0  0  0
  161.1040  207.4340  154.1880 C   0  0  2  0  0  3  0  0  0  0  0  0
  162.4300  207.8380  152.2470 C   0  0  0  0  0  2  0  0  0  0  0  0
  161.3860  208.3990  153.1080 N   0  0  2  0  0  0  0  0  0  0  0  0
  158.7440  214.1900  153.2160 C   0  0  0  0  0  3  0  0  0  0  0  0
  158.7160  211.3190  151.8240 C   0  0  0  0  0  3  0  0  0  0  0  0
  155.8760  212.4100  155.6820 C   0  0  0  0  0  0  0  0  0  0  0  0
  156.4510  213.6800  155.9980 N   0  0  0  0  0  0  0  0  0  0  0  0
  157.1510  214.4500  154.9740 C   0  0  0  0  0  2  0  0  0  0  0  0
  155.0330  211.8720  156.4510 O   0  0  0  0  0  0  0  0  0  0  0  0
  157.7790  213.5830  153.9150 C   0  0  1  0  0  3  0  0  0  0  0  0
  156.1380  214.3360  157.2560 C   0  0  0  0  0  1  0  0  0  0  0  0
  157.2200  212.2150  153.6470 C   0  0  0  0  0  0  0  0  0  0  0  0
  157.5930  211.3190  152.5380 C   0  0  0  0  0  3  0  0  0  0  0  0
  156.3040  211.7080  154.4740 C   0  0  0  0  0  2  0  0  0  0  0  0
  159.8650  212.2430  152.0240 C   0  0  0  0  0  0  0  0  0  0  0  0
  159.4550  213.7070  151.9940 C   0  0  0  0  0  3  0  0  0  0  0  0
  160.8750  204.6870  150.7460 C   0  0  0  0  0  0  0  0  0  0  0  0
  160.5120  205.1540  149.6360 O   0  0  0  0  0  0  0  0  0  0  0  0
  160.4050  203.4460  151.1600 O   0  0  0  0  0  1  0  0  0  0  0  0
  1  5  1  6  0  0  0
  1 11  1  0  0  0  0
  4 30  1  6  0  0  0
  4  8  1  0  0  0  0
  5  4  1  0  0  0  0
  6  7  1  0  0  0  0
  7 12  1  0  0  0  0
  8 11  1  0  0  0  0
  8  9  1  1  0  0  0
 10  3  1  6  0  0  0
 10 12  1  0  0  0  0
 11  6  1  1  0  0  0
 11 10  1  0  0  0  0
 13  2  1  0  0  0  0
 14 32  1  6  0  0  0
 14 13  1  0  0  0  0
 15 14  1  0  0  0  0
 15 17  1  0  0  0  0
 16  2  1  6  0  0  0
 16  3  1  0  0  0  0
 18 17  1  6  0  0  0
 18  1  1  0  0  0  0
 18 16  1  0  0  0  0
 20 30  2  3  0  0  0
 20 28  1  0  0  0  0
 21 22  1  0  0  0  0
 21 24  2  0  0  0  0
 22 26  1  0  0  0  0
 23 22  1  0  0  0  0
 25 19  1  6  0  0  0
 25 23  1  0  0  0  0
 27 25  1  0  0  0  0
 27 29  1  0  0  0  0
 28 27  2  0  0  0  0
 29 21  1  0  0  0  0
 31 30  1  0  0  0  0
 31 19  2  0  0  0  0
 32 34  1  0  0  0  0
 33 32  2  0  0  0  0
M  END
>  <MODEL>
3

>  <REMARK>
 VINA RESULT:      -2.0      2.692      7.050
  Name = 
  2 active torsions:
  status: ('A' for Active; 'I' for Inactive)
    1  A    between atoms: C_3  and  C_25
    2  A    between atoms: C_8  and  C_30
                            x       y       z     vdW  Elec       q    Type
                         _______ _______ _______ _____ _____    ______ ____

>  <TORSDO>
F 2

$$$$
