=
 OpenBabel11052421573D

 30 32  0  0  1  0  0  0  0  0999 V2000
  161.5760  204.6080  147.2430 O   0  0  0  0  0  0  0  0  0  0  0  0
  162.4790  204.7390  145.0080 C   0  0  1  0  0  3  0  0  0  0  0  0
  161.6630  200.7730  147.1770 C   0  0  0  0  0  2  0  0  0  0  0  0
  161.5110  203.7880  148.3820 C   0  0  2  0  0  3  0  0  0  0  0  0
  161.2560  200.0690  148.3240 O   0  0  0  0  0  0  0  0  0  0  0  0
  161.2400  205.0460  144.1500 C   0  0  0  0  0  2  0  0  0  0  0  0
  163.0800  205.9240  145.4320 O   0  0  0  0  0  1  0  0  0  0  0  0
  160.6600  201.8980  146.9140 C   0  0  1  0  0  3  0  0  0  0  0  0
  160.0520  204.7760  144.8560 O   0  0  0  0  0  0  0  0  0  0  0  0
  162.1380  203.8390  146.2060 C   0  0  2  0  0  3  0  0  0  0  0  0
  160.4130  202.7140  148.2030 C   0  0  1  0  0  3  0  0  0  0  0  0
  161.4640  200.8850  149.3480 O   0  0  0  0  0  0  0  0  0  0  0  0
  160.3490  201.7430  149.3910 C   0  0  0  0  0  2  0  0  0  0  0  0
  159.9480  203.3730  144.9760 C   0  0  0  0  0  2  0  0  0  0  0  0
  161.1360  202.7630  145.7470 C   0  0  2  0  0  3  0  0  0  0  0  0
  161.3760  204.6670  149.6470 C   0  0  1  0  0  3  0  0  0  0  0  0
  160.1560  206.3000  148.1120 C   0  0  0  0  0  1  0  0  0  0  0  0
  160.8320  206.0980  149.4620 C   0  0  2  0  0  3  0  0  0  0  0  0
  162.4300  207.7930  148.4890 C   0  0  0  0  0  1  0  0  0  0  0  0
  161.8900  207.1690  149.7670 C   0  0  1  0  0  3  0  0  0  0  0  0
  161.2910  208.2570  150.5930 C   0  0  0  0  0  3  0  0  0  0  0  0
  162.7490  210.0760  151.6030 O   0  0  0  0  0  0  0  0  0  0  0  0
  162.0420  209.1890  151.1110 C   0  0  0  0  0  0  0  0  0  0  0  0
  160.7090  204.0000  150.6780 O   0  0  0  0  0  0  0  0  0  0  0  0
  161.5280  204.1660  151.7980 C   0  0  0  0  0  2  0  0  0  0  0  0
  160.8230  205.0150  152.8450 C   0  0  0  0  0  2  0  0  0  0  0  0
  161.7450  206.0890  153.4070 C   0  0  0  0  0  2  0  0  0  0  0  0
  161.2660  208.4010  154.2170 O   0  0  0  0  0  0  0  0  0  0  0  0
  160.9930  207.0400  154.2750 C   0  0  0  0  0  0  0  0  0  0  0  0
  160.1200  206.6090  155.0730 O   0  0  0  0  0  1  0  0  0  0  0  0
  1  4  1  0  0  0  0
  2  7  1  1  0  0  0
  2 10  1  0  0  0  0
  3  5  1  0  0  0  0
  4 16  1  1  0  0  0
  5 12  1  0  0  0  0
  6  9  1  0  0  0  0
  6  2  1  0  0  0  0
  8  3  1  1  0  0  0
  8 11  1  0  0  0  0
  9 14  1  0  0  0  0
 10  1  1  1  0  0  0
 11  4  1  0  0  0  0
 11 13  1  1  0  0  0
 12 13  1  0  0  0  0
 15 14  1  1  0  0  0
 15 10  1  0  0  0  0
 15  8  1  0  0  0  0
 16 24  1  1  0  0  0
 18 17  1  6  0  0  0
 18 16  1  0  0  0  0
 18 20  1  0  0  0  0
 20 19  1  6  0  0  0
 20 21  1  0  0  0  0
 21 23  2  0  0  0  0
 23 22  2  0  0  0  0
 24 25  1  0  0  0  0
 25 26  1  0  0  0  0
 26 27  1  0  0  0  0
 27 29  1  0  0  0  0
 28 29  2  0  0  0  0
 29 30  1  0  0  0  0
M  END
>  <MODEL>
1

>  <REMARK>
 VINA RESULT:      -7.0      0.000      0.000
  Name = 
  9 active torsions:
  status: ('A' for Active; 'I' for Inactive)
    1  A    between atoms: C_4  and  C_13
    2  A    between atoms: C_5  and  C_12
    3  A    between atoms: C_7  and  C_15
    4  A    between atoms: C_7  and  C_16
    5  A    between atoms: C_8  and  C_12
    6  A    between atoms: C_8  and  C_13
    7  A    between atoms: C_13  and  O_27
    8  A    between atoms: C_16  and  C_30
    9  A    between atoms: O_27  and  C_30
                            x       y       z     vdW  Elec       q    Type
                         _______ _______ _______ _____ _____    ______ ____

>  <TORSDO>
F 9

$$$$
=
 OpenBabel11052421573D

 30 32  0  0  1  0  0  0  0  0999 V2000
  161.5020  205.1280  147.9800 O   0  0  0  0  0  0  0  0  0  0  0  0
  162.6960  204.2190  146.0900 C   0  0  1  0  0  3  0  0  0  0  0  0
  161.8650  201.8460  149.9330 C   0  0  0  0  0  2  0  0  0  0  0  0
  161.3370  205.0040  149.3700 C   0  0  2  0  0  3  0  0  0  0  0  0
  161.3520  201.7780  151.2410 O   0  0  0  0  0  0  0  0  0  0  0  0
  161.5700  203.8790  145.0980 C   0  0  0  0  0  2  0  0  0  0  0  0
  163.1480  205.5220  145.8800 O   0  0  0  0  0  1  0  0  0  0  0  0
  160.8320  202.5360  149.0400 C   0  0  1  0  0  3  0  0  0  0  0  0
  160.3170  203.8530  145.7400 O   0  0  0  0  0  0  0  0  0  0  0  0
  162.2550  204.0200  147.5480 C   0  0  2  0  0  3  0  0  0  0  0  0
  160.3520  203.8550  149.6880 C   0  0  1  0  0  3  0  0  0  0  0  0
  161.3590  203.0210  151.7010 O   0  0  0  0  0  0  0  0  0  0  0  0
  160.1920  203.6260  151.1970 C   0  0  0  0  0  2  0  0  0  0  0  0
  160.2950  202.7070  146.5660 C   0  0  0  0  0  2  0  0  0  0  0  0
  161.4040  202.7390  147.6370 C   0  0  2  0  0  3  0  0  0  0  0  0
  160.9650  206.3780  149.9730 C   0  0  1  0  0  3  0  0  0  0  0  0
  162.9060  205.9060  151.5620 C   0  0  0  0  0  1  0  0  0  0  0  0
  161.7760  206.8610  151.1920 C   0  0  2  0  0  3  0  0  0  0  0  0
  161.2210  206.3750  153.6060 C   0  0  0  0  0  1  0  0  0  0  0  0
  160.8790  207.2170  152.3870 C   0  0  1  0  0  3  0  0  0  0  0  0
  161.0620  208.6520  152.7520 C   0  0  0  0  0  3  0  0  0  0  0  0
  160.5870  209.4640  155.1120 O   0  0  0  0  0  0  0  0  0  0  0  0
  160.8160  209.0660  153.9640 C   0  0  0  0  0  0  0  0  0  0  0  0
  160.8790  207.3720  148.9950 O   0  0  0  0  0  0  0  0  0  0  0  0
  162.0880  208.0680  149.0860 C   0  0  0  0  0  2  0  0  0  0  0  0
  161.9460  209.4520  148.4710 C   0  0  0  0  0  2  0  0  0  0  0  0
  162.0420  210.5450  149.5280 C   0  0  0  0  0  2  0  0  0  0  0  0
  163.0770  212.2540  148.0320 O   0  0  0  0  0  0  0  0  0  0  0  0
  162.0540  211.8980  148.9000 C   0  0  0  0  0  0  0  0  0  0  0  0
  161.1420  212.7230  149.1670 O   0  0  0  0  0  1  0  0  0  0  0  0
  1  4  1  0  0  0  0
  2  7  1  1  0  0  0
  2 10  1  0  0  0  0
  3  5  1  0  0  0  0
  4 11  1  0  0  0  0
  4 16  1  6  0  0  0
  5 12  1  0  0  0  0
  6  9  1  0  0  0  0
  6  2  1  0  0  0  0
  8 11  1  0  0  0  0
  8  3  1  1  0  0  0
  9 14  1  0  0  0  0
 10 15  1  0  0  0  0
 10  1  1  6  0  0  0
 11 13  1  1  0  0  0
 13 12  1  0  0  0  0
 15 14  1  6  0  0  0
 15  8  1  0  0  0  0
 16 24  1  6  0  0  0
 16 18  1  0  0  0  0
 18 17  1  1  0  0  0
 18 20  1  0  0  0  0
 20 21  1  0  0  0  0
 20 19  1  1  0  0  0
 21 23  2  0  0  0  0
 23 22  2  0  0  0  0
 24 25  1  0  0  0  0
 26 25  1  0  0  0  0
 26 27  1  0  0  0  0
 28 29  2  0  0  0  0
 29 30  1  0  0  0  0
 29 27  1  0  0  0  0
M  END
>  <MODEL>
2

>  <REMARK>
 VINA RESULT:      -6.7      1.905      3.897
  Name = 
  9 active torsions:
  status: ('A' for Active; 'I' for Inactive)
    1  A    between atoms: C_4  and  C_13
    2  A    between atoms: C_5  and  C_12
    3  A    between atoms: C_7  and  C_15
    4  A    between atoms: C_7  and  C_16
    5  A    between atoms: C_8  and  C_12
    6  A    between atoms: C_8  and  C_13
    7  A    between atoms: C_13  and  O_27
    8  A    between atoms: C_16  and  C_30
    9  A    between atoms: O_27  and  C_30
                            x       y       z     vdW  Elec       q    Type
                         _______ _______ _______ _____ _____    ______ ____

>  <TORSDO>
F 9

$$$$
=
 OpenBabel11052421573D

 30 32  0  0  1  0  0  0  0  0999 V2000
  161.2550  204.5760  147.4390 O   0  0  0  0  0  0  0  0  0  0  0  0
  162.5020  204.7790  145.3830 C   0  0  1  0  0  3  0  0  0  0  0  0
  161.8230  200.7840  147.5440 C   0  0  0  0  0  2  0  0  0  0  0  0
  161.0980  203.7770  148.5840 C   0  0  2  0  0  3  0  0  0  0  0  0
  161.3160  200.0540  148.6340 O   0  0  0  0  0  0  0  0  0  0  0  0
  161.3980  204.9080  144.3190 C   0  0  0  0  0  2  0  0  0  0  0  0
  162.8710  206.0390  145.8520 O   0  0  0  0  0  1  0  0  0  0  0  0
  160.7480  201.7660  147.0720 C   0  0  1  0  0  3  0  0  0  0  0  0
  160.1500  204.5020  144.8270 O   0  0  0  0  0  0  0  0  0  0  0  0
  162.0750  203.8650  146.5420 C   0  0  2  0  0  3  0  0  0  0  0  0
  160.1870  202.5670  148.2690 C   0  0  1  0  0  3  0  0  0  0  0  0
  161.2460  200.9100  149.6450 O   0  0  0  0  0  0  0  0  0  0  0  0
  160.0430  201.6190  149.4670 C   0  0  0  0  0  2  0  0  0  0  0  0
  160.2000  203.0990  144.9840 C   0  0  0  0  0  2  0  0  0  0  0  0
  161.3050  202.6610  145.9670 C   0  0  2  0  0  3  0  0  0  0  0  0
  160.6420  204.6550  149.7720 C   0  0  1  0  0  3  0  0  0  0  0  0
  162.4130  203.4050  151.1190 C   0  0  0  0  0  1  0  0  0  0  0  0
  161.5080  204.6300  151.0470 C   0  0  2  0  0  3  0  0  0  0  0  0
  160.2830  203.5030  152.9450 C   0  0  0  0  0  1  0  0  0  0  0  0
  160.6760  204.8340  152.3220 C   0  0  1  0  0  3  0  0  0  0  0  0
  161.4670  205.5980  153.3300 C   0  0  0  0  0  3  0  0  0  0  0  0
  160.3720  207.3960  154.7510 O   0  0  0  0  0  0  0  0  0  0  0  0
  160.9020  206.5210  154.0570 C   0  0  0  0  0  0  0  0  0  0  0  0
  160.3610  205.9650  149.3750 O   0  0  0  0  0  0  0  0  0  0  0  0
  161.5150  206.6880  149.6880 C   0  0  0  0  0  2  0  0  0  0  0  0
  161.1460  208.0290  150.3040 C   0  0  0  0  0  2  0  0  0  0  0  0
  162.2510  208.5500  151.2130 C   0  0  0  0  0  2  0  0  0  0  0  0
  160.3530  209.7290  152.3270 O   0  0  0  0  0  0  0  0  0  0  0  0
  161.7230  209.5650  152.1700 C   0  0  0  0  0  0  0  0  0  0  0  0
  162.5190  210.2850  152.8270 O   0  0  0  0  0  1  0  0  0  0  0  0
  1  4  1  0  0  0  0
  2  7  1  1  0  0  0
  2 10  1  0  0  0  0
  3  5  1  0  0  0  0
  4 16  1  1  0  0  0
  5 12  1  0  0  0  0
  6  9  1  0  0  0  0
  6  2  1  0  0  0  0
  8  3  1  1  0  0  0
  8 11  1  0  0  0  0
  9 14  1  0  0  0  0
 10  1  1  1  0  0  0
 11  4  1  0  0  0  0
 11 13  1  1  0  0  0
 13 12  1  0  0  0  0
 15 14  1  1  0  0  0
 15 10  1  0  0  0  0
 15  8  1  0  0  0  0
 16 24  1  6  0  0  0
 16 18  1  0  0  0  0
 18 17  1  1  0  0  0
 18 20  1  0  0  0  0
 20 19  1  1  0  0  0
 20 21  1  0  0  0  0
 21 23  2  0  0  0  0
 23 22  2  0  0  0  0
 24 25  1  0  0  0  0
 25 26  1  0  0  0  0
 26 27  1  0  0  0  0
 27 29  1  0  0  0  0
 29 28  2  0  0  0  0
 29 30  1  0  0  0  0
M  END
>  <MODEL>
3

>  <REMARK>
 VINA RESULT:      -6.5      0.916      2.744
  Name = 
  9 active torsions:
  status: ('A' for Active; 'I' for Inactive)
    1  A    between atoms: C_4  and  C_13
    2  A    between atoms: C_5  and  C_12
    3  A    between atoms: C_7  and  C_15
    4  A    between atoms: C_7  and  C_16
    5  A    between atoms: C_8  and  C_12
    6  A    between atoms: C_8  and  C_13
    7  A    between atoms: C_13  and  O_27
    8  A    between atoms: C_16  and  C_30
    9  A    between atoms: O_27  and  C_30
                            x       y       z     vdW  Elec       q    Type
                         _______ _______ _______ _____ _____    ______ ____

>  <TORSDO>
F 9

$$$$
=
 OpenBabel11052421573D

 30 32  0  0  1  0  0  0  0  0999 V2000
  160.9380  209.6140  151.8370 O   0  0  0  0  0  0  0  0  0  0  0  0
  159.3860  210.8300  153.2280 C   0  0  1  0  0  3  0  0  0  0  0  0
  160.5230  206.4390  153.9490 C   0  0  0  0  0  2  0  0  0  0  0  0
  161.2950  208.3220  151.4150 C   0  0  2  0  0  3  0  0  0  0  0  0
  161.2150  205.2760  153.5640 O   0  0  0  0  0  0  0  0  0  0  0  0
  160.3080  211.6850  154.1130 C   0  0  0  0  0  2  0  0  0  0  0  0
  159.0490  211.5250  152.0670 O   0  0  0  0  0  1  0  0  0  0  0  0
  161.4790  207.6300  153.8520 C   0  0  1  0  0  3  0  0  0  0  0  0
  161.6330  211.2090  154.0780 O   0  0  0  0  0  0  0  0  0  0  0  0
  160.0150  209.4690  152.8900 C   0  0  2  0  0  3  0  0  0  0  0  0
  162.1880  207.6420  152.4780 C   0  0  1  0  0  3  0  0  0  0  0  0
  161.4100  205.3830  152.2570 O   0  0  0  0  0  0  0  0  0  0  0  0
  162.5470  206.1980  152.1010 C   0  0  0  0  0  2  0  0  0  0  0  0
  161.6550  209.9840  154.7810 C   0  0  0  0  0  2  0  0  0  0  0  0
  160.7290  208.9290  154.1440 C   0  0  2  0  0  3  0  0  0  0  0  0
  161.8970  208.3890  149.9920 C   0  0  1  0  0  3  0  0  0  0  0  0
  162.9060  207.1820  147.9840 C   0  0  0  0  0  1  0  0  0  0  0  0
  161.9940  207.0700  149.2000 C   0  0  2  0  0  3  0  0  0  0  0  0
  160.3820  206.4550  147.3580 C   0  0  0  0  0  1  0  0  0  0  0  0
  160.6140  206.4890  148.8600 C   0  0  1  0  0  3  0  0  0  0  0  0
  160.5090  205.0920  149.3730 C   0  0  0  0  0  3  0  0  0  0  0  0
  161.5590  203.1580  148.1040 O   0  0  0  0  0  0  0  0  0  0  0  0
  161.0470  204.1010  148.7190 C   0  0  0  0  0  0  0  0  0  0  0  0
  161.3130  209.4010  149.2240 O   0  0  0  0  0  0  0  0  0  0  0  0
  162.3780  210.2240  148.8510 C   0  0  0  0  0  2  0  0  0  0  0  0
  161.9370  211.6800  148.8330 C   0  0  0  0  0  2  0  0  0  0  0  0
  162.8430  212.5290  147.9510 C   0  0  0  0  0  2  0  0  0  0  0  0
  160.7450  213.2670  146.8210 O   0  0  0  0  0  1  0  0  0  0  0  0
  162.1110  213.0270  146.7520 C   0  0  0  0  0  0  0  0  0  0  0  0
  162.7270  213.2170  145.6720 O   0  0  0  0  0  0  0  0  0  0  0  0
  2  7  1  6  0  0  0
  2  6  1  0  0  0  0
  4 16  1  6  0  0  0
  4  1  1  0  0  0  0
  4 11  1  0  0  0  0
  5  3  1  0  0  0  0
  8  3  1  6  0  0  0
  8 15  1  0  0  0  0
  9  6  1  0  0  0  0
  9 14  1  0  0  0  0
 10  1  1  6  0  0  0
 10  2  1  0  0  0  0
 10 15  1  0  0  0  0
 11 13  1  6  0  0  0
 11  8  1  0  0  0  0
 12  5  1  0  0  0  0
 13 12  1  0  0  0  0
 15 14  1  6  0  0  0
 16 24  1  6  0  0  0
 18 17  1  6  0  0  0
 18 16  1  0  0  0  0
 20 19  1  6  0  0  0
 20 18  1  0  0  0  0
 20 21  1  0  0  0  0
 22 23  2  0  0  0  0
 23 21  2  0  0  0  0
 25 24  1  0  0  0  0
 26 25  1  0  0  0  0
 27 26  1  0  0  0  0
 29 28  1  0  0  0  0
 29 27  1  0  0  0  0
 30 29  2  0  0  0  0
M  END
>  <MODEL>
4

>  <REMARK>
 VINA RESULT:      -6.4      2.978      7.904
  Name = 
  9 active torsions:
  status: ('A' for Active; 'I' for Inactive)
    1  A    between atoms: C_4  and  C_13
    2  A    between atoms: C_5  and  C_12
    3  A    between atoms: C_7  and  C_15
    4  A    between atoms: C_7  and  C_16
    5  A    between atoms: C_8  and  C_12
    6  A    between atoms: C_8  and  C_13
    7  A    between atoms: C_13  and  O_27
    8  A    between atoms: C_16  and  C_30
    9  A    between atoms: O_27  and  C_30
                            x       y       z     vdW  Elec       q    Type
                         _______ _______ _______ _____ _____    ______ ____

>  <TORSDO>
F 9

$$$$
=
 OpenBabel11052421573D

 30 32  0  0  1  0  0  0  0  0999 V2000
  161.2540  208.7630  150.7250 O   0  0  0  0  0  0  0  0  0  0  0  0
  162.5650  207.9410  148.8730 C   0  0  1  0  0  3  0  0  0  0  0  0
  162.3930  205.8660  152.9670 C   0  0  0  0  0  2  0  0  0  0  0  0
  161.1600  208.7540  152.1260 C   0  0  2  0  0  3  0  0  0  0  0  0
  161.9460  205.8270  154.2990 O   0  0  0  0  0  0  0  0  0  0  0  0
  161.5150  207.2600  147.9780 C   0  0  0  0  0  2  0  0  0  0  0  0
  162.7100  209.2810  148.5140 O   0  0  0  0  0  1  0  0  0  0  0  0
  161.2070  206.2150  152.0640 C   0  0  1  0  0  3  0  0  0  0  0  0
  160.3190  207.0290  148.6830 O   0  0  0  0  0  0  0  0  0  0  0  0
  162.2220  207.8060  150.3640 C   0  0  2  0  0  3  0  0  0  0  0  0
  160.4650  207.4580  152.6050 C   0  0  1  0  0  3  0  0  0  0  0  0
  161.6880  207.0840  154.6350 O   0  0  0  0  0  0  0  0  0  0  0  0
  160.4020  207.3620  154.1360 C   0  0  0  0  0  2  0  0  0  0  0  0
  160.5760  206.0010  149.6160 C   0  0  0  0  0  2  0  0  0  0  0  0
  161.6800  206.3870  150.6210 C   0  0  2  0  0  3  0  0  0  0  0  0
  160.5090  210.0700  152.6110 C   0  0  1  0  0  3  0  0  0  0  0  0
  162.5230  210.3630  154.1510 C   0  0  0  0  0  1  0  0  0  0  0  0
  161.0550  210.6950  153.9100 C   0  0  2  0  0  3  0  0  0  0  0  0
  160.9970  210.1850  156.3820 C   0  0  0  0  0  1  0  0  0  0  0  0
  160.1660  210.3890  155.1240 C   0  0  1  0  0  3  0  0  0  0  0  0
  159.2310  211.5250  155.3710 C   0  0  0  0  0  3  0  0  0  0  0  0
  160.0790  213.7280  156.3090 O   0  0  0  0  0  0  0  0  0  0  0  0
  159.6690  212.6540  155.8540 C   0  0  0  0  0  0  0  0  0  0  0  0
  160.4230  211.0190  151.5880 O   0  0  0  0  0  0  0  0  0  0  0  0
  159.4060  211.8870  151.9930 C   0  0  0  0  0  2  0  0  0  0  0  0
  159.7060  213.3030  151.5240 C   0  0  0  0  0  2  0  0  0  0  0  0
  158.8870  213.6690  150.2930 C   0  0  0  0  0  2  0  0  0  0  0  0
  159.2480  214.2430  147.8910 O   0  0  0  0  0  0  0  0  0  0  0  0
  159.7410  213.7030  149.0710 C   0  0  0  0  0  0  0  0  0  0  0  0
  160.9060  213.2270  149.1040 O   0  0  0  0  0  1  0  0  0  0  0  0
  1  4  1  0  0  0  0
  2  7  1  6  0  0  0
  2 10  1  0  0  0  0
  3  5  1  0  0  0  0
  4 11  1  0  0  0  0
  4 16  1  6  0  0  0
  5 12  1  0  0  0  0
  6  9  1  0  0  0  0
  6  2  1  0  0  0  0
  8 11  1  0  0  0  0
  8  3  1  1  0  0  0
  9 14  1  0  0  0  0
 10 15  1  0  0  0  0
 10  1  1  6  0  0  0
 11 13  1  1  0  0  0
 13 12  1  0  0  0  0
 15 14  1  6  0  0  0
 15  8  1  0  0  0  0
 16 24  1  6  0  0  0
 16 18  1  0  0  0  0
 18 17  1  1  0  0  0
 18 20  1  0  0  0  0
 20 21  1  0  0  0  0
 20 19  1  1  0  0  0
 21 23  2  0  0  0  0
 23 22  2  0  0  0  0
 24 25  1  0  0  0  0
 26 25  1  0  0  0  0
 27 26  1  0  0  0  0
 28 29  2  0  0  0  0
 29 30  1  0  0  0  0
 29 27  1  0  0  0  0
M  END
>  <MODEL>
5

>  <REMARK>
 VINA RESULT:      -5.0      3.547      6.961
  Name = 
  9 active torsions:
  status: ('A' for Active; 'I' for Inactive)
    1  A    between atoms: C_4  and  C_13
    2  A    between atoms: C_5  and  C_12
    3  A    between atoms: C_7  and  C_15
    4  A    between atoms: C_7  and  C_16
    5  A    between atoms: C_8  and  C_12
    6  A    between atoms: C_8  and  C_13
    7  A    between atoms: C_13  and  O_27
    8  A    between atoms: C_16  and  C_30
    9  A    between atoms: O_27  and  C_30
                            x       y       z     vdW  Elec       q    Type
                         _______ _______ _______ _____ _____    ______ ____

>  <TORSDO>
F 9

$$$$
=
 OpenBabel11052421573D

 30 32  0  0  1  0  0  0  0  0999 V2000
  160.0640  212.4340  150.9930 O   0  0  0  0  0  0  0  0  0  0  0  0
  158.7760  214.4290  151.4250 C   0  0  1  0  0  3  0  0  0  0  0  0
  161.9480  214.1350  148.1170 C   0  0  0  0  0  2  0  0  0  0  0  0
  161.2760  211.9750  150.4500 C   0  0  2  0  0  3  0  0  0  0  0  0
  162.9490  213.4130  147.4440 O   0  0  0  0  0  0  0  0  0  0  0  0
  157.4170  214.1130  150.7760 C   0  0  0  0  0  2  0  0  0  0  0  0
  158.7810  214.0200  152.7580 O   0  0  0  0  0  1  0  0  0  0  0  0
  160.7330  213.2240  148.3060 C   0  0  1  0  0  3  0  0  0  0  0  0
  157.5170  213.0240  149.8890 O   0  0  0  0  0  0  0  0  0  0  0  0
  159.9420  213.7950  150.6510 C   0  0  2  0  0  3  0  0  0  0  0  0
  161.1640  211.8690  148.9120 C   0  0  1  0  0  3  0  0  0  0  0  0
  163.3960  212.5140  148.3110 O   0  0  0  0  0  0  0  0  0  0  0  0
  162.4860  211.4410  148.2600 C   0  0  0  0  0  2  0  0  0  0  0  0
  158.2490  213.4660  148.7660 C   0  0  0  0  0  2  0  0  0  0  0  0
  159.6690  213.9360  149.1420 C   0  0  2  0  0  3  0  0  0  0  0  0
  161.7090  210.6780  151.1720 C   0  0  1  0  0  3  0  0  0  0  0  0
  162.7420  210.3120  153.4760 C   0  0  0  0  0  1  0  0  0  0  0  0
  161.4660  210.5960  152.6920 C   0  0  2  0  0  3  0  0  0  0  0  0
  160.8310  208.4140  153.7900 C   0  0  0  0  0  1  0  0  0  0  0  0
  160.3190  209.6390  153.0500 C   0  0  1  0  0  3  0  0  0  0  0  0
  159.3340  210.3310  153.9310 C   0  0  0  0  0  3  0  0  0  0  0  0
  159.6230  210.3310  156.4550 O   0  0  0  0  0  0  0  0  0  0  0  0
  159.4840  210.3280  155.2270 C   0  0  0  0  0  0  0  0  0  0  0  0
  161.2380  209.5350  150.5200 O   0  0  0  0  0  0  0  0  0  0  0  0
  162.3310  208.6650  150.4940 C   0  0  0  0  0  2  0  0  0  0  0  0
  162.2100  207.7040  149.3200 C   0  0  0  0  0  2  0  0  0  0  0  0
  160.8630  206.9920  149.3170 C   0  0  0  0  0  2  0  0  0  0  0  0
  161.2060  204.6290  148.5900 O   0  0  0  0  0  1  0  0  0  0  0  0
  160.8230  205.9260  148.2740 C   0  0  0  0  0  0  0  0  0  0  0  0
  160.4560  206.2040  147.1030 O   0  0  0  0  0  0  0  0  0  0  0  0
  2  7  1  1  0  0  0
  4  1  1  0  0  0  0
  4 16  1  1  0  0  0
  5  3  1  0  0  0  0
  5 12  1  0  0  0  0
  6  2  1  0  0  0  0
  8  3  1  1  0  0  0
  8 11  1  0  0  0  0
  8 15  1  0  0  0  0
  9  6  1  0  0  0  0
 10  1  1  1  0  0  0
 10  2  1  0  0  0  0
 11 13  1  6  0  0  0
 11  4  1  0  0  0  0
 13 12  1  0  0  0  0
 14  9  1  0  0  0  0
 15 14  1  1  0  0  0
 15 10  1  0  0  0  0
 16 24  1  6  0  0  0
 16 18  1  0  0  0  0
 18 20  1  0  0  0  0
 18 17  1  1  0  0  0
 20 19  1  1  0  0  0
 20 21  1  0  0  0  0
 21 23  2  0  0  0  0
 23 22  2  0  0  0  0
 25 24  1  0  0  0  0
 26 25  1  0  0  0  0
 27 26  1  0  0  0  0
 29 28  1  0  0  0  0
 29 27  1  0  0  0  0
 30 29  2  0  0  0  0
M  END
>  <MODEL>
6

>  <REMARK>
 VINA RESULT:      -5.0      3.999      8.875
  Name = 
  9 active torsions:
  status: ('A' for Active; 'I' for Inactive)
    1  A    between atoms: C_4  and  C_13
    2  A    between atoms: C_5  and  C_12
    3  A    between atoms: C_7  and  C_15
    4  A    between atoms: C_7  and  C_16
    5  A    between atoms: C_8  and  C_12
    6  A    between atoms: C_8  and  C_13
    7  A    between atoms: C_13  and  O_27
    8  A    between atoms: C_16  and  C_30
    9  A    between atoms: O_27  and  C_30
                            x       y       z     vdW  Elec       q    Type
                         _______ _______ _______ _____ _____    ______ ____

>  <TORSDO>
F 9

$$$$
=
 OpenBabel11052421573D

 30 32  0  0  1  0  0  0  0  0999 V2000
  158.5660  212.2750  154.9700 O   0  0  0  0  0  0  0  0  0  0  0  0
  157.1800  213.9060  156.0850 C   0  0  1  0  0  3  0  0  0  0  0  0
  158.7910  214.4520  151.8190 C   0  0  0  0  0  2  0  0  0  0  0  0
  159.5330  212.1230  153.9620 C   0  0  2  0  0  3  0  0  0  0  0  0
  159.5720  214.0000  150.7410 O   0  0  0  0  0  0  0  0  0  0  0  0
  155.7680  213.3060  155.9600 C   0  0  0  0  0  2  0  0  0  0  0  0
  157.7890  213.4670  157.2610 O   0  0  0  0  0  1  0  0  0  0  0  0
  157.9560  213.2810  152.3420 C   0  0  1  0  0  3  0  0  0  0  0  0
  155.7280  212.2980  154.9790 O   0  0  0  0  0  0  0  0  0  0  0  0
  158.0510  213.5810  154.8620 C   0  0  2  0  0  3  0  0  0  0  0  0
  158.8520  212.0430  152.5770 C   0  0  1  0  0  3  0  0  0  0  0  0
  160.4920  213.2020  151.2640 O   0  0  0  0  0  0  0  0  0  0  0  0
  159.8690  211.9510  151.4310 C   0  0  0  0  0  2  0  0  0  0  0  0
  155.8570  212.9310  153.7240 C   0  0  0  0  0  2  0  0  0  0  0  0
  157.1870  213.7020  153.5920 C   0  0  2  0  0  3  0  0  0  0  0  0
  160.4640  210.9390  154.3110 C   0  0  1  0  0  3  0  0  0  0  0  0
  160.8640  212.0530  156.5710 C   0  0  0  0  0  1  0  0  0  0  0  0
  160.8400  210.7430  155.7930 C   0  0  2  0  0  3  0  0  0  0  0  0
  163.2250  210.7450  156.6170 C   0  0  0  0  0  1  0  0  0  0  0  0
  162.1260  209.9210  155.9650 C   0  0  1  0  0  3  0  0  0  0  0  0
  161.8620  208.7370  156.8340 C   0  0  0  0  0  3  0  0  0  0  0  0
  159.7480  207.3580  156.5460 O   0  0  0  0  0  0  0  0  0  0  0  0
  160.7750  208.0320  156.6850 C   0  0  0  0  0  0  0  0  0  0  0  0
  160.0250  209.7430  153.7360 O   0  0  0  0  0  0  0  0  0  0  0  0
  161.1820  209.1480  153.2250 C   0  0  0  0  0  2  0  0  0  0  0  0
  160.8750  208.4380  151.9150 C   0  0  0  0  0  2  0  0  0  0  0  0
  162.1440  207.9260  151.2460 C   0  0  0  0  0  2  0  0  0  0  0  0
  162.3790  207.2980  148.8420 O   0  0  0  0  0  0  0  0  0  0  0  0
  162.1670  208.2830  149.7980 C   0  0  0  0  0  0  0  0  0  0  0  0
  162.0090  209.4790  149.4420 O   0  0  0  0  0  1  0  0  0  0  0  0
  2  7  1  1  0  0  0
  4 16  1  1  0  0  0
  4  1  1  0  0  0  0
  5 12  1  0  0  0  0
  5  3  1  0  0  0  0
  6  2  1  0  0  0  0
  8  3  1  1  0  0  0
  8 11  1  0  0  0  0
  8 15  1  0  0  0  0
  9  6  1  0  0  0  0
 10  1  1  1  0  0  0
 10  2  1  0  0  0  0
 11 13  1  6  0  0  0
 11  4  1  0  0  0  0
 12 13  1  0  0  0  0
 14  9  1  0  0  0  0
 15 14  1  1  0  0  0
 15 10  1  0  0  0  0
 16 24  1  1  0  0  0
 16 18  1  0  0  0  0
 18 20  1  0  0  0  0
 18 17  1  6  0  0  0
 20 19  1  1  0  0  0
 20 21  1  0  0  0  0
 22 23  2  0  0  0  0
 23 21  2  0  0  0  0
 25 24  1  0  0  0  0
 26 25  1  0  0  0  0
 27 26  1  0  0  0  0
 28 29  2  0  0  0  0
 29 27  1  0  0  0  0
 30 29  1  0  0  0  0
M  END
>  <MODEL>
7

>  <REMARK>
 VINA RESULT:      -4.9      4.926     10.468
  Name = 
  9 active torsions:
  status: ('A' for Active; 'I' for Inactive)
    1  A    between atoms: C_4  and  C_13
    2  A    between atoms: C_5  and  C_12
    3  A    between atoms: C_7  and  C_15
    4  A    between atoms: C_7  and  C_16
    5  A    between atoms: C_8  and  C_12
    6  A    between atoms: C_8  and  C_13
    7  A    between atoms: C_13  and  O_27
    8  A    between atoms: C_16  and  C_30
    9  A    between atoms: O_27  and  C_30
                            x       y       z     vdW  Elec       q    Type
                         _______ _______ _______ _____ _____    ______ ____

>  <TORSDO>
F 9

$$$$
=
 OpenBabel11052421573D

 30 32  0  0  1  0  0  0  0  0999 V2000
  160.6800  209.7730  152.3000 O   0  0  0  0  0  0  0  0  0  0  0  0
  159.2620  210.7420  153.9960 C   0  0  1  0  0  3  0  0  0  0  0  0
  160.5120  206.3230  153.9690 C   0  0  0  0  0  2  0  0  0  0  0  0
  161.0060  208.5620  151.6660 C   0  0  2  0  0  3  0  0  0  0  0  0
  161.1750  205.2440  153.3580 O   0  0  0  0  0  0  0  0  0  0  0  0
  160.2590  211.4870  154.8990 C   0  0  0  0  0  2  0  0  0  0  0  0
  158.8030  211.5850  152.9840 O   0  0  0  0  0  1  0  0  0  0  0  0
  161.4410  207.5390  153.9500 C   0  0  1  0  0  3  0  0  0  0  0  0
  161.5790  211.0540  154.6670 O   0  0  0  0  0  0  0  0  0  0  0  0
  159.8690  209.4590  153.4070 C   0  0  2  0  0  3  0  0  0  0  0  0
  162.0080  207.7620  152.5290 C   0  0  1  0  0  3  0  0  0  0  0  0
  161.2360  205.5370  152.0660 O   0  0  0  0  0  0  0  0  0  0  0  0
  162.3430  206.3950  151.9170 C   0  0  0  0  0  2  0  0  0  0  0  0
  161.6850  209.7430  155.1820 C   0  0  0  0  0  2  0  0  0  0  0  0
  160.7100  208.7650  154.4960 C   0  0  2  0  0  3  0  0  0  0  0  0
  161.4610  208.8430  150.2150 C   0  0  1  0  0  3  0  0  0  0  0  0
  162.9020  210.6630  151.2740 C   0  0  0  0  0  1  0  0  0  0  0  0
  162.3600  210.0720  149.9780 C   0  0  2  0  0  3  0  0  0  0  0  0
  160.9390  212.1570  149.8980 C   0  0  0  0  0  1  0  0  0  0  0  0
  161.6910  211.1210  149.0770 C   0  0  1  0  0  3  0  0  0  0  0  0
  162.7230  211.8350  148.2710 C   0  0  0  0  0  3  0  0  0  0  0  0
  162.0820  213.7720  146.7570 O   0  0  0  0  0  0  0  0  0  0  0  0
  162.3910  212.8270  147.4940 C   0  0  0  0  0  0  0  0  0  0  0  0
  161.9890  207.7020  149.6030 O   0  0  0  0  0  0  0  0  0  0  0  0
  161.3630  207.6470  148.3550 C   0  0  0  0  0  2  0  0  0  0  0  0
  161.7630  206.3740  147.6220 C   0  0  0  0  0  2  0  0  0  0  0  0
  161.5670  205.1420  148.4960 C   0  0  0  0  0  2  0  0  0  0  0  0
  161.1360  202.6990  148.2190 O   0  0  0  0  0  1  0  0  0  0  0  0
  161.5830  203.8960  147.6760 C   0  0  0  0  0  0  0  0  0  0  0  0
  162.0170  203.9260  146.4950 O   0  0  0  0  0  0  0  0  0  0  0  0
  2  7  1  6  0  0  0
  2  6  1  0  0  0  0
  4 16  1  6  0  0  0
  4  1  1  0  0  0  0
  4 11  1  0  0  0  0
  5  3  1  0  0  0  0
  8  3  1  6  0  0  0
  8 15  1  0  0  0  0
  9  6  1  0  0  0  0
  9 14  1  0  0  0  0
 10  1  1  6  0  0  0
 10  2  1  0  0  0  0
 10 15  1  0  0  0  0
 11 13  1  6  0  0  0
 11  8  1  0  0  0  0
 12  5  1  0  0  0  0
 13 12  1  0  0  0  0
 15 14  1  6  0  0  0
 16 24  1  1  0  0  0
 18 16  1  0  0  0  0
 18 17  1  1  0  0  0
 20 19  1  1  0  0  0
 20 18  1  0  0  0  0
 21 20  1  0  0  0  0
 22 23  2  0  0  0  0
 23 21  2  0  0  0  0
 25 24  1  0  0  0  0
 26 25  1  0  0  0  0
 26 27  1  0  0  0  0
 29 28  1  0  0  0  0
 29 27  1  0  0  0  0
 30 29  2  0  0  0  0
M  END
>  <MODEL>
8

>  <REMARK>
 VINA RESULT:      -4.9      2.788      7.714
  Name = 
  9 active torsions:
  status: ('A' for Active; 'I' for Inactive)
    1  A    between atoms: C_4  and  C_13
    2  A    between atoms: C_5  and  C_12
    3  A    between atoms: C_7  and  C_15
    4  A    between atoms: C_7  and  C_16
    5  A    between atoms: C_8  and  C_12
    6  A    between atoms: C_8  and  C_13
    7  A    between atoms: C_13  and  O_27
    8  A    between atoms: C_16  and  C_30
    9  A    between atoms: O_27  and  C_30
                            x       y       z     vdW  Elec       q    Type
                         _______ _______ _______ _____ _____    ______ ____

>  <TORSDO>
F 9

$$$$
=
 OpenBabel11052421573D

 30 32  0  0  1  0  0  0  0  0999 V2000
  161.2180  208.6070  150.5350 O   0  0  0  0  0  0  0  0  0  0  0  0
  162.5220  207.6920  148.7210 C   0  0  1  0  0  3  0  0  0  0  0  0
  162.3960  205.8480  152.9250 C   0  0  0  0  0  2  0  0  0  0  0  0
  161.1350  208.6750  151.9360 C   0  0  2  0  0  3  0  0  0  0  0  0
  161.9590  205.8790  154.2610 O   0  0  0  0  0  0  0  0  0  0  0  0
  161.4700  206.9560  147.8740 C   0  0  0  0  0  2  0  0  0  0  0  0
  162.6540  209.0110  148.2880 O   0  0  0  0  0  1  0  0  0  0  0  0
  161.2010  206.1370  152.0140 C   0  0  1  0  0  3  0  0  0  0  0  0
  160.2800  206.7560  148.6000 O   0  0  0  0  0  0  0  0  0  0  0  0
  162.1910  207.6390  150.2210 C   0  0  2  0  0  3  0  0  0  0  0  0
  160.4530  207.4030  152.4910 C   0  0  1  0  0  3  0  0  0  0  0  0
  161.6950  207.1510  154.5290 O   0  0  0  0  0  0  0  0  0  0  0  0
  160.4030  207.3920  154.0250 C   0  0  0  0  0  2  0  0  0  0  0  0
  160.5520  205.7830  149.5870 C   0  0  0  0  0  2  0  0  0  0  0  0
  161.6610  206.2320  150.5600 C   0  0  2  0  0  3  0  0  0  0  0  0
  160.4790  210.0120  152.3520 C   0  0  1  0  0  3  0  0  0  0  0  0
  158.7280  210.7020  154.0740 C   0  0  0  0  0  1  0  0  0  0  0  0
  160.1510  210.2070  153.8450 C   0  0  2  0  0  3  0  0  0  0  0  0
  160.5540  212.0630  155.5080 C   0  0  0  0  0  1  0  0  0  0  0  0
  161.2040  211.0600  154.5680 C   0  0  1  0  0  3  0  0  0  0  0  0
  162.1000  210.1850  155.3790 C   0  0  0  0  0  3  0  0  0  0  0  0
  163.8270  211.1890  156.9480 O   0  0  0  0  0  0  0  0  0  0  0  0
  162.9860  210.7030  156.1820 C   0  0  0  0  0  0  0  0  0  0  0  0
  161.1650  211.1150  151.8350 O   0  0  0  0  0  0  0  0  0  0  0  0
  160.1640  211.9580  151.3440 C   0  0  0  0  0  2  0  0  0  0  0  0
  160.7770  213.0610  150.4940 C   0  0  0  0  0  2  0  0  0  0  0  0
  160.2980  212.9860  149.0500 C   0  0  0  0  0  2  0  0  0  0  0  0
  162.6310  212.2030  148.6360 O   0  0  0  0  0  1  0  0  0  0  0  0
  161.4260  212.6690  148.1270 C   0  0  0  0  0  0  0  0  0  0  0  0
  161.2910  212.8370  146.8880 O   0  0  0  0  0  0  0  0  0  0  0  0
  1  4  1  0  0  0  0
  2  7  1  6  0  0  0
  2 10  1  0  0  0  0
  3  5  1  0  0  0  0
  4 16  1  6  0  0  0
  4 11  1  0  0  0  0
  5 12  1  0  0  0  0
  6  9  1  0  0  0  0
  6  2  1  0  0  0  0
  8 11  1  0  0  0  0
  8  3  1  1  0  0  0
  9 14  1  0  0  0  0
 10  1  1  6  0  0  0
 10 15  1  0  0  0  0
 11 13  1  1  0  0  0
 13 12  1  0  0  0  0
 15 14  1  6  0  0  0
 15  8  1  0  0  0  0
 16 24  1  1  0  0  0
 16 18  1  0  0  0  0
 18 17  1  6  0  0  0
 18 20  1  0  0  0  0
 20 21  1  0  0  0  0
 20 19  1  1  0  0  0
 21 23  2  0  0  0  0
 23 22  2  0  0  0  0
 25 24  1  0  0  0  0
 26 25  1  0  0  0  0
 27 26  1  0  0  0  0
 29 28  1  0  0  0  0
 29 27  1  0  0  0  0
 30 29  2  0  0  0  0
M  END
>  <MODEL>
9

>  <REMARK>
 VINA RESULT:      -4.9      3.372      6.761
  Name = 
  9 active torsions:
  status: ('A' for Active; 'I' for Inactive)
    1  A    between atoms: C_4  and  C_13
    2  A    between atoms: C_5  and  C_12
    3  A    between atoms: C_7  and  C_15
    4  A    between atoms: C_7  and  C_16
    5  A    between atoms: C_8  and  C_12
    6  A    between atoms: C_8  and  C_13
    7  A    between atoms: C_13  and  O_27
    8  A    between atoms: C_16  and  C_30
    9  A    between atoms: O_27  and  C_30
                            x       y       z     vdW  Elec       q    Type
                         _______ _______ _______ _____ _____    ______ ____

>  <TORSDO>
F 9

$$$$
