=
 OpenBabel11062409023D

 37 42  0  0  1  0  0  0  0  0999 V2000
  156.3160  213.8710  152.6380 C   0  0  0  0  0  2  0  0  0  0  0  0
  160.2710  211.7750  151.5600 C   0  0  1  0  0  3  0  0  0  0  0  0
  159.2630  210.0310  156.3850 C   0  0  2  0  0  3  0  0  0  0  0  0
  161.9540  209.6230  153.7040 C   0  0  1  0  0  3  0  0  0  0  0  0
  158.3780  213.3230  151.3110 C   0  0  2  0  0  3  0  0  0  0  0  0
  161.4560  211.5020  152.2440 O   0  0  0  0  0  0  0  0  0  0  0  0
  159.6260  213.0290  152.1470 C   0  0  1  0  0  3  0  0  0  0  0  0
  161.5220  210.1040  152.3040 C   0  0  1  0  0  3  0  0  0  0  0  0
  158.7720  213.5550  149.9610 O   0  0  0  0  0  0  0  0  0  0  0  0
  160.1550  208.7050  157.2590 S   0  0  0  0  0  0  0  0  0  0  0  0
  159.3150  212.7950  153.6190 C   0  0  0  0  0  2  0  0  0  0  0  0
  157.0050  212.3080  154.5570 C   0  0  0  0  0  2  0  0  0  0  0  0
  161.2960  210.8600  149.3240 C   0  0  0  0  0  2  0  0  0  0  0  0
  159.7320  212.7320  149.3460 C   0  0  0  0  0  3  0  0  0  0  0  0
  158.1790  211.7910  153.7410 C   0  0  2  0  0  3  0  0  0  0  0  0
  161.4130  208.6550  155.9540 C   0  0  0  0  0  2  0  0  0  0  0  0
  162.9050  210.6070  154.3880 C   0  0  0  0  0  1  0  0  0  0  0  0
  160.4960  211.8940  150.0640 C   0  0  0  0  0  0  0  0  0  0  0  0
  158.6210  210.3520  154.0000 C   0  0  0  0  0  2  0  0  0  0  0  0
  157.5080  214.4490  151.8640 C   0  0  0  0  0  2  0  0  0  0  0  0
  162.4820  209.5850  151.2220 C   0  0  2  0  0  3  0  0  0  0  0  0
  156.6070  213.7330  154.1360 C   0  0  0  0  0  2  0  0  0  0  0  0
  160.8080  209.1110  154.6240 C   0  0  1  0  0  0  0  0  0  0  0  0
  159.8010  210.2350  154.9710 C   0  0  2  0  0  3  0  0  0  0  0  0
  162.6250  210.5180  150.0030 C   0  0  0  0  0  2  0  0  0  0  0  0
  162.5000  207.1280  151.6830 C   0  0  0  0  0  3  0  0  0  0  0  0
  162.1670  208.1770  150.8180 C   0  0  0  0  0  0  0  0  0  0  0  0
  161.5550  207.8930  149.5880 C   0  0  0  0  0  3  0  0  0  0  0  0
  160.6200  206.2770  147.9300 C   0  0  0  0  0  1  0  0  0  0  0  0
  161.6050  205.5280  150.1010 C   0  0  0  0  0  3  0  0  0  0  0  0
  161.2730  206.5720  149.2310 C   0  0  0  0  0  0  0  0  0  0  0  0
  162.2190  205.8070  151.3260 C   0  0  0  0  0  3  0  0  0  0  0  0
  160.0970  207.9020  153.9780 C   0  0  0  0  0  2  0  0  0  0  0  0
  160.6880  206.5610  154.3970 C   0  0  0  0  0  1  0  0  0  0  0  0
  159.1590  211.2270  157.1280 O   0  0  0  0  0  0  0  0  0  0  0  0
  160.3780  211.9210  157.0480 C   0  0  0  0  0  2  0  0  0  0  0  0
  160.1290  213.2910  157.0040 O   0  0  0  0  0  1  0  0  0  0  0  0
  1 22  1  0  0  0  0
  2 18  1  6  0  0  0
  2  7  1  0  0  0  0
  2  6  1  0  0  0  0
  3 35  1  1  0  0  0
  3 10  1  0  0  0  0
  4 17  1  1  0  0  0
  4 23  1  0  0  0  0
  5 20  1  1  0  0  0
  5  7  1  0  0  0  0
  7 11  1  1  0  0  0
  8  6  1  1  0  0  0
  8  4  1  0  0  0  0
  9  5  1  0  0  0  0
 13 25  1  0  0  0  0
 13 18  1  0  0  0  0
 14  9  1  0  0  0  0
 14 18  2  0  0  0  0
 15 11  1  1  0  0  0
 15 19  1  0  0  0  0
 15 12  1  0  0  0  0
 16 10  1  0  0  0  0
 20  1  1  0  0  0  0
 21 27  1  6  0  0  0
 21  8  1  0  0  0  0
 22 12  1  0  0  0  0
 23 33  1  6  0  0  0
 23 24  1  0  0  0  0
 23 16  1  0  0  0  0
 24 19  1  6  0  0  0
 24  3  1  0  0  0  0
 25 21  1  0  0  0  0
 27 26  2  0  0  0  0
 28 27  1  0  0  0  0
 29 31  1  0  0  0  0
 30 32  2  0  0  0  0
 31 28  2  0  0  0  0
 31 30  1  0  0  0  0
 32 26  1  0  0  0  0
 33 34  1  0  0  0  0
 36 35  1  0  0  0  0
 37 36  1  0  0  0  0
M  END
>  <MODEL>
1

>  <REMARK>
 VINA RESULT:      -3.2      0.000      0.000
  Name = 
  4 active torsions:
  status: ('A' for Active; 'I' for Inactive)
    1  A    between atoms: O_1  and  C_5
    2  A    between atoms: O_1  and  C_12
    3  A    between atoms: C_6  and  C_31
    4  A    between atoms: C_11  and  C_33
                            x       y       z     vdW  Elec       q    Type
                         _______ _______ _______ _____ _____    ______ ____

>  <TORSDO>
F 4

$$$$
=
 OpenBabel11062409023D

 37 42  0  0  1  0  0  0  0  0999 V2000
  157.2560  214.2400  150.9880 C   0  0  0  0  0  2  0  0  0  0  0  0
  160.7680  211.3340  150.3400 C   0  0  1  0  0  3  0  0  0  0  0  0
  159.6190  210.7210  155.4040 C   0  0  2  0  0  3  0  0  0  0  0  0
  162.1240  209.3640  152.8580 C   0  0  1  0  0  3  0  0  0  0  0  0
  159.1560  213.1090  149.7970 C   0  0  2  0  0  3  0  0  0  0  0  0
  161.9090  210.9950  151.0680 O   0  0  0  0  0  0  0  0  0  0  0  0
  160.3610  212.7670  150.6780 C   0  0  1  0  0  3  0  0  0  0  0  0
  161.7390  209.6420  151.3910 C   0  0  1  0  0  3  0  0  0  0  0  0
  159.5450  213.0150  148.4280 O   0  0  0  0  0  0  0  0  0  0  0  0
  160.2990  209.4490  156.5160 S   0  0  0  0  0  0  0  0  0  0  0  0
  160.0570  212.8690  152.1660 C   0  0  0  0  0  2  0  0  0  0  0  0
  157.7260  212.9690  153.1710 C   0  0  0  0  0  2  0  0  0  0  0  0
  161.5580  209.8560  148.3210 C   0  0  0  0  0  2  0  0  0  0  0  0
  160.3340  211.9390  147.9840 C   0  0  0  0  0  3  0  0  0  0  0  0
  158.7720  212.1150  152.4710 C   0  0  2  0  0  3  0  0  0  0  0  0
  161.4920  208.9400  155.2490 C   0  0  0  0  0  2  0  0  0  0  0  0
  163.2470  210.2810  153.3480 C   0  0  0  0  0  1  0  0  0  0  0  0
  160.9660  211.1320  148.8500 C   0  0  0  0  0  0  0  0  0  0  0  0
  158.9720  210.6960  152.9990 C   0  0  0  0  0  2  0  0  0  0  0  0
  158.5050  214.4510  150.1240 C   0  0  0  0  0  2  0  0  0  0  0  0
  162.5660  208.7740  150.4310 C   0  0  2  0  0  3  0  0  0  0  0  0
  157.5630  214.3370  152.4870 C   0  0  0  0  0  2  0  0  0  0  0  0
  160.9340  209.2370  153.8550 C   0  0  1  0  0  0  0  0  0  0  0  0
  160.1420  210.5620  153.9790 C   0  0  2  0  0  3  0  0  0  0  0  0
  162.8300  209.4240  149.0580 C   0  0  0  0  0  2  0  0  0  0  0  0
  161.2020  207.0830  149.1950 C   0  0  0  0  0  3  0  0  0  0  0  0
  162.0060  207.3900  150.2990 C   0  0  0  0  0  0  0  0  0  0  0  0
  162.2630  206.4060  151.2650 C   0  0  0  0  0  3  0  0  0  0  0  0
  162.0060  204.0840  152.1450 C   0  0  0  0  0  1  0  0  0  0  0  0
  160.9280  204.8210  150.0150 C   0  0  0  0  0  3  0  0  0  0  0  0
  161.7270  205.1240  151.1220 C   0  0  0  0  0  0  0  0  0  0  0  0
  160.6650  205.8000  149.0530 C   0  0  0  0  0  3  0  0  0  0  0  0
  160.0120  208.0690  153.4460 C   0  0  0  0  0  2  0  0  0  0  0  0
  160.3800  206.7490  154.1110 C   0  0  0  0  0  1  0  0  0  0  0  0
  159.7400  212.0350  155.9080 O   0  0  0  0  0  0  0  0  0  0  0  0
  158.7420  212.2470  156.8740 C   0  0  0  0  0  2  0  0  0  0  0  0
  157.5760  211.5890  156.4880 O   0  0  0  0  0  1  0  0  0  0  0  0
  1 22  1  0  0  0  0
  2 18  1  6  0  0  0
  2  7  1  0  0  0  0
  2  6  1  0  0  0  0
  3 35  1  1  0  0  0
  3 10  1  0  0  0  0
  4 17  1  1  0  0  0
  4 23  1  0  0  0  0
  5 20  1  1  0  0  0
  5  7  1  0  0  0  0
  7 11  1  1  0  0  0
  8  6  1  6  0  0  0
  8  4  1  0  0  0  0
  9  5  1  0  0  0  0
 13 18  1  0  0  0  0
 13 25  1  0  0  0  0
 14  9  1  0  0  0  0
 14 18  2  0  0  0  0
 15 11  1  1  0  0  0
 15 19  1  0  0  0  0
 15 12  1  0  0  0  0
 16 10  1  0  0  0  0
 20  1  1  0  0  0  0
 21 27  1  6  0  0  0
 21  8  1  0  0  0  0
 22 12  1  0  0  0  0
 23 33  1  6  0  0  0
 23 24  1  0  0  0  0
 23 16  1  0  0  0  0
 24 19  1  6  0  0  0
 24  3  1  0  0  0  0
 25 21  1  0  0  0  0
 26 27  1  0  0  0  0
 27 28  2  0  0  0  0
 30 31  2  0  0  0  0
 31 28  1  0  0  0  0
 31 29  1  0  0  0  0
 32 26  2  0  0  0  0
 32 30  1  0  0  0  0
 33 34  1  0  0  0  0
 35 36  1  0  0  0  0
 37 36  1  0  0  0  0
M  END
>  <MODEL>
2

>  <REMARK>
 VINA RESULT:      -1.5      1.141      1.809
  Name = 
  4 active torsions:
  status: ('A' for Active; 'I' for Inactive)
    1  A    between atoms: O_1  and  C_5
    2  A    between atoms: O_1  and  C_12
    3  A    between atoms: C_6  and  C_31
    4  A    between atoms: C_11  and  C_33
                            x       y       z     vdW  Elec       q    Type
                         _______ _______ _______ _____ _____    ______ ____

>  <TORSDO>
F 4

$$$$
