=
 OpenBabel11062410023D

 43 49  0  0  1  0  0  0  0  0999 V2000
  161.0600  203.1780  148.8130 C   0  0  0  0  0  0  0  0  0  0  0  0
  161.2960  208.0570  150.4350 C   0  0  2  0  0  3  0  0  0  0  0  0
  160.7960  208.0630  153.1440 C   0  0  2  0  0  3  0  0  0  0  0  0
  161.0840  205.6010  148.9570 C   0  0  0  0  0  0  0  0  0  0  0  0
  161.4440  203.0910  150.1520 C   0  0  0  0  0  3  0  0  0  0  0  0
  160.8690  202.0190  148.0750 O   0  0  0  0  0  1  0  0  0  0  0  0
  161.4360  205.5180  150.3290 C   0  0  0  0  0  0  0  0  0  0  0  0
  160.8840  204.4290  148.2200 C   0  0  0  0  0  3  0  0  0  0  0  0
  161.6360  204.2550  150.9040 C   0  0  0  0  0  3  0  0  0  0  0  0
  161.1140  206.6820  152.5380 C   0  0  0  0  0  2  0  0  0  0  0  0
  161.7250  206.7600  151.1360 C   0  0  2  0  0  3  0  0  0  0  0  0
  161.6770  208.0340  148.9570 C   0  0  0  0  0  2  0  0  0  0  0  0
  161.8890  209.2700  151.1690 C   0  0  2  0  0  3  0  0  0  0  0  0
  161.7990  209.1370  152.7120 C   0  0  0  0  0  2  0  0  0  0  0  0
  160.8840  206.9250  148.2760 C   0  0  0  0  0  2  0  0  0  0  0  0
  161.3090  210.5980  150.6620 C   0  0  2  0  0  3  0  0  0  0  0  0
  159.5470  212.8890  150.0580 C   0  0  0  0  0  2  0  0  0  0  0  0
  160.4290  213.1910  148.8440 C   0  0  0  0  0  0  0  0  0  0  0  0
  159.5940  213.5290  147.7900 F   0  0  0  0  0  0  0  0  0  0  0  0
  162.5250  211.5060  149.6500 S   0  0  0  0  0  0  0  0  0  0  0  0
  160.3470  212.8740  151.3580 C   0  0  0  0  0  2  0  0  0  0  0  0
  160.7230  211.4590  151.7920 C   0  0  0  0  0  2  0  0  0  0  0  0
  161.2600  214.2660  149.1050 F   0  0  0  0  0  0  0  0  0  0  0  0
  161.2630  211.9760  148.4170 C   0  0  0  0  0  2  0  0  0  0  0  0
  160.6680  207.9850  154.6300 C   0  0  0  0  0  0  0  0  0  0  0  0
  159.8700  208.9610  155.3040 N   0  0  0  0  0  2  0  0  0  0  0  0
  160.9580  206.8800  155.2420 N   0  0  0  0  0  2  0  0  0  0  0  0
  160.3180  210.3290  155.5620 C   0  0  2  0  0  3  0  0  0  0  0  0
  161.8160  210.4630  155.3570 C   0  0  0  0  0  1  0  0  0  0  0  0
  159.9190  210.7730  156.9910 C   0  0  2  0  0  3  0  0  0  0  0  0
  158.5430  211.2910  157.1370 C   0  0  1  0  0  3  0  0  0  0  0  0
  159.8070  214.4500  156.1900 C   0  0  0  0  0  1  0  0  0  0  0  0
  159.6690  212.2300  157.1810 N   0  0  2  0  0  0  0  0  0  0  0  0
  157.8150  211.6030  155.8470 C   0  0  2  0  0  3  0  0  0  0  0  0
  158.3220  212.8000  155.3220 O   0  0  0  0  0  0  0  0  0  0  0  0
  159.5810  212.9770  155.9230 C   0  0  1  0  0  3  0  0  0  0  0  0
  155.9210  212.6220  157.0870 C   0  0  0  0  0  2  0  0  0  0  0  0
  156.3630  211.6520  156.0680 N   0  0  1  0  0  0  0  0  0  0  0  0
  154.9780  213.3090  153.0930 F   0  0  0  0  0  0  0  0  0  0  0  0
  155.1130  214.1710  155.2980 C   0  0  0  0  0  2  0  0  0  0  0  0
  155.7000  213.2280  154.2630 C   0  0  1  0  0  3  0  0  0  0  0  0
  155.9230  214.0660  156.5810 C   0  0  0  0  0  2  0  0  0  0  0  0
  155.6530  211.7940  154.7910 C   0  0  0  0  0  2  0  0  0  0  0  0
  1  5  1  0  0  0  0
  2 12  1  6  0  0  0
  2 11  1  0  0  0  0
  2 13  1  0  0  0  0
  3 25  1  1  0  0  0
  4  7  2  0  0  0  0
  5  9  2  0  0  0  0
  6  1  1  0  0  0  0
  7  9  1  0  0  0  0
  7 11  1  0  0  0  0
  8  1  2  0  0  0  0
  8  4  1  0  0  0  0
 10  3  1  0  0  0  0
 11 10  1  1  0  0  0
 13 14  1  1  0  0  0
 14  3  1  0  0  0  0
 15  4  1  0  0  0  0
 15 12  1  0  0  0  0
 16 13  1  0  0  0  0
 16 22  1  1  0  0  0
 17 21  1  0  0  0  0
 18 23  1  0  0  0  0
 18 17  1  0  0  0  0
 19 18  1  0  0  0  0
 20 16  1  0  0  0  0
 21 22  1  0  0  0  0
 24 18  1  0  0  0  0
 24 20  1  0  0  0  0
 25 27  2  0  0  0  0
 25 26  1  0  0  0  0
 26 28  1  0  0  0  0
 28 29  1  1  0  0  0
 30 28  1  6  0  0  0
 30 31  1  0  0  0  0
 30 33  1  0  0  0  0
 31 33  1  0  0  0  0
 34 38  1  0  0  0  0
 34 31  1  0  0  0  0
 35 34  1  0  0  0  0
 35 36  1  0  0  0  0
 36 32  1  0  0  0  0
 36 33  1  0  0  0  0
 38 37  1  0  0  0  0
 39 41  1  0  0  0  0
 40 42  1  0  0  0  0
 41 43  1  0  0  0  0
 41 40  1  0  0  0  0
 42 37  1  0  0  0  0
 43 38  1  0  0  0  0
M  END
>  <MODEL>
1

>  <REMARK>
 VINA RESULT:      -8.0      0.000      0.000
  Name = 
  5 active torsions:
  status: ('A' for Active; 'I' for Inactive)
    1  A    between atoms: C_1  and  C_34
    2  A    between atoms: C_2  and  C_13
    3  A    between atoms: C_3  and  C_12
    4  A    between atoms: N_6  and  C_12
    5  A    between atoms: N_14  and  C_22
                            x       y       z     vdW  Elec       q    Type
                         _______ _______ _______ _____ _____    ______ ____

>  <TORSDO>
F 5

$$$$
=
 OpenBabel11062410023D

 43 49  0  0  1  0  0  0  0  0999 V2000
  160.6010  209.1470  155.9230 C   0  0  0  0  0  0  0  0  0  0  0  0
  161.7870  207.7970  151.0990 C   0  0  2  0  0  3  0  0  0  0  0  0
  161.9040  210.1000  149.5910 C   0  0  2  0  0  3  0  0  0  0  0  0
  160.9540  207.9400  153.8470 C   0  0  0  0  0  0  0  0  0  0  0  0
  161.2580  210.2590  155.3920 C   0  0  0  0  0  3  0  0  0  0  0  0
  160.1110  209.1920  157.2200 O   0  0  0  0  0  1  0  0  0  0  0  0
  161.5880  209.0800  153.2880 C   0  0  0  0  0  0  0  0  0  0  0  0
  160.4530  207.9930  155.1520 C   0  0  0  0  0  3  0  0  0  0  0  0
  161.7530  210.2230  154.0850 C   0  0  0  0  0  3  0  0  0  0  0  0
  161.9080  210.3140  151.1170 C   0  0  0  0  0  2  0  0  0  0  0  0
  162.1980  209.0360  151.9090 C   0  0  2  0  0  3  0  0  0  0  0  0
  161.8260  206.5400  151.9630 C   0  0  0  0  0  2  0  0  0  0  0  0
  162.6730  207.6720  149.8500 C   0  0  2  0  0  3  0  0  0  0  0  0
  162.9110  209.0340  149.1470 C   0  0  0  0  0  2  0  0  0  0  0  0
  160.7720  206.6760  153.0550 C   0  0  0  0  0  2  0  0  0  0  0  0
  162.1620  206.5960  148.8810 C   0  0  2  0  0  3  0  0  0  0  0  0
  161.4570  204.0410  147.5780 C   0  0  0  0  0  2  0  0  0  0  0  0
  161.4790  204.7720  146.2330 C   0  0  0  0  0  0  0  0  0  0  0  0
  162.0990  203.9420  145.3130 F   0  0  0  0  0  0  0  0  0  0  0  0
  161.4840  207.3430  147.3620 S   0  0  0  0  0  0  0  0  0  0  0  0
  160.4820  204.6810  148.5620 C   0  0  0  0  0  2  0  0  0  0  0  0
  161.1790  205.6180  149.5450 C   0  0  0  0  0  2  0  0  0  0  0  0
  160.1890  205.0210  145.7970 F   0  0  0  0  0  0  0  0  0  0  0  0
  162.2710  206.0840  146.2990 C   0  0  0  0  0  2  0  0  0  0  0  0
  162.0990  211.3890  148.8640 C   0  0  0  0  0  0  0  0  0  0  0  0
  161.3910  212.5470  149.3140 N   0  0  0  0  0  2  0  0  0  0  0  0
  163.1330  211.5440  148.0970 N   0  0  0  0  0  2  0  0  0  0  0  0
  159.9730  212.7790  149.0440 C   0  0  2  0  0  3  0  0  0  0  0  0
  159.6340  212.4780  147.5960 C   0  0  0  0  0  1  0  0  0  0  0  0
  159.5790  214.2310  149.4090 C   0  0  2  0  0  3  0  0  0  0  0  0
  159.1880  214.4520  150.8170 C   0  0  1  0  0  3  0  0  0  0  0  0
  155.9200  213.4860  149.8890 C   0  0  0  0  0  1  0  0  0  0  0  0
  158.1530  214.4530  149.7780 N   0  0  2  0  0  0  0  0  0  0  0  0
  158.9310  213.2040  151.6340 C   0  0  2  0  0  3  0  0  0  0  0  0
  157.6890  212.6710  151.2630 O   0  0  0  0  0  0  0  0  0  0  0  0
  157.4050  213.2120  149.9960 C   0  0  1  0  0  3  0  0  0  0  0  0
  158.0090  214.4530  153.5710 C   0  0  0  0  0  2  0  0  0  0  0  0
  159.0150  213.4970  153.0720 N   0  0  1  0  0  0  0  0  0  0  0  0
  157.7840  210.4720  154.7580 F   0  0  0  0  0  0  0  0  0  0  0  0
  156.7190  212.5860  154.6210 C   0  0  0  0  0  2  0  0  0  0  0  0
  157.6840  211.6040  153.9800 C   0  0  1  0  0  3  0  0  0  0  0  0
  156.6230  213.8290  153.7480 C   0  0  0  0  0  2  0  0  0  0  0  0
  159.0620  212.2520  153.8480 C   0  0  0  0  0  2  0  0  0  0  0  0
  1  6  1  0  0  0  0
  2 11  1  0  0  0  0
  2 12  1  1  0  0  0
  3 25  1  6  0  0  0
  3 10  1  0  0  0  0
  4  8  1  0  0  0  0
  5  1  1  0  0  0  0
  7  4  2  0  0  0  0
  7  9  1  0  0  0  0
  8  1  2  0  0  0  0
  9  5  2  0  0  0  0
 11 10  1  6  0  0  0
 11  7  1  0  0  0  0
 12 15  1  0  0  0  0
 13 14  1  6  0  0  0
 13  2  1  0  0  0  0
 14  3  1  0  0  0  0
 15  4  1  0  0  0  0
 16 22  1  1  0  0  0
 16 13  1  0  0  0  0
 17 21  1  0  0  0  0
 18 24  1  0  0  0  0
 18 17  1  0  0  0  0
 19 18  1  0  0  0  0
 20 16  1  0  0  0  0
 21 22  1  0  0  0  0
 23 18  1  0  0  0  0
 24 20  1  0  0  0  0
 25 26  1  0  0  0  0
 27 25  2  0  0  0  0
 28 29  1  6  0  0  0
 28 26  1  0  0  0  0
 30 28  1  1  0  0  0
 30 33  1  0  0  0  0
 30 31  1  0  0  0  0
 31 34  1  0  0  0  0
 32 36  1  0  0  0  0
 33 36  1  0  0  0  0
 33 31  1  0  0  0  0
 34 38  1  0  0  0  0
 35 34  1  0  0  0  0
 36 35  1  0  0  0  0
 37 42  1  0  0  0  0
 38 37  1  0  0  0  0
 38 43  1  0  0  0  0
 41 40  1  0  0  0  0
 41 39  1  0  0  0  0
 42 40  1  0  0  0  0
 43 41  1  0  0  0  0
M  END
>  <MODEL>
2

>  <REMARK>
 VINA RESULT:      -6.9      3.504      6.506
  Name = 
  5 active torsions:
  status: ('A' for Active; 'I' for Inactive)
    1  A    between atoms: C_1  and  C_34
    2  A    between atoms: C_2  and  C_13
    3  A    between atoms: C_3  and  C_12
    4  A    between atoms: N_6  and  C_12
    5  A    between atoms: N_14  and  C_22
                            x       y       z     vdW  Elec       q    Type
                         _______ _______ _______ _____ _____    ______ ____

>  <TORSDO>
F 5

$$$$
=
 OpenBabel11062410023D

 43 49  0  0  1  0  0  0  0  0999 V2000
  160.9920  203.2410  146.8780 C   0  0  0  0  0  0  0  0  0  0  0  0
  161.4030  207.6560  149.4910 C   0  0  2  0  0  3  0  0  0  0  0  0
  160.9210  207.1040  152.1460 C   0  0  2  0  0  3  0  0  0  0  0  0
  161.0990  205.5760  147.5300 C   0  0  0  0  0  0  0  0  0  0  0  0
  161.3810  202.8600  148.1630 C   0  0  0  0  0  3  0  0  0  0  0  0
  160.7570  202.2710  145.9140 O   0  0  0  0  0  1  0  0  0  0  0  0
  161.4560  205.1940  148.8490 C   0  0  0  0  0  0  0  0  0  0  0  0
  160.8550  204.5940  146.5640 C   0  0  0  0  0  3  0  0  0  0  0  0
  161.6170  203.8310  149.1410 C   0  0  0  0  0  3  0  0  0  0  0  0
  161.1880  205.8730  151.2580 C   0  0  0  0  0  2  0  0  0  0  0  0
  161.7920  206.2270  149.8960 C   0  0  2  0  0  3  0  0  0  0  0  0
  161.7740  207.9340  148.0370 C   0  0  0  0  0  2  0  0  0  0  0  0
  162.0420  208.6660  150.4570 C   0  0  2  0  0  3  0  0  0  0  0  0
  161.9570  208.2120  151.9370 C   0  0  0  0  0  2  0  0  0  0  0  0
  160.9390  207.0200  147.1470 C   0  0  0  0  0  2  0  0  0  0  0  0
  161.5040  210.0890  150.2490 C   0  0  2  0  0  3  0  0  0  0  0  0
  159.8480  212.5340  150.2420 C   0  0  0  0  0  2  0  0  0  0  0  0
  160.6210  213.0000  149.0060 C   0  0  0  0  0  0  0  0  0  0  0  0
  159.7080  213.5580  148.1250 F   0  0  0  0  0  0  0  0  0  0  0  0
  162.6690  211.1000  149.2760 S   0  0  0  0  0  0  0  0  0  0  0  0
  160.7730  212.2520  151.4230 C   0  0  0  0  0  2  0  0  0  0  0  0
  161.0950  210.7670  151.5670 C   0  0  0  0  0  2  0  0  0  0  0  0
  161.5450  213.9720  149.3500 F   0  0  0  0  0  0  0  0  0  0  0  0
  161.3230  211.8410  148.2900 C   0  0  0  0  0  2  0  0  0  0  0  0
  160.7990  206.7170  153.5840 C   0  0  0  0  0  0  0  0  0  0  0  0
  160.0430  207.5560  154.4600 N   0  0  0  0  0  2  0  0  0  0  0  0
  161.0510  205.4980  153.9440 N   0  0  0  0  0  2  0  0  0  0  0  0
  160.5430  208.8210  154.9960 C   0  0  2  0  0  3  0  0  0  0  0  0
  162.0450  208.9390  154.8100 C   0  0  0  0  0  1  0  0  0  0  0  0
  160.1620  208.9700  156.4890 C   0  0  2  0  0  3  0  0  0  0  0  0
  159.5300  210.2530  156.8610 C   0  0  1  0  0  3  0  0  0  0  0  0
  162.7880  211.5580  157.2570 C   0  0  0  0  0  1  0  0  0  0  0  0
  160.9180  209.9970  157.2610 N   0  0  2  0  0  0  0  0  0  0  0  0
  159.6100  211.3540  155.8250 C   0  0  2  0  0  3  0  0  0  0  0  0
  160.9110  211.8760  155.8230 O   0  0  0  0  0  0  0  0  0  0  0  0
  161.7180  210.8900  156.4190 C   0  0  1  0  0  3  0  0  0  0  0  0
  158.7320  213.6090  155.2730 C   0  0  0  0  0  2  0  0  0  0  0  0
  158.5880  212.3800  156.0760 N   0  0  1  0  0  0  0  0  0  0  0  0
  155.5080  211.0830  154.5460 F   0  0  0  0  0  0  0  0  0  0  0  0
  156.8320  212.9060  153.8080 C   0  0  0  0  0  2  0  0  0  0  0  0
  156.7900  211.5830  154.5540 C   0  0  1  0  0  3  0  0  0  0  0  0
  158.2550  213.4420  153.8290 C   0  0  0  0  0  2  0  0  0  0  0  0
  157.2440  211.7960  155.9990 C   0  0  0  0  0  2  0  0  0  0  0  0
  1  5  1  0  0  0  0
  2 12  1  6  0  0  0
  2 11  1  0  0  0  0
  2 13  1  0  0  0  0
  3 25  1  1  0  0  0
  4  7  2  0  0  0  0
  5  9  2  0  0  0  0
  6  1  1  0  0  0  0
  7  9  1  0  0  0  0
  7 11  1  0  0  0  0
  8  1  2  0  0  0  0
  8  4  1  0  0  0  0
 10  3  1  0  0  0  0
 11 10  1  1  0  0  0
 13 14  1  1  0  0  0
 14  3  1  0  0  0  0
 15  4  1  0  0  0  0
 15 12  1  0  0  0  0
 16 13  1  0  0  0  0
 16 22  1  1  0  0  0
 17 21  1  0  0  0  0
 18 23  1  0  0  0  0
 18 17  1  0  0  0  0
 19 18  1  0  0  0  0
 20 16  1  0  0  0  0
 21 22  1  0  0  0  0
 24 18  1  0  0  0  0
 24 20  1  0  0  0  0
 25 27  2  0  0  0  0
 25 26  1  0  0  0  0
 26 28  1  0  0  0  0
 28 29  1  1  0  0  0
 30 28  1  6  0  0  0
 30 31  1  0  0  0  0
 30 33  1  0  0  0  0
 31 33  1  0  0  0  0
 34 38  1  0  0  0  0
 34 31  1  0  0  0  0
 35 34  1  0  0  0  0
 35 36  1  0  0  0  0
 36 32  1  0  0  0  0
 36 33  1  0  0  0  0
 37 38  1  0  0  0  0
 39 41  1  0  0  0  0
 40 42  1  0  0  0  0
 40 41  1  0  0  0  0
 41 43  1  0  0  0  0
 42 37  1  0  0  0  0
 43 38  1  0  0  0  0
M  END
>  <MODEL>
3

>  <REMARK>
 VINA RESULT:      -6.0      1.388      1.903
  Name = 
  5 active torsions:
  status: ('A' for Active; 'I' for Inactive)
    1  A    between atoms: C_1  and  C_34
    2  A    between atoms: C_2  and  C_13
    3  A    between atoms: C_3  and  C_12
    4  A    between atoms: N_6  and  C_12
    5  A    between atoms: N_14  and  C_22
                            x       y       z     vdW  Elec       q    Type
                         _______ _______ _______ _____ _____    ______ ____

>  <TORSDO>
F 5

$$$$
=
 OpenBabel11062410023D

 43 49  0  0  1  0  0  0  0  0999 V2000
  161.3600  202.9690  148.9320 C   0  0  0  0  0  0  0  0  0  0  0  0
  161.0530  207.2520  151.7710 C   0  0  2  0  0  3  0  0  0  0  0  0
  161.9570  209.3460  150.2270 C   0  0  2  0  0  3  0  0  0  0  0  0
  161.1980  204.5680  150.7510 C   0  0  0  0  0  0  0  0  0  0  0  0
  161.1900  204.0000  148.0060 C   0  0  0  0  0  3  0  0  0  0  0  0
  161.5120  201.6640  148.4880 O   0  0  0  0  0  1  0  0  0  0  0  0
  161.0660  205.6250  149.8140 C   0  0  0  0  0  0  0  0  0  0  0  0
  161.3610  203.2540  150.2980 C   0  0  0  0  0  3  0  0  0  0  0  0
  161.0390  205.3190  148.4450 C   0  0  0  0  0  3  0  0  0  0  0  0
  161.6420  208.0490  149.4550 C   0  0  0  0  0  2  0  0  0  0  0  0
  160.8210  207.0430  150.2670 C   0  0  2  0  0  3  0  0  0  0  0  0
  160.4550  206.1060  152.5820 C   0  0  0  0  0  2  0  0  0  0  0  0
  160.4990  208.6190  152.2010 C   0  0  2  0  0  3  0  0  0  0  0  0
  160.8310  209.7440  151.1860 C   0  0  0  0  0  2  0  0  0  0  0  0
  161.2060  204.8270  152.2310 C   0  0  0  0  0  2  0  0  0  0  0  0
  160.9080  208.9860  153.6350 C   0  0  2  0  0  3  0  0  0  0  0  0
  161.0230  209.3100  156.5680 C   0  0  0  0  0  2  0  0  0  0  0  0
  161.9090  210.5400  156.3530 C   0  0  0  0  0  0  0  0  0  0  0  0
  161.4950  211.5180  157.2440 F   0  0  0  0  0  0  0  0  0  0  0  0
  162.4350  209.9840  153.6520 S   0  0  0  0  0  0  0  0  0  0  0  0
  161.6140  208.0600  155.9230 C   0  0  0  0  0  2  0  0  0  0  0  0
  160.9940  207.7610  154.5600 C   0  0  0  0  0  2  0  0  0  0  0  0
  163.2320  210.2370  156.6210 F   0  0  0  0  0  0  0  0  0  0  0  0
  161.7790  211.1070  154.9340 C   0  0  0  0  0  2  0  0  0  0  0  0
  162.3140  210.4560  149.2940 C   0  0  0  0  0  0  0  0  0  0  0  0
  161.9690  211.7960  149.6560 N   0  0  0  0  0  2  0  0  0  0  0  0
  163.2150  210.2640  148.3820 N   0  0  0  0  0  2  0  0  0  0  0  0
  160.6150  212.3370  149.5460 C   0  0  2  0  0  3  0  0  0  0  0  0
  160.0700  212.1680  148.1400 C   0  0  0  0  0  1  0  0  0  0  0  0
  160.5870  213.8260  149.9700 C   0  0  2  0  0  3  0  0  0  0  0  0
  160.0220  214.0980  151.3080 C   0  0  1  0  0  3  0  0  0  0  0  0
  156.8430  214.1690  149.7710 C   0  0  0  0  0  1  0  0  0  0  0  0
  159.2380  214.4420  150.1160 N   0  0  2  0  0  0  0  0  0  0  0  0
  159.2780  212.9500  151.9560 C   0  0  2  0  0  3  0  0  0  0  0  0
  158.0260  212.8180  151.3380 O   0  0  0  0  0  0  0  0  0  0  0  0
  158.1440  213.4670  150.0960 C   0  0  1  0  0  3  0  0  0  0  0  0
  158.5400  214.4170  153.8180 C   0  0  0  0  0  2  0  0  0  0  0  0
  159.1750  213.1500  153.4080 N   0  0  1  0  0  0  0  0  0  0  0  0
  156.5520  210.8320  154.5300 F   0  0  0  0  0  0  0  0  0  0  0  0
  156.4430  213.1990  154.4250 C   0  0  0  0  0  2  0  0  0  0  0  0
  157.0590  211.9270  153.8670 C   0  0  1  0  0  3  0  0  0  0  0  0
  157.0160  214.3960  153.6820 C   0  0  0  0  0  2  0  0  0  0  0  0
  158.5770  211.9720  154.0480 C   0  0  0  0  0  2  0  0  0  0  0  0
  1  8  1  0  0  0  0
  2 13  1  0  0  0  0
  2 12  1  1  0  0  0
  3 25  1  6  0  0  0
  3 14  1  0  0  0  0
  4 15  1  0  0  0  0
  5  9  1  0  0  0  0
  5  1  2  0  0  0  0
  6  1  1  0  0  0  0
  7 11  1  0  0  0  0
  7  4  1  0  0  0  0
  8  4  2  0  0  0  0
  9  7  2  0  0  0  0
 10  3  1  0  0  0  0
 11 10  1  6  0  0  0
 11  2  1  0  0  0  0
 13 14  1  6  0  0  0
 13 16  1  0  0  0  0
 15 12  1  0  0  0  0
 16 20  1  0  0  0  0
 16 22  1  1  0  0  0
 18 17  1  0  0  0  0
 18 23  1  0  0  0  0
 18 19  1  0  0  0  0
 20 24  1  0  0  0  0
 21 17  1  0  0  0  0
 22 21  1  0  0  0  0
 24 18  1  0  0  0  0
 25 26  1  0  0  0  0
 27 25  2  0  0  0  0
 28 29  1  6  0  0  0
 28 26  1  0  0  0  0
 30 28  1  1  0  0  0
 30 33  1  0  0  0  0
 30 31  1  0  0  0  0
 31 34  1  0  0  0  0
 32 36  1  0  0  0  0
 33 31  1  0  0  0  0
 34 38  1  0  0  0  0
 35 34  1  0  0  0  0
 36 33  1  0  0  0  0
 36 35  1  0  0  0  0
 38 37  1  0  0  0  0
 38 43  1  0  0  0  0
 41 43  1  0  0  0  0
 41 40  1  0  0  0  0
 41 39  1  0  0  0  0
 42 37  1  0  0  0  0
 42 40  1  0  0  0  0
M  END
>  <MODEL>
4

>  <REMARK>
 VINA RESULT:      -5.8      3.109      5.131
  Name = 
  5 active torsions:
  status: ('A' for Active; 'I' for Inactive)
    1  A    between atoms: C_1  and  C_34
    2  A    between atoms: C_2  and  C_13
    3  A    between atoms: C_3  and  C_12
    4  A    between atoms: N_6  and  C_12
    5  A    between atoms: N_14  and  C_22
                            x       y       z     vdW  Elec       q    Type
                         _______ _______ _______ _____ _____    ______ ____

>  <TORSDO>
F 5

$$$$
=
 OpenBabel11062410023D

 43 49  0  0  1  0  0  0  0  0999 V2000
  161.7560  204.4980  147.5860 C   0  0  0  0  0  0  0  0  0  0  0  0
  161.3810  208.4860  150.8190 C   0  0  2  0  0  3  0  0  0  0  0  0
  162.3460  210.7130  149.5150 C   0  0  2  0  0  3  0  0  0  0  0  0
  161.5440  205.9130  149.5460 C   0  0  0  0  0  0  0  0  0  0  0  0
  161.6230  205.6150  146.7610 C   0  0  0  0  0  3  0  0  0  0  0  0
  161.9150  203.2400  147.0230 O   0  0  0  0  0  1  0  0  0  0  0  0
  161.4480  207.0580  148.7130 C   0  0  0  0  0  0  0  0  0  0  0  0
  161.7140  204.6490  148.9730 C   0  0  0  0  0  3  0  0  0  0  0  0
  161.4640  206.8870  147.3210 C   0  0  0  0  0  3  0  0  0  0  0  0
  162.0500  209.5000  148.6110 C   0  0  0  0  0  2  0  0  0  0  0  0
  161.1970  208.4270  149.2950 C   0  0  2  0  0  3  0  0  0  0  0  0
  160.7500  207.2720  151.4940 C   0  0  0  0  0  2  0  0  0  0  0  0
  160.8220  209.8100  151.3620 C   0  0  2  0  0  3  0  0  0  0  0  0
  161.1930  211.0250  150.4720 C   0  0  0  0  0  2  0  0  0  0  0  0
  161.5050  206.0270  151.0440 C   0  0  0  0  0  2  0  0  0  0  0  0
  161.1850  210.0330  152.8370 C   0  0  2  0  0  3  0  0  0  0  0  0
  162.3430  209.8320  155.5450 C   0  0  0  0  0  2  0  0  0  0  0  0
  161.1150  210.5720  156.0780 C   0  0  0  0  0  0  0  0  0  0  0  0
  160.7320  209.9570  157.2600 F   0  0  0  0  0  0  0  0  0  0  0  0
  160.2310  211.4150  153.5500 S   0  0  0  0  0  0  0  0  0  0  0  0
  163.0730  210.6320  154.4700 C   0  0  0  0  0  2  0  0  0  0  0  0
  162.6980  210.1850  153.0590 C   0  0  0  0  0  2  0  0  0  0  0  0
  161.4260  211.8920  156.3540 F   0  0  0  0  0  0  0  0  0  0  0  0
  159.9310  210.5060  155.1050 C   0  0  0  0  0  2  0  0  0  0  0  0
  162.7410  211.9050  148.7070 C   0  0  0  0  0  0  0  0  0  0  0  0
  161.9380  213.0860  148.7860 N   0  0  0  0  0  2  0  0  0  0  0  0
  163.9480  211.9970  148.2450 N   0  0  0  0  0  2  0  0  0  0  0  0
  160.6520  213.2330  148.1050 C   0  0  2  0  0  3  0  0  0  0  0  0
  159.5030  213.2230  149.0960 C   0  0  0  0  0  1  0  0  0  0  0  0
  160.4690  212.1230  147.0410 C   0  0  2  0  0  3  0  0  0  0  0  0
  160.4720  212.5790  145.6360 C   0  0  1  0  0  3  0  0  0  0  0  0
  157.0160  213.2090  146.0030 C   0  0  0  0  0  1  0  0  0  0  0  0
  159.2050  212.1710  146.2520 N   0  0  2  0  0  0  0  0  0  0  0  0
  160.3500  214.0730  145.4260 C   0  0  2  0  0  3  0  0  0  0  0  0
  159.0200  214.4530  145.6560 O   0  0  0  0  0  0  0  0  0  0  0  0
  158.4560  213.4190  146.4240 C   0  0  1  0  0  3  0  0  0  0  0  0
  162.2900  214.4510  143.9250 C   0  0  0  0  0  2  0  0  0  0  0  0
  160.8240  214.4520  144.0880 N   0  0  1  0  0  0  0  0  0  0  0  0
  160.0290  211.5890  141.9240 F   0  0  0  0  0  0  0  0  0  0  0  0
  162.1710  212.3100  142.6390 C   0  0  0  0  0  2  0  0  0  0  0  0
  160.6830  212.2520  142.9380 C   0  0  1  0  0  3  0  0  0  0  0  0
  162.8760  213.0460  143.7690 C   0  0  0  0  0  2  0  0  0  0  0  0
  160.1290  213.6730  143.0560 C   0  0  0  0  0  2  0  0  0  0  0  0
  1  8  1  0  0  0  0
  2 13  1  0  0  0  0
  2 12  1  1  0  0  0
  3 25  1  6  0  0  0
  3 14  1  0  0  0  0
  4 15  1  0  0  0  0
  5  9  1  0  0  0  0
  5  1  2  0  0  0  0
  6  1  1  0  0  0  0
  7 11  1  0  0  0  0
  7  4  1  0  0  0  0
  8  4  2  0  0  0  0
  9  7  2  0  0  0  0
 10  3  1  0  0  0  0
 11 10  1  6  0  0  0
 11  2  1  0  0  0  0
 13 14  1  6  0  0  0
 13 16  1  0  0  0  0
 15 12  1  0  0  0  0
 16 22  1  6  0  0  0
 16 20  1  0  0  0  0
 17 18  1  0  0  0  0
 18 23  1  0  0  0  0
 18 19  1  0  0  0  0
 20 24  1  0  0  0  0
 21 17  1  0  0  0  0
 22 21  1  0  0  0  0
 24 18  1  0  0  0  0
 25 26  1  0  0  0  0
 27 25  2  0  0  0  0
 28 26  1  0  0  0  0
 28 29  1  1  0  0  0
 30 28  1  1  0  0  0
 31 33  1  0  0  0  0
 31 30  1  0  0  0  0
 32 36  1  0  0  0  0
 33 36  1  0  0  0  0
 33 30  1  0  0  0  0
 34 31  1  0  0  0  0
 34 35  1  0  0  0  0
 35 36  1  0  0  0  0
 37 38  1  0  0  0  0
 38 34  1  0  0  0  0
 39 41  1  0  0  0  0
 40 41  1  0  0  0  0
 40 42  1  0  0  0  0
 41 43  1  0  0  0  0
 42 37  1  0  0  0  0
 43 38  1  0  0  0  0
M  END
>  <MODEL>
5

>  <REMARK>
 VINA RESULT:      -5.4      4.568      8.197
  Name = 
  5 active torsions:
  status: ('A' for Active; 'I' for Inactive)
    1  A    between atoms: C_1  and  C_34
    2  A    between atoms: C_2  and  C_13
    3  A    between atoms: C_3  and  C_12
    4  A    between atoms: N_6  and  C_12
    5  A    between atoms: N_14  and  C_22
                            x       y       z     vdW  Elec       q    Type
                         _______ _______ _______ _____ _____    ______ ____

>  <TORSDO>
F 5

$$$$
