=
 OpenBabel11062407443D

 34 38  0  0  1  0  0  0  0  0999 V2000
  161.6830  209.0300  156.0430 C   0  0  1  0  0  3  0  0  0  0  0  0
  160.3060  207.0720  155.0540 C   0  0  1  0  0  3  0  0  0  0  0  0
  161.0620  209.0560  153.6090 C   0  0  0  0  0  0  0  0  0  0  0  0
  161.4450  209.8710  150.6870 C   0  0  0  0  0  3  0  0  0  0  0  0
  160.3870  206.5710  156.3410 F   0  0  0  0  0  0  0  0  0  0  0  0
  160.9310  206.7610  152.6960 C   0  0  0  0  0  2  0  0  0  0  0  0
  160.6570  208.5700  154.9870 C   0  0  2  0  0  3  0  0  0  0  0  0
  161.8010  208.7010  151.2450 C   0  0  0  0  0  0  0  0  0  0  0  0
  161.4710  210.5020  153.5290 C   0  0  1  0  0  3  0  0  0  0  0  0
  162.3920  210.3290  155.6070 C   0  0  0  0  0  2  0  0  0  0  0  0
  161.1700  206.2560  154.1110 C   0  0  0  0  0  2  0  0  0  0  0  0
  160.6030  210.9310  151.2810 C   0  0  0  0  0  3  0  0  0  0  0  0
  160.5480  211.2300  152.5840 C   0  0  0  0  0  0  0  0  0  0  0  0
  161.2760  208.2230  152.5650 C   0  0  0  0  0  0  0  0  0  0  0  0
  161.5400  211.1130  154.8040 O   0  0  0  0  0  0  0  0  0  0  0  0
  157.6390  212.8240  154.4360 C   0  0  0  0  0  0  0  0  0  0  0  0
  157.6260  214.1050  153.8810 C   0  0  0  0  0  3  0  0  0  0  0  0
  159.5500  212.2280  153.0490 C   0  0  0  0  0  0  0  0  0  0  0  0
  158.5660  214.4530  152.9070 C   0  0  0  0  0  3  0  0  0  0  0  0
  158.5920  211.8910  154.0190 C   0  0  0  0  0  3  0  0  0  0  0  0
  159.5200  213.5190  152.4920 C   0  0  0  0  0  3  0  0  0  0  0  0
  156.7250  212.4840  155.3770 F   0  0  0  0  0  0  0  0  0  0  0  0
  159.8430  209.8960  156.9270 C   0  0  0  0  0  1  0  0  0  0  0  0
  161.0330  209.2430  157.2610 O   0  0  0  0  0  0  0  0  0  0  0  0
  162.6670  207.8690  150.4650 N   0  0  0  0  0  2  0  0  0  0  0  0
  162.5490  207.6950  149.0260 C   0  0  0  0  0  2  0  0  0  0  0  0
  161.6790  206.4890  148.7300 C   0  0  0  0  0  2  0  0  0  0  0  0
  161.3270  203.7860  147.8910 O   0  0  0  0  0  1  0  0  0  0  0  0
  161.8350  206.0700  147.2760 C   0  0  1  0  0  3  0  0  0  0  0  0
  162.1740  204.5760  147.1090 C   0  0  2  0  0  3  0  0  0  0  0  0
  161.8430  205.2360  144.7800 O   0  0  0  0  0  0  0  0  0  0  0  0
  160.5770  205.7560  145.1020 C   0  0  0  0  0  2  0  0  0  0  0  0
  160.6040  206.4720  146.4610 C   0  0  0  0  0  2  0  0  0  0  0  0
  162.0480  204.1380  145.6400 C   0  0  0  0  0  2  0  0  0  0  0  0
  1 24  1  1  0  0  0
  2  5  1  1  0  0  0
  4  8  2  0  0  0  0
  4 12  1  0  0  0  0
  6 11  1  0  0  0  0
  7  3  1  6  0  0  0
  7  2  1  0  0  0  0
  7  1  1  0  0  0  0
  8 14  1  0  0  0  0
  9 13  1  6  0  0  0
  9  3  1  0  0  0  0
  9 15  1  0  0  0  0
 10  1  1  0  0  0  0
 11  2  1  0  0  0  0
 12 13  2  0  0  0  0
 13 18  1  0  0  0  0
 14  6  1  0  0  0  0
 14  3  2  0  0  0  0
 15 10  1  0  0  0  0
 16 22  1  0  0  0  0
 17 16  2  0  0  0  0
 18 20  2  0  0  0  0
 19 17  1  0  0  0  0
 20 16  1  0  0  0  0
 21 19  2  0  0  0  0
 21 18  1  0  0  0  0
 23 24  1  0  0  0  0
 25  8  1  0  0  0  0
 26 25  1  0  0  0  0
 27 26  1  0  0  0  0
 29 27  1  1  0  0  0
 30 29  1  0  0  0  0
 30 28  1  1  0  0  0
 31 32  1  0  0  0  0
 31 34  1  0  0  0  0
 32 33  1  0  0  0  0
 33 29  1  0  0  0  0
 34 30  1  0  0  0  0
M  END
>  <MODEL>
1

>  <REMARK>
 VINA RESULT:      -8.0      0.000      0.000
  Name = 
  6 active torsions:
  status: ('A' for Active; 'I' for Inactive)
    1  A    between atoms: C_1  and  O_19
    2  A    between atoms: C_3  and  C_13
    3  A    between atoms: C_3  and  C_17
    4  A    between atoms: C_12  and  C_28
    5  A    between atoms: C_17  and  N_29
    6  A    between atoms: C_18  and  N_29
                            x       y       z     vdW  Elec       q    Type
                         _______ _______ _______ _____ _____    ______ ____

>  <TORSDO>
F 6

$$$$
=
 OpenBabel11062407443D

 34 38  0  0  1  0  0  0  0  0999 V2000
  162.6190  205.7320  146.5930 C   0  0  1  0  0  3  0  0  0  0  0  0
  160.4250  206.7120  147.5560 C   0  0  1  0  0  3  0  0  0  0  0  0
  161.3190  204.4220  148.2970 C   0  0  0  0  0  0  0  0  0  0  0  0
  161.0260  202.3530  150.5290 C   0  0  0  0  0  3  0  0  0  0  0  0
  160.7270  207.7840  146.7360 F   0  0  0  0  0  0  0  0  0  0  0  0
  160.1390  205.9230  149.8680 C   0  0  0  0  0  2  0  0  0  0  0  0
  161.2240  205.4490  147.1860 C   0  0  2  0  0  3  0  0  0  0  0  0
  161.1180  203.6860  150.6800 C   0  0  0  0  0  0  0  0  0  0  0  0
  162.1490  203.2060  147.9820 C   0  0  1  0  0  3  0  0  0  0  0  0
  163.5540  204.5160  146.7550 C   0  0  0  0  0  2  0  0  0  0  0  0
  160.6200  207.0860  149.0130 C   0  0  0  0  0  2  0  0  0  0  0  0
  160.8240  201.6020  149.2730 C   0  0  0  0  0  3  0  0  0  0  0  0
  161.2830  201.9740  148.0710 C   0  0  0  0  0  0  0  0  0  0  0  0
  160.9010  204.6600  149.5610 C   0  0  0  0  0  0  0  0  0  0  0  0
  162.8140  203.3160  146.7380 O   0  0  0  0  0  0  0  0  0  0  0  0
  160.9630  199.1400  145.5620 C   0  0  0  0  0  0  0  0  0  0  0  0
  160.1600  199.7270  144.5820 C   0  0  0  0  0  3  0  0  0  0  0  0
  160.8800  201.1880  146.8760 C   0  0  0  0  0  0  0  0  0  0  0  0
  159.7190  201.0440  144.7390 C   0  0  0  0  0  3  0  0  0  0  0  0
  161.3230  199.8680  146.7000 C   0  0  0  0  0  3  0  0  0  0  0  0
  160.0800  201.7710  145.8770 C   0  0  0  0  0  3  0  0  0  0  0  0
  161.3950  197.8640  145.4100 F   0  0  0  0  0  0  0  0  0  0  0  0
  161.5130  205.1720  144.7550 C   0  0  0  0  0  1  0  0  0  0  0  0
  162.4940  206.0420  145.2370 O   0  0  0  0  0  0  0  0  0  0  0  0
  161.3610  204.1540  152.0110 N   0  0  0  0  0  2  0  0  0  0  0  0
  161.9970  205.4230  152.3240 C   0  0  0  0  0  2  0  0  0  0  0  0
  161.2900  206.0680  153.5000 C   0  0  0  0  0  2  0  0  0  0  0  0
  161.6550  208.2310  155.3240 O   0  0  0  0  0  1  0  0  0  0  0  0
  160.8800  207.4930  153.1540 C   0  0  1  0  0  3  0  0  0  0  0  0
  160.6190  208.3670  154.3960 C   0  0  2  0  0  3  0  0  0  0  0  0
  160.4400  210.0300  152.6160 O   0  0  0  0  0  0  0  0  0  0  0  0
  161.7060  209.6560  152.1320 C   0  0  0  0  0  2  0  0  0  0  0  0
  161.8970  208.1330  152.2060 C   0  0  0  0  0  2  0  0  0  0  0  0
  160.4840  209.8500  154.0130 C   0  0  0  0  0  2  0  0  0  0  0  0
  1 24  1  6  0  0  0
  1 10  1  0  0  0  0
  1  7  1  0  0  0  0
  2  5  1  6  0  0  0
  2 11  1  0  0  0  0
  3 14  2  0  0  0  0
  4  8  2  0  0  0  0
  7  2  1  0  0  0  0
  7  3  1  1  0  0  0
  8 25  1  0  0  0  0
  9 15  1  6  0  0  0
  9 13  1  0  0  0  0
  9  3  1  0  0  0  0
 11  6  1  0  0  0  0
 12  4  1  0  0  0  0
 13 12  2  0  0  0  0
 14  6  1  0  0  0  0
 14  8  1  0  0  0  0
 15 10  1  0  0  0  0
 16 20  1  0  0  0  0
 17 19  1  0  0  0  0
 17 16  2  0  0  0  0
 18 13  1  0  0  0  0
 19 21  2  0  0  0  0
 20 18  2  0  0  0  0
 21 18  1  0  0  0  0
 22 16  1  0  0  0  0
 23 24  1  0  0  0  0
 25 26  1  0  0  0  0
 26 27  1  0  0  0  0
 29 27  1  1  0  0  0
 29 30  1  0  0  0  0
 30 28  1  1  0  0  0
 31 34  1  0  0  0  0
 32 33  1  0  0  0  0
 32 31  1  0  0  0  0
 33 29  1  0  0  0  0
 34 30  1  0  0  0  0
M  END
>  <MODEL>
2

>  <REMARK>
 VINA RESULT:      -7.7      3.895     10.304
  Name = 
  6 active torsions:
  status: ('A' for Active; 'I' for Inactive)
    1  A    between atoms: C_1  and  O_19
    2  A    between atoms: C_3  and  C_13
    3  A    between atoms: C_3  and  C_17
    4  A    between atoms: C_12  and  C_28
    5  A    between atoms: C_17  and  N_29
    6  A    between atoms: C_18  and  N_29
                            x       y       z     vdW  Elec       q    Type
                         _______ _______ _______ _____ _____    ______ ____

>  <TORSDO>
F 6

$$$$
=
 OpenBabel11062407443D

 34 38  0  0  1  0  0  0  0  0999 V2000
  161.4020  209.6050  156.2350 C   0  0  1  0  0  3  0  0  0  0  0  0
  159.8830  207.5790  155.6900 C   0  0  1  0  0  3  0  0  0  0  0  0
  161.0080  208.9590  153.8400 C   0  0  0  0  0  0  0  0  0  0  0  0
  161.7490  208.8230  150.8760 C   0  0  0  0  0  3  0  0  0  0  0  0
  159.7850  207.4810  157.0660 F   0  0  0  0  0  0  0  0  0  0  0  0
  160.6720  206.5200  153.6150 C   0  0  0  0  0  2  0  0  0  0  0  0
  160.4240  208.9480  155.2380 C   0  0  2  0  0  3  0  0  0  0  0  0
  161.9040  207.8460  151.7860 C   0  0  0  0  0  0  0  0  0  0  0  0
  161.6010  210.2700  153.3980 C   0  0  1  0  0  3  0  0  0  0  0  0
  162.3040  210.6410  155.5340 C   0  0  0  0  0  2  0  0  0  0  0  0
  160.7180  206.4410  155.1340 C   0  0  0  0  0  2  0  0  0  0  0  0
  160.9980  210.0860  151.0320 C   0  0  0  0  0  3  0  0  0  0  0  0
  160.8650  210.7660  152.1780 C   0  0  0  0  0  0  0  0  0  0  0  0
  161.2070  207.8360  153.1130 C   0  0  0  0  0  0  0  0  0  0  0  0
  161.6320  211.2260  154.4420 O   0  0  0  0  0  0  0  0  0  0  0  0
  158.0690  213.1380  153.1730 C   0  0  0  0  0  0  0  0  0  0  0  0
  158.2220  214.1560  152.2300 C   0  0  0  0  0  3  0  0  0  0  0  0
  159.9620  211.9460  152.2110 C   0  0  0  0  0  0  0  0  0  0  0  0
  159.2360  214.0740  151.2720 C   0  0  0  0  0  3  0  0  0  0  0  0
  158.9330  212.0390  153.1610 C   0  0  0  0  0  3  0  0  0  0  0  0
  160.0990  212.9740  151.2610 C   0  0  0  0  0  3  0  0  0  0  0  0
  157.0840  213.2150  154.1000 F   0  0  0  0  0  0  0  0  0  0  0  0
  159.5740  210.8030  156.6110 C   0  0  0  0  0  1  0  0  0  0  0  0
  160.6770  210.2330  157.2510 O   0  0  0  0  0  0  0  0  0  0  0  0
  162.7240  206.7410  151.3890 N   0  0  0  0  0  2  0  0  0  0  0  0
  162.2260  205.3920  151.1790 C   0  0  0  0  0  2  0  0  0  0  0  0
  161.1650  205.4060  150.0950 C   0  0  0  0  0  2  0  0  0  0  0  0
  162.1240  203.7190  148.0040 O   0  0  0  0  0  1  0  0  0  0  0  0
  160.6160  204.0040  149.8750 C   0  0  1  0  0  3  0  0  0  0  0  0
  160.8130  203.4960  148.4340 C   0  0  2  0  0  3  0  0  0  0  0  0
  159.9370  201.4880  149.5140 O   0  0  0  0  0  0  0  0  0  0  0  0
  160.9410  201.5720  150.4960 C   0  0  0  0  0  2  0  0  0  0  0  0
  161.1880  203.0300  150.9080 C   0  0  0  0  0  2  0  0  0  0  0  0
  160.5040  201.9930  148.3270 C   0  0  0  0  0  2  0  0  0  0  0  0
  1 24  1  1  0  0  0
  2  5  1  1  0  0  0
  4 12  1  0  0  0  0
  4  8  2  0  0  0  0
  6 11  1  0  0  0  0
  7  3  1  6  0  0  0
  7  2  1  0  0  0  0
  7  1  1  0  0  0  0
  8 14  1  0  0  0  0
  9 13  1  6  0  0  0
  9  3  1  0  0  0  0
  9 15  1  0  0  0  0
 10  1  1  0  0  0  0
 11  2  1  0  0  0  0
 12 13  2  0  0  0  0
 13 18  1  0  0  0  0
 14  6  1  0  0  0  0
 14  3  2  0  0  0  0
 15 10  1  0  0  0  0
 16 22  1  0  0  0  0
 17 16  2  0  0  0  0
 18 20  2  0  0  0  0
 19 17  1  0  0  0  0
 20 16  1  0  0  0  0
 21 19  2  0  0  0  0
 21 18  1  0  0  0  0
 23 24  1  0  0  0  0
 25  8  1  0  0  0  0
 26 25  1  0  0  0  0
 27 26  1  0  0  0  0
 29 27  1  6  0  0  0
 29 33  1  0  0  0  0
 30 28  1  1  0  0  0
 30 29  1  0  0  0  0
 31 32  1  0  0  0  0
 32 33  1  0  0  0  0
 34 30  1  0  0  0  0
 34 31  1  0  0  0  0
M  END
>  <MODEL>
3

>  <REMARK>
 VINA RESULT:      -7.4      1.753      2.383
  Name = 
  6 active torsions:
  status: ('A' for Active; 'I' for Inactive)
    1  A    between atoms: C_1  and  O_19
    2  A    between atoms: C_3  and  C_13
    3  A    between atoms: C_3  and  C_17
    4  A    between atoms: C_12  and  C_28
    5  A    between atoms: C_17  and  N_29
    6  A    between atoms: C_18  and  N_29
                            x       y       z     vdW  Elec       q    Type
                         _______ _______ _______ _____ _____    ______ ____

>  <TORSDO>
F 6

$$$$
=
 OpenBabel11062407443D

 34 38  0  0  1  0  0  0  0  0999 V2000
  160.3410  211.8400  150.7800 C   0  0  1  0  0  3  0  0  0  0  0  0
  162.4420  210.8400  149.6430 C   0  0  1  0  0  3  0  0  0  0  0  0
  161.2230  209.6140  151.5410 C   0  0  0  0  0  0  0  0  0  0  0  0
  160.9580  206.8460  152.8120 C   0  0  0  0  0  3  0  0  0  0  0  0
  162.3790  211.9870  148.8720 F   0  0  0  0  0  0  0  0  0  0  0  0
  162.2810  208.3860  149.6740 C   0  0  0  0  0  2  0  0  0  0  0  0
  161.5920  210.9480  150.9220 C   0  0  2  0  0  3  0  0  0  0  0  0
  160.9740  207.1250  151.4970 C   0  0  0  0  0  0  0  0  0  0  0  0
  160.3390  209.6900  152.7570 C   0  0  1  0  0  3  0  0  0  0  0  0
  159.2790  211.4880  151.8410 C   0  0  0  0  0  2  0  0  0  0  0  0
  162.0570  209.6250  148.8200 C   0  0  0  0  0  2  0  0  0  0  0  0
  161.2820  207.7580  153.9290 C   0  0  0  0  0  3  0  0  0  0  0  0
  161.0560  209.0780  153.9350 C   0  0  0  0  0  0  0  0  0  0  0  0
  161.4580  208.4280  150.9360 C   0  0  0  0  0  0  0  0  0  0  0  0
  159.8920  211.0080  153.0170 O   0  0  0  0  0  0  0  0  0  0  0  0
  163.3740  211.0780  156.1840 C   0  0  0  0  0  0  0  0  0  0  0  0
  162.5330  211.3670  157.2600 C   0  0  0  0  0  3  0  0  0  0  0  0
  161.5640  209.8860  155.0740 C   0  0  0  0  0  0  0  0  0  0  0  0
  161.2110  210.9150  157.2540 C   0  0  0  0  0  3  0  0  0  0  0  0
  162.8920  210.3390  155.0990 C   0  0  0  0  0  3  0  0  0  0  0  0
  160.7310  210.1760  156.1690 C   0  0  0  0  0  3  0  0  0  0  0  0
  164.6570  211.5130  156.1900 F   0  0  0  0  0  0  0  0  0  0  0  0
  159.5160  213.8580  151.1820 C   0  0  0  0  0  1  0  0  0  0  0  0
  160.7090  213.1800  150.9180 O   0  0  0  0  0  0  0  0  0  0  0  0
  160.5710  206.0650  150.6230 N   0  0  0  0  0  2  0  0  0  0  0  0
  161.3190  204.8310  150.4420 C   0  0  0  0  0  2  0  0  0  0  0  0
  160.8500  204.1350  149.1790 C   0  0  0  0  0  2  0  0  0  0  0  0
  160.9230  202.8200  146.6490 O   0  0  0  0  0  1  0  0  0  0  0  0
  161.4880  204.7770  147.9560 C   0  0  1  0  0  3  0  0  0  0  0  0
  161.9360  203.7490  146.8980 C   0  0  2  0  0  3  0  0  0  0  0  0
  162.3420  205.8440  145.7070 O   0  0  0  0  0  0  0  0  0  0  0  0
  161.0150  206.2430  145.9480 C   0  0  0  0  0  2  0  0  0  0  0  0
  160.5670  205.8450  147.3620 C   0  0  0  0  0  2  0  0  0  0  0  0
  162.3120  204.4410  145.5760 C   0  0  0  0  0  2  0  0  0  0  0  0
  1 24  1  1  0  0  0
  1  7  1  0  0  0  0
  1 10  1  0  0  0  0
  2  5  1  6  0  0  0
  2  7  1  0  0  0  0
  4 12  1  0  0  0  0
  6 14  1  0  0  0  0
  7  3  1  6  0  0  0
  8  4  2  0  0  0  0
  9  3  1  6  0  0  0
  9 15  1  0  0  0  0
  9 13  1  0  0  0  0
 10 15  1  0  0  0  0
 11  2  1  0  0  0  0
 11  6  1  0  0  0  0
 12 13  2  0  0  0  0
 13 18  1  0  0  0  0
 14  8  1  0  0  0  0
 14  3  2  0  0  0  0
 16 22  1  0  0  0  0
 16 17  1  0  0  0  0
 18 20  1  0  0  0  0
 18 21  2  0  0  0  0
 19 17  2  0  0  0  0
 20 16  2  0  0  0  0
 21 19  1  0  0  0  0
 24 23  1  0  0  0  0
 25  8  1  0  0  0  0
 26 25  1  0  0  0  0
 27 26  1  0  0  0  0
 29 27  1  1  0  0  0
 30 28  1  6  0  0  0
 30 29  1  0  0  0  0
 31 32  1  0  0  0  0
 32 33  1  0  0  0  0
 33 29  1  0  0  0  0
 34 31  1  0  0  0  0
 34 30  1  0  0  0  0
M  END
>  <MODEL>
4

>  <REMARK>
 VINA RESULT:      -6.8      2.489      4.604
  Name = 
  6 active torsions:
  status: ('A' for Active; 'I' for Inactive)
    1  A    between atoms: C_1  and  O_19
    2  A    between atoms: C_3  and  C_13
    3  A    between atoms: C_3  and  C_17
    4  A    between atoms: C_12  and  C_28
    5  A    between atoms: C_17  and  N_29
    6  A    between atoms: C_18  and  N_29
                            x       y       z     vdW  Elec       q    Type
                         _______ _______ _______ _____ _____    ______ ____

>  <TORSDO>
F 6

$$$$
=
 OpenBabel11062407443D

 34 38  0  0  1  0  0  0  0  0999 V2000
  161.5930  208.0790  155.5890 C   0  0  1  0  0  3  0  0  0  0  0  0
  160.8310  206.7190  153.5220 C   0  0  1  0  0  3  0  0  0  0  0  0
  160.7230  209.2840  153.5640 C   0  0  0  0  0  0  0  0  0  0  0  0
  160.4770  211.6930  151.6970 C   0  0  0  0  0  3  0  0  0  0  0  0
  161.2190  205.6340  154.2880 F   0  0  0  0  0  0  0  0  0  0  0  0
  161.2470  208.0420  151.4910 C   0  0  0  0  0  2  0  0  0  0  0  0
  160.6610  207.9970  154.3630 C   0  0  2  0  0  3  0  0  0  0  0  0
  161.2590  210.6150  151.5150 C   0  0  0  0  0  0  0  0  0  0  0  0
  160.6220  210.5500  154.3710 C   0  0  1  0  0  3  0  0  0  0  0  0
  161.7820  209.5380  156.0530 C   0  0  0  0  0  2  0  0  0  0  0  0
  161.8000  206.9330  152.3740 C   0  0  0  0  0  2  0  0  0  0  0  0
  159.4090  211.8690  152.7030 C   0  0  0  0  0  3  0  0  0  0  0  0
  159.4090  211.3300  153.9290 C   0  0  0  0  0  0  0  0  0  0  0  0
  161.0760  209.3270  152.2590 C   0  0  0  0  0  0  0  0  0  0  0  0
  160.6330  210.3030  155.7650 O   0  0  0  0  0  0  0  0  0  0  0  0
  155.9440  210.7940  155.3920 C   0  0  0  0  0  0  0  0  0  0  0  0
  155.8890  211.8080  156.3500 C   0  0  0  0  0  3  0  0  0  0  0  0
  158.1990  211.4800  154.7780 C   0  0  0  0  0  0  0  0  0  0  0  0
  156.9790  212.6640  156.5230 C   0  0  0  0  0  3  0  0  0  0  0  0
  157.0910  210.6340  154.6090 C   0  0  0  0  0  3  0  0  0  0  0  0
  158.1260  212.5030  155.7390 C   0  0  0  0  0  3  0  0  0  0  0  0
  154.8860  209.9650  155.2200 F   0  0  0  0  0  0  0  0  0  0  0  0
  159.6700  207.3960  156.4550 C   0  0  0  0  0  1  0  0  0  0  0  0
  161.0530  207.3270  156.6350 O   0  0  0  0  0  0  0  0  0  0  0  0
  162.2540  210.7250  150.4910 N   0  0  0  0  0  2  0  0  0  0  0  0
  161.9530  210.8490  149.0740 C   0  0  0  0  0  2  0  0  0  0  0  0
  162.1580  212.2860  148.6360 C   0  0  0  0  0  2  0  0  0  0  0  0
  159.5440  212.9530  147.7070 O   0  0  0  0  0  1  0  0  0  0  0  0
  161.8430  212.4360  147.1550 C   0  0  1  0  0  3  0  0  0  0  0  0
  160.3510  212.2260  146.8280 C   0  0  2  0  0  3  0  0  0  0  0  0
  161.2000  212.9560  144.6560 O   0  0  0  0  0  0  0  0  0  0  0  0
  161.7520  214.1040  145.2520 C   0  0  0  0  0  2  0  0  0  0  0  0
  162.3610  213.7750  146.6230 C   0  0  0  0  0  2  0  0  0  0  0  0
  160.0320  212.6560  145.3860 C   0  0  0  0  0  2  0  0  0  0  0  0
  1 10  1  0  0  0  0
  1 24  1  1  0  0  0
  2  5  1  1  0  0  0
  2  7  1  0  0  0  0
  4 12  1  0  0  0  0
  6 14  1  0  0  0  0
  6 11  1  0  0  0  0
  7  3  1  6  0  0  0
  7  1  1  0  0  0  0
  8  4  2  0  0  0  0
  8 14  1  0  0  0  0
  9  3  1  6  0  0  0
  9 15  1  0  0  0  0
 11  2  1  0  0  0  0
 12 13  2  0  0  0  0
 13  9  1  0  0  0  0
 13 18  1  0  0  0  0
 14  3  2  0  0  0  0
 15 10  1  0  0  0  0
 16 17  1  0  0  0  0
 17 19  2  0  0  0  0
 18 21  2  0  0  0  0
 20 18  1  0  0  0  0
 20 16  2  0  0  0  0
 21 19  1  0  0  0  0
 22 16  1  0  0  0  0
 23 24  1  0  0  0  0
 25  8  1  0  0  0  0
 26 25  1  0  0  0  0
 27 26  1  0  0  0  0
 29 27  1  1  0  0  0
 30 29  1  0  0  0  0
 30 28  1  1  0  0  0
 31 32  1  0  0  0  0
 31 34  1  0  0  0  0
 32 33  1  0  0  0  0
 33 29  1  0  0  0  0
 34 30  1  0  0  0  0
M  END
>  <MODEL>
5

>  <REMARK>
 VINA RESULT:      -6.6      3.458      4.310
  Name = 
  6 active torsions:
  status: ('A' for Active; 'I' for Inactive)
    1  A    between atoms: C_1  and  O_19
    2  A    between atoms: C_3  and  C_13
    3  A    between atoms: C_3  and  C_17
    4  A    between atoms: C_12  and  C_28
    5  A    between atoms: C_17  and  N_29
    6  A    between atoms: C_18  and  N_29
                            x       y       z     vdW  Elec       q    Type
                         _______ _______ _______ _____ _____    ______ ____

>  <TORSDO>
F 6

$$$$
=
 OpenBabel11062407443D

 34 38  0  0  1  0  0  0  0  0999 V2000
  162.3650  204.7310  151.0380 C   0  0  1  0  0  3  0  0  0  0  0  0
  160.4560  205.2430  149.3650 C   0  0  1  0  0  3  0  0  0  0  0  0
  161.5500  207.0920  150.7700 C   0  0  0  0  0  0  0  0  0  0  0  0
  161.8550  210.1320  150.8930 C   0  0  0  0  0  3  0  0  0  0  0  0
  160.5260  203.8850  149.1100 F   0  0  0  0  0  0  0  0  0  0  0  0
  160.7640  207.5100  148.4640 C   0  0  0  0  0  2  0  0  0  0  0  0
  161.1640  205.6290  150.6760 C   0  0  2  0  0  3  0  0  0  0  0  0
  161.9550  209.3610  149.7970 C   0  0  0  0  0  0  0  0  0  0  0  0
  162.3000  207.4820  152.0150 C   0  0  1  0  0  3  0  0  0  0  0  0
  163.3340  205.4520  151.9970 C   0  0  0  0  0  2  0  0  0  0  0  0
  160.9960  206.0320  148.1870 C   0  0  0  0  0  2  0  0  0  0  0  0
  161.3650  209.7350  152.2290 C   0  0  0  0  0  3  0  0  0  0  0  0
  161.5070  208.5190  152.7720 C   0  0  0  0  0  0  0  0  0  0  0  0
  161.4510  207.9510  149.7300 C   0  0  0  0  0  0  0  0  0  0  0  0
  162.6360  206.3640  152.8150 O   0  0  0  0  0  0  0  0  0  0  0  0
  159.9780  208.9760  156.2190 C   0  0  0  0  0  0  0  0  0  0  0  0
  159.6220  207.6650  156.5400 C   0  0  0  0  0  3  0  0  0  0  0  0
  160.8380  208.2300  154.0670 C   0  0  0  0  0  0  0  0  0  0  0  0
  159.8760  206.6320  155.6340 C   0  0  0  0  0  3  0  0  0  0  0  0
  160.5850  209.2560  154.9920 C   0  0  0  0  0  3  0  0  0  0  0  0
  160.4830  206.9120  154.4070 C   0  0  0  0  0  3  0  0  0  0  0  0
  159.7360  209.9790  157.0980 F   0  0  0  0  0  0  0  0  0  0  0  0
  160.7980  203.9510  152.3990 C   0  0  0  0  0  1  0  0  0  0  0  0
  161.9030  203.5580  151.6400 O   0  0  0  0  0  0  0  0  0  0  0  0
  162.5090  209.9880  148.6340 N   0  0  0  0  0  2  0  0  0  0  0  0
  162.7780  211.4130  148.5280 C   0  0  0  0  0  2  0  0  0  0  0  0
  161.4850  212.1530  148.2460 C   0  0  0  0  0  2  0  0  0  0  0  0
  159.0780  213.2430  147.1720 O   0  0  0  0  0  1  0  0  0  0  0  0
  161.2210  212.2030  146.7480 C   0  0  1  0  0  3  0  0  0  0  0  0
  159.7210  212.2720  146.4000 C   0  0  2  0  0  3  0  0  0  0  0  0
  160.7220  212.5680  144.1910 O   0  0  0  0  0  0  0  0  0  0  0  0
  161.4980  213.6350  144.6800 C   0  0  0  0  0  2  0  0  0  0  0  0
  162.0140  213.3380  146.0960 C   0  0  0  0  0  2  0  0  0  0  0  0
  159.5110  212.6000  144.9120 C   0  0  0  0  0  2  0  0  0  0  0  0
  1 24  1  1  0  0  0
  1 10  1  0  0  0  0
  2  5  1  6  0  0  0
  2  7  1  0  0  0  0
  4 12  1  0  0  0  0
  6 14  1  0  0  0  0
  7  3  1  6  0  0  0
  7  1  1  0  0  0  0
  8  4  2  0  0  0  0
  9  3  1  6  0  0  0
  9 13  1  0  0  0  0
  9 15  1  0  0  0  0
 10 15  1  0  0  0  0
 11  6  1  0  0  0  0
 11  2  1  0  0  0  0
 12 13  2  0  0  0  0
 13 18  1  0  0  0  0
 14  8  1  0  0  0  0
 14  3  2  0  0  0  0
 16 17  1  0  0  0  0
 16 22  1  0  0  0  0
 18 21  2  0  0  0  0
 18 20  1  0  0  0  0
 19 17  2  0  0  0  0
 20 16  2  0  0  0  0
 21 19  1  0  0  0  0
 24 23  1  0  0  0  0
 25  8  1  0  0  0  0
 26 25  1  0  0  0  0
 27 26  1  0  0  0  0
 29 27  1  1  0  0  0
 30 29  1  0  0  0  0
 30 28  1  1  0  0  0
 31 32  1  0  0  0  0
 31 34  1  0  0  0  0
 32 33  1  0  0  0  0
 33 29  1  0  0  0  0
 34 30  1  0  0  0  0
M  END
>  <MODEL>
6

>  <REMARK>
 VINA RESULT:      -5.8      3.805      5.933
  Name = 
  6 active torsions:
  status: ('A' for Active; 'I' for Inactive)
    1  A    between atoms: C_1  and  O_19
    2  A    between atoms: C_3  and  C_13
    3  A    between atoms: C_3  and  C_17
    4  A    between atoms: C_12  and  C_28
    5  A    between atoms: C_17  and  N_29
    6  A    between atoms: C_18  and  N_29
                            x       y       z     vdW  Elec       q    Type
                         _______ _______ _______ _____ _____    ______ ____

>  <TORSDO>
F 6

$$$$
