=
 OpenBabel11062409043D

 37 43  0  0  1  0  0  0  0  0999 V2000
  161.7500  210.0930  151.1080 C   0  0  0  0  0  3  0  0  0  0  0  0
  155.5700  211.9430  154.7500 C   0  0  0  0  0  3  0  0  0  0  0  0
  160.9730  213.3600  147.3380 C   0  0  0  0  0  2  0  0  0  0  0  0
  158.8000  214.2400  150.8210 O   0  0  0  0  0  0  0  0  0  0  0  0
  156.9480  212.1290  154.9150 C   0  0  0  0  0  0  0  0  0  0  0  0
  159.7570  212.7010  155.2470 C   0  0  0  0  0  2  0  0  0  0  0  0
  157.5300  211.9360  156.1870 C   0  0  0  0  0  0  0  0  0  0  0  0
  158.7840  213.6150  148.4940 C   0  0  2  0  0  3  0  0  0  0  0  0
  160.0870  213.0290  152.8170 C   0  0  0  0  0  2  0  0  0  0  0  0
  159.6310  213.6930  149.7940 C   0  0  2  0  0  3  0  0  0  0  0  0
  159.2620  212.2510  153.8690 C   0  0  1  0  0  0  0  0  0  0  0  0
  159.0160  212.0160  156.4000 C   0  0  0  0  0  2  0  0  0  0  0  0
  157.5880  212.9110  148.7260 O   0  0  0  0  0  0  0  0  0  0  0  0
  155.3540  211.3500  157.0860 C   0  0  0  0  0  3  0  0  0  0  0  0
  156.7280  211.5350  157.2600 C   0  0  0  0  0  3  0  0  0  0  0  0
  160.2070  212.3190  150.2270 C   0  0  1  0  0  3  0  0  0  0  0  0
  161.9550  210.6260  149.7470 C   0  0  0  0  0  3  0  0  0  0  0  0
  156.6950  214.1300  151.9230 C   0  0  0  0  0  3  0  0  0  0  0  0
  156.7570  213.7460  149.4990 C   0  0  0  0  0  2  0  0  0  0  0  0
  161.2870  211.7060  149.3080 C   0  0  0  0  0  0  0  0  0  0  0  0
  159.3940  210.7200  153.7350 C   0  0  0  0  0  2  0  0  0  0  0  0
  157.4140  214.0500  150.8090 C   0  0  0  0  0  0  0  0  0  0  0  0
  160.7700  212.2580  151.6730 C   0  0  2  0  0  3  0  0  0  0  0  0
  159.4980  213.0410  147.2810 C   0  0  0  0  0  2  0  0  0  0  0  0
  157.7620  212.6150  153.7460 C   0  0  2  0  0  3  0  0  0  0  0  0
  161.7150  212.1820  147.9400 C   0  0  0  0  0  2  0  0  0  0  0  0
  160.7160  210.3030  153.2770 N   0  0  0  0  0  0  0  0  0  0  0  0
  154.7760  211.5530  155.8310 C   0  0  0  0  0  3  0  0  0  0  0  0
  161.1460  210.8500  152.0300 C   0  0  0  0  0  0  0  0  0  0  0  0
  157.4630  214.4110  153.5160 S   0  0  0  0  0  0  0  0  0  0  0  0
  161.4730  209.2270  153.9280 C   0  0  2  0  0  3  0  0  0  0  0  0
  160.4740  207.2280  154.6690 O   0  0  0  0  0  0  0  0  0  0  0  0
  160.9150  207.8430  153.7110 C   0  0  0  0  0  0  0  0  0  0  0  0
  162.1430  206.4500  152.0660 C   0  0  0  0  0  1  0  0  0  0  0  0
  160.8660  207.2190  152.3490 C   0  0  0  0  0  2  0  0  0  0  0  0
  161.8430  209.5500  155.3760 C   0  0  0  0  0  2  0  0  0  0  0  0
  162.7500  210.7620  155.4910 C   0  0  0  0  0  1  0  0  0  0  0  0
  1 29  2  0  0  0  0
  2  5  2  0  0  0  0
  2 28  1  0  0  0  0
  3 26  1  0  0  0  0
  5  7  1  0  0  0  0
  6 12  1  0  0  0  0
  7 12  1  0  0  0  0
  7 15  2  0  0  0  0
  8 24  1  6  0  0  0
  8 13  1  0  0  0  0
  8 10  1  0  0  0  0
 10 16  1  0  0  0  0
 10  4  1  1  0  0  0
 11  9  1  6  0  0  0
 11  6  1  0  0  0  0
 13 19  1  0  0  0  0
 14 15  1  0  0  0  0
 16 20  1  6  0  0  0
 16 23  1  0  0  0  0
 17  1  1  0  0  0  0
 18 30  1  0  0  0  0
 19 22  1  0  0  0  0
 20 17  2  0  0  0  0
 21 11  1  0  0  0  0
 22  4  1  0  0  0  0
 22 18  2  0  0  0  0
 23 29  1  0  0  0  0
 23  9  1  1  0  0  0
 24  3  1  0  0  0  0
 25 30  1  1  0  0  0
 25 11  1  0  0  0  0
 25  5  1  0  0  0  0
 26 20  1  0  0  0  0
 27 21  1  0  0  0  0
 27 31  1  0  0  0  0
 28 14  2  0  0  0  0
 29 27  1  0  0  0  0
 31 36  1  1  0  0  0
 33 31  1  0  0  0  0
 33 32  2  0  0  0  0
 34 35  1  0  0  0  0
 35 33  1  0  0  0  0
 36 37  1  0  0  0  0
M  END
>  <MODEL>
1

>  <REMARK>
 VINA RESULT:      -4.1      0.000      0.000
  Name = 
  4 active torsions:
  status: ('A' for Active; 'I' for Inactive)
    1  A    between atoms: C_11  and  C_26
    2  A    between atoms: C_17  and  C_23
    3  A    between atoms: C_17  and  C_26
    4  A    between atoms: C_26  and  N_33
                            x       y       z     vdW  Elec       q    Type
                         _______ _______ _______ _____ _____    ______ ____

>  <TORSDO>
F 4

$$$$
=
 OpenBabel11062409043D

 37 43  0  0  1  0  0  0  0  0999 V2000
  161.9370  210.2010  150.0810 C   0  0  0  0  0  3  0  0  0  0  0  0
  155.8260  211.7410  153.9750 C   0  0  0  0  0  3  0  0  0  0  0  0
  161.2160  213.9150  146.7380 C   0  0  0  0  0  2  0  0  0  0  0  0
  159.0860  214.4190  150.3200 O   0  0  0  0  0  0  0  0  0  0  0  0
  157.2090  211.8750  154.1480 C   0  0  0  0  0  0  0  0  0  0  0  0
  160.0340  212.3380  154.5210 C   0  0  0  0  0  2  0  0  0  0  0  0
  157.7950  211.5180  155.3830 C   0  0  0  0  0  0  0  0  0  0  0  0
  159.0400  214.0790  147.9350 C   0  0  2  0  0  3  0  0  0  0  0  0
  160.3560  212.9480  152.1450 C   0  0  0  0  0  2  0  0  0  0  0  0
  159.8970  213.9810  149.2280 C   0  0  2  0  0  3  0  0  0  0  0  0
  159.5190  212.0690  153.1030 C   0  0  1  0  0  0  0  0  0  0  0  0
  159.2830  211.5380  155.5900 C   0  0  0  0  0  2  0  0  0  0  0  0
  157.8290  213.3800  148.0930 O   0  0  0  0  0  0  0  0  0  0  0  0
  155.6110  210.8780  156.2250 C   0  0  0  0  0  3  0  0  0  0  0  0
  156.9910  211.0090  156.4070 C   0  0  0  0  0  3  0  0  0  0  0  0
  160.4430  212.5520  149.4880 C   0  0  1  0  0  3  0  0  0  0  0  0
  162.1470  210.8890  148.7920 C   0  0  0  0  0  3  0  0  0  0  0  0
  156.9860  214.2260  151.4200 C   0  0  0  0  0  3  0  0  0  0  0  0
  157.0230  214.1350  148.9670 C   0  0  0  0  0  2  0  0  0  0  0  0
  161.5020  212.0290  148.4920 C   0  0  0  0  0  0  0  0  0  0  0  0
  159.6150  210.5620  152.7860 C   0  0  0  0  0  2  0  0  0  0  0  0
  157.6960  214.2640  150.2990 C   0  0  0  0  0  0  0  0  0  0  0  0
  161.0130  212.3050  150.9110 C   0  0  2  0  0  3  0  0  0  0  0  0
  159.7320  213.6390  146.6560 C   0  0  0  0  0  2  0  0  0  0  0  0
  158.0280  212.4800  153.0380 C   0  0  2  0  0  3  0  0  0  0  0  0
  161.9330  212.6570  147.1870 C   0  0  0  0  0  2  0  0  0  0  0  0
  160.9220  210.1730  152.2690 N   0  0  0  0  0  0  0  0  0  0  0  0
  155.0300  211.2430  155.0080 C   0  0  0  0  0  3  0  0  0  0  0  0
  161.3580  210.8560  151.0930 C   0  0  0  0  0  0  0  0  0  0  0  0
  157.7700  214.2960  153.0290 S   0  0  0  0  0  0  0  0  0  0  0  0
  161.6580  209.0090  152.7790 C   0  0  2  0  0  3  0  0  0  0  0  0
  160.3550  207.5640  151.4550 O   0  0  0  0  0  0  0  0  0  0  0  0
  161.4270  207.7320  152.0120 C   0  0  0  0  0  0  0  0  0  0  0  0
  161.8730  205.2940  151.8860 C   0  0  0  0  0  1  0  0  0  0  0  0
  162.4900  206.6810  151.8980 C   0  0  0  0  0  2  0  0  0  0  0  0
  161.5710  208.8690  154.3000 C   0  0  0  0  0  2  0  0  0  0  0  0
  160.6670  207.7270  154.7290 C   0  0  0  0  0  1  0  0  0  0  0  0
  1 29  2  0  0  0  0
  2  5  2  0  0  0  0
  2 28  1  0  0  0  0
  3 26  1  0  0  0  0
  5  7  1  0  0  0  0
  6 12  1  0  0  0  0
  7 12  1  0  0  0  0
  7 15  2  0  0  0  0
  8 24  1  6  0  0  0
  8 13  1  0  0  0  0
  8 10  1  0  0  0  0
 10 16  1  0  0  0  0
 10  4  1  1  0  0  0
 11  9  1  6  0  0  0
 11  6  1  0  0  0  0
 13 19  1  0  0  0  0
 14 15  1  0  0  0  0
 16 20  1  6  0  0  0
 16 23  1  0  0  0  0
 17  1  1  0  0  0  0
 18 30  1  0  0  0  0
 19 22  1  0  0  0  0
 20 17  2  0  0  0  0
 21 11  1  0  0  0  0
 22  4  1  0  0  0  0
 22 18  2  0  0  0  0
 23 29  1  0  0  0  0
 23  9  1  1  0  0  0
 24  3  1  0  0  0  0
 25 30  1  1  0  0  0
 25 11  1  0  0  0  0
 25  5  1  0  0  0  0
 26 20  1  0  0  0  0
 27 31  1  0  0  0  0
 27 21  1  0  0  0  0
 28 14  2  0  0  0  0
 29 27  1  0  0  0  0
 31 36  1  1  0  0  0
 32 33  2  0  0  0  0
 33 31  1  0  0  0  0
 34 35  1  0  0  0  0
 35 33  1  0  0  0  0
 36 37  1  0  0  0  0
M  END
>  <MODEL>
2

>  <REMARK>
 VINA RESULT:      -3.6      1.056      1.246
  Name = 
  4 active torsions:
  status: ('A' for Active; 'I' for Inactive)
    1  A    between atoms: C_11  and  C_26
    2  A    between atoms: C_17  and  C_23
    3  A    between atoms: C_17  and  C_26
    4  A    between atoms: C_26  and  N_33
                            x       y       z     vdW  Elec       q    Type
                         _______ _______ _______ _____ _____    ______ ____

>  <TORSDO>
F 4

$$$$
=
 OpenBabel11062409043D

 37 43  0  0  1  0  0  0  0  0999 V2000
  158.7850  210.7550  153.7760 C   0  0  0  0  0  3  0  0  0  0  0  0
  159.8270  211.6650  146.4990 C   0  0  0  0  0  3  0  0  0  0  0  0
  161.7310  206.6660  154.0840 C   0  0  0  0  0  2  0  0  0  0  0  0
  162.4180  209.0000  150.6620 O   0  0  0  0  0  0  0  0  0  0  0  0
  160.2280  212.3070  147.6770 C   0  0  0  0  0  0  0  0  0  0  0  0
  161.2350  213.5950  150.0570 C   0  0  0  0  0  2  0  0  0  0  0  0
  160.1810  213.7170  147.7540 C   0  0  0  0  0  0  0  0  0  0  0  0
  161.6990  206.9030  151.6060 C   0  0  2  0  0  3  0  0  0  0  0  0
  161.5040  211.4370  151.2380 C   0  0  0  0  0  2  0  0  0  0  0  0
  161.9610  208.4090  151.8810 C   0  0  2  0  0  3  0  0  0  0  0  0
  160.6560  212.1810  150.1800 C   0  0  1  0  0  0  0  0  0  0  0  0
  160.4960  214.4530  149.0250 C   0  0  0  0  0  2  0  0  0  0  0  0
  160.8320  206.7460  150.5090 O   0  0  0  0  0  0  0  0  0  0  0  0
  159.3100  213.8030  145.4910 C   0  0  0  0  0  3  0  0  0  0  0  0
  159.7100  214.4530  146.6620 C   0  0  0  0  0  3  0  0  0  0  0  0
  160.7100  209.1560  152.4170 C   0  0  1  0  0  3  0  0  0  0  0  0
  159.2840  209.5200  154.4140 C   0  0  0  0  0  3  0  0  0  0  0  0
  162.0370  209.2540  148.3280 C   0  0  0  0  0  3  0  0  0  0  0  0
  161.5630  207.0730  149.3510 C   0  0  0  0  0  2  0  0  0  0  0  0
  160.2300  208.7640  153.8320 C   0  0  0  0  0  0  0  0  0  0  0  0
  159.1580  212.2550  150.5440 C   0  0  0  0  0  2  0  0  0  0  0  0
  162.0200  208.4970  149.4190 C   0  0  0  0  0  0  0  0  0  0  0  0
  160.7980  210.7060  152.3930 C   0  0  2  0  0  3  0  0  0  0  0  0
  161.1890  206.1000  152.7920 C   0  0  0  0  0  2  0  0  0  0  0  0
  160.7820  211.4790  148.8060 C   0  0  2  0  0  3  0  0  0  0  0  0
  160.7070  207.6100  154.6830 C   0  0  0  0  0  2  0  0  0  0  0  0
  158.9280  212.3580  151.9810 N   0  0  0  0  0  0  0  0  0  0  0  0
  159.3680  212.4100  145.4100 C   0  0  0  0  0  3  0  0  0  0  0  0
  159.4810  211.3120  152.7790 C   0  0  0  0  0  0  0  0  0  0  0  0
  162.5000  210.9830  148.3950 S   0  0  0  0  0  0  0  0  0  0  0  0
  158.0090  213.3440  152.5640 C   0  0  2  0  0  3  0  0  0  0  0  0
  155.7760  213.7870  151.9610 O   0  0  0  0  0  0  0  0  0  0  0  0
  156.9460  213.8500  151.6200 C   0  0  0  0  0  0  0  0  0  0  0  0
  156.3430  213.9600  149.2160 C   0  0  0  0  0  1  0  0  0  0  0  0
  157.2960  214.4480  150.2920 C   0  0  0  0  0  2  0  0  0  0  0  0
  158.7290  214.4320  153.3620 C   0  0  0  0  0  2  0  0  0  0  0  0
  158.5820  214.2490  154.8620 C   0  0  0  0  0  1  0  0  0  0  0  0
  1 17  1  0  0  0  0
  2  5  1  0  0  0  0
  3 26  1  0  0  0  0
  5  7  2  0  0  0  0
  7 12  1  0  0  0  0
  8 10  1  0  0  0  0
  8 24  1  1  0  0  0
 10  4  1  6  0  0  0
 10 16  1  0  0  0  0
 11  6  1  6  0  0  0
 11 21  1  0  0  0  0
 11  9  1  0  0  0  0
 12  6  1  0  0  0  0
 13  8  1  0  0  0  0
 14 15  2  0  0  0  0
 15  7  1  0  0  0  0
 16 20  1  1  0  0  0
 18 30  1  0  0  0  0
 18 22  2  0  0  0  0
 19 22  1  0  0  0  0
 19 13  1  0  0  0  0
 20 17  2  0  0  0  0
 20 26  1  0  0  0  0
 21 27  1  0  0  0  0
 22  4  1  0  0  0  0
 23  9  1  6  0  0  0
 23 16  1  0  0  0  0
 23 29  1  0  0  0  0
 24  3  1  0  0  0  0
 25  5  1  6  0  0  0
 25 11  1  0  0  0  0
 27 31  1  0  0  0  0
 27 29  1  0  0  0  0
 28 14  1  0  0  0  0
 28  2  2  0  0  0  0
 29  1  2  0  0  0  0
 30 25  1  0  0  0  0
 31 36  1  6  0  0  0
 33 32  2  0  0  0  0
 33 31  1  0  0  0  0
 34 35  1  0  0  0  0
 35 33  1  0  0  0  0
 36 37  1  0  0  0  0
M  END
>  <MODEL>
3

>  <REMARK>
 VINA RESULT:      -2.3      2.666      7.342
  Name = 
  4 active torsions:
  status: ('A' for Active; 'I' for Inactive)
    1  A    between atoms: C_11  and  C_26
    2  A    between atoms: C_17  and  C_23
    3  A    between atoms: C_17  and  C_26
    4  A    between atoms: C_26  and  N_33
                            x       y       z     vdW  Elec       q    Type
                         _______ _______ _______ _____ _____    ______ ____

>  <TORSDO>
F 4

$$$$
