=
 OpenBabel11062410323D

 43 46  0  0  1  0  0  0  0  0999 V2000
  162.1040  208.3620  151.0230 C   0  0  1  0  0  3  0  0  0  0  0  0
  162.0870  209.3380  149.8840 C   0  0  0  0  0  0  0  0  0  0  0  0
  161.7350  208.9490  148.7380 O   0  0  0  0  0  0  0  0  0  0  0  0
  162.3960  210.6920  150.0720 O   0  0  0  0  0  0  0  0  0  0  0  0
  161.7580  211.7580  149.4220 C   0  0  0  0  0  0  0  0  0  0  0  0
  160.8030  212.3770  149.9630 O   0  0  0  0  0  0  0  0  0  0  0  0
  162.2460  212.2040  148.0910 C   0  0  0  0  0  2  0  0  0  0  0  0
  161.0870  212.2760  147.1130 C   0  0  0  0  0  2  0  0  0  0  0  0
  161.0850  213.6160  146.3980 C   0  0  1  0  0  3  0  0  0  0  0  0
  162.3140  214.3960  146.8180 C   0  0  0  0  0  1  0  0  0  0  0  0
  161.1300  213.4120  144.8910 C   0  0  0  0  0  2  0  0  0  0  0  0
  162.4790  213.8200  144.3300 C   0  0  0  0  0  2  0  0  0  0  0  0
  162.9570  212.8140  143.4920 O   0  0  0  0  0  0  0  0  0  0  0  0
  161.8430  212.4090  142.7520 C   0  0  0  0  0  2  0  0  0  0  0  0
  162.2700  211.8280  141.4110 C   0  0  1  0  0  3  0  0  0  0  0  0
  162.8860  212.6180  139.1690 C   0  0  0  0  0  3  0  0  0  0  0  0
  161.2390  210.7730  139.2760 C   0  0  0  0  0  2  0  0  0  0  0  0
  162.5750  211.2310  138.6850 C   0  0  0  0  0  2  0  0  0  0  0  0
  161.1570  210.9510  140.8070 C   0  0  0  0  0  2  0  0  0  0  0  0
  162.7340  212.9050  140.4660 C   0  0  0  0  0  3  0  0  0  0  0  0
  160.8200  208.4880  151.8350 C   0  0  0  0  0  2  0  0  0  0  0  0
  158.3370  211.4350  155.4280 C   0  0  0  0  0  2  0  0  0  0  0  0
  160.8710  207.3840  154.0460 C   0  0  0  0  0  2  0  0  0  0  0  0
  160.3000  209.7760  155.4410 C   0  0  1  0  0  3  0  0  0  0  0  0
  159.3240  212.0200  153.1730 C   0  0  0  0  0  2  0  0  0  0  0  0
  158.7780  212.5550  154.4920 C   0  0  0  0  0  2  0  0  0  0  0  0
  160.2050  209.8110  153.9010 C   0  0  1  0  0  3  0  0  0  0  0  0
  159.5450  210.8900  156.1810 C   0  0  0  0  0  2  0  0  0  0  0  0
  160.5840  211.1850  153.3630 C   0  0  0  0  0  2  0  0  0  0  0  0
  161.1050  208.7080  153.3160 C   0  0  2  0  0  3  0  0  0  0  0  0
  160.8960  207.6130  155.5560 C   0  0  0  0  0  2  0  0  0  0  0  0
  159.8850  208.5210  155.9170 O   0  0  0  0  0  0  0  0  0  0  0  0
  162.2930  206.9470  150.4960 C   0  0  0  0  0  2  0  0  0  0  0  0
  160.9490  206.2530  150.3450 C   0  0  0  0  0  2  0  0  0  0  0  0
  161.0290  204.8210  150.8510 C   0  0  0  0  0  2  0  0  0  0  0  0
  161.3360  203.3370  147.3770 C   0  0  0  0  0  3  0  0  0  0  0  0
  160.9430  202.0120  147.5970 C   0  0  0  0  0  0  0  0  0  0  0  0
  160.5800  202.5270  149.9430 C   0  0  0  0  0  3  0  0  0  0  0  0
  161.3540  204.2530  148.4320 C   0  0  0  0  0  3  0  0  0  0  0  0
  160.9730  203.8500  149.7170 C   0  0  0  0  0  0  0  0  0  0  0  0
  160.5640  201.6110  148.8880 C   0  0  0  0  0  3  0  0  0  0  0  0
  160.2560  201.3900  145.3030 C   0  0  0  0  0  1  0  0  0  0  0  0
  160.9400  201.1200  146.5210 O   0  0  0  0  0  0  0  0  0  0  0  0
  1 33  1  6  0  0  0
  1 21  1  0  0  0  0
  2  4  1  0  0  0  0
  2  1  1  0  0  0  0
  3  2  2  0  0  0  0
  5  6  2  0  0  0  0
  5  4  1  0  0  0  0
  7  5  1  0  0  0  0
  8  7  1  0  0  0  0
  9 10  1  1  0  0  0
  9  8  1  0  0  0  0
 11  9  1  0  0  0  0
 12 11  1  0  0  0  0
 13 12  1  0  0  0  0
 14 13  1  0  0  0  0
 15 14  1  1  0  0  0
 16 20  2  0  0  0  0
 17 19  1  0  0  0  0
 18 16  1  0  0  0  0
 18 17  1  0  0  0  0
 19 15  1  0  0  0  0
 20 15  1  0  0  0  0
 22 28  1  0  0  0  0
 23 31  1  0  0  0  0
 24 32  1  0  0  0  0
 24 28  1  1  0  0  0
 25 29  1  0  0  0  0
 25 26  1  0  0  0  0
 26 22  1  0  0  0  0
 27 29  1  6  0  0  0
 27 24  1  0  0  0  0
 30 21  1  6  0  0  0
 30 27  1  0  0  0  0
 30 23  1  0  0  0  0
 31 32  1  0  0  0  0
 34 33  1  0  0  0  0
 34 35  1  0  0  0  0
 36 37  2  0  0  0  0
 36 39  1  0  0  0  0
 37 41  1  0  0  0  0
 39 40  2  0  0  0  0
 40 38  1  0  0  0  0
 40 35  1  0  0  0  0
 41 38  2  0  0  0  0
 42 43  1  0  0  0  0
 43 37  1  0  0  0  0
M  END
>  <MODEL>
1

>  <REMARK>
 VINA RESULT:      -8.0      0.000      0.000
  Name = 
  18 active torsions:
  status: ('A' for Active; 'I' for Inactive)
    1  A    between atoms: C_1  and  C_34
    2  A    between atoms: C_1  and  C_35
    3  A    between atoms: C_2  and  O_6
    4  A    between atoms: C_2  and  C_27
    5  A    between atoms: C_3  and  C_4
    6  A    between atoms: C_3  and  C_12
    7  A    between atoms: C_4  and  C_15
    8  A    between atoms: O_6  and  C_12
    9  A    between atoms: C_10  and  C_15
   10  A    between atoms: C_10  and  C_41
   11  A    between atoms: C_11  and  C_14
   12  A    between atoms: C_13  and  C_27
   13  A    between atoms: C_13  and  C_30
   14  A    between atoms: C_14  and  O_22
   15  A    between atoms: C_19  and  O_37
   16  A    between atoms: O_22  and  C_41
   17  A    between atoms: C_27  and  C_38
   18  A    between atoms: C_34  and  C_38
                            x       y       z     vdW  Elec       q    Type
                         _______ _______ _______ _____ _____    ______ ____

>  <TORSDO>
F 18

$$$$
=
 OpenBabel11062410323D

 43 46  0  0  1  0  0  0  0  0999 V2000
  162.1840  209.1460  150.0930 C   0  0  1  0  0  3  0  0  0  0  0  0
  161.9540  210.5810  149.7210 C   0  0  0  0  0  0  0  0  0  0  0  0
  161.4660  211.3720  150.5710 O   0  0  0  0  0  0  0  0  0  0  0  0
  162.3240  211.0820  148.4660 O   0  0  0  0  0  0  0  0  0  0  0  0
  161.9330  212.3270  147.9530 C   0  0  0  0  0  0  0  0  0  0  0  0
  162.6420  213.3550  148.1190 O   0  0  0  0  0  0  0  0  0  0  0  0
  160.6840  212.4330  147.1540 C   0  0  0  0  0  2  0  0  0  0  0  0
  161.0200  212.7610  145.7100 C   0  0  0  0  0  2  0  0  0  0  0  0
  159.9910  212.1460  144.7780 C   0  0  1  0  0  3  0  0  0  0  0  0
  158.6170  212.6500  145.1670 C   0  0  0  0  0  1  0  0  0  0  0  0
  160.2700  212.5540  143.3390 C   0  0  0  0  0  2  0  0  0  0  0  0
  161.7430  212.8500  143.1360 C   0  0  0  0  0  2  0  0  0  0  0  0
  162.2520  212.0190  142.1390 O   0  0  0  0  0  0  0  0  0  0  0  0
  161.1260  211.4130  141.5750 C   0  0  0  0  0  2  0  0  0  0  0  0
  161.3210  211.2030  140.0790 C   0  0  1  0  0  3  0  0  0  0  0  0
  161.7020  209.3540  138.5100 C   0  0  0  0  0  3  0  0  0  0  0  0
  163.1790  211.3270  138.2730 C   0  0  0  0  0  2  0  0  0  0  0  0
  162.2130  210.3860  137.5470 C   0  0  0  0  0  2  0  0  0  0  0  0
  162.6000  211.9030  139.5820 C   0  0  0  0  0  2  0  0  0  0  0  0
  161.2830  209.7410  139.7190 C   0  0  0  0  0  3  0  0  0  0  0  0
  161.0400  208.6450  150.9670 C   0  0  0  0  0  2  0  0  0  0  0  0
  159.6940  209.4170  156.0020 C   0  0  0  0  0  2  0  0  0  0  0  0
  161.1370  206.5200  152.2250 C   0  0  0  0  0  2  0  0  0  0  0  0
  161.2540  207.8160  154.7350 C   0  0  1  0  0  3  0  0  0  0  0  0
  160.4900  211.0220  154.2150 C   0  0  0  0  0  2  0  0  0  0  0  0
  160.2370  210.8100  155.7030 C   0  0  0  0  0  2  0  0  0  0  0  0
  160.9770  208.6910  153.4950 C   0  0  1  0  0  3  0  0  0  0  0  0
  160.8460  208.4240  156.0850 C   0  0  0  0  0  2  0  0  0  0  0  0
  161.5630  210.0870  153.6710 C   0  0  0  0  0  2  0  0  0  0  0  0
  161.5470  207.9930  152.2480 C   0  0  2  0  0  3  0  0  0  0  0  0
  161.3970  205.8880  153.5910 C   0  0  0  0  0  2  0  0  0  0  0  0
  160.6510  206.5580  154.5760 O   0  0  0  0  0  0  0  0  0  0  0  0
  162.3380  208.2990  148.8390 C   0  0  0  0  0  2  0  0  0  0  0  0
  161.1220  207.4080  148.6470 C   0  0  0  0  0  2  0  0  0  0  0  0
  161.2380  206.6190  147.3510 C   0  0  0  0  0  2  0  0  0  0  0  0
  161.4100  202.8690  146.8260 C   0  0  0  0  0  3  0  0  0  0  0  0
  161.1640  202.3900  148.1170 C   0  0  0  0  0  0  0  0  0  0  0  0
  160.9390  204.6760  148.9070 C   0  0  0  0  0  3  0  0  0  0  0  0
  161.4250  204.2450  146.5740 C   0  0  0  0  0  3  0  0  0  0  0  0
  161.1860  205.1500  147.6140 C   0  0  0  0  0  0  0  0  0  0  0  0
  160.9280  203.3010  149.1580 C   0  0  0  0  0  3  0  0  0  0  0  0
  161.4070  200.0670  147.2990 C   0  0  0  0  0  1  0  0  0  0  0  0
  161.1610  201.0090  148.3350 O   0  0  0  0  0  0  0  0  0  0  0  0
  1 33  1  6  0  0  0
  1 21  1  0  0  0  0
  2  1  1  0  0  0  0
  2  3  2  0  0  0  0
  4  2  1  0  0  0  0
  5  6  2  0  0  0  0
  5  4  1  0  0  0  0
  7  5  1  0  0  0  0
  8  7  1  0  0  0  0
  9 10  1  1  0  0  0
  9  8  1  0  0  0  0
 11  9  1  0  0  0  0
 12 11  1  0  0  0  0
 13 12  1  0  0  0  0
 14 13  1  0  0  0  0
 15 14  1  1  0  0  0
 16 20  2  0  0  0  0
 17 19  1  0  0  0  0
 18 17  1  0  0  0  0
 18 16  1  0  0  0  0
 19 15  1  0  0  0  0
 20 15  1  0  0  0  0
 22 28  1  0  0  0  0
 23 30  1  0  0  0  0
 23 31  1  0  0  0  0
 24 28  1  1  0  0  0
 25 26  1  0  0  0  0
 26 22  1  0  0  0  0
 27 29  1  1  0  0  0
 27 24  1  0  0  0  0
 29 25  1  0  0  0  0
 30 21  1  6  0  0  0
 30 27  1  0  0  0  0
 31 32  1  0  0  0  0
 32 24  1  0  0  0  0
 34 33  1  0  0  0  0
 35 40  1  0  0  0  0
 35 34  1  0  0  0  0
 36 37  1  0  0  0  0
 37 43  1  0  0  0  0
 37 41  2  0  0  0  0
 38 41  1  0  0  0  0
 39 36  2  0  0  0  0
 39 40  1  0  0  0  0
 40 38  2  0  0  0  0
 42 43  1  0  0  0  0
M  END
>  <MODEL>
2

>  <REMARK>
 VINA RESULT:      -7.8      1.417      2.246
  Name = 
  18 active torsions:
  status: ('A' for Active; 'I' for Inactive)
    1  A    between atoms: C_1  and  C_34
    2  A    between atoms: C_1  and  C_35
    3  A    between atoms: C_2  and  O_6
    4  A    between atoms: C_2  and  C_27
    5  A    between atoms: C_3  and  C_4
    6  A    between atoms: C_3  and  C_12
    7  A    between atoms: C_4  and  C_15
    8  A    between atoms: O_6  and  C_12
    9  A    between atoms: C_10  and  C_15
   10  A    between atoms: C_10  and  C_41
   11  A    between atoms: C_11  and  C_14
   12  A    between atoms: C_13  and  C_27
   13  A    between atoms: C_13  and  C_30
   14  A    between atoms: C_14  and  O_22
   15  A    between atoms: C_19  and  O_37
   16  A    between atoms: O_22  and  C_41
   17  A    between atoms: C_27  and  C_38
   18  A    between atoms: C_34  and  C_38
                            x       y       z     vdW  Elec       q    Type
                         _______ _______ _______ _____ _____    ______ ____

>  <TORSDO>
F 18

$$$$
=
 OpenBabel11062410323D

 43 46  0  0  1  0  0  0  0  0999 V2000
  162.2800  209.1990  150.9640 C   0  0  1  0  0  3  0  0  0  0  0  0
  162.0730  209.8560  149.6310 C   0  0  0  0  0  0  0  0  0  0  0  0
  161.9030  209.1430  148.6070 O   0  0  0  0  0  0  0  0  0  0  0  0
  162.0030  211.2500  149.5030 O   0  0  0  0  0  0  0  0  0  0  0  0
  162.3260  211.9650  148.3420 C   0  0  0  0  0  0  0  0  0  0  0  0
  163.5170  212.0640  147.9430 O   0  0  0  0  0  0  0  0  0  0  0  0
  161.2410  212.5810  147.5330 C   0  0  0  0  0  2  0  0  0  0  0  0
  161.7950  213.7410  146.7240 C   0  0  0  0  0  2  0  0  0  0  0  0
  161.4770  213.5530  145.2510 C   0  0  1  0  0  3  0  0  0  0  0  0
  162.7670  213.2900  144.5020 C   0  0  0  0  0  1  0  0  0  0  0  0
  160.5500  212.3620  145.0570 C   0  0  0  0  0  2  0  0  0  0  0  0
  159.5000  212.6590  144.0040 C   0  0  0  0  0  2  0  0  0  0  0  0
  159.7630  211.9090  142.8600 O   0  0  0  0  0  0  0  0  0  0  0  0
  159.9460  212.8560  141.8480 C   0  0  0  0  0  2  0  0  0  0  0  0
  160.7260  212.2580  140.6850 C   0  0  1  0  0  3  0  0  0  0  0  0
  160.5520  210.3750  139.1200 C   0  0  0  0  0  3  0  0  0  0  0  0
  162.7410  210.6870  140.2330 C   0  0  0  0  0  2  0  0  0  0  0  0
  162.0260  210.5390  138.8870 C   0  0  0  0  0  2  0  0  0  0  0  0
  162.1120  211.7630  141.1420 C   0  0  0  0  0  2  0  0  0  0  0  0
  159.9330  211.1890  139.9810 C   0  0  0  0  0  3  0  0  0  0  0  0
  162.1180  210.2230  152.0810 C   0  0  0  0  0  2  0  0  0  0  0  0
  160.0920  210.5430  156.9340 C   0  0  0  0  0  2  0  0  0  0  0  0
  160.1080  211.6620  152.0880 C   0  0  0  0  0  2  0  0  0  0  0  0
  159.1630  210.6190  154.5400 C   0  0  1  0  0  3  0  0  0  0  0  0
  161.6620  208.8610  155.8810 C   0  0  0  0  0  2  0  0  0  0  0  0
  160.7440  209.1700  157.0580 C   0  0  0  0  0  2  0  0  0  0  0  0
  160.5780  210.2010  154.0870 C   0  0  1  0  0  3  0  0  0  0  0  0
  158.8650  210.4500  156.0360 C   0  0  0  0  0  2  0  0  0  0  0  0
  160.9060  208.7900  154.5600 C   0  0  0  0  0  2  0  0  0  0  0  0
  160.6730  210.3200  152.5560 C   0  0  2  0  0  3  0  0  0  0  0  0
  158.7560  211.9160  152.7510 C   0  0  0  0  0  2  0  0  0  0  0  0
  158.9080  211.9430  154.1480 O   0  0  0  0  0  0  0  0  0  0  0  0
  161.3130  208.0360  151.1300 C   0  0  0  0  0  2  0  0  0  0  0  0
  162.0730  206.7310  151.2870 C   0  0  0  0  0  2  0  0  0  0  0  0
  161.1370  205.6190  151.7370 C   0  0  0  0  0  2  0  0  0  0  0  0
  160.7630  202.1870  150.1720 C   0  0  0  0  0  3  0  0  0  0  0  0
  160.8960  202.4790  148.8100 C   0  0  0  0  0  0  0  0  0  0  0  0
  161.2130  204.8240  149.3600 C   0  0  0  0  0  3  0  0  0  0  0  0
  160.8520  203.2060  151.1250 C   0  0  0  0  0  3  0  0  0  0  0  0
  161.0800  204.5260  150.7200 C   0  0  0  0  0  0  0  0  0  0  0  0
  161.1230  203.8050  148.4080 C   0  0  0  0  0  3  0  0  0  0  0  0
  160.7960  201.6580  146.4780 C   0  0  0  0  0  1  0  0  0  0  0  0
  160.7990  201.4370  147.8830 O   0  0  0  0  0  0  0  0  0  0  0  0
  1 33  1  1  0  0  0
  1 21  1  0  0  0  0
  2  1  1  0  0  0  0
  3  2  2  0  0  0  0
  4  2  1  0  0  0  0
  5  4  1  0  0  0  0
  6  5  2  0  0  0  0
  7  5  1  0  0  0  0
  8  7  1  0  0  0  0
  9 10  1  6  0  0  0
  9  8  1  0  0  0  0
 11  9  1  0  0  0  0
 12 11  1  0  0  0  0
 13 12  1  0  0  0  0
 14 13  1  0  0  0  0
 15 19  1  0  0  0  0
 15 14  1  1  0  0  0
 16 20  2  0  0  0  0
 17 19  1  0  0  0  0
 18 16  1  0  0  0  0
 18 17  1  0  0  0  0
 20 15  1  0  0  0  0
 22 26  1  0  0  0  0
 23 30  1  0  0  0  0
 23 31  1  0  0  0  0
 24 28  1  1  0  0  0
 25 26  1  0  0  0  0
 27 24  1  0  0  0  0
 27 29  1  6  0  0  0
 28 22  1  0  0  0  0
 29 25  1  0  0  0  0
 30 21  1  1  0  0  0
 30 27  1  0  0  0  0
 31 32  1  0  0  0  0
 32 24  1  0  0  0  0
 33 34  1  0  0  0  0
 34 35  1  0  0  0  0
 36 39  1  0  0  0  0
 37 36  2  0  0  0  0
 38 40  1  0  0  0  0
 40 39  2  0  0  0  0
 40 35  1  0  0  0  0
 41 37  1  0  0  0  0
 41 38  2  0  0  0  0
 42 43  1  0  0  0  0
 43 37  1  0  0  0  0
M  END
>  <MODEL>
3

>  <REMARK>
 VINA RESULT:      -7.7      1.426      2.496
  Name = 
  18 active torsions:
  status: ('A' for Active; 'I' for Inactive)
    1  A    between atoms: C_1  and  C_34
    2  A    between atoms: C_1  and  C_35
    3  A    between atoms: C_2  and  O_6
    4  A    between atoms: C_2  and  C_27
    5  A    between atoms: C_3  and  C_4
    6  A    between atoms: C_3  and  C_12
    7  A    between atoms: C_4  and  C_15
    8  A    between atoms: O_6  and  C_12
    9  A    between atoms: C_10  and  C_15
   10  A    between atoms: C_10  and  C_41
   11  A    between atoms: C_11  and  C_14
   12  A    between atoms: C_13  and  C_27
   13  A    between atoms: C_13  and  C_30
   14  A    between atoms: C_14  and  O_22
   15  A    between atoms: C_19  and  O_37
   16  A    between atoms: O_22  and  C_41
   17  A    between atoms: C_27  and  C_38
   18  A    between atoms: C_34  and  C_38
                            x       y       z     vdW  Elec       q    Type
                         _______ _______ _______ _____ _____    ______ ____

>  <TORSDO>
F 18

$$$$
=
 OpenBabel11062410323D

 43 46  0  0  1  0  0  0  0  0999 V2000
  159.8190  211.8500  152.0120 C   0  0  1  0  0  3  0  0  0  0  0  0
  159.3680  211.5620  153.4140 C   0  0  0  0  0  0  0  0  0  0  0  0
  158.1420  211.3890  153.6480 O   0  0  0  0  0  0  0  0  0  0  0  0
  160.2830  211.4200  154.4650 O   0  0  0  0  0  0  0  0  0  0  0  0
  159.9660  210.9490  155.7470 C   0  0  0  0  0  0  0  0  0  0  0  0
  159.4660  211.7080  156.6180 O   0  0  0  0  0  0  0  0  0  0  0  0
  160.1760  209.5140  156.0740 C   0  0  0  0  0  2  0  0  0  0  0  0
  161.3220  208.9580  155.2480 C   0  0  0  0  0  2  0  0  0  0  0  0
  161.2210  207.4450  155.1600 C   0  0  1  0  0  3  0  0  0  0  0  0
  160.1320  206.9720  156.1000 C   0  0  0  0  0  1  0  0  0  0  0  0
  160.8600  207.0200  153.7440 C   0  0  0  0  0  2  0  0  0  0  0  0
  161.2690  205.5820  153.4900 C   0  0  0  0  0  2  0  0  0  0  0  0
  160.7290  205.1510  152.2810 O   0  0  0  0  0  0  0  0  0  0  0  0
  161.6020  204.1540  151.8370 C   0  0  0  0  0  2  0  0  0  0  0  0
  160.9310  203.2780  150.7880 C   0  0  1  0  0  3  0  0  0  0  0  0
  160.9860  200.9460  150.0210 C   0  0  0  0  0  3  0  0  0  0  0  0
  161.1140  202.6890  148.2670 C   0  0  0  0  0  2  0  0  0  0  0  0
  160.3710  201.4390  148.7440 C   0  0  0  0  0  2  0  0  0  0  0  0
  161.2610  203.7650  149.3640 C   0  0  0  0  0  2  0  0  0  0  0  0
  161.2600  201.8230  150.9920 C   0  0  0  0  0  3  0  0  0  0  0  0
  159.9610  213.3540  151.8110 C   0  0  0  0  0  2  0  0  0  0  0  0
  160.4860  212.2990  146.6750 C   0  0  0  0  0  2  0  0  0  0  0  0
  157.7500  213.2820  150.7100 C   0  0  0  0  0  2  0  0  0  0  0  0
  158.8360  213.6330  148.1240 C   0  0  1  0  0  3  0  0  0  0  0  0
  162.1320  213.1840  148.3810 C   0  0  0  0  0  2  0  0  0  0  0  0
  161.8370  212.9700  146.9010 C   0  0  0  0  0  2  0  0  0  0  0  0
  159.8250  213.3980  149.2850 C   0  0  1  0  0  3  0  0  0  0  0  0
  159.3790  213.3450  146.7170 C   0  0  0  0  0  2  0  0  0  0  0  0
  161.1380  214.1310  149.0400 C   0  0  0  0  0  2  0  0  0  0  0  0
  159.1680  213.8420  150.6040 C   0  0  2  0  0  3  0  0  0  0  0  0
  156.9940  213.5300  149.4060 C   0  0  0  0  0  2  0  0  0  0  0  0
  157.6600  212.8970  148.3420 O   0  0  0  0  0  0  0  0  0  0  0  0
  161.1250  211.1240  151.7240 C   0  0  0  0  0  2  0  0  0  0  0  0
  160.8880  209.6270  151.6210 C   0  0  0  0  0  2  0  0  0  0  0  0
  162.1240  208.9270  151.0740 C   0  0  0  0  0  2  0  0  0  0  0  0
  160.3880  206.5080  148.7290 C   0  0  0  0  0  3  0  0  0  0  0  0
  161.1120  206.6900  147.5450 C   0  0  0  0  0  0  0  0  0  0  0  0
  162.5180  208.3180  148.6740 C   0  0  0  0  0  3  0  0  0  0  0  0
  160.7230  207.2280  149.8790 C   0  0  0  0  0  3  0  0  0  0  0  0
  161.7910  208.1320  149.8540 C   0  0  0  0  0  0  0  0  0  0  0  0
  162.1820  207.6000  147.5240 C   0  0  0  0  0  3  0  0  0  0  0  0
  161.7050  205.4150  145.5100 C   0  0  0  0  0  1  0  0  0  0  0  0
  160.7490  205.9570  146.4110 O   0  0  0  0  0  0  0  0  0  0  0  0
  1 33  1  1  0  0  0
  1  2  1  0  0  0  0
  2  3  2  0  0  0  0
  2  4  1  0  0  0  0
  4  5  1  0  0  0  0
  5  7  1  0  0  0  0
  5  6  2  0  0  0  0
  8  7  1  0  0  0  0
  9  8  1  0  0  0  0
  9 10  1  1  0  0  0
 11  9  1  0  0  0  0
 12 11  1  0  0  0  0
 13 12  1  0  0  0  0
 14 13  1  0  0  0  0
 15 20  1  0  0  0  0
 15 14  1  1  0  0  0
 16 20  2  0  0  0  0
 17 18  1  0  0  0  0
 17 19  1  0  0  0  0
 18 16  1  0  0  0  0
 19 15  1  0  0  0  0
 21  1  1  0  0  0  0
 22 28  1  0  0  0  0
 22 26  1  0  0  0  0
 24 28  1  6  0  0  0
 24 32  1  0  0  0  0
 24 27  1  0  0  0  0
 25 29  1  0  0  0  0
 26 25  1  0  0  0  0
 27 29  1  6  0  0  0
 27 30  1  0  0  0  0
 30 23  1  0  0  0  0
 30 21  1  1  0  0  0
 31 23  1  0  0  0  0
 32 31  1  0  0  0  0
 34 33  1  0  0  0  0
 35 34  1  0  0  0  0
 36 39  1  0  0  0  0
 37 36  2  0  0  0  0
 38 40  1  0  0  0  0
 40 39  2  0  0  0  0
 40 35  1  0  0  0  0
 41 37  1  0  0  0  0
 41 38  2  0  0  0  0
 42 43  1  0  0  0  0
 43 37  1  0  0  0  0
M  END
>  <MODEL>
4

>  <REMARK>
 VINA RESULT:      -7.6      3.459      8.683
  Name = 
  18 active torsions:
  status: ('A' for Active; 'I' for Inactive)
    1  A    between atoms: C_1  and  C_34
    2  A    between atoms: C_1  and  C_35
    3  A    between atoms: C_2  and  O_6
    4  A    between atoms: C_2  and  C_27
    5  A    between atoms: C_3  and  C_4
    6  A    between atoms: C_3  and  C_12
    7  A    between atoms: C_4  and  C_15
    8  A    between atoms: O_6  and  C_12
    9  A    between atoms: C_10  and  C_15
   10  A    between atoms: C_10  and  C_41
   11  A    between atoms: C_11  and  C_14
   12  A    between atoms: C_13  and  C_27
   13  A    between atoms: C_13  and  C_30
   14  A    between atoms: C_14  and  O_22
   15  A    between atoms: C_19  and  O_37
   16  A    between atoms: O_22  and  C_41
   17  A    between atoms: C_27  and  C_38
   18  A    between atoms: C_34  and  C_38
                            x       y       z     vdW  Elec       q    Type
                         _______ _______ _______ _____ _____    ______ ____

>  <TORSDO>
F 18

$$$$
=
 OpenBabel11062410323D

 43 46  0  0  1  0  0  0  0  0999 V2000
  161.5590  208.7800  150.7530 C   0  0  1  0  0  3  0  0  0  0  0  0
  161.9680  209.5540  149.5340 C   0  0  0  0  0  0  0  0  0  0  0  0
  162.2720  208.9350  148.4790 O   0  0  0  0  0  0  0  0  0  0  0  0
  161.9660  210.9550  149.5190 O   0  0  0  0  0  0  0  0  0  0  0  0
  162.1280  211.7450  148.3730 C   0  0  0  0  0  0  0  0  0  0  0  0
  163.2720  212.0720  147.9590 O   0  0  0  0  0  0  0  0  0  0  0  0
  160.9320  212.1680  147.5980 C   0  0  0  0  0  2  0  0  0  0  0  0
  161.1570  213.5510  147.0130 C   0  0  0  0  0  2  0  0  0  0  0  0
  160.9180  213.5330  145.5140 C   0  0  1  0  0  3  0  0  0  0  0  0
  162.2440  213.3290  144.8110 C   0  0  0  0  0  1  0  0  0  0  0  0
  159.9880  212.3900  145.1390 C   0  0  0  0  0  2  0  0  0  0  0  0
  160.2360  211.9360  143.7130 C   0  0  0  0  0  2  0  0  0  0  0  0
  159.5030  212.7330  142.8360 O   0  0  0  0  0  0  0  0  0  0  0  0
  160.2980  212.8220  141.6900 C   0  0  0  0  0  2  0  0  0  0  0  0
  160.4160  211.4650  141.0090 C   0  0  1  0  0  3  0  0  0  0  0  0
  162.1470  210.0590  139.9840 C   0  0  0  0  0  3  0  0  0  0  0  0
  160.0590  210.3600  138.6890 C   0  0  0  0  0  2  0  0  0  0  0  0
  161.0310  209.3380  139.2850 C   0  0  0  0  0  2  0  0  0  0  0  0
  159.5960  211.4250  139.7050 C   0  0  0  0  0  2  0  0  0  0  0  0
  161.8560  211.0770  140.8000 C   0  0  0  0  0  3  0  0  0  0  0  0
  162.2720  207.4330  150.7760 C   0  0  0  0  0  2  0  0  0  0  0  0
  161.5770  202.8640  148.2450 C   0  0  0  0  0  2  0  0  0  0  0  0
  161.6810  205.6390  152.3710 C   0  0  0  0  0  2  0  0  0  0  0  0
  160.6140  203.9670  150.3570 C   0  0  1  0  0  3  0  0  0  0  0  0
  161.5430  205.2570  147.4240 C   0  0  0  0  0  2  0  0  0  0  0  0
  161.2010  203.8060  147.1060 C   0  0  0  0  0  2  0  0  0  0  0  0
  161.3550  205.2430  149.9040 C   0  0  1  0  0  3  0  0  0  0  0  0
  160.4740  202.8650  149.2970 C   0  0  0  0  0  2  0  0  0  0  0  0
  160.7570  205.7910  148.6140 C   0  0  0  0  0  2  0  0  0  0  0  0
  161.3050  206.2840  151.0360 C   0  0  2  0  0  3  0  0  0  0  0  0
  160.9100  204.3340  152.5530 C   0  0  0  0  0  2  0  0  0  0  0  0
  161.2230  203.4460  151.5100 O   0  0  0  0  0  0  0  0  0  0  0  0
  161.8530  209.5870  152.0080 C   0  0  0  0  0  2  0  0  0  0  0  0
  160.7760  209.3550  153.0540 C   0  0  0  0  0  2  0  0  0  0  0  0
  161.0040  210.2500  154.2630 C   0  0  0  0  0  2  0  0  0  0  0  0
  158.5890  213.1650  154.0670 C   0  0  0  0  0  3  0  0  0  0  0  0
  157.5580  212.7370  154.9110 C   0  0  0  0  0  0  0  0  0  0  0  0
  158.7900  210.6920  155.3550 C   0  0  0  0  0  3  0  0  0  0  0  0
  159.7140  212.3610  153.8630 C   0  0  0  0  0  3  0  0  0  0  0  0
  159.8180  211.1240  154.5100 C   0  0  0  0  0  0  0  0  0  0  0  0
  157.6650  211.4950  155.5560 C   0  0  0  0  0  3  0  0  0  0  0  0
  155.4140  213.6830  154.1180 C   0  0  0  0  0  1  0  0  0  0  0  0
  156.4440  213.5640  155.0900 O   0  0  0  0  0  0  0  0  0  0  0  0
  1 21  1  1  0  0  0
  1 33  1  0  0  0  0
  2  1  1  0  0  0  0
  3  2  2  0  0  0  0
  4  2  1  0  0  0  0
  5  4  1  0  0  0  0
  6  5  2  0  0  0  0
  7  5  1  0  0  0  0
  8  7  1  0  0  0  0
  9 10  1  6  0  0  0
  9  8  1  0  0  0  0
 11  9  1  0  0  0  0
 12 11  1  0  0  0  0
 13 12  1  0  0  0  0
 14 13  1  0  0  0  0
 15 14  1  6  0  0  0
 16 20  2  0  0  0  0
 17 18  1  0  0  0  0
 17 19  1  0  0  0  0
 18 16  1  0  0  0  0
 19 15  1  0  0  0  0
 20 15  1  0  0  0  0
 22 28  1  0  0  0  0
 23 31  1  0  0  0  0
 24 28  1  6  0  0  0
 24 32  1  0  0  0  0
 25 29  1  0  0  0  0
 26 25  1  0  0  0  0
 26 22  1  0  0  0  0
 27 29  1  6  0  0  0
 27 24  1  0  0  0  0
 27 30  1  0  0  0  0
 30 21  1  6  0  0  0
 30 23  1  0  0  0  0
 32 31  1  0  0  0  0
 33 34  1  0  0  0  0
 34 35  1  0  0  0  0
 35 40  1  0  0  0  0
 36 37  1  0  0  0  0
 37 43  1  0  0  0  0
 37 41  2  0  0  0  0
 38 41  1  0  0  0  0
 39 36  2  0  0  0  0
 39 40  1  0  0  0  0
 40 38  2  0  0  0  0
 42 43  1  0  0  0  0
M  END
>  <MODEL>
5

>  <REMARK>
 VINA RESULT:      -7.3      1.896      7.000
  Name = 
  18 active torsions:
  status: ('A' for Active; 'I' for Inactive)
    1  A    between atoms: C_1  and  C_34
    2  A    between atoms: C_1  and  C_35
    3  A    between atoms: C_2  and  O_6
    4  A    between atoms: C_2  and  C_27
    5  A    between atoms: C_3  and  C_4
    6  A    between atoms: C_3  and  C_12
    7  A    between atoms: C_4  and  C_15
    8  A    between atoms: O_6  and  C_12
    9  A    between atoms: C_10  and  C_15
   10  A    between atoms: C_10  and  C_41
   11  A    between atoms: C_11  and  C_14
   12  A    between atoms: C_13  and  C_27
   13  A    between atoms: C_13  and  C_30
   14  A    between atoms: C_14  and  O_22
   15  A    between atoms: C_19  and  O_37
   16  A    between atoms: O_22  and  C_41
   17  A    between atoms: C_27  and  C_38
   18  A    between atoms: C_34  and  C_38
                            x       y       z     vdW  Elec       q    Type
                         _______ _______ _______ _____ _____    ______ ____

>  <TORSDO>
F 18

$$$$
=
 OpenBabel11062410323D

 43 46  0  0  1  0  0  0  0  0999 V2000
  161.5440  209.6360  153.1680 C   0  0  1  0  0  3  0  0  0  0  0  0
  162.1720  209.7200  151.8080 C   0  0  0  0  0  0  0  0  0  0  0  0
  163.2560  210.3470  151.6620 O   0  0  0  0  0  0  0  0  0  0  0  0
  161.6150  209.0670  150.7000 O   0  0  0  0  0  0  0  0  0  0  0  0
  162.0310  209.2440  149.3730 C   0  0  0  0  0  0  0  0  0  0  0  0
  162.0270  210.3810  148.8310 O   0  0  0  0  0  0  0  0  0  0  0  0
  162.5330  208.0780  148.5990 C   0  0  0  0  0  2  0  0  0  0  0  0
  161.3740  207.3690  147.9220 C   0  0  0  0  0  2  0  0  0  0  0  0
  161.8710  206.5680  146.7310 C   0  0  1  0  0  3  0  0  0  0  0  0
  162.7660  205.4540  147.2310 C   0  0  0  0  0  1  0  0  0  0  0  0
  160.6990  205.9510  145.9820 C   0  0  0  0  0  2  0  0  0  0  0  0
  160.9600  205.9360  144.4880 C   0  0  0  0  0  2  0  0  0  0  0  0
  161.0270  204.6180  144.0400 O   0  0  0  0  0  0  0  0  0  0  0  0
  160.2100  203.9030  144.9200 C   0  0  0  0  0  2  0  0  0  0  0  0
  160.7730  202.5100  145.1680 C   0  0  1  0  0  3  0  0  0  0  0  0
  160.0330  200.1730  145.0480 C   0  0  0  0  0  3  0  0  0  0  0  0
  161.2120  200.8530  147.1160 C   0  0  0  0  0  2  0  0  0  0  0  0
  161.1800  199.8490  145.9600 C   0  0  0  0  0  2  0  0  0  0  0  0
  161.1600  202.3230  146.6470 C   0  0  0  0  0  2  0  0  0  0  0  0
  159.8340  201.4410  144.6760 C   0  0  0  0  0  3  0  0  0  0  0  0
  161.0990  211.0220  153.6210 C   0  0  0  0  0  2  0  0  0  0  0  0
  157.1470  213.3380  156.2250 C   0  0  0  0  0  2  0  0  0  0  0  0
  159.7120  212.3620  152.0760 C   0  0  0  0  0  2  0  0  0  0  0  0
  157.5090  212.4330  153.8470 C   0  0  1  0  0  3  0  0  0  0  0  0
  158.6010  211.3510  156.8080 C   0  0  0  0  0  2  0  0  0  0  0  0
  157.3320  212.1290  157.1350 C   0  0  0  0  0  2  0  0  0  0  0  0
  158.8320  211.8470  154.3820 C   0  0  1  0  0  3  0  0  0  0  0  0
  156.5070  212.8990  154.9130 C   0  0  0  0  0  2  0  0  0  0  0  0
  158.5690  210.7520  155.4080 C   0  0  0  0  0  2  0  0  0  0  0  0
  159.6660  211.3240  153.1990 C   0  0  2  0  0  3  0  0  0  0  0  0
  158.3040  212.8840  151.7950 C   0  0  0  0  0  2  0  0  0  0  0  0
  157.7770  213.4820  152.9520 O   0  0  0  0  0  0  0  0  0  0  0  0
  160.3800  208.6570  153.1460 C   0  0  0  0  0  2  0  0  0  0  0  0
  160.7070  207.4240  153.9720 C   0  0  0  0  0  2  0  0  0  0  0  0
  161.8960  206.6840  153.3770 C   0  0  0  0  0  2  0  0  0  0  0  0
  161.0160  204.6920  150.2750 C   0  0  0  0  0  3  0  0  0  0  0  0
  160.6630  203.4540  150.8220 C   0  0  0  0  0  0  0  0  0  0  0  0
  161.0900  204.3330  153.0460 C   0  0  0  0  0  3  0  0  0  0  0  0
  161.4070  205.7460  151.1060 C   0  0  0  0  0  3  0  0  0  0  0  0
  161.4420  205.5680  152.4930 C   0  0  0  0  0  0  0  0  0  0  0  0
  160.7010  203.2790  152.2150 C   0  0  0  0  0  3  0  0  0  0  0  0
  160.6530  201.0650  150.1790 C   0  0  0  0  0  1  0  0  0  0  0  0
  160.2800  202.4190  149.9630 O   0  0  0  0  0  0  0  0  0  0  0  0
  1 33  1  6  0  0  0
  1 21  1  0  0  0  0
  2  1  1  0  0  0  0
  3  2  2  0  0  0  0
  4  2  1  0  0  0  0
  5  4  1  0  0  0  0
  6  5  2  0  0  0  0
  7  5  1  0  0  0  0
  8  7  1  0  0  0  0
  9 10  1  1  0  0  0
  9  8  1  0  0  0  0
 11  9  1  0  0  0  0
 12 11  1  0  0  0  0
 13 12  1  0  0  0  0
 13 14  1  0  0  0  0
 15 14  1  1  0  0  0
 15 19  1  0  0  0  0
 16 18  1  0  0  0  0
 18 17  1  0  0  0  0
 19 17  1  0  0  0  0
 20 16  2  0  0  0  0
 20 15  1  0  0  0  0
 22 26  1  0  0  0  0
 23 30  1  0  0  0  0
 24 27  1  0  0  0  0
 24 28  1  1  0  0  0
 25 26  1  0  0  0  0
 27 29  1  1  0  0  0
 28 22  1  0  0  0  0
 29 25  1  0  0  0  0
 30 21  1  1  0  0  0
 30 27  1  0  0  0  0
 31 23  1  0  0  0  0
 31 32  1  0  0  0  0
 32 24  1  0  0  0  0
 33 34  1  0  0  0  0
 35 34  1  0  0  0  0
 36 37  2  0  0  0  0
 36 39  1  0  0  0  0
 37 41  1  0  0  0  0
 39 40  2  0  0  0  0
 40 38  1  0  0  0  0
 40 35  1  0  0  0  0
 41 38  2  0  0  0  0
 43 42  1  0  0  0  0
 43 37  1  0  0  0  0
M  END
>  <MODEL>
6

>  <REMARK>
 VINA RESULT:      -7.1      4.011      6.388
  Name = 
  18 active torsions:
  status: ('A' for Active; 'I' for Inactive)
    1  A    between atoms: C_1  and  C_34
    2  A    between atoms: C_1  and  C_35
    3  A    between atoms: C_2  and  O_6
    4  A    between atoms: C_2  and  C_27
    5  A    between atoms: C_3  and  C_4
    6  A    between atoms: C_3  and  C_12
    7  A    between atoms: C_4  and  C_15
    8  A    between atoms: O_6  and  C_12
    9  A    between atoms: C_10  and  C_15
   10  A    between atoms: C_10  and  C_41
   11  A    between atoms: C_11  and  C_14
   12  A    between atoms: C_13  and  C_27
   13  A    between atoms: C_13  and  C_30
   14  A    between atoms: C_14  and  O_22
   15  A    between atoms: C_19  and  O_37
   16  A    between atoms: O_22  and  C_41
   17  A    between atoms: C_27  and  C_38
   18  A    between atoms: C_34  and  C_38
                            x       y       z     vdW  Elec       q    Type
                         _______ _______ _______ _____ _____    ______ ____

>  <TORSDO>
F 18

$$$$
=
 OpenBabel11062410323D

 43 46  0  0  1  0  0  0  0  0999 V2000
  161.5610  207.5750  150.1630 C   0  0  1  0  0  3  0  0  0  0  0  0
  162.1250  208.2920  148.9710 C   0  0  0  0  0  0  0  0  0  0  0  0
  163.0760  207.7730  148.3270 O   0  0  0  0  0  0  0  0  0  0  0  0
  161.5820  209.5010  148.5180 O   0  0  0  0  0  0  0  0  0  0  0  0
  162.0170  210.7740  148.9120 C   0  0  0  0  0  0  0  0  0  0  0  0
  162.3300  211.0170  150.1080 O   0  0  0  0  0  0  0  0  0  0  0  0
  162.1630  211.8490  147.8950 C   0  0  0  0  0  2  0  0  0  0  0  0
  161.0140  212.8340  148.0160 C   0  0  0  0  0  2  0  0  0  0  0  0
  161.1360  213.9160  146.9590 C   0  0  1  0  0  3  0  0  0  0  0  0
  162.4050  213.6850  146.1660 C   0  0  0  0  0  1  0  0  0  0  0  0
  159.9510  213.8620  146.0060 C   0  0  0  0  0  2  0  0  0  0  0  0
  159.4400  212.4410  145.8580 C   0  0  0  0  0  2  0  0  0  0  0  0
  159.7020  211.9850  144.5680 O   0  0  0  0  0  0  0  0  0  0  0  0
  159.5950  213.1210  143.7610 C   0  0  0  0  0  2  0  0  0  0  0  0
  159.7040  212.7480  142.2890 C   0  0  1  0  0  3  0  0  0  0  0  0
  160.8810  211.1190  140.8790 C   0  0  0  0  0  3  0  0  0  0  0  0
  160.9490  213.4790  140.1330 C   0  0  0  0  0  2  0  0  0  0  0  0
  160.6080  212.0430  139.7270 C   0  0  0  0  0  2  0  0  0  0  0  0
  160.2990  213.9060  141.4650 C   0  0  0  0  0  2  0  0  0  0  0  0
  160.4570  211.4580  142.1010 C   0  0  0  0  0  3  0  0  0  0  0  0
  162.2240  206.2110  150.3100 C   0  0  0  0  0  2  0  0  0  0  0  0
  161.4880  201.5980  147.8720 C   0  0  0  0  0  2  0  0  0  0  0  0
  161.4840  204.4880  151.9200 C   0  0  0  0  0  2  0  0  0  0  0  0
  160.4600  202.7970  149.8980 C   0  0  1  0  0  3  0  0  0  0  0  0
  161.5880  203.9660  146.9840 C   0  0  0  0  0  2  0  0  0  0  0  0
  161.2080  202.5200  146.6890 C   0  0  0  0  0  2  0  0  0  0  0  0
  161.2710  204.0310  149.4510 C   0  0  1  0  0  3  0  0  0  0  0  0
  160.3330  201.6710  148.8630 C   0  0  0  0  0  2  0  0  0  0  0  0
  160.7620  204.5630  148.1160 C   0  0  0  0  0  2  0  0  0  0  0  0
  161.2020  205.1060  150.5500 C   0  0  2  0  0  3  0  0  0  0  0  0
  160.6550  203.2170  152.0970 C   0  0  0  0  0  2  0  0  0  0  0  0
  160.9880  202.2880  151.0960 O   0  0  0  0  0  0  0  0  0  0  0  0
  161.7410  208.4200  151.4150 C   0  0  0  0  0  2  0  0  0  0  0  0
  160.7170  208.0340  152.4680 C   0  0  0  0  0  2  0  0  0  0  0  0
  161.2120  208.4110  153.8570 C   0  0  0  0  0  2  0  0  0  0  0  0
  159.5840  211.0370  156.0520 C   0  0  0  0  0  3  0  0  0  0  0  0
  159.5290  212.1360  155.1870 C   0  0  0  0  0  0  0  0  0  0  0  0
  160.5520  210.7930  153.4400 C   0  0  0  0  0  3  0  0  0  0  0  0
  160.1220  209.8220  155.6160 C   0  0  0  0  0  3  0  0  0  0  0  0
  160.6030  209.6980  154.3090 C   0  0  0  0  0  0  0  0  0  0  0  0
  160.0160  212.0080  153.8770 C   0  0  0  0  0  3  0  0  0  0  0  0
  159.7120  214.2290  156.4940 C   0  0  0  0  0  1  0  0  0  0  0  0
  158.9890  213.3380  155.6550 O   0  0  0  0  0  0  0  0  0  0  0  0
  1 21  1  1  0  0  0
  1 33  1  0  0  0  0
  2  1  1  0  0  0  0
  3  2  2  0  0  0  0
  4  5  1  0  0  0  0
  4  2  1  0  0  0  0
  5  6  2  0  0  0  0
  7  8  1  0  0  0  0
  7  5  1  0  0  0  0
  9 10  1  6  0  0  0
  9  8  1  0  0  0  0
 11  9  1  0  0  0  0
 12 11  1  0  0  0  0
 13 12  1  0  0  0  0
 14 13  1  0  0  0  0
 15 14  1  1  0  0  0
 16 20  2  0  0  0  0
 17 19  1  0  0  0  0
 18 17  1  0  0  0  0
 18 16  1  0  0  0  0
 19 15  1  0  0  0  0
 20 15  1  0  0  0  0
 22 28  1  0  0  0  0
 23 31  1  0  0  0  0
 24 28  1  6  0  0  0
 24 32  1  0  0  0  0
 25 29  1  0  0  0  0
 26 25  1  0  0  0  0
 26 22  1  0  0  0  0
 27 29  1  6  0  0  0
 27 24  1  0  0  0  0
 27 30  1  0  0  0  0
 30 21  1  6  0  0  0
 30 23  1  0  0  0  0
 32 31  1  0  0  0  0
 33 34  1  0  0  0  0
 34 35  1  0  0  0  0
 35 40  1  0  0  0  0
 37 43  1  0  0  0  0
 37 36  2  0  0  0  0
 38 41  2  0  0  0  0
 38 40  1  0  0  0  0
 39 36  1  0  0  0  0
 40 39  2  0  0  0  0
 41 37  1  0  0  0  0
 43 42  1  0  0  0  0
M  END
>  <MODEL>
7

>  <REMARK>
 VINA RESULT:      -6.8      1.672      7.219
  Name = 
  18 active torsions:
  status: ('A' for Active; 'I' for Inactive)
    1  A    between atoms: C_1  and  C_34
    2  A    between atoms: C_1  and  C_35
    3  A    between atoms: C_2  and  O_6
    4  A    between atoms: C_2  and  C_27
    5  A    between atoms: C_3  and  C_4
    6  A    between atoms: C_3  and  C_12
    7  A    between atoms: C_4  and  C_15
    8  A    between atoms: O_6  and  C_12
    9  A    between atoms: C_10  and  C_15
   10  A    between atoms: C_10  and  C_41
   11  A    between atoms: C_11  and  C_14
   12  A    between atoms: C_13  and  C_27
   13  A    between atoms: C_13  and  C_30
   14  A    between atoms: C_14  and  O_22
   15  A    between atoms: C_19  and  O_37
   16  A    between atoms: O_22  and  C_41
   17  A    between atoms: C_27  and  C_38
   18  A    between atoms: C_34  and  C_38
                            x       y       z     vdW  Elec       q    Type
                         _______ _______ _______ _____ _____    ______ ____

>  <TORSDO>
F 18

$$$$
=
 OpenBabel11062410323D

 43 46  0  0  1  0  0  0  0  0999 V2000
  160.8760  212.1840  149.3250 C   0  0  1  0  0  3  0  0  0  0  0  0
  161.6210  210.8830  149.3960 C   0  0  0  0  0  0  0  0  0  0  0  0
  161.7020  210.1590  148.3680 O   0  0  0  0  0  0  0  0  0  0  0  0
  162.2800  210.4780  150.5630 O   0  0  0  0  0  0  0  0  0  0  0  0
  162.1900  209.2000  151.1320 C   0  0  0  0  0  0  0  0  0  0  0  0
  162.3180  208.1610  150.4310 O   0  0  0  0  0  0  0  0  0  0  0  0
  161.9910  209.0620  152.5990 C   0  0  0  0  0  2  0  0  0  0  0  0
  160.8710  208.0740  152.8770 C   0  0  0  0  0  2  0  0  0  0  0  0
  161.2760  207.1190  153.9860 C   0  0  1  0  0  3  0  0  0  0  0  0
  160.0690  206.8410  154.8560 C   0  0  0  0  0  1  0  0  0  0  0  0
  161.7670  205.8040  153.4000 C   0  0  0  0  0  2  0  0  0  0  0  0
  160.9840  205.4420  152.1520 C   0  0  0  0  0  2  0  0  0  0  0  0
  161.7280  204.5550  151.3770 O   0  0  0  0  0  0  0  0  0  0  0  0
  160.8710  204.1890  150.3350 C   0  0  0  0  0  2  0  0  0  0  0  0
  161.4230  204.6530  148.9940 C   0  0  1  0  0  3  0  0  0  0  0  0
  160.8360  206.2190  147.1980 C   0  0  0  0  0  3  0  0  0  0  0  0
  161.4760  203.9310  146.5020 C   0  0  0  0  0  2  0  0  0  0  0  0
  161.7560  205.4250  146.3170 C   0  0  0  0  0  2  0  0  0  0  0  0
  161.4680  203.4920  147.9810 C   0  0  0  0  0  2  0  0  0  0  0  0
  160.6720  205.8480  148.4710 C   0  0  0  0  0  3  0  0  0  0  0  0
  160.6300  212.7200  150.7300 C   0  0  0  0  0  2  0  0  0  0  0  0
  158.1220  212.9950  155.3560 C   0  0  0  0  0  2  0  0  0  0  0  0
  158.6090  214.1290  150.5380 C   0  0  0  0  0  2  0  0  0  0  0  0
  157.4370  213.0640  152.8800 C   0  0  1  0  0  3  0  0  0  0  0  0
  159.8150  211.3390  154.4630 C   0  0  0  0  0  2  0  0  0  0  0  0
  158.7780  211.6310  155.5420 C   0  0  0  0  0  2  0  0  0  0  0  0
  158.8960  212.6680  152.5710 C   0  0  1  0  0  3  0  0  0  0  0  0
  156.9930  212.8860  154.3390 C   0  0  0  0  0  2  0  0  0  0  0  0
  159.1970  211.2610  153.0720 C   0  0  0  0  0  2  0  0  0  0  0  0
  159.1440  212.7940  151.0580 C   0  0  2  0  0  3  0  0  0  0  0  0
  157.1930  214.3610  151.0620 C   0  0  0  0  0  2  0  0  0  0  0  0
  157.2030  214.3860  152.4670 O   0  0  0  0  0  0  0  0  0  0  0  0
  161.6480  213.1830  148.4750 C   0  0  0  0  0  2  0  0  0  0  0  0
  160.7060  213.9300  147.5460 C   0  0  0  0  0  2  0  0  0  0  0  0
  159.8950  212.9510  146.7100 C   0  0  0  0  0  2  0  0  0  0  0  0
  160.2220  212.2480  143.0000 C   0  0  0  0  0  3  0  0  0  0  0  0
  161.5580  212.5900  142.7620 C   0  0  0  0  0  0  0  0  0  0  0  0
  161.8180  213.1460  145.1130 C   0  0  0  0  0  3  0  0  0  0  0  0
  159.6840  212.3550  144.2860 C   0  0  0  0  0  3  0  0  0  0  0  0
  160.4820  212.8010  145.3450 C   0  0  0  0  0  0  0  0  0  0  0  0
  162.3550  213.0400  143.8270 C   0  0  0  0  0  3  0  0  0  0  0  0
  162.4580  211.2300  140.9020 C   0  0  0  0  0  1  0  0  0  0  0  0
  162.0640  212.4750  141.4640 O   0  0  0  0  0  0  0  0  0  0  0  0
  1 33  1  6  0  0  0
  1  2  1  0  0  0  0
  1 21  1  0  0  0  0
  2  4  1  0  0  0  0
  3  2  2  0  0  0  0
  4  5  1  0  0  0  0
  5  7  1  0  0  0  0
  6  5  2  0  0  0  0
  7  8  1  0  0  0  0
  8  9  1  0  0  0  0
  9 10  1  1  0  0  0
 11  9  1  0  0  0  0
 12 11  1  0  0  0  0
 13 12  1  0  0  0  0
 14 13  1  0  0  0  0
 15 14  1  1  0  0  0
 16 20  2  0  0  0  0
 17 19  1  0  0  0  0
 18 17  1  0  0  0  0
 18 16  1  0  0  0  0
 19 15  1  0  0  0  0
 20 15  1  0  0  0  0
 22 26  1  0  0  0  0
 23 30  1  0  0  0  0
 23 31  1  0  0  0  0
 24 28  1  1  0  0  0
 25 26  1  0  0  0  0
 27 24  1  0  0  0  0
 27 29  1  6  0  0  0
 28 22  1  0  0  0  0
 29 25  1  0  0  0  0
 30 21  1  1  0  0  0
 30 27  1  0  0  0  0
 31 32  1  0  0  0  0
 32 24  1  0  0  0  0
 34 33  1  0  0  0  0
 35 34  1  0  0  0  0
 36 39  1  0  0  0  0
 37 36  2  0  0  0  0
 37 41  1  0  0  0  0
 38 40  1  0  0  0  0
 39 40  2  0  0  0  0
 40 35  1  0  0  0  0
 41 38  2  0  0  0  0
 42 43  1  0  0  0  0
 43 37  1  0  0  0  0
M  END
>  <MODEL>
8

>  <REMARK>
 VINA RESULT:      -6.7      1.962      8.366
  Name = 
  18 active torsions:
  status: ('A' for Active; 'I' for Inactive)
    1  A    between atoms: C_1  and  C_34
    2  A    between atoms: C_1  and  C_35
    3  A    between atoms: C_2  and  O_6
    4  A    between atoms: C_2  and  C_27
    5  A    between atoms: C_3  and  C_4
    6  A    between atoms: C_3  and  C_12
    7  A    between atoms: C_4  and  C_15
    8  A    between atoms: O_6  and  C_12
    9  A    between atoms: C_10  and  C_15
   10  A    between atoms: C_10  and  C_41
   11  A    between atoms: C_11  and  C_14
   12  A    between atoms: C_13  and  C_27
   13  A    between atoms: C_13  and  C_30
   14  A    between atoms: C_14  and  O_22
   15  A    between atoms: C_19  and  O_37
   16  A    between atoms: O_22  and  C_41
   17  A    between atoms: C_27  and  C_38
   18  A    between atoms: C_34  and  C_38
                            x       y       z     vdW  Elec       q    Type
                         _______ _______ _______ _____ _____    ______ ____

>  <TORSDO>
F 18

$$$$
=
 OpenBabel11062410323D

 43 46  0  0  1  0  0  0  0  0999 V2000
  161.4110  212.0800  148.5420 C   0  0  1  0  0  3  0  0  0  0  0  0
  160.9040  213.2430  149.3440 C   0  0  0  0  0  0  0  0  0  0  0  0
  161.5510  214.3240  149.3470 O   0  0  0  0  0  0  0  0  0  0  0  0
  159.6930  213.1780  150.0460 O   0  0  0  0  0  0  0  0  0  0  0  0
  159.5790  213.0500  151.4380 C   0  0  0  0  0  0  0  0  0  0  0  0
  160.2320  212.1790  152.0710 O   0  0  0  0  0  0  0  0  0  0  0  0
  158.7090  213.9900  152.1930 C   0  0  0  0  0  2  0  0  0  0  0  0
  157.7260  213.2110  153.0480 C   0  0  0  0  0  2  0  0  0  0  0  0
  157.9960  213.4620  154.5210 C   0  0  1  0  0  3  0  0  0  0  0  0
  156.6810  213.7430  155.2170 C   0  0  0  0  0  1  0  0  0  0  0  0
  158.6320  212.2360  155.1590 C   0  0  0  0  0  2  0  0  0  0  0  0
  160.0320  212.5470  155.6510 C   0  0  0  0  0  2  0  0  0  0  0  0
  160.8820  211.4880  155.3360 O   0  0  0  0  0  0  0  0  0  0  0  0
  160.0840  210.3470  155.4490 C   0  0  0  0  0  2  0  0  0  0  0  0
  160.8070  209.1270  154.8960 C   0  0  1  0  0  3  0  0  0  0  0  0
  161.1600  208.0110  152.7380 C   0  0  0  0  0  3  0  0  0  0  0  0
  160.4810  206.5660  154.6300 C   0  0  0  0  0  2  0  0  0  0  0  0
  161.5180  206.7840  153.5240 C   0  0  0  0  0  2  0  0  0  0  0  0
  160.2300  207.8250  155.4860 C   0  0  0  0  0  2  0  0  0  0  0  0
  160.8140  209.1250  153.3900 C   0  0  0  0  0  3  0  0  0  0  0  0
  161.9870  212.5720  147.2200 C   0  0  0  0  0  2  0  0  0  0  0  0
  161.8690  213.0920  141.9780 C   0  0  0  0  0  2  0  0  0  0  0  0
  159.7070  212.1600  146.3600 C   0  0  0  0  0  2  0  0  0  0  0  0
  160.2140  213.4710  143.9060 C   0  0  1  0  0  3  0  0  0  0  0  0
  163.5120  213.9340  143.7090 C   0  0  0  0  0  2  0  0  0  0  0  0
  163.0290  214.0390  142.2670 C   0  0  0  0  0  2  0  0  0  0  0  0
  161.4130  213.2340  144.8470 C   0  0  1  0  0  3  0  0  0  0  0  0
  160.5620  213.7290  142.4340 C   0  0  0  0  0  2  0  0  0  0  0  0
  162.4420  214.3500  144.7100 C   0  0  0  0  0  2  0  0  0  0  0  0
  160.9030  213.1110  146.2940 C   0  0  2  0  0  3  0  0  0  0  0  0
  158.7020  212.5130  145.2650 C   0  0  0  0  0  2  0  0  0  0  0  0
  159.3120  212.3990  144.0040 O   0  0  0  0  0  0  0  0  0  0  0  0
  162.4430  211.3030  149.3450 C   0  0  0  0  0  2  0  0  0  0  0  0
  161.9630  209.8820  149.5930 C   0  0  0  0  0  2  0  0  0  0  0  0
  161.7010  209.1700  148.2740 C   0  0  0  0  0  2  0  0  0  0  0  0
  160.6350  205.8670  149.7980 C   0  0  0  0  0  3  0  0  0  0  0  0
  161.1130  204.9510  148.8550 C   0  0  0  0  0  0  0  0  0  0  0  0
  162.0010  206.7910  147.5400 C   0  0  0  0  0  3  0  0  0  0  0  0
  160.8350  207.2390  149.6150 C   0  0  0  0  0  3  0  0  0  0  0  0
  161.5210  207.7020  148.4870 C   0  0  0  0  0  0  0  0  0  0  0  0
  161.7990  205.4210  147.7230 C   0  0  0  0  0  3  0  0  0  0  0  0
  161.2730  202.5930  148.1220 C   0  0  0  0  0  1  0  0  0  0  0  0
  160.8930  203.5870  149.0660 O   0  0  0  0  0  0  0  0  0  0  0  0
  1 21  1  6  0  0  0
  1  2  1  0  0  0  0
  1 33  1  0  0  0  0
  2  3  2  0  0  0  0
  2  4  1  0  0  0  0
  4  5  1  0  0  0  0
  5  6  2  0  0  0  0
  5  7  1  0  0  0  0
  7  8  1  0  0  0  0
  8  9  1  0  0  0  0
  9 11  1  0  0  0  0
  9 10  1  1  0  0  0
 11 12  1  0  0  0  0
 13 14  1  0  0  0  0
 13 12  1  0  0  0  0
 15 14  1  6  0  0  0
 15 19  1  0  0  0  0
 16 20  2  0  0  0  0
 16 18  1  0  0  0  0
 17 19  1  0  0  0  0
 18 17  1  0  0  0  0
 20 15  1  0  0  0  0
 22 26  1  0  0  0  0
 22 28  1  0  0  0  0
 24 28  1  6  0  0  0
 24 32  1  0  0  0  0
 24 27  1  0  0  0  0
 25 29  1  0  0  0  0
 26 25  1  0  0  0  0
 27 29  1  1  0  0  0
 27 30  1  0  0  0  0
 30 23  1  0  0  0  0
 30 21  1  1  0  0  0
 31 23  1  0  0  0  0
 32 31  1  0  0  0  0
 33 34  1  0  0  0  0
 35 40  1  0  0  0  0
 35 34  1  0  0  0  0
 37 43  1  0  0  0  0
 37 36  2  0  0  0  0
 38 41  2  0  0  0  0
 38 40  1  0  0  0  0
 39 36  1  0  0  0  0
 40 39  2  0  0  0  0
 41 37  1  0  0  0  0
 42 43  1  0  0  0  0
M  END
>  <MODEL>
9

>  <REMARK>
 VINA RESULT:      -6.7      2.023      9.510
  Name = 
  18 active torsions:
  status: ('A' for Active; 'I' for Inactive)
    1  A    between atoms: C_1  and  C_34
    2  A    between atoms: C_1  and  C_35
    3  A    between atoms: C_2  and  O_6
    4  A    between atoms: C_2  and  C_27
    5  A    between atoms: C_3  and  C_4
    6  A    between atoms: C_3  and  C_12
    7  A    between atoms: C_4  and  C_15
    8  A    between atoms: O_6  and  C_12
    9  A    between atoms: C_10  and  C_15
   10  A    between atoms: C_10  and  C_41
   11  A    between atoms: C_11  and  C_14
   12  A    between atoms: C_13  and  C_27
   13  A    between atoms: C_13  and  C_30
   14  A    between atoms: C_14  and  O_22
   15  A    between atoms: C_19  and  O_37
   16  A    between atoms: O_22  and  C_41
   17  A    between atoms: C_27  and  C_38
   18  A    between atoms: C_34  and  C_38
                            x       y       z     vdW  Elec       q    Type
                         _______ _______ _______ _____ _____    ______ ____

>  <TORSDO>
F 18

$$$$
