=
 OpenBabel11052421493D

 30 32  0  0  1  0  0  0  0  0999 V2000
  161.1170  206.3920  152.3140 C   0  0  0  0  0  0  0  0  0  0  0  0
  161.2100  205.2130  152.9820 N   0  0  0  0  0  0  0  0  0  0  0  0
  161.0520  207.8800  153.2510 Cl  0  0  0  0  0  0  0  0  0  0  0  0
  161.1160  205.1770  150.2040 C   0  0  0  0  0  0  0  0  0  0  0  0
  161.2540  204.0230  152.3320 C   0  0  0  0  0  3  0  0  0  0  0  0
  161.0680  206.4080  150.9070 C   0  0  0  0  0  0  0  0  0  0  0  0
  161.2060  203.9850  150.9410 C   0  0  0  0  0  3  0  0  0  0  0  0
  162.0030  205.5630  145.8430 C   0  0  0  0  0  3  0  0  0  0  0  0
  162.1680  204.2490  145.9810 C   0  0  0  0  0  3  0  0  0  0  0  0
  160.9150  206.3090  146.5360 C   0  0  0  0  0  2  0  0  0  0  0  0
  160.9340  203.7630  148.0790 C   0  0  0  0  0  3  0  0  0  0  0  0
  161.0750  206.2360  148.0170 C   0  0  0  0  0  3  0  0  0  0  0  0
  161.3700  203.3740  146.8720 C   0  0  0  0  0  0  0  0  0  0  0  0
  161.0730  205.0950  148.7200 C   0  0  0  0  0  0  0  0  0  0  0  0
  159.6940  202.2370  144.7340 O   0  0  0  0  0  0  0  0  0  0  0  0
  160.4150  201.4800  145.4380 C   0  0  0  0  0  0  0  0  0  0  0  0
  161.1820  201.9940  146.5330 N   0  0  0  0  0  2  0  0  0  0  0  0
  160.4460  200.1200  145.1640 O   0  0  0  0  0  1  0  0  0  0  0  0
  160.8900  207.7130  150.1920 C   0  0  0  0  0  2  0  0  0  0  0  0
  162.3740  208.7400  150.3910 S   0  0  0  0  0  0  0  0  0  0  0  0
  161.9890  209.6860  148.8840 C   0  0  0  0  0  2  0  0  0  0  0  0
  162.1900  211.2030  149.0540 C   0  0  2  0  0  3  0  0  0  0  0  0
  161.3530  211.7350  150.0380 O   0  0  0  0  0  1  0  0  0  0  0  0
  162.6490  214.1090  146.6780 C   0  0  0  0  0  2  0  0  0  0  0  0
  162.1050  211.9840  147.8130 N   0  0  0  0  0  0  0  0  0  0  0  0
  160.4800  212.9370  146.1630 C   0  0  2  0  0  3  0  0  0  0  0  0
  160.7180  211.9590  147.3250 C   0  0  0  0  0  2  0  0  0  0  0  0
  162.5430  213.3680  148.0160 C   0  0  0  0  0  2  0  0  0  0  0  0
  159.6760  212.2550  145.0770 C   0  0  0  0  0  1  0  0  0  0  0  0
  161.7890  213.4680  145.5850 C   0  0  0  0  0  2  0  0  0  0  0  0
  1  2  1  0  0  0  0
  1  3  1  0  0  0  0
  4  6  1  0  0  0  0
  4  7  2  0  0  0  0
  5  2  2  0  0  0  0
  6  1  2  0  0  0  0
  7  5  1  0  0  0  0
  8  9  2  0  0  0  0
  8 10  1  0  0  0  0
  9 13  1  0  0  0  0
 10 12  1  0  0  0  0
 11 14  1  0  0  0  0
 12 14  2  0  0  0  0
 13 11  2  0  0  0  0
 14  4  1  0  0  0  0
 15 16  2  0  0  0  0
 16 17  1  0  0  0  0
 17 13  1  0  0  0  0
 18 16  1  0  0  0  0
 19 20  1  0  0  0  0
 19  6  1  0  0  0  0
 21 22  1  0  0  0  0
 21 20  1  0  0  0  0
 22 23  1  1  0  0  0
 24 28  1  0  0  0  0
 25 28  1  0  0  0  0
 25 22  1  0  0  0  0
 26 29  1  6  0  0  0
 26 27  1  0  0  0  0
 27 25  1  0  0  0  0
 30 26  1  0  0  0  0
 30 24  1  0  0  0  0
M  END
>  <MODEL>
1

>  <REMARK>
 VINA RESULT:      -8.7      0.000      0.000
  Name = 
  7 active torsions:
  status: ('A' for Active; 'I' for Inactive)
    1  A    between atoms: S_1  and  C_4
    2  A    between atoms: S_1  and  C_5
    3  A    between atoms: C_4  and  C_27
    4  A    between atoms: C_5  and  C_22
    5  A    between atoms: N_8  and  C_27
    6  A    between atoms: N_16  and  C_25
    7  A    between atoms: C_19  and  C_29
                            x       y       z     vdW  Elec       q    Type
                         _______ _______ _______ _____ _____    ______ ____

>  <TORSDO>
F 7

$$$$
=
 OpenBabel11052421493D

 30 32  0  0  1  0  0  0  0  0999 V2000
  160.8210  202.4260  150.8100 C   0  0  0  0  0  0  0  0  0  0  0  0
  160.9030  201.1180  150.4520 N   0  0  0  0  0  0  0  0  0  0  0  0
  160.5290  202.8140  152.5000 Cl  0  0  0  0  0  0  0  0  0  0  0  0
  161.1880  203.0630  148.4880 C   0  0  0  0  0  0  0  0  0  0  0  0
  161.1150  200.7380  149.1680 C   0  0  0  0  0  3  0  0  0  0  0  0
  160.9620  203.4360  149.8380 C   0  0  0  0  0  0  0  0  0  0  0  0
  161.2580  201.6980  148.1700 C   0  0  0  0  0  3  0  0  0  0  0  0
  160.7580  205.4530  144.7380 C   0  0  0  0  0  3  0  0  0  0  0  0
  160.4080  206.3800  145.6260 C   0  0  0  0  0  3  0  0  0  0  0  0
  161.8680  204.4900  144.9830 C   0  0  0  0  0  2  0  0  0  0  0  0
  161.3720  205.5030  147.7380 C   0  0  0  0  0  3  0  0  0  0  0  0
  161.5670  203.6110  146.1500 C   0  0  0  0  0  3  0  0  0  0  0  0
  161.0000  206.5410  146.9750 C   0  0  0  0  0  0  0  0  0  0  0  0
  161.3530  204.0580  147.3960 C   0  0  0  0  0  0  0  0  0  0  0  0
  163.1200  207.7060  148.6540 O   0  0  0  0  0  0  0  0  0  0  0  0
  162.1150  208.3980  148.3400 C   0  0  0  0  0  0  0  0  0  0  0  0
  161.0320  207.8360  147.5890 N   0  0  0  0  0  2  0  0  0  0  0  0
  162.0420  209.7210  148.7530 O   0  0  0  0  0  1  0  0  0  0  0  0
  160.7960  204.8700  150.2390 C   0  0  0  0  0  2  0  0  0  0  0  0
  162.1980  205.3980  151.2640 S   0  0  0  0  0  0  0  0  0  0  0  0
  161.0860  206.1410  152.5000 C   0  0  0  0  0  2  0  0  0  0  0  0
  161.0190  207.6760  152.4090 C   0  0  2  0  0  3  0  0  0  0  0  0
  162.1730  208.2170  151.8370 O   0  0  0  0  0  1  0  0  0  0  0  0
  160.8470  210.4430  154.9800 C   0  0  0  0  0  2  0  0  0  0  0  0
  160.6860  208.3590  153.6670 N   0  0  0  0  0  0  0  0  0  0  0  0
  160.9740  208.2170  156.1500 C   0  0  2  0  0  3  0  0  0  0  0  0
  161.0660  207.4960  154.7950 C   0  0  0  0  0  2  0  0  0  0  0  0
  161.3640  209.6540  153.7710 C   0  0  0  0  0  2  0  0  0  0  0  0
  160.2970  207.3180  157.1620 C   0  0  0  0  0  1  0  0  0  0  0  0
  160.2180  209.5400  156.0440 C   0  0  0  0  0  2  0  0  0  0  0  0
  1  3  1  0  0  0  0
  2  1  1  0  0  0  0
  4  6  1  0  0  0  0
  5  2  2  0  0  0  0
  6 19  1  0  0  0  0
  6  1  2  0  0  0  0
  7  4  2  0  0  0  0
  7  5  1  0  0  0  0
  8 10  1  0  0  0  0
  8  9  2  0  0  0  0
  9 13  1  0  0  0  0
 10 12  1  0  0  0  0
 12 14  2  0  0  0  0
 13 17  1  0  0  0  0
 13 11  2  0  0  0  0
 14 11  1  0  0  0  0
 14  4  1  0  0  0  0
 16 15  2  0  0  0  0
 16 18  1  0  0  0  0
 17 16  1  0  0  0  0
 19 20  1  0  0  0  0
 20 21  1  0  0  0  0
 22 23  1  1  0  0  0
 22 21  1  0  0  0  0
 22 25  1  0  0  0  0
 24 30  1  0  0  0  0
 25 28  1  0  0  0  0
 25 27  1  0  0  0  0
 26 29  1  1  0  0  0
 27 26  1  0  0  0  0
 28 24  1  0  0  0  0
 30 26  1  0  0  0  0
M  END
>  <MODEL>
2

>  <REMARK>
 VINA RESULT:      -8.6      3.785      6.297
  Name = 
  7 active torsions:
  status: ('A' for Active; 'I' for Inactive)
    1  A    between atoms: S_1  and  C_4
    2  A    between atoms: S_1  and  C_5
    3  A    between atoms: C_4  and  C_27
    4  A    between atoms: C_5  and  C_22
    5  A    between atoms: N_8  and  C_27
    6  A    between atoms: N_16  and  C_25
    7  A    between atoms: C_19  and  C_29
                            x       y       z     vdW  Elec       q    Type
                         _______ _______ _______ _____ _____    ______ ____

>  <TORSDO>
F 7

$$$$
=
 OpenBabel11052421493D

 30 32  0  0  1  0  0  0  0  0999 V2000
  161.0220  205.6680  152.3750 C   0  0  0  0  0  0  0  0  0  0  0  0
  161.0380  204.4140  152.8980 N   0  0  0  0  0  0  0  0  0  0  0  0
  160.9550  207.0350  153.4800 Cl  0  0  0  0  0  0  0  0  0  0  0  0
  161.0940  204.7130  150.1360 C   0  0  0  0  0  0  0  0  0  0  0  0
  161.0770  203.3100  152.1120 C   0  0  0  0  0  3  0  0  0  0  0  0
  161.0500  205.8530  150.9790 C   0  0  0  0  0  0  0  0  0  0  0  0
  161.1030  203.4400  150.7270 C   0  0  0  0  0  3  0  0  0  0  0  0
  162.2690  205.5080  145.9000 C   0  0  0  0  0  3  0  0  0  0  0  0
  162.2900  204.1770  145.8840 C   0  0  0  0  0  3  0  0  0  0  0  0
  161.2250  206.2820  146.6290 C   0  0  0  0  0  2  0  0  0  0  0  0
  160.8920  203.5860  147.8470 C   0  0  0  0  0  3  0  0  0  0  0  0
  161.2900  206.0200  148.0960 C   0  0  0  0  0  3  0  0  0  0  0  0
  161.3560  203.2960  146.6220 C   0  0  0  0  0  0  0  0  0  0  0  0
  161.1300  204.8110  148.6520 C   0  0  0  0  0  0  0  0  0  0  0  0
  159.3900  202.5750  144.5530 O   0  0  0  0  0  0  0  0  0  0  0  0
  160.1350  201.6880  145.0480 C   0  0  0  0  0  0  0  0  0  0  0  0
  161.0480  201.9940  146.1090 N   0  0  0  0  0  2  0  0  0  0  0  0
  160.0520  200.3860  144.5760 O   0  0  0  0  0  1  0  0  0  0  0  0
  160.9560  207.2400  150.4200 C   0  0  0  0  0  2  0  0  0  0  0  0
  162.5040  208.1390  150.7210 S   0  0  0  0  0  0  0  0  0  0  0  0
  161.6650  209.7480  150.5590 C   0  0  0  0  0  2  0  0  0  0  0  0
  161.7180  210.5900  151.8460 C   0  0  2  0  0  3  0  0  0  0  0  0
  162.5670  210.0290  152.8040 O   0  0  0  0  0  1  0  0  0  0  0  0
  158.5040  212.4850  152.4620 C   0  0  0  0  0  2  0  0  0  0  0  0
  160.4090  210.9140  152.4300 N   0  0  0  0  0  0  0  0  0  0  0  0
  159.2550  211.3880  154.6010 C   0  0  2  0  0  3  0  0  0  0  0  0
  160.5060  210.8400  153.8950 C   0  0  0  0  0  2  0  0  0  0  0  0
  159.9530  212.2460  152.0210 C   0  0  0  0  0  2  0  0  0  0  0  0
  158.8430  210.4490  155.7150 C   0  0  0  0  0  1  0  0  0  0  0  0
  158.0930  211.5870  153.6320 C   0  0  0  0  0  2  0  0  0  0  0  0
  1  2  1  0  0  0  0
  1  3  1  0  0  0  0
  4  7  2  0  0  0  0
  4  6  1  0  0  0  0
  5  2  2  0  0  0  0
  6  1  2  0  0  0  0
  7  5  1  0  0  0  0
  8 10  1  0  0  0  0
  9  8  2  0  0  0  0
  9 13  1  0  0  0  0
 10 12  1  0  0  0  0
 11 14  1  0  0  0  0
 12 14  2  0  0  0  0
 13 11  2  0  0  0  0
 14  4  1  0  0  0  0
 15 16  2  0  0  0  0
 16 17  1  0  0  0  0
 17 13  1  0  0  0  0
 18 16  1  0  0  0  0
 19 20  1  0  0  0  0
 19  6  1  0  0  0  0
 21 20  1  0  0  0  0
 21 22  1  0  0  0  0
 22 25  1  0  0  0  0
 22 23  1  1  0  0  0
 24 30  1  0  0  0  0
 25 27  1  0  0  0  0
 26 29  1  1  0  0  0
 27 26  1  0  0  0  0
 28 25  1  0  0  0  0
 28 24  1  0  0  0  0
 30 26  1  0  0  0  0
M  END
>  <MODEL>
3

>  <REMARK>
 VINA RESULT:      -8.5      2.783      3.876
  Name = 
  7 active torsions:
  status: ('A' for Active; 'I' for Inactive)
    1  A    between atoms: S_1  and  C_4
    2  A    between atoms: S_1  and  C_5
    3  A    between atoms: C_4  and  C_27
    4  A    between atoms: C_5  and  C_22
    5  A    between atoms: N_8  and  C_27
    6  A    between atoms: N_16  and  C_25
    7  A    between atoms: C_19  and  C_29
                            x       y       z     vdW  Elec       q    Type
                         _______ _______ _______ _____ _____    ______ ____

>  <TORSDO>
F 7

$$$$
=
 OpenBabel11052421493D

 30 32  0  0  1  0  0  0  0  0999 V2000
  160.9330  207.6130  152.3440 C   0  0  0  0  0  0  0  0  0  0  0  0
  160.9720  207.2500  153.6530 N   0  0  0  0  0  0  0  0  0  0  0  0
  160.7700  209.3200  151.9530 Cl  0  0  0  0  0  0  0  0  0  0  0  0
  161.1360  205.2700  151.7100 C   0  0  0  0  0  0  0  0  0  0  0  0
  161.0840  205.9540  154.0340 C   0  0  0  0  0  3  0  0  0  0  0  0
  161.0150  206.6330  151.3350 C   0  0  0  0  0  0  0  0  0  0  0  0
  161.1660  204.9490  153.0750 C   0  0  0  0  0  3  0  0  0  0  0  0
  160.2660  201.8300  148.9960 C   0  0  0  0  0  3  0  0  0  0  0  0
  160.5070  202.7690  148.0840 C   0  0  0  0  0  3  0  0  0  0  0  0
  161.0600  201.7140  150.2510 C   0  0  0  0  0  2  0  0  0  0  0  0
  161.7860  204.4630  149.3700 C   0  0  0  0  0  3  0  0  0  0  0  0
  160.8980  202.9290  151.1020 C   0  0  0  0  0  3  0  0  0  0  0  0
  161.5150  203.8480  148.2090 C   0  0  0  0  0  0  0  0  0  0  0  0
  161.2330  204.1680  150.7160 C   0  0  0  0  0  0  0  0  0  0  0  0
  160.5560  206.0720  146.5350 O   0  0  0  0  0  1  0  0  0  0  0  0
  161.6640  205.5280  146.2830 C   0  0  0  0  0  0  0  0  0  0  0  0
  162.1220  204.3960  147.0320 N   0  0  0  0  0  2  0  0  0  0  0  0
  162.4430  206.0180  145.2450 O   0  0  0  0  0  0  0  0  0  0  0  0
  160.8950  207.0440  149.8990 C   0  0  0  0  0  2  0  0  0  0  0  0
  162.4770  207.7120  149.3090 S   0  0  0  0  0  0  0  0  0  0  0  0
  161.6490  209.1310  148.5240 C   0  0  0  0  0  2  0  0  0  0  0  0
  162.3240  210.4780  148.8430 C   0  0  2  0  0  3  0  0  0  0  0  0
  162.3050  210.7620  150.2110 O   0  0  0  0  0  1  0  0  0  0  0  0
  162.3990  213.4300  146.4810 C   0  0  0  0  0  2  0  0  0  0  0  0
  161.8310  211.6200  148.0610 N   0  0  0  0  0  0  0  0  0  0  0  0
  160.6770  213.8320  148.2740 C   0  0  2  0  0  3  0  0  0  0  0  0
  161.0390  212.4950  148.9390 C   0  0  0  0  0  2  0  0  0  0  0  0
  162.9330  212.3750  147.4570 C   0  0  0  0  0  2  0  0  0  0  0  0
  159.2210  214.1550  148.5320 C   0  0  0  0  0  1  0  0  0  0  0  0
  160.9460  213.8150  146.7710 C   0  0  0  0  0  2  0  0  0  0  0  0
  1  2  1  0  0  0  0
  2  5  2  0  0  0  0
  3  1  1  0  0  0  0
  4  7  2  0  0  0  0
  6  4  1  0  0  0  0
  6  1  2  0  0  0  0
  7  5  1  0  0  0  0
  8 10  1  0  0  0  0
  9 13  1  0  0  0  0
  9  8  2  0  0  0  0
 10 12  1  0  0  0  0
 11 14  1  0  0  0  0
 13 11  2  0  0  0  0
 14 12  2  0  0  0  0
 14  4  1  0  0  0  0
 16 15  1  0  0  0  0
 16 17  1  0  0  0  0
 17 13  1  0  0  0  0
 18 16  2  0  0  0  0
 19  6  1  0  0  0  0
 20 19  1  0  0  0  0
 21 22  1  0  0  0  0
 21 20  1  0  0  0  0
 22 23  1  1  0  0  0
 24 30  1  0  0  0  0
 24 28  1  0  0  0  0
 25 22  1  0  0  0  0
 25 27  1  0  0  0  0
 26 29  1  6  0  0  0
 26 27  1  0  0  0  0
 28 25  1  0  0  0  0
 30 26  1  0  0  0  0
M  END
>  <MODEL>
4

>  <REMARK>
 VINA RESULT:      -8.4      1.964      2.849
  Name = 
  7 active torsions:
  status: ('A' for Active; 'I' for Inactive)
    1  A    between atoms: S_1  and  C_4
    2  A    between atoms: S_1  and  C_5
    3  A    between atoms: C_4  and  C_27
    4  A    between atoms: C_5  and  C_22
    5  A    between atoms: N_8  and  C_27
    6  A    between atoms: N_16  and  C_25
    7  A    between atoms: C_19  and  C_29
                            x       y       z     vdW  Elec       q    Type
                         _______ _______ _______ _____ _____    ______ ____

>  <TORSDO>
F 7

$$$$
=
 OpenBabel11052421493D

 30 32  0  0  1  0  0  0  0  0999 V2000
  160.7360  209.4880  153.7440 C   0  0  0  0  0  0  0  0  0  0  0  0
  160.6090  209.1440  155.0520 N   0  0  0  0  0  0  0  0  0  0  0  0
  160.6430  211.1920  153.3130 Cl  0  0  0  0  0  0  0  0  0  0  0  0
  160.9890  207.1350  153.1700 C   0  0  0  0  0  0  0  0  0  0  0  0
  160.6590  207.8530  155.4610 C   0  0  0  0  0  3  0  0  0  0  0  0
  160.9310  208.4930  152.7660 C   0  0  0  0  0  0  0  0  0  0  0  0
  160.8460  206.8330  154.5330 C   0  0  0  0  0  3  0  0  0  0  0  0
  160.5510  203.4220  150.7240 C   0  0  0  0  0  3  0  0  0  0  0  0
  160.4570  204.3310  149.7560 C   0  0  0  0  0  3  0  0  0  0  0  0
  161.5090  203.5590  151.8580 C   0  0  0  0  0  2  0  0  0  0  0  0
  161.4880  206.3380  150.7900 C   0  0  0  0  0  3  0  0  0  0  0  0
  161.1970  204.7630  152.6810 C   0  0  0  0  0  3  0  0  0  0  0  0
  161.2090  205.6060  149.7010 C   0  0  0  0  0  0  0  0  0  0  0  0
  161.1950  206.0180  152.2100 C   0  0  0  0  0  0  0  0  0  0  0  0
  162.1950  204.2730  147.2680 O   0  0  0  0  0  1  0  0  0  0  0  0
  161.9280  205.5040  147.2460 C   0  0  0  0  0  0  0  0  0  0  0  0
  161.5190  206.1960  148.4320 N   0  0  0  0  0  2  0  0  0  0  0  0
  162.0580  206.2090  146.0570 O   0  0  0  0  0  0  0  0  0  0  0  0
  160.9940  208.8860  151.3210 C   0  0  0  0  0  2  0  0  0  0  0  0
  162.4780  209.8860  151.0110 S   0  0  0  0  0  0  0  0  0  0  0  0
  161.9370  210.2620  149.3130 C   0  0  0  0  0  2  0  0  0  0  0  0
  161.9610  211.7670  148.9910 C   0  0  2  0  0  3  0  0  0  0  0  0
  161.1340  212.5000  149.8460 O   0  0  0  0  0  1  0  0  0  0  0  0
  162.4490  213.3520  145.5920 C   0  0  0  0  0  2  0  0  0  0  0  0
  161.6950  212.1060  147.5860 N   0  0  0  0  0  0  0  0  0  0  0  0
  159.9860  213.1320  146.0700 C   0  0  2  0  0  3  0  0  0  0  0  0
  160.2960  212.5370  147.4530 C   0  0  0  0  0  2  0  0  0  0  0  0
  162.5950  213.1590  147.1060 C   0  0  0  0  0  2  0  0  0  0  0  0
  158.6770  212.5760  145.5550 C   0  0  0  0  0  1  0  0  0  0  0  0
  161.1010  212.8530  145.0650 C   0  0  0  0  0  2  0  0  0  0  0  0
  1  2  1  0  0  0  0
  2  5  2  0  0  0  0
  3  1  1  0  0  0  0
  4  7  2  0  0  0  0
  6  4  1  0  0  0  0
  6  1  2  0  0  0  0
  7  5  1  0  0  0  0
  8 10  1  0  0  0  0
  9  8  2  0  0  0  0
 10 12  1  0  0  0  0
 11 14  1  0  0  0  0
 13  9  1  0  0  0  0
 13 11  2  0  0  0  0
 14 12  2  0  0  0  0
 14  4  1  0  0  0  0
 16 15  1  0  0  0  0
 16 17  1  0  0  0  0
 17 13  1  0  0  0  0
 18 16  2  0  0  0  0
 19  6  1  0  0  0  0
 20 19  1  0  0  0  0
 21 20  1  0  0  0  0
 22 21  1  0  0  0  0
 22 23  1  1  0  0  0
 24 28  1  0  0  0  0
 25 22  1  0  0  0  0
 26 29  1  6  0  0  0
 26 27  1  0  0  0  0
 27 25  1  0  0  0  0
 28 25  1  0  0  0  0
 30 24  1  0  0  0  0
 30 26  1  0  0  0  0
M  END
>  <MODEL>
5

>  <REMARK>
 VINA RESULT:      -8.3      2.218      3.513
  Name = 
  7 active torsions:
  status: ('A' for Active; 'I' for Inactive)
    1  A    between atoms: S_1  and  C_4
    2  A    between atoms: S_1  and  C_5
    3  A    between atoms: C_4  and  C_27
    4  A    between atoms: C_5  and  C_22
    5  A    between atoms: N_8  and  C_27
    6  A    between atoms: N_16  and  C_25
    7  A    between atoms: C_19  and  C_29
                            x       y       z     vdW  Elec       q    Type
                         _______ _______ _______ _____ _____    ______ ____

>  <TORSDO>
F 7

$$$$
=
 OpenBabel11052421493D

 30 32  0  0  1  0  0  0  0  0999 V2000
  162.2330  208.4170  149.4510 C   0  0  0  0  0  0  0  0  0  0  0  0
  162.2340  209.7250  149.0850 N   0  0  0  0  0  0  0  0  0  0  0  0
  162.7130  207.2150  148.2600 Cl  0  0  0  0  0  0  0  0  0  0  0  0
  161.4610  209.0570  151.6700 C   0  0  0  0  0  0  0  0  0  0  0  0
  161.8660  210.7090  149.9420 C   0  0  0  0  0  3  0  0  0  0  0  0
  161.8470  208.0460  150.7540 C   0  0  0  0  0  0  0  0  0  0  0  0
  161.4740  210.3940  151.2410 C   0  0  0  0  0  3  0  0  0  0  0  0
  161.3270  207.7560  155.9420 C   0  0  0  0  0  3  0  0  0  0  0  0
  161.2200  209.0720  156.1130 C   0  0  0  0  0  3  0  0  0  0  0  0
  160.6360  207.0360  154.8350 C   0  0  0  0  0  2  0  0  0  0  0  0
  160.4550  209.8520  153.8850 C   0  0  0  0  0  3  0  0  0  0  0  0
  161.1300  207.4980  153.5050 C   0  0  0  0  0  3  0  0  0  0  0  0
  160.4860  209.9970  155.2180 C   0  0  0  0  0  0  0  0  0  0  0  0
  161.0430  208.7620  153.0660 C   0  0  0  0  0  0  0  0  0  0  0  0
  157.6400  210.7030  155.4730 O   0  0  0  0  0  0  0  0  0  0  0  0
  158.5230  211.4800  155.9250 C   0  0  0  0  0  0  0  0  0  0  0  0
  159.9160  211.2000  155.7490 N   0  0  0  0  0  2  0  0  0  0  0  0
  158.1390  212.6400  156.5820 O   0  0  0  0  0  1  0  0  0  0  0  0
  161.7810  206.5930  151.1150 C   0  0  0  0  0  2  0  0  0  0  0  0
  160.4800  205.7700  150.1530 S   0  0  0  0  0  0  0  0  0  0  0  0
  161.4450  204.2280  150.0620 C   0  0  0  0  0  2  0  0  0  0  0  0
  160.6680  203.0650  149.4200 C   0  0  2  0  0  3  0  0  0  0  0  0
  161.0690  201.8260  149.9250 O   0  0  0  0  0  1  0  0  0  0  0  0
  160.6150  201.6810  145.9010 C   0  0  0  0  0  2  0  0  0  0  0  0
  160.6640  203.0570  147.9500 N   0  0  0  0  0  0  0  0  0  0  0  0
  161.9700  203.8030  145.9480 C   0  0  2  0  0  3  0  0  0  0  0  0
  161.7440  203.9280  147.4640 C   0  0  0  0  0  2  0  0  0  0  0  0
  160.8310  201.7010  147.4190 C   0  0  0  0  0  2  0  0  0  0  0  0
  162.1230  205.1800  145.3390 C   0  0  0  0  0  1  0  0  0  0  0  0
  160.8310  203.0540  145.2610 C   0  0  0  0  0  2  0  0  0  0  0  0
  1  6  1  0  0  0  0
  2  1  2  0  0  0  0
  2  5  1  0  0  0  0
  3  1  1  0  0  0  0
  4 14  1  0  0  0  0
  5  7  2  0  0  0  0
  6 19  1  0  0  0  0
  6  4  2  0  0  0  0
  7  4  1  0  0  0  0
  8  9  2  0  0  0  0
 10  8  1  0  0  0  0
 11 13  2  0  0  0  0
 12 10  1  0  0  0  0
 13 17  1  0  0  0  0
 13  9  1  0  0  0  0
 14 12  2  0  0  0  0
 14 11  1  0  0  0  0
 15 16  2  0  0  0  0
 16 18  1  0  0  0  0
 17 16  1  0  0  0  0
 20 19  1  0  0  0  0
 21 20  1  0  0  0  0
 22 23  1  1  0  0  0
 22 21  1  0  0  0  0
 24 28  1  0  0  0  0
 25 22  1  0  0  0  0
 26 29  1  6  0  0  0
 26 27  1  0  0  0  0
 27 25  1  0  0  0  0
 28 25  1  0  0  0  0
 30 24  1  0  0  0  0
 30 26  1  0  0  0  0
M  END
>  <MODEL>
6

>  <REMARK>
 VINA RESULT:      -7.9      3.566      9.171
  Name = 
  7 active torsions:
  status: ('A' for Active; 'I' for Inactive)
    1  A    between atoms: S_1  and  C_4
    2  A    between atoms: S_1  and  C_5
    3  A    between atoms: C_4  and  C_27
    4  A    between atoms: C_5  and  C_22
    5  A    between atoms: N_8  and  C_27
    6  A    between atoms: N_16  and  C_25
    7  A    between atoms: C_19  and  C_29
                            x       y       z     vdW  Elec       q    Type
                         _______ _______ _______ _____ _____    ______ ____

>  <TORSDO>
F 7

$$$$
=
 OpenBabel11052421493D

 30 32  0  0  1  0  0  0  0  0999 V2000
  161.0170  204.7020  152.1630 C   0  0  0  0  0  0  0  0  0  0  0  0
  161.1420  203.3720  152.4060 N   0  0  0  0  0  0  0  0  0  0  0  0
  160.8210  205.7890  153.5340 Cl  0  0  0  0  0  0  0  0  0  0  0  0
  161.1890  204.2630  149.7740 C   0  0  0  0  0  0  0  0  0  0  0  0
  161.2850  202.4710  151.4040 C   0  0  0  0  0  3  0  0  0  0  0  0
  161.0370  205.1860  150.8400 C   0  0  0  0  0  0  0  0  0  0  0  0
  161.3080  202.8980  150.0790 C   0  0  0  0  0  3  0  0  0  0  0  0
  162.4190  205.8320  145.7770 C   0  0  0  0  0  3  0  0  0  0  0  0
  162.2800  204.5440  145.4700 C   0  0  0  0  0  3  0  0  0  0  0  0
  161.4810  206.5410  146.6910 C   0  0  0  0  0  2  0  0  0  0  0  0
  160.8370  203.6990  147.3030 C   0  0  0  0  0  3  0  0  0  0  0  0
  161.5240  205.9550  148.0630 C   0  0  0  0  0  3  0  0  0  0  0  0
  161.2530  203.6350  146.0300 C   0  0  0  0  0  0  0  0  0  0  0  0
  161.2260  204.6800  148.3480 C   0  0  0  0  0  0  0  0  0  0  0  0
  161.1530  200.7950  146.8000 O   0  0  0  0  0  1  0  0  0  0  0  0
  160.6850  201.1620  145.6900 C   0  0  0  0  0  0  0  0  0  0  0  0
  160.7870  202.5230  145.2550 N   0  0  0  0  0  2  0  0  0  0  0  0
  160.0840  200.2250  144.8610 O   0  0  0  0  0  0  0  0  0  0  0  0
  160.8230  206.6470  150.5880 C   0  0  0  0  0  2  0  0  0  0  0  0
  162.0810  207.6220  151.4630 S   0  0  0  0  0  0  0  0  0  0  0  0
  160.8310  208.8040  152.0590 C   0  0  0  0  0  2  0  0  0  0  0  0
  161.4400  210.0000  152.8120 C   0  0  2  0  0  3  0  0  0  0  0  0
  162.7920  210.1780  152.5060 O   0  0  0  0  0  1  0  0  0  0  0  0
  161.9650  210.8560  156.4580 C   0  0  0  0  0  2  0  0  0  0  0  0
  161.2270  209.9920  154.2660 N   0  0  0  0  0  0  0  0  0  0  0  0
  161.1500  208.4820  156.2620 C   0  0  2  0  0  3  0  0  0  0  0  0
  161.1390  208.5990  154.7290 C   0  0  0  0  0  2  0  0  0  0  0  0
  162.3050  210.6910  154.9720 C   0  0  0  0  0  2  0  0  0  0  0  0
  160.0840  207.5050  156.7080 C   0  0  0  0  0  1  0  0  0  0  0  0
  160.9350  209.8320  156.9400 C   0  0  0  0  0  2  0  0  0  0  0  0
  1  2  1  0  0  0  0
  1  3  1  0  0  0  0
  4  7  2  0  0  0  0
  4  6  1  0  0  0  0
  5  2  2  0  0  0  0
  6  1  2  0  0  0  0
  7  5  1  0  0  0  0
  8 10  1  0  0  0  0
  9  8  2  0  0  0  0
  9 13  1  0  0  0  0
 10 12  1  0  0  0  0
 11 14  1  0  0  0  0
 12 14  2  0  0  0  0
 13 11  2  0  0  0  0
 14  4  1  0  0  0  0
 16 15  1  0  0  0  0
 17 16  1  0  0  0  0
 17 13  1  0  0  0  0
 18 16  2  0  0  0  0
 19  6  1  0  0  0  0
 19 20  1  0  0  0  0
 20 21  1  0  0  0  0
 21 22  1  0  0  0  0
 22 23  1  1  0  0  0
 22 25  1  0  0  0  0
 24 30  1  0  0  0  0
 25 27  1  0  0  0  0
 25 28  1  0  0  0  0
 26 29  1  6  0  0  0
 26 30  1  0  0  0  0
 27 26  1  0  0  0  0
 28 24  1  0  0  0  0
M  END
>  <MODEL>
7

>  <REMARK>
 VINA RESULT:      -7.8      3.485      5.079
  Name = 
  7 active torsions:
  status: ('A' for Active; 'I' for Inactive)
    1  A    between atoms: S_1  and  C_4
    2  A    between atoms: S_1  and  C_5
    3  A    between atoms: C_4  and  C_27
    4  A    between atoms: C_5  and  C_22
    5  A    between atoms: N_8  and  C_27
    6  A    between atoms: N_16  and  C_25
    7  A    between atoms: C_19  and  C_29
                            x       y       z     vdW  Elec       q    Type
                         _______ _______ _______ _____ _____    ______ ____

>  <TORSDO>
F 7

$$$$
=
 OpenBabel11052421493D

 30 32  0  0  1  0  0  0  0  0999 V2000
  160.3980  208.9080  154.9110 C   0  0  0  0  0  0  0  0  0  0  0  0
  159.6920  210.0620  155.0400 N   0  0  0  0  0  0  0  0  0  0  0  0
  160.4750  207.8160  156.2870 Cl  0  0  0  0  0  0  0  0  0  0  0  0
  160.9630  209.5340  152.6260 C   0  0  0  0  0  0  0  0  0  0  0  0
  159.5950  210.9600  154.0290 C   0  0  0  0  0  3  0  0  0  0  0  0
  161.0530  208.6110  153.7000 C   0  0  0  0  0  0  0  0  0  0  0  0
  160.2270  210.7130  152.8130 C   0  0  0  0  0  3  0  0  0  0  0  0
  161.9420  208.1910  148.4790 C   0  0  0  0  0  3  0  0  0  0  0  0
  161.7860  209.4940  148.2530 C   0  0  0  0  0  3  0  0  0  0  0  0
  162.6170  207.6670  149.7000 C   0  0  0  0  0  2  0  0  0  0  0  0
  162.0620  210.4760  150.5150 C   0  0  0  0  0  3  0  0  0  0  0  0
  161.8620  208.0410  150.9310 C   0  0  0  0  0  3  0  0  0  0  0  0
  162.1780  210.5780  149.1830 C   0  0  0  0  0  0  0  0  0  0  0  0
  161.6180  209.3030  151.3110 C   0  0  0  0  0  0  0  0  0  0  0  0
  160.4720  212.9530  148.8420 O   0  0  0  0  0  1  0  0  0  0  0  0
  161.7020  213.0210  148.5810 C   0  0  0  0  0  0  0  0  0  0  0  0
  162.5430  211.8640  148.6650 N   0  0  0  0  0  2  0  0  0  0  0  0
  162.2490  214.2320  148.1810 O   0  0  0  0  0  0  0  0  0  0  0  0
  161.8880  207.3710  153.6010 C   0  0  0  0  0  2  0  0  0  0  0  0
  160.8310  205.8980  153.7040 S   0  0  0  0  0  0  0  0  0  0  0  0
  161.6750  205.1250  152.2870 C   0  0  0  0  0  2  0  0  0  0  0  0
  160.8500  204.0050  151.6290 C   0  0  2  0  0  3  0  0  0  0  0  0
  160.8640  202.8310  152.3860 O   0  0  0  0  0  1  0  0  0  0  0  0
  161.2060  204.5870  147.9100 C   0  0  0  0  0  2  0  0  0  0  0  0
  161.1840  203.7300  150.2250 N   0  0  0  0  0  0  0  0  0  0  0  0
  160.7190  202.1540  148.3350 C   0  0  2  0  0  3  0  0  0  0  0  0
  160.6240  202.4240  149.8460 C   0  0  0  0  0  2  0  0  0  0  0  0
  160.6730  204.7760  149.3350 C   0  0  0  0  0  2  0  0  0  0  0  0
  161.2070  200.7400  148.0990 C   0  0  0  0  0  1  0  0  0  0  0  0
  161.6430  203.1470  147.6340 C   0  0  0  0  0  2  0  0  0  0  0  0
  1  2  1  0  0  0  0
  1  3  1  0  0  0  0
  4  7  2  0  0  0  0
  4  6  1  0  0  0  0
  5  2  2  0  0  0  0
  6  1  2  0  0  0  0
  7  5  1  0  0  0  0
  8 10  1  0  0  0  0
  9  8  2  0  0  0  0
  9 13  1  0  0  0  0
 10 12  1  0  0  0  0
 11 14  1  0  0  0  0
 12 14  2  0  0  0  0
 13 11  2  0  0  0  0
 14  4  1  0  0  0  0
 16 17  1  0  0  0  0
 16 15  1  0  0  0  0
 17 13  1  0  0  0  0
 18 16  2  0  0  0  0
 19  6  1  0  0  0  0
 19 20  1  0  0  0  0
 21 20  1  0  0  0  0
 22 21  1  0  0  0  0
 22 23  1  1  0  0  0
 24 28  1  0  0  0  0
 25 22  1  0  0  0  0
 26 29  1  1  0  0  0
 26 27  1  0  0  0  0
 27 25  1  0  0  0  0
 28 25  1  0  0  0  0
 30 24  1  0  0  0  0
 30 26  1  0  0  0  0
M  END
>  <MODEL>
8

>  <REMARK>
 VINA RESULT:      -7.8      2.968      8.018
  Name = 
  7 active torsions:
  status: ('A' for Active; 'I' for Inactive)
    1  A    between atoms: S_1  and  C_4
    2  A    between atoms: S_1  and  C_5
    3  A    between atoms: C_4  and  C_27
    4  A    between atoms: C_5  and  C_22
    5  A    between atoms: N_8  and  C_27
    6  A    between atoms: N_16  and  C_25
    7  A    between atoms: C_19  and  C_29
                            x       y       z     vdW  Elec       q    Type
                         _______ _______ _______ _____ _____    ______ ____

>  <TORSDO>
F 7

$$$$
=
 OpenBabel11052421493D

 30 32  0  0  1  0  0  0  0  0999 V2000
  161.9010  208.5890  149.2800 C   0  0  0  0  0  0  0  0  0  0  0  0
  162.3390  209.7020  148.6360 N   0  0  0  0  0  0  0  0  0  0  0  0
  161.9380  207.0550  148.4180 Cl  0  0  0  0  0  0  0  0  0  0  0  0
  161.4110  209.9410  151.2450 C   0  0  0  0  0  0  0  0  0  0  0  0
  162.3320  210.9220  149.2280 C   0  0  0  0  0  3  0  0  0  0  0  0
  161.4260  208.6770  150.6030 C   0  0  0  0  0  0  0  0  0  0  0  0
  161.8690  211.0610  150.5330 C   0  0  0  0  0  3  0  0  0  0  0  0
  161.0330  211.0480  155.5560 C   0  0  0  0  0  3  0  0  0  0  0  0
  160.0840  211.8310  155.0480 C   0  0  0  0  0  3  0  0  0  0  0  0
  161.2630  209.6560  155.0760 C   0  0  0  0  0  2  0  0  0  0  0  0
  159.6040  210.7580  152.8620 C   0  0  0  0  0  3  0  0  0  0  0  0
  161.6770  209.6460  153.6430 C   0  0  0  0  0  3  0  0  0  0  0  0
  159.1940  211.4760  153.9180 C   0  0  0  0  0  0  0  0  0  0  0  0
  160.9310  210.1300  152.6390 C   0  0  0  0  0  0  0  0  0  0  0  0
  156.7770  210.7110  155.4150 O   0  0  0  0  0  1  0  0  0  0  0  0
  156.7460  211.6990  154.6340 C   0  0  0  0  0  0  0  0  0  0  0  0
  157.8830  212.0490  153.8360 N   0  0  0  0  0  2  0  0  0  0  0  0
  155.5820  212.4460  154.5260 O   0  0  0  0  0  0  0  0  0  0  0  0
  160.8780  207.4520  151.2700 C   0  0  0  0  0  2  0  0  0  0  0  0
  162.1790  206.6360  152.2390 S   0  0  0  0  0  0  0  0  0  0  0  0
  162.1580  205.1800  151.1450 C   0  0  0  0  0  2  0  0  0  0  0  0
  160.8240  204.4120  151.1850 C   0  0  2  0  0  3  0  0  0  0  0  0
  160.5950  203.8260  152.4320 O   0  0  0  0  0  1  0  0  0  0  0  0
  160.6590  201.0540  149.4550 C   0  0  0  0  0  2  0  0  0  0  0  0
  160.6370  203.4360  150.1030 N   0  0  0  0  0  0  0  0  0  0  0  0
  161.4640  202.7980  147.8270 C   0  0  2  0  0  3  0  0  0  0  0  0
  161.4090  203.8690  148.9280 C   0  0  0  0  0  2  0  0  0  0  0  0
  161.0530  202.0920  150.5120 C   0  0  0  0  0  2  0  0  0  0  0  0
  161.2070  203.4360  146.4790 C   0  0  0  0  0  1  0  0  0  0  0  0
  160.4590  201.6750  148.0710 C   0  0  0  0  0  2  0  0  0  0  0  0
  1  6  1  0  0  0  0
  2  5  1  0  0  0  0
  2  1  2  0  0  0  0
  3  1  1  0  0  0  0
  4 14  1  0  0  0  0
  5  7  2  0  0  0  0
  6  4  2  0  0  0  0
  6 19  1  0  0  0  0
  7  4  1  0  0  0  0
  9  8  2  0  0  0  0
 10  8  1  0  0  0  0
 11 13  2  0  0  0  0
 12 10  1  0  0  0  0
 13  9  1  0  0  0  0
 14 11  1  0  0  0  0
 14 12  2  0  0  0  0
 16 15  1  0  0  0  0
 17 13  1  0  0  0  0
 17 16  1  0  0  0  0
 18 16  2  0  0  0  0
 19 20  1  0  0  0  0
 21 22  1  0  0  0  0
 21 20  1  0  0  0  0
 22 23  1  1  0  0  0
 24 28  1  0  0  0  0
 25 28  1  0  0  0  0
 25 22  1  0  0  0  0
 26 29  1  6  0  0  0
 26 30  1  0  0  0  0
 26 27  1  0  0  0  0
 27 25  1  0  0  0  0
 30 24  1  0  0  0  0
M  END
>  <MODEL>
9

>  <REMARK>
 VINA RESULT:      -7.7      4.170      9.369
  Name = 
  7 active torsions:
  status: ('A' for Active; 'I' for Inactive)
    1  A    between atoms: S_1  and  C_4
    2  A    between atoms: S_1  and  C_5
    3  A    between atoms: C_4  and  C_27
    4  A    between atoms: C_5  and  C_22
    5  A    between atoms: N_8  and  C_27
    6  A    between atoms: N_16  and  C_25
    7  A    between atoms: C_19  and  C_29
                            x       y       z     vdW  Elec       q    Type
                         _______ _______ _______ _____ _____    ______ ____

>  <TORSDO>
F 7

$$$$
