=
 OpenBabel11062409283D

 34 39  0  0  1  0  0  0  0  0999 V2000
  159.4810  209.8030  155.6960 C   0  0  1  0  0  3  0  0  0  0  0  0
  157.1320  212.8540  156.4790 C   0  0  0  0  0  2  0  0  0  0  0  0
  159.6140  212.4810  156.9130 C   0  0  0  0  0  2  0  0  0  0  0  0
  160.7570  207.8580  155.0700 C   0  0  2  0  0  3  0  0  0  0  0  0
  159.6710  208.7820  154.6710 N   0  0  0  0  0  2  0  0  0  0  0  0
  162.0350  209.9660  155.7960 C   0  0  1  0  0  3  0  0  0  0  0  0
  162.8120  210.5570  156.8220 O   0  0  0  0  0  0  0  0  0  0  0  0
  161.8360  208.4630  156.0230 C   0  0  0  0  0  2  0  0  0  0  0  0
  160.6410  211.3660  157.0560 C   0  0  1  0  0  3  0  0  0  0  0  0
  160.7090  210.6780  155.7610 C   0  0  2  0  0  3  0  0  0  0  0  0
  162.0900  211.6960  157.2600 C   0  0  0  0  0  2  0  0  0  0  0  0
  156.0290  212.2940  155.8050 O   0  0  0  0  0  0  0  0  0  0  0  0
  156.1030  212.6030  154.4200 C   0  0  2  0  0  3  0  0  0  0  0  0
  157.5180  212.6040  153.8060 C   0  0  0  0  0  2  0  0  0  0  0  0
  158.2450  211.8160  156.6140 C   0  0  2  0  0  3  0  0  0  0  0  0
  158.2820  211.2980  154.0260 C   0  0  0  0  0  2  0  0  0  0  0  0
  158.2780  210.7390  155.4660 C   0  0  1  0  0  3  0  0  0  0  0  0
  162.0830  207.6700  151.5530 O   0  0  0  0  0  0  0  0  0  0  0  0
  161.5780  205.0360  152.6030 C   0  0  0  0  0  2  0  0  0  0  0  0
  160.8750  205.9520  148.4000 C   0  0  2  0  0  3  0  0  0  0  0  0
  161.7140  206.9300  149.2190 C   0  0  0  0  0  2  0  0  0  0  0  0
  161.6850  206.6380  150.6970 C   0  0  0  0  0  0  0  0  0  0  0  0
  161.3600  207.1940  153.8310 C   0  0  1  0  0  3  0  0  0  0  0  0
  160.8190  204.3330  150.2690 C   0  0  0  0  0  2  0  0  0  0  0  0
  161.3710  205.4080  151.1680 C   0  0  0  0  0  0  0  0  0  0  0  0
  161.2120  204.5280  148.8110 C   0  0  0  0  0  2  0  0  0  0  0  0
  160.7010  205.8520  153.5340 C   0  0  0  0  0  2  0  0  0  0  0  0
  161.2720  208.1260  152.6310 C   0  0  0  0  0  2  0  0  0  0  0  0
  161.1310  206.1480  146.9440 C   0  0  0  0  0  0  0  0  0  0  0  0
  162.3130  206.2440  146.5260 O   0  0  0  0  0  1  0  0  0  0  0  0
  160.0730  206.2270  146.0450 O   0  0  0  0  0  0  0  0  0  0  0  0
  155.3750  213.8690  154.1110 C   0  0  0  0  0  0  0  0  0  0  0  0
  154.6560  214.4240  154.9830 O   0  0  0  0  0  0  0  0  0  0  0  0
  155.4950  214.4530  152.8190 N   0  0  0  0  0  1  0  0  0  0  0  0
  1  5  1  6  0  0  0
  1 10  1  0  0  0  0
  2 15  1  0  0  0  0
  4  8  1  6  0  0  0
  5  4  1  0  0  0  0
  6  8  1  1  0  0  0
  6  7  1  0  0  0  0
  7 11  1  0  0  0  0
  9  3  1  6  0  0  0
  9 11  1  0  0  0  0
 10  6  1  0  0  0  0
 10  9  1  0  0  0  0
 12  2  1  0  0  0  0
 13 12  1  0  0  0  0
 14 16  1  0  0  0  0
 14 13  1  0  0  0  0
 15  3  1  0  0  0  0
 16 17  1  0  0  0  0
 17  1  1  0  0  0  0
 17 15  1  0  0  0  0
 18 28  1  0  0  0  0
 19 27  1  0  0  0  0
 20 26  1  0  0  0  0
 20 21  1  0  0  0  0
 21 22  1  0  0  0  0
 22 25  2  0  0  0  0
 22 18  1  0  0  0  0
 23  4  1  0  0  0  0
 24 25  1  0  0  0  0
 25 19  1  0  0  0  0
 26 24  1  0  0  0  0
 27 23  1  0  0  0  0
 28 23  1  0  0  0  0
 29 20  1  0  0  0  0
 30 29  1  0  0  0  0
 31 29  2  0  0  0  0
 32 13  1  0  0  0  0
 32 33  2  0  0  0  0
 34 32  1  0  0  0  0
M  END
>  <MODEL>
1

>  <REMARK>
 VINA RESULT:      -9.1      0.000      0.000
  Name = 
  3 active torsions:
  status: ('A' for Active; 'I' for Inactive)
    1  A    between atoms: C_3  and  C_25
    2  A    between atoms: C_7  and  C_11
    3  A    between atoms: C_8  and  C_18
                            x       y       z     vdW  Elec       q    Type
                         _______ _______ _______ _____ _____    ______ ____

>  <TORSDO>
F 3

$$$$
=
 OpenBabel11062409283D

 34 39  0  0  1  0  0  0  0  0999 V2000
  162.1150  205.7160  150.1180 C   0  0  1  0  0  3  0  0  0  0  0  0
  161.8120  203.7080  146.7540 C   0  0  0  0  0  2  0  0  0  0  0  0
  160.9250  203.2240  149.0930 C   0  0  0  0  0  2  0  0  0  0  0  0
  162.3630  207.1290  152.0530 C   0  0  2  0  0  3  0  0  0  0  0  0
  162.1430  207.0960  150.5890 N   0  0  0  0  0  2  0  0  0  0  0  0
  160.6640  205.2040  152.1670 C   0  0  1  0  0  3  0  0  0  0  0  0
  160.3890  203.9290  152.7190 O   0  0  0  0  0  0  0  0  0  0  0  0
  161.8750  205.8670  152.8320 C   0  0  0  0  0  2  0  0  0  0  0  0
  161.1680  203.5810  150.5530 C   0  0  1  0  0  3  0  0  0  0  0  0
  160.9040  205.0180  150.6920 C   0  0  2  0  0  3  0  0  0  0  0  0
  160.2670  203.0390  151.6220 C   0  0  0  0  0  2  0  0  0  0  0  0
  162.4290  204.7180  145.9900 O   0  0  0  0  0  0  0  0  0  0  0  0
  161.4630  205.6820  145.5960 C   0  0  2  0  0  3  0  0  0  0  0  0
  160.3680  206.0000  146.6340 C   0  0  0  0  0  2  0  0  0  0  0  0
  161.9530  204.0180  148.2440 C   0  0  2  0  0  3  0  0  0  0  0  0
  160.9190  206.4330  147.9930 C   0  0  0  0  0  2  0  0  0  0  0  0
  162.0400  205.5520  148.5870 C   0  0  1  0  0  3  0  0  0  0  0  0
  160.9020  209.4000  154.6740 O   0  0  0  0  0  0  0  0  0  0  0  0
  160.6990  210.5870  152.0580 C   0  0  0  0  0  2  0  0  0  0  0  0
  157.5650  211.1590  155.0330 C   0  0  2  0  0  3  0  0  0  0  0  0
  158.9160  210.6250  155.5040 C   0  0  0  0  0  2  0  0  0  0  0  0
  159.8280  210.2420  154.3670 C   0  0  0  0  0  0  0  0  0  0  0  0
  161.8200  208.4360  152.6330 C   0  0  1  0  0  3  0  0  0  0  0  0
  158.4450  211.5600  152.7560 C   0  0  0  0  0  2  0  0  0  0  0  0
  159.6660  210.7580  153.1270 C   0  0  0  0  0  0  0  0  0  0  0  0
  157.7840  212.2140  153.9610 C   0  0  0  0  0  2  0  0  0  0  0  0
  160.8720  209.1320  151.6640 C   0  0  0  0  0  2  0  0  0  0  0  0
  161.1450  208.1840  153.9740 C   0  0  0  0  0  2  0  0  0  0  0  0
  156.8090  211.7330  156.1830 C   0  0  0  0  0  0  0  0  0  0  0  0
  157.3880  212.5130  156.9830 O   0  0  0  0  0  1  0  0  0  0  0  0
  155.4710  211.4120  156.3800 O   0  0  0  0  0  0  0  0  0  0  0  0
  160.8700  205.3400  144.2690 C   0  0  0  0  0  0  0  0  0  0  0  0
  159.8880  204.5560  144.1890 O   0  0  0  0  0  0  0  0  0  0  0  0
  161.4210  205.9030  143.0840 N   0  0  0  0  0  1  0  0  0  0  0  0
  1  5  1  6  0  0  0
  1 10  1  0  0  0  0
  2 15  1  0  0  0  0
  4 23  1  0  0  0  0
  4  8  1  1  0  0  0
  5  4  1  0  0  0  0
  6  7  1  0  0  0  0
  6  8  1  1  0  0  0
  9  3  1  6  0  0  0
  9 10  1  0  0  0  0
  9 11  1  0  0  0  0
 10  6  1  0  0  0  0
 11  7  1  0  0  0  0
 12  2  1  0  0  0  0
 13 12  1  0  0  0  0
 13 14  1  0  0  0  0
 14 16  1  0  0  0  0
 15 17  1  0  0  0  0
 15  3  1  0  0  0  0
 16 17  1  0  0  0  0
 17  1  1  0  0  0  0
 19 25  1  0  0  0  0
 20 21  1  0  0  0  0
 20 29  1  0  0  0  0
 22 18  1  0  0  0  0
 22 21  1  0  0  0  0
 23 28  1  0  0  0  0
 24 25  1  0  0  0  0
 24 26  1  0  0  0  0
 25 22  2  0  0  0  0
 26 20  1  0  0  0  0
 27 19  1  0  0  0  0
 27 23  1  0  0  0  0
 28 18  1  0  0  0  0
 29 31  2  0  0  0  0
 29 30  1  0  0  0  0
 32 13  1  0  0  0  0
 33 32  2  0  0  0  0
 34 32  1  0  0  0  0
M  END
>  <MODEL>
2

>  <REMARK>
 VINA RESULT:      -8.4      2.790      9.592
  Name = 
  3 active torsions:
  status: ('A' for Active; 'I' for Inactive)
    1  A    between atoms: C_3  and  C_25
    2  A    between atoms: C_7  and  C_11
    3  A    between atoms: C_8  and  C_18
                            x       y       z     vdW  Elec       q    Type
                         _______ _______ _______ _____ _____    ______ ____

>  <TORSDO>
F 3

$$$$
=
 OpenBabel11062409283D

 34 39  0  0  1  0  0  0  0  0999 V2000
  162.1510  207.5870  151.5800 C   0  0  1  0  0  3  0  0  0  0  0  0
  161.6120  203.7080  151.8970 C   0  0  0  0  0  2  0  0  0  0  0  0
  160.8580  205.6420  153.3740 C   0  0  0  0  0  2  0  0  0  0  0  0
  162.5390  209.9280  151.1640 C   0  0  2  0  0  3  0  0  0  0  0  0
  162.2310  208.6170  150.5490 N   0  0  0  0  0  2  0  0  0  0  0  0
  160.8170  209.2840  152.9590 C   0  0  1  0  0  3  0  0  0  0  0  0
  160.5520  209.2330  154.3500 O   0  0  0  0  0  0  0  0  0  0  0  0
  162.0760  210.0990  152.6460 C   0  0  0  0  0  2  0  0  0  0  0  0
  161.1940  207.0920  153.6970 C   0  0  1  0  0  3  0  0  0  0  0  0
  160.9650  207.8670  152.4720 C   0  0  2  0  0  3  0  0  0  0  0  0
  160.3500  207.8650  154.6650 C   0  0  0  0  0  2  0  0  0  0  0  0
  162.1990  203.4320  150.6480 O   0  0  0  0  0  0  0  0  0  0  0  0
  161.2290  203.5650  149.6190 C   0  0  2  0  0  3  0  0  0  0  0  0
  160.2030  204.7020  149.8040 C   0  0  0  0  0  2  0  0  0  0  0  0
  161.8470  205.1700  152.2760 C   0  0  2  0  0  3  0  0  0  0  0  0
  160.8430  206.0750  150.0100 C   0  0  0  0  0  2  0  0  0  0  0  0
  161.9810  206.1490  151.0510 C   0  0  1  0  0  3  0  0  0  0  0  0
  160.2940  212.7280  150.0300 O   0  0  0  0  0  0  0  0  0  0  0  0
  162.0550  211.8990  147.9070 C   0  0  0  0  0  2  0  0  0  0  0  0
  157.9710  213.1710  147.0700 C   0  0  2  0  0  3  0  0  0  0  0  0
  158.5610  213.5010  148.4390 C   0  0  0  0  0  2  0  0  0  0  0  0
  159.8740  212.8070  148.6990 C   0  0  0  0  0  0  0  0  0  0  0  0
  162.0550  211.0580  150.2540 C   0  0  1  0  0  3  0  0  0  0  0  0
  160.1510  212.3250  146.2620 C   0  0  0  0  0  2  0  0  0  0  0  0
  160.6490  212.3600  147.6830 C   0  0  0  0  0  0  0  0  0  0  0  0
  159.0420  213.3360  146.0040 C   0  0  0  0  0  2  0  0  0  0  0  0
  162.1140  210.6620  148.7830 C   0  0  0  0  0  2  0  0  0  0  0  0
  160.6510  211.4950  150.6470 C   0  0  0  0  0  2  0  0  0  0  0  0
  156.8080  214.0590  146.7830 C   0  0  0  0  0  0  0  0  0  0  0  0
  156.0770  214.4530  147.7270 O   0  0  0  0  0  1  0  0  0  0  0  0
  156.5250  214.4530  145.4810 O   0  0  0  0  0  0  0  0  0  0  0  0
  160.5510  202.2620  149.3460 C   0  0  0  0  0  0  0  0  0  0  0  0
  159.4830  201.9580  149.9400 O   0  0  0  0  0  0  0  0  0  0  0  0
  161.1190  201.3560  148.4070 N   0  0  0  0  0  1  0  0  0  0  0  0
  1  5  1  6  0  0  0
  1 10  1  0  0  0  0
  2 15  1  0  0  0  0
  4  8  1  1  0  0  0
  5  4  1  0  0  0  0
  6  8  1  1  0  0  0
  6  7  1  0  0  0  0
  7 11  1  0  0  0  0
  9  3  1  6  0  0  0
  9 11  1  0  0  0  0
 10  6  1  0  0  0  0
 10  9  1  0  0  0  0
 12  2  1  0  0  0  0
 13 14  1  0  0  0  0
 13 12  1  0  0  0  0
 14 16  1  0  0  0  0
 15  3  1  0  0  0  0
 16 17  1  0  0  0  0
 17  1  1  0  0  0  0
 17 15  1  0  0  0  0
 18 28  1  0  0  0  0
 19 27  1  0  0  0  0
 20 21  1  0  0  0  0
 21 22  1  0  0  0  0
 22 18  1  0  0  0  0
 23 28  1  0  0  0  0
 23  4  1  0  0  0  0
 24 25  1  0  0  0  0
 25 19  1  0  0  0  0
 25 22  2  0  0  0  0
 26 24  1  0  0  0  0
 26 20  1  0  0  0  0
 27 23  1  0  0  0  0
 29 20  1  0  0  0  0
 29 30  1  0  0  0  0
 31 29  2  0  0  0  0
 32 13  1  0  0  0  0
 32 33  2  0  0  0  0
 34 32  1  0  0  0  0
M  END
>  <MODEL>
3

>  <REMARK>
 VINA RESULT:      -7.0      4.665      8.361
  Name = 
  3 active torsions:
  status: ('A' for Active; 'I' for Inactive)
    1  A    between atoms: C_3  and  C_25
    2  A    between atoms: C_7  and  C_11
    3  A    between atoms: C_8  and  C_18
                            x       y       z     vdW  Elec       q    Type
                         _______ _______ _______ _____ _____    ______ ____

>  <TORSDO>
F 3

$$$$
=
 OpenBabel11062409283D

 34 39  0  0  1  0  0  0  0  0999 V2000
  162.1230  208.4840  150.7790 C   0  0  1  0  0  3  0  0  0  0  0  0
  161.6710  204.6970  151.7240 C   0  0  0  0  0  2  0  0  0  0  0  0
  160.8940  206.8280  152.8830 C   0  0  0  0  0  2  0  0  0  0  0  0
  162.4560  210.7340  149.9870 C   0  0  2  0  0  3  0  0  0  0  0  0
  162.1690  209.3350  149.5950 N   0  0  0  0  0  2  0  0  0  0  0  0
  160.7690  210.3540  151.8890 C   0  0  1  0  0  3  0  0  0  0  0  0
  160.5230  210.5230  153.2730 O   0  0  0  0  0  0  0  0  0  0  0  0
  162.0070  211.1320  151.4290 C   0  0  0  0  0  2  0  0  0  0  0  0
  161.2020  208.3170  152.9620 C   0  0  1  0  0  3  0  0  0  0  0  0
  160.9420  208.8810  151.6330 C   0  0  2  0  0  3  0  0  0  0  0  0
  160.3540  209.2200  153.8070 C   0  0  0  0  0  2  0  0  0  0  0  0
  162.2490  204.2350  150.5260 O   0  0  0  0  0  0  0  0  0  0  0  0
  161.2640  204.1810  149.5050 C   0  0  2  0  0  3  0  0  0  0  0  0
  160.2160  205.3130  149.5200 C   0  0  0  0  0  2  0  0  0  0  0  0
  161.8800  206.2040  151.8600 C   0  0  2  0  0  3  0  0  0  0  0  0
  160.8290  206.7140  149.4930 C   0  0  0  0  0  2  0  0  0  0  0  0
  161.9780  206.9760  150.4910 C   0  0  1  0  0  3  0  0  0  0  0  0
  160.3290  211.8520  147.0900 O   0  0  0  0  0  0  0  0  0  0  0  0
  162.5430  213.6490  147.4930 C   0  0  0  0  0  2  0  0  0  0  0  0
  161.0910  212.7380  143.4860 C   0  0  2  0  0  3  0  0  0  0  0  0
  160.2020  212.3760  144.6730 C   0  0  0  0  0  2  0  0  0  0  0  0
  160.9040  212.5130  146.0000 C   0  0  0  0  0  0  0  0  0  0  0  0
  161.9370  211.6930  148.9150 C   0  0  1  0  0  3  0  0  0  0  0  0
  162.6890  213.9190  144.9590 C   0  0  0  0  0  2  0  0  0  0  0  0
  161.9890  213.3080  146.1450 C   0  0  0  0  0  0  0  0  0  0  0  0
  161.7740  214.0690  143.7520 C   0  0  0  0  0  2  0  0  0  0  0  0
  163.0760  212.4250  148.2140 C   0  0  0  0  0  2  0  0  0  0  0  0
  161.0640  210.9510  147.9120 C   0  0  0  0  0  2  0  0  0  0  0  0
  160.2790  212.8080  142.2370 C   0  0  0  0  0  0  0  0  0  0  0  0
  159.0280  212.9110  142.3120 O   0  0  0  0  0  1  0  0  0  0  0  0
  160.8930  212.7590  140.9910 O   0  0  0  0  0  0  0  0  0  0  0  0
  160.6120  202.8390  149.4550 C   0  0  0  0  0  0  0  0  0  0  0  0
  160.0610  202.3560  150.4790 O   0  0  0  0  0  0  0  0  0  0  0  0
  160.6140  202.0990  148.2390 N   0  0  0  0  0  1  0  0  0  0  0  0
  1  5  1  6  0  0  0
  1 10  1  0  0  0  0
  2 15  1  0  0  0  0
  4  8  1  1  0  0  0
  5  4  1  0  0  0  0
  6  8  1  1  0  0  0
  6  7  1  0  0  0  0
  7 11  1  0  0  0  0
  9  3  1  6  0  0  0
  9 11  1  0  0  0  0
 10  6  1  0  0  0  0
 10  9  1  0  0  0  0
 12  2  1  0  0  0  0
 13 14  1  0  0  0  0
 13 12  1  0  0  0  0
 15  3  1  0  0  0  0
 16 14  1  0  0  0  0
 16 17  1  0  0  0  0
 17  1  1  0  0  0  0
 17 15  1  0  0  0  0
 18 28  1  0  0  0  0
 19 27  1  0  0  0  0
 20 26  1  0  0  0  0
 20 21  1  0  0  0  0
 21 22  1  0  0  0  0
 22 25  2  0  0  0  0
 22 18  1  0  0  0  0
 23  4  1  0  0  0  0
 24 25  1  0  0  0  0
 25 19  1  0  0  0  0
 26 24  1  0  0  0  0
 27 23  1  0  0  0  0
 28 23  1  0  0  0  0
 29 30  1  0  0  0  0
 29 20  1  0  0  0  0
 31 29  2  0  0  0  0
 32 13  1  0  0  0  0
 32 33  2  0  0  0  0
 34 32  1  0  0  0  0
M  END
>  <MODEL>
4

>  <REMARK>
 VINA RESULT:      -6.9      5.184      8.523
  Name = 
  3 active torsions:
  status: ('A' for Active; 'I' for Inactive)
    1  A    between atoms: C_3  and  C_25
    2  A    between atoms: C_7  and  C_11
    3  A    between atoms: C_8  and  C_18
                            x       y       z     vdW  Elec       q    Type
                         _______ _______ _______ _____ _____    ______ ____

>  <TORSDO>
F 3

$$$$
