=
 OpenBabel11062409173D

 37 42  0  0  1  0  0  0  0  0999 V2000
  162.4390  210.1800  154.4650 O   0  0  0  0  0  0  0  0  0  0  0  0
  161.0150  209.3450  150.4360 C   0  0  1  0  0  3  0  0  0  0  0  0
  162.0210  210.4300  155.7870 C   0  0  1  0  0  3  0  0  0  0  0  0
  160.5340  206.4530  152.8860 C   0  0  0  0  0  2  0  0  0  0  0  0
  161.3860  208.5240  151.6570 C   0  0  2  0  0  3  0  0  0  0  0  0
  160.8680  210.7900  150.9250 C   0  0  1  0  0  3  0  0  0  0  0  0
  160.8140  207.1090  151.5270 C   0  0  1  0  0  3  0  0  0  0  0  0
  161.5110  209.2560  156.3760 O   0  0  0  0  0  0  0  0  0  0  0  0
  160.5740  210.6980  152.4160 C   0  0  2  0  0  3  0  0  0  0  0  0
  161.7180  207.9880  148.7880 C   0  0  0  0  0  2  0  0  0  0  0  0
  161.0890  208.4750  155.3000 C   0  0  2  0  0  0  0  0  0  0  0  0
  161.7510  206.4200  153.8140 C   0  0  0  0  0  2  0  0  0  0  0  0
  161.9830  209.2060  149.4290 O   0  0  0  0  0  0  0  0  0  0  0  0
  160.7700  209.2460  152.8330 C   0  0  2  0  0  3  0  0  0  0  0  0
  161.6170  206.1730  150.5870 C   0  0  2  0  0  3  0  0  0  0  0  0
  162.1940  207.7180  154.5440 C   0  0  1  0  0  3  0  0  0  0  0  0
  161.6730  209.0870  154.0630 C   0  0  1  0  0  0  0  0  0  0  0  0
  162.4640  206.8620  149.5040 C   0  0  0  0  0  2  0  0  0  0  0  0
  160.6360  204.9030  147.5190 N   0  0  0  0  0  1  0  0  0  0  0  0
  160.7590  205.0680  149.9530 C   0  0  2  0  0  3  0  0  0  0  0  0
  160.4860  203.8980  150.9050 C   0  0  0  0  0  2  0  0  0  0  0  0
  160.7370  201.5400  150.4880 O   0  0  0  0  0  0  0  0  0  0  0  0
  161.3620  203.0520  148.8130 N   0  0  0  0  0  2  0  0  0  0  0  0
  160.8540  202.7270  150.0890 C   0  0  0  0  0  0  0  0  0  0  0  0
  161.4040  204.4960  148.6820 C   0  0  1  0  0  3  0  0  0  0  0  0
  159.6140  208.0750  155.2560 C   0  0  0  0  0  2  0  0  0  0  0  0
  159.3120  207.0780  156.3570 C   0  0  0  0  0  1  0  0  0  0  0  0
  164.2710  211.2220  155.7760 O   0  0  0  0  0  1  0  0  0  0  0  0
  163.1910  210.9350  156.6100 C   0  0  0  0  0  2  0  0  0  0  0  0
  159.1800  211.1540  152.7300 C   0  0  0  0  0  0  0  0  0  0  0  0
  158.5900  212.0240  151.9120 C   0  0  0  0  0  2  0  0  0  0  0  0
  158.5520  210.8450  154.0590 C   0  0  0  0  0  2  0  0  0  0  0  0
  157.4810  211.8610  154.4200 C   0  0  0  0  0  2  0  0  0  0  0  0
  156.4060  211.2260  155.0410 O   0  0  0  0  0  1  0  0  0  0  0  0
  162.1270  211.6280  150.7350 C   0  0  0  0  0  2  0  0  0  0  0  0
  162.1520  212.2300  149.3430 C   0  0  0  0  0  2  0  0  0  0  0  0
  160.8770  213.0080  149.1080 C   0  0  0  0  0  1  0  0  0  0  0  0
  1  3  1  0  0  0  0
  2 13  1  6  0  0  0
  2  6  1  0  0  0  0
  2  5  1  0  0  0  0
  3  8  1  0  0  0  0
  3 29  1  1  0  0  0
  4 12  1  0  0  0  0
  5 14  1  0  0  0  0
  6  9  1  0  0  0  0
  7  5  1  0  0  0  0
  7  4  1  0  0  0  0
  9 30  1  0  0  0  0
  9 14  1  0  0  0  0
 10 13  1  0  0  0  0
 10 18  1  0  0  0  0
 11  8  1  0  0  0  0
 12 16  1  0  0  0  0
 14 17  1  0  0  0  0
 15  7  1  0  0  0  0
 16 11  1  0  0  0  0
 17  1  1  0  0  0  0
 17 16  1  0  0  0  0
 17 11  1  0  0  0  0
 18 15  1  0  0  0  0
 19 25  1  0  0  0  0
 20 15  1  0  0  0  0
 20 21  1  0  0  0  0
 23 24  1  0  0  0  0
 24 22  2  0  0  0  0
 24 21  1  0  0  0  0
 25 23  1  0  0  0  0
 25 20  1  0  0  0  0
 26 11  1  0  0  0  0
 26 27  1  0  0  0  0
 28 29  1  0  0  0  0
 30 32  1  0  0  0  0
 31 30  2  0  0  0  0
 32 33  1  0  0  0  0
 33 34  1  0  0  0  0
 35  6  1  0  0  0  0
 36 35  1  0  0  0  0
 37 36  1  0  0  0  0
M  END
>  <MODEL>
1

>  <REMARK>
 VINA RESULT:      -3.6      0.000      0.000
  Name = 
  8 active torsions:
  status: ('A' for Active; 'I' for Inactive)
    1  A    between atoms: C_3  and  C_32
    2  A    between atoms: C_5  and  C_23
    3  A    between atoms: C_6  and  C_31
    4  A    between atoms: C_9  and  C_13
    5  A    between atoms: C_9  and  C_16
    6  A    between atoms: C_11  and  C_26
    7  A    between atoms: C_20  and  C_21
    8  A    between atoms: C_21  and  C_32
                            x       y       z     vdW  Elec       q    Type
                         _______ _______ _______ _____ _____    ______ ____

>  <TORSDO>
F 8

$$$$
=
 OpenBabel11062409173D

 37 42  0  0  1  0  0  0  0  0999 V2000
  157.8870  210.6820  153.6800 O   0  0  0  0  0  0  0  0  0  0  0  0
  161.6670  210.1920  151.5750 C   0  0  1  0  0  3  0  0  0  0  0  0
  157.2710  211.3280  154.7700 C   0  0  1  0  0  3  0  0  0  0  0  0
  160.0700  213.6330  151.1230 C   0  0  0  0  0  2  0  0  0  0  0  0
  160.4850  211.1400  151.4950 C   0  0  2  0  0  3  0  0  0  0  0  0
  161.5330  209.4600  152.9150 C   0  0  1  0  0  3  0  0  0  0  0  0
  160.8760  212.3950  150.7080 C   0  0  1  0  0  3  0  0  0  0  0  0
  157.1300  212.7070  154.5130 O   0  0  0  0  0  0  0  0  0  0  0  0
  160.6850  210.3630  153.8000 C   0  0  2  0  0  3  0  0  0  0  0  0
  162.2290  210.0370  149.4040 C   0  0  0  0  0  2  0  0  0  0  0  0
  158.1280  212.9970  153.5830 C   0  0  2  0  0  0  0  0  0  0  0  0
  158.5530  213.4360  151.0350 C   0  0  0  0  0  2  0  0  0  0  0  0
  161.6800  209.3190  150.4760 O   0  0  0  0  0  0  0  0  0  0  0  0
  160.1460  211.4880  152.9250 C   0  0  2  0  0  3  0  0  0  0  0  0
  160.9000  212.2100  149.1690 C   0  0  2  0  0  3  0  0  0  0  0  0
  157.8230  212.6080  152.1260 C   0  0  1  0  0  3  0  0  0  0  0  0
  158.6300  211.6850  153.0600 C   0  0  1  0  0  0  0  0  0  0  0  0
  161.1150  210.7740  148.6610 C   0  0  0  0  0  2  0  0  0  0  0  0
  164.2620  212.6610  148.4720 N   0  0  0  0  0  1  0  0  0  0  0  0
  161.8720  213.1650  148.4580 C   0  0  2  0  0  3  0  0  0  0  0  0
  161.1880  214.0420  147.4040 C   0  0  0  0  0  2  0  0  0  0  0  0
  161.8610  214.4440  145.1270 O   0  0  0  0  0  0  0  0  0  0  0  0
  163.1060  212.9410  146.4190 N   0  0  0  0  0  2  0  0  0  0  0  0
  162.0480  213.8540  146.2220 C   0  0  0  0  0  0  0  0  0  0  0  0
  163.0180  212.4110  147.7670 C   0  0  1  0  0  3  0  0  0  0  0  0
  159.1720  214.0440  153.9720 C   0  0  0  0  0  2  0  0  0  0  0  0
  159.1530  214.2650  155.4720 C   0  0  0  0  0  1  0  0  0  0  0  0
  155.0840  211.6490  155.6680 O   0  0  0  0  0  1  0  0  0  0  0  0
  155.9020  210.7240  155.0200 C   0  0  0  0  0  2  0  0  0  0  0  0
  161.4820  210.9180  154.9420 C   0  0  0  0  0  0  0  0  0  0  0  0
  162.7940  210.6880  154.9820 C   0  0  0  0  0  2  0  0  0  0  0  0
  160.7980  211.5020  156.1450 C   0  0  0  0  0  2  0  0  0  0  0  0
  160.0320  210.4420  156.9200 C   0  0  0  0  0  2  0  0  0  0  0  0
  160.8180  209.3010  157.0780 O   0  0  0  0  0  1  0  0  0  0  0  0
  160.8380  208.1080  152.8040 C   0  0  0  0  0  2  0  0  0  0  0  0
  161.2320  207.2190  153.9680 C   0  0  0  0  0  2  0  0  0  0  0  0
  161.3910  205.7950  153.4830 C   0  0  0  0  0  1  0  0  0  0  0  0
  1  3  1  0  0  0  0
  2 13  1  6  0  0  0
  2  6  1  0  0  0  0
  3 29  1  6  0  0  0
  5  2  1  0  0  0  0
  5 14  1  0  0  0  0
  6  9  1  0  0  0  0
  7  4  1  0  0  0  0
  7  5  1  0  0  0  0
  8  3  1  0  0  0  0
  9 30  1  0  0  0  0
 10 13  1  0  0  0  0
 11 26  1  0  0  0  0
 11  8  1  0  0  0  0
 12  4  1  0  0  0  0
 12 16  1  0  0  0  0
 14 17  1  0  0  0  0
 14  9  1  0  0  0  0
 15  7  1  0  0  0  0
 16 17  1  0  0  0  0
 16 11  1  0  0  0  0
 17 11  1  0  0  0  0
 17  1  1  0  0  0  0
 18 15  1  0  0  0  0
 18 10  1  0  0  0  0
 20 15  1  0  0  0  0
 21 20  1  0  0  0  0
 22 24  2  0  0  0  0
 23 25  1  0  0  0  0
 24 23  1  0  0  0  0
 24 21  1  0  0  0  0
 25 20  1  0  0  0  0
 25 19  1  0  0  0  0
 26 27  1  0  0  0  0
 29 28  1  0  0  0  0
 30 31  2  0  0  0  0
 30 32  1  0  0  0  0
 32 33  1  0  0  0  0
 33 34  1  0  0  0  0
 35  6  1  0  0  0  0
 35 36  1  0  0  0  0
 37 36  1  0  0  0  0
M  END
>  <MODEL>
2

>  <REMARK>
 VINA RESULT:      -3.3      3.307      6.663
  Name = 
  8 active torsions:
  status: ('A' for Active; 'I' for Inactive)
    1  A    between atoms: C_3  and  C_32
    2  A    between atoms: C_5  and  C_23
    3  A    between atoms: C_6  and  C_31
    4  A    between atoms: C_9  and  C_13
    5  A    between atoms: C_9  and  C_16
    6  A    between atoms: C_11  and  C_26
    7  A    between atoms: C_20  and  C_21
    8  A    between atoms: C_21  and  C_32
                            x       y       z     vdW  Elec       q    Type
                         _______ _______ _______ _____ _____    ______ ____

>  <TORSDO>
F 8

$$$$
