=
 OpenBabel11062409103D

 37 44  0  0  1  0  0  0  0  0999 V2000
  160.6940  205.8360  150.5970 O   0  0  0  0  0  0  0  0  0  0  0  0
  159.4100  207.6770  154.7750 C   0  0  0  0  0  2  0  0  0  0  0  0
  161.4620  210.0060  151.8700 C   0  0  2  0  0  3  0  0  0  0  0  0
  161.4890  204.7170  150.2820 C   0  0  2  0  0  3  0  0  0  0  0  0
  161.3110  209.1430  148.1860 C   0  0  0  0  0  2  0  0  0  0  0  0
  160.5640  209.8160  154.0070 C   0  0  1  0  0  0  0  0  0  0  0  0
  161.6940  209.3880  150.7370 C   0  0  2  0  0  3  0  0  0  0  0  0
  161.5900  209.1800  153.0650 C   0  0  1  0  0  3  0  0  0  0  0  0
  161.5230  210.0360  149.3890 C   0  0  0  0  0  0  0  0  0  0  0  0
  161.0450  211.1750  154.4840 C   0  0  0  0  0  2  0  0  0  0  0  0
  161.4270  204.4120  148.7780 C   0  0  0  0  0  2  0  0  0  0  0  0
  161.3270  207.8060  152.4720 C   0  0  2  0  0  3  0  0  0  0  0  0
  161.0520  205.9150  154.0770 C   0  0  0  0  0  2  0  0  0  0  0  0
  161.2000  212.3520  151.5250 C   0  0  0  0  0  3  0  0  0  0  0  0
  159.9650  211.0910  153.4130 C   0  0  1  0  0  3  0  0  0  0  0  0
  162.0500  206.7380  153.2730 C   0  0  0  0  0  2  0  0  0  0  0  0
  161.6460  205.6770  147.9340 C   0  0  1  0  0  3  0  0  0  0  0  0
  162.4260  208.1190  148.0220 C   0  0  0  0  0  2  0  0  0  0  0  0
  160.5110  211.1200  151.9770 C   0  0  2  0  0  3  0  0  0  0  0  0
  161.9150  207.9310  151.0530 C   0  0  1  0  0  3  0  0  0  0  0  0
  159.8200  209.0950  155.1320 C   0  0  0  0  0  2  0  0  0  0  0  0
  161.5400  211.3970  149.1960 C   0  0  0  0  0  0  0  0  0  0  0  0
  160.4810  206.7050  155.2440 C   0  0  0  0  0  2  0  0  0  0  0  0
  162.1690  206.8230  148.8070 C   0  0  1  0  0  3  0  0  0  0  0  0
  161.2410  207.0220  150.0300 C   0  0  1  0  0  3  0  0  0  0  0  0
  161.6520  212.4400  150.2680 C   0  0  0  0  0  3  0  0  0  0  0  0
  162.6120  212.5300  147.2500 C   0  0  0  0  0  3  0  0  0  0  0  0
  161.4720  211.9600  147.8320 C   0  0  0  0  0  0  0  0  0  0  0  0
  160.2610  211.9580  147.1210 C   0  0  0  0  0  3  0  0  0  0  0  0
  158.9150  212.4980  145.0880 C   0  0  0  0  0  1  0  0  0  0  0  0
  161.3440  213.0610  145.2580 C   0  0  0  0  0  3  0  0  0  0  0  0
  160.1980  212.5050  145.8370 C   0  0  0  0  0  0  0  0  0  0  0  0
  162.5500  213.0750  145.9650 C   0  0  0  0  0  3  0  0  0  0  0  0
  162.6180  205.3650  146.8060 C   0  0  0  0  0  2  0  0  0  0  0  0
  162.0440  205.6860  145.5760 O   0  0  0  0  0  1  0  0  0  0  0  0
  160.8820  202.3330  150.5370 C   0  0  0  0  0  2  0  0  0  0  0  0
  161.0720  203.5300  151.0930 C   0  0  0  0  0  3  0  0  0  0  0  0
  2 21  1  0  0  0  0
  2 23  1  0  0  0  0
  3 19  1  0  0  0  0
  3  8  1  0  0  0  0
  4  1  1  0  0  0  0
  4 37  1  0  0  0  0
  5  9  1  0  0  0  0
  6 10  1  0  0  0  0
  6 21  1  0  0  0  0
  7 20  1  0  0  0  0
  7  3  1  0  0  0  0
  8  6  1  0  0  0  0
  9  7  1  0  0  0  0
 11  4  1  0  0  0  0
 12  8  1  0  0  0  0
 12 16  1  0  0  0  0
 13 23  1  0  0  0  0
 14 19  1  0  0  0  0
 15  6  1  0  0  0  0
 15 10  1  0  0  0  0
 16 13  1  0  0  0  0
 17 11  1  0  0  0  0
 17 24  1  0  0  0  0
 18  5  1  0  0  0  0
 18 24  1  0  0  0  0
 19 15  1  0  0  0  0
 20 12  1  0  0  0  0
 22  9  2  0  0  0  0
 22 26  1  0  0  0  0
 24 25  1  0  0  0  0
 25  1  1  0  0  0  0
 25 20  1  0  0  0  0
 26 14  2  0  0  0  0
 27 28  1  0  0  0  0
 28 22  1  0  0  0  0
 29 28  2  0  0  0  0
 30 32  1  0  0  0  0
 31 32  2  0  0  0  0
 31 33  1  0  0  0  0
 32 29  1  0  0  0  0
 33 27  2  0  0  0  0
 34 17  1  0  0  0  0
 35 34  1  0  0  0  0
 36 37  2  0  0  0  0
M  END
>  <MODEL>
1

>  <REMARK>
 VINA RESULT:      -5.8      0.000      0.000
  Name = 
  3 active torsions:
  status: ('A' for Active; 'I' for Inactive)
    1  A    between atoms: C_5  and  C_23
    2  A    between atoms: C_6  and  C_31
    3  A    between atoms: C_11  and  C_26
                            x       y       z     vdW  Elec       q    Type
                         _______ _______ _______ _____ _____    ______ ____

>  <TORSDO>
F 3

$$$$
=
 OpenBabel11062409103D

 37 44  0  0  1  0  0  0  0  0999 V2000
  160.5430  207.9110  151.9470 O   0  0  0  0  0  0  0  0  0  0  0  0
  158.3160  210.0870  155.5250 C   0  0  0  0  0  2  0  0  0  0  0  0
  160.3300  212.2980  152.5040 C   0  0  2  0  0  3  0  0  0  0  0  0
  161.5680  206.9460  151.9450 C   0  0  2  0  0  3  0  0  0  0  0  0
  160.9090  210.8480  149.0540 C   0  0  0  0  0  2  0  0  0  0  0  0
  159.1640  212.2680  154.5160 C   0  0  1  0  0  0  0  0  0  0  0  0
  160.8430  211.5690  151.5420 C   0  0  2  0  0  3  0  0  0  0  0  0
  160.4220  211.7180  153.8390 C   0  0  1  0  0  3  0  0  0  0  0  0
  160.7660  211.9450  150.0860 C   0  0  0  0  0  0  0  0  0  0  0  0
  159.3090  213.7560  154.7860 C   0  0  0  0  0  2  0  0  0  0  0  0
  161.7960  206.4000  150.5270 C   0  0  0  0  0  2  0  0  0  0  0  0
  160.5090  210.2420  153.4850 C   0  0  2  0  0  3  0  0  0  0  0  0
  160.3400  208.6150  155.3690 C   0  0  0  0  0  2  0  0  0  0  0  0
  159.7000  214.4530  151.7000 C   0  0  0  0  0  3  0  0  0  0  0  0
  158.4410  213.2810  153.6270 C   0  0  1  0  0  3  0  0  0  0  0  0
  161.2830  209.4880  154.5510 C   0  0  0  0  0  2  0  0  0  0  0  0
  161.9070  207.5310  149.4950 C   0  0  1  0  0  3  0  0  0  0  0  0
  162.2040  210.0640  149.2190 C   0  0  0  0  0  2  0  0  0  0  0  0
  159.1870  213.1940  152.2870 C   0  0  2  0  0  3  0  0  0  0  0  0
  161.2760  210.2590  152.1480 C   0  0  1  0  0  3  0  0  0  0  0  0
  158.4000  211.5980  155.6590 C   0  0  0  0  0  2  0  0  0  0  0  0
  160.5630  213.2320  149.6470 C   0  0  0  0  0  0  0  0  0  0  0  0
  159.4610  209.4450  156.2920 C   0  0  0  0  0  2  0  0  0  0  0  0
  162.0700  208.8840  150.1940 C   0  0  1  0  0  3  0  0  0  0  0  0
  160.9450  209.0790  151.2390 C   0  0  1  0  0  3  0  0  0  0  0  0
  160.3160  214.4320  150.5110 C   0  0  0  0  0  3  0  0  0  0  0  0
  161.8260  213.8360  147.5830 C   0  0  0  0  0  3  0  0  0  0  0  0
  160.6040  213.5440  148.2030 C   0  0  0  0  0  0  0  0  0  0  0  0
  159.4200  213.5830  147.4500 C   0  0  0  0  0  3  0  0  0  0  0  0
  158.2070  213.9290  145.2950 C   0  0  0  0  0  1  0  0  0  0  0  0
  160.6880  214.1710  145.4730 C   0  0  0  0  0  3  0  0  0  0  0  0
  159.4630  213.8920  146.0880 C   0  0  0  0  0  0  0  0  0  0  0  0
  161.8690  214.1450  146.2210 C   0  0  0  0  0  3  0  0  0  0  0  0
  163.0810  207.2520  148.5690 C   0  0  0  0  0  2  0  0  0  0  0  0
  162.6550  206.5250  147.4590 O   0  0  0  0  0  1  0  0  0  0  0  0
  161.2040  204.5670  152.5180 C   0  0  0  0  0  2  0  0  0  0  0  0
  161.2560  205.8420  152.9060 C   0  0  0  0  0  3  0  0  0  0  0  0
  2 21  1  0  0  0  0
  2 23  1  0  0  0  0
  3  8  1  0  0  0  0
  4  1  1  0  0  0  0
  4 37  1  0  0  0  0
  5 18  1  0  0  0  0
  5  9  1  0  0  0  0
  6 10  1  0  0  0  0
  6 21  1  0  0  0  0
  7 20  1  0  0  0  0
  7  3  1  0  0  0  0
  8  6  1  0  0  0  0
  9  7  1  0  0  0  0
 11  4  1  0  0  0  0
 12  8  1  0  0  0  0
 12 16  1  0  0  0  0
 13 23  1  0  0  0  0
 14 19  1  0  0  0  0
 15  6  1  0  0  0  0
 15 10  1  0  0  0  0
 16 13  1  0  0  0  0
 17 24  1  0  0  0  0
 17 11  1  0  0  0  0
 18 24  1  0  0  0  0
 19  3  1  0  0  0  0
 19 15  1  0  0  0  0
 20 12  1  0  0  0  0
 22  9  2  0  0  0  0
 22 26  1  0  0  0  0
 24 25  1  0  0  0  0
 25  1  1  0  0  0  0
 25 20  1  0  0  0  0
 26 14  2  0  0  0  0
 27 28  1  0  0  0  0
 28 22  1  0  0  0  0
 29 28  2  0  0  0  0
 30 32  1  0  0  0  0
 31 32  2  0  0  0  0
 31 33  1  0  0  0  0
 32 29  1  0  0  0  0
 33 27  2  0  0  0  0
 34 17  1  0  0  0  0
 35 34  1  0  0  0  0
 36 37  2  0  0  0  0
M  END
>  <MODEL>
2

>  <REMARK>
 VINA RESULT:      -5.0      1.634      2.489
  Name = 
  3 active torsions:
  status: ('A' for Active; 'I' for Inactive)
    1  A    between atoms: C_5  and  C_23
    2  A    between atoms: C_6  and  C_31
    3  A    between atoms: C_11  and  C_26
                            x       y       z     vdW  Elec       q    Type
                         _______ _______ _______ _____ _____    ______ ____

>  <TORSDO>
F 3

$$$$
=
 OpenBabel11062409103D

 37 44  0  0  1  0  0  0  0  0999 V2000
  160.6300  204.9100  149.1920 O   0  0  0  0  0  0  0  0  0  0  0  0
  159.8260  205.5940  153.8160 C   0  0  0  0  0  2  0  0  0  0  0  0
  161.8920  208.4840  151.4800 C   0  0  2  0  0  3  0  0  0  0  0  0
  161.2880  203.8670  148.5100 C   0  0  2  0  0  3  0  0  0  0  0  0
  161.4030  208.7040  147.7310 C   0  0  0  0  0  2  0  0  0  0  0  0
  161.1290  207.7690  153.5580 C   0  0  1  0  0  0  0  0  0  0  0  0
  161.9830  208.1930  150.2050 C   0  0  2  0  0  3  0  0  0  0  0  0
  162.0210  207.3480  152.3860 C   0  0  1  0  0  3  0  0  0  0  0  0
  161.7840  209.2050  149.1070 C   0  0  0  0  0  0  0  0  0  0  0  0
  161.7740  208.8990  154.3410 C   0  0  0  0  0  2  0  0  0  0  0  0
  161.0920  204.0030  146.9930 C   0  0  0  0  0  2  0  0  0  0  0  0
  161.5830  206.2190  151.4670 C   0  0  2  0  0  3  0  0  0  0  0  0
  161.2340  203.9810  152.5110 C   0  0  0  0  0  2  0  0  0  0  0  0
  161.8390  210.8440  151.8160 C   0  0  0  0  0  3  0  0  0  0  0  0
  160.6200  209.2010  153.3940 C   0  0  1  0  0  3  0  0  0  0  0  0
  162.2510  204.9180  151.8730 C   0  0  0  0  0  2  0  0  0  0  0  0
  161.3760  205.4330  146.5110 C   0  0  1  0  0  3  0  0  0  0  0  0
  162.3970  207.6860  147.1900 C   0  0  0  0  0  2  0  0  0  0  0  0
  161.0660  209.5910  151.9760 C   0  0  2  0  0  3  0  0  0  0  0  0
  162.0810  206.6940  150.0880 C   0  0  1  0  0  3  0  0  0  0  0  0
  160.3970  206.8200  154.5070 C   0  0  0  0  0  2  0  0  0  0  0  0
  161.9220  210.5600  149.2940 C   0  0  0  0  0  0  0  0  0  0  0  0
  160.8260  204.4520  153.8980 C   0  0  0  0  0  2  0  0  0  0  0  0
  162.0680  206.2450  147.6100 C   0  0  1  0  0  3  0  0  0  0  0  0
  161.2510  206.1620  148.9230 C   0  0  1  0  0  3  0  0  0  0  0  0
  162.2100  211.2480  150.5940 C   0  0  0  0  0  3  0  0  0  0  0  0
  162.9430  212.1930  147.7100 C   0  0  0  0  0  3  0  0  0  0  0  0
  161.8150  211.4870  148.1480 C   0  0  0  0  0  0  0  0  0  0  0  0
  160.5810  211.6920  147.5110 C   0  0  0  0  0  3  0  0  0  0  0  0
  159.1740  212.7910  145.7650 C   0  0  0  0  0  1  0  0  0  0  0  0
  161.6160  213.2730  145.9980 C   0  0  0  0  0  3  0  0  0  0  0  0
  160.4820  212.5800  146.4370 C   0  0  0  0  0  0  0  0  0  0  0  0
  162.8450  213.0810  146.6360 C   0  0  0  0  0  3  0  0  0  0  0  0
  162.2320  205.3790  145.2540 C   0  0  0  0  0  2  0  0  0  0  0  0
  161.4240  205.4410  144.1200 O   0  0  0  0  0  1  0  0  0  0  0  0
  161.1560  201.4000  148.3900 C   0  0  0  0  0  2  0  0  0  0  0  0
  160.8130  202.5350  149.0000 C   0  0  0  0  0  3  0  0  0  0  0  0
  2 23  1  0  0  0  0
  2 21  1  0  0  0  0
  3 19  1  0  0  0  0
  3  8  1  0  0  0  0
  4 37  1  0  0  0  0
  4  1  1  0  0  0  0
  5  9  1  0  0  0  0
  6 10  1  0  0  0  0
  6 21  1  0  0  0  0
  7  3  1  0  0  0  0
  8  6  1  0  0  0  0
  9 22  2  0  0  0  0
  9  7  1  0  0  0  0
 11  4  1  0  0  0  0
 12 16  1  0  0  0  0
 12  8  1  0  0  0  0
 13 23  1  0  0  0  0
 14 19  1  0  0  0  0
 15  6  1  0  0  0  0
 15 10  1  0  0  0  0
 16 13  1  0  0  0  0
 17 11  1  0  0  0  0
 17 24  1  0  0  0  0
 18 24  1  0  0  0  0
 18  5  1  0  0  0  0
 19 15  1  0  0  0  0
 20  7  1  0  0  0  0
 20 12  1  0  0  0  0
 22 26  1  0  0  0  0
 24 25  1  0  0  0  0
 25  1  1  0  0  0  0
 25 20  1  0  0  0  0
 26 14  2  0  0  0  0
 27 28  1  0  0  0  0
 28 22  1  0  0  0  0
 29 28  2  0  0  0  0
 30 32  1  0  0  0  0
 31 32  2  0  0  0  0
 31 33  1  0  0  0  0
 32 29  1  0  0  0  0
 33 27  2  0  0  0  0
 34 17  1  0  0  0  0
 35 34  1  0  0  0  0
 36 37  2  0  0  0  0
M  END
>  <MODEL>
3

>  <REMARK>
 VINA RESULT:      -5.0      1.198      1.683
  Name = 
  3 active torsions:
  status: ('A' for Active; 'I' for Inactive)
    1  A    between atoms: C_5  and  C_23
    2  A    between atoms: C_6  and  C_31
    3  A    between atoms: C_11  and  C_26
                            x       y       z     vdW  Elec       q    Type
                         _______ _______ _______ _____ _____    ______ ____

>  <TORSDO>
F 3

$$$$
