=
 OpenBabel11062409013D

 37 43  0  0  1  0  0  0  0  0999 V2000
  159.0760  210.3260  154.6090 C   0  0  0  0  0  2  0  0  0  0  0  0
  159.0610  214.0290  150.5110 C   0  0  0  0  0  2  0  0  0  0  0  0
  161.3560  210.2260  150.5200 C   0  0  0  0  0  0  0  0  0  0  0  0
  159.6480  211.0920  155.8130 C   0  0  2  0  0  3  0  0  0  0  0  0
  161.5480  207.2650  152.7430 N   0  0  0  0  0  0  0  0  0  0  0  0
  161.0160  212.5850  150.0270 C   0  0  0  0  0  0  0  0  0  0  0  0
  161.1230  209.3750  151.5980 C   0  0  0  0  0  0  0  0  0  0  0  0
  160.9390  211.4870  150.9100 C   0  0  0  0  0  0  0  0  0  0  0  0
  161.3020  207.9140  151.6420 C   0  0  0  0  0  0  0  0  0  0  0  0
  161.5230  212.3600  148.7410 C   0  0  0  0  0  3  0  0  0  0  0  0
  160.8210  210.4070  156.5480 C   0  0  0  0  0  2  0  0  0  0  0  0
  160.4620  211.4560  152.1770 N   0  0  0  0  0  0  0  0  0  0  0  0
  158.6100  213.0290  152.4580 C   0  0  0  0  0  2  0  0  0  0  0  0
  162.3620  208.7250  148.7680 N   0  0  0  0  0  2  0  0  0  0  0  0
  161.9530  211.0840  148.3500 C   0  0  0  0  0  3  0  0  0  0  0  0
  159.9740  212.5830  152.9680 C   0  0  0  0  0  2  0  0  0  0  0  0
  161.0640  208.9500  156.1310 C   0  0  2  0  0  3  0  0  0  0  0  0
  161.5930  207.7100  154.1080 C   0  0  0  0  0  3  0  0  0  0  0  0
  161.8880  209.9960  149.2320 C   0  0  0  0  0  0  0  0  0  0  0  0
  160.5730  210.1660  152.5920 C   0  0  0  0  0  0  0  0  0  0  0  0
  160.5760  213.9700  150.3750 C   0  0  0  0  0  2  0  0  0  0  0  0
  161.3400  207.1770  150.3350 C   0  0  1  0  0  3  0  0  0  0  0  0
  158.7220  214.2830  151.8450 O   0  0  0  0  0  0  0  0  0  0  0  0
  160.9920  208.7820  154.6340 C   0  0  0  0  0  0  0  0  0  0  0  0
  160.1610  209.6790  153.8800 N   0  0  0  0  0  0  0  0  0  0  0  0
  162.6000  207.5470  149.5850 C   0  0  0  0  0  2  0  0  0  0  0  0
  161.0020  205.0520  151.8240 C   0  0  0  0  0  2  0  0  0  0  0  0
  161.1770  205.6890  150.4570 C   0  0  0  0  0  0  0  0  0  0  0  0
  161.1210  204.9680  149.3340 C   0  0  0  0  0  3  0  0  0  0  0  0
  160.8670  202.8490  148.3180 O   0  0  0  0  0  0  0  0  0  0  0  0
  160.8700  202.8370  150.6800 C   0  0  0  0  0  3  0  0  0  0  0  0
  160.9440  203.5120  149.3830 C   0  0  0  0  0  0  0  0  0  0  0  0
  160.9100  203.5450  151.8100 C   0  0  0  0  0  3  0  0  0  0  0  0
  160.0920  208.0470  156.8300 C   0  0  0  0  0  3  0  0  0  0  0  0
  160.4500  206.9630  157.2610 O   0  0  0  0  0  0  0  0  0  0  0  0
  157.4160  211.5320  156.0370 C   0  0  0  0  0  1  0  0  0  0  0  0
  158.6640  211.6200  156.6740 O   0  0  0  0  0  0  0  0  0  0  0  0
  1  4  1  0  0  0  0
  2 23  1  0  0  0  0
  3  8  1  0  0  0  0
  3  7  1  0  0  0  0
  4 11  1  0  0  0  0
  4 37  1  1  0  0  0
  5 18  1  0  0  0  0
  6 21  1  0  0  0  0
  6  8  2  0  0  0  0
  7  9  1  0  0  0  0
  7 20  2  0  0  0  0
  8 12  1  0  0  0  0
  9  5  2  0  0  0  0
 10  6  1  0  0  0  0
 12 20  1  0  0  0  0
 12 16  1  0  0  0  0
 13 16  1  0  0  0  0
 14 19  1  0  0  0  0
 14 26  1  0  0  0  0
 15 10  2  0  0  0  0
 15 19  1  0  0  0  0
 17 11  1  0  0  0  0
 17 34  1  1  0  0  0
 18 24  2  0  0  0  0
 19  3  2  0  0  0  0
 20 25  1  0  0  0  0
 21  2  1  0  0  0  0
 22 28  1  1  0  0  0
 22  9  1  0  0  0  0
 23 13  1  0  0  0  0
 24 17  1  0  0  0  0
 25  1  1  0  0  0  0
 25 24  1  0  0  0  0
 26 22  1  0  0  0  0
 28 27  1  0  0  0  0
 29 32  1  0  0  0  0
 29 28  2  0  0  0  0
 30 32  2  0  0  0  0
 31 33  2  0  0  0  0
 32 31  1  0  0  0  0
 33 27  1  0  0  0  0
 34 35  2  0  0  0  0
 36 37  1  0  0  0  0
M  END
>  <MODEL>
1

>  <REMARK>
 VINA RESULT:      -8.5      0.000      0.000
  Name = 
  3 active torsions:
  status: ('A' for Active; 'I' for Inactive)
    1  A    between atoms: C_5  and  O_23
    2  A    between atoms: C_6  and  C_31
    3  A    between atoms: C_11  and  C_26
                            x       y       z     vdW  Elec       q    Type
                         _______ _______ _______ _____ _____    ______ ____

>  <TORSDO>
F 3

$$$$
