=
 OpenBabel11052421593D

 30 35  0  0  1  0  0  0  0  0999 V2000
  160.8430  210.2730  152.9260 C   0  0  1  0  0  3  0  0  0  0  0  0
  161.3400  207.8650  153.9780 C   0  0  2  0  0  3  0  0  0  0  0  0
  162.4040  208.3710  150.2240 N   0  0  0  0  0  2  0  0  0  0  0  0
  160.8980  211.0080  151.5700 C   0  0  1  0  0  3  0  0  0  0  0  0
  159.5370  210.4300  153.5700 N   0  0  0  0  0  0  0  0  0  0  0  0
  158.0720  213.9420  152.5120 S   0  0  0  0  0  0  0  0  0  0  0  0
  161.4630  213.1950  149.4890 C   0  0  1  0  0  3  0  0  0  0  0  0
  159.2330  212.5670  152.4900 C   0  0  1  0  0  3  0  0  0  0  0  0
  157.6110  211.7290  154.0710 N   0  0  0  0  0  2  0  0  0  0  0  0
  161.7090  211.8700  148.7700 C   0  0  1  0  0  3  0  0  0  0  0  0
  161.9800  209.4220  149.3540 C   0  0  0  0  0  0  0  0  0  0  0  0
  158.8650  211.5310  153.4460 C   0  0  0  0  0  0  0  0  0  0  0  0
  160.1450  212.3320  151.5310 C   0  0  2  0  0  3  0  0  0  0  0  0
  160.6820  206.5000  153.7450 C   0  0  0  0  0  2  0  0  0  0  0  0
  162.5020  212.2330  147.5370 C   0  0  0  0  0  2  0  0  0  0  0  0
  161.4950  214.2750  148.4220 C   0  0  0  0  0  2  0  0  0  0  0  0
  155.7910  213.2670  153.8640 C   0  0  0  0  0  2  0  0  0  0  0  0
  160.8210  208.4660  155.2730 C   0  0  0  0  0  1  0  0  0  0  0  0
  161.4540  207.4650  150.8660 C   0  0  1  0  0  3  0  0  0  0  0  0
  161.3630  205.6310  152.6710 C   0  0  0  0  0  2  0  0  0  0  0  0
  157.0610  212.9710  153.6420 C   0  0  0  0  0  0  0  0  0  0  0  0
  161.2170  208.7900  152.7370 C   0  0  1  0  0  3  0  0  0  0  0  0
  162.3500  211.1290  151.1190 C   0  0  0  0  0  2  0  0  0  0  0  0
  161.1550  209.1780  148.4320 O   0  0  0  0  0  0  0  0  0  0  0  0
  162.4610  210.8300  149.6200 C   0  0  2  0  0  3  0  0  0  0  0  0
  162.0420  213.6270  147.1580 C   0  0  0  0  0  2  0  0  0  0  0  0
  158.9460  212.8660  149.3980 C   0  0  0  0  0  1  0  0  0  0  0  0
  162.2230  206.3910  151.6540 C   0  0  0  0  0  2  0  0  0  0  0  0
  160.5250  208.1880  151.6610 O   0  0  0  0  0  0  0  0  0  0  0  0
  160.1450  213.2010  150.2830 C   0  0  2  0  0  3  0  0  0  0  0  0
  1  5  1  6  0  0  0
  2 18  1  1  0  0  0
  3 19  1  0  0  0  0
  4 23  1  1  0  0  0
  4  1  1  0  0  0  0
  6 21  1  0  0  0  0
  7 16  1  6  0  0  0
  7 30  1  0  0  0  0
  8  6  1  6  0  0  0
  8 12  1  0  0  0  0
 10 15  1  6  0  0  0
 10  7  1  0  0  0  0
 10 25  1  0  0  0  0
 11 25  1  0  0  0  0
 11  3  1  0  0  0  0
 12  5  2  0  0  0  0
 12  9  1  0  0  0  0
 13  4  1  0  0  0  0
 13  8  1  0  0  0  0
 14  2  1  0  0  0  0
 19 28  1  0  0  0  0
 19 29  1  0  0  0  0
 20 14  1  0  0  0  0
 21 17  2  0  0  0  0
 21  9  1  0  0  0  0
 22  1  1  0  0  0  0
 22  2  1  0  0  0  0
 24 11  2  0  0  0  0
 25 23  1  0  0  0  0
 26 15  1  0  0  0  0
 26 16  1  0  0  0  0
 27 30  1  0  0  0  0
 28 20  1  0  0  0  0
 29 22  1  0  0  0  0
 30 13  1  0  0  0  0
M  END
>  <MODEL>
1

>  <REMARK>
 VINA RESULT:      -5.4      0.000      0.000
  Name = 
  0 active torsions:
  status: ('A' for Active; 'I' for Inactive)
                            x       y       z     vdW  Elec       q    Type
                         _______ _______ _______ _____ _____    ______ ____

>  <TORSDO>
F 0

$$$$
=
 OpenBabel11052421593D

 30 35  0  0  1  0  0  0  0  0999 V2000
  159.2550  212.8680  151.9160 C   0  0  1  0  0  3  0  0  0  0  0  0
  159.4030  213.5430  149.3330 C   0  0  2  0  0  3  0  0  0  0  0  0
  156.0470  214.4530  151.1730 N   0  0  0  0  0  2  0  0  0  0  0  0
  158.2380  212.8350  153.0760 C   0  0  1  0  0  3  0  0  0  0  0  0
  159.9260  211.5770  151.7530 N   0  0  0  0  0  0  0  0  0  0  0  0
  160.1650  209.8710  155.3070 S   0  0  0  0  0  0  0  0  0  0  0  0
  157.0380  213.2000  155.8790 C   0  0  1  0  0  3  0  0  0  0  0  0
  159.6560  211.1100  154.1060 C   0  0  1  0  0  3  0  0  0  0  0  0
  160.8650  209.5940  152.6660 N   0  0  0  0  0  0  0  0  0  0  0  0
  155.9020  213.5020  154.9040 C   0  0  1  0  0  3  0  0  0  0  0  0
  155.5990  213.9390  152.4290 C   0  0  0  0  0  0  0  0  0  0  0  0
  160.1980  210.8370  152.7810 C   0  0  0  0  0  0  0  0  0  0  0  0
  158.6660  212.0030  154.2790 C   0  0  2  0  0  3  0  0  0  0  0  0
  158.7180  212.9610  148.0900 C   0  0  0  0  0  2  0  0  0  0  0  0
  154.8640  214.2320  155.7220 C   0  0  0  0  0  2  0  0  0  0  0  0
  156.4100  213.1330  157.2610 C   0  0  0  0  0  2  0  0  0  0  0  0
  161.2210  207.6790  154.0540 C   0  0  0  0  0  1  0  0  0  0  0  0
  160.8320  213.0310  149.4130 C   0  0  0  0  0  1  0  0  0  0  0  0
  156.3440  213.5800  150.0400 C   0  0  1  0  0  3  0  0  0  0  0  0
  157.4030  213.6580  147.6940 C   0  0  0  0  0  2  0  0  0  0  0  0
  160.8970  208.9570  153.9390 C   0  0  0  0  0  0  0  0  0  0  0  0
  158.5600  213.3250  150.6180 C   0  0  1  0  0  3  0  0  0  0  0  0
  157.8430  214.2620  153.4430 C   0  0  0  0  0  2  0  0  0  0  0  0
  154.6570  213.1000  152.4630 O   0  0  0  0  0  0  0  0  0  0  0  0
  156.3310  214.3420  153.6880 C   0  0  2  0  0  3  0  0  0  0  0  0
  154.9960  213.6770  157.1270 C   0  0  0  0  0  2  0  0  0  0  0  0
  156.8620  210.7070  155.4330 C   0  0  0  0  0  1  0  0  0  0  0  0
  156.7040  214.4370  148.8140 C   0  0  0  0  0  2  0  0  0  0  0  0
  157.3490  212.6350  150.3790 O   0  0  0  0  0  0  0  0  0  0  0  0
  157.7970  211.9110  155.5220 C   0  0  2  0  0  3  0  0  0  0  0  0
  1  5  1  6  0  0  0
  1  4  1  0  0  0  0
  2 18  1  1  0  0  0
  2 22  1  0  0  0  0
  3 11  1  0  0  0  0
  4 23  1  1  0  0  0
  4 13  1  0  0  0  0
  5 12  2  0  0  0  0
  7 16  1  1  0  0  0
  8 12  1  6  0  0  0
  8 13  1  0  0  0  0
  8  6  1  0  0  0  0
  9 12  1  0  0  0  0
  9 21  2  0  0  0  0
 10 15  1  1  0  0  0
 10  7  1  0  0  0  0
 11 24  2  0  0  0  0
 11 25  1  0  0  0  0
 13 30  1  0  0  0  0
 14  2  1  0  0  0  0
 15 26  1  0  0  0  0
 19 29  1  0  0  0  0
 19  3  1  0  0  0  0
 20 14  1  0  0  0  0
 20 28  1  0  0  0  0
 21 17  1  0  0  0  0
 21  6  1  0  0  0  0
 22  1  1  0  0  0  0
 23 25  1  0  0  0  0
 25 10  1  0  0  0  0
 26 16  1  0  0  0  0
 27 30  1  0  0  0  0
 28 19  1  0  0  0  0
 29 22  1  0  0  0  0
 30  7  1  0  0  0  0
M  END
>  <MODEL>
2

>  <REMARK>
 VINA RESULT:      -4.8      2.779      7.375
  Name = 
  0 active torsions:
  status: ('A' for Active; 'I' for Inactive)
                            x       y       z     vdW  Elec       q    Type
                         _______ _______ _______ _____ _____    ______ ____

>  <TORSDO>
F 0

$$$$
=
 OpenBabel11052421593D

 30 35  0  0  1  0  0  0  0  0999 V2000
  161.2270  212.4620  149.5800 C   0  0  1  0  0  3  0  0  0  0  0  0
  161.6420  213.0770  147.0110 C   0  0  2  0  0  3  0  0  0  0  0  0
  158.3200  214.4530  148.6080 N   0  0  0  0  0  2  0  0  0  0  0  0
  160.1360  212.5810  150.6650 C   0  0  1  0  0  3  0  0  0  0  0  0
  161.7270  211.0900  149.4690 N   0  0  0  0  0  0  0  0  0  0  0  0
  161.4880  209.4140  153.0370 S   0  0  0  0  0  0  0  0  0  0  0  0
  158.8060  213.1400  153.3770 C   0  0  1  0  0  3  0  0  0  0  0  0
  161.2350  210.6950  151.7990 C   0  0  1  0  0  3  0  0  0  0  0  0
  162.3250  209.0110  150.4530 N   0  0  0  0  0  0  0  0  0  0  0  0
  157.7910  213.5790  152.3230 C   0  0  1  0  0  3  0  0  0  0  0  0
  157.7210  214.0200  149.8320 C   0  0  0  0  0  0  0  0  0  0  0  0
  161.8250  210.3340  150.5160 C   0  0  0  0  0  0  0  0  0  0  0  0
  160.3650  211.7150  151.8990 C   0  0  2  0  0  3  0  0  0  0  0  0
  160.9720  212.5760  145.7260 C   0  0  0  0  0  2  0  0  0  0  0  0
  156.8070  214.4520  153.0640 C   0  0  0  0  0  2  0  0  0  0  0  0
  158.0810  213.1760  154.7110 C   0  0  0  0  0  2  0  0  0  0  0  0
  162.3230  207.0850  151.8700 C   0  0  0  0  0  1  0  0  0  0  0  0
  162.9790  212.3790  147.1940 C   0  0  0  0  0  1  0  0  0  0  0  0
  158.5750  213.5330  147.5020 C   0  0  1  0  0  3  0  0  0  0  0  0
  159.7940  213.4380  145.2350 C   0  0  0  0  0  2  0  0  0  0  0  0
  162.1830  208.3930  151.7280 C   0  0  0  0  0  0  0  0  0  0  0  0
  160.6910  212.9910  148.2350 C   0  0  1  0  0  3  0  0  0  0  0  0
  159.9130  214.0530  150.9990 C   0  0  0  0  0  2  0  0  0  0  0  0
  156.6750  213.3160  149.8020 O   0  0  0  0  0  0  0  0  0  0  0  0
  158.4130  214.3380  151.1370 C   0  0  2  0  0  3  0  0  0  0  0  0
  156.7650  213.9030  154.4770 C   0  0  0  0  0  2  0  0  0  0  0  0
  158.3280  210.6870  152.9280 C   0  0  0  0  0  1  0  0  0  0  0  0
  159.1300  214.3180  146.3010 C   0  0  0  0  0  2  0  0  0  0  0  0
  159.4170  212.4670  147.9140 O   0  0  0  0  0  0  0  0  0  0  0  0
  159.4070  211.7560  153.0790 C   0  0  2  0  0  3  0  0  0  0  0  0
  1  5  1  6  0  0  0
  1  4  1  0  0  0  0
  2 18  1  1  0  0  0
  2 22  1  0  0  0  0
  3 11  1  0  0  0  0
  4 23  1  1  0  0  0
  4 13  1  0  0  0  0
  5 12  2  0  0  0  0
  7 16  1  1  0  0  0
  8 12  1  6  0  0  0
  8 13  1  0  0  0  0
  8  6  1  0  0  0  0
  9 12  1  0  0  0  0
  9 21  2  0  0  0  0
 10 15  1  1  0  0  0
 10  7  1  0  0  0  0
 11 25  1  0  0  0  0
 13 30  1  0  0  0  0
 14  2  1  0  0  0  0
 15 26  1  0  0  0  0
 19 29  1  0  0  0  0
 19  3  1  0  0  0  0
 20 14  1  0  0  0  0
 20 28  1  0  0  0  0
 21 17  1  0  0  0  0
 21  6  1  0  0  0  0
 22  1  1  0  0  0  0
 23 25  1  0  0  0  0
 24 11  2  0  0  0  0
 25 10  1  0  0  0  0
 26 16  1  0  0  0  0
 27 30  1  0  0  0  0
 28 19  1  0  0  0  0
 29 22  1  0  0  0  0
 30  7  1  0  0  0  0
M  END
>  <MODEL>
3

>  <REMARK>
 VINA RESULT:      -4.6      2.543      6.718
  Name = 
  0 active torsions:
  status: ('A' for Active; 'I' for Inactive)
                            x       y       z     vdW  Elec       q    Type
                         _______ _______ _______ _____ _____    ______ ____

>  <TORSDO>
F 0

$$$$
=
 OpenBabel11052421593D

 30 35  0  0  1  0  0  0  0  0999 V2000
  160.9600  211.4710  151.7290 C   0  0  1  0  0  3  0  0  0  0  0  0
  159.8180  213.7220  150.8440 C   0  0  2  0  0  3  0  0  0  0  0  0
  158.5100  212.3540  154.2940 N   0  0  0  0  0  2  0  0  0  0  0  0
  160.8120  210.4340  152.8610 C   0  0  1  0  0  3  0  0  0  0  0  0
  161.0170  210.8280  150.4150 N   0  0  0  0  0  0  0  0  0  0  0  0
  162.7060  207.2870  150.8640 S   0  0  0  0  0  0  0  0  0  0  0  0
  161.5610  208.5240  155.1480 C   0  0  1  0  0  3  0  0  0  0  0  0
  161.9940  208.8510  151.3960 C   0  0  1  0  0  3  0  0  0  0  0  0
  161.6860  209.0340  149.0070 N   0  0  0  0  0  2  0  0  0  0  0  0
  160.2180  209.1360  155.5460 C   0  0  1  0  0  3  0  0  0  0  0  0
  158.7200  211.0430  154.8230 C   0  0  0  0  0  0  0  0  0  0  0  0
  161.5920  209.6770  150.2640 C   0  0  0  0  0  0  0  0  0  0  0  0
  161.5800  209.1360  152.6430 C   0  0  2  0  0  3  0  0  0  0  0  0
  158.4210  213.9960  150.2730 C   0  0  0  0  0  2  0  0  0  0  0  0
  160.0830  208.8590  157.0240 C   0  0  0  0  0  2  0  0  0  0  0  0
  161.8300  207.4020  156.1350 C   0  0  0  0  0  2  0  0  0  0  0  0
  162.1910  206.8340  148.2150 C   0  0  0  0  0  2  0  0  0  0  0  0
  160.8240  213.6340  149.7090 C   0  0  0  0  0  1  0  0  0  0  0  0
  157.8530  212.5740  153.0070 C   0  0  1  0  0  3  0  0  0  0  0  0
  157.3790  214.4530  151.3110 C   0  0  0  0  0  2  0  0  0  0  0  0
  162.2430  207.7350  149.1830 C   0  0  0  0  0  0  0  0  0  0  0  0
  159.8230  212.5100  151.8130 C   0  0  1  0  0  3  0  0  0  0  0  0
  161.1230  211.0970  154.1990 C   0  0  0  0  0  2  0  0  0  0  0  0
  157.7670  210.2170  154.8470 O   0  0  0  0  0  0  0  0  0  0  0  0
  160.1110  210.6440  155.2580 C   0  0  2  0  0  3  0  0  0  0  0  0
  160.8140  207.5510  157.2570 C   0  0  0  0  0  2  0  0  0  0  0  0
  160.4560  207.0350  153.4120 C   0  0  0  0  0  1  0  0  0  0  0  0
  157.6910  214.0840  152.7670 C   0  0  0  0  0  2  0  0  0  0  0  0
  158.5510  211.9110  151.9630 O   0  0  0  0  0  0  0  0  0  0  0  0
  161.5780  208.0340  153.6900 C   0  0  2  0  0  3  0  0  0  0  0  0
  1  5  1  6  0  0  0
  1 22  1  0  0  0  0
  1  4  1  0  0  0  0
  2 18  1  6  0  0  0
  2 22  1  0  0  0  0
  3 11  1  0  0  0  0
  4 23  1  1  0  0  0
  6  8  1  0  0  0  0
  7 10  1  0  0  0  0
  7 16  1  1  0  0  0
  8 12  1  6  0  0  0
  8 13  1  0  0  0  0
  9 21  1  0  0  0  0
  9 12  1  0  0  0  0
 10 15  1  1  0  0  0
 11 24  2  0  0  0  0
 11 25  1  0  0  0  0
 12  5  2  0  0  0  0
 13  4  1  0  0  0  0
 13 30  1  0  0  0  0
 14  2  1  0  0  0  0
 14 20  1  0  0  0  0
 15 26  1  0  0  0  0
 16 26  1  0  0  0  0
 17 21  2  0  0  0  0
 19  3  1  0  0  0  0
 20 28  1  0  0  0  0
 21  6  1  0  0  0  0
 22 29  1  0  0  0  0
 23 25  1  0  0  0  0
 25 10  1  0  0  0  0
 27 30  1  0  0  0  0
 28 19  1  0  0  0  0
 29 19  1  0  0  0  0
 30  7  1  0  0  0  0
M  END
>  <MODEL>
4

>  <REMARK>
 VINA RESULT:      -4.6      2.449      7.216
  Name = 
  0 active torsions:
  status: ('A' for Active; 'I' for Inactive)
                            x       y       z     vdW  Elec       q    Type
                         _______ _______ _______ _____ _____    ______ ____

>  <TORSDO>
F 0

$$$$
=
 OpenBabel11052421593D

 30 35  0  0  1  0  0  0  0  0999 V2000
  161.8840  210.3280  150.8400 C   0  0  1  0  0  3  0  0  0  0  0  0
  161.5820  212.4730  149.2730 C   0  0  2  0  0  3  0  0  0  0  0  0
  160.0730  212.7470  152.8960 N   0  0  0  0  0  2  0  0  0  0  0  0
  161.4390  209.7950  152.2180 C   0  0  1  0  0  3  0  0  0  0  0  0
  161.6280  209.3520  149.7780 N   0  0  0  0  0  0  0  0  0  0  0  0
  161.9490  205.7400  151.3400 S   0  0  0  0  0  0  0  0  0  0  0  0
  161.5810  208.5050  155.0010 C   0  0  1  0  0  3  0  0  0  0  0  0
  161.8820  207.5370  151.3480 C   0  0  1  0  0  3  0  0  0  0  0  0
  161.5210  207.1100  148.9990 N   0  0  0  0  0  2  0  0  0  0  0  0
  160.5760  209.6480  155.1290 C   0  0  1  0  0  3  0  0  0  0  0  0
  159.8270  211.6660  153.7980 C   0  0  0  0  0  0  0  0  0  0  0  0
  161.7390  208.0820  150.0040 C   0  0  0  0  0  0  0  0  0  0  0  0
  161.6730  208.3040  152.4330 C   0  0  2  0  0  3  0  0  0  0  0  0
  160.3470  213.0530  148.5720 C   0  0  0  0  0  2  0  0  0  0  0  0
  160.4370  209.8850  156.6140 C   0  0  0  0  0  2  0  0  0  0  0  0
  161.4850  207.7040  156.2880 C   0  0  0  0  0  2  0  0  0  0  0  0
  161.1500  204.7490  148.9170 C   0  0  0  0  0  2  0  0  0  0  0  0
  162.4200  211.6990  148.2690 C   0  0  0  0  0  1  0  0  0  0  0  0
  159.4650  212.8020  151.5680 C   0  0  1  0  0  3  0  0  0  0  0  0
  159.6030  214.1390  149.3720 C   0  0  0  0  0  2  0  0  0  0  0  0
  161.5810  205.8110  149.5780 C   0  0  0  0  0  0  0  0  0  0  0  0
  161.2060  211.6820  150.5540 C   0  0  1  0  0  3  0  0  0  0  0  0
  162.0460  210.6620  153.3160 C   0  0  0  0  0  2  0  0  0  0  0  0
  158.6430  211.2870  154.0130 O   0  0  0  0  0  0  0  0  0  0  0  0
  161.0030  210.9370  154.4050 C   0  0  2  0  0  3  0  0  0  0  0  0
  160.6600  208.5320  157.2610 C   0  0  0  0  0  2  0  0  0  0  0  0
  159.9140  207.0780  153.7240 C   0  0  0  0  0  1  0  0  0  0  0  0
  159.8460  214.1270  150.8860 C   0  0  0  0  0  2  0  0  0  0  0  0
  159.8150  211.6560  150.8040 O   0  0  0  0  0  0  0  0  0  0  0  0
  161.3340  207.6370  153.7560 C   0  0  2  0  0  3  0  0  0  0  0  0
  1  5  1  6  0  0  0
  1  4  1  0  0  0  0
  2 18  1  6  0  0  0
  2 22  1  0  0  0  0
  3 11  1  0  0  0  0
  4 13  1  0  0  0  0
  4 23  1  1  0  0  0
  5 12  2  0  0  0  0
  6  8  1  0  0  0  0
  7 10  1  0  0  0  0
  7 16  1  1  0  0  0
  8 12  1  6  0  0  0
  8 13  1  0  0  0  0
  9 21  1  0  0  0  0
  9 12  1  0  0  0  0
 10 15  1  1  0  0  0
 11 24  2  0  0  0  0
 11 25  1  0  0  0  0
 13 30  1  0  0  0  0
 14  2  1  0  0  0  0
 14 20  1  0  0  0  0
 15 26  1  0  0  0  0
 16 26  1  0  0  0  0
 17 21  2  0  0  0  0
 19  3  1  0  0  0  0
 20 28  1  0  0  0  0
 21  6  1  0  0  0  0
 22 29  1  0  0  0  0
 22  1  1  0  0  0  0
 23 25  1  0  0  0  0
 25 10  1  0  0  0  0
 27 30  1  0  0  0  0
 28 19  1  0  0  0  0
 29 19  1  0  0  0  0
 30  7  1  0  0  0  0
M  END
>  <MODEL>
5

>  <REMARK>
 VINA RESULT:      -4.5      2.506      7.110
  Name = 
  0 active torsions:
  status: ('A' for Active; 'I' for Inactive)
                            x       y       z     vdW  Elec       q    Type
                         _______ _______ _______ _____ _____    ______ ____

>  <TORSDO>
F 0

$$$$
=
 OpenBabel11052421593D

 30 35  0  0  1  0  0  0  0  0999 V2000
  162.0380  205.2760  151.6600 C   0  0  1  0  0  3  0  0  0  0  0  0
  161.8690  202.7390  150.8300 C   0  0  2  0  0  3  0  0  0  0  0  0
  161.5220  205.5010  148.0490 N   0  0  0  0  0  2  0  0  0  0  0  0
  161.8650  206.7120  151.1230 C   0  0  1  0  0  3  0  0  0  0  0  0
  161.2660  205.0640  152.8860 N   0  0  0  0  0  0  0  0  0  0  0  0
  161.0810  208.5030  154.8190 S   0  0  0  0  0  0  0  0  0  0  0  0
  162.4300  209.6810  150.5780 C   0  0  1  0  0  3  0  0  0  0  0  0
  161.4730  207.4010  153.4510 C   0  0  1  0  0  3  0  0  0  0  0  0
  160.3920  205.8480  154.9520 N   0  0  0  0  0  0  0  0  0  0  0  0
  161.8180  209.1360  149.2890 C   0  0  1  0  0  3  0  0  0  0  0  0
  161.2670  206.8910  148.2580 C   0  0  0  0  0  0  0  0  0  0  0  0
  161.1110  206.0210  153.7460 C   0  0  0  0  0  0  0  0  0  0  0  0
  161.7670  207.7880  152.1980 C   0  0  2  0  0  3  0  0  0  0  0  0
  160.6780  201.9080  150.3390 C   0  0  0  0  0  2  0  0  0  0  0  0
  162.1520  210.1600  148.2310 C   0  0  0  0  0  2  0  0  0  0  0  0
  162.4900  211.1910  150.4190 C   0  0  0  0  0  2  0  0  0  0  0  0
  159.4320  207.2690  156.6200 C   0  0  0  0  0  1  0  0  0  0  0  0
  162.1800  202.3810  152.2740 C   0  0  0  0  0  1  0  0  0  0  0  0
  160.6100  204.4640  148.5290 C   0  0  1  0  0  3  0  0  0  0  0  0
  160.4760  201.9090  148.8130 C   0  0  0  0  0  2  0  0  0  0  0  0
  160.2790  207.1030  155.6170 C   0  0  0  0  0  0  0  0  0  0  0  0
  161.6700  204.2560  150.5640 C   0  0  1  0  0  3  0  0  0  0  0  0
  162.9460  206.9970  150.0850 C   0  0  0  0  0  2  0  0  0  0  0  0
  160.1310  207.3670  147.9880 O   0  0  0  0  0  0  0  0  0  0  0  0
  162.3420  207.7450  148.8900 C   0  0  2  0  0  3  0  0  0  0  0  0
  162.1960  211.4910  148.9570 C   0  0  0  0  0  2  0  0  0  0  0  0
  160.1750  209.6680  151.7460 C   0  0  0  0  0  1  0  0  0  0  0  0
  161.1110  203.0870  148.0630 C   0  0  0  0  0  2  0  0  0  0  0  0
  160.4390  204.5540  149.9360 O   0  0  0  0  0  0  0  0  0  0  0  0
  161.6440  209.2590  151.8310 C   0  0  2  0  0  3  0  0  0  0  0  0
  1  5  1  1  0  0  0
  2 18  1  1  0  0  0
  3 11  1  0  0  0  0
  3 19  1  0  0  0  0
  4 23  1  6  0  0  0
  4  1  1  0  0  0  0
  4 13  1  0  0  0  0
  5 12  2  0  0  0  0
  6 21  1  0  0  0  0
  7 16  1  6  0  0  0
  7 30  1  0  0  0  0
  8 12  1  6  0  0  0
  8  6  1  0  0  0  0
  9 21  2  0  0  0  0
 10 15  1  6  0  0  0
 10  7  1  0  0  0  0
 11 25  1  0  0  0  0
 12  9  1  0  0  0  0
 13  8  1  0  0  0  0
 14  2  1  0  0  0  0
 15 26  1  0  0  0  0
 19 29  1  0  0  0  0
 20 14  1  0  0  0  0
 21 17  1  0  0  0  0
 22  2  1  0  0  0  0
 22  1  1  0  0  0  0
 24 11  2  0  0  0  0
 25 10  1  0  0  0  0
 25 23  1  0  0  0  0
 26 16  1  0  0  0  0
 27 30  1  0  0  0  0
 28 19  1  0  0  0  0
 28 20  1  0  0  0  0
 29 22  1  0  0  0  0
 30 13  1  0  0  0  0
M  END
>  <MODEL>
6

>  <REMARK>
 VINA RESULT:      -4.0      3.093      4.948
  Name = 
  0 active torsions:
  status: ('A' for Active; 'I' for Inactive)
                            x       y       z     vdW  Elec       q    Type
                         _______ _______ _______ _____ _____    ______ ____

>  <TORSDO>
F 0

$$$$
=
 OpenBabel11052421593D

 30 35  0  0  1  0  0  0  0  0999 V2000
  162.3220  210.3850  149.8510 C   0  0  1  0  0  3  0  0  0  0  0  0
  162.1790  212.7570  148.6240 C   0  0  2  0  0  3  0  0  0  0  0  0
  160.4290  212.5150  152.1400 N   0  0  0  0  0  2  0  0  0  0  0  0
  161.7690  209.6600  151.0950 C   0  0  1  0  0  3  0  0  0  0  0  0
  162.1170  209.5960  148.6340 N   0  0  0  0  0  0  0  0  0  0  0  0
  162.2440  205.7760  149.6250 S   0  0  0  0  0  0  0  0  0  0  0  0
  161.6880  207.9490  153.6450 C   0  0  1  0  0  3  0  0  0  0  0  0
  162.2190  207.5510  149.9120 C   0  0  1  0  0  3  0  0  0  0  0  0
  162.0130  207.5070  147.5060 N   0  0  0  0  0  2  0  0  0  0  0  0
  160.7030  209.0910  153.8850 C   0  0  1  0  0  3  0  0  0  0  0  0
  160.0950  211.3160  152.8430 C   0  0  0  0  0  0  0  0  0  0  0  0
  162.1820  208.3020  148.6640 C   0  0  0  0  0  0  0  0  0  0  0  0
  161.9530  208.1470  151.0880 C   0  0  2  0  0  3  0  0  0  0  0  0
  161.0100  213.4810  147.9450 C   0  0  0  0  0  2  0  0  0  0  0  0
  160.4670  209.0990  155.3760 C   0  0  0  0  0  2  0  0  0  0  0  0
  161.4840  206.9610  154.7800 C   0  0  0  0  0  2  0  0  0  0  0  0
  161.5930  205.2010  147.0300 C   0  0  0  0  0  2  0  0  0  0  0  0
  163.0660  212.1200  147.5680 C   0  0  0  0  0  1  0  0  0  0  0  0
  159.9160  212.7960  150.8000 C   0  0  1  0  0  3  0  0  0  0  0  0
  160.2380  214.4530  148.8560 C   0  0  0  0  0  2  0  0  0  0  0  0
  162.0020  206.1320  147.8770 C   0  0  0  0  0  0  0  0  0  0  0  0
  161.6970  211.7900  149.7380 C   0  0  1  0  0  3  0  0  0  0  0  0
  162.3190  210.3250  152.3540 C   0  0  0  0  0  2  0  0  0  0  0  0
  158.8910  210.9490  152.9180 O   0  0  0  0  0  0  0  0  0  0  0  0
  161.2100  210.4620  153.4020 C   0  0  2  0  0  3  0  0  0  0  0  0
  160.6120  207.6550  155.8150 C   0  0  0  0  0  2  0  0  0  0  0  0
  160.0800  206.7950  152.0530 C   0  0  0  0  0  1  0  0  0  0  0  0
  160.3740  214.1980  150.3610 C   0  0  0  0  0  2  0  0  0  0  0  0
  160.2910  211.7730  149.8900 O   0  0  0  0  0  0  0  0  0  0  0  0
  161.5080  207.2940  152.2650 C   0  0  2  0  0  3  0  0  0  0  0  0
  1  5  1  6  0  0  0
  1  4  1  0  0  0  0
  2 18  1  6  0  0  0
  2 22  1  0  0  0  0
  3 11  1  0  0  0  0
  4 23  1  1  0  0  0
  5 12  2  0  0  0  0
  6  8  1  0  0  0  0
  7 10  1  0  0  0  0
  7 16  1  1  0  0  0
  8 12  1  6  0  0  0
  8 13  1  0  0  0  0
  9 21  1  0  0  0  0
  9 12  1  0  0  0  0
 10 15  1  1  0  0  0
 11 24  2  0  0  0  0
 11 25  1  0  0  0  0
 13  4  1  0  0  0  0
 13 30  1  0  0  0  0
 14  2  1  0  0  0  0
 14 20  1  0  0  0  0
 15 26  1  0  0  0  0
 16 26  1  0  0  0  0
 17 21  2  0  0  0  0
 19  3  1  0  0  0  0
 20 28  1  0  0  0  0
 21  6  1  0  0  0  0
 22  1  1  0  0  0  0
 22 29  1  0  0  0  0
 23 25  1  0  0  0  0
 25 10  1  0  0  0  0
 27 30  1  0  0  0  0
 28 19  1  0  0  0  0
 29 19  1  0  0  0  0
 30  7  1  0  0  0  0
M  END
>  <MODEL>
7

>  <REMARK>
 VINA RESULT:      -3.8      2.606      7.191
  Name = 
  0 active torsions:
  status: ('A' for Active; 'I' for Inactive)
                            x       y       z     vdW  Elec       q    Type
                         _______ _______ _______ _____ _____    ______ ____

>  <TORSDO>
F 0

$$$$
=
 OpenBabel11052421593D

 30 35  0  0  1  0  0  0  0  0999 V2000
  158.8120  213.9350  141.6460 C   0  0  1  0  0  3  0  0  0  0  0  0
  158.3350  213.9270  144.2780 C   0  0  2  0  0  3  0  0  0  0  0  0
  161.9820  212.9460  143.1730 N   0  0  0  0  0  2  0  0  0  0  0  0
  159.9170  213.5480  140.6410 C   0  0  1  0  0  3  0  0  0  0  0  0
  157.5210  213.3510  141.2770 N   0  0  0  0  0  0  0  0  0  0  0  0
  157.3980  213.0570  137.3410 S   0  0  0  0  0  0  0  0  0  0  0  0
  161.8570  213.7290  138.2670 C   0  0  1  0  0  3  0  0  0  0  0  0
  158.1430  213.3850  138.9450 C   0  0  1  0  0  3  0  0  0  0  0  0
  155.9430  212.6690  139.6370 N   0  0  0  0  0  2  0  0  0  0  0  0
  162.6310  213.0180  139.3760 C   0  0  1  0  0  3  0  0  0  0  0  0
  162.4020  212.5770  141.8580 C   0  0  0  0  0  0  0  0  0  0  0  0
  157.1900  213.2080  140.0330 C   0  0  0  0  0  0  0  0  0  0  0  0
  159.4620  213.4760  139.1880 C   0  0  2  0  0  3  0  0  0  0  0  0
  158.1870  212.7750  145.2790 C   0  0  0  0  0  2  0  0  0  0  0  0
  164.0800  213.1080  138.9640 C   0  0  0  0  0  2  0  0  0  0  0  0
  162.7030  213.6110  137.0110 C   0  0  0  0  0  2  0  0  0  0  0  0
  154.9920  211.7860  137.6280 C   0  0  0  0  0  2  0  0  0  0  0  0
  156.9610  214.4530  143.9000 C   0  0  0  0  0  1  0  0  0  0  0  0
  160.9380  212.2140  143.8870 C   0  0  1  0  0  3  0  0  0  0  0  0
  159.4860  212.3830  146.0070 C   0  0  0  0  0  2  0  0  0  0  0  0
  155.9260  212.5120  138.2220 C   0  0  0  0  0  0  0  0  0  0  0  0
  159.2370  213.5400  143.0740 C   0  0  1  0  0  3  0  0  0  0  0  0
  161.1280  214.4530  140.8470 C   0  0  0  0  0  2  0  0  0  0  0  0
  162.6750  211.3720  141.6020 O   0  0  0  0  0  0  0  0  0  0  0  0
  162.4180  213.6290  140.7730 C   0  0  2  0  0  3  0  0  0  0  0  0
  164.0690  213.1050  137.4480 C   0  0  0  0  0  2  0  0  0  0  0  0
  160.4710  211.6540  137.7980 C   0  0  0  0  0  1  0  0  0  0  0  0
  160.7870  212.7920  145.3050 C   0  0  0  0  0  2  0  0  0  0  0  0
  159.7250  212.2150  143.1480 O   0  0  0  0  0  0  0  0  0  0  0  0
  160.4430  213.1560  138.0710 C   0  0  2  0  0  3  0  0  0  0  0  0
  1  5  1  6  0  0  0
  1 22  1  0  0  0  0
  2 18  1  6  0  0  0
  2 14  1  0  0  0  0
  3 19  1  0  0  0  0
  4 23  1  6  0  0  0
  4  1  1  0  0  0  0
  6 21  1  0  0  0  0
  7 16  1  6  0  0  0
  7 10  1  0  0  0  0
  8  6  1  6  0  0  0
  8 13  1  0  0  0  0
  8 12  1  0  0  0  0
  9 12  1  0  0  0  0
 10 15  1  6  0  0  0
 10 25  1  0  0  0  0
 11  3  1  0  0  0  0
 12  5  2  0  0  0  0
 13  4  1  0  0  0  0
 14 20  1  0  0  0  0
 16 26  1  0  0  0  0
 17 21  2  0  0  0  0
 19 28  1  0  0  0  0
 21  9  1  0  0  0  0
 22 29  1  0  0  0  0
 22  2  1  0  0  0  0
 24 11  2  0  0  0  0
 25 23  1  0  0  0  0
 25 11  1  0  0  0  0
 26 15  1  0  0  0  0
 27 30  1  0  0  0  0
 28 20  1  0  0  0  0
 29 19  1  0  0  0  0
 30  7  1  0  0  0  0
 30 13  1  0  0  0  0
M  END
>  <MODEL>
8

>  <REMARK>
 VINA RESULT:      -3.3      8.384     11.563
  Name = 
  0 active torsions:
  status: ('A' for Active; 'I' for Inactive)
                            x       y       z     vdW  Elec       q    Type
                         _______ _______ _______ _____ _____    ______ ____

>  <TORSDO>
F 0

$$$$
=
 OpenBabel11052421593D

 30 35  0  0  1  0  0  0  0  0999 V2000
  160.5930  209.9410  151.7150 C   0  0  1  0  0  3  0  0  0  0  0  0
  160.6100  212.1970  150.2780 C   0  0  2  0  0  3  0  0  0  0  0  0
  161.6020  208.9090  148.3570 N   0  0  0  0  0  2  0  0  0  0  0  0
  160.9800  208.4530  151.5880 C   0  0  1  0  0  3  0  0  0  0  0  0
  161.1700  210.5460  152.9170 N   0  0  0  0  0  0  0  0  0  0  0  0
  161.4460  207.7400  155.6810 S   0  0  0  0  0  0  0  0  0  0  0  0
  160.7970  205.3930  151.7750 C   0  0  1  0  0  3  0  0  0  0  0  0
  161.1280  208.4120  154.0430 C   0  0  1  0  0  3  0  0  0  0  0  0
  161.8380  210.4140  155.1930 N   0  0  0  0  0  0  0  0  0  0  0  0
  161.5160  205.6820  150.4580 C   0  0  1  0  0  3  0  0  0  0  0  0
  161.9670  207.6590  148.9440 C   0  0  0  0  0  0  0  0  0  0  0  0
  161.3060  209.8580  154.0060 C   0  0  0  0  0  0  0  0  0  0  0  0
  161.0440  207.6950  152.9090 C   0  0  2  0  0  3  0  0  0  0  0  0
  161.7660  213.0320  149.7140 C   0  0  0  0  0  2  0  0  0  0  0  0
  161.4300  204.3950  149.6730 C   0  0  0  0  0  2  0  0  0  0  0  0
  160.9130  203.8960  152.0070 C   0  0  0  0  0  2  0  0  0  0  0  0
  162.7080  209.5840  157.2610 C   0  0  0  0  0  1  0  0  0  0  0  0
  160.0760  212.8530  151.5400 C   0  0  0  0  0  1  0  0  0  0  0  0
  162.3320  210.1430  148.6430 C   0  0  1  0  0  3  0  0  0  0  0  0
  162.1660  212.6850  148.2680 C   0  0  0  0  0  2  0  0  0  0  0  0
  161.9890  209.3860  156.1680 C   0  0  0  0  0  0  0  0  0  0  0  0
  160.9960  210.7010  150.4360 C   0  0  1  0  0  3  0  0  0  0  0  0
  160.0810  207.7820  150.5550 C   0  0  0  0  0  2  0  0  0  0  0  0
  163.1720  207.2850  148.9240 O   0  0  0  0  0  0  0  0  0  0  0  0
  160.9100  206.8520  149.6620 C   0  0  2  0  0  3  0  0  0  0  0  0
  161.4270  203.2890  150.7110 C   0  0  0  0  0  2  0  0  0  0  0  0
  162.8640  205.9890  153.1240 C   0  0  0  0  0  1  0  0  0  0  0  0
  161.7600  211.2860  147.7880 C   0  0  0  0  0  2  0  0  0  0  0  0
  162.3230  210.4240  150.0350 O   0  0  0  0  0  0  0  0  0  0  0  0
  161.3630  206.2090  152.9490 C   0  0  2  0  0  3  0  0  0  0  0  0
  1  5  1  1  0  0  0
  2 22  1  0  0  0  0
  2 18  1  1  0  0  0
  3 19  1  0  0  0  0
  3 11  1  0  0  0  0
  4 23  1  6  0  0  0
  4  1  1  0  0  0  0
  4 13  1  0  0  0  0
  5 12  2  0  0  0  0
  6 21  1  0  0  0  0
  7 16  1  1  0  0  0
  7 30  1  0  0  0  0
  8 12  1  6  0  0  0
  8  6  1  0  0  0  0
  9 21  2  0  0  0  0
 10 15  1  6  0  0  0
 10  7  1  0  0  0  0
 11 25  1  0  0  0  0
 12  9  1  0  0  0  0
 13 30  1  0  0  0  0
 13  8  1  0  0  0  0
 14  2  1  0  0  0  0
 15 26  1  0  0  0  0
 19 29  1  0  0  0  0
 20 14  1  0  0  0  0
 21 17  1  0  0  0  0
 22  1  1  0  0  0  0
 24 11  2  0  0  0  0
 25 10  1  0  0  0  0
 25 23  1  0  0  0  0
 26 16  1  0  0  0  0
 28 20  1  0  0  0  0
 28 19  1  0  0  0  0
 29 22  1  0  0  0  0
 30 27  1  0  0  0  0
M  END
>  <MODEL>
9

>  <REMARK>
 VINA RESULT:      -3.2      2.414      6.147
  Name = 
  0 active torsions:
  status: ('A' for Active; 'I' for Inactive)
                            x       y       z     vdW  Elec       q    Type
                         _______ _______ _______ _____ _____    ______ ____

>  <TORSDO>
F 0

$$$$
