=
 OpenBabel11052423163D

 27 31  0  0  1  0  0  0  0  0999 V2000
  162.1950  204.1560  149.2380 O   0  0  0  0  0  0  0  0  0  0  0  0
  160.5480  201.5200  150.6790 C   0  0  0  0  0  3  0  0  0  0  0  0
  160.8200  200.6540  149.6960 C   0  0  0  0  0  3  0  0  0  0  0  0
  161.0880  204.8680  148.7200 C   0  0  2  0  0  0  0  0  0  0  0  0
  160.9930  203.4290  149.0840 C   0  0  1  0  0  0  0  0  0  0  0  0
  160.9110  203.7020  151.5000 F   0  0  0  0  0  0  0  0  0  0  0  0
  161.0400  201.0990  148.3080 C   0  0  0  0  0  3  0  0  0  0  0  0
  161.1120  202.3940  148.0020 C   0  0  0  0  0  3  0  0  0  0  0  0
  160.3810  202.9960  150.4320 C   0  0  2  0  0  3  0  0  0  0  0  0
  161.5220  205.9850  144.5880 C   0  0  0  0  0  3  0  0  0  0  0  0
  161.2410  205.2880  147.2860 C   0  0  0  0  0  0  0  0  0  0  0  0
  162.4500  205.0510  146.6210 C   0  0  0  0  0  3  0  0  0  0  0  0
  162.5910  205.4030  145.2750 C   0  0  0  0  0  3  0  0  0  0  0  0
  160.3090  206.2140  145.2460 C   0  0  0  0  0  3  0  0  0  0  0  0
  160.1670  205.8620  146.5910 C   0  0  0  0  0  3  0  0  0  0  0  0
  160.5350  205.8290  149.6740 N   0  0  0  0  0  2  0  0  0  0  0  0
  161.2770  206.5110  151.8980 C   0  0  0  0  0  3  0  0  0  0  0  0
  162.1520  209.7700  148.5820 C   0  0  0  0  0  3  0  0  0  0  0  0
  161.9060  212.0120  149.4500 O   0  0  0  0  0  1  0  0  0  0  0  0
  161.6280  206.4570  150.4050 C   0  0  2  0  0  3  0  0  0  0  0  0
  161.4930  210.1140  150.9010 C   0  0  0  0  0  0  0  0  0  0  0  0
  161.1950  210.9600  151.9630 O   0  0  0  0  0  1  0  0  0  0  0  0
  161.4460  208.7260  151.0600 C   0  0  0  0  0  0  0  0  0  0  0  0
  161.8500  210.6370  149.6460 C   0  0  0  0  0  0  0  0  0  0  0  0
  161.7360  207.8830  150.0180 C   0  0  0  0  0  0  0  0  0  0  0  0
  161.1040  207.9850  152.2930 C   0  0  0  0  0  3  0  0  0  0  0  0
  162.0970  208.3810  148.7640 C   0  0  0  0  0  3  0  0  0  0  0  0
  3  2  2  0  0  0  0
  4  5  1  0  0  0  0
  4  1  1  0  0  0  0
  4 16  1  1  0  0  0
  5  8  1  6  0  0  0
  5  1  1  0  0  0  0
  5  9  1  0  0  0  0
  7  3  1  0  0  0  0
  8  7  2  0  0  0  0
  9  2  1  0  0  0  0
  9  6  1  1  0  0  0
 10 14  2  0  0  0  0
 10 13  1  0  0  0  0
 11  4  1  0  0  0  0
 12 11  1  0  0  0  0
 13 12  2  0  0  0  0
 14 15  1  0  0  0  0
 15 11  2  0  0  0  0
 17 26  2  0  0  0  0
 18 27  2  0  0  0  0
 18 24  1  0  0  0  0
 19 24  1  0  0  0  0
 20 16  1  6  0  0  0
 20 17  1  0  0  0  0
 21 23  1  0  0  0  0
 21 22  1  0  0  0  0
 23 26  1  0  0  0  0
 24 21  2  0  0  0  0
 25 20  1  0  0  0  0
 25 23  2  0  0  0  0
 27 25  1  0  0  0  0
M  END
>  <MODEL>
1

>  <REMARK>
 VINA RESULT:      -8.8      0.000      0.000
  Name = 
  3 active torsions:
  status: ('A' for Active; 'I' for Inactive)
    1  A    between atoms: N_2  and  C_6
    2  A    between atoms: N_2  and  C_15
    3  A    between atoms: C_9  and  C_15
                            x       y       z     vdW  Elec       q    Type
                         _______ _______ _______ _____ _____    ______ ____

>  <TORSDO>
F 3

$$$$
=
 OpenBabel11052423163D

 27 31  0  0  1  0  0  0  0  0999 V2000
  160.5080  207.4630  149.4160 O   0  0  0  0  0  0  0  0  0  0  0  0
  162.2220  209.8310  151.2020 C   0  0  0  0  0  3  0  0  0  0  0  0
  162.1520  210.7730  150.2550 C   0  0  0  0  0  3  0  0  0  0  0  0
  161.5940  206.6690  148.9790 C   0  0  2  0  0  0  0  0  0  0  0  0
  161.7840  208.0690  149.4450 C   0  0  1  0  0  0  0  0  0  0  0  0
  161.5560  207.6570  151.8320 F   0  0  0  0  0  0  0  0  0  0  0  0
  162.0550  210.4290  148.8240 C   0  0  0  0  0  3  0  0  0  0  0  0
  161.8940  209.1670  148.4270 C   0  0  0  0  0  3  0  0  0  0  0  0
  162.2730  208.3610  150.8780 C   0  0  2  0  0  3  0  0  0  0  0  0
  161.5200  205.6600  144.7970 C   0  0  0  0  0  3  0  0  0  0  0  0
  161.5700  206.3470  147.5120 C   0  0  0  0  0  0  0  0  0  0  0  0
  162.7070  205.8020  146.9030 C   0  0  0  0  0  3  0  0  0  0  0  0
  162.6830  205.4630  145.5470 C   0  0  0  0  0  3  0  0  0  0  0  0
  160.3790  206.1940  145.4040 C   0  0  0  0  0  3  0  0  0  0  0  0
  160.4020  206.5330  146.7590 C   0  0  0  0  0  3  0  0  0  0  0  0
  161.9360  205.6050  149.9220 N   0  0  0  0  0  2  0  0  0  0  0  0
  160.7270  204.3110  151.6040 C   0  0  0  0  0  3  0  0  0  0  0  0
  161.0690  202.0740  147.4490 C   0  0  0  0  0  3  0  0  0  0  0  0
  161.3180  199.6880  147.7410 O   0  0  0  0  0  1  0  0  0  0  0  0
  160.7640  204.7660  150.1380 C   0  0  2  0  0  3  0  0  0  0  0  0
  161.1480  201.1210  149.6890 C   0  0  0  0  0  0  0  0  0  0  0  0
  161.2530  200.0230  150.5360 O   0  0  0  0  0  1  0  0  0  0  0  0
  161.0090  202.4120  150.2080 C   0  0  0  0  0  0  0  0  0  0  0  0
  161.1790  200.9560  148.2930 C   0  0  0  0  0  0  0  0  0  0  0  0
  160.9070  203.5010  149.3820 C   0  0  0  0  0  0  0  0  0  0  0  0
  160.9460  202.7920  151.6360 C   0  0  0  0  0  3  0  0  0  0  0  0
  160.9310  203.3590  147.9920 C   0  0  0  0  0  3  0  0  0  0  0  0
  1  5  1  0  0  0  0
  3  2  2  0  0  0  0
  4  1  1  0  0  0  0
  4  5  1  0  0  0  0
  4 16  1  1  0  0  0
  5  8  1  6  0  0  0
  5  9  1  0  0  0  0
  7  3  1  0  0  0  0
  8  7  2  0  0  0  0
  9  2  1  0  0  0  0
  9  6  1  1  0  0  0
 10 14  2  0  0  0  0
 10 13  1  0  0  0  0
 11  4  1  0  0  0  0
 12 11  1  0  0  0  0
 13 12  2  0  0  0  0
 14 15  1  0  0  0  0
 15 11  2  0  0  0  0
 17 26  2  0  0  0  0
 18 27  2  0  0  0  0
 18 24  1  0  0  0  0
 19 24  1  0  0  0  0
 20 16  1  1  0  0  0
 20 17  1  0  0  0  0
 21 23  1  0  0  0  0
 21 22  1  0  0  0  0
 23 26  1  0  0  0  0
 24 21  2  0  0  0  0
 25 20  1  0  0  0  0
 25 23  2  0  0  0  0
 27 25  1  0  0  0  0
M  END
>  <MODEL>
2

>  <REMARK>
 VINA RESULT:      -8.7      1.886      6.225
  Name = 
  3 active torsions:
  status: ('A' for Active; 'I' for Inactive)
    1  A    between atoms: N_2  and  C_6
    2  A    between atoms: N_2  and  C_15
    3  A    between atoms: C_9  and  C_15
                            x       y       z     vdW  Elec       q    Type
                         _______ _______ _______ _____ _____    ______ ____

>  <TORSDO>
F 3

$$$$
=
 OpenBabel11052423163D

 27 31  0  0  1  0  0  0  0  0999 V2000
  161.2840  211.0770  153.7000 O   0  0  0  0  0  0  0  0  0  0  0  0
  158.9490  213.4580  152.9140 C   0  0  0  0  0  3  0  0  0  0  0  0
  158.8680  213.9620  154.1500 C   0  0  0  0  0  3  0  0  0  0  0  0
  160.4430  209.9420  153.7780 C   0  0  2  0  0  0  0  0  0  0  0  0
  159.9040  211.3250  153.8760 C   0  0  1  0  0  0  0  0  0  0  0  0
  160.0500  211.9060  151.5180 F   0  0  0  0  0  0  0  0  0  0  0  0
  159.1430  213.1410  155.3440 C   0  0  0  0  0  3  0  0  0  0  0  0
  159.6170  211.9010  155.2330 C   0  0  0  0  0  3  0  0  0  0  0  0
  159.2600  212.0080  152.6520 C   0  0  2  0  0  3  0  0  0  0  0  0
  161.0430  207.4880  157.2600 C   0  0  0  0  0  3  0  0  0  0  0  0
  160.6450  209.1090  155.0120 C   0  0  0  0  0  0  0  0  0  0  0  0
  159.6990  208.1350  155.3520 C   0  0  0  0  0  3  0  0  0  0  0  0
  159.8970  207.3280  156.4770 C   0  0  0  0  0  3  0  0  0  0  0  0
  161.9950  208.4530  156.9180 C   0  0  0  0  0  3  0  0  0  0  0  0
  161.7990  209.2590  155.7940 C   0  0  0  0  0  3  0  0  0  0  0  0
  160.2890  209.2620  152.4930 N   0  0  0  0  0  2  0  0  0  0  0  0
  161.9550  209.2710  150.7080 C   0  0  0  0  0  3  0  0  0  0  0  0
  161.0950  204.9400  152.4060 C   0  0  0  0  0  3  0  0  0  0  0  0
  161.2110  203.2630  150.6680 O   0  0  0  0  0  1  0  0  0  0  0  0
  161.5760  208.7130  152.0870 C   0  0  2  0  0  3  0  0  0  0  0  0
  161.5750  205.5950  150.1100 C   0  0  0  0  0  0  0  0  0  0  0  0
  161.7770  205.2680  148.7730 O   0  0  0  0  0  1  0  0  0  0  0  0
  161.6490  206.9230  150.5380 C   0  0  0  0  0  0  0  0  0  0  0  0
  161.2930  204.5950  151.0570 C   0  0  0  0  0  0  0  0  0  0  0  0
  161.4490  207.2560  151.8530 C   0  0  0  0  0  0  0  0  0  0  0  0
  161.9400  208.1090  149.7050 C   0  0  0  0  0  3  0  0  0  0  0  0
  161.1730  206.2790  152.8130 C   0  0  0  0  0  3  0  0  0  0  0  0
  1  4  1  0  0  0  0
  1  5  1  0  0  0  0
  2  3  2  0  0  0  0
  3  7  1  0  0  0  0
  4 16  1  6  0  0  0
  4  5  1  0  0  0  0
  4 11  1  0  0  0  0
  5  8  1  1  0  0  0
  8  7  2  0  0  0  0
  9  6  1  6  0  0  0
  9  2  1  0  0  0  0
  9  5  1  0  0  0  0
 11 12  2  0  0  0  0
 11 15  1  0  0  0  0
 12 13  1  0  0  0  0
 13 10  2  0  0  0  0
 14 10  1  0  0  0  0
 15 14  2  0  0  0  0
 17 20  1  0  0  0  0
 18 27  1  0  0  0  0
 19 24  1  0  0  0  0
 20 16  1  6  0  0  0
 21 23  2  0  0  0  0
 21 24  1  0  0  0  0
 22 21  1  0  0  0  0
 23 25  1  0  0  0  0
 24 18  2  0  0  0  0
 25 20  1  0  0  0  0
 25 27  2  0  0  0  0
 26 23  1  0  0  0  0
 26 17  2  0  0  0  0
M  END
>  <MODEL>
3

>  <REMARK>
 VINA RESULT:      -8.2      3.617      8.736
  Name = 
  3 active torsions:
  status: ('A' for Active; 'I' for Inactive)
    1  A    between atoms: N_2  and  C_6
    2  A    between atoms: N_2  and  C_15
    3  A    between atoms: C_9  and  C_15
                            x       y       z     vdW  Elec       q    Type
                         _______ _______ _______ _____ _____    ______ ____

>  <TORSDO>
F 3

$$$$
=
 OpenBabel11052423163D

 27 31  0  0  1  0  0  0  0  0999 V2000
  160.4740  205.5510  148.2150 O   0  0  0  0  0  0  0  0  0  0  0  0
  162.2280  205.8620  145.2890 C   0  0  0  0  0  3  0  0  0  0  0  0
  161.8480  204.6790  144.7920 C   0  0  0  0  0  3  0  0  0  0  0  0
  161.5310  205.1920  149.0840 C   0  0  2  0  0  0  0  0  0  0  0  0
  161.6450  205.0450  147.6080 C   0  0  1  0  0  0  0  0  0  0  0  0
  161.9760  207.3930  147.0650 F   0  0  0  0  0  0  0  0  0  0  0  0
  161.4940  203.5470  145.6680 C   0  0  0  0  0  3  0  0  0  0  0  0
  161.4060  203.6980  146.9890 C   0  0  0  0  0  3  0  0  0  0  0  0
  162.3860  206.1050  146.7660 C   0  0  2  0  0  3  0  0  0  0  0  0
  160.7530  201.7380  151.5280 C   0  0  0  0  0  3  0  0  0  0  0  0
  161.2380  204.0020  149.9520 C   0  0  0  0  0  0  0  0  0  0  0  0
  160.5420  202.9100  149.4190 C   0  0  0  0  0  3  0  0  0  0  0  0
  160.2980  201.7820  150.2070 C   0  0  0  0  0  3  0  0  0  0  0  0
  161.4560  202.8230  152.0610 C   0  0  0  0  0  3  0  0  0  0  0  0
  161.7020  203.9510  151.2740 C   0  0  0  0  0  3  0  0  0  0  0  0
  162.1890  206.3510  149.6860 N   0  0  0  0  0  2  0  0  0  0  0  0
  161.5870  208.7090  149.4810 C   0  0  0  0  0  3  0  0  0  0  0  0
  160.8710  206.9930  153.8320 C   0  0  0  0  0  3  0  0  0  0  0  0
  161.3360  208.6500  155.5300 O   0  0  0  0  0  1  0  0  0  0  0  0
  161.1790  207.3400  150.0430 C   0  0  2  0  0  3  0  0  0  0  0  0
  161.6390  209.2140  153.1910 C   0  0  0  0  0  0  0  0  0  0  0  0
  162.0450  210.5000  153.5290 O   0  0  0  0  0  1  0  0  0  0  0  0
  161.5750  208.8150  151.8530 C   0  0  0  0  0  0  0  0  0  0  0  0
  161.2830  208.2890  154.1880 C   0  0  0  0  0  0  0  0  0  0  0  0
  161.1780  207.5480  151.5100 C   0  0  0  0  0  0  0  0  0  0  0  0
  161.8960  209.6350  150.6660 C   0  0  0  0  0  3  0  0  0  0  0  0
  160.8150  206.6140  152.4830 C   0  0  0  0  0  3  0  0  0  0  0  0
  1  4  1  0  0  0  0
  2  9  1  0  0  0  0
  3  2  2  0  0  0  0
  3  7  1  0  0  0  0
  4 16  1  1  0  0  0
  4 11  1  0  0  0  0
  5  8  1  6  0  0  0
  5  1  1  0  0  0  0
  5  4  1  0  0  0  0
  7  8  2  0  0  0  0
  9  6  1  6  0  0  0
  9  5  1  0  0  0  0
 10 14  1  0  0  0  0
 11 15  1  0  0  0  0
 12 11  2  0  0  0  0
 12 13  1  0  0  0  0
 13 10  2  0  0  0  0
 15 14  2  0  0  0  0
 17 20  1  0  0  0  0
 17 26  2  0  0  0  0
 18 24  1  0  0  0  0
 20 16  1  1  0  0  0
 20 25  1  0  0  0  0
 21 22  1  0  0  0  0
 21 24  2  0  0  0  0
 23 21  1  0  0  0  0
 24 19  1  0  0  0  0
 25 23  2  0  0  0  0
 25 27  1  0  0  0  0
 26 23  1  0  0  0  0
 27 18  2  0  0  0  0
M  END
>  <MODEL>
4

>  <REMARK>
 VINA RESULT:      -7.8      1.914      4.582
  Name = 
  3 active torsions:
  status: ('A' for Active; 'I' for Inactive)
    1  A    between atoms: N_2  and  C_6
    2  A    between atoms: N_2  and  C_15
    3  A    between atoms: C_9  and  C_15
                            x       y       z     vdW  Elec       q    Type
                         _______ _______ _______ _____ _____    ______ ____

>  <TORSDO>
F 3

$$$$
=
 OpenBabel11052423163D

 27 31  0  0  1  0  0  0  0  0999 V2000
  162.3960  206.5910  151.4120 O   0  0  0  0  0  0  0  0  0  0  0  0
  160.8720  209.2420  152.9560 C   0  0  0  0  0  3  0  0  0  0  0  0
  160.9600  208.7310  154.1900 C   0  0  0  0  0  3  0  0  0  0  0  0
  161.2560  205.9370  150.8910 C   0  0  2  0  0  0  0  0  0  0  0  0
  161.1560  206.9180  152.0040 C   0  0  1  0  0  0  0  0  0  0  0  0
  161.4420  208.9430  150.6860 F   0  0  0  0  0  0  0  0  0  0  0  0
  160.9910  207.2770  154.4280 C   0  0  0  0  0  3  0  0  0  0  0  0
  161.0710  206.4130  153.4160 C   0  0  0  0  0  3  0  0  0  0  0  0
  160.7320  208.3760  151.7320 C   0  0  2  0  0  3  0  0  0  0  0  0
  161.1400  201.6930  151.5910 C   0  0  0  0  0  3  0  0  0  0  0  0
  161.2130  204.4600  151.1660 C   0  0  0  0  0  0  0  0  0  0  0  0
  160.0510  203.7350  150.8770 C   0  0  0  0  0  3  0  0  0  0  0  0
  160.0140  202.3540  151.0930 C   0  0  0  0  0  3  0  0  0  0  0  0
  162.3060  202.4120  151.8710 C   0  0  0  0  0  3  0  0  0  0  0  0
  162.3450  203.7920  151.6550 C   0  0  0  0  0  3  0  0  0  0  0  0
  160.8900  206.4100  149.5570 N   0  0  0  0  0  2  0  0  0  0  0  0
  162.1200  207.2760  147.6340 C   0  0  0  0  0  3  0  0  0  0  0  0
  161.1010  202.6720  147.2500 C   0  0  0  0  0  3  0  0  0  0  0  0
  160.6250  202.0530  144.9620 O   0  0  0  0  0  1  0  0  0  0  0  0
  161.9790  206.1190  148.6330 C   0  0  2  0  0  3  0  0  0  0  0  0
  161.1550  204.3580  145.4940 C   0  0  0  0  0  0  0  0  0  0  0  0
  161.0210  204.7220  144.1590 O   0  0  0  0  0  1  0  0  0  0  0  0
  161.4880  205.3100  146.4630 C   0  0  0  0  0  0  0  0  0  0  0  0
  160.9590  203.0260  145.8970 C   0  0  0  0  0  0  0  0  0  0  0  0
  161.6200  204.9620  147.7820 C   0  0  0  0  0  0  0  0  0  0  0  0
  161.7420  206.7500  146.2420 C   0  0  0  0  0  3  0  0  0  0  0  0
  161.4350  203.6430  148.2050 C   0  0  0  0  0  3  0  0  0  0  0  0
  1  5  1  0  0  0  0
  2  3  2  0  0  0  0
  3  7  1  0  0  0  0
  4 16  1  6  0  0  0
  4 11  1  0  0  0  0
  4  1  1  0  0  0  0
  4  5  1  0  0  0  0
  5  8  1  1  0  0  0
  8  7  2  0  0  0  0
  9  6  1  6  0  0  0
  9  5  1  0  0  0  0
  9  2  1  0  0  0  0
 10 14  1  0  0  0  0
 11 15  1  0  0  0  0
 12 13  1  0  0  0  0
 12 11  2  0  0  0  0
 13 10  2  0  0  0  0
 15 14  2  0  0  0  0
 17 20  1  0  0  0  0
 18 27  1  0  0  0  0
 19 24  1  0  0  0  0
 20 16  1  1  0  0  0
 21 24  1  0  0  0  0
 21 23  2  0  0  0  0
 22 21  1  0  0  0  0
 23 25  1  0  0  0  0
 24 18  2  0  0  0  0
 25 27  2  0  0  0  0
 25 20  1  0  0  0  0
 26 23  1  0  0  0  0
 26 17  2  0  0  0  0
M  END
>  <MODEL>
5

>  <REMARK>
 VINA RESULT:      -7.2      2.368      6.567
  Name = 
  3 active torsions:
  status: ('A' for Active; 'I' for Inactive)
    1  A    between atoms: N_2  and  C_6
    2  A    between atoms: N_2  and  C_15
    3  A    between atoms: C_9  and  C_15
                            x       y       z     vdW  Elec       q    Type
                         _______ _______ _______ _____ _____    ______ ____

>  <TORSDO>
F 3

$$$$
=
 OpenBabel11052423163D

 27 31  0  0  1  0  0  0  0  0999 V2000
  162.1800  204.3730  150.8720 O   0  0  0  0  0  0  0  0  0  0  0  0
  160.5170  201.3790  150.9430 C   0  0  0  0  0  3  0  0  0  0  0  0
  160.8810  201.0080  149.7110 C   0  0  0  0  0  3  0  0  0  0  0  0
  161.0910  205.2390  150.6210 C   0  0  2  0  0  0  0  0  0  0  0  0
  161.0150  203.7820  150.3370 C   0  0  1  0  0  0  0  0  0  0  0  0
  160.7570  203.0110  152.6300 F   0  0  0  0  0  0  0  0  0  0  0  0
  161.1830  201.9960  148.6590 C   0  0  0  0  0  3  0  0  0  0  0  0
  161.2380  203.2990  148.9320 C   0  0  0  0  0  3  0  0  0  0  0  0
  160.3240  202.8220  151.3280 C   0  0  2  0  0  3  0  0  0  0  0  0
  161.8430  208.0090  147.4140 C   0  0  0  0  0  3  0  0  0  0  0  0
  161.3310  206.2240  149.5120 C   0  0  0  0  0  0  0  0  0  0  0  0
  162.4600  207.0520  149.5520 C   0  0  0  0  0  3  0  0  0  0  0  0
  162.7120  207.9450  148.5070 C   0  0  0  0  0  3  0  0  0  0  0  0
  160.7200  207.1760  147.3650 C   0  0  0  0  0  3  0  0  0  0  0  0
  160.4670  206.2830  148.4090 C   0  0  0  0  0  3  0  0  0  0  0  0
  160.4460  205.7100  151.8450 N   0  0  0  0  0  2  0  0  0  0  0  0
  161.4260  205.7940  154.0800 C   0  0  0  0  0  3  0  0  0  0  0  0
  160.5040  210.0830  152.3080 C   0  0  0  0  0  3  0  0  0  0  0  0
  159.7920  211.6230  154.0300 O   0  0  0  0  0  1  0  0  0  0  0  0
  161.4320  206.3980  152.6690 C   0  0  2  0  0  3  0  0  0  0  0  0
  160.3100  209.3280  154.6160 C   0  0  0  0  0  0  0  0  0  0  0  0
  160.0160  209.5780  155.9510 O   0  0  0  0  0  1  0  0  0  0  0  0
  160.7230  208.0580  154.2010 C   0  0  0  0  0  0  0  0  0  0  0  0
  160.2000  210.3480  153.6550 C   0  0  0  0  0  0  0  0  0  0  0  0
  161.0130  207.8020  152.8860 C   0  0  0  0  0  0  0  0  0  0  0  0
  160.9090  206.8640  155.0520 C   0  0  0  0  0  3  0  0  0  0  0  0
  160.9150  208.8020  151.9150 C   0  0  0  0  0  3  0  0  0  0  0  0
  2  9  1  0  0  0  0
  3  2  2  0  0  0  0
  4  1  1  0  0  0  0
  4 16  1  1  0  0  0
  5  8  1  6  0  0  0
  5  4  1  0  0  0  0
  5  1  1  0  0  0  0
  5  9  1  0  0  0  0
  7  8  2  0  0  0  0
  7  3  1  0  0  0  0
  9  6  1  1  0  0  0
 10 13  1  0  0  0  0
 11 12  1  0  0  0  0
 11  4  1  0  0  0  0
 13 12  2  0  0  0  0
 14 10  2  0  0  0  0
 14 15  1  0  0  0  0
 15 11  2  0  0  0  0
 17 26  2  0  0  0  0
 18 24  1  0  0  0  0
 20 16  1  6  0  0  0
 20 25  1  0  0  0  0
 20 17  1  0  0  0  0
 21 22  1  0  0  0  0
 23 21  1  0  0  0  0
 23 26  1  0  0  0  0
 24 19  1  0  0  0  0
 24 21  2  0  0  0  0
 25 23  2  0  0  0  0
 27 18  2  0  0  0  0
 27 25  1  0  0  0  0
M  END
>  <MODEL>
6

>  <REMARK>
 VINA RESULT:      -7.0      1.995      2.866
  Name = 
  3 active torsions:
  status: ('A' for Active; 'I' for Inactive)
    1  A    between atoms: N_2  and  C_6
    2  A    between atoms: N_2  and  C_15
    3  A    between atoms: C_9  and  C_15
                            x       y       z     vdW  Elec       q    Type
                         _______ _______ _______ _____ _____    ______ ____

>  <TORSDO>
F 3

$$$$
=
 OpenBabel11052423163D

 27 31  0  0  1  0  0  0  0  0999 V2000
  162.9210  210.7060  151.0530 O   0  0  0  0  0  0  0  0  0  0  0  0
  161.7140  211.2810  147.8990 C   0  0  0  0  0  3  0  0  0  0  0  0
  161.1960  212.4820  148.1830 C   0  0  0  0  0  3  0  0  0  0  0  0
  161.9230  209.8230  151.5280 C   0  0  2  0  0  0  0  0  0  0  0  0
  161.6890  210.7170  150.3620 C   0  0  1  0  0  0  0  0  0  0  0  0
  162.9800  209.4680  148.7220 F   0  0  0  0  0  0  0  0  0  0  0  0
  160.7410  212.8290  149.5420 C   0  0  0  0  0  3  0  0  0  0  0  0
  160.9530  212.0100  150.5710 C   0  0  0  0  0  3  0  0  0  0  0  0
  161.8080  210.1800  148.9220 C   0  0  2  0  0  3  0  0  0  0  0  0
  160.4050  210.9150  155.4030 C   0  0  0  0  0  3  0  0  0  0  0  0
  161.3830  210.1760  152.8850 C   0  0  0  0  0  0  0  0  0  0  0  0
  162.2670  210.3720  153.9530 C   0  0  0  0  0  3  0  0  0  0  0  0
  161.7780  210.7380  155.2100 C   0  0  0  0  0  3  0  0  0  0  0  0
  159.5200  210.7310  154.3360 C   0  0  0  0  0  3  0  0  0  0  0  0
  160.0070  210.3660  153.0790 C   0  0  0  0  0  3  0  0  0  0  0  0
  162.2200  208.4210  151.2370 N   0  0  0  0  0  2  0  0  0  0  0  0
  161.1680  206.9780  152.9020 C   0  0  0  0  0  3  0  0  0  0  0  0
  160.8050  205.2840  148.5000 C   0  0  0  0  0  3  0  0  0  0  0  0
  160.9380  202.8700  148.4620 O   0  0  0  0  0  1  0  0  0  0  0  0
  161.0370  207.6160  151.5130 C   0  0  2  0  0  3  0  0  0  0  0  0
  161.1230  204.0460  150.5740 C   0  0  0  0  0  0  0  0  0  0  0  0
  161.2700  202.8450  151.2570 O   0  0  0  0  0  1  0  0  0  0  0  0
  161.1380  205.2640  151.2610 C   0  0  0  0  0  0  0  0  0  0  0  0
  160.9560  204.0610  149.1780 C   0  0  0  0  0  0  0  0  0  0  0  0
  160.9960  206.4540  150.5950 C   0  0  0  0  0  0  0  0  0  0  0  0
  161.2910  205.4590  152.7180 C   0  0  0  0  0  3  0  0  0  0  0  0
  160.8240  206.4930  149.2090 C   0  0  0  0  0  3  0  0  0  0  0  0
  1  4  1  0  0  0  0
  2  3  2  0  0  0  0
  2  9  1  0  0  0  0
  3  7  1  0  0  0  0
  4 16  1  6  0  0  0
  4 11  1  0  0  0  0
  5  8  1  1  0  0  0
  5  1  1  0  0  0  0
  5  4  1  0  0  0  0
  7  8  2  0  0  0  0
  9  6  1  1  0  0  0
  9  5  1  0  0  0  0
 11 15  2  0  0  0  0
 11 12  1  0  0  0  0
 12 13  2  0  0  0  0
 13 10  1  0  0  0  0
 14 10  2  0  0  0  0
 15 14  1  0  0  0  0
 18 24  2  0  0  0  0
 18 27  1  0  0  0  0
 19 24  1  0  0  0  0
 20 16  1  6  0  0  0
 20 17  1  0  0  0  0
 21 22  1  0  0  0  0
 21 23  2  0  0  0  0
 23 26  1  0  0  0  0
 24 21  1  0  0  0  0
 25 23  1  0  0  0  0
 25 20  1  0  0  0  0
 26 17  2  0  0  0  0
 27 25  2  0  0  0  0
M  END
>  <MODEL>
7

>  <REMARK>
 VINA RESULT:      -6.8      2.529      7.682
  Name = 
  3 active torsions:
  status: ('A' for Active; 'I' for Inactive)
    1  A    between atoms: N_2  and  C_6
    2  A    between atoms: N_2  and  C_15
    3  A    between atoms: C_9  and  C_15
                            x       y       z     vdW  Elec       q    Type
                         _______ _______ _______ _____ _____    ______ ____

>  <TORSDO>
F 3

$$$$
=
 OpenBabel11052423163D

 27 31  0  0  1  0  0  0  0  0999 V2000
  162.7190  208.0200  150.2530 O   0  0  0  0  0  0  0  0  0  0  0  0
  162.0590  210.6860  148.2060 C   0  0  0  0  0  3  0  0  0  0  0  0
  162.3420  211.6180  149.1230 C   0  0  0  0  0  3  0  0  0  0  0  0
  161.3960  207.6510  150.5900 C   0  0  2  0  0  0  0  0  0  0  0  0
  161.7220  209.0020  150.0590 C   0  0  1  0  0  0  0  0  0  0  0  0
  162.0320  208.3760  147.7280 F   0  0  0  0  0  0  0  0  0  0  0  0
  162.1820  211.3600  150.5660 C   0  0  0  0  0  3  0  0  0  0  0  0
  161.8800  210.1440  151.0210 C   0  0  0  0  0  3  0  0  0  0  0  0
  161.4980  209.3370  148.5700 C   0  0  2  0  0  3  0  0  0  0  0  0
  160.8350  207.0600  154.8140 C   0  0  0  0  0  3  0  0  0  0  0  0
  161.1700  207.4390  152.0600 C   0  0  0  0  0  0  0  0  0  0  0  0
  161.6280  206.2650  152.6690 C   0  0  0  0  0  3  0  0  0  0  0  0
  161.4580  206.0750  154.0430 C   0  0  0  0  0  3  0  0  0  0  0  0
  160.3850  208.2400  154.2120 C   0  0  0  0  0  3  0  0  0  0  0  0
  160.5560  208.4310  152.8380 C   0  0  0  0  0  3  0  0  0  0  0  0
  160.8170  206.6920  149.6490 N   0  0  0  0  0  2  0  0  0  0  0  0
  161.9480  205.7210  147.7150 C   0  0  0  0  0  3  0  0  0  0  0  0
  160.8240  202.5080  151.0000 C   0  0  0  0  0  3  0  0  0  0  0  0
  160.2030  200.3950  150.0030 O   0  0  0  0  0  1  0  0  0  0  0  0
  161.8450  205.7410  149.2470 C   0  0  2  0  0  3  0  0  0  0  0  0
  160.8050  202.2610  148.5770 C   0  0  0  0  0  0  0  0  0  0  0  0
  160.6000  201.4900  147.4390 O   0  0  0  0  0  1  0  0  0  0  0  0
  161.2120  203.5950  148.4710 C   0  0  0  0  0  0  0  0  0  0  0  0
  160.6090  201.7170  149.8580 C   0  0  0  0  0  0  0  0  0  0  0  0
  161.4150  204.3650  149.5870 C   0  0  0  0  0  0  0  0  0  0  0  0
  161.4790  204.3440  147.2250 C   0  0  0  0  0  3  0  0  0  0  0  0
  161.2310  203.8430  150.8700 C   0  0  0  0  0  3  0  0  0  0  0  0
  1  4  1  0  0  0  0
  2  9  1  0  0  0  0
  2  3  2  0  0  0  0
  3  7  1  0  0  0  0
  4 16  1  6  0  0  0
  4 11  1  0  0  0  0
  5  1  1  0  0  0  0
  5  4  1  0  0  0  0
  5  8  1  1  0  0  0
  7  8  2  0  0  0  0
  9  6  1  6  0  0  0
  9  5  1  0  0  0  0
 11 12  2  0  0  0  0
 11 15  1  0  0  0  0
 12 13  1  0  0  0  0
 13 10  2  0  0  0  0
 14 10  1  0  0  0  0
 15 14  2  0  0  0  0
 17 20  1  0  0  0  0
 20 25  1  0  0  0  0
 20 16  1  6  0  0  0
 21 24  1  0  0  0  0
 22 21  1  0  0  0  0
 23 21  2  0  0  0  0
 23 25  1  0  0  0  0
 24 19  1  0  0  0  0
 24 18  2  0  0  0  0
 25 27  2  0  0  0  0
 26 17  2  0  0  0  0
 26 23  1  0  0  0  0
 27 18  1  0  0  0  0
M  END
>  <MODEL>
8

>  <REMARK>
 VINA RESULT:      -6.5      2.176      7.478
  Name = 
  3 active torsions:
  status: ('A' for Active; 'I' for Inactive)
    1  A    between atoms: N_2  and  C_6
    2  A    between atoms: N_2  and  C_15
    3  A    between atoms: C_9  and  C_15
                            x       y       z     vdW  Elec       q    Type
                         _______ _______ _______ _____ _____    ______ ____

>  <TORSDO>
F 3

$$$$
=
 OpenBabel11052423163D

 27 31  0  0  1  0  0  0  0  0999 V2000
  162.5350  203.5480  148.4770 O   0  0  0  0  0  0  0  0  0  0  0  0
  160.6040  202.0660  150.8880 C   0  0  0  0  0  3  0  0  0  0  0  0
  159.9430  201.2680  150.0420 C   0  0  0  0  0  3  0  0  0  0  0  0
  161.8430  204.7740  148.3440 C   0  0  2  0  0  0  0  0  0  0  0  0
  161.2050  203.5760  148.9520 C   0  0  1  0  0  0  0  0  0  0  0  0
  162.3320  203.6590  151.1070 F   0  0  0  0  0  0  0  0  0  0  0  0
  159.7280  201.6400  148.6320 C   0  0  0  0  0  3  0  0  0  0  0  0
  160.3020  202.7230  148.1080 C   0  0  0  0  0  3  0  0  0  0  0  0
  161.1160  203.4240  150.4850 C   0  0  2  0  0  3  0  0  0  0  0  0
  160.9660  205.8040  144.2600 C   0  0  0  0  0  3  0  0  0  0  0  0
  161.5450  205.1620  146.9240 C   0  0  0  0  0  0  0  0  0  0  0  0
  162.4080  204.7560  145.8990 C   0  0  0  0  0  3  0  0  0  0  0  0
  162.1200  205.0790  144.5700 C   0  0  0  0  0  3  0  0  0  0  0  0
  160.0960  206.2030  145.2790 C   0  0  0  0  0  3  0  0  0  0  0  0
  160.3820  205.8800  146.6080 C   0  0  0  0  0  3  0  0  0  0  0  0
  162.3290  205.8030  149.2620 N   0  0  0  0  0  2  0  0  0  0  0  0
  161.6920  208.0990  148.7310 C   0  0  0  0  0  3  0  0  0  0  0  0
  160.8310  206.9430  153.2370 C   0  0  0  0  0  3  0  0  0  0  0  0
  161.1950  208.8150  154.7220 O   0  0  0  0  0  1  0  0  0  0  0  0
  161.2870  206.8050  149.4500 C   0  0  2  0  0  3  0  0  0  0  0  0
  161.5830  209.0790  152.3430 C   0  0  0  0  0  0  0  0  0  0  0  0
  161.9510  210.4080  152.5260 O   0  0  0  0  0  1  0  0  0  0  0  0
  161.5810  208.5100  151.0660 C   0  0  0  0  0  0  0  0  0  0  0  0
  161.2040  208.2830  153.4370 C   0  0  0  0  0  0  0  0  0  0  0  0
  161.2220  207.2010  150.8750 C   0  0  0  0  0  0  0  0  0  0  0  0
  161.9360  209.1780  149.7960 C   0  0  0  0  0  3  0  0  0  0  0  0
  160.8370  206.3920  151.9480 C   0  0  0  0  0  3  0  0  0  0  0  0
  1  5  1  0  0  0  0
  3  2  2  0  0  0  0
  4  1  1  0  0  0  0
  4  5  1  0  0  0  0
  4 16  1  1  0  0  0
  5  8  1  6  0  0  0
  5  9  1  0  0  0  0
  7  3  1  0  0  0  0
  8  7  2  0  0  0  0
  9  2  1  0  0  0  0
  9  6  1  1  0  0  0
 10 13  2  0  0  0  0
 10 14  1  0  0  0  0
 11  4  1  0  0  0  0
 12 11  2  0  0  0  0
 13 12  1  0  0  0  0
 14 15  2  0  0  0  0
 15 11  1  0  0  0  0
 17 20  1  0  0  0  0
 17 26  2  0  0  0  0
 18 24  1  0  0  0  0
 20 16  1  1  0  0  0
 20 25  1  0  0  0  0
 21 22  1  0  0  0  0
 21 24  2  0  0  0  0
 23 21  1  0  0  0  0
 24 19  1  0  0  0  0
 25 23  2  0  0  0  0
 25 27  1  0  0  0  0
 26 23  1  0  0  0  0
 27 18  2  0  0  0  0
M  END
>  <MODEL>
9

>  <REMARK>
 VINA RESULT:      -6.4      1.198      2.349
  Name = 
  3 active torsions:
  status: ('A' for Active; 'I' for Inactive)
    1  A    between atoms: N_2  and  C_6
    2  A    between atoms: N_2  and  C_15
    3  A    between atoms: C_9  and  C_15
                            x       y       z     vdW  Elec       q    Type
                         _______ _______ _______ _____ _____    ______ ____

>  <TORSDO>
F 3

$$$$
