=
 OpenBabel11052422513D

 28 31  0  0  1  0  0  0  0  0999 V2000
  161.2870  210.1230  152.0370 C   0  0  0  0  0  0  0  0  0  0  0  0
  161.2960  207.7610  155.9980 Cl  0  0  0  0  0  0  0  0  0  0  0  0
  161.0610  206.5660  150.7470 N   0  0  0  0  0  0  0  0  0  0  0  0
  161.7000  207.8600  153.1880 C   0  0  2  0  0  3  0  0  0  0  0  0
  161.1050  208.0010  150.7940 C   0  0  0  0  0  3  0  0  0  0  0  0
  161.1240  209.9120  154.4350 C   0  0  0  0  0  3  0  0  0  0  0  0
  161.2050  206.4380  153.1480 C   0  0  0  0  0  3  0  0  0  0  0  0
  161.3040  208.5870  154.4490 C   0  0  0  0  0  0  0  0  0  0  0  0
  160.9590  205.8360  151.9840 C   0  0  0  0  0  3  0  0  0  0  0  0
  161.1810  210.6700  153.2150 N   0  0  0  0  0  0  0  0  0  0  0  0
  161.3470  208.6430  151.9420 C   0  0  0  0  0  0  0  0  0  0  0  0
  160.7240  206.6380  148.3760 C   0  0  0  0  0  3  0  0  0  0  0  0
  161.4920  203.6790  148.4630 C   0  0  0  0  0  3  0  0  0  0  0  0
  161.7270  205.2960  146.5860 C   0  0  0  0  0  0  0  0  0  0  0  0
  160.9000  205.8970  149.4800 C   0  0  0  0  0  0  0  0  0  0  0  0
  160.2120  203.5040  150.7670 Cl  0  0  0  0  0  0  0  0  0  0  0  0
  162.1130  204.1920  147.2250 C   0  0  0  0  0  3  0  0  0  0  0  0
  160.9110  204.4040  149.4300 C   0  0  0  0  0  0  0  0  0  0  0  0
  162.4520  205.7100  145.3570 C   0  0  0  0  0  1  0  0  0  0  0  0
  160.5240  206.0700  147.0110 C   0  0  0  0  0  2  0  0  0  0  0  0
  161.3490  210.9900  150.8320 C   0  0  0  0  0  0  0  0  0  0  0  0
  162.1890  210.6120  149.7770 C   0  0  0  0  0  3  0  0  0  0  0  0
  160.7460  212.9700  149.5540 C   0  0  0  0  0  0  0  0  0  0  0  0
  162.2880  211.4120  148.6410 C   0  0  0  0  0  3  0  0  0  0  0  0
  159.6630  212.6230  151.7990 C   0  0  0  0  0  1  0  0  0  0  0  0
  160.6110  212.1930  150.7210 C   0  0  0  0  0  0  0  0  0  0  0  0
  159.9880  214.2440  149.3780 C   0  0  0  0  0  1  0  0  0  0  0  0
  161.5730  212.5620  148.5560 N   0  0  0  0  0  0  0  0  0  0  0  0
  1 10  2  0  0  0  0
  3  5  1  0  0  0  0
  3  9  1  0  0  0  0
  4  7  1  6  0  0  0
  4  8  1  0  0  0  0
  5 11  2  0  0  0  0
  6  8  2  0  0  0  0
  8  2  1  0  0  0  0
  9  7  2  0  0  0  0
 10  6  1  0  0  0  0
 11  1  1  0  0  0  0
 11  4  1  0  0  0  0
 12 15  2  0  0  0  0
 13 18  2  0  0  0  0
 14 20  1  0  0  0  0
 14 17  2  0  0  0  0
 15  3  1  0  0  0  0
 17 13  1  0  0  0  0
 18 15  1  0  0  0  0
 18 16  1  0  0  0  0
 19 14  1  0  0  0  0
 20 12  1  0  0  0  0
 21  1  1  0  0  0  0
 22 21  2  0  0  0  0
 23 26  2  0  0  0  0
 24 22  1  0  0  0  0
 26 21  1  0  0  0  0
 26 25  1  0  0  0  0
 27 23  1  0  0  0  0
 28 24  2  0  0  0  0
 28 23  1  0  0  0  0
M  END
>  <MODEL>
1

>  <REMARK>
 VINA RESULT:      -8.7      0.000      0.000
  Name = 
  2 active torsions:
  status: ('A' for Active; 'I' for Inactive)
    1  A    between atoms: C_1  and  C_2
    2  A    between atoms: N_10  and  C_13
                            x       y       z     vdW  Elec       q    Type
                         _______ _______ _______ _____ _____    ______ ____

>  <TORSDO>
F 2

$$$$
=
 OpenBabel11052422513D

 28 31  0  0  1  0  0  0  0  0999 V2000
  159.3210  213.1600  151.8380 C   0  0  0  0  0  0  0  0  0  0  0  0
  158.6800  212.8910  156.3970 Cl  0  0  0  0  0  0  0  0  0  0  0  0
  160.7780  209.7360  152.5630 N   0  0  0  0  0  0  0  0  0  0  0  0
  160.0170  212.0330  154.0420 C   0  0  2  0  0  3  0  0  0  0  0  0
  160.3210  210.9060  151.8650 C   0  0  0  0  0  3  0  0  0  0  0  0
  158.3800  213.8780  153.9410 C   0  0  0  0  0  3  0  0  0  0  0  0
  160.0750  210.6650  154.6710 C   0  0  0  0  0  3  0  0  0  0  0  0
  158.9730  212.9250  154.6670 C   0  0  0  0  0  0  0  0  0  0  0  0
  160.4830  209.6100  153.9660 C   0  0  0  0  0  3  0  0  0  0  0  0
  158.6190  214.0130  152.5290 N   0  0  0  0  0  0  0  0  0  0  0  0
  159.9010  211.9850  152.5340 C   0  0  0  0  0  0  0  0  0  0  0  0
  161.5150  207.4590  152.4500 C   0  0  0  0  0  3  0  0  0  0  0  0
  161.4590  207.8890  149.4230 C   0  0  0  0  0  3  0  0  0  0  0  0
  161.1970  205.7710  150.7020 C   0  0  0  0  0  0  0  0  0  0  0  0
  161.3200  208.6260  151.8190 C   0  0  0  0  0  0  0  0  0  0  0  0
  162.3030  210.3560  149.8450 Cl  0  0  0  0  0  0  0  0  0  0  0  0
  160.9710  206.5090  149.6160 C   0  0  0  0  0  3  0  0  0  0  0  0
  161.6680  208.8080  150.3770 C   0  0  0  0  0  0  0  0  0  0  0  0
  160.6320  204.3980  150.7730 C   0  0  0  0  0  1  0  0  0  0  0  0
  162.0880  206.2440  151.8020 C   0  0  0  0  0  2  0  0  0  0  0  0
  159.5230  213.3890  150.3850 C   0  0  0  0  0  0  0  0  0  0  0  0
  160.8200  213.6380  149.9190 C   0  0  0  0  0  3  0  0  0  0  0  0
  158.7270  213.6400  148.0990 C   0  0  0  0  0  0  0  0  0  0  0  0
  161.0430  213.8780  148.5650 C   0  0  0  0  0  3  0  0  0  0  0  0
  157.0510  213.0850  149.8920 C   0  0  0  0  0  1  0  0  0  0  0  0
  158.4530  213.3900  149.4580 C   0  0  0  0  0  0  0  0  0  0  0  0
  157.6410  213.6470  147.0760 C   0  0  0  0  0  1  0  0  0  0  0  0
  160.0030  213.8750  147.6940 N   0  0  0  0  0  0  0  0  0  0  0  0
  1 10  2  0  0  0  0
  1 11  1  0  0  0  0
  3  9  1  0  0  0  0
  4  8  1  0  0  0  0
  4  7  1  1  0  0  0
  5 11  2  0  0  0  0
  5  3  1  0  0  0  0
  6  8  2  0  0  0  0
  8  2  1  0  0  0  0
  9  7  2  0  0  0  0
 10  6  1  0  0  0  0
 11  4  1  0  0  0  0
 13 17  1  0  0  0  0
 13 18  2  0  0  0  0
 14 19  1  0  0  0  0
 14 20  1  0  0  0  0
 15 12  2  0  0  0  0
 15  3  1  0  0  0  0
 16 18  1  0  0  0  0
 17 14  2  0  0  0  0
 18 15  1  0  0  0  0
 20 12  1  0  0  0  0
 21  1  1  0  0  0  0
 22 21  1  0  0  0  0
 23 26  1  0  0  0  0
 24 22  2  0  0  0  0
 26 25  1  0  0  0  0
 26 21  2  0  0  0  0
 27 23  1  0  0  0  0
 28 23  2  0  0  0  0
 28 24  1  0  0  0  0
M  END
>  <MODEL>
2

>  <REMARK>
 VINA RESULT:      -8.2      2.643      4.191
  Name = 
  2 active torsions:
  status: ('A' for Active; 'I' for Inactive)
    1  A    between atoms: C_1  and  C_2
    2  A    between atoms: N_10  and  C_13
                            x       y       z     vdW  Elec       q    Type
                         _______ _______ _______ _____ _____    ______ ____

>  <TORSDO>
F 2

$$$$
=
 OpenBabel11052422513D

 28 31  0  0  1  0  0  0  0  0999 V2000
  161.1200  210.2390  153.5200 C   0  0  0  0  0  0  0  0  0  0  0  0
  160.2650  212.7970  157.2610 Cl  0  0  0  0  0  0  0  0  0  0  0  0
  159.1090  213.0720  152.0020 N   0  0  0  0  0  0  0  0  0  0  0  0
  159.6380  212.0460  154.5930 C   0  0  2  0  0  3  0  0  0  0  0  0
  159.8990  211.8790  152.1420 C   0  0  0  0  0  3  0  0  0  0  0  0
  161.4350  210.8820  155.8240 C   0  0  0  0  0  3  0  0  0  0  0  0
  159.2230  213.4780  154.3740 C   0  0  0  0  0  3  0  0  0  0  0  0
  160.5340  211.8700  155.7940 C   0  0  0  0  0  0  0  0  0  0  0  0
  158.9320  213.9220  153.1510 C   0  0  0  0  0  3  0  0  0  0  0  0
  161.6670  210.0360  154.6840 N   0  0  0  0  0  0  0  0  0  0  0  0
  160.2140  211.4020  153.3510 C   0  0  0  0  0  0  0  0  0  0  0  0
  159.6410  213.7820  149.7770 C   0  0  0  0  0  3  0  0  0  0  0  0
  156.6670  213.3260  149.2270 C   0  0  0  0  0  3  0  0  0  0  0  0
  158.5790  213.2310  147.6370 C   0  0  0  0  0  0  0  0  0  0  0  0
  158.6980  213.5070  150.6910 C   0  0  0  0  0  0  0  0  0  0  0  0
  156.1680  214.2240  151.6600 Cl  0  0  0  0  0  0  0  0  0  0  0  0
  157.3510  212.8650  148.0020 C   0  0  0  0  0  3  0  0  0  0  0  0
  157.2430  213.6620  150.3900 C   0  0  0  0  0  0  0  0  0  0  0  0
  159.1560  212.6770  146.3850 C   0  0  0  0  0  1  0  0  0  0  0  0
  159.3490  214.2610  148.3940 C   0  0  0  0  0  2  0  0  0  0  0  0
  161.4120  209.3040  152.4030 C   0  0  0  0  0  0  0  0  0  0  0  0
  161.9080  209.8270  151.2020 C   0  0  0  0  0  3  0  0  0  0  0  0
  161.4660  207.0950  151.3840 C   0  0  0  0  0  0  0  0  0  0  0  0
  162.1730  208.9820  150.1280 C   0  0  0  0  0  3  0  0  0  0  0  0
  160.6980  207.2880  153.7730 C   0  0  0  0  0  1  0  0  0  0  0  0
  161.1850  207.9100  152.4990 C   0  0  0  0  0  0  0  0  0  0  0  0
  161.2530  205.6190  151.4280 C   0  0  0  0  0  1  0  0  0  0  0  0
  161.9470  207.6490  150.2400 N   0  0  0  0  0  0  0  0  0  0  0  0
  1 10  2  0  0  0  0
  3  5  1  0  0  0  0
  3  9  1  0  0  0  0
  4  7  1  6  0  0  0
  4  8  1  0  0  0  0
  5 11  2  0  0  0  0
  8  6  2  0  0  0  0
  8  2  1  0  0  0  0
  9  7  2  0  0  0  0
 10  6  1  0  0  0  0
 11  1  1  0  0  0  0
 11  4  1  0  0  0  0
 12 15  2  0  0  0  0
 13 18  2  0  0  0  0
 14 17  2  0  0  0  0
 14 20  1  0  0  0  0
 15  3  1  0  0  0  0
 17 13  1  0  0  0  0
 18 15  1  0  0  0  0
 18 16  1  0  0  0  0
 19 14  1  0  0  0  0
 20 12  1  0  0  0  0
 21 26  1  0  0  0  0
 21  1  1  0  0  0  0
 22 21  2  0  0  0  0
 23 27  1  0  0  0  0
 23 26  2  0  0  0  0
 24 28  2  0  0  0  0
 24 22  1  0  0  0  0
 26 25  1  0  0  0  0
 28 23  1  0  0  0  0
M  END
>  <MODEL>
3

>  <REMARK>
 VINA RESULT:      -8.0      3.469      6.718
  Name = 
  2 active torsions:
  status: ('A' for Active; 'I' for Inactive)
    1  A    between atoms: C_1  and  C_2
    2  A    between atoms: N_10  and  C_13
                            x       y       z     vdW  Elec       q    Type
                         _______ _______ _______ _____ _____    ______ ____

>  <TORSDO>
F 2

$$$$
=
 OpenBabel11052422513D

 28 31  0  0  1  0  0  0  0  0999 V2000
  161.3110  207.5400  152.1850 C   0  0  0  0  0  0  0  0  0  0  0  0
  160.6530  207.4430  156.7490 Cl  0  0  0  0  0  0  0  0  0  0  0  0
  159.8900  211.0050  152.7750 N   0  0  0  0  0  0  0  0  0  0  0  0
  160.0810  208.5600  154.2010 C   0  0  2  0  0  3  0  0  0  0  0  0
  160.4640  209.8550  152.1320 C   0  0  0  0  0  3  0  0  0  0  0  0
  161.5820  206.6090  154.3950 C   0  0  0  0  0  3  0  0  0  0  0  0
  159.9200  209.8810  154.9060 C   0  0  0  0  0  3  0  0  0  0  0  0
  160.8590  207.5510  155.0090 C   0  0  0  0  0  0  0  0  0  0  0  0
  159.7840  211.0110  154.2110 C   0  0  0  0  0  3  0  0  0  0  0  0
  161.7430  206.5910  152.9660 N   0  0  0  0  0  0  0  0  0  0  0  0
  160.6200  208.7040  152.7940 C   0  0  0  0  0  0  0  0  0  0  0  0
  160.5020  212.5400  151.0410 C   0  0  0  0  0  3  0  0  0  0  0  0
  157.6740  213.6440  151.4140 C   0  0  0  0  0  3  0  0  0  0  0  0
  159.1160  213.7020  149.3860 C   0  0  0  0  0  0  0  0  0  0  0  0
  159.6400  212.2010  152.0110 C   0  0  0  0  0  0  0  0  0  0  0  0
  157.9280  213.1820  154.0020 Cl  0  0  0  0  0  0  0  0  0  0  0  0
  157.9120  213.7030  149.9570 C   0  0  0  0  0  3  0  0  0  0  0  0
  158.4450  213.0400  152.3290 C   0  0  0  0  0  0  0  0  0  0  0  0
  159.2120  213.7480  147.9040 C   0  0  0  0  0  1  0  0  0  0  0  0
  160.3690  213.7620  150.1950 C   0  0  0  0  0  2  0  0  0  0  0  0
  161.5150  207.4280  150.7180 C   0  0  0  0  0  0  0  0  0  0  0  0
  161.9560  208.5560  150.0150 C   0  0  0  0  0  3  0  0  0  0  0  0
  161.4540  206.2200  148.6070 C   0  0  0  0  0  0  0  0  0  0  0  0
  162.1380  208.4940  148.6360 C   0  0  0  0  0  3  0  0  0  0  0  0
  160.8280  204.9840  150.7090 C   0  0  0  0  0  1  0  0  0  0  0  0
  161.2580  206.2340  150.0030 C   0  0  0  0  0  0  0  0  0  0  0  0
  161.2060  204.9890  147.8020 C   0  0  0  0  0  1  0  0  0  0  0  0
  161.8850  207.3390  147.9690 N   0  0  0  0  0  0  0  0  0  0  0  0
  1 11  1  0  0  0  0
  1 10  2  0  0  0  0
  3  9  1  0  0  0  0
  4  7  1  1  0  0  0
  4  8  1  0  0  0  0
  5  3  1  0  0  0  0
  5 11  2  0  0  0  0
  6  8  2  0  0  0  0
  8  2  1  0  0  0  0
  9  7  2  0  0  0  0
 10  6  1  0  0  0  0
 11  4  1  0  0  0  0
 12 15  2  0  0  0  0
 13 18  2  0  0  0  0
 14 17  2  0  0  0  0
 14 20  1  0  0  0  0
 15 18  1  0  0  0  0
 15  3  1  0  0  0  0
 17 13  1  0  0  0  0
 18 16  1  0  0  0  0
 19 14  1  0  0  0  0
 20 12  1  0  0  0  0
 21  1  1  0  0  0  0
 22 21  1  0  0  0  0
 23 26  1  0  0  0  0
 24 22  2  0  0  0  0
 26 25  1  0  0  0  0
 26 21  2  0  0  0  0
 27 23  1  0  0  0  0
 28 23  2  0  0  0  0
 28 24  1  0  0  0  0
M  END
>  <MODEL>
4

>  <REMARK>
 VINA RESULT:      -7.8      2.173      6.473
  Name = 
  2 active torsions:
  status: ('A' for Active; 'I' for Inactive)
    1  A    between atoms: C_1  and  C_2
    2  A    between atoms: N_10  and  C_13
                            x       y       z     vdW  Elec       q    Type
                         _______ _______ _______ _____ _____    ______ ____

>  <TORSDO>
F 2

$$$$
=
 OpenBabel11052422513D

 28 31  0  0  1  0  0  0  0  0999 V2000
  161.1560  208.6930  153.0080 C   0  0  0  0  0  0  0  0  0  0  0  0
  161.5110  204.9140  150.3890 Cl  0  0  0  0  0  0  0  0  0  0  0  0
  161.9490  210.2340  149.6360 N   0  0  0  0  0  0  0  0  0  0  0  0
  162.0640  207.6650  150.8320 C   0  0  2  0  0  3  0  0  0  0  0  0
  161.6160  210.0870  151.0260 C   0  0  0  0  0  3  0  0  0  0  0  0
  160.8920  206.3380  152.5540 C   0  0  0  0  0  3  0  0  0  0  0  0
  161.9590  207.8430  149.3400 C   0  0  0  0  0  3  0  0  0  0  0  0
  161.4080  206.3970  151.3220 C   0  0  0  0  0  0  0  0  0  0  0  0
  161.9560  209.0610  148.8000 C   0  0  0  0  0  3  0  0  0  0  0  0
  160.8330  207.4960  153.4050 N   0  0  0  0  0  0  0  0  0  0  0  0
  161.6050  208.8820  151.6060 C   0  0  0  0  0  0  0  0  0  0  0  0
  163.0930  211.8280  148.2610 C   0  0  0  0  0  3  0  0  0  0  0  0
  160.5190  213.4610  148.5070 C   0  0  0  0  0  3  0  0  0  0  0  0
  162.2150  213.4880  146.6860 C   0  0  0  0  0  0  0  0  0  0  0  0
  162.0530  211.5520  149.0610 C   0  0  0  0  0  0  0  0  0  0  0  0
  160.3090  212.5920  150.9930 Cl  0  0  0  0  0  0  0  0  0  0  0  0
  160.9670  213.6720  147.1160 C   0  0  0  0  0  3  0  0  0  0  0  0
  161.0170  212.5780  149.3860 C   0  0  0  0  0  0  0  0  0  0  0  0
  162.5260  213.7210  145.2520 C   0  0  0  0  0  1  0  0  0  0  0  0
  163.3270  213.1560  147.6230 C   0  0  0  0  0  2  0  0  0  0  0  0
  161.0730  209.8270  153.9640 C   0  0  0  0  0  0  0  0  0  0  0  0
  162.1370  210.0380  154.8500 C   0  0  0  0  0  3  0  0  0  0  0  0
  159.9390  211.7230  154.9830 C   0  0  0  0  0  0  0  0  0  0  0  0
  162.0830  211.0780  155.7730 C   0  0  0  0  0  3  0  0  0  0  0  0
  158.8010  210.5360  153.0780 C   0  0  0  0  0  1  0  0  0  0  0  0
  159.9490  210.6860  154.0300 C   0  0  0  0  0  0  0  0  0  0  0  0
  158.7850  212.6630  155.0940 C   0  0  0  0  0  1  0  0  0  0  0  0
  160.9960  211.8890  155.8200 N   0  0  0  0  0  0  0  0  0  0  0  0
  1 10  2  0  0  0  0
  1 21  1  0  0  0  0
  2  8  1  0  0  0  0
  3  5  1  0  0  0  0
  4  7  1  6  0  0  0
  4  8  1  0  0  0  0
  4 11  1  0  0  0  0
  5 11  2  0  0  0  0
  6 10  1  0  0  0  0
  8  6  2  0  0  0  0
  9  7  2  0  0  0  0
  9  3  1  0  0  0  0
 11  1  1  0  0  0  0
 12 15  2  0  0  0  0
 13 18  2  0  0  0  0
 14 17  2  0  0  0  0
 14 20  1  0  0  0  0
 15 18  1  0  0  0  0
 15  3  1  0  0  0  0
 17 13  1  0  0  0  0
 18 16  1  0  0  0  0
 19 14  1  0  0  0  0
 20 12  1  0  0  0  0
 21 26  2  0  0  0  0
 21 22  1  0  0  0  0
 22 24  2  0  0  0  0
 23 27  1  0  0  0  0
 23 28  2  0  0  0  0
 24 28  1  0  0  0  0
 25 26  1  0  0  0  0
 26 23  1  0  0  0  0
M  END
>  <MODEL>
5

>  <REMARK>
 VINA RESULT:      -7.8      2.541      5.893
  Name = 
  2 active torsions:
  status: ('A' for Active; 'I' for Inactive)
    1  A    between atoms: C_1  and  C_2
    2  A    between atoms: N_10  and  C_13
                            x       y       z     vdW  Elec       q    Type
                         _______ _______ _______ _____ _____    ______ ____

>  <TORSDO>
F 2

$$$$
=
 OpenBabel11052422513D

 28 31  0  0  1  0  0  0  0  0999 V2000
  161.4060  206.7470  151.5530 C   0  0  0  0  0  0  0  0  0  0  0  0
  160.6610  207.5150  156.0390 Cl  0  0  0  0  0  0  0  0  0  0  0  0
  160.9520  210.5110  151.5660 N   0  0  0  0  0  0  0  0  0  0  0  0
  160.4560  208.3450  153.3300 C   0  0  2  0  0  3  0  0  0  0  0  0
  161.2090  209.1680  151.1250 C   0  0  0  0  0  3  0  0  0  0  0  0
  161.3770  206.1220  153.8830 C   0  0  0  0  0  3  0  0  0  0  0  0
  160.6410  209.7530  153.8320 C   0  0  0  0  0  3  0  0  0  0  0  0
  160.9210  207.3020  154.3150 C   0  0  0  0  0  0  0  0  0  0  0  0
  160.8240  210.7610  152.9790 C   0  0  0  0  0  3  0  0  0  0  0  0
  161.5550  205.8470  152.4830 N   0  0  0  0  0  0  0  0  0  0  0  0
  161.0400  208.1290  151.9500 C   0  0  0  0  0  0  0  0  0  0  0  0
  161.9560  211.5350  149.6470 C   0  0  0  0  0  3  0  0  0  0  0  0
  159.5650  213.4370  149.7650 C   0  0  0  0  0  3  0  0  0  0  0  0
  160.9400  212.7820  147.7980 C   0  0  0  0  0  0  0  0  0  0  0  0
  161.0440  211.6020  150.6280 C   0  0  0  0  0  0  0  0  0  0  0  0
  159.7060  213.3120  152.4000 Cl  0  0  0  0  0  0  0  0  0  0  0  0
  159.7930  213.2100  148.3240 C   0  0  0  0  0  3  0  0  0  0  0  0
  160.1420  212.7820  150.7830 C   0  0  0  0  0  0  0  0  0  0  0  0
  161.0290  212.5780  146.3290 C   0  0  0  0  0  1  0  0  0  0  0  0
  162.1670  212.6040  148.6290 C   0  0  0  0  0  2  0  0  0  0  0  0
  161.6010  206.3660  150.1300 C   0  0  0  0  0  0  0  0  0  0  0  0
  162.0770  207.3340  149.2360 C   0  0  0  0  0  3  0  0  0  0  0  0
  161.4900  204.8000  148.2710 C   0  0  0  0  0  0  0  0  0  0  0  0
  162.2510  207.0170  147.8910 C   0  0  0  0  0  3  0  0  0  0  0  0
  160.8310  203.9850  150.5590 C   0  0  0  0  0  1  0  0  0  0  0  0
  161.3000  205.0730  149.6400 C   0  0  0  0  0  0  0  0  0  0  0  0
  161.1970  203.4530  147.7000 C   0  0  0  0  0  1  0  0  0  0  0  0
  161.9560  205.7710  147.4420 N   0  0  0  0  0  0  0  0  0  0  0  0
  1 11  1  0  0  0  0
  1 10  2  0  0  0  0
  3  9  1  0  0  0  0
  4  7  1  1  0  0  0
  4  8  1  0  0  0  0
  5  3  1  0  0  0  0
  5 11  2  0  0  0  0
  6  8  2  0  0  0  0
  8  2  1  0  0  0  0
  9  7  2  0  0  0  0
 10  6  1  0  0  0  0
 11  4  1  0  0  0  0
 12 15  2  0  0  0  0
 13 18  2  0  0  0  0
 14 17  2  0  0  0  0
 14 20  1  0  0  0  0
 15 18  1  0  0  0  0
 15  3  1  0  0  0  0
 17 13  1  0  0  0  0
 18 16  1  0  0  0  0
 19 14  1  0  0  0  0
 20 12  1  0  0  0  0
 21  1  1  0  0  0  0
 22 21  2  0  0  0  0
 23 26  2  0  0  0  0
 24 22  1  0  0  0  0
 26 21  1  0  0  0  0
 26 25  1  0  0  0  0
 27 23  1  0  0  0  0
 28 24  2  0  0  0  0
 28 23  1  0  0  0  0
M  END
>  <MODEL>
6

>  <REMARK>
 VINA RESULT:      -7.7      1.925      6.288
  Name = 
  2 active torsions:
  status: ('A' for Active; 'I' for Inactive)
    1  A    between atoms: C_1  and  C_2
    2  A    between atoms: N_10  and  C_13
                            x       y       z     vdW  Elec       q    Type
                         _______ _______ _______ _____ _____    ______ ____

>  <TORSDO>
F 2

$$$$
=
 OpenBabel11052422513D

 28 31  0  0  1  0  0  0  0  0999 V2000
  161.6000  208.6700  151.6420 C   0  0  0  0  0  0  0  0  0  0  0  0
  162.3430  211.3050  147.9310 Cl  0  0  0  0  0  0  0  0  0  0  0  0
  161.6420  206.0490  148.9030 N   0  0  0  0  0  0  0  0  0  0  0  0
  161.4360  208.8720  149.0830 C   0  0  2  0  0  3  0  0  0  0  0  0
  161.5850  206.6720  150.1970 C   0  0  0  0  0  3  0  0  0  0  0  0
  162.1980  210.7240  150.5270 C   0  0  0  0  0  3  0  0  0  0  0  0
  161.9370  208.1890  147.8370 C   0  0  0  0  0  3  0  0  0  0  0  0
  162.0430  210.2370  149.2920 C   0  0  0  0  0  0  0  0  0  0  0  0
  161.9770  206.8590  147.7610 C   0  0  0  0  0  3  0  0  0  0  0  0
  161.9100  209.9340  151.6930 N   0  0  0  0  0  0  0  0  0  0  0  0
  161.5460  208.0030  150.3180 C   0  0  0  0  0  0  0  0  0  0  0  0
  161.2060  203.9010  149.8720 C   0  0  0  0  0  3  0  0  0  0  0  0
  161.3230  202.8930  146.9870 C   0  0  0  0  0  3  0  0  0  0  0  0
  160.1020  201.9270  148.9280 C   0  0  0  0  0  0  0  0  0  0  0  0
  161.5810  204.6120  148.7980 C   0  0  0  0  0  0  0  0  0  0  0  0
  163.2430  204.6510  146.5420 Cl  0  0  0  0  0  0  0  0  0  0  0  0
  160.2400  202.1100  147.6160 C   0  0  0  0  0  3  0  0  0  0  0  0
  161.9550  203.9530  147.5110 C   0  0  0  0  0  0  0  0  0  0  0  0
  158.9530  201.1280  149.4290 C   0  0  0  0  0  1  0  0  0  0  0  0
  161.1250  202.4120  149.9010 C   0  0  0  0  0  2  0  0  0  0  0  0
  161.3090  207.9380  152.9010 C   0  0  0  0  0  0  0  0  0  0  0  0
  161.4900  206.5490  152.9280 C   0  0  0  0  0  3  0  0  0  0  0  0
  160.5550  207.8140  155.2120 C   0  0  0  0  0  0  0  0  0  0  0  0
  161.2060  205.8280  154.0840 C   0  0  0  0  0  3  0  0  0  0  0  0
  160.6600  210.0750  154.1100 C   0  0  0  0  0  1  0  0  0  0  0  0
  160.8310  208.5860  154.0650 C   0  0  0  0  0  0  0  0  0  0  0  0
  160.0560  208.4440  156.4690 C   0  0  0  0  0  1  0  0  0  0  0  0
  160.7490  206.4690  155.1890 N   0  0  0  0  0  0  0  0  0  0  0  0
  1 10  2  0  0  0  0
  1 21  1  0  0  0  0
  2  8  1  0  0  0  0
  3  5  1  0  0  0  0
  4  7  1  6  0  0  0
  4  8  1  0  0  0  0
  4 11  1  0  0  0  0
  5 11  2  0  0  0  0
  6 10  1  0  0  0  0
  8  6  2  0  0  0  0
  9  7  2  0  0  0  0
  9  3  1  0  0  0  0
 11  1  1  0  0  0  0
 12 20  1  0  0  0  0
 13 18  2  0  0  0  0
 13 17  1  0  0  0  0
 14 19  1  0  0  0  0
 14 20  1  0  0  0  0
 15  3  1  0  0  0  0
 15 12  2  0  0  0  0
 16 18  1  0  0  0  0
 17 14  2  0  0  0  0
 18 15  1  0  0  0  0
 21 22  2  0  0  0  0
 21 26  1  0  0  0  0
 22 24  1  0  0  0  0
 23 27  1  0  0  0  0
 24 28  2  0  0  0  0
 26 25  1  0  0  0  0
 26 23  2  0  0  0  0
 28 23  1  0  0  0  0
M  END
>  <MODEL>
7

>  <REMARK>
 VINA RESULT:      -7.5      2.685      5.080
  Name = 
  2 active torsions:
  status: ('A' for Active; 'I' for Inactive)
    1  A    between atoms: C_1  and  C_2
    2  A    between atoms: N_10  and  C_13
                            x       y       z     vdW  Elec       q    Type
                         _______ _______ _______ _____ _____    ______ ____

>  <TORSDO>
F 2

$$$$
=
 OpenBabel11052422513D

 28 31  0  0  1  0  0  0  0  0999 V2000
  160.5130  211.0580  152.8060 C   0  0  0  0  0  0  0  0  0  0  0  0
  159.7410  210.0080  157.2300 Cl  0  0  0  0  0  0  0  0  0  0  0  0
  161.1640  207.3230  152.7770 N   0  0  0  0  0  0  0  0  0  0  0  0
  160.9010  209.3780  154.7140 C   0  0  2  0  0  3  0  0  0  0  0  0
  160.9900  208.6830  152.3450 C   0  0  0  0  0  3  0  0  0  0  0  0
  159.7130  211.5190  155.0350 C   0  0  0  0  0  3  0  0  0  0  0  0
  160.6430  207.9320  155.0490 C   0  0  0  0  0  3  0  0  0  0  0  0
  160.0670  210.3310  155.5350 C   0  0  0  0  0  0  0  0  0  0  0  0
  160.8210  206.9800  154.1330 C   0  0  0  0  0  3  0  0  0  0  0  0
  160.0040  211.8840  153.6750 N   0  0  0  0  0  0  0  0  0  0  0  0
  160.8060  209.6670  153.2320 C   0  0  0  0  0  0  0  0  0  0  0  0
  161.4850  205.0180  152.2090 C   0  0  0  0  0  3  0  0  0  0  0  0
  161.3360  206.0050  149.3180 C   0  0  0  0  0  3  0  0  0  0  0  0
  160.7800  203.7560  150.2280 C   0  0  0  0  0  0  0  0  0  0  0  0
  161.4610  206.2980  151.8080 C   0  0  0  0  0  0  0  0  0  0  0  0
  162.6190  208.1820  150.0860 Cl  0  0  0  0  0  0  0  0  0  0  0  0
  160.6260  204.7100  149.3100 C   0  0  0  0  0  3  0  0  0  0  0  0
  161.7540  206.6850  150.3950 C   0  0  0  0  0  0  0  0  0  0  0  0
  159.9890  202.5040  150.1100 C   0  0  0  0  0  1  0  0  0  0  0  0
  161.8000  203.8680  151.3120 C   0  0  0  0  0  2  0  0  0  0  0  0
  160.7880  211.5290  151.4240 C   0  0  0  0  0  0  0  0  0  0  0  0
  161.8560  210.9570  150.7200 C   0  0  0  0  0  3  0  0  0  0  0  0
  160.3730  212.9570  149.4990 C   0  0  0  0  0  0  0  0  0  0  0  0
  162.1560  211.3900  149.4320 C   0  0  0  0  0  3  0  0  0  0  0  0
  158.8500  213.1670  151.4910 C   0  0  0  0  0  1  0  0  0  0  0  0
  160.0300  212.5510  150.8030 C   0  0  0  0  0  0  0  0  0  0  0  0
  159.6060  214.0240  148.7910 C   0  0  0  0  0  1  0  0  0  0  0  0
  161.4170  212.3710  148.8550 N   0  0  0  0  0  0  0  0  0  0  0  0
  1 11  1  0  0  0  0
  1 10  2  0  0  0  0
  3  9  1  0  0  0  0
  4  7  1  6  0  0  0
  4  8  1  0  0  0  0
  5  3  1  0  0  0  0
  5 11  2  0  0  0  0
  6  8  2  0  0  0  0
  8  2  1  0  0  0  0
  9  7  2  0  0  0  0
 10  6  1  0  0  0  0
 11  4  1  0  0  0  0
 13 18  2  0  0  0  0
 14 20  1  0  0  0  0
 15 12  2  0  0  0  0
 15  3  1  0  0  0  0
 16 18  1  0  0  0  0
 17 13  1  0  0  0  0
 17 14  2  0  0  0  0
 18 15  1  0  0  0  0
 19 14  1  0  0  0  0
 20 12  1  0  0  0  0
 21  1  1  0  0  0  0
 22 21  2  0  0  0  0
 23 26  2  0  0  0  0
 24 22  1  0  0  0  0
 26 21  1  0  0  0  0
 26 25  1  0  0  0  0
 27 23  1  0  0  0  0
 28 24  2  0  0  0  0
 28 23  1  0  0  0  0
M  END
>  <MODEL>
8

>  <REMARK>
 VINA RESULT:      -7.2      1.899      2.739
  Name = 
  2 active torsions:
  status: ('A' for Active; 'I' for Inactive)
    1  A    between atoms: C_1  and  C_2
    2  A    between atoms: N_10  and  C_13
                            x       y       z     vdW  Elec       q    Type
                         _______ _______ _______ _____ _____    ______ ____

>  <TORSDO>
F 2

$$$$
=
 OpenBabel11052422513D

 28 31  0  0  1  0  0  0  0  0999 V2000
  161.6010  208.3850  150.7620 C   0  0  0  0  0  0  0  0  0  0  0  0
  162.4380  211.8480  147.8340 Cl  0  0  0  0  0  0  0  0  0  0  0  0
  160.0490  211.2930  152.6350 N   0  0  0  0  0  0  0  0  0  0  0  0
  161.8210  210.9290  150.4500 C   0  0  2  0  0  3  0  0  0  0  0  0
  160.4640  209.9650  152.2760 C   0  0  0  0  0  3  0  0  0  0  0  0
  162.2600  209.3140  148.6350 C   0  0  0  0  0  3  0  0  0  0  0  0
  161.0060  212.1860  150.6120 C   0  0  0  0  0  3  0  0  0  0  0  0
  162.0970  210.5870  149.0070 C   0  0  0  0  0  0  0  0  0  0  0  0
  160.2180  212.3530  151.6740 C   0  0  0  0  0  3  0  0  0  0  0  0
  162.0630  208.2260  149.5550 N   0  0  0  0  0  0  0  0  0  0  0  0
  161.2520  209.7540  151.2170 C   0  0  0  0  0  0  0  0  0  0  0  0
  158.1100  212.1470  153.7540 C   0  0  0  0  0  3  0  0  0  0  0  0
  159.0810  210.4620  156.1140 C   0  0  0  0  0  3  0  0  0  0  0  0
  156.7640  211.1810  155.5600 C   0  0  0  0  0  0  0  0  0  0  0  0
  159.2840  211.5030  153.8380 C   0  0  0  0  0  0  0  0  0  0  0  0
  161.5550  211.0780  155.4240 Cl  0  0  0  0  0  0  0  0  0  0  0  0
  157.6110  210.3280  156.1360 C   0  0  0  0  0  3  0  0  0  0  0  0
  159.8220  211.0190  155.1450 C   0  0  0  0  0  0  0  0  0  0  0  0
  155.3040  210.9170  155.6440 C   0  0  0  0  0  1  0  0  0  0  0  0
  157.2350  212.4460  154.9240 C   0  0  0  0  0  2  0  0  0  0  0  0
  161.4410  207.2010  151.6450 C   0  0  0  0  0  0  0  0  0  0  0  0
  161.5560  207.3770  153.0300 C   0  0  0  0  0  3  0  0  0  0  0  0
  161.0890  204.8270  152.0440 C   0  0  0  0  0  0  0  0  0  0  0  0
  161.4340  206.2860  153.8860 C   0  0  0  0  0  3  0  0  0  0  0  0
  161.0260  205.6610  149.6700 C   0  0  0  0  0  1  0  0  0  0  0  0
  161.2030  205.9010  151.1390 C   0  0  0  0  0  0  0  0  0  0  0  0
  160.8310  203.4360  151.5690 C   0  0  0  0  0  1  0  0  0  0  0  0
  161.2060  205.0470  153.3800 N   0  0  0  0  0  0  0  0  0  0  0  0
  1 11  1  0  0  0  0
  1 21  1  0  0  0  0
  2  8  1  0  0  0  0
  3 15  1  0  0  0  0
  4  7  1  6  0  0  0
  4 11  1  0  0  0  0
  5  3  1  0  0  0  0
  6  8  2  0  0  0  0
  6 10  1  0  0  0  0
  7  9  2  0  0  0  0
  8  4  1  0  0  0  0
  9  3  1  0  0  0  0
 10  1  2  0  0  0  0
 11  5  2  0  0  0  0
 12 15  2  0  0  0  0
 12 20  1  0  0  0  0
 13 17  1  0  0  0  0
 14 19  1  0  0  0  0
 14 17  2  0  0  0  0
 15 18  1  0  0  0  0
 18 16  1  0  0  0  0
 18 13  2  0  0  0  0
 20 14  1  0  0  0  0
 21 22  1  0  0  0  0
 22 24  2  0  0  0  0
 23 28  2  0  0  0  0
 25 26  1  0  0  0  0
 26 21  2  0  0  0  0
 26 23  1  0  0  0  0
 27 23  1  0  0  0  0
 28 24  1  0  0  0  0
M  END
>  <MODEL>
9

>  <REMARK>
 VINA RESULT:      -7.1      2.924      7.878
  Name = 
  2 active torsions:
  status: ('A' for Active; 'I' for Inactive)
    1  A    between atoms: C_1  and  C_2
    2  A    between atoms: N_10  and  C_13
                            x       y       z     vdW  Elec       q    Type
                         _______ _______ _______ _____ _____    ______ ____

>  <TORSDO>
F 2

$$$$
