=
 OpenBabel11062410073D

 43 49  0  0  1  0  0  0  0  0999 V2000
  161.5240  204.4640  147.4420 C   0  0  0  0  0  0  0  0  0  0  0  0
  161.2350  207.9290  151.2550 C   0  0  0  0  0  0  0  0  0  0  0  0
  162.0340  210.4140  150.0200 C   0  0  0  0  0  0  0  0  0  0  0  0
  161.1370  205.5690  149.5930 C   0  0  0  0  0  0  0  0  0  0  0  0
  162.0350  205.6540  146.9440 C   0  0  0  0  0  3  0  0  0  0  0  0
  161.6140  203.2100  146.6660 C   0  0  0  0  0  1  0  0  0  0  0  0
  161.6050  206.8230  149.0710 C   0  0  0  0  0  0  0  0  0  0  0  0
  161.0810  204.4520  148.7890 C   0  0  0  0  0  3  0  0  0  0  0  0
  162.0630  206.7930  147.7260 C   0  0  0  0  0  3  0  0  0  0  0  0
  161.9150  209.2440  149.2620 C   0  0  0  0  0  3  0  0  0  0  0  0
  161.5810  207.9910  149.8380 C   0  0  0  0  0  0  0  0  0  0  0  0
  160.9200  206.6670  151.7920 C   0  0  0  0  0  3  0  0  0  0  0  0
  161.2200  209.1660  151.9810 C   0  0  0  0  0  0  0  0  0  0  0  0
  161.7000  210.3650  151.4370 C   0  0  0  0  0  3  0  0  0  0  0  0
  160.8620  205.5070  150.9930 C   0  0  0  0  0  3  0  0  0  0  0  0
  162.2510  211.6960  149.1280 C   0  0  2  0  0  3  0  0  0  0  0  0
  161.1630  212.6050  149.1390 O   0  0  0  0  0  0  0  0  0  0  0  0
  162.7290  211.5330  147.6930 C   0  0  0  0  0  2  0  0  0  0  0  0
  161.0040  213.1340  147.8280 C   0  0  2  0  0  3  0  0  0  0  0  0
  162.2930  212.8680  147.0600 C   0  0  0  0  0  2  0  0  0  0  0  0
  160.1680  214.4530  147.8090 C   0  0  0  0  0  2  0  0  0  0  0  0
  158.8400  214.2520  147.2490 N   0  0  0  0  0  0  0  0  0  0  0  0
  158.5600  212.3800  145.8480 C   0  0  0  0  0  2  0  0  0  0  0  0
  158.0610  213.2470  147.9950 C   0  0  0  0  0  2  0  0  0  0  0  0
  158.7650  213.8510  145.8310 C   0  0  1  0  0  0  0  0  0  0  0  0
  157.6290  214.4380  145.2980 O   0  0  0  0  0  1  0  0  0  0  0  0
  157.7130  212.0990  147.0700 C   0  0  0  0  0  2  0  0  0  0  0  0
  159.9690  214.2850  144.9720 C   0  0  0  0  0  2  0  0  0  0  0  0
  160.3290  213.3150  143.9200 N   0  0  0  0  0  0  0  0  0  0  0  0
  160.9360  214.3860  141.7730 C   0  0  0  0  0  2  0  0  0  0  0  0
  162.2810  212.6170  142.5340 C   0  0  0  0  0  2  0  0  0  0  0  0
  161.7610  213.3050  141.3850 O   0  0  0  0  0  0  0  0  0  0  0  0
  161.8040  213.2630  143.8590 C   0  0  0  0  0  2  0  0  0  0  0  0
  159.7960  213.7870  142.6140 C   0  0  0  0  0  2  0  0  0  0  0  0
  160.9390  209.0290  153.4230 O   0  0  0  0  0  0  0  0  0  0  0  0
  159.1280  210.6950  156.4220 C   0  0  0  0  0  2  0  0  0  0  0  0
  158.2590  211.5400  155.5270 C   0  0  2  0  0  3  0  0  0  0  0  0
  159.2220  210.7160  153.4050 C   0  0  0  0  0  2  0  0  0  0  0  0
  159.8130  209.6210  155.5890 C   0  0  0  0  0  2  0  0  0  0  0  0
  160.3030  210.0190  154.2010 C   0  0  1  0  0  3  0  0  0  0  0  0
  158.7250  211.9520  154.1390 C   0  0  0  0  0  2  0  0  0  0  0  0
  156.5600  213.0870  155.2780 O   0  0  0  0  0  1  0  0  0  0  0  0
  157.4330  212.5440  156.2130 C   0  0  0  0  0  2  0  0  0  0  0  0
  1  8  1  0  0  0  0
  2 12  1  0  0  0  0
  2 13  1  0  0  0  0
  3 14  1  0  0  0  0
  4 15  1  0  0  0  0
  5  1  2  0  0  0  0
  5  9  1  0  0  0  0
  6  1  1  0  0  0  0
  7  4  1  0  0  0  0
  7 11  1  0  0  0  0
  8  4  2  0  0  0  0
  9  7  2  0  0  0  0
 10 11  1  0  0  0  0
 10  3  2  0  0  0  0
 11  2  2  0  0  0  0
 13 35  1  0  0  0  0
 14 13  2  0  0  0  0
 15 12  2  0  0  0  0
 16 17  1  0  0  0  0
 16  3  1  6  0  0  0
 18 16  1  0  0  0  0
 19 21  1  1  0  0  0
 19 17  1  0  0  0  0
 20 18  1  0  0  0  0
 20 19  1  0  0  0  0
 22 21  1  0  0  0  0
 22 24  1  0  0  0  0
 23 27  1  0  0  0  0
 25 26  1  6  0  0  0
 25 23  1  0  0  0  0
 25 22  1  0  0  0  0
 27 24  1  0  0  0  0
 28 25  1  0  0  0  0
 29 28  1  0  0  0  0
 30 34  1  0  0  0  0
 31 33  1  0  0  0  0
 32 30  1  0  0  0  0
 32 31  1  0  0  0  0
 33 29  1  0  0  0  0
 34 29  1  0  0  0  0
 37 43  1  1  0  0  0
 37 36  1  0  0  0  0
 38 41  1  0  0  0  0
 38 40  1  0  0  0  0
 39 36  1  0  0  0  0
 40 35  1  6  0  0  0
 40 39  1  0  0  0  0
 41 37  1  0  0  0  0
 42 43  1  0  0  0  0
M  END
>  <MODEL>
1

>  <REMARK>
 VINA RESULT:      -8.6      0.000      0.000
  Name = 
  8 active torsions:
  status: ('A' for Active; 'I' for Inactive)
    1  A    between atoms: O_1  and  C_34
    2  A    between atoms: O_1  and  C_35
    3  A    between atoms: C_2  and  C_13
    4  A    between atoms: C_3  and  N_4
    5  A    between atoms: C_3  and  C_12
    6  A    between atoms: N_11  and  C_14
    7  A    between atoms: C_14  and  C_22
    8  A    between atoms: C_19  and  C_37
                            x       y       z     vdW  Elec       q    Type
                         _______ _______ _______ _____ _____    ______ ____

>  <TORSDO>
F 8

$$$$
=
 OpenBabel11062410073D

 43 49  0  0  1  0  0  0  0  0999 V2000
  161.2500  204.5560  147.5980 C   0  0  0  0  0  0  0  0  0  0  0  0
  161.9100  208.5890  150.7490 C   0  0  0  0  0  0  0  0  0  0  0  0
  161.8710  210.8790  148.9910 C   0  0  0  0  0  0  0  0  0  0  0  0
  161.5280  205.9790  149.5720 C   0  0  0  0  0  0  0  0  0  0  0  0
  161.3830  205.6790  146.7930 C   0  0  0  0  0  3  0  0  0  0  0  0
  161.2170  203.1990  147.0170 C   0  0  0  0  0  1  0  0  0  0  0  0
  161.6040  207.1580  148.7530 C   0  0  0  0  0  0  0  0  0  0  0  0
  161.3320  204.7410  149.0020 C   0  0  0  0  0  3  0  0  0  0  0  0
  161.5420  206.9330  147.3500 C   0  0  0  0  0  3  0  0  0  0  0  0
  161.6400  209.5920  148.4940 C   0  0  0  0  0  3  0  0  0  0  0  0
  161.7070  208.4340  149.3120 C   0  0  0  0  0  0  0  0  0  0  0  0
  161.9820  207.4180  151.5250 C   0  0  0  0  0  3  0  0  0  0  0  0
  161.9970  209.9270  151.2600 C   0  0  0  0  0  0  0  0  0  0  0  0
  162.0840  211.0480  150.4230 C   0  0  0  0  0  3  0  0  0  0  0  0
  161.7910  206.1360  150.9670 C   0  0  0  0  0  3  0  0  0  0  0  0
  161.5770  212.0030  147.9250 C   0  0  2  0  0  3  0  0  0  0  0  0
  160.6310  211.6360  146.9350 O   0  0  0  0  0  0  0  0  0  0  0  0
  162.7410  212.7040  147.2420 C   0  0  0  0  0  2  0  0  0  0  0  0
  161.0500  212.1740  145.6880 C   0  0  2  0  0  3  0  0  0  0  0  0
  162.0730  213.2680  145.9750 C   0  0  0  0  0  2  0  0  0  0  0  0
  159.8940  212.2380  144.6400 C   0  0  0  0  0  2  0  0  0  0  0  0
  160.0120  213.3940  143.7650 N   0  0  0  0  0  0  0  0  0  0  0  0
  158.7650  213.3360  141.7680 C   0  0  0  0  0  2  0  0  0  0  0  0
  158.8840  214.3320  143.9140 C   0  0  0  0  0  2  0  0  0  0  0  0
  160.1290  213.1300  142.3180 C   0  0  1  0  0  0  0  0  0  0  0  0
  160.9580  214.1040  141.7870 O   0  0  0  0  0  1  0  0  0  0  0  0
  158.1570  214.4510  142.5910 C   0  0  0  0  0  2  0  0  0  0  0  0
  160.7240  211.7540  141.9580 C   0  0  0  0  0  2  0  0  0  0  0  0
  161.2550  211.6750  140.5840 N   0  0  0  0  0  0  0  0  0  0  0  0
  161.9980  209.4010  139.9530 C   0  0  0  0  0  2  0  0  0  0  0  0
  160.7470  210.6190  138.3830 C   0  0  0  0  0  2  0  0  0  0  0  0
  161.7700  209.6300  138.5770 O   0  0  0  0  0  0  0  0  0  0  0  0
  160.1780  211.1340  139.7300 C   0  0  0  0  0  2  0  0  0  0  0  0
  162.4190  210.7500  140.5590 C   0  0  0  0  0  2  0  0  0  0  0  0
  162.2800  210.0170  152.7040 O   0  0  0  0  0  0  0  0  0  0  0  0
  159.6670  210.0030  155.5730 C   0  0  0  0  0  2  0  0  0  0  0  0
  158.8920  211.1490  154.9750 C   0  0  2  0  0  3  0  0  0  0  0  0
  160.3820  211.4620  153.0280 C   0  0  0  0  0  2  0  0  0  0  0  0
  160.6550  209.4740  154.5430 C   0  0  0  0  0  2  0  0  0  0  0  0
  161.3610  210.4990  153.6610 C   0  0  1  0  0  3  0  0  0  0  0  0
  159.5730  212.1850  154.0930 C   0  0  0  0  0  2  0  0  0  0  0  0
  158.2090  211.5870  157.1400 O   0  0  0  0  0  1  0  0  0  0  0  0
  157.8080  211.6820  155.8120 C   0  0  0  0  0  2  0  0  0  0  0  0
  1  8  1  0  0  0  0
  2 13  1  0  0  0  0
  2 12  1  0  0  0  0
  3 14  1  0  0  0  0
  4 15  1  0  0  0  0
  5  9  1  0  0  0  0
  5  1  2  0  0  0  0
  6  1  1  0  0  0  0
  7 11  1  0  0  0  0
  7  4  1  0  0  0  0
  8  4  2  0  0  0  0
  9  7  2  0  0  0  0
 10  3  2  0  0  0  0
 10 11  1  0  0  0  0
 11  2  2  0  0  0  0
 13 35  1  0  0  0  0
 14 13  2  0  0  0  0
 15 12  2  0  0  0  0
 16  3  1  6  0  0  0
 17 16  1  0  0  0  0
 18 16  1  0  0  0  0
 19 21  1  1  0  0  0
 19 20  1  0  0  0  0
 19 17  1  0  0  0  0
 20 18  1  0  0  0  0
 22 24  1  0  0  0  0
 22 21  1  0  0  0  0
 23 25  1  0  0  0  0
 23 27  1  0  0  0  0
 25 26  1  6  0  0  0
 25 22  1  0  0  0  0
 27 24  1  0  0  0  0
 28 25  1  0  0  0  0
 29 28  1  0  0  0  0
 30 34  1  0  0  0  0
 31 32  1  0  0  0  0
 31 33  1  0  0  0  0
 32 30  1  0  0  0  0
 33 29  1  0  0  0  0
 34 29  1  0  0  0  0
 37 36  1  0  0  0  0
 37 43  1  1  0  0  0
 38 40  1  0  0  0  0
 38 41  1  0  0  0  0
 39 36  1  0  0  0  0
 40 35  1  6  0  0  0
 40 39  1  0  0  0  0
 41 37  1  0  0  0  0
 43 42  1  0  0  0  0
M  END
>  <MODEL>
2

>  <REMARK>
 VINA RESULT:      -8.6      1.896      2.766
  Name = 
  8 active torsions:
  status: ('A' for Active; 'I' for Inactive)
    1  A    between atoms: O_1  and  C_34
    2  A    between atoms: O_1  and  C_35
    3  A    between atoms: C_2  and  C_13
    4  A    between atoms: C_3  and  N_4
    5  A    between atoms: C_3  and  C_12
    6  A    between atoms: N_11  and  C_14
    7  A    between atoms: C_14  and  C_22
    8  A    between atoms: C_19  and  C_37
                            x       y       z     vdW  Elec       q    Type
                         _______ _______ _______ _____ _____    ______ ____

>  <TORSDO>
F 8

$$$$
=
 OpenBabel11062410073D

 43 49  0  0  1  0  0  0  0  0999 V2000
  156.0220  212.4800  155.9750 C   0  0  0  0  0  0  0  0  0  0  0  0
  159.2860  212.5870  151.9790 C   0  0  0  0  0  0  0  0  0  0  0  0
  160.8910  210.2090  152.3080 C   0  0  0  0  0  0  0  0  0  0  0  0
  157.1960  213.0800  153.9100 C   0  0  0  0  0  0  0  0  0  0  0  0
  156.9160  211.4340  156.1570 C   0  0  0  0  0  3  0  0  0  0  0  0
  155.0520  212.8470  157.0260 C   0  0  0  0  0  1  0  0  0  0  0  0
  158.0890  211.9630  154.0530 C   0  0  0  0  0  0  0  0  0  0  0  0
  156.1930  213.2980  154.8280 C   0  0  0  0  0  3  0  0  0  0  0  0
  157.9040  211.1790  155.2250 C   0  0  0  0  0  3  0  0  0  0  0  0
  159.8290  210.4810  153.1760 C   0  0  0  0  0  3  0  0  0  0  0  0
  159.0510  211.6640  153.0860 C   0  0  0  0  0  0  0  0  0  0  0  0
  158.5040  213.7560  151.9300 C   0  0  0  0  0  3  0  0  0  0  0  0
  160.2820  212.2160  151.0150 C   0  0  0  0  0  0  0  0  0  0  0  0
  161.1430  211.1260  151.2040 C   0  0  0  0  0  3  0  0  0  0  0  0
  157.4750  214.0080  152.8620 C   0  0  0  0  0  3  0  0  0  0  0  0
  161.4860  208.7630  152.5100 C   0  0  2  0  0  3  0  0  0  0  0  0
  161.4720  207.9580  151.3420 O   0  0  0  0  0  0  0  0  0  0  0  0
  161.0120  207.9200  153.6830 C   0  0  0  0  0  2  0  0  0  0  0  0
  161.1500  206.6250  151.7180 C   0  0  2  0  0  3  0  0  0  0  0  0
  161.3780  206.4970  153.2200 C   0  0  0  0  0  2  0  0  0  0  0  0
  161.5480  205.5800  150.6270 C   0  0  0  0  0  2  0  0  0  0  0  0
  160.6640  204.4250  150.6280 N   0  0  0  0  0  0  0  0  0  0  0  0
  161.6920  202.3090  150.5150 C   0  0  0  0  0  2  0  0  0  0  0  0
  160.5520  203.8010  151.9590 C   0  0  0  0  0  2  0  0  0  0  0  0
  160.9910  203.3300  149.6950 C   0  0  1  0  0  0  0  0  0  0  0  0
  159.7930  202.7850  149.2620 O   0  0  0  0  0  1  0  0  0  0  0  0
  161.0490  202.3720  151.8830 C   0  0  0  0  0  2  0  0  0  0  0  0
  161.7920  203.7600  148.4490 C   0  0  0  0  0  2  0  0  0  0  0  0
  160.9490  204.1380  147.3000 N   0  0  0  0  0  0  0  0  0  0  0  0
  161.8660  206.0300  145.9960 C   0  0  0  0  0  2  0  0  0  0  0  0
  161.0070  204.1960  144.8070 C   0  0  0  0  0  2  0  0  0  0  0  0
  161.2240  205.6150  144.8060 O   0  0  0  0  0  0  0  0  0  0  0  0
  161.5500  203.5290  146.0960 C   0  0  0  0  0  2  0  0  0  0  0  0
  160.9470  205.6190  147.1570 C   0  0  0  0  0  2  0  0  0  0  0  0
  160.5280  213.2230  149.9660 O   0  0  0  0  0  0  0  0  0  0  0  0
  162.6560  213.1330  146.7230 C   0  0  0  0  0  2  0  0  0  0  0  0
  161.4400  213.1580  145.8340 C   0  0  2  0  0  3  0  0  0  0  0  0
  159.7910  213.1830  147.6760 C   0  0  0  0  0  2  0  0  0  0  0  0
  162.2430  213.4770  148.1470 C   0  0  0  0  0  2  0  0  0  0  0  0
  160.9180  212.9110  148.6470 C   0  0  1  0  0  3  0  0  0  0  0  0
  160.1070  212.5980  146.3080 C   0  0  0  0  0  2  0  0  0  0  0  0
  163.0770  213.0370  144.2070 O   0  0  0  0  0  1  0  0  0  0  0  0
  161.7020  212.9690  144.4000 C   0  0  0  0  0  2  0  0  0  0  0  0
  1  5  1  0  0  0  0
  1  6  1  0  0  0  0
  2 11  1  0  0  0  0
  3 10  1  0  0  0  0
  4  7  2  0  0  0  0
  4  8  1  0  0  0  0
  7  9  1  0  0  0  0
  8  1  2  0  0  0  0
  9  5  2  0  0  0  0
 11 10  2  0  0  0  0
 11  7  1  0  0  0  0
 12  2  1  0  0  0  0
 12 15  2  0  0  0  0
 13 14  1  0  0  0  0
 13  2  2  0  0  0  0
 14  3  2  0  0  0  0
 15  4  1  0  0  0  0
 16  3  1  6  0  0  0
 16 18  1  0  0  0  0
 17 19  1  0  0  0  0
 17 16  1  0  0  0  0
 19 21  1  6  0  0  0
 19 20  1  0  0  0  0
 20 18  1  0  0  0  0
 21 22  1  0  0  0  0
 22 24  1  0  0  0  0
 23 27  1  0  0  0  0
 25 26  1  6  0  0  0
 25 23  1  0  0  0  0
 25 22  1  0  0  0  0
 27 24  1  0  0  0  0
 28 25  1  0  0  0  0
 29 28  1  0  0  0  0
 30 34  1  0  0  0  0
 31 33  1  0  0  0  0
 32 31  1  0  0  0  0
 32 30  1  0  0  0  0
 33 29  1  0  0  0  0
 34 29  1  0  0  0  0
 35 13  1  0  0  0  0
 36 39  1  0  0  0  0
 37 43  1  6  0  0  0
 37 41  1  0  0  0  0
 37 36  1  0  0  0  0
 38 40  1  0  0  0  0
 39 40  1  0  0  0  0
 40 35  1  1  0  0  0
 41 38  1  0  0  0  0
 42 43  1  0  0  0  0
M  END
>  <MODEL>
3

>  <REMARK>
 VINA RESULT:      -8.3      3.231      9.294
  Name = 
  8 active torsions:
  status: ('A' for Active; 'I' for Inactive)
    1  A    between atoms: O_1  and  C_34
    2  A    between atoms: O_1  and  C_35
    3  A    between atoms: C_2  and  C_13
    4  A    between atoms: C_3  and  N_4
    5  A    between atoms: C_3  and  C_12
    6  A    between atoms: N_11  and  C_14
    7  A    between atoms: C_14  and  C_22
    8  A    between atoms: C_19  and  C_37
                            x       y       z     vdW  Elec       q    Type
                         _______ _______ _______ _____ _____    ______ ____

>  <TORSDO>
F 8

$$$$
=
 OpenBabel11062410073D

 43 49  0  0  1  0  0  0  0  0999 V2000
  161.0310  201.8750  147.0660 C   0  0  0  0  0  0  0  0  0  0  0  0
  161.8090  206.7770  148.4770 C   0  0  0  0  0  0  0  0  0  0  0  0
  160.9530  206.8690  151.2330 C   0  0  0  0  0  0  0  0  0  0  0  0
  161.6690  204.2390  147.1060 C   0  0  0  0  0  0  0  0  0  0  0  0
  160.5040  202.0150  148.3420 C   0  0  0  0  0  3  0  0  0  0  0  0
  160.8270  200.6370  146.2870 C   0  0  0  0  0  1  0  0  0  0  0  0
  161.1850  204.3830  148.4510 C   0  0  0  0  0  0  0  0  0  0  0  0
  161.6110  203.0220  146.4650 C   0  0  0  0  0  3  0  0  0  0  0  0
  160.5880  203.2200  149.0130 C   0  0  0  0  0  3  0  0  0  0  0  0
  160.9610  205.6620  150.5270 C   0  0  0  0  0  3  0  0  0  0  0  0
  161.3190  205.5810  149.1560 C   0  0  0  0  0  0  0  0  0  0  0  0
  162.1430  206.6610  147.1150 C   0  0  0  0  0  3  0  0  0  0  0  0
  161.9330  207.9730  149.2610 C   0  0  0  0  0  0  0  0  0  0  0  0
  161.4310  208.0720  150.5660 C   0  0  0  0  0  3  0  0  0  0  0  0
  162.0860  205.4280  146.4330 C   0  0  0  0  0  3  0  0  0  0  0  0
  160.6800  206.6690  152.7730 C   0  0  2  0  0  3  0  0  0  0  0  0
  160.5390  207.8770  153.5020 O   0  0  0  0  0  0  0  0  0  0  0  0
  161.5680  205.7260  153.5710 C   0  0  0  0  0  2  0  0  0  0  0  0
  161.1640  207.7150  154.7690 C   0  0  2  0  0  3  0  0  0  0  0  0
  161.3430  206.2210  155.0120 C   0  0  0  0  0  2  0  0  0  0  0  0
  160.6890  208.7740  155.8150 C   0  0  0  0  0  2  0  0  0  0  0  0
  161.2230  210.0980  155.5340 N   0  0  0  0  0  0  0  0  0  0  0  0
  161.0510  211.6920  157.2590 C   0  0  0  0  0  2  0  0  0  0  0  0
  162.5710  210.2940  156.0990 C   0  0  0  0  0  2  0  0  0  0  0  0
  160.4240  211.2520  155.9860 C   0  0  1  0  0  0  0  0  0  0  0  0
  160.5930  212.2620  155.0530 O   0  0  0  0  0  1  0  0  0  0  0  0
  162.5330  211.4350  157.0950 C   0  0  0  0  0  2  0  0  0  0  0  0
  158.9120  210.9790  156.1200 C   0  0  0  0  0  2  0  0  0  0  0  0
  158.0620  212.0890  155.6480 N   0  0  0  0  0  0  0  0  0  0  0  0
  155.6420  211.5960  155.7920 C   0  0  0  0  0  2  0  0  0  0  0  0
  156.3720  213.7130  156.4980 C   0  0  0  0  0  2  0  0  0  0  0  0
  155.2970  212.9620  155.9120 O   0  0  0  0  0  0  0  0  0  0  0  0
  157.5850  212.8140  156.8430 C   0  0  0  0  0  2  0  0  0  0  0  0
  156.8980  211.5360  154.9070 C   0  0  0  0  0  2  0  0  0  0  0  0
  162.3580  209.1640  148.5030 O   0  0  0  0  0  0  0  0  0  0  0  0
  161.2050  212.1390  150.7110 C   0  0  0  0  0  2  0  0  0  0  0  0
  160.7070  212.9250  149.5260 C   0  0  2  0  0  3  0  0  0  0  0  0
  161.3510  211.2450  147.8310 C   0  0  0  0  0  2  0  0  0  0  0  0
  161.4780  210.7040  150.2830 C   0  0  0  0  0  2  0  0  0  0  0  0
  162.1000  210.4910  148.9070 C   0  0  1  0  0  3  0  0  0  0  0  0
  161.3120  212.7330  148.1430 C   0  0  0  0  0  2  0  0  0  0  0  0
  159.7410  214.3190  151.0970 O   0  0  0  0  0  1  0  0  0  0  0  0
  160.2790  214.3010  149.8150 C   0  0  0  0  0  2  0  0  0  0  0  0
  1  5  1  0  0  0  0
  2 11  1  0  0  0  0
  2 13  1  0  0  0  0
  4  7  1  0  0  0  0
  5  9  2  0  0  0  0
  6  1  1  0  0  0  0
  7  9  1  0  0  0  0
  7 11  2  0  0  0  0
  8  1  2  0  0  0  0
  8  4  1  0  0  0  0
 10  3  2  0  0  0  0
 11 10  1  0  0  0  0
 12  2  2  0  0  0  0
 13 14  2  0  0  0  0
 14  3  1  0  0  0  0
 15  4  2  0  0  0  0
 15 12  1  0  0  0  0
 16  3  1  6  0  0  0
 16 17  1  0  0  0  0
 16 18  1  0  0  0  0
 17 19  1  0  0  0  0
 18 20  1  0  0  0  0
 19 20  1  0  0  0  0
 19 21  1  1  0  0  0
 22 21  1  0  0  0  0
 22 25  1  0  0  0  0
 22 24  1  0  0  0  0
 24 27  1  0  0  0  0
 25 26  1  6  0  0  0
 25 28  1  0  0  0  0
 25 23  1  0  0  0  0
 27 23  1  0  0  0  0
 29 28  1  0  0  0  0
 29 33  1  0  0  0  0
 30 32  1  0  0  0  0
 31 33  1  0  0  0  0
 32 31  1  0  0  0  0
 34 29  1  0  0  0  0
 34 30  1  0  0  0  0
 35 13  1  0  0  0  0
 37 43  1  1  0  0  0
 37 36  1  0  0  0  0
 38 41  1  0  0  0  0
 38 40  1  0  0  0  0
 39 36  1  0  0  0  0
 40 35  1  6  0  0  0
 40 39  1  0  0  0  0
 41 37  1  0  0  0  0
 43 42  1  0  0  0  0
M  END
>  <MODEL>
4

>  <REMARK>
 VINA RESULT:      -8.2      3.639      8.301
  Name = 
  8 active torsions:
  status: ('A' for Active; 'I' for Inactive)
    1  A    between atoms: O_1  and  C_34
    2  A    between atoms: O_1  and  C_35
    3  A    between atoms: C_2  and  C_13
    4  A    between atoms: C_3  and  N_4
    5  A    between atoms: C_3  and  C_12
    6  A    between atoms: N_11  and  C_14
    7  A    between atoms: C_14  and  C_22
    8  A    between atoms: C_19  and  C_37
                            x       y       z     vdW  Elec       q    Type
                         _______ _______ _______ _____ _____    ______ ____

>  <TORSDO>
F 8

$$$$
=
 OpenBabel11062410073D

 43 49  0  0  1  0  0  0  0  0999 V2000
  161.4600  204.4630  145.6180 C   0  0  0  0  0  0  0  0  0  0  0  0
  161.5080  206.9120  150.1600 C   0  0  0  0  0  0  0  0  0  0  0  0
  162.2320  209.6280  149.4970 C   0  0  0  0  0  0  0  0  0  0  0  0
  161.2560  205.0170  147.9950 C   0  0  0  0  0  0  0  0  0  0  0  0
  161.9410  205.7440  145.3810 C   0  0  0  0  0  3  0  0  0  0  0  0
  161.4760  203.4330  144.5600 C   0  0  0  0  0  1  0  0  0  0  0  0
  161.6930  206.3650  147.7530 C   0  0  0  0  0  0  0  0  0  0  0  0
  161.1250  204.1250  146.9540 C   0  0  0  0  0  3  0  0  0  0  0  0
  162.0420  206.6620  146.4080 C   0  0  0  0  0  3  0  0  0  0  0  0
  162.0410  208.6730  148.4930 C   0  0  0  0  0  3  0  0  0  0  0  0
  161.7420  207.3150  148.7760 C   0  0  0  0  0  0  0  0  0  0  0  0
  161.2250  205.5560  150.4030 C   0  0  0  0  0  3  0  0  0  0  0  0
  161.5630  207.9390  151.1610 C   0  0  0  0  0  0  0  0  0  0  0  0
  162.0110  209.2380  150.8830 C   0  0  0  0  0  3  0  0  0  0  0  0
  161.0920  204.6190  149.3570 C   0  0  0  0  0  3  0  0  0  0  0  0
  162.3900  211.0880  148.9230 C   0  0  2  0  0  3  0  0  0  0  0  0
  161.2090  211.6180  148.3440 O   0  0  0  0  0  0  0  0  0  0  0  0
  163.5610  211.4060  148.0080 C   0  0  0  0  0  2  0  0  0  0  0  0
  161.5700  212.3670  147.1900 C   0  0  2  0  0  3  0  0  0  0  0  0
  163.0620  212.6680  147.2800 C   0  0  0  0  0  2  0  0  0  0  0  0
  160.4500  213.3590  146.7410 C   0  0  0  0  0  2  0  0  0  0  0  0
  159.1690  212.6920  146.5640 N   0  0  0  0  0  0  0  0  0  0  0  0
  157.3130  214.0750  146.1270 C   0  0  0  0  0  2  0  0  0  0  0  0
  158.8110  212.5270  145.1430 C   0  0  0  0  0  2  0  0  0  0  0  0
  157.9950  213.3150  147.2060 C   0  0  1  0  0  0  0  0  0  0  0  0
  157.1540  212.2910  147.6080 O   0  0  0  0  0  1  0  0  0  0  0  0
  157.5200  213.2680  144.8650 C   0  0  0  0  0  2  0  0  0  0  0  0
  158.3170  214.1770  148.4430 C   0  0  0  0  0  2  0  0  0  0  0  0
  158.1030  213.4820  149.7260 N   0  0  0  0  0  0  0  0  0  0  0  0
  159.5410  214.3340  151.5500 C   0  0  0  0  0  2  0  0  0  0  0  0
  157.2810  213.9210  152.0390 C   0  0  0  0  0  2  0  0  0  0  0  0
  158.6220  213.9460  152.5530 O   0  0  0  0  0  0  0  0  0  0  0  0
  157.2260  214.3390  150.5480 C   0  0  0  0  0  2  0  0  0  0  0  0
  159.4100  213.3070  150.4140 C   0  0  0  0  0  2  0  0  0  0  0  0
  161.3970  207.4580  152.5450 O   0  0  0  0  0  0  0  0  0  0  0  0
  160.8000  210.5980  154.7440 C   0  0  0  0  0  2  0  0  0  0  0  0
  160.8920  209.8120  156.0260 C   0  0  2  0  0  3  0  0  0  0  0  0
  161.2570  207.6210  154.9430 C   0  0  0  0  0  2  0  0  0  0  0  0
  161.3030  209.7410  153.5920 C   0  0  0  0  0  2  0  0  0  0  0  0
  160.9360  208.2610  153.6100 C   0  0  1  0  0  3  0  0  0  0  0  0
  160.5310  208.3350  156.0720 C   0  0  0  0  0  2  0  0  0  0  0  0
  160.8990  211.8890  157.0420 O   0  0  0  0  0  1  0  0  0  0  0  0
  160.5590  210.5570  157.2490 C   0  0  0  0  0  2  0  0  0  0  0  0
  1  8  1  0  0  0  0
  2 12  1  0  0  0  0
  2 13  1  0  0  0  0
  3 14  1  0  0  0  0
  4 15  1  0  0  0  0
  5  1  2  0  0  0  0
  5  9  1  0  0  0  0
  6  1  1  0  0  0  0
  7  4  1  0  0  0  0
  7 11  1  0  0  0  0
  8  4  2  0  0  0  0
  9  7  2  0  0  0  0
 10 11  1  0  0  0  0
 10  3  2  0  0  0  0
 11  2  2  0  0  0  0
 13 35  1  0  0  0  0
 14 13  2  0  0  0  0
 15 12  2  0  0  0  0
 16  3  1  6  0  0  0
 17 16  1  0  0  0  0
 18 16  1  0  0  0  0
 19 21  1  1  0  0  0
 19 20  1  0  0  0  0
 19 17  1  0  0  0  0
 20 18  1  0  0  0  0
 22 21  1  0  0  0  0
 22 25  1  0  0  0  0
 23 25  1  0  0  0  0
 24 22  1  0  0  0  0
 25 26  1  1  0  0  0
 25 28  1  0  0  0  0
 27 24  1  0  0  0  0
 27 23  1  0  0  0  0
 28 29  1  0  0  0  0
 29 34  1  0  0  0  0
 29 33  1  0  0  0  0
 30 32  1  0  0  0  0
 31 32  1  0  0  0  0
 33 31  1  0  0  0  0
 34 30  1  0  0  0  0
 36 37  1  0  0  0  0
 37 41  1  0  0  0  0
 37 43  1  1  0  0  0
 38 41  1  0  0  0  0
 39 40  1  0  0  0  0
 39 36  1  0  0  0  0
 40 35  1  6  0  0  0
 40 38  1  0  0  0  0
 42 43  1  0  0  0  0
M  END
>  <MODEL>
5

>  <REMARK>
 VINA RESULT:      -7.7      2.238      4.077
  Name = 
  8 active torsions:
  status: ('A' for Active; 'I' for Inactive)
    1  A    between atoms: O_1  and  C_34
    2  A    between atoms: O_1  and  C_35
    3  A    between atoms: C_2  and  C_13
    4  A    between atoms: C_3  and  N_4
    5  A    between atoms: C_3  and  C_12
    6  A    between atoms: N_11  and  C_14
    7  A    between atoms: C_14  and  C_22
    8  A    between atoms: C_19  and  C_37
                            x       y       z     vdW  Elec       q    Type
                         _______ _______ _______ _____ _____    ______ ____

>  <TORSDO>
F 8

$$$$
=
 OpenBabel11062410073D

 43 49  0  0  1  0  0  0  0  0999 V2000
  161.0950  203.7340  148.6890 C   0  0  0  0  0  0  0  0  0  0  0  0
  162.0910  208.7240  149.5490 C   0  0  0  0  0  0  0  0  0  0  0  0
  160.9270  209.2450  152.1400 C   0  0  0  0  0  0  0  0  0  0  0  0
  161.9110  206.0360  148.5070 C   0  0  0  0  0  0  0  0  0  0  0  0
  160.4340  204.0810  149.8590 C   0  0  0  0  0  3  0  0  0  0  0  0
  160.8850  202.4170  148.0550 C   0  0  0  0  0  1  0  0  0  0  0  0
  161.2840  206.3930  149.7500 C   0  0  0  0  0  0  0  0  0  0  0  0
  161.8320  204.7490  148.0260 C   0  0  0  0  0  3  0  0  0  0  0  0
  160.5350  205.3590  150.3750 C   0  0  0  0  0  3  0  0  0  0  0  0
  160.9210  207.9550  151.6000 C   0  0  0  0  0  3  0  0  0  0  0  0
  161.4310  207.6650  150.3070 C   0  0  0  0  0  0  0  0  0  0  0  0
  162.5740  208.4010  148.2670 C   0  0  0  0  0  3  0  0  0  0  0  0
  162.2170  210.0050  150.1830 C   0  0  0  0  0  0  0  0  0  0  0  0
  161.5750  210.3130  151.3900 C   0  0  0  0  0  3  0  0  0  0  0  0
  162.4990  207.0920  147.7470 C   0  0  0  0  0  3  0  0  0  0  0  0
  160.4580  209.2760  153.6450 C   0  0  2  0  0  3  0  0  0  0  0  0
  159.2450  209.9760  153.8640 O   0  0  0  0  0  0  0  0  0  0  0  0
  161.4500  209.6790  154.7250 C   0  0  0  0  0  2  0  0  0  0  0  0
  159.3530  210.6930  155.0870 C   0  0  2  0  0  3  0  0  0  0  0  0
  160.5140  210.0970  155.8750 C   0  0  0  0  0  2  0  0  0  0  0  0
  157.9640  211.1170  155.6620 C   0  0  0  0  0  2  0  0  0  0  0  0
  158.0390  212.3600  156.4140 N   0  0  0  0  0  0  0  0  0  0  0  0
  156.8610  214.1990  155.5330 C   0  0  0  0  0  2  0  0  0  0  0  0
  156.8520  212.5790  157.2610 C   0  0  0  0  0  2  0  0  0  0  0  0
  158.2170  213.6020  155.6390 C   0  0  1  0  0  0  0  0  0  0  0  0
  159.0030  214.4530  156.3990 O   0  0  0  0  0  1  0  0  0  0  0  0
  156.1610  213.8560  156.8290 C   0  0  0  0  0  2  0  0  0  0  0  0
  158.9060  213.4180  154.2720 C   0  0  0  0  0  2  0  0  0  0  0  0
  158.2930  214.2050  153.1850 N   0  0  0  0  0  0  0  0  0  0  0  0
  159.0520  213.5170  150.9330 C   0  0  0  0  0  2  0  0  0  0  0  0
  156.7600  213.9290  151.2380 C   0  0  0  0  0  2  0  0  0  0  0  0
  157.8610  213.9650  150.3160 O   0  0  0  0  0  0  0  0  0  0  0  0
  157.1880  213.3980  152.6300 C   0  0  0  0  0  2  0  0  0  0  0  0
  159.3070  214.4530  152.1250 C   0  0  0  0  0  2  0  0  0  0  0  0
  162.8230  211.0520  149.3400 O   0  0  0  0  0  0  0  0  0  0  0  0
  159.9860  212.5490  147.1580 C   0  0  0  0  0  2  0  0  0  0  0  0
  160.9390  213.4200  146.3810 C   0  0  2  0  0  3  0  0  0  0  0  0
  162.9680  212.7100  147.6010 C   0  0  0  0  0  2  0  0  0  0  0  0
  160.7790  211.5250  147.9570 C   0  0  0  0  0  2  0  0  0  0  0  0
  162.0820  211.9940  148.5960 C   0  0  1  0  0  3  0  0  0  0  0  0
  162.2440  213.9030  146.9960 C   0  0  0  0  0  2  0  0  0  0  0  0
  159.1940  213.7650  144.9040 O   0  0  0  0  0  1  0  0  0  0  0  0
  160.3110  214.3780  145.4600 C   0  0  0  0  0  2  0  0  0  0  0  0
  1  5  1  0  0  0  0
  2 13  2  0  0  0  0
  2 11  1  0  0  0  0
  4  7  2  0  0  0  0
  5  9  2  0  0  0  0
  6  1  1  0  0  0  0
  7 11  1  0  0  0  0
  7  9  1  0  0  0  0
  8  4  1  0  0  0  0
  8  1  2  0  0  0  0
 10  3  1  0  0  0  0
 11 10  2  0  0  0  0
 12  2  1  0  0  0  0
 13 14  1  0  0  0  0
 14  3  2  0  0  0  0
 15 12  2  0  0  0  0
 15  4  1  0  0  0  0
 16  3  1  6  0  0  0
 16 17  1  0  0  0  0
 16 18  1  0  0  0  0
 17 19  1  0  0  0  0
 18 20  1  0  0  0  0
 19 21  1  1  0  0  0
 19 20  1  0  0  0  0
 21 22  1  0  0  0  0
 22 24  1  0  0  0  0
 23 25  1  0  0  0  0
 23 27  1  0  0  0  0
 25 26  1  1  0  0  0
 25 22  1  0  0  0  0
 27 24  1  0  0  0  0
 28 25  1  0  0  0  0
 29 28  1  0  0  0  0
 30 34  1  0  0  0  0
 31 33  1  0  0  0  0
 32 30  1  0  0  0  0
 32 31  1  0  0  0  0
 33 29  1  0  0  0  0
 34 29  1  0  0  0  0
 35 13  1  0  0  0  0
 36 39  1  0  0  0  0
 37 43  1  1  0  0  0
 37 41  1  0  0  0  0
 37 36  1  0  0  0  0
 38 40  1  0  0  0  0
 39 40  1  0  0  0  0
 40 35  1  6  0  0  0
 41 38  1  0  0  0  0
 42 43  1  0  0  0  0
M  END
>  <MODEL>
6

>  <REMARK>
 VINA RESULT:      -7.6      2.451      7.420
  Name = 
  8 active torsions:
  status: ('A' for Active; 'I' for Inactive)
    1  A    between atoms: O_1  and  C_34
    2  A    between atoms: O_1  and  C_35
    3  A    between atoms: C_2  and  C_13
    4  A    between atoms: C_3  and  N_4
    5  A    between atoms: C_3  and  C_12
    6  A    between atoms: N_11  and  C_14
    7  A    between atoms: C_14  and  C_22
    8  A    between atoms: C_19  and  C_37
                            x       y       z     vdW  Elec       q    Type
                         _______ _______ _______ _____ _____    ______ ____

>  <TORSDO>
F 8

$$$$
=
 OpenBabel11062410073D

 43 49  0  0  1  0  0  0  0  0999 V2000
  158.3190  212.8330  154.8350 C   0  0  0  0  0  0  0  0  0  0  0  0
  160.7120  212.8030  150.2630 C   0  0  0  0  0  0  0  0  0  0  0  0
  161.7280  210.1120  150.0100 C   0  0  0  0  0  0  0  0  0  0  0  0
  159.1980  213.4540  152.6350 C   0  0  0  0  0  0  0  0  0  0  0  0
  158.9520  211.6030  154.7200 C   0  0  0  0  0  3  0  0  0  0  0  0
  157.6780  213.2470  156.1000 C   0  0  0  0  0  1  0  0  0  0  0  0
  159.8050  212.1620  152.4750 C   0  0  0  0  0  0  0  0  0  0  0  0
  158.4660  213.7500  153.7630 C   0  0  0  0  0  3  0  0  0  0  0  0
  159.6580  211.2770  153.5780 C   0  0  0  0  0  3  0  0  0  0  0  0
  160.9430  210.4790  151.1070 C   0  0  0  0  0  3  0  0  0  0  0  0
  160.4710  211.8040  151.3000 C   0  0  0  0  0  0  0  0  0  0  0  0
  160.2400  214.1080  150.4950 C   0  0  0  0  0  3  0  0  0  0  0  0
  161.3920  212.3670  149.0770 C   0  0  0  0  0  0  0  0  0  0  0  0
  161.9840  211.1010  148.9710 C   0  0  0  0  0  3  0  0  0  0  0  0
  159.4930  214.4400  151.6450 C   0  0  0  0  0  3  0  0  0  0  0  0
  161.9830  208.5570  149.9400 C   0  0  2  0  0  3  0  0  0  0  0  0
  161.3360  207.9080  148.8580 O   0  0  0  0  0  0  0  0  0  0  0  0
  161.7940  207.7140  151.1910 C   0  0  0  0  0  2  0  0  0  0  0  0
  160.8640  206.6440  149.3070 C   0  0  2  0  0  3  0  0  0  0  0  0
  161.6010  206.3060  150.5980 C   0  0  0  0  0  2  0  0  0  0  0  0
  160.5560  205.6630  148.1310 C   0  0  0  0  0  2  0  0  0  0  0  0
  161.4390  205.8760  146.9960 N   0  0  0  0  0  0  0  0  0  0  0  0
  161.3190  204.2930  145.2560 C   0  0  0  0  0  2  0  0  0  0  0  0
  160.7510  206.5120  145.8570 C   0  0  0  0  0  2  0  0  0  0  0  0
  162.1190  204.6880  146.4440 C   0  0  1  0  0  0  0  0  0  0  0  0
  163.3680  205.0950  146.0050 O   0  0  0  0  0  1  0  0  0  0  0  0
  160.8050  205.5860  144.6610 C   0  0  0  0  0  2  0  0  0  0  0  0
  162.3210  203.5350  147.4470 C   0  0  0  0  0  2  0  0  0  0  0  0
  161.0640  203.0080  148.0100 N   0  0  0  0  0  0  0  0  0  0  0  0
  161.2050  200.6220  148.6510 C   0  0  0  0  0  2  0  0  0  0  0  0
  160.1430  202.0950  150.1410 C   0  0  0  0  0  2  0  0  0  0  0  0
  160.1970  200.7520  149.6340 O   0  0  0  0  0  0  0  0  0  0  0  0
  161.2090  203.0050  149.4800 C   0  0  0  0  0  2  0  0  0  0  0  0
  160.8560  201.6150  147.5310 C   0  0  0  0  0  2  0  0  0  0  0  0
  161.6750  213.4370  148.1020 O   0  0  0  0  0  0  0  0  0  0  0  0
  159.6930  212.3750  144.9410 C   0  0  0  0  0  2  0  0  0  0  0  0
  160.8340  212.7160  144.0170 C   0  0  2  0  0  3  0  0  0  0  0  0
  162.3580  213.5090  145.7950 C   0  0  0  0  0  2  0  0  0  0  0  0
  160.1950  212.3650  146.3770 C   0  0  0  0  0  2  0  0  0  0  0  0
  161.2050  213.4380  146.7720 C   0  0  1  0  0  3  0  0  0  0  0  0
  161.8540  213.7830  144.3870 C   0  0  0  0  0  2  0  0  0  0  0  0
  160.0250  211.3710  142.3210 O   0  0  0  0  0  1  0  0  0  0  0  0
  160.5290  212.6400  142.5810 C   0  0  0  0  0  2  0  0  0  0  0  0
  1  6  1  0  0  0  0
  2 12  1  0  0  0  0
  2 11  1  0  0  0  0
  3 10  1  0  0  0  0
  4  8  1  0  0  0  0
  5  1  1  0  0  0  0
  7  4  2  0  0  0  0
  7  9  1  0  0  0  0
  8  1  2  0  0  0  0
  9  5  2  0  0  0  0
 10 11  2  0  0  0  0
 11  7  1  0  0  0  0
 12 15  2  0  0  0  0
 13  2  2  0  0  0  0
 14 13  1  0  0  0  0
 14  3  2  0  0  0  0
 15  4  1  0  0  0  0
 16  3  1  1  0  0  0
 16 18  1  0  0  0  0
 17 19  1  0  0  0  0
 17 16  1  0  0  0  0
 19 21  1  6  0  0  0
 19 20  1  0  0  0  0
 20 18  1  0  0  0  0
 22 21  1  0  0  0  0
 23 25  1  0  0  0  0
 24 22  1  0  0  0  0
 25 26  1  6  0  0  0
 25 22  1  0  0  0  0
 25 28  1  0  0  0  0
 27 23  1  0  0  0  0
 27 24  1  0  0  0  0
 28 29  1  0  0  0  0
 29 33  1  0  0  0  0
 30 32  1  0  0  0  0
 32 31  1  0  0  0  0
 33 31  1  0  0  0  0
 34 29  1  0  0  0  0
 34 30  1  0  0  0  0
 35 13  1  0  0  0  0
 36 39  1  0  0  0  0
 37 43  1  6  0  0  0
 37 41  1  0  0  0  0
 37 36  1  0  0  0  0
 38 40  1  0  0  0  0
 39 40  1  0  0  0  0
 40 35  1  1  0  0  0
 41 38  1  0  0  0  0
 42 43  1  0  0  0  0
M  END
>  <MODEL>
7

>  <REMARK>
 VINA RESULT:      -7.4      3.342      9.550
  Name = 
  8 active torsions:
  status: ('A' for Active; 'I' for Inactive)
    1  A    between atoms: O_1  and  C_34
    2  A    between atoms: O_1  and  C_35
    3  A    between atoms: C_2  and  C_13
    4  A    between atoms: C_3  and  N_4
    5  A    between atoms: C_3  and  C_12
    6  A    between atoms: N_11  and  C_14
    7  A    between atoms: C_14  and  C_22
    8  A    between atoms: C_19  and  C_37
                            x       y       z     vdW  Elec       q    Type
                         _______ _______ _______ _____ _____    ______ ____

>  <TORSDO>
F 8

$$$$
=
 OpenBabel11062410073D

 43 49  0  0  1  0  0  0  0  0999 V2000
  160.5560  207.4780  155.1450 C   0  0  0  0  0  0  0  0  0  0  0  0
  162.2030  207.3090  150.2570 C   0  0  0  0  0  0  0  0  0  0  0  0
  162.1590  210.0640  149.3960 C   0  0  0  0  0  0  0  0  0  0  0  0
  161.4240  206.7350  152.9790 C   0  0  0  0  0  0  0  0  0  0  0  0
  160.4210  208.7600  154.6290 C   0  0  0  0  0  3  0  0  0  0  0  0
  160.0160  207.1290  156.4740 C   0  0  0  0  0  1  0  0  0  0  0  0
  161.3490  208.0700  152.4520 C   0  0  0  0  0  0  0  0  0  0  0  0
  161.0640  206.4740  154.2820 C   0  0  0  0  0  3  0  0  0  0  0  0
  160.8130  209.0460  153.3360 C   0  0  0  0  0  3  0  0  0  0  0  0
  161.8440  209.7230  150.7150 C   0  0  0  0  0  3  0  0  0  0  0  0
  161.7980  208.3780  151.1660 C   0  0  0  0  0  0  0  0  0  0  0  0
  162.1330  205.9870  150.7360 C   0  0  0  0  0  3  0  0  0  0  0  0
  162.6640  207.6940  148.9540 C   0  0  0  0  0  0  0  0  0  0  0  0
  162.5560  209.0070  148.4760 C   0  0  0  0  0  3  0  0  0  0  0  0
  161.7610  205.6910  152.0640 C   0  0  0  0  0  3  0  0  0  0  0  0
  162.3040  211.6210  149.1900 C   0  0  2  0  0  3  0  0  0  0  0  0
  161.0710  212.3210  149.1480 O   0  0  0  0  0  0  0  0  0  0  0  0
  163.1940  212.1450  148.0740 C   0  0  0  0  0  2  0  0  0  0  0  0
  161.1680  213.3460  148.1680 C   0  0  2  0  0  3  0  0  0  0  0  0
  162.6470  213.5710  147.8740 C   0  0  0  0  0  2  0  0  0  0  0  0
  160.0790  214.4530  148.3440 C   0  0  0  0  0  2  0  0  0  0  0  0
  158.9810  214.2950  147.4050 N   0  0  0  0  0  0  0  0  0  0  0  0
  158.8130  212.2100  146.3210 C   0  0  0  0  0  2  0  0  0  0  0  0
  157.8360  213.5750  147.9920 C   0  0  0  0  0  2  0  0  0  0  0  0
  159.2800  213.6080  146.1330 C   0  0  1  0  0  0  0  0  0  0  0  0
  158.4970  214.1950  145.1530 O   0  0  0  0  0  1  0  0  0  0  0  0
  157.5900  212.3040  147.2060 C   0  0  0  0  0  2  0  0  0  0  0  0
  160.7510  213.6980  145.6810 C   0  0  0  0  0  2  0  0  0  0  0  0
  160.9240  213.7180  144.2160 N   0  0  0  0  0  0  0  0  0  0  0  0
  163.1200  212.8500  143.4790 C   0  0  0  0  0  2  0  0  0  0  0  0
  161.2160  212.1600  142.2910 C   0  0  0  0  0  2  0  0  0  0  0  0
  162.6200  212.4500  142.2190 O   0  0  0  0  0  0  0  0  0  0  0  0
  160.6590  212.3510  143.7250 C   0  0  0  0  0  2  0  0  0  0  0  0
  162.3250  214.0990  143.8910 C   0  0  0  0  0  2  0  0  0  0  0  0
  162.9840  206.5680  148.0570 O   0  0  0  0  0  0  0  0  0  0  0  0
  161.2070  203.3930  146.7110 C   0  0  0  0  0  2  0  0  0  0  0  0
  160.7030  204.1030  145.4820 C   0  0  2  0  0  3  0  0  0  0  0  0
  161.6760  206.3020  146.0540 C   0  0  0  0  0  2  0  0  0  0  0  0
  162.2590  204.2550  147.3940 C   0  0  0  0  0  2  0  0  0  0  0  0
  162.0150  205.7600  147.4250 C   0  0  1  0  0  3  0  0  0  0  0  0
  160.4500  205.6030  145.4870 C   0  0  0  0  0  2  0  0  0  0  0  0
  159.8270  202.0060  145.0560 O   0  0  0  0  0  1  0  0  0  0  0  0
  159.7710  203.3330  144.6460 C   0  0  0  0  0  2  0  0  0  0  0  0
  1  6  1  0  0  0  0
  2 12  1  0  0  0  0
  2 11  1  0  0  0  0
  3 10  1  0  0  0  0
  4  8  1  0  0  0  0
  5  1  1  0  0  0  0
  7  4  2  0  0  0  0
  7  9  1  0  0  0  0
  8  1  2  0  0  0  0
  9  5  2  0  0  0  0
 10 11  2  0  0  0  0
 11  7  1  0  0  0  0
 12 15  2  0  0  0  0
 13  2  2  0  0  0  0
 14 13  1  0  0  0  0
 14  3  2  0  0  0  0
 15  4  1  0  0  0  0
 16  3  1  6  0  0  0
 17 16  1  0  0  0  0
 18 16  1  0  0  0  0
 19 21  1  1  0  0  0
 19 17  1  0  0  0  0
 20 18  1  0  0  0  0
 20 19  1  0  0  0  0
 22 24  1  0  0  0  0
 22 21  1  0  0  0  0
 23 27  1  0  0  0  0
 25 26  1  6  0  0  0
 25 23  1  0  0  0  0
 25 22  1  0  0  0  0
 27 24  1  0  0  0  0
 28 25  1  0  0  0  0
 29 28  1  0  0  0  0
 30 34  1  0  0  0  0
 31 33  1  0  0  0  0
 32 31  1  0  0  0  0
 32 30  1  0  0  0  0
 33 29  1  0  0  0  0
 34 29  1  0  0  0  0
 35 13  1  0  0  0  0
 36 39  1  0  0  0  0
 37 43  1  1  0  0  0
 37 41  1  0  0  0  0
 37 36  1  0  0  0  0
 38 40  1  0  0  0  0
 39 40  1  0  0  0  0
 40 35  1  6  0  0  0
 41 38  1  0  0  0  0
 43 42  1  0  0  0  0
M  END
>  <MODEL>
8

>  <REMARK>
 VINA RESULT:      -7.4      2.298      6.104
  Name = 
  8 active torsions:
  status: ('A' for Active; 'I' for Inactive)
    1  A    between atoms: O_1  and  C_34
    2  A    between atoms: O_1  and  C_35
    3  A    between atoms: C_2  and  C_13
    4  A    between atoms: C_3  and  N_4
    5  A    between atoms: C_3  and  C_12
    6  A    between atoms: N_11  and  C_14
    7  A    between atoms: C_14  and  C_22
    8  A    between atoms: C_19  and  C_37
                            x       y       z     vdW  Elec       q    Type
                         _______ _______ _______ _____ _____    ______ ____

>  <TORSDO>
F 8

$$$$
=
 OpenBabel11062410073D

 43 49  0  0  1  0  0  0  0  0999 V2000
  160.9810  202.6330  148.4880 C   0  0  0  0  0  0  0  0  0  0  0  0
  161.9480  207.6950  148.7570 C   0  0  0  0  0  0  0  0  0  0  0  0
  161.1080  208.4390  151.4170 C   0  0  0  0  0  0  0  0  0  0  0  0
  161.7080  204.9190  147.9950 C   0  0  0  0  0  0  0  0  0  0  0  0
  160.4640  203.0780  149.6970 C   0  0  0  0  0  3  0  0  0  0  0  0
  160.7270  201.2590  148.0080 C   0  0  0  0  0  1  0  0  0  0  0  0
  161.2340  205.3810  149.2700 C   0  0  0  0  0  0  0  0  0  0  0  0
  161.6020  203.5920  147.6460 C   0  0  0  0  0  3  0  0  0  0  0  0
  160.5970  204.4000  150.0780 C   0  0  0  0  0  3  0  0  0  0  0  0
  161.0670  207.1040  151.0020 C   0  0  0  0  0  3  0  0  0  0  0  0
  161.4170  206.7020  149.6860 C   0  0  0  0  0  0  0  0  0  0  0  0
  162.2720  207.2610  147.4580 C   0  0  0  0  0  3  0  0  0  0  0  0
  162.1200  209.0310  149.2510 C   0  0  0  0  0  0  0  0  0  0  0  0
  161.6280  209.4420  150.4970 C   0  0  0  0  0  3  0  0  0  0  0  0
  162.1670  205.9080  147.0720 C   0  0  0  0  0  3  0  0  0  0  0  0
  160.8340  208.6030  152.9610 C   0  0  2  0  0  3  0  0  0  0  0  0
  160.8380  209.9470  153.4150 O   0  0  0  0  0  0  0  0  0  0  0  0
  161.6190  207.7580  153.9510 C   0  0  0  0  0  2  0  0  0  0  0  0
  161.4570  209.9890  154.6940 C   0  0  2  0  0  3  0  0  0  0  0  0
  161.4700  208.5700  155.2510 C   0  0  0  0  0  2  0  0  0  0  0  0
  161.1180  211.2930  155.4850 C   0  0  0  0  0  2  0  0  0  0  0  0
  159.9870  211.1100  156.3810 N   0  0  0  0  0  0  0  0  0  0  0  0
  157.9230  210.5780  155.3800 C   0  0  0  0  0  2  0  0  0  0  0  0
  159.7090  209.6880  156.6560 C   0  0  0  0  0  2  0  0  0  0  0  0
  158.7000  211.7000  155.9660 C   0  0  1  0  0  0  0  0  0  0  0  0
  158.0490  212.1200  157.1140 O   0  0  0  0  0  1  0  0  0  0  0  0
  158.3130  209.3510  156.1750 C   0  0  0  0  0  2  0  0  0  0  0  0
  158.8200  212.9110  155.0190 C   0  0  0  0  0  2  0  0  0  0  0  0
  158.2490  212.6780  153.6790 N   0  0  0  0  0  0  0  0  0  0  0  0
  156.6790  214.4520  152.9650 C   0  0  0  0  0  2  0  0  0  0  0  0
  158.2400  213.6740  151.3920 C   0  0  0  0  0  2  0  0  0  0  0  0
  156.9260  214.2190  151.5930 O   0  0  0  0  0  0  0  0  0  0  0  0
  159.0090  213.5150  152.7280 C   0  0  0  0  0  2  0  0  0  0  0  0
  156.8210  213.0960  153.6740 C   0  0  0  0  0  2  0  0  0  0  0  0
  162.5870  210.0030  148.2450 O   0  0  0  0  0  0  0  0  0  0  0  0
  161.0700  213.5260  148.8300 C   0  0  0  0  0  2  0  0  0  0  0  0
  159.9410  213.2850  147.8610 C   0  0  2  0  0  3  0  0  0  0  0  0
  160.6500  211.0040  147.2250 C   0  0  0  0  0  2  0  0  0  0  0  0
  161.7630  212.2050  149.1320 C   0  0  0  0  0  2  0  0  0  0  0  0
  161.9440  211.2300  147.9740 C   0  0  1  0  0  3  0  0  0  0  0  0
  160.0970  212.3180  146.6960 C   0  0  0  0  0  2  0  0  0  0  0  0
  157.8030  214.1540  147.9810 O   0  0  0  0  0  1  0  0  0  0  0  0
  159.0970  214.4530  147.5720 C   0  0  0  0  0  2  0  0  0  0  0  0
  1  5  1  0  0  0  0
  2 13  2  0  0  0  0
  2 11  1  0  0  0  0
  4  7  2  0  0  0  0
  5  9  2  0  0  0  0
  6  1  1  0  0  0  0
  7 11  1  0  0  0  0
  7  9  1  0  0  0  0
  8  4  1  0  0  0  0
  8  1  2  0  0  0  0
 10  3  1  0  0  0  0
 11 10  2  0  0  0  0
 12  2  1  0  0  0  0
 13 14  1  0  0  0  0
 14  3  2  0  0  0  0
 15 12  2  0  0  0  0
 15  4  1  0  0  0  0
 16  3  1  6  0  0  0
 16 17  1  0  0  0  0
 16 18  1  0  0  0  0
 17 19  1  0  0  0  0
 18 20  1  0  0  0  0
 19 20  1  0  0  0  0
 19 21  1  1  0  0  0
 21 22  1  0  0  0  0
 22 24  1  0  0  0  0
 23 25  1  0  0  0  0
 23 27  1  0  0  0  0
 25 22  1  0  0  0  0
 25 26  1  1  0  0  0
 27 24  1  0  0  0  0
 28 25  1  0  0  0  0
 29 28  1  0  0  0  0
 30 34  1  0  0  0  0
 31 32  1  0  0  0  0
 31 33  1  0  0  0  0
 32 30  1  0  0  0  0
 33 29  1  0  0  0  0
 34 29  1  0  0  0  0
 35 13  1  0  0  0  0
 36 39  1  0  0  0  0
 37 43  1  6  0  0  0
 37 36  1  0  0  0  0
 38 40  1  0  0  0  0
 40 35  1  1  0  0  0
 40 39  1  0  0  0  0
 41 38  1  0  0  0  0
 41 37  1  0  0  0  0
 43 42  1  0  0  0  0
M  END
>  <MODEL>
9

>  <REMARK>
 VINA RESULT:      -7.0      2.914      7.389
  Name = 
  8 active torsions:
  status: ('A' for Active; 'I' for Inactive)
    1  A    between atoms: O_1  and  C_34
    2  A    between atoms: O_1  and  C_35
    3  A    between atoms: C_2  and  C_13
    4  A    between atoms: C_3  and  N_4
    5  A    between atoms: C_3  and  C_12
    6  A    between atoms: N_11  and  C_14
    7  A    between atoms: C_14  and  C_22
    8  A    between atoms: C_19  and  C_37
                            x       y       z     vdW  Elec       q    Type
                         _______ _______ _______ _____ _____    ______ ____

>  <TORSDO>
F 8

$$$$
