=
 OpenBabel11052421463D

 30 32  0  0  1  0  0  0  0  0999 V2000
  160.8920  205.7110  151.6580 C   0  0  0  0  0  0  0  0  0  0  0  0
  160.8510  204.7130  152.6330 C   0  0  0  0  0  3  0  0  0  0  0  0
  160.7770  207.0080  152.0390 F   0  0  0  0  0  0  0  0  0  0  0  0
  161.1600  204.0090  149.9240 C   0  0  0  0  0  0  0  0  0  0  0  0
  160.9520  203.3730  152.2670 C   0  0  0  0  0  3  0  0  0  0  0  0
  161.0370  205.3740  150.3010 C   0  0  0  0  0  0  0  0  0  0  0  0
  161.1040  203.0260  150.9250 C   0  0  0  0  0  3  0  0  0  0  0  0
  160.4480  202.1370  146.6740 C   0  0  0  0  0  3  0  0  0  0  0  0
  161.0530  202.9240  145.7720 C   0  0  0  0  0  3  0  0  0  0  0  0
  160.8880  202.1650  148.1180 C   0  0  1  0  0  3  0  0  0  0  0  0
  161.9430  204.3300  147.6050 C   0  0  0  0  0  3  0  0  0  0  0  0
  161.9310  201.2740  148.3020 F   0  0  0  0  0  0  0  0  0  0  0  0
  162.1790  203.8300  146.2050 C   0  0  2  0  0  3  0  0  0  0  0  0
  161.3330  203.5570  148.5190 C   0  0  0  0  0  0  0  0  0  0  0  0
  162.3380  205.0050  145.2510 C   0  0  0  0  0  2  0  0  0  0  0  0
  160.3100  206.2650  145.1140 O   0  0  0  0  0  1  0  0  0  0  0  0
  161.0540  205.2680  144.4810 C   0  0  1  0  0  3  0  0  0  0  0  0
  161.3930  205.7170  143.0770 C   0  0  0  0  0  1  0  0  0  0  0  0
  161.0200  206.4780  149.2900 C   0  0  0  0  0  2  0  0  0  0  0  0
  162.0680  207.4390  149.5900 N   0  0  0  0  0  2  0  0  0  0  0  0
  161.8530  208.5730  148.7090 C   0  0  0  0  0  2  0  0  0  0  0  0
  162.3530  209.8500  149.3700 C   0  0  2  0  0  3  0  0  0  0  0  0
  161.9850  209.8110  150.8460 C   0  0  0  0  0  1  0  0  0  0  0  0
  160.7550  213.3970  149.1990 C   0  0  0  0  0  2  0  0  0  0  0  0
  161.7440  211.0810  148.6930 C   0  0  2  0  0  3  0  0  0  0  0  0
  161.8290  213.1360  146.9200 C   0  0  2  0  0  3  0  0  0  0  0  0
  163.0160  212.0260  147.7780 S   0  0  0  0  0  0  0  0  0  0  0  0
  161.0570  211.9900  149.7220 C   0  0  0  0  0  2  0  0  0  0  0  0
  162.5160  214.4490  146.6010 C   0  0  0  0  0  1  0  0  0  0  0  0
  160.5300  213.4010  147.6910 C   0  0  0  0  0  2  0  0  0  0  0  0
  1  3  1  0  0  0  0
  1  2  1  0  0  0  0
  4  6  1  0  0  0  0
  4  7  2  0  0  0  0
  5  2  2  0  0  0  0
  6  1  2  0  0  0  0
  7  5  1  0  0  0  0
  8 10  1  0  0  0  0
  9 13  1  0  0  0  0
  9  8  2  0  0  0  0
 10 12  1  6  0  0  0
 10 14  1  0  0  0  0
 11 14  2  0  0  0  0
 13 15  1  6  0  0  0
 13 11  1  0  0  0  0
 14  4  1  0  0  0  0
 17 18  1  6  0  0  0
 17 16  1  0  0  0  0
 17 15  1  0  0  0  0
 19 20  1  0  0  0  0
 19  6  1  0  0  0  0
 21 22  1  0  0  0  0
 21 20  1  0  0  0  0
 22 23  1  1  0  0  0
 24 28  1  0  0  0  0
 25 22  1  1  0  0  0
 25 28  1  0  0  0  0
 26 29  1  1  0  0  0
 26 30  1  0  0  0  0
 26 27  1  0  0  0  0
 27 25  1  0  0  0  0
 30 24  1  0  0  0  0
M  END
>  <MODEL>
1

>  <REMARK>
 VINA RESULT:      -8.4      0.000      0.000
  Name = 
  8 active torsions:
  status: ('A' for Active; 'I' for Inactive)
    1  A    between atoms: N_1  and  C_4
    2  A    between atoms: N_1  and  C_5
    3  A    between atoms: C_4  and  C_27
    4  A    between atoms: C_5  and  C_22
    5  A    between atoms: C_8  and  C_27
    6  A    between atoms: C_15  and  C_16
    7  A    between atoms: C_16  and  C_25
    8  A    between atoms: C_19  and  C_29
                            x       y       z     vdW  Elec       q    Type
                         _______ _______ _______ _____ _____    ______ ____

>  <TORSDO>
F 8

$$$$
=
 OpenBabel11052421463D

 30 32  0  0  1  0  0  0  0  0999 V2000
  161.6760  205.5980  152.2840 C   0  0  0  0  0  0  0  0  0  0  0  0
  161.1460  204.4140  152.8020 C   0  0  0  0  0  3  0  0  0  0  0  0
  162.1050  206.5570  153.1420 F   0  0  0  0  0  0  0  0  0  0  0  0
  161.2970  204.7770  150.0130 C   0  0  0  0  0  0  0  0  0  0  0  0
  160.6850  203.4200  151.9420 C   0  0  0  0  0  3  0  0  0  0  0  0
  161.7490  205.7960  150.8930 C   0  0  0  0  0  0  0  0  0  0  0  0
  160.7600  203.6020  150.5620 C   0  0  0  0  0  3  0  0  0  0  0  0
  162.2640  206.1290  146.5750 C   0  0  0  0  0  3  0  0  0  0  0  0
  162.0940  205.0460  145.8030 C   0  0  0  0  0  3  0  0  0  0  0  0
  161.5240  206.2470  147.8850 C   0  0  1  0  0  3  0  0  0  0  0  0
  161.1720  203.8140  147.7430 C   0  0  0  0  0  3  0  0  0  0  0  0
  160.2820  206.8190  147.6660 F   0  0  0  0  0  0  0  0  0  0  0  0
  161.1520  203.9520  146.2450 C   0  0  2  0  0  3  0  0  0  0  0  0
  161.3490  204.8880  148.5320 C   0  0  0  0  0  0  0  0  0  0  0  0
  161.5070  202.6240  145.5930 C   0  0  0  0  0  2  0  0  0  0  0  0
  159.8960  201.0420  144.8060 O   0  0  0  0  0  1  0  0  0  0  0  0
  160.5020  201.5430  145.9580 C   0  0  1  0  0  3  0  0  0  0  0  0
  161.2140  200.4170  146.6750 C   0  0  0  0  0  1  0  0  0  0  0  0
  162.2730  207.1050  150.3900 C   0  0  0  0  0  2  0  0  0  0  0  0
  161.2430  208.1240  150.4950 N   0  0  0  0  0  2  0  0  0  0  0  0
  161.8150  209.2130  151.2660 C   0  0  0  0  0  2  0  0  0  0  0  0
  160.7940  209.7370  152.2660 C   0  0  2  0  0  3  0  0  0  0  0  0
  160.5630  211.2170  151.9950 C   0  0  0  0  0  1  0  0  0  0  0  0
  161.4620  210.6810  155.9850 C   0  0  0  0  0  2  0  0  0  0  0  0
  161.2850  209.5200  153.7010 C   0  0  2  0  0  3  0  0  0  0  0  0
  161.3190  208.1530  156.0460 C   0  0  2  0  0  3  0  0  0  0  0  0
  160.2130  208.3350  154.5900 S   0  0  0  0  0  0  0  0  0  0  0  0
  161.3440  210.8490  154.4670 C   0  0  0  0  0  2  0  0  0  0  0  0
  160.4890  207.7860  157.2610 C   0  0  0  0  0  1  0  0  0  0  0  0
  162.1770  209.3870  156.3550 C   0  0  0  0  0  2  0  0  0  0  0  0
  1  2  1  0  0  0  0
  1  3  1  0  0  0  0
  4  7  2  0  0  0  0
  4  6  1  0  0  0  0
  5  2  2  0  0  0  0
  6  1  2  0  0  0  0
  7  5  1  0  0  0  0
  8 10  1  0  0  0  0
  9 13  1  0  0  0  0
  9  8  2  0  0  0  0
 10 12  1  6  0  0  0
 10 14  1  0  0  0  0
 11 14  2  0  0  0  0
 13 15  1  6  0  0  0
 13 11  1  0  0  0  0
 14  4  1  0  0  0  0
 15 17  1  0  0  0  0
 16 17  1  0  0  0  0
 17 18  1  6  0  0  0
 19 20  1  0  0  0  0
 19  6  1  0  0  0  0
 20 21  1  0  0  0  0
 21 22  1  0  0  0  0
 22 23  1  6  0  0  0
 24 30  1  0  0  0  0
 25 22  1  6  0  0  0
 25 28  1  0  0  0  0
 25 27  1  0  0  0  0
 26 30  1  0  0  0  0
 26 29  1  1  0  0  0
 27 26  1  0  0  0  0
 28 24  1  0  0  0  0
M  END
>  <MODEL>
2

>  <REMARK>
 VINA RESULT:      -8.2      3.134      4.980
  Name = 
  8 active torsions:
  status: ('A' for Active; 'I' for Inactive)
    1  A    between atoms: N_1  and  C_4
    2  A    between atoms: N_1  and  C_5
    3  A    between atoms: C_4  and  C_27
    4  A    between atoms: C_5  and  C_22
    5  A    between atoms: C_8  and  C_27
    6  A    between atoms: C_15  and  C_16
    7  A    between atoms: C_16  and  C_25
    8  A    between atoms: C_19  and  C_29
                            x       y       z     vdW  Elec       q    Type
                         _______ _______ _______ _____ _____    ______ ____

>  <TORSDO>
F 8

$$$$
=
 OpenBabel11052421463D

 30 32  0  0  1  0  0  0  0  0999 V2000
  161.6550  205.7780  152.5950 C   0  0  0  0  0  0  0  0  0  0  0  0
  161.1630  204.5780  153.1120 C   0  0  0  0  0  3  0  0  0  0  0  0
  162.0360  206.7570  153.4540 F   0  0  0  0  0  0  0  0  0  0  0  0
  161.3430  204.9310  150.3240 C   0  0  0  0  0  0  0  0  0  0  0  0
  160.7530  203.5630  152.2520 C   0  0  0  0  0  3  0  0  0  0  0  0
  161.7420  205.9710  151.2050 C   0  0  0  0  0  0  0  0  0  0  0  0
  160.8420  203.7400  150.8720 C   0  0  0  0  0  3  0  0  0  0  0  0
  162.3320  206.2850  146.8940 C   0  0  0  0  0  3  0  0  0  0  0  0
  162.1930  205.1950  146.1250 C   0  0  0  0  0  3  0  0  0  0  0  0
  161.5710  206.3960  148.1930 C   0  0  1  0  0  3  0  0  0  0  0  0
  161.2680  203.9550  148.0580 C   0  0  0  0  0  3  0  0  0  0  0  0
  160.3220  206.9420  147.9530 F   0  0  0  0  0  0  0  0  0  0  0  0
  161.2660  204.0860  146.5590 C   0  0  2  0  0  3  0  0  0  0  0  0
  161.4130  205.0360  148.8430 C   0  0  0  0  0  0  0  0  0  0  0  0
  161.6560  202.7620  145.9180 C   0  0  0  0  0  2  0  0  0  0  0  0
  160.0600  201.2820  144.9280 O   0  0  0  0  0  1  0  0  0  0  0  0
  160.5910  201.7020  146.1480 C   0  0  1  0  0  3  0  0  0  0  0  0
  161.2060  200.5160  146.8570 C   0  0  0  0  0  1  0  0  0  0  0  0
  162.2250  207.2960  150.7020 C   0  0  0  0  0  2  0  0  0  0  0  0
  161.1780  208.2920  150.8470 N   0  0  0  0  0  2  0  0  0  0  0  0
  161.6340  209.2280  151.8590 C   0  0  0  0  0  2  0  0  0  0  0  0
  160.4570  210.0340  152.3930 C   0  0  2  0  0  3  0  0  0  0  0  0
  160.5740  211.4620  151.8820 C   0  0  0  0  0  1  0  0  0  0  0  0
  161.8100  210.6900  155.9860 C   0  0  0  0  0  2  0  0  0  0  0  0
  160.4370  210.0080  153.9250 C   0  0  2  0  0  3  0  0  0  0  0  0
  159.3020  210.5870  156.3220 C   0  0  2  0  0  3  0  0  0  0  0  0
  159.2010  211.1820  154.5860 S   0  0  0  0  0  0  0  0  0  0  0  0
  161.8250  210.3320  154.4970 C   0  0  0  0  0  2  0  0  0  0  0  0
  158.9340  211.7190  157.2600 C   0  0  0  0  0  1  0  0  0  0  0  0
  160.6630  210.0030  156.7190 C   0  0  0  0  0  2  0  0  0  0  0  0
  1  2  1  0  0  0  0
  1  3  1  0  0  0  0
  4  7  2  0  0  0  0
  4  6  1  0  0  0  0
  5  2  2  0  0  0  0
  6  1  2  0  0  0  0
  7  5  1  0  0  0  0
  8 10  1  0  0  0  0
  9 13  1  0  0  0  0
  9  8  2  0  0  0  0
 10 12  1  6  0  0  0
 10 14  1  0  0  0  0
 11 14  2  0  0  0  0
 13 15  1  6  0  0  0
 13 11  1  0  0  0  0
 14  4  1  0  0  0  0
 15 17  1  0  0  0  0
 16 17  1  0  0  0  0
 17 18  1  6  0  0  0
 19 20  1  0  0  0  0
 19  6  1  0  0  0  0
 20 21  1  0  0  0  0
 21 22  1  0  0  0  0
 22 23  1  1  0  0  0
 24 30  1  0  0  0  0
 25 22  1  6  0  0  0
 25 28  1  0  0  0  0
 25 27  1  0  0  0  0
 26 30  1  0  0  0  0
 26 29  1  1  0  0  0
 27 26  1  0  0  0  0
 28 24  1  0  0  0  0
M  END
>  <MODEL>
3

>  <REMARK>
 VINA RESULT:      -8.2      3.291      4.893
  Name = 
  8 active torsions:
  status: ('A' for Active; 'I' for Inactive)
    1  A    between atoms: N_1  and  C_4
    2  A    between atoms: N_1  and  C_5
    3  A    between atoms: C_4  and  C_27
    4  A    between atoms: C_5  and  C_22
    5  A    between atoms: C_8  and  C_27
    6  A    between atoms: C_15  and  C_16
    7  A    between atoms: C_16  and  C_25
    8  A    between atoms: C_19  and  C_29
                            x       y       z     vdW  Elec       q    Type
                         _______ _______ _______ _____ _____    ______ ____

>  <TORSDO>
F 8

$$$$
=
 OpenBabel11052421463D

 30 32  0  0  1  0  0  0  0  0999 V2000
  161.9920  208.6290  150.5150 C   0  0  0  0  0  0  0  0  0  0  0  0
  161.9620  209.0040  149.1700 C   0  0  0  0  0  3  0  0  0  0  0  0
  162.2050  209.5810  151.4590 F   0  0  0  0  0  0  0  0  0  0  0  0
  161.5920  206.3040  149.8780 C   0  0  0  0  0  0  0  0  0  0  0  0
  161.7590  208.0440  148.1820 C   0  0  0  0  0  3  0  0  0  0  0  0
  161.8180  207.2830  150.8820 C   0  0  0  0  0  0  0  0  0  0  0  0
  161.5770  206.7070  148.5340 C   0  0  0  0  0  3  0  0  0  0  0  0
  160.5770  203.1740  151.8160 C   0  0  0  0  0  3  0  0  0  0  0  0
  160.3580  202.3010  150.8220 C   0  0  0  0  0  3  0  0  0  0  0  0
  161.4850  204.3600  151.5960 C   0  0  1  0  0  3  0  0  0  0  0  0
  161.1690  203.9720  149.1840 C   0  0  0  0  0  3  0  0  0  0  0  0
  162.7930  203.9970  151.8650 F   0  0  0  0  0  0  0  0  0  0  0  0
  161.0320  202.5040  149.4860 C   0  0  2  0  0  3  0  0  0  0  0  0
  161.3810  204.8610  150.1700 C   0  0  0  0  0  0  0  0  0  0  0  0
  160.2620  201.8120  148.3720 C   0  0  0  0  0  2  0  0  0  0  0  0
  161.4670  200.0160  147.3520 O   0  0  0  0  0  1  0  0  0  0  0  0
  161.1890  201.3790  147.2470 C   0  0  1  0  0  3  0  0  0  0  0  0
  160.5230  201.6490  145.9150 C   0  0  0  0  0  1  0  0  0  0  0  0
  161.9140  206.9260  152.3330 C   0  0  0  0  0  2  0  0  0  0  0  0
  160.7510  207.4260  153.0440 N   0  0  0  0  0  2  0  0  0  0  0  0
  161.0320  207.2700  154.4590 C   0  0  0  0  0  2  0  0  0  0  0  0
  161.3740  208.6190  155.0770 C   0  0  2  0  0  3  0  0  0  0  0  0
  161.7860  208.4010  156.5250 C   0  0  0  0  0  1  0  0  0  0  0  0
  158.7580  211.1820  156.4020 C   0  0  0  0  0  2  0  0  0  0  0  0
  160.1750  209.5690  154.9920 C   0  0  2  0  0  3  0  0  0  0  0  0
  158.8680  211.6960  153.9250 C   0  0  2  0  0  3  0  0  0  0  0  0
  160.5910  211.0680  154.0280 S   0  0  0  0  0  0  0  0  0  0  0  0
  159.6910  209.9670  156.3930 C   0  0  0  0  0  2  0  0  0  0  0  0
  158.8940  213.2050  153.7860 C   0  0  0  0  0  1  0  0  0  0  0  0
  157.9700  211.2960  155.1020 C   0  0  0  0  0  2  0  0  0  0  0  0
  1  6  1  0  0  0  0
  1  3  1  0  0  0  0
  2  1  2  0  0  0  0
  4 14  1  0  0  0  0
  4  6  2  0  0  0  0
  5  7  2  0  0  0  0
  5  2  1  0  0  0  0
  6 19  1  0  0  0  0
  7  4  1  0  0  0  0
  9  8  2  0  0  0  0
 10  8  1  0  0  0  0
 10 12  1  6  0  0  0
 11 13  1  0  0  0  0
 11 14  2  0  0  0  0
 13 15  1  6  0  0  0
 13  9  1  0  0  0  0
 14 10  1  0  0  0  0
 17 18  1  6  0  0  0
 17 16  1  0  0  0  0
 17 15  1  0  0  0  0
 19 20  1  0  0  0  0
 20 21  1  0  0  0  0
 21 22  1  0  0  0  0
 22 23  1  1  0  0  0
 25 22  1  1  0  0  0
 25 28  1  0  0  0  0
 26 29  1  1  0  0  0
 26 27  1  0  0  0  0
 26 30  1  0  0  0  0
 27 25  1  0  0  0  0
 28 24  1  0  0  0  0
 30 24  1  0  0  0  0
M  END
>  <MODEL>
4

>  <REMARK>
 VINA RESULT:      -8.0      3.594      5.398
  Name = 
  8 active torsions:
  status: ('A' for Active; 'I' for Inactive)
    1  A    between atoms: N_1  and  C_4
    2  A    between atoms: N_1  and  C_5
    3  A    between atoms: C_4  and  C_27
    4  A    between atoms: C_5  and  C_22
    5  A    between atoms: C_8  and  C_27
    6  A    between atoms: C_15  and  C_16
    7  A    between atoms: C_16  and  C_25
    8  A    between atoms: C_19  and  C_29
                            x       y       z     vdW  Elec       q    Type
                         _______ _______ _______ _____ _____    ______ ____

>  <TORSDO>
F 8

$$$$
=
 OpenBabel11052421463D

 30 32  0  0  1  0  0  0  0  0999 V2000
  160.6590  204.4190  151.5400 C   0  0  0  0  0  0  0  0  0  0  0  0
  160.8810  203.2950  152.3390 C   0  0  0  0  0  3  0  0  0  0  0  0
  160.3520  205.5990  152.1360 F   0  0  0  0  0  0  0  0  0  0  0  0
  161.0660  203.0800  149.5370 C   0  0  0  0  0  0  0  0  0  0  0  0
  161.1830  202.0690  151.7510 C   0  0  0  0  0  3  0  0  0  0  0  0
  160.7390  204.3240  150.1400 C   0  0  0  0  0  0  0  0  0  0  0  0
  161.2730  201.9640  150.3630 C   0  0  0  0  0  3  0  0  0  0  0  0
  160.1640  201.9290  146.0100 C   0  0  0  0  0  3  0  0  0  0  0  0
  160.8400  202.8110  145.2580 C   0  0  0  0  0  3  0  0  0  0  0  0
  160.6090  201.6430  147.4240 C   0  0  1  0  0  3  0  0  0  0  0  0
  161.8700  203.7550  147.3020 C   0  0  0  0  0  3  0  0  0  0  0  0
  161.5590  200.6370  147.4160 F   0  0  0  0  0  0  0  0  0  0  0  0
  162.0520  203.5070  145.8290 C   0  0  2  0  0  3  0  0  0  0  0  0
  161.1900  202.8850  148.0680 C   0  0  0  0  0  0  0  0  0  0  0  0
  162.3220  204.8190  145.1080 C   0  0  0  0  0  2  0  0  0  0  0  0
  160.4300  206.2780  145.0300 O   0  0  0  0  0  1  0  0  0  0  0  0
  161.1030  205.2800  144.3250 C   0  0  1  0  0  3  0  0  0  0  0  0
  161.5450  205.8290  142.9860 C   0  0  0  0  0  1  0  0  0  0  0  0
  160.4380  205.5450  149.3280 C   0  0  0  0  0  2  0  0  0  0  0  0
  161.6370  206.3520  149.1850 N   0  0  0  0  0  2  0  0  0  0  0  0
  161.2510  207.7220  149.4720 C   0  0  0  0  0  2  0  0  0  0  0  0
  162.0620  208.2600  150.6420 C   0  0  2  0  0  3  0  0  0  0  0  0
  162.8900  207.1240  151.2240 C   0  0  0  0  0  1  0  0  0  0  0  0
  160.8960  209.1610  154.2480 C   0  0  0  0  0  2  0  0  0  0  0  0
  161.1380  208.8570  151.7080 C   0  0  2  0  0  3  0  0  0  0  0  0
  159.7770  210.9270  152.8190 C   0  0  2  0  0  3  0  0  0  0  0  0
  161.1980  210.6860  151.6800 S   0  0  0  0  0  0  0  0  0  0  0  0
  161.5110  208.3440  153.1070 C   0  0  0  0  0  2  0  0  0  0  0  0
  159.9360  212.2490  153.5430 C   0  0  0  0  0  1  0  0  0  0  0  0
  159.5740  209.7970  153.8360 C   0  0  0  0  0  2  0  0  0  0  0  0
  1  3  1  0  0  0  0
  1  2  1  0  0  0  0
  4  6  1  0  0  0  0
  4  7  2  0  0  0  0
  5  2  2  0  0  0  0
  6  1  2  0  0  0  0
  7  5  1  0  0  0  0
  8 10  1  0  0  0  0
  9 13  1  0  0  0  0
  9  8  2  0  0  0  0
 10 12  1  6  0  0  0
 10 14  1  0  0  0  0
 11 14  2  0  0  0  0
 13 15  1  6  0  0  0
 13 11  1  0  0  0  0
 14  4  1  0  0  0  0
 17 18  1  6  0  0  0
 17 16  1  0  0  0  0
 17 15  1  0  0  0  0
 19  6  1  0  0  0  0
 20 19  1  0  0  0  0
 20 21  1  0  0  0  0
 21 22  1  0  0  0  0
 22 23  1  1  0  0  0
 25 22  1  6  0  0  0
 25 28  1  0  0  0  0
 26 29  1  1  0  0  0
 26 30  1  0  0  0  0
 27 25  1  0  0  0  0
 27 26  1  0  0  0  0
 28 24  1  0  0  0  0
 30 24  1  0  0  0  0
M  END
>  <MODEL>
5

>  <REMARK>
 VINA RESULT:      -8.0      2.660      3.117
  Name = 
  8 active torsions:
  status: ('A' for Active; 'I' for Inactive)
    1  A    between atoms: N_1  and  C_4
    2  A    between atoms: N_1  and  C_5
    3  A    between atoms: C_4  and  C_27
    4  A    between atoms: C_5  and  C_22
    5  A    between atoms: C_8  and  C_27
    6  A    between atoms: C_15  and  C_16
    7  A    between atoms: C_16  and  C_25
    8  A    between atoms: C_19  and  C_29
                            x       y       z     vdW  Elec       q    Type
                         _______ _______ _______ _____ _____    ______ ____

>  <TORSDO>
F 8

$$$$
=
 OpenBabel11052421463D

 30 32  0  0  1  0  0  0  0  0999 V2000
  160.9030  201.6940  150.0950 C   0  0  0  0  0  0  0  0  0  0  0  0
  161.0210  200.4770  149.4210 C   0  0  0  0  0  3  0  0  0  0  0  0
  160.7080  201.6870  151.4370 F   0  0  0  0  0  0  0  0  0  0  0  0
  161.1810  202.8920  147.9830 C   0  0  0  0  0  0  0  0  0  0  0  0
  161.2070  200.4560  148.0410 C   0  0  0  0  0  3  0  0  0  0  0  0
  160.9720  202.9070  149.3880 C   0  0  0  0  0  0  0  0  0  0  0  0
  161.2850  201.6540  147.3300 C   0  0  0  0  0  3  0  0  0  0  0  0
  160.7920  205.1890  144.9570 C   0  0  0  0  0  3  0  0  0  0  0  0
  160.8290  206.4000  145.5330 C   0  0  0  0  0  3  0  0  0  0  0  0
  161.4210  204.0040  145.6490 C   0  0  1  0  0  3  0  0  0  0  0  0
  161.3300  205.3420  147.7140 C   0  0  0  0  0  3  0  0  0  0  0  0
  162.7610  203.9280  145.3110 F   0  0  0  0  0  0  0  0  0  0  0  0
  161.5100  206.5730  146.8680 C   0  0  2  0  0  3  0  0  0  0  0  0
  161.2840  204.1220  147.1540 C   0  0  0  0  0  0  0  0  0  0  0  0
  160.9760  207.7940  147.6030 C   0  0  0  0  0  2  0  0  0  0  0  0
  163.2610  207.8670  148.3020 O   0  0  0  0  0  1  0  0  0  0  0  0
  161.9770  208.3040  148.6270 C   0  0  1  0  0  3  0  0  0  0  0  0
  161.9560  209.8170  148.6400 C   0  0  0  0  0  1  0  0  0  0  0  0
  160.7850  204.1830  150.1490 C   0  0  0  0  0  2  0  0  0  0  0  0
  161.7630  204.2690  151.2190 N   0  0  0  0  0  2  0  0  0  0  0  0
  161.1740  205.1000  152.2530 C   0  0  0  0  0  2  0  0  0  0  0  0
  161.2670  206.5690  151.8590 C   0  0  2  0  0  3  0  0  0  0  0  0
  162.7070  206.8800  151.4770 C   0  0  0  0  0  1  0  0  0  0  0  0
  161.1230  207.8560  155.5320 C   0  0  0  0  0  2  0  0  0  0  0  0
  160.8080  207.4650  153.0130 C   0  0  2  0  0  3  0  0  0  0  0  0
  160.4700  209.8940  154.1790 C   0  0  2  0  0  3  0  0  0  0  0  0
  161.5000  209.1510  152.8510 S   0  0  0  0  0  0  0  0  0  0  0  0
  161.2080  206.8640  154.3680 C   0  0  0  0  0  2  0  0  0  0  0  0
  161.2040  211.0770  154.7770 C   0  0  0  0  0  1  0  0  0  0  0  0
  160.0590  208.9190  155.2890 C   0  0  0  0  0  2  0  0  0  0  0  0
  1  3  1  0  0  0  0
  2  1  1  0  0  0  0
  4  6  1  0  0  0  0
  5  2  2  0  0  0  0
  6  1  2  0  0  0  0
  6 19  1  0  0  0  0
  7  4  2  0  0  0  0
  7  5  1  0  0  0  0
  8  9  2  0  0  0  0
  8 10  1  0  0  0  0
  9 13  1  0  0  0  0
 10 12  1  1  0  0  0
 10 14  1  0  0  0  0
 13 15  1  1  0  0  0
 13 11  1  0  0  0  0
 14 11  2  0  0  0  0
 14  4  1  0  0  0  0
 15 17  1  0  0  0  0
 16 17  1  0  0  0  0
 17 18  1  6  0  0  0
 19 20  1  0  0  0  0
 20 21  1  0  0  0  0
 22 23  1  1  0  0  0
 22 21  1  0  0  0  0
 25 22  1  6  0  0  0
 25 28  1  0  0  0  0
 26 29  1  1  0  0  0
 26 30  1  0  0  0  0
 27 25  1  0  0  0  0
 27 26  1  0  0  0  0
 28 24  1  0  0  0  0
 30 24  1  0  0  0  0
M  END
>  <MODEL>
6

>  <REMARK>
 VINA RESULT:      -7.9      2.703      5.119
  Name = 
  8 active torsions:
  status: ('A' for Active; 'I' for Inactive)
    1  A    between atoms: N_1  and  C_4
    2  A    between atoms: N_1  and  C_5
    3  A    between atoms: C_4  and  C_27
    4  A    between atoms: C_5  and  C_22
    5  A    between atoms: C_8  and  C_27
    6  A    between atoms: C_15  and  C_16
    7  A    between atoms: C_16  and  C_25
    8  A    between atoms: C_19  and  C_29
                            x       y       z     vdW  Elec       q    Type
                         _______ _______ _______ _____ _____    ______ ____

>  <TORSDO>
F 8

$$$$
=
 OpenBabel11052421463D

 30 32  0  0  1  0  0  0  0  0999 V2000
  162.0860  209.4240  151.2040 C   0  0  0  0  0  0  0  0  0  0  0  0
  162.2090  210.4120  150.2250 C   0  0  0  0  0  3  0  0  0  0  0  0
  162.2300  209.7680  152.5090 F   0  0  0  0  0  0  0  0  0  0  0  0
  161.6770  207.7520  149.4690 C   0  0  0  0  0  0  0  0  0  0  0  0
  162.0800  210.0820  148.8790 C   0  0  0  0  0  3  0  0  0  0  0  0
  161.8290  208.0900  150.8400 C   0  0  0  0  0  0  0  0  0  0  0  0
  161.8170  208.7640  148.5060 C   0  0  0  0  0  3  0  0  0  0  0  0
  161.7650  204.6810  147.2020 C   0  0  0  0  0  3  0  0  0  0  0  0
  161.4930  203.6970  148.0710 C   0  0  0  0  0  3  0  0  0  0  0  0
  161.3310  206.0950  147.5000 C   0  0  1  0  0  3  0  0  0  0  0  0
  161.1060  205.3800  149.8460 C   0  0  0  0  0  3  0  0  0  0  0  0
  160.0390  206.2900  147.0420 F   0  0  0  0  0  0  0  0  0  0  0  0
  160.7420  204.0090  149.3430 C   0  0  2  0  0  3  0  0  0  0  0  0
  161.3890  206.3750  148.9880 C   0  0  0  0  0  0  0  0  0  0  0  0
  161.0230  202.9680  150.4160 C   0  0  0  0  0  2  0  0  0  0  0  0
  159.2730  201.7630  149.3200 O   0  0  0  0  0  1  0  0  0  0  0  0
  160.4660  201.6080  150.0260 C   0  0  1  0  0  3  0  0  0  0  0  0
  161.4690  200.8850  149.1550 C   0  0  0  0  0  1  0  0  0  0  0  0
  161.7600  207.0600  151.9240 C   0  0  0  0  0  2  0  0  0  0  0  0
  160.8350  207.4900  152.9580 N   0  0  0  0  0  2  0  0  0  0  0  0
  160.8090  206.4360  153.9550 C   0  0  0  0  0  2  0  0  0  0  0  0
  160.7210  207.0380  155.3510 C   0  0  2  0  0  3  0  0  0  0  0  0
  159.3310  206.7710  155.9100 C   0  0  0  0  0  1  0  0  0  0  0  0
  159.8970  210.8320  155.6590 C   0  0  0  0  0  2  0  0  0  0  0  0
  161.0070  208.5420  155.3070 C   0  0  2  0  0  3  0  0  0  0  0  0
  162.3930  210.7460  156.0760 C   0  0  2  0  0  3  0  0  0  0  0  0
  162.0740  209.0490  156.7040 S   0  0  0  0  0  0  0  0  0  0  0  0
  159.7010  209.3490  155.3270 C   0  0  0  0  0  2  0  0  0  0  0  0
  162.6780  211.6660  157.2470 C   0  0  0  0  0  1  0  0  0  0  0  0
  161.2670  211.3310  155.2160 C   0  0  0  0  0  2  0  0  0  0  0  0
  1  3  1  0  0  0  0
  2  1  2  0  0  0  0
  4  6  2  0  0  0  0
  5  2  1  0  0  0  0
  6  1  1  0  0  0  0
  6 19  1  0  0  0  0
  7  5  2  0  0  0  0
  7  4  1  0  0  0  0
  8 10  1  0  0  0  0
  8  9  2  0  0  0  0
  9 13  1  0  0  0  0
 10 12  1  1  0  0  0
 10 14  1  0  0  0  0
 13 11  1  0  0  0  0
 13 15  1  1  0  0  0
 14  4  1  0  0  0  0
 14 11  2  0  0  0  0
 16 17  1  0  0  0  0
 17 18  1  6  0  0  0
 17 15  1  0  0  0  0
 19 20  1  0  0  0  0
 20 21  1  0  0  0  0
 21 22  1  0  0  0  0
 22 23  1  6  0  0  0
 25 28  1  0  0  0  0
 25 22  1  1  0  0  0
 25 27  1  0  0  0  0
 26 27  1  0  0  0  0
 26 29  1  1  0  0  0
 28 24  1  0  0  0  0
 30 24  1  0  0  0  0
 30 26  1  0  0  0  0
M  END
>  <MODEL>
7

>  <REMARK>
 VINA RESULT:      -7.7      3.664      6.037
  Name = 
  8 active torsions:
  status: ('A' for Active; 'I' for Inactive)
    1  A    between atoms: N_1  and  C_4
    2  A    between atoms: N_1  and  C_5
    3  A    between atoms: C_4  and  C_27
    4  A    between atoms: C_5  and  C_22
    5  A    between atoms: C_8  and  C_27
    6  A    between atoms: C_15  and  C_16
    7  A    between atoms: C_16  and  C_25
    8  A    between atoms: C_19  and  C_29
                            x       y       z     vdW  Elec       q    Type
                         _______ _______ _______ _____ _____    ______ ____

>  <TORSDO>
F 8

$$$$
=
 OpenBabel11052421463D

 30 32  0  0  1  0  0  0  0  0999 V2000
  160.9890  207.7020  152.1310 C   0  0  0  0  0  0  0  0  0  0  0  0
  161.0820  207.3170  153.4700 C   0  0  0  0  0  3  0  0  0  0  0  0
  160.8800  209.0210  151.8320 F   0  0  0  0  0  0  0  0  0  0  0  0
  161.1140  205.3600  151.4460 C   0  0  0  0  0  0  0  0  0  0  0  0
  161.1800  205.9690  153.8040 C   0  0  0  0  0  3  0  0  0  0  0  0
  160.9950  206.7350  151.1110 C   0  0  0  0  0  0  0  0  0  0  0  0
  161.1950  205.0010  152.8000 C   0  0  0  0  0  3  0  0  0  0  0  0
  160.2300  202.0570  149.7470 C   0  0  0  0  0  3  0  0  0  0  0  0
  160.5620  202.3120  148.4730 C   0  0  0  0  0  3  0  0  0  0  0  0
  160.8690  202.8410  150.8670 C   0  0  1  0  0  3  0  0  0  0  0  0
  161.4840  204.5050  149.1590 C   0  0  0  0  0  3  0  0  0  0  0  0
  162.0540  202.2320  151.2410 F   0  0  0  0  0  0  0  0  0  0  0  0
  161.5850  203.3790  148.1660 C   0  0  2  0  0  3  0  0  0  0  0  0
  161.1450  204.2680  150.4380 C   0  0  0  0  0  0  0  0  0  0  0  0
  161.4140  203.9130  146.7520 C   0  0  0  0  0  2  0  0  0  0  0  0
  163.0310  205.3990  145.8060 O   0  0  0  0  0  1  0  0  0  0  0  0
  161.9130  205.3450  146.6380 C   0  0  1  0  0  3  0  0  0  0  0  0
  160.8180  206.2130  146.0570 C   0  0  0  0  0  1  0  0  0  0  0  0
  160.8370  207.1970  149.6950 C   0  0  0  0  0  2  0  0  0  0  0  0
  162.0320  207.9050  149.2700 N   0  0  0  0  0  2  0  0  0  0  0  0
  161.5830  209.1430  148.6600 C   0  0  0  0  0  2  0  0  0  0  0  0
  162.5040  210.2870  149.0620 C   0  0  2  0  0  3  0  0  0  0  0  0
  162.6390  210.2940  150.5780 C   0  0  0  0  0  1  0  0  0  0  0  0
  162.6240  213.7590  147.2990 C   0  0  0  0  0  2  0  0  0  0  0  0
  161.9500  211.6250  148.5620 C   0  0  2  0  0  3  0  0  0  0  0  0
  160.1820  213.1090  147.1320 C   0  0  2  0  0  3  0  0  0  0  0  0
  160.8000  211.3780  147.1610 S   0  0  0  0  0  0  0  0  0  0  0  0
  163.0880  212.5680  148.1450 C   0  0  0  0  0  2  0  0  0  0  0  0
  159.7280  213.4530  145.7280 C   0  0  0  0  0  1  0  0  0  0  0  0
  161.1890  214.1550  147.6250 C   0  0  0  0  0  2  0  0  0  0  0  0
  1  2  1  0  0  0  0
  2  5  2  0  0  0  0
  3  1  1  0  0  0  0
  4  7  2  0  0  0  0
  6  4  1  0  0  0  0
  6  1  2  0  0  0  0
  7  5  1  0  0  0  0
  8 10  1  0  0  0  0
  9  8  2  0  0  0  0
 10 12  1  6  0  0  0
 11 14  2  0  0  0  0
 13 15  1  6  0  0  0
 13  9  1  0  0  0  0
 13 11  1  0  0  0  0
 14 10  1  0  0  0  0
 14  4  1  0  0  0  0
 16 17  1  0  0  0  0
 17 18  1  6  0  0  0
 17 15  1  0  0  0  0
 19  6  1  0  0  0  0
 20 19  1  0  0  0  0
 21 22  1  0  0  0  0
 21 20  1  0  0  0  0
 22 23  1  1  0  0  0
 24 30  1  0  0  0  0
 24 28  1  0  0  0  0
 25 22  1  6  0  0  0
 26 29  1  6  0  0  0
 26 27  1  0  0  0  0
 26 30  1  0  0  0  0
 27 25  1  0  0  0  0
 28 25  1  0  0  0  0
M  END
>  <MODEL>
8

>  <REMARK>
 VINA RESULT:      -7.7      1.499      2.230
  Name = 
  8 active torsions:
  status: ('A' for Active; 'I' for Inactive)
    1  A    between atoms: N_1  and  C_4
    2  A    between atoms: N_1  and  C_5
    3  A    between atoms: C_4  and  C_27
    4  A    between atoms: C_5  and  C_22
    5  A    between atoms: C_8  and  C_27
    6  A    between atoms: C_15  and  C_16
    7  A    between atoms: C_16  and  C_25
    8  A    between atoms: C_19  and  C_29
                            x       y       z     vdW  Elec       q    Type
                         _______ _______ _______ _____ _____    ______ ____

>  <TORSDO>
F 8

$$$$
=
 OpenBabel11052421463D

 30 32  0  0  1  0  0  0  0  0999 V2000
  161.9150  209.0890  152.5760 C   0  0  0  0  0  0  0  0  0  0  0  0
  161.4310  208.7080  153.8290 C   0  0  0  0  0  3  0  0  0  0  0  0
  162.4590  210.3230  152.4280 F   0  0  0  0  0  0  0  0  0  0  0  0
  161.2560  206.9210  151.6600 C   0  0  0  0  0  0  0  0  0  0  0  0
  160.8540  207.4520  154.0040 C   0  0  0  0  0  3  0  0  0  0  0  0
  161.8260  208.2100  151.4820 C   0  0  0  0  0  0  0  0  0  0  0  0
  160.7680  206.5690  152.9280 C   0  0  0  0  0  3  0  0  0  0  0  0
  161.6390  205.3660  148.1940 C   0  0  0  0  0  3  0  0  0  0  0  0
  161.5540  204.0580  148.4750 C   0  0  0  0  0  3  0  0  0  0  0  0
  161.0310  206.3820  149.1300 C   0  0  1  0  0  3  0  0  0  0  0  0
  161.0390  204.6040  150.8340 C   0  0  0  0  0  3  0  0  0  0  0  0
  159.7020  206.5790  148.8000 F   0  0  0  0  0  0  0  0  0  0  0  0
  160.8400  203.6060  149.7260 C   0  0  2  0  0  3  0  0  0  0  0  0
  161.1340  205.9180  150.5690 C   0  0  0  0  0  0  0  0  0  0  0  0
  161.3220  202.2320  150.1670 C   0  0  0  0  0  2  0  0  0  0  0  0
  159.2370  201.6010  149.1800 O   0  0  0  0  0  1  0  0  0  0  0  0
  160.5040  201.1260  149.5200 C   0  0  1  0  0  3  0  0  0  0  0  0
  161.2070  200.6470  148.2700 C   0  0  0  0  0  1  0  0  0  0  0  0
  162.3090  208.6870  150.1480 C   0  0  0  0  0  2  0  0  0  0  0  0
  161.6130  209.9060  149.7770 N   0  0  0  0  0  2  0  0  0  0  0  0
  162.3260  210.4610  148.6400 C   0  0  0  0  0  2  0  0  0  0  0  0
  161.9670  211.9300  148.4630 C   0  0  2  0  0  3  0  0  0  0  0  0
  161.1180  212.3690  149.6470 C   0  0  0  0  0  1  0  0  0  0  0  0
  159.0850  213.2060  146.1750 C   0  0  0  0  0  2  0  0  0  0  0  0
  161.2130  212.1450  147.1470 C   0  0  2  0  0  3  0  0  0  0  0  0
  161.0530  213.0420  144.5900 C   0  0  2  0  0  3  0  0  0  0  0  0
  162.0820  213.3500  146.0810 S   0  0  0  0  0  0  0  0  0  0  0  0
  159.7760  212.6190  147.4100 C   0  0  0  0  0  2  0  0  0  0  0  0
  161.0340  214.2900  143.7300 C   0  0  0  0  0  1  0  0  0  0  0  0
  159.6170  212.5920  144.8860 C   0  0  0  0  0  2  0  0  0  0  0  0
  1  2  1  0  0  0  0
  2  5  2  0  0  0  0
  3  1  1  0  0  0  0
  4  7  2  0  0  0  0
  6  4  1  0  0  0  0
  6  1  2  0  0  0  0
  7  5  1  0  0  0  0
  8  9  2  0  0  0  0
  8 10  1  0  0  0  0
  9 13  1  0  0  0  0
 10 12  1  6  0  0  0
 10 14  1  0  0  0  0
 13 15  1  1  0  0  0
 13 11  1  0  0  0  0
 14 11  2  0  0  0  0
 14  4  1  0  0  0  0
 16 17  1  0  0  0  0
 17 18  1  6  0  0  0
 17 15  1  0  0  0  0
 19  6  1  0  0  0  0
 20 19  1  0  0  0  0
 21 20  1  0  0  0  0
 22 21  1  0  0  0  0
 22 23  1  1  0  0  0
 24 28  1  0  0  0  0
 25 28  1  0  0  0  0
 25 22  1  1  0  0  0
 26 29  1  1  0  0  0
 26 30  1  0  0  0  0
 26 27  1  0  0  0  0
 27 25  1  0  0  0  0
 30 24  1  0  0  0  0
M  END
>  <MODEL>
9

>  <REMARK>
 VINA RESULT:      -7.7      2.564      3.947
  Name = 
  8 active torsions:
  status: ('A' for Active; 'I' for Inactive)
    1  A    between atoms: N_1  and  C_4
    2  A    between atoms: N_1  and  C_5
    3  A    between atoms: C_4  and  C_27
    4  A    between atoms: C_5  and  C_22
    5  A    between atoms: C_8  and  C_27
    6  A    between atoms: C_15  and  C_16
    7  A    between atoms: C_16  and  C_25
    8  A    between atoms: C_19  and  C_29
                            x       y       z     vdW  Elec       q    Type
                         _______ _______ _______ _____ _____    ______ ____

>  <TORSDO>
F 8

$$$$
