=
 OpenBabel11062407463D

 34 38  0  0  1  0  0  0  0  0999 V2000
  161.7510  210.3360  155.3930 C   0  0  0  0  0  0  0  0  0  0  0  0
  160.0090  208.8430  156.0190 C   0  0  1  0  0  3  0  0  0  0  0  0
  161.3510  208.6370  153.6770 C   0  0  0  0  0  0  0  0  0  0  0  0
  162.0390  207.0150  151.0940 C   0  0  0  0  0  3  0  0  0  0  0  0
  161.8820  211.8120  157.2600 O   0  0  0  0  0  0  0  0  0  0  0  0
  159.6880  210.2750  157.1200 S   0  0  0  0  0  0  0  0  0  0  0  0
  160.0770  206.5620  154.2010 C   0  0  0  0  0  1  0  0  0  0  0  0
  161.0510  209.2720  155.0100 C   0  0  0  0  0  0  0  0  0  0  0  0
  161.7450  206.5710  152.3160 C   0  0  0  0  0  0  0  0  0  0  0  0
  161.2550  210.9390  156.6070 C   0  0  0  0  0  0  0  0  0  0  0  0
  162.0820  209.5190  152.7140 C   0  0  0  0  0  0  0  0  0  0  0  0
  162.9760  210.7890  154.6580 C   0  0  0  0  0  2  0  0  0  0  0  0
  160.5630  207.7260  156.8900 C   0  0  0  0  0  1  0  0  0  0  0  0
  161.8020  208.3560  150.5630 C   0  0  0  0  0  3  0  0  0  0  0  0
  161.7820  209.4940  151.2590 C   0  0  0  0  0  0  0  0  0  0  0  0
  161.0370  207.3510  153.3700 C   0  0  2  0  0  3  0  0  0  0  0  0
  162.8040  210.5480  153.1880 C   0  0  0  0  0  2  0  0  0  0  0  0
  161.8510  212.2400  148.6320 C   0  0  0  0  0  0  0  0  0  0  0  0
  160.9300  213.1510  149.1540 C   0  0  0  0  0  3  0  0  0  0  0  0
  161.4730  210.7540  150.5250 C   0  0  0  0  0  0  0  0  0  0  0  0
  160.2820  212.8750  150.3600 C   0  0  0  0  0  3  0  0  0  0  0  0
  162.1230  211.0520  149.3150 C   0  0  0  0  0  3  0  0  0  0  0  0
  160.5540  211.6850  151.0430 C   0  0  0  0  0  3  0  0  0  0  0  0
  162.6660  212.5860  147.1230 Cl  0  0  0  0  0  0  0  0  0  0  0  0
  162.1080  205.1500  152.6020 C   0  0  0  0  0  2  0  0  0  0  0  0
  161.9660  204.3190  151.3410 C   0  0  0  0  0  2  0  0  0  0  0  0
  160.5030  204.2360  150.9530 C   0  0  0  0  0  2  0  0  0  0  0  0
  161.2580  205.0620  148.1850 C   0  0  0  0  0  1  0  0  0  0  0  0
  160.3170  203.2230  149.8320 C   0  0  1  0  0  3  0  0  0  0  0  0
  160.9980  203.6320  148.5300 C   0  0  0  0  0  0  0  0  0  0  0  0
  161.0500  201.2320  147.9200 C   0  0  0  0  0  2  0  0  0  0  0  0
  161.1640  200.9400  149.3940 C   0  0  0  0  0  3  0  0  0  0  0  0
  160.8160  201.8740  150.2910 C   0  0  0  0  0  3  0  0  0  0  0  0
  161.3440  202.6850  147.6420 C   0  0  0  0  0  3  0  0  0  0  0  0
  1 10  1  0  0  0  0
  2 13  1  1  0  0  0
  2  6  1  0  0  0  0
  3  8  1  0  0  0  0
  4  9  2  0  0  0  0
  8  1  2  0  0  0  0
  8  2  1  0  0  0  0
  9 25  1  0  0  0  0
  9 16  1  0  0  0  0
 10  6  1  0  0  0  0
 10  5  2  0  0  0  0
 11 17  1  0  0  0  0
 11  3  2  0  0  0  0
 12  1  1  0  0  0  0
 14  4  1  0  0  0  0
 14 15  2  0  0  0  0
 15 11  1  0  0  0  0
 16  3  1  0  0  0  0
 16  7  1  1  0  0  0
 17 12  1  0  0  0  0
 18 19  2  0  0  0  0
 18 22  1  0  0  0  0
 19 21  1  0  0  0  0
 20 23  1  0  0  0  0
 20 15  1  0  0  0  0
 21 23  2  0  0  0  0
 22 20  2  0  0  0  0
 24 18  1  0  0  0  0
 26 25  1  0  0  0  0
 27 26  1  0  0  0  0
 28 30  1  0  0  0  0
 29 33  1  0  0  0  0
 29 27  1  1  0  0  0
 30 29  1  0  0  0  0
 31 32  1  0  0  0  0
 32 33  2  0  0  0  0
 34 31  1  0  0  0  0
 34 30  2  0  0  0  0
M  END
>  <MODEL>
1

>  <REMARK>
 VINA RESULT:      -7.8      0.000      0.000
  Name = 
  5 active torsions:
  status: ('A' for Active; 'I' for Inactive)
    1  A    between atoms: C_3  and  C_13
    2  A    between atoms: C_3  and  C_17
    3  A    between atoms: C_12  and  C_28
    4  A    between atoms: C_17  and  C_29
    5  A    between atoms: C_18  and  C_29
                            x       y       z     vdW  Elec       q    Type
                         _______ _______ _______ _____ _____    ______ ____

>  <TORSDO>
F 5

$$$$
=
 OpenBabel11062407463D

 34 38  0  0  1  0  0  0  0  0999 V2000
  159.6800  212.3310  151.6070 C   0  0  0  0  0  0  0  0  0  0  0  0
  161.3330  212.7630  149.9550 C   0  0  1  0  0  3  0  0  0  0  0  0
  160.9690  210.3220  151.0670 C   0  0  0  0  0  0  0  0  0  0  0  0
  161.5520  207.2510  151.0870 C   0  0  0  0  0  3  0  0  0  0  0  0
  158.6250  214.4530  151.8700 O   0  0  0  0  0  0  0  0  0  0  0  0
  160.9720  214.4530  150.5720 S   0  0  0  0  0  0  0  0  0  0  0  0
  162.3380  210.1990  148.9900 C   0  0  0  0  0  1  0  0  0  0  0  0
  160.6550  211.7860  150.8870 C   0  0  0  0  0  0  0  0  0  0  0  0
  161.4730  208.0880  150.0530 C   0  0  0  0  0  0  0  0  0  0  0  0
  159.5940  213.7650  151.4570 C   0  0  0  0  0  0  0  0  0  0  0  0
  160.4740  209.7290  152.3490 C   0  0  0  0  0  0  0  0  0  0  0  0
  158.7320  211.5030  152.4210 C   0  0  0  0  0  2  0  0  0  0  0  0
  160.7260  212.6570  148.5640 C   0  0  0  0  0  1  0  0  0  0  0  0
  161.7080  207.6040  152.4980 C   0  0  0  0  0  3  0  0  0  0  0  0
  161.2690  208.7150  153.0910 C   0  0  0  0  0  0  0  0  0  0  0  0
  161.6050  209.5700  150.1310 C   0  0  0  0  0  0  0  0  0  0  0  0
  159.4540  210.3200  152.9920 C   0  0  0  0  0  3  0  0  0  0  0  0
  162.6910  210.1380  156.3150 C   0  0  0  0  0  0  0  0  0  0  0  0
  162.1970  209.2370  157.2610 C   0  0  0  0  0  3  0  0  0  0  0  0
  161.5760  208.9010  154.5370 C   0  0  0  0  0  0  0  0  0  0  0  0
  161.4010  208.1650  156.8540 C   0  0  0  0  0  3  0  0  0  0  0  0
  162.3840  209.9690  154.9630 C   0  0  0  0  0  3  0  0  0  0  0  0
  161.0940  207.9970  155.5000 C   0  0  0  0  0  3  0  0  0  0  0  0
  163.6920  211.4800  156.8220 Cl  0  0  0  0  0  0  0  0  0  0  0  0
  161.3040  207.4560  148.7090 C   0  0  0  0  0  2  0  0  0  0  0  0
  161.8980  206.0610  148.7200 C   0  0  0  0  0  2  0  0  0  0  0  0
  160.7820  205.0350  148.6720 C   0  0  0  0  0  2  0  0  0  0  0  0
  160.4060  203.8390  151.3810 C   0  0  0  0  0  1  0  0  0  0  0  0
  161.3410  203.6410  148.9180 C   0  0  1  0  0  3  0  0  0  0  0  0
  160.8460  203.0130  150.2160 C   0  0  0  0  0  0  0  0  0  0  0  0
  161.3250  200.8010  149.2110 C   0  0  0  0  0  2  0  0  0  0  0  0
  161.0000  201.4230  147.8770 C   0  0  0  0  0  3  0  0  0  0  0  0
  161.0120  202.7570  147.7390 C   0  0  0  0  0  3  0  0  0  0  0  0
  160.8360  201.6750  150.3380 C   0  0  0  0  0  3  0  0  0  0  0  0
  1 12  1  0  0  0  0
  2 13  1  6  0  0  0
  2  6  1  0  0  0  0
  2  8  1  0  0  0  0
  3 11  1  0  0  0  0
  4 14  1  0  0  0  0
  6 10  1  0  0  0  0
  7 16  1  0  0  0  0
  8  3  1  0  0  0  0
  8  1  2  0  0  0  0
  9 16  1  0  0  0  0
  9  4  2  0  0  0  0
 10  1  1  0  0  0  0
 10  5  2  0  0  0  0
 11 17  2  0  0  0  0
 11 15  1  0  0  0  0
 12 17  1  0  0  0  0
 14 15  2  0  0  0  0
 15 20  1  0  0  0  0
 16  3  2  0  0  0  0
 18 24  1  0  0  0  0
 18 19  1  0  0  0  0
 20 22  1  0  0  0  0
 20 23  2  0  0  0  0
 21 19  2  0  0  0  0
 22 18  2  0  0  0  0
 23 21  1  0  0  0  0
 25 26  1  0  0  0  0
 25  9  1  0  0  0  0
 27 26  1  0  0  0  0
 29 27  1  6  0  0  0
 29 30  1  0  0  0  0
 30 34  2  0  0  0  0
 30 28  1  0  0  0  0
 31 34  1  0  0  0  0
 32 31  1  0  0  0  0
 33 32  2  0  0  0  0
 33 29  1  0  0  0  0
M  END
>  <MODEL>
2

>  <REMARK>
 VINA RESULT:      -7.0      2.705      5.243
  Name = 
  5 active torsions:
  status: ('A' for Active; 'I' for Inactive)
    1  A    between atoms: C_3  and  C_13
    2  A    between atoms: C_3  and  C_17
    3  A    between atoms: C_12  and  C_28
    4  A    between atoms: C_17  and  C_29
    5  A    between atoms: C_18  and  C_29
                            x       y       z     vdW  Elec       q    Type
                         _______ _______ _______ _____ _____    ______ ____

>  <TORSDO>
F 5

$$$$
=
 OpenBabel11062407463D

 34 38  0  0  1  0  0  0  0  0999 V2000
  161.4680  212.2240  149.0350 C   0  0  0  0  0  0  0  0  0  0  0  0
  159.5470  213.2390  149.9980 C   0  0  1  0  0  3  0  0  0  0  0  0
  160.8110  211.1240  151.1200 C   0  0  0  0  0  0  0  0  0  0  0  0
  161.2290  209.2110  153.5580 C   0  0  0  0  0  3  0  0  0  0  0  0
  161.8320  213.5290  147.0740 O   0  0  0  0  0  0  0  0  0  0  0  0
  159.4440  213.8190  148.2610 S   0  0  0  0  0  0  0  0  0  0  0  0
  159.2710  212.2410  152.7260 C   0  0  0  0  0  1  0  0  0  0  0  0
  160.6220  212.1780  150.0590 C   0  0  0  0  0  0  0  0  0  0  0  0
  160.8950  210.5020  153.5450 C   0  0  0  0  0  0  0  0  0  0  0  0
  161.0790  213.1690  148.0150 C   0  0  0  0  0  0  0  0  0  0  0  0
  161.6430  209.9530  150.6980 C   0  0  0  0  0  0  0  0  0  0  0  0
  162.7330  211.4200  149.0100 C   0  0  0  0  0  2  0  0  0  0  0  0
  159.9550  214.4360  150.8450 C   0  0  0  0  0  1  0  0  0  0  0  0
  161.1710  208.2750  152.4360 C   0  0  0  0  0  3  0  0  0  0  0  0
  161.3190  208.5730  151.1440 C   0  0  0  0  0  0  0  0  0  0  0  0
  160.3180  211.2320  152.3810 C   0  0  2  0  0  3  0  0  0  0  0  0
  162.5070  210.0980  149.6800 C   0  0  0  0  0  2  0  0  0  0  0  0
  160.9280  205.0970  149.6600 C   0  0  0  0  0  0  0  0  0  0  0  0
  160.9500  205.3720  148.2910 C   0  0  0  0  0  3  0  0  0  0  0  0
  161.1770  207.4690  150.1530 C   0  0  0  0  0  0  0  0  0  0  0  0
  161.0920  206.6880  147.8460 C   0  0  0  0  0  3  0  0  0  0  0  0
  161.0430  206.1380  150.5840 C   0  0  0  0  0  3  0  0  0  0  0  0
  161.2070  207.7300  148.7710 C   0  0  0  0  0  3  0  0  0  0  0  0
  160.7550  203.4480  150.2190 Cl  0  0  0  0  0  0  0  0  0  0  0  0
  161.0620  211.2340  154.8370 C   0  0  0  0  0  2  0  0  0  0  0  0
  160.2340  210.5660  155.9180 C   0  0  0  0  0  2  0  0  0  0  0  0
  159.7670  211.6090  156.9140 C   0  0  0  0  0  2  0  0  0  0  0  0
  159.1640  214.4320  156.1520 C   0  0  0  0  0  1  0  0  0  0  0  0
  158.3160  211.9770  156.6430 C   0  0  1  0  0  3  0  0  0  0  0  0
  158.1530  213.3430  155.9840 C   0  0  0  0  0  0  0  0  0  0  0  0
  155.9770  212.5510  155.1090 C   0  0  0  0  0  2  0  0  0  0  0  0
  156.5810  211.1710  155.0750 C   0  0  0  0  0  3  0  0  0  0  0  0
  157.6770  210.9010  155.7990 C   0  0  0  0  0  3  0  0  0  0  0  0
  157.0520  213.5980  155.2590 C   0  0  0  0  0  3  0  0  0  0  0  0
  1  8  2  0  0  0  0
  2  8  1  0  0  0  0
  2 13  1  1  0  0  0
  3 16  1  0  0  0  0
  5 10  2  0  0  0  0
  6  2  1  0  0  0  0
  8  3  1  0  0  0  0
  9  4  2  0  0  0  0
  9 25  1  0  0  0  0
 10  6  1  0  0  0  0
 10  1  1  0  0  0  0
 11  3  2  0  0  0  0
 11 15  1  0  0  0  0
 12  1  1  0  0  0  0
 12 17  1  0  0  0  0
 14  4  1  0  0  0  0
 15 14  2  0  0  0  0
 16  7  1  1  0  0  0
 16  9  1  0  0  0  0
 17 11  1  0  0  0  0
 18 24  1  0  0  0  0
 18 22  1  0  0  0  0
 19 18  2  0  0  0  0
 20 22  2  0  0  0  0
 20 15  1  0  0  0  0
 21 19  1  0  0  0  0
 21 23  2  0  0  0  0
 23 20  1  0  0  0  0
 25 26  1  0  0  0  0
 26 27  1  0  0  0  0
 29 27  1  6  0  0  0
 30 28  1  0  0  0  0
 30 29  1  0  0  0  0
 31 34  1  0  0  0  0
 32 31  1  0  0  0  0
 32 33  2  0  0  0  0
 33 29  1  0  0  0  0
 34 30  2  0  0  0  0
M  END
>  <MODEL>
3

>  <REMARK>
 VINA RESULT:      -7.0      3.686      8.176
  Name = 
  5 active torsions:
  status: ('A' for Active; 'I' for Inactive)
    1  A    between atoms: C_3  and  C_13
    2  A    between atoms: C_3  and  C_17
    3  A    between atoms: C_12  and  C_28
    4  A    between atoms: C_17  and  C_29
    5  A    between atoms: C_18  and  C_29
                            x       y       z     vdW  Elec       q    Type
                         _______ _______ _______ _____ _____    ______ ____

>  <TORSDO>
F 5

$$$$
=
 OpenBabel11062407463D

 34 38  0  0  1  0  0  0  0  0999 V2000
  161.9040  204.3990  151.4070 C   0  0  0  0  0  0  0  0  0  0  0  0
  160.4710  204.5070  149.5130 C   0  0  1  0  0  3  0  0  0  0  0  0
  161.3980  206.7110  150.7820 C   0  0  0  0  0  0  0  0  0  0  0  0
  161.7990  209.8100  150.8650 C   0  0  0  0  0  3  0  0  0  0  0  0
  162.1970  202.0530  151.7180 O   0  0  0  0  0  0  0  0  0  0  0  0
  160.1920  202.7890  150.0940 S   0  0  0  0  0  0  0  0  0  0  0  0
  160.4700  207.2570  148.5380 C   0  0  0  0  0  1  0  0  0  0  0  0
  161.2680  205.2230  150.5800 C   0  0  0  0  0  0  0  0  0  0  0  0
  161.7730  208.9900  149.8150 C   0  0  0  0  0  0  0  0  0  0  0  0
  161.5640  203.0110  151.2020 C   0  0  0  0  0  0  0  0  0  0  0  0
  161.8510  207.1180  152.1500 C   0  0  0  0  0  0  0  0  0  0  0  0
  162.9260  204.8880  152.3890 C   0  0  0  0  0  2  0  0  0  0  0  0
  161.2870  204.4170  148.2320 C   0  0  0  0  0  1  0  0  0  0  0  0
  161.3280  209.5230  152.2200 C   0  0  0  0  0  3  0  0  0  0  0  0
  161.3060  208.3300  152.8160 C   0  0  0  0  0  0  0  0  0  0  0  0
  161.1780  207.6240  149.8020 C   0  0  0  0  0  0  0  0  0  0  0  0
  162.5270  206.2380  152.9050 C   0  0  0  0  0  3  0  0  0  0  0  0
  159.9950  209.3490  156.2350 C   0  0  0  0  0  0  0  0  0  0  0  0
  159.7090  208.1070  156.8070 C   0  0  0  0  0  3  0  0  0  0  0  0
  160.7390  208.2500  154.1920 C   0  0  0  0  0  0  0  0  0  0  0  0
  159.9400  206.9350  156.0830 C   0  0  0  0  0  3  0  0  0  0  0  0
  160.5090  209.4190  154.9380 C   0  0  0  0  0  3  0  0  0  0  0  0
  160.4540  207.0060  154.7850 C   0  0  0  0  0  3  0  0  0  0  0  0
  159.7090  210.8180  157.1410 Cl  0  0  0  0  0  0  0  0  0  0  0  0
  162.3330  209.5380  148.5420 C   0  0  0  0  0  2  0  0  0  0  0  0
  162.4290  211.0490  148.6310 C   0  0  0  0  0  2  0  0  0  0  0  0
  161.5830  211.6750  147.5390 C   0  0  0  0  0  2  0  0  0  0  0  0
  159.0840  212.5550  146.1640 C   0  0  0  0  0  1  0  0  0  0  0  0
  160.8770  212.9140  148.0710 C   0  0  1  0  0  3  0  0  0  0  0  0
  159.4770  213.1040  147.4970 C   0  0  0  0  0  0  0  0  0  0  0  0
  158.9400  214.4390  149.5120 C   0  0  0  0  0  2  0  0  0  0  0  0
  159.9180  213.5660  150.2560 C   0  0  0  0  0  3  0  0  0  0  0  0
  160.8300  212.8530  149.5780 C   0  0  0  0  0  3  0  0  0  0  0  0
  158.5730  213.8170  148.1890 C   0  0  0  0  0  3  0  0  0  0  0  0
  1 12  1  0  0  0  0
  2 13  1  6  0  0  0
  2  6  1  0  0  0  0
  2  8  1  0  0  0  0
  3 11  1  0  0  0  0
  4 14  1  0  0  0  0
  6 10  1  0  0  0  0
  7 16  1  0  0  0  0
  8  3  1  0  0  0  0
  8  1  2  0  0  0  0
  9  4  2  0  0  0  0
 10  1  1  0  0  0  0
 10  5  2  0  0  0  0
 11 15  1  0  0  0  0
 11 17  2  0  0  0  0
 12 17  1  0  0  0  0
 14 15  2  0  0  0  0
 15 20  1  0  0  0  0
 16  9  1  0  0  0  0
 16  3  2  0  0  0  0
 18 19  1  0  0  0  0
 18 24  1  0  0  0  0
 20 23  2  0  0  0  0
 20 22  1  0  0  0  0
 21 19  2  0  0  0  0
 22 18  2  0  0  0  0
 23 21  1  0  0  0  0
 25 26  1  0  0  0  0
 25  9  1  0  0  0  0
 27 26  1  0  0  0  0
 28 30  1  0  0  0  0
 29 27  1  6  0  0  0
 29 33  1  0  0  0  0
 30 29  1  0  0  0  0
 30 34  2  0  0  0  0
 31 32  1  0  0  0  0
 33 32  2  0  0  0  0
 34 31  1  0  0  0  0
M  END
>  <MODEL>
4

>  <REMARK>
 VINA RESULT:      -6.7      3.462      7.946
  Name = 
  5 active torsions:
  status: ('A' for Active; 'I' for Inactive)
    1  A    between atoms: C_3  and  C_13
    2  A    between atoms: C_3  and  C_17
    3  A    between atoms: C_12  and  C_28
    4  A    between atoms: C_17  and  C_29
    5  A    between atoms: C_18  and  C_29
                            x       y       z     vdW  Elec       q    Type
                         _______ _______ _______ _____ _____    ______ ____

>  <TORSDO>
F 5

$$$$
=
 OpenBabel11062407463D

 34 38  0  0  1  0  0  0  0  0999 V2000
  159.2930  212.8500  150.5510 C   0  0  0  0  0  0  0  0  0  0  0  0
  161.5540  212.5860  149.8660 C   0  0  1  0  0  3  0  0  0  0  0  0
  160.4800  211.2250  151.9450 C   0  0  0  0  0  0  0  0  0  0  0  0
  160.6810  208.9360  154.0650 C   0  0  0  0  0  3  0  0  0  0  0  0
  158.4520  214.4520  148.9990 O   0  0  0  0  0  0  0  0  0  0  0  0
  161.1200  214.1990  149.1070 S   0  0  0  0  0  0  0  0  0  0  0  0
  162.6290  210.2190  151.1900 C   0  0  0  0  0  1  0  0  0  0  0  0
  160.4310  212.2090  150.8040 C   0  0  0  0  0  0  0  0  0  0  0  0
  161.1680  208.9840  152.8250 C   0  0  0  0  0  0  0  0  0  0  0  0
  159.4280  213.8750  149.5440 C   0  0  0  0  0  0  0  0  0  0  0  0
  159.3960  211.3920  152.9630 C   0  0  0  0  0  0  0  0  0  0  0  0
  158.0000  212.4650  151.2050 C   0  0  0  0  0  2  0  0  0  0  0  0
  161.6460  211.5720  148.7360 C   0  0  0  0  0  1  0  0  0  0  0  0
  160.2060  210.0620  154.8690 C   0  0  0  0  0  3  0  0  0  0  0  0
  159.6560  211.1880  154.4120 C   0  0  0  0  0  0  0  0  0  0  0  0
  161.3960  210.2260  152.0350 C   0  0  0  0  0  0  0  0  0  0  0  0
  158.2580  212.0140  152.6110 C   0  0  0  0  0  3  0  0  0  0  0  0
  157.5790  213.5830  156.5080 C   0  0  0  0  0  0  0  0  0  0  0  0
  158.5670  214.2380  157.2470 C   0  0  0  0  0  3  0  0  0  0  0  0
  159.2820  212.2340  155.4050 C   0  0  0  0  0  0  0  0  0  0  0  0
  159.9110  213.9020  157.0670 C   0  0  0  0  0  3  0  0  0  0  0  0
  157.9350  212.5910  155.5920 C   0  0  0  0  0  3  0  0  0  0  0  0
  160.2660  212.9080  156.1500 C   0  0  0  0  0  3  0  0  0  0  0  0
  155.8960  214.0050  156.7290 Cl  0  0  0  0  0  0  0  0  0  0  0  0
  161.5730  207.6740  152.2300 C   0  0  0  0  0  2  0  0  0  0  0  0
  160.6540  207.3280  151.0750 C   0  0  0  0  0  2  0  0  0  0  0  0
  161.4220  206.5320  150.0380 C   0  0  0  0  0  2  0  0  0  0  0  0
  161.7970  205.2650  147.3610 C   0  0  0  0  0  1  0  0  0  0  0  0
  160.7250  205.2050  149.7750 C   0  0  1  0  0  3  0  0  0  0  0  0
  161.2120  204.5080  148.5090 C   0  0  0  0  0  0  0  0  0  0  0  0
  160.4410  202.3770  149.5060 C   0  0  0  0  0  2  0  0  0  0  0  0
  160.7670  202.9770  150.8490 C   0  0  0  0  0  3  0  0  0  0  0  0
  160.8960  204.3060  150.9750 C   0  0  0  0  0  3  0  0  0  0  0  0
  161.0790  203.1760  148.3980 C   0  0  0  0  0  3  0  0  0  0  0  0
  1  8  2  0  0  0  0
  1 12  1  0  0  0  0
  2 13  1  6  0  0  0
  2  8  1  0  0  0  0
  3 16  2  0  0  0  0
  3 11  1  0  0  0  0
  4 14  1  0  0  0  0
  5 10  2  0  0  0  0
  6 10  1  0  0  0  0
  6  2  1  0  0  0  0
  7 16  1  0  0  0  0
  8  3  1  0  0  0  0
  9  4  2  0  0  0  0
 10  1  1  0  0  0  0
 11 15  1  0  0  0  0
 12 17  1  0  0  0  0
 15 14  2  0  0  0  0
 15 20  1  0  0  0  0
 16  9  1  0  0  0  0
 17 11  2  0  0  0  0
 18 24  1  0  0  0  0
 18 19  1  0  0  0  0
 20 22  1  0  0  0  0
 20 23  2  0  0  0  0
 21 19  2  0  0  0  0
 22 18  2  0  0  0  0
 23 21  1  0  0  0  0
 25  9  1  0  0  0  0
 26 25  1  0  0  0  0
 27 26  1  0  0  0  0
 28 30  1  0  0  0  0
 29 27  1  1  0  0  0
 29 33  1  0  0  0  0
 30 29  1  0  0  0  0
 31 32  1  0  0  0  0
 32 33  2  0  0  0  0
 34 30  2  0  0  0  0
 34 31  1  0  0  0  0
M  END
>  <MODEL>
5

>  <REMARK>
 VINA RESULT:      -6.7      3.572      5.744
  Name = 
  5 active torsions:
  status: ('A' for Active; 'I' for Inactive)
    1  A    between atoms: C_3  and  C_13
    2  A    between atoms: C_3  and  C_17
    3  A    between atoms: C_12  and  C_28
    4  A    between atoms: C_17  and  C_29
    5  A    between atoms: C_18  and  C_29
                            x       y       z     vdW  Elec       q    Type
                         _______ _______ _______ _____ _____    ______ ____

>  <TORSDO>
F 5

$$$$
=
 OpenBabel11062407463D

 34 38  0  0  1  0  0  0  0  0999 V2000
  160.4000  212.2650  150.5690 C   0  0  0  0  0  0  0  0  0  0  0  0
  162.1190  211.4330  149.1540 C   0  0  1  0  0  3  0  0  0  0  0  0
  161.1330  210.0310  151.2490 C   0  0  0  0  0  0  0  0  0  0  0  0
  160.9070  207.3450  152.8340 C   0  0  0  0  0  3  0  0  0  0  0  0
  159.9240  214.4010  149.6250 O   0  0  0  0  0  0  0  0  0  0  0  0
  162.2010  213.2350  148.8200 S   0  0  0  0  0  0  0  0  0  0  0  0
  162.4380  208.5840  149.6990 C   0  0  0  0  0  1  0  0  0  0  0  0
  161.2070  211.2320  150.3420 C   0  0  0  0  0  0  0  0  0  0  0  0
  161.0520  207.5430  151.5240 C   0  0  0  0  0  0  0  0  0  0  0  0
  160.6860  213.4060  149.7330 C   0  0  0  0  0  0  0  0  0  0  0  0
  160.4940  210.2880  152.5780 C   0  0  0  0  0  0  0  0  0  0  0  0
  159.2650  212.1890  151.5450 C   0  0  0  0  0  2  0  0  0  0  0  0
  161.5140  210.7770  147.9220 C   0  0  0  0  0  1  0  0  0  0  0  0
  161.1390  208.3160  153.9030 C   0  0  0  0  0  3  0  0  0  0  0  0
  160.9960  209.6400  153.8180 C   0  0  0  0  0  0  0  0  0  0  0  0
  161.5600  208.7920  150.8910 C   0  0  0  0  0  0  0  0  0  0  0  0
  159.6550  211.3290  152.7100 C   0  0  0  0  0  3  0  0  0  0  0  0
  160.7630  212.2270  156.5910 C   0  0  0  0  0  0  0  0  0  0  0  0
  161.9730  212.0300  157.2610 C   0  0  0  0  0  3  0  0  0  0  0  0
  161.3310  210.4550  155.0190 C   0  0  0  0  0  0  0  0  0  0  0  0
  162.8670  211.0550  156.8140 C   0  0  0  0  0  3  0  0  0  0  0  0
  160.4460  211.4470  155.4770 C   0  0  0  0  0  3  0  0  0  0  0  0
  162.5490  210.2750  155.6980 C   0  0  0  0  0  3  0  0  0  0  0  0
  159.6430  213.4500  157.1480 Cl  0  0  0  0  0  0  0  0  0  0  0  0
  160.7350  206.3750  150.6460 C   0  0  0  0  0  2  0  0  0  0  0  0
  160.7500  205.0980  151.4640 C   0  0  0  0  0  2  0  0  0  0  0  0
  161.6700  204.0870  150.8080 C   0  0  0  0  0  2  0  0  0  0  0  0
  161.9860  204.9990  147.9820 C   0  0  0  0  0  1  0  0  0  0  0  0
  160.9200  203.3230  149.7260 C   0  0  1  0  0  3  0  0  0  0  0  0
  161.3750  203.6760  148.3130 C   0  0  0  0  0  0  0  0  0  0  0  0
  160.5250  201.4640  147.5950 C   0  0  0  0  0  2  0  0  0  0  0  0
  160.8790  200.9670  148.9730 C   0  0  0  0  0  3  0  0  0  0  0  0
  161.0600  201.8410  149.9740 C   0  0  0  0  0  3  0  0  0  0  0  0
  161.1900  202.7890  147.3210 C   0  0  0  0  0  3  0  0  0  0  0  0
  1 12  1  0  0  0  0
  2 13  1  6  0  0  0
  2  8  1  0  0  0  0
  3 11  1  0  0  0  0
  4 14  1  0  0  0  0
  5 10  2  0  0  0  0
  6  2  1  0  0  0  0
  6 10  1  0  0  0  0
  7 16  1  0  0  0  0
  8  1  2  0  0  0  0
  8  3  1  0  0  0  0
  9  4  2  0  0  0  0
 10  1  1  0  0  0  0
 11 17  2  0  0  0  0
 11 15  1  0  0  0  0
 12 17  1  0  0  0  0
 15 14  2  0  0  0  0
 15 20  1  0  0  0  0
 16  3  2  0  0  0  0
 16  9  1  0  0  0  0
 18 24  1  0  0  0  0
 18 19  1  0  0  0  0
 20 22  1  0  0  0  0
 20 23  2  0  0  0  0
 21 19  2  0  0  0  0
 22 18  2  0  0  0  0
 23 21  1  0  0  0  0
 25 26  1  0  0  0  0
 25  9  1  0  0  0  0
 27 26  1  0  0  0  0
 28 30  1  0  0  0  0
 29 33  1  0  0  0  0
 29 27  1  1  0  0  0
 30 29  1  0  0  0  0
 31 32  1  0  0  0  0
 32 33  2  0  0  0  0
 34 31  1  0  0  0  0
 34 30  2  0  0  0  0
M  END
>  <MODEL>
6

>  <REMARK>
 VINA RESULT:      -6.7      3.008      5.194
  Name = 
  5 active torsions:
  status: ('A' for Active; 'I' for Inactive)
    1  A    between atoms: C_3  and  C_13
    2  A    between atoms: C_3  and  C_17
    3  A    between atoms: C_12  and  C_28
    4  A    between atoms: C_17  and  C_29
    5  A    between atoms: C_18  and  C_29
                            x       y       z     vdW  Elec       q    Type
                         _______ _______ _______ _____ _____    ______ ____

>  <TORSDO>
F 5

$$$$
=
 OpenBabel11062407463D

 34 38  0  0  1  0  0  0  0  0999 V2000
  160.7940  211.3350  150.5600 C   0  0  0  0  0  0  0  0  0  0  0  0
  162.5350  210.2050  149.4020 C   0  0  1  0  0  3  0  0  0  0  0  0
  161.3980  209.2320  151.6570 C   0  0  0  0  0  0  0  0  0  0  0  0
  160.9850  206.8800  153.6740 C   0  0  0  0  0  3  0  0  0  0  0  0
  160.4540  213.2870  149.2340 O   0  0  0  0  0  0  0  0  0  0  0  0
  162.7100  211.9160  148.7610 S   0  0  0  0  0  0  0  0  0  0  0  0
  162.7040  207.4880  150.4530 C   0  0  0  0  0  1  0  0  0  0  0  0
  161.5640  210.2510  150.5590 C   0  0  0  0  0  0  0  0  0  0  0  0
  161.1960  206.8370  152.3590 C   0  0  0  0  0  0  0  0  0  0  0  0
  161.1660  212.3000  149.5520 C   0  0  0  0  0  0  0  0  0  0  0  0
  160.7130  209.7440  152.8870 C   0  0  0  0  0  0  0  0  0  0  0  0
  159.6160  211.4740  151.4760 C   0  0  0  0  0  2  0  0  0  0  0  0
  161.9560  209.3640  148.2740 C   0  0  0  0  0  1  0  0  0  0  0  0
  161.2130  208.0160  154.5670 C   0  0  0  0  0  3  0  0  0  0  0  0
  161.1320  209.3070  154.2440 C   0  0  0  0  0  0  0  0  0  0  0  0
  161.7850  207.9360  151.5440 C   0  0  0  0  0  0  0  0  0  0  0  0
  159.9160  210.8200  152.7920 C   0  0  0  0  0  3  0  0  0  0  0  0
  160.8050  212.2400  156.6380 C   0  0  0  0  0  0  0  0  0  0  0  0
  162.0550  212.2360  157.2600 C   0  0  0  0  0  3  0  0  0  0  0  0
  161.4500  210.3110  155.3000 C   0  0  0  0  0  0  0  0  0  0  0  0
  163.0080  211.2790  156.9050 C   0  0  0  0  0  3  0  0  0  0  0  0
  160.5060  211.2860  155.6630 C   0  0  0  0  0  3  0  0  0  0  0  0
  162.7080  210.3240  155.9290 C   0  0  0  0  0  3  0  0  0  0  0  0
  159.6110  213.4410  157.0800 Cl  0  0  0  0  0  0  0  0  0  0  0  0
  160.8670  205.5440  151.6850 C   0  0  0  0  0  2  0  0  0  0  0  0
  160.4820  205.8010  150.2410 C   0  0  0  0  0  2  0  0  0  0  0  0
  160.6140  204.5160  149.4460 C   0  0  0  0  0  2  0  0  0  0  0  0
  161.2050  202.1800  147.6830 C   0  0  0  0  0  1  0  0  0  0  0  0
  161.4010  204.7700  148.1680 C   0  0  1  0  0  3  0  0  0  0  0  0
  161.3930  203.5850  147.2090 C   0  0  0  0  0  0  0  0  0  0  0  0
  161.8490  205.1900  145.3790 C   0  0  0  0  0  2  0  0  0  0  0  0
  161.0700  206.2030  146.1790 C   0  0  0  0  0  3  0  0  0  0  0  0
  160.8640  206.0070  147.4890 C   0  0  0  0  0  3  0  0  0  0  0  0
  161.5970  203.7970  145.8980 C   0  0  0  0  0  3  0  0  0  0  0  0
  1 12  1  0  0  0  0
  2 13  1  6  0  0  0
  2  8  1  0  0  0  0
  3 11  1  0  0  0  0
  4 14  1  0  0  0  0
  5 10  2  0  0  0  0
  6  2  1  0  0  0  0
  6 10  1  0  0  0  0
  7 16  1  0  0  0  0
  8  1  2  0  0  0  0
  8  3  1  0  0  0  0
  9  4  2  0  0  0  0
 10  1  1  0  0  0  0
 11 15  1  0  0  0  0
 12 17  1  0  0  0  0
 15 14  2  0  0  0  0
 15 20  1  0  0  0  0
 16  3  2  0  0  0  0
 16  9  1  0  0  0  0
 17 11  2  0  0  0  0
 18 24  1  0  0  0  0
 18 19  1  0  0  0  0
 20 22  1  0  0  0  0
 20 23  2  0  0  0  0
 21 19  2  0  0  0  0
 22 18  2  0  0  0  0
 23 21  1  0  0  0  0
 25  9  1  0  0  0  0
 26 25  1  0  0  0  0
 27 26  1  0  0  0  0
 29 27  1  1  0  0  0
 30 28  1  0  0  0  0
 30 29  1  0  0  0  0
 31 34  1  0  0  0  0
 31 32  1  0  0  0  0
 32 33  2  0  0  0  0
 33 29  1  0  0  0  0
 34 30  2  0  0  0  0
M  END
>  <MODEL>
7

>  <REMARK>
 VINA RESULT:      -6.5      3.053      5.382
  Name = 
  5 active torsions:
  status: ('A' for Active; 'I' for Inactive)
    1  A    between atoms: C_3  and  C_13
    2  A    between atoms: C_3  and  C_17
    3  A    between atoms: C_12  and  C_28
    4  A    between atoms: C_17  and  C_29
    5  A    between atoms: C_18  and  C_29
                            x       y       z     vdW  Elec       q    Type
                         _______ _______ _______ _____ _____    ______ ____

>  <TORSDO>
F 5

$$$$
=
 OpenBabel11062407463D

 34 38  0  0  1  0  0  0  0  0999 V2000
  161.6980  208.8410  154.1410 C   0  0  0  0  0  0  0  0  0  0  0  0
  160.4020  206.8980  153.6970 C   0  0  1  0  0  3  0  0  0  0  0  0
  161.4870  208.4200  151.7390 C   0  0  0  0  0  0  0  0  0  0  0  0
  162.2200  208.8240  148.7270 C   0  0  0  0  0  3  0  0  0  0  0  0
  161.7130  208.9360  156.5230 O   0  0  0  0  0  0  0  0  0  0  0  0
  159.9020  207.2950  155.4180 S   0  0  0  0  0  0  0  0  0  0  0  0
  160.7610  206.1960  150.8880 C   0  0  0  0  0  1  0  0  0  0  0  0
  161.2070  208.0670  153.1780 C   0  0  0  0  0  0  0  0  0  0  0  0
  162.1670  207.6980  149.4390 C   0  0  0  0  0  0  0  0  0  0  0  0
  161.2210  208.4850  155.4570 C   0  0  0  0  0  0  0  0  0  0  0  0
  161.8990  209.8410  151.5130 C   0  0  0  0  0  0  0  0  0  0  0  0
  162.7060  209.9140  153.8640 C   0  0  0  0  0  2  0  0  0  0  0  0
  161.2780  205.6560  153.7630 C   0  0  0  0  0  1  0  0  0  0  0  0
  161.6400  210.1190  149.0800 C   0  0  0  0  0  3  0  0  0  0  0  0
  161.4510  210.5950  150.3120 C   0  0  0  0  0  0  0  0  0  0  0  0
  161.4280  207.5230  150.7210 C   0  0  0  0  0  0  0  0  0  0  0  0
  162.4280  210.5400  152.5300 C   0  0  0  0  0  3  0  0  0  0  0  0
  159.4150  213.4740  151.7280 C   0  0  0  0  0  0  0  0  0  0  0  0
  159.5220  214.4220  150.7070 C   0  0  0  0  0  3  0  0  0  0  0  0
  160.7970  211.9270  150.4520 C   0  0  0  0  0  0  0  0  0  0  0  0
  160.2570  214.1290  149.5570 C   0  0  0  0  0  3  0  0  0  0  0  0
  160.0460  212.2350  151.5990 C   0  0  0  0  0  3  0  0  0  0  0  0
  160.8890  212.8880  149.4290 C   0  0  0  0  0  3  0  0  0  0  0  0
  158.4910  213.8390  153.1680 Cl  0  0  0  0  0  0  0  0  0  0  0  0
  162.8590  206.5140  148.8460 C   0  0  0  0  0  2  0  0  0  0  0  0
  162.1950  206.1340  147.5360 C   0  0  0  0  0  2  0  0  0  0  0  0
  161.0700  205.1540  147.8050 C   0  0  0  0  0  2  0  0  0  0  0  0
  160.7970  202.9780  149.8310 C   0  0  0  0  0  1  0  0  0  0  0  0
  161.4920  203.7490  147.4010 C   0  0  1  0  0  3  0  0  0  0  0  0
  161.0430  202.6770  148.3880 C   0  0  0  0  0  0  0  0  0  0  0  0
  161.1900  201.0460  146.5300 C   0  0  0  0  0  2  0  0  0  0  0  0
  160.8220  202.1810  145.6090 C   0  0  0  0  0  3  0  0  0  0  0  0
  160.9690  203.4500  146.0170 C   0  0  0  0  0  3  0  0  0  0  0  0
  160.8970  201.4100  147.9640 C   0  0  0  0  0  3  0  0  0  0  0  0
  1 10  1  0  0  0  0
  2 13  1  1  0  0  0
  2  6  1  0  0  0  0
  3  8  1  0  0  0  0
  4 14  1  0  0  0  0
  4  9  2  0  0  0  0
  6 10  1  0  0  0  0
  8  2  1  0  0  0  0
  8  1  2  0  0  0  0
  9 16  1  0  0  0  0
 10  5  2  0  0  0  0
 11  3  1  0  0  0  0
 11 17  2  0  0  0  0
 12  1  1  0  0  0  0
 14 15  2  0  0  0  0
 15 20  1  0  0  0  0
 15 11  1  0  0  0  0
 16  7  1  0  0  0  0
 16  3  2  0  0  0  0
 17 12  1  0  0  0  0
 18 24  1  0  0  0  0
 19 18  2  0  0  0  0
 20 22  2  0  0  0  0
 21 19  1  0  0  0  0
 22 18  1  0  0  0  0
 23 21  2  0  0  0  0
 23 20  1  0  0  0  0
 25  9  1  0  0  0  0
 26 27  1  0  0  0  0
 26 25  1  0  0  0  0
 29 27  1  1  0  0  0
 29 30  1  0  0  0  0
 30 28  1  0  0  0  0
 31 34  1  0  0  0  0
 32 33  2  0  0  0  0
 32 31  1  0  0  0  0
 33 29  1  0  0  0  0
 34 30  2  0  0  0  0
M  END
>  <MODEL>
8

>  <REMARK>
 VINA RESULT:      -6.4      1.908      3.032
  Name = 
  5 active torsions:
  status: ('A' for Active; 'I' for Inactive)
    1  A    between atoms: C_3  and  C_13
    2  A    between atoms: C_3  and  C_17
    3  A    between atoms: C_12  and  C_28
    4  A    between atoms: C_17  and  C_29
    5  A    between atoms: C_18  and  C_29
                            x       y       z     vdW  Elec       q    Type
                         _______ _______ _______ _____ _____    ______ ____

>  <TORSDO>
F 5

$$$$
=
 OpenBabel11062407463D

 34 38  0  0  1  0  0  0  0  0999 V2000
  161.7140  211.9530  148.6920 C   0  0  0  0  0  0  0  0  0  0  0  0
  159.8170  213.1570  149.4680 C   0  0  1  0  0  3  0  0  0  0  0  0
  160.9780  211.1680  150.8910 C   0  0  0  0  0  0  0  0  0  0  0  0
  161.2790  209.5850  153.5700 C   0  0  0  0  0  3  0  0  0  0  0  0
  162.1620  212.9700  146.5830 O   0  0  0  0  0  0  0  0  0  0  0  0
  159.7670  213.5020  147.6670 S   0  0  0  0  0  0  0  0  0  0  0  0
  159.4550  212.5450  152.2980 C   0  0  0  0  0  1  0  0  0  0  0  0
  160.8490  212.0750  149.6940 C   0  0  0  0  0  0  0  0  0  0  0  0
  160.9960  210.8730  153.3780 C   0  0  0  0  0  0  0  0  0  0  0  0
  161.3800  212.7660  147.5470 C   0  0  0  0  0  0  0  0  0  0  0  0
  161.7720  209.9210  150.6470 C   0  0  0  0  0  0  0  0  0  0  0  0
  162.9480  211.1080  148.8040 C   0  0  0  0  0  2  0  0  0  0  0  0
  160.2560  214.4410  150.1570 C   0  0  0  0  0  1  0  0  0  0  0  0
  161.2050  208.5090  152.5820 C   0  0  0  0  0  3  0  0  0  0  0  0
  161.3870  208.6260  151.2660 C   0  0  0  0  0  0  0  0  0  0  0  0
  160.4680  211.4610  152.1140 C   0  0  2  0  0  3  0  0  0  0  0  0
  162.6580  209.8960  149.6390 C   0  0  0  0  0  2  0  0  0  0  0  0
  160.9450  206.3690  148.2410 C   0  0  0  0  0  0  0  0  0  0  0  0
  160.8600  205.1100  148.8400 C   0  0  0  0  0  3  0  0  0  0  0  0
  161.2190  207.4050  150.4280 C   0  0  0  0  0  0  0  0  0  0  0  0
  160.9470  204.9910  150.2290 C   0  0  0  0  0  3  0  0  0  0  0  0
  161.1200  207.5070  149.0300 C   0  0  0  0  0  3  0  0  0  0  0  0
  161.1240  206.1310  151.0180 C   0  0  0  0  0  3  0  0  0  0  0  0
  160.8310  206.5200  146.5020 Cl  0  0  0  0  0  0  0  0  0  0  0  0
  161.1680  211.7660  154.5640 C   0  0  0  0  0  2  0  0  0  0  0  0
  162.0400  211.0820  155.5990 C   0  0  0  0  0  2  0  0  0  0  0  0
  161.3160  211.0560  156.9320 C   0  0  0  0  0  2  0  0  0  0  0  0
  158.5660  210.3940  155.9760 C   0  0  0  0  0  1  0  0  0  0  0  0
  160.7840  209.6570  157.2100 C   0  0  1  0  0  3  0  0  0  0  0  0
  159.5120  209.3310  156.4350 C   0  0  0  0  0  0  0  0  0  0  0  0
  160.0960  206.9370  156.6790 C   0  0  0  0  0  2  0  0  0  0  0  0
  161.5400  207.3680  156.6570 C   0  0  0  0  0  3  0  0  0  0  0  0
  161.8630  208.6450  156.9100 C   0  0  0  0  0  3  0  0  0  0  0  0
  159.2030  208.0470  156.1860 C   0  0  0  0  0  3  0  0  0  0  0  0
  1 12  1  0  0  0  0
  1  8  2  0  0  0  0
  2  8  1  0  0  0  0
  2 13  1  1  0  0  0
  3 16  1  0  0  0  0
  5 10  2  0  0  0  0
  6  2  1  0  0  0  0
  8  3  1  0  0  0  0
  9  4  2  0  0  0  0
  9 25  1  0  0  0  0
 10  6  1  0  0  0  0
 10  1  1  0  0  0  0
 11  3  2  0  0  0  0
 11 15  1  0  0  0  0
 12 17  1  0  0  0  0
 14  4  1  0  0  0  0
 15 14  2  0  0  0  0
 16  7  1  1  0  0  0
 16  9  1  0  0  0  0
 17 11  1  0  0  0  0
 18 19  2  0  0  0  0
 18 22  1  0  0  0  0
 19 21  1  0  0  0  0
 20 23  1  0  0  0  0
 20 15  1  0  0  0  0
 21 23  2  0  0  0  0
 22 20  2  0  0  0  0
 24 18  1  0  0  0  0
 25 26  1  0  0  0  0
 26 27  1  0  0  0  0
 28 30  1  0  0  0  0
 29 27  1  6  0  0  0
 30 29  1  0  0  0  0
 32 31  1  0  0  0  0
 32 33  2  0  0  0  0
 33 29  1  0  0  0  0
 34 30  2  0  0  0  0
 34 31  1  0  0  0  0
M  END
>  <MODEL>
9

>  <REMARK>
 VINA RESULT:      -5.9      3.212      7.368
  Name = 
  5 active torsions:
  status: ('A' for Active; 'I' for Inactive)
    1  A    between atoms: C_3  and  C_13
    2  A    between atoms: C_3  and  C_17
    3  A    between atoms: C_12  and  C_28
    4  A    between atoms: C_17  and  C_29
    5  A    between atoms: C_18  and  C_29
                            x       y       z     vdW  Elec       q    Type
                         _______ _______ _______ _____ _____    ______ ____

>  <TORSDO>
F 5

$$$$
