=
 OpenBabel11052422363D

 31 33  0  0  1  0  0  0  0  0999 V2000
  159.9100  211.9520  154.3390 C   0  0  0  0  0  0  0  0  0  0  0  0
  160.3420  210.6260  153.9770 N   0  0  0  0  0  0  0  0  0  0  0  0
  160.2770  212.4560  155.4330 O   0  0  0  0  0  0  0  0  0  0  0  0
  159.0080  212.7300  153.4670 C   0  0  0  0  0  0  0  0  0  0  0  0
  158.7260  214.0970  151.4850 C   0  0  0  0  0  3  0  0  0  0  0  0
  159.5350  213.3230  152.3150 C   0  0  0  0  0  3  0  0  0  0  0  0
  156.8910  210.9710  155.1400 C   0  0  0  0  0  1  0  0  0  0  0  0
  157.3850  214.2780  151.8180 C   0  0  0  0  0  3  0  0  0  0  0  0
  156.8800  213.7060  152.9440 N   0  0  0  0  0  0  0  0  0  0  0  0
  156.3690  213.2950  155.8800 C   0  0  0  0  0  1  0  0  0  0  0  0
  157.6420  212.9320  153.7700 C   0  0  0  0  0  0  0  0  0  0  0  0
  157.0540  212.4050  154.9640 N   0  0  0  0  0  0  0  0  0  0  0  0
  161.1270  209.8220  154.9120 C   0  0  0  0  0  2  0  0  0  0  0  0
  160.3380  208.6000  155.3420 C   0  0  1  0  0  3  0  0  0  0  0  0
  160.9750  207.3550  154.7520 C   0  0  0  0  0  1  0  0  0  0  0  0
  160.3460  208.5110  156.8550 C   0  0  0  0  0  2  0  0  0  0  0  0
  160.0070  207.2200  157.2600 O   0  0  0  0  0  1  0  0  0  0  0  0
  159.8660  209.9990  152.7470 C   0  0  0  0  0  2  0  0  0  0  0  0
  160.8480  210.2180  151.6110 C   0  0  0  0  0  2  0  0  0  0  0  0
  162.1460  209.5710  151.9520 C   0  0  0  0  0  3  0  0  0  0  0  0
  162.6040  208.4930  151.3830 N   0  0  0  0  0  0  0  0  0  0  0  0
  160.9630  203.7040  150.2210 C   0  0  0  0  0  0  0  0  0  0  0  0
  161.8030  205.5900  151.5210 C   0  0  0  0  0  3  0  0  0  0  0  0
  161.1660  206.7560  148.1050 C   0  0  0  0  0  3  0  0  0  0  0  0
  161.7300  208.2280  148.7210 S   0  0  0  0  0  0  0  0  0  0  0  0
  160.5150  202.0140  150.1310 Cl  0  0  0  0  0  0  0  0  0  0  0  0
  162.0130  207.7370  150.3120 C   0  0  0  0  0  0  0  0  0  0  0  0
  161.4390  204.2380  151.4330 C   0  0  0  0  0  3  0  0  0  0  0  0
  161.2110  205.8610  149.1720 C   0  0  0  0  0  0  0  0  0  0  0  0
  161.6840  206.3940  150.3860 C   0  0  0  0  0  0  0  0  0  0  0  0
  160.8470  204.5160  149.0830 C   0  0  0  0  0  3  0  0  0  0  0  0
  1  3  2  0  0  0  0
  2  1  1  0  0  0  0
  2 13  1  0  0  0  0
  4 11  1  0  0  0  0
  4  1  1  0  0  0  0
  5  8  2  0  0  0  0
  5  6  1  0  0  0  0
  6  4  2  0  0  0  0
  8  9  1  0  0  0  0
  9 11  2  0  0  0  0
 11 12  1  0  0  0  0
 12  7  1  0  0  0  0
 12 10  1  0  0  0  0
 13 14  1  0  0  0  0
 14 15  1  6  0  0  0
 14 16  1  0  0  0  0
 16 17  1  0  0  0  0
 18  2  1  0  0  0  0
 19 20  1  0  0  0  0
 19 18  1  0  0  0  0
 21 20  2  0  0  0  0
 22 28  1  0  0  0  0
 24 25  1  0  0  0  0
 24 29  2  0  0  0  0
 25 27  1  0  0  0  0
 26 22  1  0  0  0  0
 27 30  2  0  0  0  0
 27 21  1  0  0  0  0
 28 23  2  0  0  0  0
 29 30  1  0  0  0  0
 30 23  1  0  0  0  0
 31 29  1  0  0  0  0
 31 22  2  0  0  0  0
M  END
>  <MODEL>
1

>  <REMARK>
 VINA RESULT:      -7.1      0.000      0.000
  Name = 
  8 active torsions:
  status: ('A' for Active; 'I' for Inactive)
    1  A    between atoms: C_2  and  C_13
    2  A    between atoms: C_2  and  C_25
    3  A    between atoms: C_4  and  C_5
    4  A    between atoms: C_9  and  N_23
    5  A    between atoms: N_12  and  C_25
    6  A    between atoms: N_12  and  C_27
    7  A    between atoms: C_15  and  C_20
    8  A    between atoms: C_20  and  C_27
                            x       y       z     vdW  Elec       q    Type
                         _______ _______ _______ _____ _____    ______ ____

>  <TORSDO>
F 8

$$$$
=
 OpenBabel11052422363D

 31 33  0  0  1  0  0  0  0  0999 V2000
  160.7450  205.9250  149.3790 C   0  0  0  0  0  0  0  0  0  0  0  0
  161.4100  206.6090  150.4600 N   0  0  0  0  0  0  0  0  0  0  0  0
  160.0030  206.5690  148.5910 O   0  0  0  0  0  0  0  0  0  0  0  0
  160.8830  204.4670  149.1930 C   0  0  0  0  0  0  0  0  0  0  0  0
  160.6470  202.2380  150.1150 C   0  0  0  0  0  3  0  0  0  0  0  0
  160.4980  203.6180  150.2360 C   0  0  0  0  0  3  0  0  0  0  0  0
  160.9700  205.4950  146.1420 C   0  0  0  0  0  1  0  0  0  0  0  0
  161.1920  201.7120  148.9450 C   0  0  0  0  0  3  0  0  0  0  0  0
  161.5730  202.5430  147.9380 N   0  0  0  0  0  0  0  0  0  0  0  0
  163.2570  204.5510  146.4610 C   0  0  0  0  0  1  0  0  0  0  0  0
  161.4280  203.8970  148.0200 C   0  0  0  0  0  0  0  0  0  0  0  0
  161.8990  204.7110  146.9410 N   0  0  0  0  0  0  0  0  0  0  0  0
  161.1570  208.0270  150.7050 C   0  0  0  0  0  2  0  0  0  0  0  0
  162.2660  208.8690  150.1030 C   0  0  1  0  0  3  0  0  0  0  0  0
  161.9990  209.0700  148.6220 C   0  0  0  0  0  1  0  0  0  0  0  0
  162.3060  210.2120  150.8030 C   0  0  0  0  0  2  0  0  0  0  0  0
  162.7570  210.0550  152.1140 O   0  0  0  0  0  1  0  0  0  0  0  0
  162.2140  205.8660  151.4260 C   0  0  0  0  0  2  0  0  0  0  0  0
  162.1980  206.5460  152.7830 C   0  0  0  0  0  2  0  0  0  0  0  0
  161.0270  206.0550  153.5640 C   0  0  0  0  0  3  0  0  0  0  0  0
  160.4870  206.6940  154.5610 N   0  0  0  0  0  0  0  0  0  0  0  0
  159.9450  211.7690  153.5960 C   0  0  0  0  0  0  0  0  0  0  0  0
  159.6540  209.3530  153.4110 C   0  0  0  0  0  3  0  0  0  0  0  0
  161.8790  210.0180  156.2480 C   0  0  0  0  0  3  0  0  0  0  0  0
  161.8900  208.3300  156.3720 S   0  0  0  0  0  0  0  0  0  0  0  0
  159.6010  213.3800  153.0030 Cl  0  0  0  0  0  0  0  0  0  0  0  0
  160.8490  207.9830  155.0880 C   0  0  0  0  0  0  0  0  0  0  0  0
  159.3870  210.6500  152.9490 C   0  0  0  0  0  3  0  0  0  0  0  0
  161.0460  210.3100  155.1690 C   0  0  0  0  0  0  0  0  0  0  0  0
  160.4830  209.1930  154.5230 C   0  0  0  0  0  0  0  0  0  0  0  0
  160.7790  211.6010  154.7120 C   0  0  0  0  0  3  0  0  0  0  0  0
  1  2  1  0  0  0  0
  2 13  1  0  0  0  0
  2 18  1  0  0  0  0
  3  1  2  0  0  0  0
  4  1  1  0  0  0  0
  4  6  1  0  0  0  0
  5  6  2  0  0  0  0
  7 12  1  0  0  0  0
  8  5  1  0  0  0  0
  9 11  1  0  0  0  0
  9  8  2  0  0  0  0
 10 12  1  0  0  0  0
 11  4  2  0  0  0  0
 12 11  1  0  0  0  0
 14 15  1  6  0  0  0
 14 13  1  0  0  0  0
 14 16  1  0  0  0  0
 16 17  1  0  0  0  0
 18 19  1  0  0  0  0
 19 20  1  0  0  0  0
 20 21  2  0  0  0  0
 21 27  1  0  0  0  0
 22 31  2  0  0  0  0
 23 30  1  0  0  0  0
 24 25  1  0  0  0  0
 26 22  1  0  0  0  0
 27 25  1  0  0  0  0
 28 23  2  0  0  0  0
 28 22  1  0  0  0  0
 29 24  2  0  0  0  0
 30 27  2  0  0  0  0
 30 29  1  0  0  0  0
 31 29  1  0  0  0  0
M  END
>  <MODEL>
2

>  <REMARK>
 VINA RESULT:      -6.6      3.951      8.691
  Name = 
  8 active torsions:
  status: ('A' for Active; 'I' for Inactive)
    1  A    between atoms: C_2  and  C_13
    2  A    between atoms: C_2  and  C_25
    3  A    between atoms: C_4  and  C_5
    4  A    between atoms: C_9  and  N_23
    5  A    between atoms: N_12  and  C_25
    6  A    between atoms: N_12  and  C_27
    7  A    between atoms: C_15  and  C_20
    8  A    between atoms: C_20  and  C_27
                            x       y       z     vdW  Elec       q    Type
                         _______ _______ _______ _____ _____    ______ ____

>  <TORSDO>
F 8

$$$$
=
 OpenBabel11052422363D

 31 33  0  0  1  0  0  0  0  0999 V2000
  161.6270  210.2440  153.6840 C   0  0  0  0  0  0  0  0  0  0  0  0
  161.3000  208.8970  154.0790 N   0  0  0  0  0  0  0  0  0  0  0  0
  162.0480  211.0660  154.5400 O   0  0  0  0  0  0  0  0  0  0  0  0
  161.4440  210.7010  152.2910 C   0  0  0  0  0  0  0  0  0  0  0  0
  162.2350  210.7050  150.0000 C   0  0  0  0  0  3  0  0  0  0  0  0
  162.3500  210.2670  151.3190 C   0  0  0  0  0  3  0  0  0  0  0  0
  158.5180  211.2560  153.5180 C   0  0  0  0  0  1  0  0  0  0  0  0
  161.2090  211.5850  149.6630 C   0  0  0  0  0  3  0  0  0  0  0  0
  160.3350  212.0100  150.6150 N   0  0  0  0  0  0  0  0  0  0  0  0
  159.3300  213.5550  152.9920 C   0  0  0  0  0  1  0  0  0  0  0  0
  160.4130  211.5900  151.9110 C   0  0  0  0  0  0  0  0  0  0  0  0
  159.4900  212.1200  152.8680 N   0  0  0  0  0  0  0  0  0  0  0  0
  161.3640  208.5030  155.4850 C   0  0  0  0  0  2  0  0  0  0  0  0
  159.9650  208.3870  156.0610 C   0  0  1  0  0  3  0  0  0  0  0  0
  159.7140  206.9530  156.4910 C   0  0  0  0  0  1  0  0  0  0  0  0
  159.8430  209.3100  157.2560 C   0  0  0  0  0  2  0  0  0  0  0  0
  160.5290  210.5000  157.0150 O   0  0  0  0  0  1  0  0  0  0  0  0
  160.7420  207.9540  153.1140 C   0  0  0  0  0  2  0  0  0  0  0  0
  161.7510  206.8770  152.7610 C   0  0  0  0  0  2  0  0  0  0  0  0
  161.2030  205.5460  153.1460 C   0  0  0  0  0  3  0  0  0  0  0  0
  160.8350  204.6280  152.2990 N   0  0  0  0  0  0  0  0  0  0  0  0
  161.1120  201.4940  148.1660 C   0  0  0  0  0  0  0  0  0  0  0  0
  160.8660  202.2220  150.4820 C   0  0  0  0  0  3  0  0  0  0  0  0
  161.2370  205.2050  148.3840 C   0  0  0  0  0  3  0  0  0  0  0  0
  161.1100  206.0130  149.8650 S   0  0  0  0  0  0  0  0  0  0  0  0
  161.2100  200.1960  146.9950 Cl  0  0  0  0  0  0  0  0  0  0  0  0
  160.9100  204.6660  150.8630 C   0  0  0  0  0  0  0  0  0  0  0  0
  160.9440  201.1940  149.5310 C   0  0  0  0  0  3  0  0  0  0  0  0
  161.1300  203.8490  148.6850 C   0  0  0  0  0  0  0  0  0  0  0  0
  160.9570  203.5470  150.0490 C   0  0  0  0  0  0  0  0  0  0  0  0
  161.2060  202.8260  147.7380 C   0  0  0  0  0  3  0  0  0  0  0  0
  1  2  1  0  0  0  0
  1  3  2  0  0  0  0
  2 13  1  0  0  0  0
  4  1  1  0  0  0  0
  5  6  1  0  0  0  0
  6  4  2  0  0  0  0
  8  5  2  0  0  0  0
  8  9  1  0  0  0  0
  9 11  2  0  0  0  0
 11  4  1  0  0  0  0
 11 12  1  0  0  0  0
 12 10  1  0  0  0  0
 12  7  1  0  0  0  0
 13 14  1  0  0  0  0
 14 15  1  1  0  0  0
 14 16  1  0  0  0  0
 17 16  1  0  0  0  0
 18  2  1  0  0  0  0
 19 18  1  0  0  0  0
 19 20  1  0  0  0  0
 21 20  2  0  0  0  0
 22 28  1  0  0  0  0
 24 29  2  0  0  0  0
 24 25  1  0  0  0  0
 25 27  1  0  0  0  0
 26 22  1  0  0  0  0
 27 21  1  0  0  0  0
 28 23  2  0  0  0  0
 29 30  1  0  0  0  0
 30 23  1  0  0  0  0
 30 27  2  0  0  0  0
 31 22  2  0  0  0  0
 31 29  1  0  0  0  0
M  END
>  <MODEL>
3

>  <REMARK>
 VINA RESULT:      -6.6      2.087      3.248
  Name = 
  8 active torsions:
  status: ('A' for Active; 'I' for Inactive)
    1  A    between atoms: C_2  and  C_13
    2  A    between atoms: C_2  and  C_25
    3  A    between atoms: C_4  and  C_5
    4  A    between atoms: C_9  and  N_23
    5  A    between atoms: N_12  and  C_25
    6  A    between atoms: N_12  and  C_27
    7  A    between atoms: C_15  and  C_20
    8  A    between atoms: C_20  and  C_27
                            x       y       z     vdW  Elec       q    Type
                         _______ _______ _______ _____ _____    ______ ____

>  <TORSDO>
F 8

$$$$
=
 OpenBabel11052422363D

 31 33  0  0  1  0  0  0  0  0999 V2000
  160.2140  211.0460  154.9040 C   0  0  0  0  0  0  0  0  0  0  0  0
  159.8350  211.0230  153.5140 N   0  0  0  0  0  0  0  0  0  0  0  0
  160.3310  212.1460  155.5050 O   0  0  0  0  0  0  0  0  0  0  0  0
  160.5070  209.8000  155.6400 C   0  0  0  0  0  0  0  0  0  0  0  0
  159.6970  207.7100  156.5640 C   0  0  0  0  0  3  0  0  0  0  0  0
  159.4720  208.8810  155.8410 C   0  0  0  0  0  3  0  0  0  0  0  0
  163.4690  210.7210  154.7740 C   0  0  0  0  0  1  0  0  0  0  0  0
  160.9650  207.4680  157.0890 C   0  0  0  0  0  3  0  0  0  0  0  0
  161.9660  208.3690  156.8970 N   0  0  0  0  0  0  0  0  0  0  0  0
  163.5520  210.8990  157.2610 C   0  0  0  0  0  1  0  0  0  0  0  0
  161.7810  209.5180  156.1840 C   0  0  0  0  0  0  0  0  0  0  0  0
  162.8660  210.4440  156.0680 N   0  0  0  0  0  0  0  0  0  0  0  0
  159.6770  212.2700  152.7690 C   0  0  0  0  0  2  0  0  0  0  0  0
  158.2160  212.4980  152.4310 C   0  0  1  0  0  3  0  0  0  0  0  0
  157.4560  212.8560  153.6960 C   0  0  0  0  0  1  0  0  0  0  0  0
  158.1080  213.6300  151.4300 C   0  0  0  0  0  2  0  0  0  0  0  0
  157.7600  213.1290  150.1760 O   0  0  0  0  0  1  0  0  0  0  0  0
  159.7670  209.7600  152.7830 C   0  0  0  0  0  2  0  0  0  0  0  0
  160.7950  209.7220  151.6670 C   0  0  0  0  0  2  0  0  0  0  0  0
  161.9920  208.9640  152.1280 C   0  0  0  0  0  3  0  0  0  0  0  0
  162.3850  207.8300  151.6230 N   0  0  0  0  0  0  0  0  0  0  0  0
  160.9210  203.0370  150.2550 C   0  0  0  0  0  0  0  0  0  0  0  0
  161.7050  204.8920  151.6330 C   0  0  0  0  0  3  0  0  0  0  0  0
  160.9670  206.1930  148.2860 C   0  0  0  0  0  3  0  0  0  0  0  0
  161.4800  207.6560  148.9630 S   0  0  0  0  0  0  0  0  0  0  0  0
  160.5420  201.3360  150.0890 Cl  0  0  0  0  0  0  0  0  0  0  0  0
  161.8070  207.1020  150.5250 C   0  0  0  0  0  0  0  0  0  0  0  0
  161.3950  203.5330  151.4850 C   0  0  0  0  0  3  0  0  0  0  0  0
  161.0650  205.2500  149.3070 C   0  0  0  0  0  0  0  0  0  0  0  0
  161.5350  205.7440  150.5390 C   0  0  0  0  0  0  0  0  0  0  0  0
  160.7550  203.8970  149.1590 C   0  0  0  0  0  3  0  0  0  0  0  0
  1  3  2  0  0  0  0
  1  4  1  0  0  0  0
  2  1  1  0  0  0  0
  4  6  2  0  0  0  0
  4 11  1  0  0  0  0
  5  8  2  0  0  0  0
  6  5  1  0  0  0  0
  7 12  1  0  0  0  0
  9  8  1  0  0  0  0
 11  9  2  0  0  0  0
 12 11  1  0  0  0  0
 12 10  1  0  0  0  0
 13  2  1  0  0  0  0
 14 13  1  0  0  0  0
 14 15  1  1  0  0  0
 16 14  1  0  0  0  0
 17 16  1  0  0  0  0
 18  2  1  0  0  0  0
 19 20  1  0  0  0  0
 19 18  1  0  0  0  0
 21 20  2  0  0  0  0
 22 28  1  0  0  0  0
 24 25  1  0  0  0  0
 24 29  2  0  0  0  0
 25 27  1  0  0  0  0
 26 22  1  0  0  0  0
 27 30  2  0  0  0  0
 27 21  1  0  0  0  0
 28 23  2  0  0  0  0
 29 30  1  0  0  0  0
 30 23  1  0  0  0  0
 31 29  1  0  0  0  0
 31 22  2  0  0  0  0
M  END
>  <MODEL>
4

>  <REMARK>
 VINA RESULT:      -6.6      1.782      4.723
  Name = 
  8 active torsions:
  status: ('A' for Active; 'I' for Inactive)
    1  A    between atoms: C_2  and  C_13
    2  A    between atoms: C_2  and  C_25
    3  A    between atoms: C_4  and  C_5
    4  A    between atoms: C_9  and  N_23
    5  A    between atoms: N_12  and  C_25
    6  A    between atoms: N_12  and  C_27
    7  A    between atoms: C_15  and  C_20
    8  A    between atoms: C_20  and  C_27
                            x       y       z     vdW  Elec       q    Type
                         _______ _______ _______ _____ _____    ______ ____

>  <TORSDO>
F 8

$$$$
=
 OpenBabel11052422363D

 31 33  0  0  1  0  0  0  0  0999 V2000
  162.1420  206.5370  150.9420 C   0  0  0  0  0  0  0  0  0  0  0  0
  161.7510  207.4050  152.0240 N   0  0  0  0  0  0  0  0  0  0  0  0
  162.9380  206.9530  150.0590 O   0  0  0  0  0  0  0  0  0  0  0  0
  161.6000  205.1690  150.8200 C   0  0  0  0  0  0  0  0  0  0  0  0
  161.1200  203.0390  151.8730 C   0  0  0  0  0  3  0  0  0  0  0  0
  161.5890  204.3500  151.9530 C   0  0  0  0  0  3  0  0  0  0  0  0
  160.3240  206.5780  148.2200 C   0  0  0  0  0  1  0  0  0  0  0  0
  160.6670  202.5520  150.6480 C   0  0  0  0  0  3  0  0  0  0  0  0
  160.6880  203.3520  149.5480 N   0  0  0  0  0  0  0  0  0  0  0  0
  161.8430  204.8700  147.2200 C   0  0  0  0  0  1  0  0  0  0  0  0
  161.1290  204.6420  149.5960 C   0  0  0  0  0  0  0  0  0  0  0  0
  161.1700  205.4070  148.3870 N   0  0  0  0  0  0  0  0  0  0  0  0
  162.1960  208.7960  152.0540 C   0  0  0  0  0  2  0  0  0  0  0  0
  161.1980  209.6820  151.3340 C   0  0  1  0  0  3  0  0  0  0  0  0
  160.5230  210.6010  152.3370 C   0  0  0  0  0  1  0  0  0  0  0  0
  161.9260  210.5070  150.2920 C   0  0  0  0  0  2  0  0  0  0  0  0
  161.9910  209.8070  149.0870 O   0  0  0  0  0  1  0  0  0  0  0  0
  160.7730  206.9630  153.0140 C   0  0  0  0  0  2  0  0  0  0  0  0
  161.2940  207.1770  154.4240 C   0  0  0  0  0  2  0  0  0  0  0  0
  160.1790  206.9810  155.3930 C   0  0  0  0  0  3  0  0  0  0  0  0
  159.8290  207.8500  156.2980 N   0  0  0  0  0  0  0  0  0  0  0  0
  158.9130  212.8710  155.3370 C   0  0  0  0  0  0  0  0  0  0  0  0
  158.5750  210.4580  155.4530 C   0  0  0  0  0  3  0  0  0  0  0  0
  161.8090  211.2290  156.9970 C   0  0  0  0  0  3  0  0  0  0  0  0
  161.8760  209.5520  157.2120 S   0  0  0  0  0  0  0  0  0  0  0  0
  158.3430  214.4530  154.8490 Cl  0  0  0  0  0  0  0  0  0  0  0  0
  160.3810  209.1570  156.5320 C   0  0  0  0  0  0  0  0  0  0  0  0
  158.1310  211.7320  155.0700 C   0  0  0  0  0  3  0  0  0  0  0  0
  160.5900  211.4790  156.3690 C   0  0  0  0  0  0  0  0  0  0  0  0
  159.8050  210.3410  156.1040 C   0  0  0  0  0  0  0  0  0  0  0  0
  160.1490  212.7480  155.9900 C   0  0  0  0  0  3  0  0  0  0  0  0
  1  2  1  0  0  0  0
  2 13  1  0  0  0  0
  2 18  1  0  0  0  0
  3  1  2  0  0  0  0
  4  1  1  0  0  0  0
  4  6  1  0  0  0  0
  5  6  2  0  0  0  0
  7 12  1  0  0  0  0
  8  5  1  0  0  0  0
  9 11  1  0  0  0  0
  9  8  2  0  0  0  0
 10 12  1  0  0  0  0
 11  4  2  0  0  0  0
 12 11  1  0  0  0  0
 14 13  1  0  0  0  0
 14 15  1  1  0  0  0
 16 14  1  0  0  0  0
 17 16  1  0  0  0  0
 18 19  1  0  0  0  0
 19 20  1  0  0  0  0
 20 21  2  0  0  0  0
 21 27  1  0  0  0  0
 22 31  2  0  0  0  0
 23 30  1  0  0  0  0
 24 25  1  0  0  0  0
 26 22  1  0  0  0  0
 27 25  1  0  0  0  0
 28 22  1  0  0  0  0
 28 23  2  0  0  0  0
 29 24  2  0  0  0  0
 30 29  1  0  0  0  0
 30 27  2  0  0  0  0
 31 29  1  0  0  0  0
M  END
>  <MODEL>
5

>  <REMARK>
 VINA RESULT:      -6.5      4.179      8.624
  Name = 
  8 active torsions:
  status: ('A' for Active; 'I' for Inactive)
    1  A    between atoms: C_2  and  C_13
    2  A    between atoms: C_2  and  C_25
    3  A    between atoms: C_4  and  C_5
    4  A    between atoms: C_9  and  N_23
    5  A    between atoms: N_12  and  C_25
    6  A    between atoms: N_12  and  C_27
    7  A    between atoms: C_15  and  C_20
    8  A    between atoms: C_20  and  C_27
                            x       y       z     vdW  Elec       q    Type
                         _______ _______ _______ _____ _____    ______ ____

>  <TORSDO>
F 8

$$$$
=
 OpenBabel11052422363D

 31 33  0  0  1  0  0  0  0  0999 V2000
  159.0760  210.8550  155.5220 C   0  0  0  0  0  0  0  0  0  0  0  0
  160.0550  210.4290  154.5540 N   0  0  0  0  0  0  0  0  0  0  0  0
  159.2970  210.6960  156.7520 O   0  0  0  0  0  0  0  0  0  0  0  0
  157.7900  211.4470  155.1030 C   0  0  0  0  0  0  0  0  0  0  0  0
  155.4260  211.1450  154.6620 C   0  0  0  0  0  3  0  0  0  0  0  0
  156.6510  210.6350  155.0870 C   0  0  0  0  0  3  0  0  0  0  0  0
  159.4850  214.0890  155.8280 C   0  0  0  0  0  1  0  0  0  0  0  0
  155.3480  212.4740  154.2470 C   0  0  0  0  0  3  0  0  0  0  0  0
  156.4610  213.2560  154.2580 N   0  0  0  0  0  0  0  0  0  0  0  0
  159.1270  214.3310  153.3710 C   0  0  0  0  0  1  0  0  0  0  0  0
  157.6720  212.7910  154.6800 C   0  0  0  0  0  0  0  0  0  0  0  0
  158.8090  213.6570  154.6140 N   0  0  0  0  0  0  0  0  0  0  0  0
  161.2620  209.7270  154.9830 C   0  0  0  0  0  2  0  0  0  0  0  0
  160.8970  208.5400  155.8550 C   0  0  1  0  0  3  0  0  0  0  0  0
  160.9510  207.2700  155.0270 C   0  0  0  0  0  1  0  0  0  0  0  0
  161.8820  208.4460  157.0030 C   0  0  0  0  0  2  0  0  0  0  0  0
  162.7210  209.5600  157.0070 O   0  0  0  0  0  1  0  0  0  0  0  0
  159.7820  210.5390  153.1240 C   0  0  0  0  0  2  0  0  0  0  0  0
  160.3230  209.3360  152.3740 C   0  0  0  0  0  2  0  0  0  0  0  0
  161.7570  209.5690  152.0410 C   0  0  0  0  0  3  0  0  0  0  0  0
  162.4010  208.9580  151.0890 N   0  0  0  0  0  0  0  0  0  0  0  0
  161.1730  203.9250  150.7120 C   0  0  0  0  0  0  0  0  0  0  0  0
  161.8350  206.0580  151.6930 C   0  0  0  0  0  3  0  0  0  0  0  0
  161.1650  206.6030  148.1300 C   0  0  0  0  0  3  0  0  0  0  0  0
  161.5970  208.1960  148.5010 S   0  0  0  0  0  0  0  0  0  0  0  0
  160.8650  202.2110  150.8950 Cl  0  0  0  0  0  0  0  0  0  0  0  0
  161.8910  207.9930  150.1520 C   0  0  0  0  0  0  0  0  0  0  0  0
  161.5830  204.6850  151.8230 C   0  0  0  0  0  3  0  0  0  0  0  0
  161.2640  205.8970  149.3280 C   0  0  0  0  0  0  0  0  0  0  0  0
  161.6710  206.6570  150.4420 C   0  0  0  0  0  0  0  0  0  0  0  0
  161.0110  204.5310  149.4570 C   0  0  0  0  0  3  0  0  0  0  0  0
  1  3  2  0  0  0  0
  2 13  1  0  0  0  0
  2  1  1  0  0  0  0
  4  1  1  0  0  0  0
  5  6  2  0  0  0  0
  6  4  1  0  0  0  0
  8  9  2  0  0  0  0
  8  5  1  0  0  0  0
  9 11  1  0  0  0  0
 10 12  1  0  0  0  0
 11  4  2  0  0  0  0
 12 11  1  0  0  0  0
 12  7  1  0  0  0  0
 13 14  1  0  0  0  0
 14 15  1  6  0  0  0
 14 16  1  0  0  0  0
 16 17  1  0  0  0  0
 18  2  1  0  0  0  0
 19 18  1  0  0  0  0
 20 19  1  0  0  0  0
 21 20  2  0  0  0  0
 22 26  1  0  0  0  0
 22 28  1  0  0  0  0
 23 28  2  0  0  0  0
 24 25  1  0  0  0  0
 24 29  2  0  0  0  0
 25 27  1  0  0  0  0
 27 30  2  0  0  0  0
 27 21  1  0  0  0  0
 29 31  1  0  0  0  0
 29 30  1  0  0  0  0
 30 23  1  0  0  0  0
 31 22  2  0  0  0  0
M  END
>  <MODEL>
6

>  <REMARK>
 VINA RESULT:      -6.5      1.318      2.140
  Name = 
  8 active torsions:
  status: ('A' for Active; 'I' for Inactive)
    1  A    between atoms: C_2  and  C_13
    2  A    between atoms: C_2  and  C_25
    3  A    between atoms: C_4  and  C_5
    4  A    between atoms: C_9  and  N_23
    5  A    between atoms: N_12  and  C_25
    6  A    between atoms: N_12  and  C_27
    7  A    between atoms: C_15  and  C_20
    8  A    between atoms: C_20  and  C_27
                            x       y       z     vdW  Elec       q    Type
                         _______ _______ _______ _____ _____    ______ ____

>  <TORSDO>
F 8

$$$$
=
 OpenBabel11052422363D

 31 33  0  0  1  0  0  0  0  0999 V2000
  159.9480  212.0010  153.9700 C   0  0  0  0  0  0  0  0  0  0  0  0
  160.5160  210.6920  153.7630 N   0  0  0  0  0  0  0  0  0  0  0  0
  160.0860  212.5770  155.0810 O   0  0  0  0  0  0  0  0  0  0  0  0
  159.1680  212.6750  152.9130 C   0  0  0  0  0  0  0  0  0  0  0  0
  159.1240  213.6960  150.7150 C   0  0  0  0  0  3  0  0  0  0  0  0
  159.8140  213.0250  151.7230 C   0  0  0  0  0  3  0  0  0  0  0  0
  156.8160  211.3750  154.6880 C   0  0  0  0  0  1  0  0  0  0  0  0
  157.7820  214.0200  150.9090 C   0  0  0  0  0  3  0  0  0  0  0  0
  157.1620  213.6850  152.0720 N   0  0  0  0  0  0  0  0  0  0  0  0
  156.4310  213.8210  154.9870 C   0  0  0  0  0  1  0  0  0  0  0  0
  157.8060  213.0170  153.0720 C   0  0  0  0  0  0  0  0  0  0  0  0
  157.1030  212.7430  154.2880 N   0  0  0  0  0  0  0  0  0  0  0  0
  161.1710  209.9880  154.8620 C   0  0  0  0  0  2  0  0  0  0  0  0
  160.1340  209.3770  155.7850 C   0  0  1  0  0  3  0  0  0  0  0  0
  160.1730  207.8640  155.6580 C   0  0  0  0  0  1  0  0  0  0  0  0
  160.4420  209.7790  157.2140 C   0  0  0  0  0  2  0  0  0  0  0  0
  161.6320  210.5030  157.2610 O   0  0  0  0  0  1  0  0  0  0  0  0
  160.3020  209.9800  152.5060 C   0  0  0  0  0  2  0  0  0  0  0  0
  161.3990  208.9580  152.2680 C   0  0  0  0  0  2  0  0  0  0  0  0
  161.5430  208.7250  150.8030 C   0  0  0  0  0  3  0  0  0  0  0  0
  161.5660  207.5490  150.2430 N   0  0  0  0  0  0  0  0  0  0  0  0
  160.9300  202.5210  149.1080 C   0  0  0  0  0  0  0  0  0  0  0  0
  161.3290  204.9090  148.8070 C   0  0  0  0  0  3  0  0  0  0  0  0
  160.9930  204.2550  152.3980 C   0  0  0  0  0  3  0  0  0  0  0  0
  161.2340  205.9250  152.5180 S   0  0  0  0  0  0  0  0  0  0  0  0
  160.7120  200.9280  148.4140 Cl  0  0  0  0  0  0  0  0  0  0  0  0
  161.4200  206.2650  150.8740 C   0  0  0  0  0  0  0  0  0  0  0  0
  161.1530  203.6270  148.2660 C   0  0  0  0  0  3  0  0  0  0  0  0
  161.0510  203.9630  151.0370 C   0  0  0  0  0  0  0  0  0  0  0  0
  161.2780  205.0670  150.1940 C   0  0  0  0  0  0  0  0  0  0  0  0
  160.8780  202.6860  150.5000 C   0  0  0  0  0  3  0  0  0  0  0  0
  1  3  2  0  0  0  0
  2  1  1  0  0  0  0
  2 13  1  0  0  0  0
  4 11  1  0  0  0  0
  4  1  1  0  0  0  0
  5  8  2  0  0  0  0
  5  6  1  0  0  0  0
  6  4  2  0  0  0  0
  8  9  1  0  0  0  0
  9 11  2  0  0  0  0
 11 12  1  0  0  0  0
 12  7  1  0  0  0  0
 12 10  1  0  0  0  0
 13 14  1  0  0  0  0
 14 15  1  1  0  0  0
 14 16  1  0  0  0  0
 16 17  1  0  0  0  0
 18  2  1  0  0  0  0
 19 18  1  0  0  0  0
 20 19  1  0  0  0  0
 21 20  2  0  0  0  0
 21 27  1  0  0  0  0
 22 31  2  0  0  0  0
 23 30  1  0  0  0  0
 24 25  1  0  0  0  0
 26 22  1  0  0  0  0
 27 25  1  0  0  0  0
 28 23  2  0  0  0  0
 28 22  1  0  0  0  0
 29 24  2  0  0  0  0
 30 27  2  0  0  0  0
 30 29  1  0  0  0  0
 31 29  1  0  0  0  0
M  END
>  <MODEL>
7

>  <REMARK>
 VINA RESULT:      -6.4      1.430      1.967
  Name = 
  8 active torsions:
  status: ('A' for Active; 'I' for Inactive)
    1  A    between atoms: C_2  and  C_13
    2  A    between atoms: C_2  and  C_25
    3  A    between atoms: C_4  and  C_5
    4  A    between atoms: C_9  and  N_23
    5  A    between atoms: N_12  and  C_25
    6  A    between atoms: N_12  and  C_27
    7  A    between atoms: C_15  and  C_20
    8  A    between atoms: C_20  and  C_27
                            x       y       z     vdW  Elec       q    Type
                         _______ _______ _______ _____ _____    ______ ____

>  <TORSDO>
F 8

$$$$
=
 OpenBabel11052422363D

 31 33  0  0  1  0  0  0  0  0999 V2000
  160.8140  210.8970  153.8500 C   0  0  0  0  0  0  0  0  0  0  0  0
  160.8860  209.4620  153.7360 N   0  0  0  0  0  0  0  0  0  0  0  0
  161.1730  211.4610  154.9170 O   0  0  0  0  0  0  0  0  0  0  0  0
  160.2900  211.7290  152.7490 C   0  0  0  0  0  0  0  0  0  0  0  0
  160.5490  212.5580  150.4860 C   0  0  0  0  0  3  0  0  0  0  0  0
  160.9890  211.7570  151.5380 C   0  0  0  0  0  3  0  0  0  0  0  0
  157.6750  211.4380  154.6070 C   0  0  0  0  0  1  0  0  0  0  0  0
  159.4060  213.3380  150.6570 C   0  0  0  0  0  3  0  0  0  0  0  0
  158.7350  213.3130  151.8390 N   0  0  0  0  0  0  0  0  0  0  0  0
  158.1630  213.8800  154.7380 C   0  0  0  0  0  1  0  0  0  0  0  0
  159.1330  212.5290  152.8830 C   0  0  0  0  0  0  0  0  0  0  0  0
  158.4060  212.5940  154.1150 N   0  0  0  0  0  0  0  0  0  0  0  0
  161.2840  208.6470  154.8820 C   0  0  0  0  0  2  0  0  0  0  0  0
  160.1770  208.6260  155.9190 C   0  0  1  0  0  3  0  0  0  0  0  0
  159.6050  207.2230  156.0190 C   0  0  0  0  0  1  0  0  0  0  0  0
  160.7450  209.0440  157.2610 C   0  0  0  0  0  2  0  0  0  0  0  0
  162.1270  209.2060  157.1650 O   0  0  0  0  0  1  0  0  0  0  0  0
  160.4040  208.7870  152.5340 C   0  0  0  0  0  2  0  0  0  0  0  0
  161.5080  207.9660  151.8930 C   0  0  0  0  0  2  0  0  0  0  0  0
  161.3490  206.5380  152.2860 C   0  0  0  0  0  3  0  0  0  0  0  0
  161.2400  205.5500  151.4450 N   0  0  0  0  0  0  0  0  0  0  0  0
  161.0250  202.4700  147.2680 C   0  0  0  0  0  0  0  0  0  0  0  0
  160.9220  203.1890  149.5970 C   0  0  0  0  0  3  0  0  0  0  0  0
  161.6350  206.1300  147.5290 C   0  0  0  0  0  3  0  0  0  0  0  0
  161.6430  206.9250  149.0230 S   0  0  0  0  0  0  0  0  0  0  0  0
  160.9290  201.1890  146.0790 Cl  0  0  0  0  0  0  0  0  0  0  0  0
  161.2900  205.6000  150.0090 C   0  0  0  0  0  0  0  0  0  0  0  0
  160.8460  202.1740  148.6320 C   0  0  0  0  0  3  0  0  0  0  0  0
  161.3590  204.7950  147.8150 C   0  0  0  0  0  0  0  0  0  0  0  0
  161.1760  204.4970  149.1790 C   0  0  0  0  0  0  0  0  0  0  0  0
  161.2820  203.7860  146.8540 C   0  0  0  0  0  3  0  0  0  0  0  0
  1  3  2  0  0  0  0
  2  1  1  0  0  0  0
  2 13  1  0  0  0  0
  4 11  1  0  0  0  0
  4  1  1  0  0  0  0
  5  8  2  0  0  0  0
  5  6  1  0  0  0  0
  6  4  2  0  0  0  0
  8  9  1  0  0  0  0
  9 11  2  0  0  0  0
 11 12  1  0  0  0  0
 12  7  1  0  0  0  0
 12 10  1  0  0  0  0
 13 14  1  0  0  0  0
 14 15  1  1  0  0  0
 14 16  1  0  0  0  0
 17 16  1  0  0  0  0
 18  2  1  0  0  0  0
 19 20  1  0  0  0  0
 19 18  1  0  0  0  0
 21 20  2  0  0  0  0
 22 28  1  0  0  0  0
 24 29  2  0  0  0  0
 24 25  1  0  0  0  0
 25 27  1  0  0  0  0
 26 22  1  0  0  0  0
 27 21  1  0  0  0  0
 28 23  2  0  0  0  0
 29 30  1  0  0  0  0
 30 23  1  0  0  0  0
 30 27  2  0  0  0  0
 31 22  2  0  0  0  0
 31 29  1  0  0  0  0
M  END
>  <MODEL>
8

>  <REMARK>
 VINA RESULT:      -6.4      1.801      2.259
  Name = 
  8 active torsions:
  status: ('A' for Active; 'I' for Inactive)
    1  A    between atoms: C_2  and  C_13
    2  A    between atoms: C_2  and  C_25
    3  A    between atoms: C_4  and  C_5
    4  A    between atoms: C_9  and  N_23
    5  A    between atoms: N_12  and  C_25
    6  A    between atoms: N_12  and  C_27
    7  A    between atoms: C_15  and  C_20
    8  A    between atoms: C_20  and  C_27
                            x       y       z     vdW  Elec       q    Type
                         _______ _______ _______ _____ _____    ______ ____

>  <TORSDO>
F 8

$$$$
=
 OpenBabel11052422363D

 31 33  0  0  1  0  0  0  0  0999 V2000
  159.5280  212.7760  153.6750 C   0  0  0  0  0  0  0  0  0  0  0  0
  159.9470  211.4120  153.8810 N   0  0  0  0  0  0  0  0  0  0  0  0
  159.7770  213.6480  154.5480 O   0  0  0  0  0  0  0  0  0  0  0  0
  158.7750  213.1730  152.4690 C   0  0  0  0  0  0  0  0  0  0  0  0
  158.8060  213.7620  150.1180 C   0  0  0  0  0  3  0  0  0  0  0  0
  159.4730  213.3500  151.2700 C   0  0  0  0  0  3  0  0  0  0  0  0
  156.4090  212.0280  154.3300 C   0  0  0  0  0  1  0  0  0  0  0  0
  157.4340  214.0010  150.1740 C   0  0  0  0  0  3  0  0  0  0  0  0
  156.7620  213.8350  151.3450 N   0  0  0  0  0  0  0  0  0  0  0  0
  155.8250  214.4460  154.1380 C   0  0  0  0  0  1  0  0  0  0  0  0
  157.3840  213.4210  152.4870 C   0  0  0  0  0  0  0  0  0  0  0  0
  156.6210  213.3180  153.6930 N   0  0  0  0  0  0  0  0  0  0  0  0
  160.5750  211.0130  155.1390 C   0  0  0  0  0  2  0  0  0  0  0  0
  159.6040  210.2010  155.9750 C   0  0  1  0  0  3  0  0  0  0  0  0
  160.2460  208.8770  156.3490 C   0  0  0  0  0  1  0  0  0  0  0  0
  159.2610  210.9770  157.2310 C   0  0  0  0  0  2  0  0  0  0  0  0
  158.1300  211.7640  157.0120 O   0  0  0  0  0  1  0  0  0  0  0  0
  159.6020  210.3750  152.9130 C   0  0  0  0  0  2  0  0  0  0  0  0
  160.8460  209.6700  152.4060 C   0  0  0  0  0  2  0  0  0  0  0  0
  160.8040  208.2390  152.8210 C   0  0  0  0  0  3  0  0  0  0  0  0
  160.9940  207.2330  152.0170 N   0  0  0  0  0  0  0  0  0  0  0  0
  161.2680  204.1600  147.8380 C   0  0  0  0  0  0  0  0  0  0  0  0
  160.7990  204.9020  150.1150 C   0  0  0  0  0  3  0  0  0  0  0  0
  162.1730  207.7440  148.2520 C   0  0  0  0  0  3  0  0  0  0  0  0
  161.9780  208.5450  149.7290 S   0  0  0  0  0  0  0  0  0  0  0  0
  161.2730  202.8860  146.6370 Cl  0  0  0  0  0  0  0  0  0  0  0  0
  161.3180  207.2680  150.6160 C   0  0  0  0  0  0  0  0  0  0  0  0
  160.8080  203.8920  149.1410 C   0  0  0  0  0  3  0  0  0  0  0  0
  161.7190  206.4440  148.4650 C   0  0  0  0  0  0  0  0  0  0  0  0
  161.2540  206.1760  149.7670 C   0  0  0  0  0  0  0  0  0  0  0  0
  161.7260  205.4410  147.4950 C   0  0  0  0  0  3  0  0  0  0  0  0
  1  2  1  0  0  0  0
  1  3  2  0  0  0  0
  2 13  1  0  0  0  0
  4 11  1  0  0  0  0
  4  1  1  0  0  0  0
  5  8  2  0  0  0  0
  5  6  1  0  0  0  0
  6  4  2  0  0  0  0
  8  9  1  0  0  0  0
  9 11  2  0  0  0  0
 11 12  1  0  0  0  0
 12 10  1  0  0  0  0
 12  7  1  0  0  0  0
 13 14  1  0  0  0  0
 14 15  1  1  0  0  0
 14 16  1  0  0  0  0
 17 16  1  0  0  0  0
 18  2  1  0  0  0  0
 19 20  1  0  0  0  0
 19 18  1  0  0  0  0
 21 20  2  0  0  0  0
 22 28  1  0  0  0  0
 24 29  2  0  0  0  0
 24 25  1  0  0  0  0
 25 27  1  0  0  0  0
 26 22  1  0  0  0  0
 27 21  1  0  0  0  0
 28 23  2  0  0  0  0
 29 30  1  0  0  0  0
 30 23  1  0  0  0  0
 30 27  2  0  0  0  0
 31 22  2  0  0  0  0
 31 29  1  0  0  0  0
M  END
>  <MODEL>
9

>  <REMARK>
 VINA RESULT:      -6.3      1.643      1.938
  Name = 
  8 active torsions:
  status: ('A' for Active; 'I' for Inactive)
    1  A    between atoms: C_2  and  C_13
    2  A    between atoms: C_2  and  C_25
    3  A    between atoms: C_4  and  C_5
    4  A    between atoms: C_9  and  N_23
    5  A    between atoms: N_12  and  C_25
    6  A    between atoms: N_12  and  C_27
    7  A    between atoms: C_15  and  C_20
    8  A    between atoms: C_20  and  C_27
                            x       y       z     vdW  Elec       q    Type
                         _______ _______ _______ _____ _____    ______ ____

>  <TORSDO>
F 8

$$$$
