=
 OpenBabel11052422193D

 25 28  0  0  1  0  0  0  0  0999 V2000
  161.3180  205.7020  149.7990 C   0  0  0  0  0  0  0  0  0  0  0  0
  161.5200  206.8710  150.5420 C   0  0  0  0  0  0  0  0  0  0  0  0
  161.2140  206.9390  147.7470 C   0  0  0  0  0  3  0  0  0  0  0  0
  161.2150  204.3150  150.2160 C   0  0  0  0  0  0  0  0  0  0  0  0
  160.8870  207.8150  152.7850 C   0  0  2  0  0  3  0  0  0  0  0  0
  160.9420  201.5650  150.4650 C   0  0  0  0  0  3  0  0  0  0  0  0
  161.4170  208.0830  148.4570 N   0  0  0  0  0  0  0  0  0  0  0  0
  161.0060  203.5380  149.0920 C   0  0  0  0  0  0  0  0  0  0  0  0
  160.8650  202.1540  149.1920 C   0  0  0  0  0  2  0  0  0  0  0  0
  161.7270  209.4410  150.5100 C   0  0  2  0  0  3  0  0  0  0  0  0
  162.4020  210.4700  149.6190 C   0  0  0  0  0  1  0  0  0  0  0  0
  161.7100  206.7740  152.0320 C   0  0  0  0  0  2  0  0  0  0  0  0
  161.1540  202.3600  151.6080 C   0  0  0  0  0  3  0  0  0  0  0  0
  161.1680  205.7310  148.4280 C   0  0  0  0  0  0  0  0  0  0  0  0
  160.9570  204.3660  147.8450 C   0  0  0  0  0  3  0  0  0  0  0  0
  162.4520  209.3330  151.7030 O   0  0  0  0  0  0  0  0  0  0  0  0
  161.2930  203.7510  151.4900 C   0  0  0  0  0  3  0  0  0  0  0  0
  161.4990  209.2210  152.7260 C   0  0  0  0  0  2  0  0  0  0  0  0
  161.5950  208.0980  149.8150 C   0  0  0  0  0  0  0  0  0  0  0  0
  160.5390  207.3930  154.2180 C   0  0  0  0  0  2  0  0  0  0  0  0
  159.4640  209.1870  155.4360 F   0  0  0  0  0  0  0  0  0  0  0  0
  160.6460  208.4810  155.2960 C   0  0  1  0  0  3  0  0  0  0  0  0
  161.1300  207.9640  156.6110 C   0  0  0  0  0  0  0  0  0  0  0  0
  160.4450  206.9440  157.2610 O   0  0  0  0  0  1  0  0  0  0  0  0
  162.1790  208.4360  157.1230 O   0  0  0  0  0  0  0  0  0  0  0  0
  1  4  1  0  0  0  0
  1  2  2  0  0  0  0
  2 12  1  0  0  0  0
  3 14  2  0  0  0  0
  3  7  1  0  0  0  0
  4 17  2  0  0  0  0
  5 20  1  1  0  0  0
  6 13  2  0  0  0  0
  7 19  2  0  0  0  0
  8  9  1  0  0  0  0
  8  4  1  0  0  0  0
  9  6  1  0  0  0  0
 10 11  1  6  0  0  0
 10 16  1  0  0  0  0
 12  5  1  0  0  0  0
 14  1  1  0  0  0  0
 15 14  1  0  0  0  0
 15  8  2  0  0  0  0
 16 18  1  0  0  0  0
 17 13  1  0  0  0  0
 18  5  1  0  0  0  0
 19 10  1  0  0  0  0
 19  2  1  0  0  0  0
 20 22  1  0  0  0  0
 22 21  1  1  0  0  0
 22 23  1  0  0  0  0
 23 25  2  0  0  0  0
 23 24  1  0  0  0  0
M  END
>  <MODEL>
1

>  <REMARK>
 VINA RESULT:      -9.9      0.000      0.000
  Name = 
  3 active torsions:
  status: ('A' for Active; 'I' for Inactive)
    1  A    between atoms: C_2  and  C_25
    2  A    between atoms: C_6  and  C_15
    3  A    between atoms: C_15  and  C_25
                            x       y       z     vdW  Elec       q    Type
                         _______ _______ _______ _____ _____    ______ ____

>  <TORSDO>
F 3

$$$$
=
 OpenBabel11052422193D

 25 28  0  0  1  0  0  0  0  0999 V2000
  161.1890  204.5840  149.6000 C   0  0  0  0  0  0  0  0  0  0  0  0
  161.1500  205.7890  150.3130 C   0  0  0  0  0  0  0  0  0  0  0  0
  161.3460  203.3100  151.6260 C   0  0  0  0  0  3  0  0  0  0  0  0
  161.1550  204.3200  148.1730 C   0  0  0  0  0  0  0  0  0  0  0  0
  161.9770  208.1510  150.0720 C   0  0  2  0  0  3  0  0  0  0  0  0
  161.1290  203.2780  145.6020 C   0  0  0  0  0  3  0  0  0  0  0  0
  161.3020  204.4740  152.3310 N   0  0  0  0  0  0  0  0  0  0  0  0
  161.2280  202.9530  147.9820 C   0  0  0  0  0  0  0  0  0  0  0  0
  161.2180  202.4050  146.6990 C   0  0  0  0  0  2  0  0  0  0  0  0
  161.2300  206.9370  152.6200 C   0  0  2  0  0  3  0  0  0  0  0  0
  160.6380  206.6690  153.9930 C   0  0  0  0  0  1  0  0  0  0  0  0
  161.0120  207.0850  149.5600 C   0  0  0  0  0  2  0  0  0  0  0  0
  161.0540  204.6700  145.8000 C   0  0  0  0  0  3  0  0  0  0  0  0
  161.2850  203.3660  150.2410 C   0  0  0  0  0  0  0  0  0  0  0  0
  161.3180  202.2150  149.2820 C   0  0  0  0  0  3  0  0  0  0  0  0
  160.5480  208.0110  152.0360 O   0  0  0  0  0  0  0  0  0  0  0  0
  161.0670  205.2050  147.0970 C   0  0  0  0  0  3  0  0  0  0  0  0
  161.5240  208.7870  151.3930 C   0  0  0  0  0  2  0  0  0  0  0  0
  161.1820  205.7030  151.7370 C   0  0  0  0  0  0  0  0  0  0  0  0
  162.3350  209.2040  149.0140 C   0  0  0  0  0  2  0  0  0  0  0  0
  162.6680  211.1500  150.4120 F   0  0  0  0  0  0  0  0  0  0  0  0
  161.9520  210.6550  149.3370 C   0  0  1  0  0  3  0  0  0  0  0  0
  162.0410  211.5660  148.1570 C   0  0  0  0  0  0  0  0  0  0  0  0
  160.9190  211.8120  147.3740 O   0  0  0  0  0  0  0  0  0  0  0  0
  163.1300  212.1360  147.8860 O   0  0  0  0  0  1  0  0  0  0  0  0
  1 14  1  0  0  0  0
  1  2  2  0  0  0  0
  2 19  1  0  0  0  0
  3  7  1  0  0  0  0
  4  1  1  0  0  0  0
  5 20  1  6  0  0  0
  5 18  1  0  0  0  0
  6 13  2  0  0  0  0
  6  9  1  0  0  0  0
  8  4  1  0  0  0  0
  8 15  2  0  0  0  0
  9  8  1  0  0  0  0
 10 11  1  1  0  0  0
 12  5  1  0  0  0  0
 12  2  1  0  0  0  0
 13 17  1  0  0  0  0
 14  3  2  0  0  0  0
 15 14  1  0  0  0  0
 16 10  1  0  0  0  0
 17  4  2  0  0  0  0
 18 16  1  0  0  0  0
 19  7  2  0  0  0  0
 19 10  1  0  0  0  0
 20 22  1  0  0  0  0
 22 21  1  1  0  0  0
 23 22  1  0  0  0  0
 24 23  2  0  0  0  0
 25 23  1  0  0  0  0
M  END
>  <MODEL>
2

>  <REMARK>
 VINA RESULT:      -9.4      2.545      5.199
  Name = 
  3 active torsions:
  status: ('A' for Active; 'I' for Inactive)
    1  A    between atoms: C_2  and  C_25
    2  A    between atoms: C_6  and  C_15
    3  A    between atoms: C_15  and  C_25
                            x       y       z     vdW  Elec       q    Type
                         _______ _______ _______ _____ _____    ______ ____

>  <TORSDO>
F 3

$$$$
=
 OpenBabel11052422193D

 25 28  0  0  1  0  0  0  0  0999 V2000
  161.2440  204.6310  150.6120 C   0  0  0  0  0  0  0  0  0  0  0  0
  161.3720  205.9180  150.0760 C   0  0  0  0  0  0  0  0  0  0  0  0
  161.7000  205.4320  152.8260 C   0  0  0  0  0  3  0  0  0  0  0  0
  160.9550  203.3590  149.9750 C   0  0  2  0  0  3  0  0  0  0  0  0
  162.2310  207.0130  147.9810 C   0  0  2  0  0  3  0  0  0  0  0  0
  160.4500  200.7210  149.2800 C   0  0  0  0  0  3  0  0  0  0  0  0
  161.8190  206.6900  152.3180 N   0  0  0  0  0  0  0  0  0  0  0  0
  160.9450  202.3780  150.9500 C   0  0  0  0  0  0  0  0  0  0  0  0
  160.6940  201.0450  150.6240 C   0  0  0  0  0  3  0  0  0  0  0  0
  161.8880  208.4040  150.5260 C   0  0  2  0  0  3  0  0  0  0  0  0
  161.5310  209.4150  151.6020 C   0  0  0  0  0  1  0  0  0  0  0  0
  161.1550  206.1270  148.6010 C   0  0  0  0  0  2  0  0  0  0  0  0
  160.4620  201.7220  148.2900 C   0  0  0  0  0  3  0  0  0  0  0  0
  161.4040  204.3890  151.9610 C   0  0  0  0  0  0  0  0  0  0  0  0
  161.2300  202.9420  152.3080 C   0  0  0  0  0  3  0  0  0  0  0  0
  161.1560  208.6980  149.3690 O   0  0  0  0  0  0  0  0  0  0  0  0
  160.7170  203.0580  148.6340 C   0  0  0  0  0  3  0  0  0  0  0  0
  162.0350  208.5020  148.2930 C   0  0  0  0  0  2  0  0  0  0  0  0
  161.6450  206.9790  150.9900 C   0  0  0  0  0  0  0  0  0  0  0  0
  162.4400  206.7560  146.4830 C   0  0  0  0  0  2  0  0  0  0  0  0
  163.0140  204.4910  147.1120 F   0  0  0  0  0  0  0  0  0  0  0  0
  162.6080  205.2910  146.0580 C   0  0  1  0  0  3  0  0  0  0  0  0
  161.4000  204.7290  145.3830 C   0  0  0  0  0  0  0  0  0  0  0  0
  160.4080  205.5750  144.9010 O   0  0  0  0  0  0  0  0  0  0  0  0
  161.2910  203.4850  145.2240 O   0  0  0  0  0  1  0  0  0  0  0  0
  1 14  1  0  0  0  0
  2  1  2  0  0  0  0
  2 19  1  0  0  0  0
  4 17  1  6  0  0  0
  4  1  1  0  0  0  0
  4  8  1  0  0  0  0
  5 20  1  6  0  0  0
  5 18  1  0  0  0  0
  5 12  1  0  0  0  0
  6  9  2  0  0  0  0
  7  3  1  0  0  0  0
  8 15  2  0  0  0  0
  9  8  1  0  0  0  0
 10 19  1  0  0  0  0
 10 11  1  1  0  0  0
 12  2  1  0  0  0  0
 13 17  2  0  0  0  0
 13  6  1  0  0  0  0
 14 15  1  0  0  0  0
 14  3  2  0  0  0  0
 16 10  1  0  0  0  0
 18 16  1  0  0  0  0
 19  7  2  0  0  0  0
 22 20  1  0  0  0  0
 22 21  1  1  0  0  0
 23 22  1  0  0  0  0
 24 23  2  0  0  0  0
 25 23  1  0  0  0  0
M  END
>  <MODEL>
3

>  <REMARK>
 VINA RESULT:      -9.2      3.580      6.059
  Name = 
  3 active torsions:
  status: ('A' for Active; 'I' for Inactive)
    1  A    between atoms: C_2  and  C_25
    2  A    between atoms: C_6  and  C_15
    3  A    between atoms: C_15  and  C_25
                            x       y       z     vdW  Elec       q    Type
                         _______ _______ _______ _____ _____    ______ ____

>  <TORSDO>
F 3

$$$$
=
 OpenBabel11052422193D

 25 28  0  0  1  0  0  0  0  0999 V2000
  161.1790  203.0820  149.4700 C   0  0  0  0  0  0  0  0  0  0  0  0
  161.1210  204.4640  149.6940 C   0  0  0  0  0  0  0  0  0  0  0  0
  161.5600  202.6510  151.7980 C   0  0  0  0  0  3  0  0  0  0  0  0
  161.0550  202.3110  148.2470 C   0  0  0  0  0  0  0  0  0  0  0  0
  161.7870  206.5930  148.5330 C   0  0  2  0  0  3  0  0  0  0  0  0
  160.9020  200.3930  146.2480 C   0  0  0  0  0  3  0  0  0  0  0  0
  161.4980  203.9910  152.0310 N   0  0  0  0  0  0  0  0  0  0  0  0
  161.1950  200.9720  148.5630 C   0  0  0  0  0  0  0  0  0  0  0  0
  161.1230  199.9890  147.5750 C   0  0  0  0  0  2  0  0  0  0  0  0
  161.3030  206.3840  151.4050 C   0  0  2  0  0  3  0  0  0  0  0  0
  160.8300  206.6240  152.8290 C   0  0  0  0  0  1  0  0  0  0  0  0
  160.8520  205.3870  148.5360 C   0  0  0  0  0  2  0  0  0  0  0  0
  160.7600  201.7570  145.9300 C   0  0  0  0  0  3  0  0  0  0  0  0
  161.3930  202.1900  150.5000 C   0  0  0  0  0  0  0  0  0  0  0  0
  161.4240  200.7680  150.0290 C   0  0  0  0  0  3  0  0  0  0  0  0
  160.5170  207.1480  150.5340 O   0  0  0  0  0  0  0  0  0  0  0  0
  160.8370  202.7330  146.9350 C   0  0  0  0  0  3  0  0  0  0  0  0
  161.3960  207.6580  149.5660 C   0  0  0  0  0  2  0  0  0  0  0  0
  161.2630  204.9100  151.0420 C   0  0  0  0  0  0  0  0  0  0  0  0
  162.0030  207.1900  147.1360 C   0  0  0  0  0  2  0  0  0  0  0  0
  163.0290  205.0880  146.5170 F   0  0  0  0  0  0  0  0  0  0  0  0
  162.3760  206.2030  146.0210 C   0  0  1  0  0  3  0  0  0  0  0  0
  161.2180  205.8180  145.1610 C   0  0  0  0  0  0  0  0  0  0  0  0
  161.3810  204.8980  144.1330 O   0  0  0  0  0  0  0  0  0  0  0  0
  160.0800  206.3090  145.3840 O   0  0  0  0  0  1  0  0  0  0  0  0
  1  2  2  0  0  0  0
  1 14  1  0  0  0  0
  2 19  1  0  0  0  0
  3  7  1  0  0  0  0
  4  8  1  0  0  0  0
  4  1  1  0  0  0  0
  5 20  1  6  0  0  0
  5 12  1  0  0  0  0
  5 18  1  0  0  0  0
  6  9  1  0  0  0  0
  8 15  2  0  0  0  0
  9  8  1  0  0  0  0
 10 11  1  1  0  0  0
 12  2  1  0  0  0  0
 13  6  2  0  0  0  0
 13 17  1  0  0  0  0
 14  3  2  0  0  0  0
 15 14  1  0  0  0  0
 16 10  1  0  0  0  0
 17  4  2  0  0  0  0
 18 16  1  0  0  0  0
 19 10  1  0  0  0  0
 19  7  2  0  0  0  0
 22 21  1  1  0  0  0
 22 20  1  0  0  0  0
 23 25  1  0  0  0  0
 23 22  1  0  0  0  0
 24 23  2  0  0  0  0
M  END
>  <MODEL>
4

>  <REMARK>
 VINA RESULT:      -9.2      3.680      6.424
  Name = 
  3 active torsions:
  status: ('A' for Active; 'I' for Inactive)
    1  A    between atoms: C_2  and  C_25
    2  A    between atoms: C_6  and  C_15
    3  A    between atoms: C_15  and  C_25
                            x       y       z     vdW  Elec       q    Type
                         _______ _______ _______ _____ _____    ______ ____

>  <TORSDO>
F 3

$$$$
=
 OpenBabel11052422193D

 25 28  0  0  1  0  0  0  0  0999 V2000
  161.2640  205.4020  150.0680 C   0  0  0  0  0  0  0  0  0  0  0  0
  161.2240  206.5090  150.9260 C   0  0  0  0  0  0  0  0  0  0  0  0
  161.2540  203.8780  151.9190 C   0  0  0  0  0  3  0  0  0  0  0  0
  161.3070  205.3230  148.6190 C   0  0  0  0  0  0  0  0  0  0  0  0
  162.1450  208.8460  151.0360 C   0  0  2  0  0  3  0  0  0  0  0  0
  161.4010  204.6150  145.9380 C   0  0  0  0  0  3  0  0  0  0  0  0
  161.2070  204.9450  152.7640 N   0  0  0  0  0  0  0  0  0  0  0  0
  161.3450  203.9890  148.2590 C   0  0  0  0  0  0  0  0  0  0  0  0
  161.3930  203.6080  146.9180 C   0  0  0  0  0  2  0  0  0  0  0  0
  161.2030  207.3520  153.3620 C   0  0  2  0  0  3  0  0  0  0  0  0
  160.5200  206.9380  154.6540 C   0  0  0  0  0  1  0  0  0  0  0  0
  161.1770  207.8940  150.3390 C   0  0  0  0  0  2  0  0  0  0  0  0
  161.3630  205.9720  146.3080 C   0  0  0  0  0  3  0  0  0  0  0  0
  161.2790  204.1110  150.5510 C   0  0  0  0  0  0  0  0  0  0  0  0
  161.3300  203.0890  149.4560 C   0  0  0  0  0  3  0  0  0  0  0  0
  160.5950  208.5200  152.8840 O   0  0  0  0  0  0  0  0  0  0  0  0
  161.3160  206.3390  147.6620 C   0  0  0  0  0  3  0  0  0  0  0  0
  161.6350  209.3280  152.4000 C   0  0  0  0  0  2  0  0  0  0  0  0
  161.1670  206.2430  152.3270 C   0  0  0  0  0  0  0  0  0  0  0  0
  162.6030  210.0070  150.1440 C   0  0  0  0  0  2  0  0  0  0  0  0
  161.1230  211.8540  150.6520 F   0  0  0  0  0  0  0  0  0  0  0  0
  161.5080  210.9690  149.6600 C   0  0  1  0  0  3  0  0  0  0  0  0
  161.8660  211.6860  148.4000 C   0  0  0  0  0  0  0  0  0  0  0  0
  160.9360  211.8120  147.3750 O   0  0  0  0  0  0  0  0  0  0  0  0
  163.0070  212.2030  148.2750 O   0  0  0  0  0  1  0  0  0  0  0  0
  1 14  1  0  0  0  0
  1  2  2  0  0  0  0
  2 19  1  0  0  0  0
  3  7  1  0  0  0  0
  4  1  1  0  0  0  0
  5 20  1  6  0  0  0
  5 18  1  0  0  0  0
  6 13  2  0  0  0  0
  6  9  1  0  0  0  0
  8  4  1  0  0  0  0
  8 15  2  0  0  0  0
  9  8  1  0  0  0  0
 10 11  1  1  0  0  0
 12  2  1  0  0  0  0
 12  5  1  0  0  0  0
 13 17  1  0  0  0  0
 14  3  2  0  0  0  0
 15 14  1  0  0  0  0
 16 10  1  0  0  0  0
 17  4  2  0  0  0  0
 18 16  1  0  0  0  0
 19  7  2  0  0  0  0
 19 10  1  0  0  0  0
 22 20  1  0  0  0  0
 22 21  1  1  0  0  0
 23 22  1  0  0  0  0
 24 23  2  0  0  0  0
 25 23  1  0  0  0  0
M  END
>  <MODEL>
5

>  <REMARK>
 VINA RESULT:      -9.2      2.307      5.089
  Name = 
  3 active torsions:
  status: ('A' for Active; 'I' for Inactive)
    1  A    between atoms: C_2  and  C_25
    2  A    between atoms: C_6  and  C_15
    3  A    between atoms: C_15  and  C_25
                            x       y       z     vdW  Elec       q    Type
                         _______ _______ _______ _____ _____    ______ ____

>  <TORSDO>
F 3

$$$$
=
 OpenBabel11052422193D

 25 28  0  0  1  0  0  0  0  0999 V2000
  161.1420  205.9450  151.1520 C   0  0  0  0  0  0  0  0  0  0  0  0
  161.0930  207.3220  151.4030 C   0  0  0  0  0  0  0  0  0  0  0  0
  161.2410  205.4490  153.4960 C   0  0  0  0  0  3  0  0  0  0  0  0
  161.1400  205.2050  149.9030 C   0  0  0  0  0  0  0  0  0  0  0  0
  161.9410  209.4580  150.3830 C   0  0  2  0  0  3  0  0  0  0  0  0
  161.1700  203.3390  147.8500 C   0  0  0  0  0  3  0  0  0  0  0  0
  161.1870  206.7850  153.7550 N   0  0  0  0  0  0  0  0  0  0  0  0
  161.2090  203.8560  150.1980 C   0  0  0  0  0  0  0  0  0  0  0  0
  161.2260  202.8990  149.1830 C   0  0  0  0  0  2  0  0  0  0  0  0
  161.1240  209.1960  153.1730 C   0  0  2  0  0  3  0  0  0  0  0  0
  160.4970  209.4170  154.5400 C   0  0  0  0  0  1  0  0  0  0  0  0
  160.9820  208.2790  150.2470 C   0  0  0  0  0  2  0  0  0  0  0  0
  161.1000  204.7130  147.5530 C   0  0  0  0  0  3  0  0  0  0  0  0
  161.2130  205.0240  152.1760 C   0  0  0  0  0  0  0  0  0  0  0  0
  161.2630  203.6120  151.6750 C   0  0  0  0  0  3  0  0  0  0  0  0
  160.4630  210.0020  152.2380 O   0  0  0  0  0  0  0  0  0  0  0  0
  161.0840  205.6630  148.5860 C   0  0  0  0  0  3  0  0  0  0  0  0
  161.4600  210.5090  151.3910 C   0  0  0  0  0  2  0  0  0  0  0  0
  161.0900  207.7330  152.7700 C   0  0  0  0  0  0  0  0  0  0  0  0
  162.3310  210.0810  149.0360 C   0  0  0  0  0  2  0  0  0  0  0  0
  163.5060  212.0990  148.4020 F   0  0  0  0  0  0  0  0  0  0  0  0
  162.3410  211.6150  148.9700 C   0  0  1  0  0  3  0  0  0  0  0  0
  161.1330  212.1860  148.3050 C   0  0  0  0  0  0  0  0  0  0  0  0
  160.3530  213.1330  148.9580 O   0  0  0  0  0  1  0  0  0  0  0  0
  160.8330  211.8290  147.1360 O   0  0  0  0  0  0  0  0  0  0  0  0
  1  2  2  0  0  0  0
  1 14  1  0  0  0  0
  2 19  1  0  0  0  0
  3  7  1  0  0  0  0
  4  8  1  0  0  0  0
  4  1  1  0  0  0  0
  5 20  1  6  0  0  0
  5 18  1  0  0  0  0
  6  9  1  0  0  0  0
  8 15  2  0  0  0  0
  9  8  1  0  0  0  0
 10 11  1  1  0  0  0
 12  5  1  0  0  0  0
 12  2  1  0  0  0  0
 13  6  2  0  0  0  0
 13 17  1  0  0  0  0
 14  3  2  0  0  0  0
 15 14  1  0  0  0  0
 16 10  1  0  0  0  0
 17  4  2  0  0  0  0
 18 16  1  0  0  0  0
 19 10  1  0  0  0  0
 19  7  2  0  0  0  0
 22 21  1  6  0  0  0
 22 20  1  0  0  0  0
 23 24  1  0  0  0  0
 23 22  1  0  0  0  0
 25 23  2  0  0  0  0
M  END
>  <MODEL>
6

>  <REMARK>
 VINA RESULT:      -8.9      2.804      5.238
  Name = 
  3 active torsions:
  status: ('A' for Active; 'I' for Inactive)
    1  A    between atoms: C_2  and  C_25
    2  A    between atoms: C_6  and  C_15
    3  A    between atoms: C_15  and  C_25
                            x       y       z     vdW  Elec       q    Type
                         _______ _______ _______ _____ _____    ______ ____

>  <TORSDO>
F 3

$$$$
=
 OpenBabel11052422193D

 25 28  0  0  1  0  0  0  0  0999 V2000
  161.2890  205.8890  151.3860 C   0  0  0  0  0  0  0  0  0  0  0  0
  161.3250  205.0360  150.2760 C   0  0  0  0  0  0  0  0  0  0  0  0
  160.6450  204.0910  152.8360 C   0  0  0  0  0  3  0  0  0  0  0  0
  161.5500  207.3130  151.5010 C   0  0  0  0  0  0  0  0  0  0  0  0
  160.8020  205.1140  147.8180 C   0  0  2  0  0  3  0  0  0  0  0  0
  161.9240  209.9540  152.2640 C   0  0  0  0  0  3  0  0  0  0  0  0
  160.6830  203.2490  151.7670 N   0  0  0  0  0  0  0  0  0  0  0  0
  161.3710  207.6820  152.8210 C   0  0  0  0  0  0  0  0  0  0  0  0
  161.5520  209.0030  153.2290 C   0  0  0  0  0  3  0  0  0  0  0  0
  160.9560  202.6490  149.3750 C   0  0  2  0  0  3  0  0  0  0  0  0
  161.2630  201.2410  149.8560 C   0  0  0  0  0  1  0  0  0  0  0  0
  161.7270  205.5880  148.9350 C   0  0  0  0  0  2  0  0  0  0  0  0
  162.1050  209.5750  150.9200 C   0  0  0  0  0  3  0  0  0  0  0  0
  160.9570  205.4290  152.6430 C   0  0  2  0  0  3  0  0  0  0  0  0
  160.9750  206.5160  153.6750 C   0  0  0  0  0  3  0  0  0  0  0  0
  161.8370  202.9740  148.3370 O   0  0  0  0  0  0  0  0  0  0  0  0
  161.9180  208.2410  150.5260 C   0  0  0  0  0  3  0  0  0  0  0  0
  161.0760  203.6680  147.3850 C   0  0  0  0  0  2  0  0  0  0  0  0
  161.0320  203.6580  150.5060 C   0  0  0  0  0  0  0  0  0  0  0  0
  160.7480  206.0770  146.6250 C   0  0  0  0  0  2  0  0  0  0  0  0
  162.8990  205.1610  146.0010 F   0  0  0  0  0  0  0  0  0  0  0  0
  161.8090  205.8730  145.5340 C   0  0  1  0  0  3  0  0  0  0  0  0
  161.2610  205.2700  144.2820 C   0  0  0  0  0  0  0  0  0  0  0  0
  161.5990  205.7970  143.0420 O   0  0  0  0  0  0  0  0  0  0  0  0
  160.5090  204.2620  144.3480 O   0  0  0  0  0  1  0  0  0  0  0  0
  1  4  2  0  0  0  0
  1 14  1  0  0  0  0
  2 19  2  0  0  0  0
  2  1  1  0  0  0  0
  4  8  1  0  0  0  0
  5 20  1  6  0  0  0
  5 12  1  0  0  0  0
  6  9  2  0  0  0  0
  7  3  2  0  0  0  0
  8  9  1  0  0  0  0
  8 15  2  0  0  0  0
 10 11  1  1  0  0  0
 10 19  1  0  0  0  0
 12  2  1  0  0  0  0
 13  6  1  0  0  0  0
 14  3  1  6  0  0  0
 14 15  1  0  0  0  0
 16 10  1  0  0  0  0
 17 13  2  0  0  0  0
 17  4  1  0  0  0  0
 18  5  1  0  0  0  0
 18 16  1  0  0  0  0
 19  7  1  0  0  0  0
 22 21  1  1  0  0  0
 22 20  1  0  0  0  0
 23 25  1  0  0  0  0
 23 22  1  0  0  0  0
 24 23  2  0  0  0  0
M  END
>  <MODEL>
7

>  <REMARK>
 VINA RESULT:      -8.9      4.205      7.808
  Name = 
  3 active torsions:
  status: ('A' for Active; 'I' for Inactive)
    1  A    between atoms: C_2  and  C_25
    2  A    between atoms: C_6  and  C_15
    3  A    between atoms: C_15  and  C_25
                            x       y       z     vdW  Elec       q    Type
                         _______ _______ _______ _____ _____    ______ ____

>  <TORSDO>
F 3

$$$$
=
 OpenBabel11052422193D

 25 28  0  0  1  0  0  0  0  0999 V2000
  161.2430  205.1150  150.1700 C   0  0  0  0  0  0  0  0  0  0  0  0
  161.2240  203.8820  149.5070 C   0  0  0  0  0  0  0  0  0  0  0  0
  160.4570  204.1140  152.2020 C   0  0  0  0  0  3  0  0  0  0  0  0
  161.6060  206.4410  149.7040 C   0  0  2  0  0  3  0  0  0  0  0  0
  160.7270  202.9800  147.2130 C   0  0  2  0  0  3  0  0  0  0  0  0
  162.1680  209.1330  149.3360 C   0  0  0  0  0  3  0  0  0  0  0  0
  160.4410  202.9070  151.5720 N   0  0  0  0  0  0  0  0  0  0  0  0
  161.4450  207.3290  150.7510 C   0  0  0  0  0  0  0  0  0  0  0  0
  161.7200  208.6860  150.5910 C   0  0  0  0  0  3  0  0  0  0  0  0
  160.6870  201.3640  149.6450 C   0  0  2  0  0  3  0  0  0  0  0  0
  160.8870  200.2600  150.6690 C   0  0  0  0  0  1  0  0  0  0  0  0
  161.6760  203.8090  148.0730 C   0  0  0  0  0  2  0  0  0  0  0  0
  162.3310  208.2260  148.2720 C   0  0  0  0  0  3  0  0  0  0  0  0
  160.8680  205.2320  151.4920 C   0  0  0  0  0  0  0  0  0  0  0  0
  160.9580  206.6430  151.9910 C   0  0  0  0  0  3  0  0  0  0  0  0
  161.5980  201.1780  148.5980 O   0  0  0  0  0  0  0  0  0  0  0  0
  162.0490  206.8630  148.4500 C   0  0  0  0  0  3  0  0  0  0  0  0
  160.8970  201.4690  147.4180 C   0  0  0  0  0  2  0  0  0  0  0  0
  160.8280  202.7410  150.2680 C   0  0  0  0  0  0  0  0  0  0  0  0
  160.7530  203.3710  145.7290 C   0  0  0  0  0  2  0  0  0  0  0  0
  162.8720  203.9800  144.7320 F   0  0  0  0  0  0  0  0  0  0  0  0
  161.7330  204.4850  145.3340 C   0  0  1  0  0  3  0  0  0  0  0  0
  161.1060  205.5560  144.5030 C   0  0  0  0  0  0  0  0  0  0  0  0
  161.5810  205.8210  143.2240 O   0  0  0  0  0  0  0  0  0  0  0  0
  160.1260  206.2050  144.9520 O   0  0  0  0  0  1  0  0  0  0  0  0
  1 14  1  0  0  0  0
  2  1  2  0  0  0  0
  2 19  1  0  0  0  0
  4 17  1  6  0  0  0
  4  1  1  0  0  0  0
  4  8  1  0  0  0  0
  5 20  1  6  0  0  0
  5 18  1  0  0  0  0
  5 12  1  0  0  0  0
  6  9  2  0  0  0  0
  7  3  1  0  0  0  0
  8 15  2  0  0  0  0
  9  8  1  0  0  0  0
 10 19  1  0  0  0  0
 10 11  1  1  0  0  0
 12  2  1  0  0  0  0
 13 17  2  0  0  0  0
 13  6  1  0  0  0  0
 14 15  1  0  0  0  0
 14  3  2  0  0  0  0
 16 10  1  0  0  0  0
 18 16  1  0  0  0  0
 19  7  2  0  0  0  0
 22 21  1  6  0  0  0
 22 20  1  0  0  0  0
 23 25  1  0  0  0  0
 23 22  1  0  0  0  0
 24 23  2  0  0  0  0
M  END
>  <MODEL>
8

>  <REMARK>
 VINA RESULT:      -8.1      4.698      8.046
  Name = 
  3 active torsions:
  status: ('A' for Active; 'I' for Inactive)
    1  A    between atoms: C_2  and  C_25
    2  A    between atoms: C_6  and  C_15
    3  A    between atoms: C_15  and  C_25
                            x       y       z     vdW  Elec       q    Type
                         _______ _______ _______ _____ _____    ______ ____

>  <TORSDO>
F 3

$$$$
=
 OpenBabel11052422193D

 25 28  0  0  1  0  0  0  0  0999 V2000
  161.3180  208.1070  152.3560 C   0  0  0  0  0  0  0  0  0  0  0  0
  161.1890  207.1810  151.3140 C   0  0  0  0  0  0  0  0  0  0  0  0
  162.2540  209.7470  150.8780 C   0  0  0  0  0  3  0  0  0  0  0  0
  160.9890  208.0040  153.7660 C   0  0  2  0  0  3  0  0  0  0  0  0
  161.3810  204.6990  150.9600 C   0  0  2  0  0  3  0  0  0  0  0  0
  160.5580  208.3350  156.4870 C   0  0  0  0  0  3  0  0  0  0  0  0
  162.1270  208.8590  149.8540 N   0  0  0  0  0  0  0  0  0  0  0  0
  161.3160  209.2010  154.3770 C   0  0  0  0  0  0  0  0  0  0  0  0
  161.1100  209.3900  155.7430 C   0  0  0  0  0  3  0  0  0  0  0  0
  161.5810  206.6720  148.8170 C   0  0  2  0  0  3  0  0  0  0  0  0
  161.4250  207.4320  147.5100 C   0  0  0  0  0  1  0  0  0  0  0  0
  160.5830  205.8330  151.5970 C   0  0  0  0  0  2  0  0  0  0  0  0
  160.2270  207.1170  155.8630 C   0  0  0  0  0  3  0  0  0  0  0  0
  161.8390  209.3670  152.1460 C   0  0  0  0  0  0  0  0  0  0  0  0
  161.8890  210.1830  153.4020 C   0  0  0  0  0  3  0  0  0  0  0  0
  160.5540  205.7270  148.9150 O   0  0  0  0  0  0  0  0  0  0  0  0
  160.4420  206.9420  154.4870 C   0  0  0  0  0  3  0  0  0  0  0  0
  161.1410  204.5700  149.4500 C   0  0  0  0  0  2  0  0  0  0  0  0
  161.5930  207.6070  150.0120 C   0  0  0  0  0  0  0  0  0  0  0  0
  161.2210  203.3590  151.6900 C   0  0  0  0  0  2  0  0  0  0  0  0
  162.4970  201.3280  152.0110 F   0  0  0  0  0  0  0  0  0  0  0  0
  161.9200  202.1480  151.0570 C   0  0  1  0  0  3  0  0  0  0  0  0
  161.0390  201.3720  150.1340 C   0  0  0  0  0  0  0  0  0  0  0  0
  161.5810  200.7010  149.0440 O   0  0  0  0  0  0  0  0  0  0  0  0
  159.8020  201.3030  150.3580 O   0  0  0  0  0  1  0  0  0  0  0  0
  1  4  1  0  0  0  0
  2 12  1  0  0  0  0
  2  1  1  0  0  0  0
  3 14  1  0  0  0  0
  4  8  1  0  0  0  0
  4 17  1  1  0  0  0
  5 12  1  0  0  0  0
  5 20  1  1  0  0  0
  7 19  1  0  0  0  0
  7  3  2  0  0  0  0
  8  9  1  0  0  0  0
  9  6  2  0  0  0  0
 10 11  1  6  0  0  0
 10 16  1  0  0  0  0
 10 19  1  0  0  0  0
 13  6  1  0  0  0  0
 14  1  2  0  0  0  0
 14 15  1  0  0  0  0
 15  8  2  0  0  0  0
 16 18  1  0  0  0  0
 17 13  2  0  0  0  0
 18  5  1  0  0  0  0
 19  2  2  0  0  0  0
 22 20  1  0  0  0  0
 22 21  1  1  0  0  0
 23 25  1  0  0  0  0
 23 22  1  0  0  0  0
 24 23  2  0  0  0  0
M  END
>  <MODEL>
9

>  <REMARK>
 VINA RESULT:      -7.8      3.365      6.364
  Name = 
  3 active torsions:
  status: ('A' for Active; 'I' for Inactive)
    1  A    between atoms: C_2  and  C_25
    2  A    between atoms: C_6  and  C_15
    3  A    between atoms: C_15  and  C_25
                            x       y       z     vdW  Elec       q    Type
                         _______ _______ _______ _____ _____    ______ ____

>  <TORSDO>
F 3

$$$$
