=
 OpenBabel11052423163D

 27 30  0  0  0  0  0  0  0  0999 V2000
  161.7840  209.0050  149.5850 C   0  0  0  0  0  3  0  0  0  0  0  0
  161.7520  210.2140  150.1780 C   0  0  0  0  0  0  0  0  0  0  0  0
  160.0610  210.7020  151.9700 C   0  0  0  0  0  3  0  0  0  0  0  0
  160.3270  210.7990  155.6910 N   0  0  0  0  0  2  0  0  0  0  0  0
  158.7090  211.3930  157.2590 O   0  0  0  0  0  0  0  0  0  0  0  0
  162.3360  210.1780  152.6130 C   0  0  0  0  0  3  0  0  0  0  0  0
  158.2800  211.1050  153.6880 C   0  0  0  0  0  2  0  0  0  0  0  0
  158.1590  211.9040  154.9880 C   0  0  0  0  0  2  0  0  0  0  0  0
  159.7120  210.8510  153.3130 C   0  0  0  0  0  0  0  0  0  0  0  0
  159.0510  211.3370  156.0500 C   0  0  0  0  0  0  0  0  0  0  0  0
  160.6800  210.6470  154.3140 C   0  0  0  0  0  0  0  0  0  0  0  0
  161.3760  210.3680  151.6080 C   0  0  0  0  0  0  0  0  0  0  0  0
  161.9890  210.3130  153.9600 C   0  0  0  0  0  3  0  0  0  0  0  0
  160.4320  206.7200  148.3050 N   0  0  0  0  0  1  0  0  0  0  0  0
  161.2890  205.2730  151.6190 C   0  0  0  0  0  0  0  0  0  0  0  0
  161.1310  203.9860  152.3440 C   0  0  0  0  0  1  0  0  0  0  0  0
  161.6040  207.6990  150.2480 C   0  0  0  0  0  0  0  0  0  0  0  0
  160.8260  205.3970  150.3070 C   0  0  0  0  0  3  0  0  0  0  0  0
  161.8830  206.3650  152.2570 C   0  0  0  0  0  3  0  0  0  0  0  0
  162.0330  207.5750  151.5750 C   0  0  0  0  0  3  0  0  0  0  0  0
  160.9730  206.6050  149.6180 C   0  0  0  0  0  0  0  0  0  0  0  0
  162.5660  213.6890  147.7740 C   0  0  0  0  0  3  0  0  0  0  0  0
  162.0390  211.4180  149.3510 C   0  0  0  0  0  0  0  0  0  0  0  0
  161.2350  212.5670  149.4540 C   0  0  0  0  0  3  0  0  0  0  0  0
  161.4980  213.6950  148.6720 C   0  0  0  0  0  3  0  0  0  0  0  0
  163.3720  212.5540  147.6560 C   0  0  0  0  0  3  0  0  0  0  0  0
  163.1100  211.4260  148.4380 C   0  0  0  0  0  3  0  0  0  0  0  0
  1  2  2  0  0  0  0
  1 17  1  0  0  0  0
  2 12  1  0  0  0  0
  3  9  1  0  0  0  0
  4 10  1  0  0  0  0
  6 13  2  0  0  0  0
  7  8  1  0  0  0  0
  8 10  1  0  0  0  0
  9  7  1  0  0  0  0
  9 11  2  0  0  0  0
 10  5  2  0  0  0  0
 11  4  1  0  0  0  0
 12  3  2  0  0  0  0
 12  6  1  0  0  0  0
 13 11  1  0  0  0  0
 14 21  1  0  0  0  0
 15 19  1  0  0  0  0
 15 16  1  0  0  0  0
 17 20  1  0  0  0  0
 18 15  2  0  0  0  0
 20 19  2  0  0  0  0
 21 17  2  0  0  0  0
 21 18  1  0  0  0  0
 22 25  1  0  0  0  0
 23 24  1  0  0  0  0
 23  2  1  0  0  0  0
 25 24  2  0  0  0  0
 26 22  2  0  0  0  0
 26 27  1  0  0  0  0
 27 23  2  0  0  0  0
M  END
>  <MODEL>
1

>  <REMARK>
 VINA RESULT:      -6.9      0.000      0.000
  Name = 
  3 active torsions:
  status: ('A' for Active; 'I' for Inactive)
    1  A    between atoms: C_1  and  C_18
    2  A    between atoms: C_9  and  C_15
    3  A    between atoms: C_15  and  C_19
                            x       y       z     vdW  Elec       q    Type
                         _______ _______ _______ _____ _____    ______ ____

>  <TORSDO>
F 3

$$$$
=
 OpenBabel11052423163D

 27 30  0  0  0  0  0  0  0  0999 V2000
  160.8940  206.1490  152.5610 C   0  0  0  0  0  3  0  0  0  0  0  0
  160.9740  207.4130  153.0200 C   0  0  0  0  0  0  0  0  0  0  0  0
  160.5460  209.7690  152.2610 C   0  0  0  0  0  3  0  0  0  0  0  0
  162.0070  211.8020  149.4950 N   0  0  0  0  0  2  0  0  0  0  0  0
  161.4360  213.9520  148.7990 O   0  0  0  0  0  0  0  0  0  0  0  0
  162.1850  208.4340  151.0800 C   0  0  0  0  0  3  0  0  0  0  0  0
  160.1210  212.1610  151.6420 C   0  0  0  0  0  2  0  0  0  0  0  0
  159.9120  212.9470  150.3440 C   0  0  0  0  0  2  0  0  0  0  0  0
  160.7910  210.8390  151.3990 C   0  0  0  0  0  0  0  0  0  0  0  0
  161.1630  212.9570  149.5180 C   0  0  0  0  0  0  0  0  0  0  0  0
  161.7520  210.7090  150.3800 C   0  0  0  0  0  0  0  0  0  0  0  0
  161.2370  208.5560  152.1070 C   0  0  0  0  0  0  0  0  0  0  0  0
  162.4440  209.5060  150.2230 C   0  0  0  0  0  3  0  0  0  0  0  0
  161.9060  203.5280  151.6700 N   0  0  0  0  0  1  0  0  0  0  0  0
  160.9210  205.0500  148.4260 C   0  0  0  0  0  0  0  0  0  0  0  0
  160.9180  204.6880  146.9850 C   0  0  0  0  0  1  0  0  0  0  0  0
  160.9090  205.7290  151.1470 C   0  0  0  0  0  0  0  0  0  0  0  0
  161.3740  204.1300  149.3750 C   0  0  0  0  0  3  0  0  0  0  0  0
  160.4890  206.3150  148.8290 C   0  0  0  0  0  3  0  0  0  0  0  0
  160.4900  206.6540  150.1850 C   0  0  0  0  0  3  0  0  0  0  0  0
  161.3780  204.4630  150.7340 C   0  0  0  0  0  0  0  0  0  0  0  0
  160.6570  208.0720  157.2610 C   0  0  0  0  0  3  0  0  0  0  0  0
  160.8570  207.6450  154.4860 C   0  0  0  0  0  0  0  0  0  0  0  0
  161.5620  208.6920  155.1050 C   0  0  0  0  0  3  0  0  0  0  0  0
  161.4620  208.9060  156.4820 C   0  0  0  0  0  3  0  0  0  0  0  0
  159.9530  207.0240  156.6640 C   0  0  0  0  0  3  0  0  0  0  0  0
  160.0540  206.8110  155.2860 C   0  0  0  0  0  3  0  0  0  0  0  0
  1  2  2  0  0  0  0
  2 23  1  0  0  0  0
  4 10  1  0  0  0  0
  4 11  1  0  0  0  0
  5 10  2  0  0  0  0
  6 12  2  0  0  0  0
  8  7  1  0  0  0  0
  9  7  1  0  0  0  0
  9  3  2  0  0  0  0
 10  8  1  0  0  0  0
 11  9  1  0  0  0  0
 12  3  1  0  0  0  0
 12  2  1  0  0  0  0
 13 11  2  0  0  0  0
 13  6  1  0  0  0  0
 15 19  2  0  0  0  0
 15 18  1  0  0  0  0
 16 15  1  0  0  0  0
 17  1  1  0  0  0  0
 18 21  2  0  0  0  0
 19 20  1  0  0  0  0
 20 17  2  0  0  0  0
 21 17  1  0  0  0  0
 21 14  1  0  0  0  0
 23 24  2  0  0  0  0
 23 27  1  0  0  0  0
 24 25  1  0  0  0  0
 25 22  2  0  0  0  0
 26 22  1  0  0  0  0
 27 26  2  0  0  0  0
M  END
>  <MODEL>
2

>  <REMARK>
 VINA RESULT:      -6.8      2.987      5.735
  Name = 
  3 active torsions:
  status: ('A' for Active; 'I' for Inactive)
    1  A    between atoms: C_1  and  C_18
    2  A    between atoms: C_9  and  C_15
    3  A    between atoms: C_15  and  C_19
                            x       y       z     vdW  Elec       q    Type
                         _______ _______ _______ _____ _____    ______ ____

>  <TORSDO>
F 3

$$$$
=
 OpenBabel11052423163D

 27 30  0  0  0  0  0  0  0  0999 V2000
  161.0010  207.0410  153.7710 C   0  0  0  0  0  3  0  0  0  0  0  0
  161.1320  207.0830  152.4300 C   0  0  0  0  0  0  0  0  0  0  0  0
  160.5290  209.5010  152.1180 C   0  0  0  0  0  3  0  0  0  0  0  0
  161.6200  212.0420  149.6130 N   0  0  0  0  0  2  0  0  0  0  0  0
  160.8900  214.2380  149.3420 O   0  0  0  0  0  0  0  0  0  0  0  0
  162.1010  208.4770  150.5890 C   0  0  0  0  0  3  0  0  0  0  0  0
  159.9400  211.9330  151.9500 C   0  0  0  0  0  2  0  0  0  0  0  0
  159.5710  212.9050  150.8260 C   0  0  0  0  0  2  0  0  0  0  0  0
  160.6410  210.7100  151.4300 C   0  0  0  0  0  0  0  0  0  0  0  0
  160.7330  213.1250  149.9050 C   0  0  0  0  0  0  0  0  0  0  0  0
  161.5020  210.8060  150.3220 C   0  0  0  0  0  0  0  0  0  0  0  0
  161.2530  208.3730  151.7020 C   0  0  0  0  0  0  0  0  0  0  0  0
  162.2280  209.6880  149.9040 C   0  0  0  0  0  3  0  0  0  0  0  0
  159.2900  207.3350  156.1520 N   0  0  0  0  0  1  0  0  0  0  0  0
  161.3440  210.4240  156.3680 C   0  0  0  0  0  0  0  0  0  0  0  0
  161.4830  211.6060  157.2580 C   0  0  0  0  0  1  0  0  0  0  0  0
  161.0970  208.1860  154.6960 C   0  0  0  0  0  0  0  0  0  0  0  0
  160.4210  209.4230  156.6770 C   0  0  0  0  0  3  0  0  0  0  0  0
  162.1240  210.3240  155.2130 C   0  0  0  0  0  3  0  0  0  0  0  0
  161.9940  209.2110  154.3780 C   0  0  0  0  0  3  0  0  0  0  0  0
  160.2860  208.3060  155.8460 C   0  0  0  0  0  0  0  0  0  0  0  0
  160.9760  203.3840  150.2370 C   0  0  0  0  0  3  0  0  0  0  0  0
  161.0850  205.8030  151.6720 C   0  0  0  0  0  0  0  0  0  0  0  0
  160.8510  205.8000  150.2850 C   0  0  0  0  0  3  0  0  0  0  0  0
  160.7980  204.5990  149.5730 C   0  0  0  0  0  3  0  0  0  0  0  0
  161.2050  203.3690  151.6150 C   0  0  0  0  0  3  0  0  0  0  0  0
  161.2580  204.5700  152.3280 C   0  0  0  0  0  3  0  0  0  0  0  0
  1 17  1  0  0  0  0
  2  1  2  0  0  0  0
  4 10  1  0  0  0  0
  4 11  1  0  0  0  0
  5 10  2  0  0  0  0
  6 12  2  0  0  0  0
  8  7  1  0  0  0  0
  9  7  1  0  0  0  0
  9  3  2  0  0  0  0
 10  8  1  0  0  0  0
 11  9  1  0  0  0  0
 12  3  1  0  0  0  0
 12  2  1  0  0  0  0
 13 11  2  0  0  0  0
 13  6  1  0  0  0  0
 15 18  1  0  0  0  0
 15 16  1  0  0  0  0
 17 21  1  0  0  0  0
 19 15  2  0  0  0  0
 20 17  2  0  0  0  0
 20 19  1  0  0  0  0
 21 14  1  0  0  0  0
 21 18  2  0  0  0  0
 22 26  1  0  0  0  0
 23 27  1  0  0  0  0
 23  2  1  0  0  0  0
 24 23  2  0  0  0  0
 25 22  2  0  0  0  0
 25 24  1  0  0  0  0
 26 27  2  0  0  0  0
M  END
>  <MODEL>
3

>  <REMARK>
 VINA RESULT:      -6.7      2.692      6.315
  Name = 
  3 active torsions:
  status: ('A' for Active; 'I' for Inactive)
    1  A    between atoms: C_1  and  C_18
    2  A    between atoms: C_9  and  C_15
    3  A    between atoms: C_15  and  C_19
                            x       y       z     vdW  Elec       q    Type
                         _______ _______ _______ _____ _____    ______ ____

>  <TORSDO>
F 3

$$$$
=
 OpenBabel11052423163D

 27 30  0  0  0  0  0  0  0  0999 V2000
  161.1770  205.7750  148.3430 C   0  0  0  0  0  3  0  0  0  0  0  0
  161.1910  204.6960  149.1510 C   0  0  0  0  0  0  0  0  0  0  0  0
  160.9140  203.0750  147.2530 C   0  0  0  0  0  3  0  0  0  0  0  0
  161.2990  199.3690  147.0600 N   0  0  0  0  0  2  0  0  0  0  0  0
  160.8880  197.9460  145.2610 O   0  0  0  0  0  0  0  0  0  0  0  0
  161.5470  202.2330  149.4320 C   0  0  0  0  0  3  0  0  0  0  0  0
  160.7100  201.5500  145.2730 C   0  0  0  0  0  2  0  0  0  0  0  0
  160.0830  200.1820  144.9920 C   0  0  0  0  0  2  0  0  0  0  0  0
  160.9340  201.7770  146.7410 C   0  0  0  0  0  0  0  0  0  0  0  0
  160.7930  199.1010  145.7490 C   0  0  0  0  0  0  0  0  0  0  0  0
  161.2770  200.7010  147.5790 C   0  0  0  0  0  0  0  0  0  0  0  0
  161.2160  203.3150  148.6020 C   0  0  0  0  0  0  0  0  0  0  0  0
  161.5810  200.9330  148.9230 C   0  0  0  0  0  3  0  0  0  0  0  0
  163.7000  205.0990  146.9780 N   0  0  0  0  0  1  0  0  0  0  0  0
  161.4950  205.8280  144.0760 C   0  0  0  0  0  0  0  0  0  0  0  0
  161.5810  205.8510  142.5930 C   0  0  0  0  0  1  0  0  0  0  0  0
  161.3230  205.7700  146.8750 C   0  0  0  0  0  0  0  0  0  0  0  0
  162.6050  205.4500  144.8340 C   0  0  0  0  0  3  0  0  0  0  0  0
  160.3090  206.2030  144.7130 C   0  0  0  0  0  3  0  0  0  0  0  0
  160.2280  206.1800  146.1070 C   0  0  0  0  0  3  0  0  0  0  0  0
  162.5310  205.4250  146.2310 C   0  0  0  0  0  0  0  0  0  0  0  0
  160.9870  205.3170  153.4040 C   0  0  0  0  0  3  0  0  0  0  0  0
  161.1120  204.9100  150.6220 C   0  0  0  0  0  0  0  0  0  0  0  0
  161.2710  206.1960  151.1680 C   0  0  0  0  0  3  0  0  0  0  0  0
  161.2070  206.3980  152.5500 C   0  0  0  0  0  3  0  0  0  0  0  0
  160.8310  204.0320  152.8790 C   0  0  0  0  0  3  0  0  0  0  0  0
  160.8950  203.8300  151.4970 C   0  0  0  0  0  3  0  0  0  0  0  0
  1  2  2  0  0  0  0
  2 23  1  0  0  0  0
  3 12  1  0  0  0  0
  4 11  1  0  0  0  0
  5 10  2  0  0  0  0
  7  9  1  0  0  0  0
  8  7  1  0  0  0  0
  8 10  1  0  0  0  0
  9  3  2  0  0  0  0
  9 11  1  0  0  0  0
 10  4  1  0  0  0  0
 11 13  2  0  0  0  0
 12  2  1  0  0  0  0
 12  6  2  0  0  0  0
 13  6  1  0  0  0  0
 15 19  2  0  0  0  0
 15 18  1  0  0  0  0
 16 15  1  0  0  0  0
 17  1  1  0  0  0  0
 18 21  2  0  0  0  0
 19 20  1  0  0  0  0
 20 17  2  0  0  0  0
 21 17  1  0  0  0  0
 21 14  1  0  0  0  0
 23 24  2  0  0  0  0
 23 27  1  0  0  0  0
 24 25  1  0  0  0  0
 25 22  2  0  0  0  0
 26 22  1  0  0  0  0
 27 26  2  0  0  0  0
M  END
>  <MODEL>
4

>  <REMARK>
 VINA RESULT:      -6.6      6.160      9.842
  Name = 
  3 active torsions:
  status: ('A' for Active; 'I' for Inactive)
    1  A    between atoms: C_1  and  C_18
    2  A    between atoms: C_9  and  C_15
    3  A    between atoms: C_15  and  C_19
                            x       y       z     vdW  Elec       q    Type
                         _______ _______ _______ _____ _____    ______ ____

>  <TORSDO>
F 3

$$$$
=
 OpenBabel11052423163D

 27 30  0  0  0  0  0  0  0  0999 V2000
  161.6740  210.2400  150.8810 C   0  0  0  0  0  3  0  0  0  0  0  0
  161.7660  209.9020  149.5800 C   0  0  0  0  0  0  0  0  0  0  0  0
  161.0720  207.5120  149.9190 C   0  0  0  0  0  3  0  0  0  0  0  0
  161.6060  204.4430  147.8660 N   0  0  0  0  0  2  0  0  0  0  0  0
  161.0210  202.2390  148.3480 O   0  0  0  0  0  0  0  0  0  0  0  0
  162.3310  208.0980  147.9360 C   0  0  0  0  0  3  0  0  0  0  0  0
  160.2470  205.1750  150.2980 C   0  0  0  0  0  2  0  0  0  0  0  0
  160.8310  203.7640  150.1800 C   0  0  0  0  0  2  0  0  0  0  0  0
  161.0360  206.1790  149.5070 C   0  0  0  0  0  0  0  0  0  0  0  0
  161.1290  203.4250  148.7510 C   0  0  0  0  0  0  0  0  0  0  0  0
  161.6400  205.8070  148.2920 C   0  0  0  0  0  0  0  0  0  0  0  0
  161.7220  208.4820  149.1410 C   0  0  0  0  0  0  0  0  0  0  0  0
  162.2870  206.7680  147.5120 C   0  0  0  0  0  3  0  0  0  0  0  0
  159.6310  210.8010  152.9290 N   0  0  0  0  0  1  0  0  0  0  0  0
  160.9470  207.5340  154.1160 C   0  0  0  0  0  0  0  0  0  0  0  0
  160.7100  206.5790  155.2280 C   0  0  0  0  0  1  0  0  0  0  0  0
  161.3860  209.3270  152.0040 C   0  0  0  0  0  0  0  0  0  0  0  0
  160.1740  208.6930  154.0140 C   0  0  0  0  0  3  0  0  0  0  0  0
  161.9560  207.2830  153.1820 C   0  0  0  0  0  3  0  0  0  0  0  0
  162.1770  208.1800  152.1350 C   0  0  0  0  0  3  0  0  0  0  0  0
  160.3900  209.5960  152.9680 C   0  0  0  0  0  0  0  0  0  0  0  0
  162.3900  213.0420  146.7050 C   0  0  0  0  0  3  0  0  0  0  0  0
  161.9820  210.9830  148.5790 C   0  0  0  0  0  0  0  0  0  0  0  0
  163.2530  211.5600  148.4110 C   0  0  0  0  0  3  0  0  0  0  0  0
  163.4560  212.5820  147.4790 C   0  0  0  0  0  3  0  0  0  0  0  0
  161.1200  212.4830  146.8620 C   0  0  0  0  0  3  0  0  0  0  0  0
  160.9170  211.4610  147.7940 C   0  0  0  0  0  3  0  0  0  0  0  0
  1 17  1  0  0  0  0
  2  1  2  0  0  0  0
  4 11  1  0  0  0  0
  4 10  1  0  0  0  0
  5 10  2  0  0  0  0
  6 12  1  0  0  0  0
  8  7  1  0  0  0  0
  9  3  1  0  0  0  0
  9  7  1  0  0  0  0
 10  8  1  0  0  0  0
 11  9  2  0  0  0  0
 12  2  1  0  0  0  0
 12  3  2  0  0  0  0
 13  6  2  0  0  0  0
 13 11  1  0  0  0  0
 14 21  1  0  0  0  0
 15 16  1  0  0  0  0
 17 20  2  0  0  0  0
 17 21  1  0  0  0  0
 18 15  1  0  0  0  0
 19 15  2  0  0  0  0
 20 19  1  0  0  0  0
 21 18  2  0  0  0  0
 22 26  2  0  0  0  0
 22 25  1  0  0  0  0
 23  2  1  0  0  0  0
 24 23  1  0  0  0  0
 25 24  2  0  0  0  0
 26 27  1  0  0  0  0
 27 23  2  0  0  0  0
M  END
>  <MODEL>
5

>  <REMARK>
 VINA RESULT:      -6.4      3.072      5.748
  Name = 
  3 active torsions:
  status: ('A' for Active; 'I' for Inactive)
    1  A    between atoms: C_1  and  C_18
    2  A    between atoms: C_9  and  C_15
    3  A    between atoms: C_15  and  C_19
                            x       y       z     vdW  Elec       q    Type
                         _______ _______ _______ _____ _____    ______ ____

>  <TORSDO>
F 3

$$$$
=
 OpenBabel11052423163D

 27 30  0  0  0  0  0  0  0  0999 V2000
  161.5560  207.9030  147.9360 C   0  0  0  0  0  3  0  0  0  0  0  0
  161.7520  208.8300  148.8950 C   0  0  0  0  0  0  0  0  0  0  0  0
  160.9810  209.2690  151.2440 C   0  0  0  0  0  3  0  0  0  0  0  0
  161.5770  207.4500  154.4470 N   0  0  0  0  0  2  0  0  0  0  0  0
  160.9110  208.0270  156.6040 O   0  0  0  0  0  0  0  0  0  0  0  0
  162.3800  207.3420  150.8090 C   0  0  0  0  0  3  0  0  0  0  0  0
  160.0810  209.7360  153.5370 C   0  0  0  0  0  2  0  0  0  0  0  0
  160.6380  209.7450  154.9630 C   0  0  0  0  0  2  0  0  0  0  0  0
  160.9420  208.9390  152.6000 C   0  0  0  0  0  0  0  0  0  0  0  0
  161.0200  208.3620  155.3970 C   0  0  0  0  0  0  0  0  0  0  0  0
  161.6140  207.7920  153.0590 C   0  0  0  0  0  0  0  0  0  0  0  0
  161.7040  208.4770  150.3380 C   0  0  0  0  0  0  0  0  0  0  0  0
  162.3330  206.9980  152.1620 C   0  0  0  0  0  3  0  0  0  0  0  0
  162.7060  205.8990  146.1060 N   0  0  0  0  0  1  0  0  0  0  0  0
  161.0520  203.7080  148.6110 C   0  0  0  0  0  0  0  0  0  0  0  0
  160.8660  202.2560  148.8670 C   0  0  0  0  0  1  0  0  0  0  0  0
  161.4140  206.4490  148.1410 C   0  0  0  0  0  0  0  0  0  0  0  0
  161.8060  204.1320  147.5150 C   0  0  0  0  0  3  0  0  0  0  0  0
  160.4560  204.6470  149.4560 C   0  0  0  0  0  3  0  0  0  0  0  0
  160.6320  206.0120  149.2160 C   0  0  0  0  0  3  0  0  0  0  0  0
  161.9870  205.4980  147.2690 C   0  0  0  0  0  0  0  0  0  0  0  0
  162.3420  212.9150  147.6800 C   0  0  0  0  0  3  0  0  0  0  0  0
  161.9560  210.2460  148.4820 C   0  0  0  0  0  0  0  0  0  0  0  0
  160.9100  210.9780  147.8930 C   0  0  0  0  0  3  0  0  0  0  0  0
  161.1010  212.3040  147.4960 C   0  0  0  0  0  3  0  0  0  0  0  0
  163.3930  212.2020  148.2600 C   0  0  0  0  0  3  0  0  0  0  0  0
  163.2020  210.8750  148.6570 C   0  0  0  0  0  3  0  0  0  0  0  0
  1 17  1  0  0  0  0
  1  2  2  0  0  0  0
  2 12  1  0  0  0  0
  3  9  1  0  0  0  0
  4 10  1  0  0  0  0
  6 13  2  0  0  0  0
  7  8  1  0  0  0  0
  8 10  1  0  0  0  0
  9 11  2  0  0  0  0
  9  7  1  0  0  0  0
 10  5  2  0  0  0  0
 11  4  1  0  0  0  0
 12  6  1  0  0  0  0
 12  3  2  0  0  0  0
 13 11  1  0  0  0  0
 14 21  1  0  0  0  0
 15 16  1  0  0  0  0
 15 19  1  0  0  0  0
 17 20  1  0  0  0  0
 18 15  2  0  0  0  0
 20 19  2  0  0  0  0
 21 18  1  0  0  0  0
 21 17  2  0  0  0  0
 22 26  1  0  0  0  0
 23 27  1  0  0  0  0
 23  2  1  0  0  0  0
 24 23  2  0  0  0  0
 25 22  2  0  0  0  0
 25 24  1  0  0  0  0
 26 27  2  0  0  0  0
M  END
>  <MODEL>
6

>  <REMARK>
 VINA RESULT:      -6.3      2.068      2.820
  Name = 
  3 active torsions:
  status: ('A' for Active; 'I' for Inactive)
    1  A    between atoms: C_1  and  C_18
    2  A    between atoms: C_9  and  C_15
    3  A    between atoms: C_15  and  C_19
                            x       y       z     vdW  Elec       q    Type
                         _______ _______ _______ _____ _____    ______ ____

>  <TORSDO>
F 3

$$$$
=
 OpenBabel11052423163D

 27 30  0  0  0  0  0  0  0  0999 V2000
  160.5480  208.8540  154.2670 C   0  0  0  0  0  3  0  0  0  0  0  0
  160.8250  208.7570  152.9520 C   0  0  0  0  0  0  0  0  0  0  0  0
  161.5860  209.9660  150.8870 C   0  0  0  0  0  3  0  0  0  0  0  0
  160.8210  213.3700  149.5640 N   0  0  0  0  0  2  0  0  0  0  0  0
  161.6930  214.4410  147.6870 O   0  0  0  0  0  0  0  0  0  0  0  0
  160.0690  211.0820  152.4080 C   0  0  0  0  0  3  0  0  0  0  0  0
  162.3230  211.0520  148.7500 C   0  0  0  0  0  2  0  0  0  0  0  0
  162.8260  212.4360  148.3290 C   0  0  0  0  0  2  0  0  0  0  0  0
  161.5920  211.0920  150.0610 C   0  0  0  0  0  0  0  0  0  0  0  0
  161.7460  213.4640  148.4770 C   0  0  0  0  0  0  0  0  0  0  0  0
  160.8180  212.2150  150.4050 C   0  0  0  0  0  0  0  0  0  0  0  0
  160.8290  209.9520  152.0680 C   0  0  0  0  0  0  0  0  0  0  0  0
  160.0600  212.2060  151.5790 C   0  0  0  0  0  3  0  0  0  0  0  0
  162.7750  210.3610  155.4720 N   0  0  0  0  0  1  0  0  0  0  0  0
  159.8730  212.4450  156.4940 C   0  0  0  0  0  0  0  0  0  0  0  0
  159.6150  213.6910  157.2610 C   0  0  0  0  0  1  0  0  0  0  0  0
  160.3570  210.1010  155.0310 C   0  0  0  0  0  0  0  0  0  0  0  0
  161.1830  211.9980  156.3090 C   0  0  0  0  0  3  0  0  0  0  0  0
  158.8040  211.7110  155.9740 C   0  0  0  0  0  3  0  0  0  0  0  0
  159.0470  210.5400  155.2520 C   0  0  0  0  0  3  0  0  0  0  0  0
  161.4340  210.8270  155.5870 C   0  0  0  0  0  0  0  0  0  0  0  0
  161.5010  204.8490  151.2830 C   0  0  0  0  0  3  0  0  0  0  0  0
  161.0670  207.4060  152.3750 C   0  0  0  0  0  0  0  0  0  0  0  0
  160.9840  207.1930  150.9880 C   0  0  0  0  0  3  0  0  0  0  0  0
  161.2010  205.9240  150.4450 C   0  0  0  0  0  3  0  0  0  0  0  0
  161.5830  205.0410  152.6640 C   0  0  0  0  0  3  0  0  0  0  0  0
  161.3660  206.3110  153.2070 C   0  0  0  0  0  3  0  0  0  0  0  0
  1 17  1  0  0  0  0
  2  1  2  0  0  0  0
  3 12  1  0  0  0  0
  4 11  1  0  0  0  0
  5 10  2  0  0  0  0
  7  9  1  0  0  0  0
  8 10  1  0  0  0  0
  8  7  1  0  0  0  0
  9 11  1  0  0  0  0
  9  3  2  0  0  0  0
 10  4  1  0  0  0  0
 11 13  2  0  0  0  0
 12  6  2  0  0  0  0
 12  2  1  0  0  0  0
 13  6  1  0  0  0  0
 14 21  1  0  0  0  0
 15 16  1  0  0  0  0
 17 20  2  0  0  0  0
 17 21  1  0  0  0  0
 18 15  1  0  0  0  0
 19 15  2  0  0  0  0
 20 19  1  0  0  0  0
 21 18  2  0  0  0  0
 22 26  1  0  0  0  0
 23  2  1  0  0  0  0
 23 27  1  0  0  0  0
 24 23  2  0  0  0  0
 25 24  1  0  0  0  0
 25 22  2  0  0  0  0
 26 27  2  0  0  0  0
M  END
>  <MODEL>
7

>  <REMARK>
 VINA RESULT:      -6.3      2.726      6.897
  Name = 
  3 active torsions:
  status: ('A' for Active; 'I' for Inactive)
    1  A    between atoms: C_1  and  C_18
    2  A    between atoms: C_9  and  C_15
    3  A    between atoms: C_15  and  C_19
                            x       y       z     vdW  Elec       q    Type
                         _______ _______ _______ _____ _____    ______ ____

>  <TORSDO>
F 3

$$$$
=
 OpenBabel11052423163D

 27 30  0  0  0  0  0  0  0  0999 V2000
  160.1950  211.6230  153.5220 C   0  0  0  0  0  3  0  0  0  0  0  0
  160.9900  210.5350  153.4920 C   0  0  0  0  0  0  0  0  0  0  0  0
  160.7720  208.5470  151.9750 C   0  0  0  0  0  3  0  0  0  0  0  0
  162.1610  207.8300  148.5860 N   0  0  0  0  0  2  0  0  0  0  0  0
  161.9960  205.8820  147.3180 O   0  0  0  0  0  0  0  0  0  0  0  0
  162.0990  210.4380  151.2490 C   0  0  0  0  0  3  0  0  0  0  0  0
  160.4140  206.5580  150.4900 C   0  0  0  0  0  2  0  0  0  0  0  0
  161.2880  205.6760  149.5930 C   0  0  0  0  0  2  0  0  0  0  0  0
  161.0610  207.8820  150.7820 C   0  0  0  0  0  0  0  0  0  0  0  0
  161.8090  206.4540  148.4230 C   0  0  0  0  0  0  0  0  0  0  0  0
  161.8620  208.5070  149.8100 C   0  0  0  0  0  0  0  0  0  0  0  0
  161.2910  209.8280  152.2210 C   0  0  0  0  0  0  0  0  0  0  0  0
  162.3800  209.7830  150.0480 C   0  0  0  0  0  3  0  0  0  0  0  0
  157.3260  212.2210  153.2070 N   0  0  0  0  0  1  0  0  0  0  0  0
  158.7000  213.6660  150.0720 C   0  0  0  0  0  0  0  0  0  0  0  0
  158.2040  214.3790  148.8660 C   0  0  0  0  0  1  0  0  0  0  0  0
  159.6430  212.3350  152.3530 C   0  0  0  0  0  0  0  0  0  0  0  0
  157.8090  213.3040  151.0840 C   0  0  0  0  0  3  0  0  0  0  0  0
  160.0540  213.3410  150.1830 C   0  0  0  0  0  3  0  0  0  0  0  0
  160.5210  212.6720  151.3170 C   0  0  0  0  0  3  0  0  0  0  0  0
  158.2690  212.6350  152.2230 C   0  0  0  0  0  0  0  0  0  0  0  0
  162.4930  209.0130  157.2260 C   0  0  0  0  0  3  0  0  0  0  0  0
  161.5160  210.0070  154.7810 C   0  0  0  0  0  0  0  0  0  0  0  0
  161.0900  208.7600  155.2710 C   0  0  0  0  0  3  0  0  0  0  0  0
  161.5760  208.2650  156.4850 C   0  0  0  0  0  3  0  0  0  0  0  0
  162.9230  210.2550  156.7560 C   0  0  0  0  0  3  0  0  0  0  0  0
  162.4370  210.7500  155.5420 C   0  0  0  0  0  3  0  0  0  0  0  0
  2  1  2  0  0  0  0
  2 23  1  0  0  0  0
  3 12  1  0  0  0  0
  4 11  1  0  0  0  0
  5 10  2  0  0  0  0
  6 12  2  0  0  0  0
  7  9  1  0  0  0  0
  8  7  1  0  0  0  0
  9  3  2  0  0  0  0
 10  4  1  0  0  0  0
 10  8  1  0  0  0  0
 11 13  2  0  0  0  0
 11  9  1  0  0  0  0
 12  2  1  0  0  0  0
 13  6  1  0  0  0  0
 15 19  2  0  0  0  0
 15 18  1  0  0  0  0
 16 15  1  0  0  0  0
 17  1  1  0  0  0  0
 18 21  2  0  0  0  0
 19 20  1  0  0  0  0
 20 17  2  0  0  0  0
 21 17  1  0  0  0  0
 21 14  1  0  0  0  0
 23 24  2  0  0  0  0
 23 27  1  0  0  0  0
 24 25  1  0  0  0  0
 25 22  2  0  0  0  0
 26 22  1  0  0  0  0
 27 26  2  0  0  0  0
M  END
>  <MODEL>
8

>  <REMARK>
 VINA RESULT:      -6.2      3.094      7.302
  Name = 
  3 active torsions:
  status: ('A' for Active; 'I' for Inactive)
    1  A    between atoms: C_1  and  C_18
    2  A    between atoms: C_9  and  C_15
    3  A    between atoms: C_15  and  C_19
                            x       y       z     vdW  Elec       q    Type
                         _______ _______ _______ _____ _____    ______ ____

>  <TORSDO>
F 3

$$$$
=
 OpenBabel11052423163D

 27 30  0  0  0  0  0  0  0  0999 V2000
  161.3780  211.4220  151.3420 C   0  0  0  0  0  3  0  0  0  0  0  0
  161.5820  210.7340  150.2010 C   0  0  0  0  0  0  0  0  0  0  0  0
  161.2660  208.5150  151.3350 C   0  0  0  0  0  3  0  0  0  0  0  0
  161.5810  205.0110  150.0920 N   0  0  0  0  0  2  0  0  0  0  0  0
  161.3880  203.0150  151.2780 O   0  0  0  0  0  0  0  0  0  0  0  0
  161.8930  208.5600  148.9970 C   0  0  0  0  0  3  0  0  0  0  0  0
  160.8310  206.3530  152.5280 C   0  0  0  0  0  2  0  0  0  0  0  0
  161.5160  204.9870  152.6250 C   0  0  0  0  0  2  0  0  0  0  0  0
  161.2710  207.1200  151.3140 C   0  0  0  0  0  0  0  0  0  0  0  0
  161.4660  204.2690  151.3100 C   0  0  0  0  0  0  0  0  0  0  0  0
  161.5750  206.4410  150.1200 C   0  0  0  0  0  0  0  0  0  0  0  0
  161.5810  209.2480  150.1800 C   0  0  0  0  0  0  0  0  0  0  0  0
  161.8870  207.1630  148.9660 C   0  0  0  0  0  3  0  0  0  0  0  0
  158.6240  211.4910  152.3900 N   0  0  0  0  0  1  0  0  0  0  0  0
  160.3980  209.7750  155.1680 C   0  0  0  0  0  0  0  0  0  0  0  0
  160.0810  209.1940  156.4980 C   0  0  0  0  0  1  0  0  0  0  0  0
  160.9980  210.8550  152.6500 C   0  0  0  0  0  0  0  0  0  0  0  0
  159.3810  210.3280  154.3870 C   0  0  0  0  0  3  0  0  0  0  0  0
  161.7170  209.7840  154.7060 C   0  0  0  0  0  3  0  0  0  0  0  0
  162.0150  210.3280  153.4550 C   0  0  0  0  0  3  0  0  0  0  0  0
  159.6720  210.8750  153.1330 C   0  0  0  0  0  0  0  0  0  0  0  0
  162.4400  212.9530  146.6160 C   0  0  0  0  0  3  0  0  0  0  0  0
  161.8780  211.4950  148.9570 C   0  0  0  0  0  0  0  0  0  0  0  0
  163.1980  211.8570  148.6350 C   0  0  0  0  0  3  0  0  0  0  0  0
  163.4780  212.5790  147.4720 C   0  0  0  0  0  3  0  0  0  0  0  0
  161.1230  212.6060  146.9230 C   0  0  0  0  0  3  0  0  0  0  0  0
  160.8430  211.8830  148.0860 C   0  0  0  0  0  3  0  0  0  0  0  0
  1 17  1  0  0  0  0
  2  1  2  0  0  0  0
  4 11  1  0  0  0  0
  4 10  1  0  0  0  0
  5 10  2  0  0  0  0
  6 12  1  0  0  0  0
  7  8  1  0  0  0  0
  9  3  1  0  0  0  0
  9  7  1  0  0  0  0
 10  8  1  0  0  0  0
 11  9  2  0  0  0  0
 12  2  1  0  0  0  0
 12  3  2  0  0  0  0
 13  6  2  0  0  0  0
 13 11  1  0  0  0  0
 14 21  1  0  0  0  0
 15 16  1  0  0  0  0
 17 21  2  0  0  0  0
 17 20  1  0  0  0  0
 18 15  2  0  0  0  0
 19 15  1  0  0  0  0
 20 19  2  0  0  0  0
 21 18  1  0  0  0  0
 22 26  2  0  0  0  0
 22 25  1  0  0  0  0
 23  2  1  0  0  0  0
 24 23  1  0  0  0  0
 25 24  2  0  0  0  0
 26 27  1  0  0  0  0
 27 23  2  0  0  0  0
M  END
>  <MODEL>
9

>  <REMARK>
 VINA RESULT:      -6.0      2.494      5.258
  Name = 
  3 active torsions:
  status: ('A' for Active; 'I' for Inactive)
    1  A    between atoms: C_1  and  C_18
    2  A    between atoms: C_9  and  C_15
    3  A    between atoms: C_15  and  C_19
                            x       y       z     vdW  Elec       q    Type
                         _______ _______ _______ _____ _____    ______ ____

>  <TORSDO>
F 3

$$$$
