=
 OpenBabel11062409133D

 37 43  0  0  1  0  0  0  0  0999 V2000
  162.3320  209.2790  149.0010 C   0  0  0  0  0  0  0  0  0  0  0  0
  162.2610  206.0730  152.7670 C   0  0  0  0  0  2  0  0  0  0  0  0
  161.5350  208.5350  152.6400 C   0  0  1  0  0  3  0  0  0  0  0  0
  160.1170  206.3170  148.2510 C   0  0  0  0  0  1  0  0  0  0  0  0
  161.6370  207.2570  153.4920 C   0  0  0  0  0  2  0  0  0  0  0  0
  161.6130  208.2940  148.3240 C   0  0  0  0  0  3  0  0  0  0  0  0
  160.8930  207.3270  149.0290 C   0  0  0  0  0  0  0  0  0  0  0  0
  161.2110  205.3190  151.9420 C   0  0  1  0  0  3  0  0  0  0  0  0
  161.5930  208.3520  151.1300 C   0  0  0  0  0  0  0  0  0  0  0  0
  160.2180  206.2210  151.1920 C   0  0  0  0  0  2  0  0  0  0  0  0
  160.9010  207.3280  150.4380 C   0  0  0  0  0  0  0  0  0  0  0  0
  162.3090  209.3070  150.4000 C   0  0  0  0  0  3  0  0  0  0  0  0
  160.6290  212.2770  156.6440 C   0  0  1  0  0  3  0  0  0  0  0  0
  160.3360  209.3780  153.1260 C   0  0  1  0  0  0  0  0  0  0  0  0
  159.3440  210.4750  155.3410 C   0  0  1  0  0  3  0  0  0  0  0  0
  160.5640  210.0900  154.4640 C   0  0  1  0  0  0  0  0  0  0  0  0
  161.7620  209.7700  155.1390 O   0  0  0  0  0  0  0  0  0  0  0  0
  161.4280  211.1590  156.9390 O   0  0  0  0  0  0  0  0  0  0  0  0
  160.7670  210.8430  153.1590 C   0  0  2  0  0  3  0  0  0  0  0  0
  162.2090  210.9310  155.7970 C   0  0  0  0  0  2  0  0  0  0  0  0
  159.7870  210.3700  152.1100 C   0  0  0  0  0  2  0  0  0  0  0  0
  159.4130  211.9460  155.7580 C   0  0  1  0  0  3  0  0  0  0  0  0
  159.2550  212.0790  157.2610 C   0  0  0  0  0  2  0  0  0  0  0  0
  157.9810  210.1590  154.7360 C   0  0  0  0  0  2  0  0  0  0  0  0
  157.3240  211.3440  154.4070 O   0  0  0  0  0  1  0  0  0  0  0  0
  161.4330  202.7890  151.4930 C   0  0  2  0  0  3  0  0  0  0  0  0
  161.5820  204.5340  149.6000 C   0  0  0  0  0  3  0  0  0  0  0  0
  161.1030  203.6490  148.7180 C   0  0  0  0  0  3  0  0  0  0  0  0
  161.8650  201.4040  148.7830 O   0  0  0  0  0  1  0  0  0  0  0  0
  160.4210  202.0940  150.5720 C   0  0  2  0  0  3  0  0  0  0  0  0
  160.7830  202.2300  149.0910 C   0  0  1  0  0  3  0  0  0  0  0  0
  161.8180  204.2200  151.0580 C   0  0  1  0  0  3  0  0  0  0  0  0
  159.1360  202.5870  150.7990 O   0  0  0  0  0  1  0  0  0  0  0  0
  162.6810  201.9370  151.6360 C   0  0  0  0  0  1  0  0  0  0  0  0
  163.0470  210.2230  148.2610 O   0  0  0  0  0  0  0  0  0  0  0  0
  161.3590  211.8790  147.8700 C   0  0  0  0  0  1  0  0  0  0  0  0
  162.7770  211.6170  148.3300 C   0  0  0  0  0  2  0  0  0  0  0  0
  1 12  1  0  0  0  0
  2  5  1  0  0  0  0
  3 14  1  0  0  0  0
  3  5  1  1  0  0  0
  4  7  1  0  0  0  0
  6  1  2  0  0  0  0
  6  7  1  0  0  0  0
  7 11  2  0  0  0  0
  8 10  1  6  0  0  0
  8  2  1  0  0  0  0
  9  3  1  0  0  0  0
 11  9  1  0  0  0  0
 11 10  1  0  0  0  0
 12  9  2  0  0  0  0
 13 18  1  0  0  0  0
 13 23  1  1  0  0  0
 14 21  1  6  0  0  0
 14 19  1  0  0  0  0
 14 16  1  0  0  0  0
 15 24  1  6  0  0  0
 15 22  1  0  0  0  0
 16 17  1  1  0  0  0
 16 15  1  0  0  0  0
 17 20  1  0  0  0  0
 19 21  1  1  0  0  0
 19 16  1  0  0  0  0
 20 18  1  0  0  0  0
 22 13  1  0  0  0  0
 22 23  1  1  0  0  0
 25 24  1  0  0  0  0
 26 34  1  6  0  0  0
 28 31  1  0  0  0  0
 28 27  2  0  0  0  0
 30 33  1  6  0  0  0
 30 26  1  0  0  0  0
 31 29  1  1  0  0  0
 31 30  1  0  0  0  0
 32 27  1  6  0  0  0
 32 26  1  0  0  0  0
 32  8  1  0  0  0  0
 35 37  1  0  0  0  0
 35  1  1  0  0  0  0
 36 37  1  0  0  0  0
M  END
>  <MODEL>
1

>  <REMARK>
 VINA RESULT:      -4.4      0.000      0.000
  Name = 
  5 active torsions:
  status: ('A' for Active; 'I' for Inactive)
    1  A    between atoms: C_1  and  O_5
    2  A    between atoms: C_4  and  C_10
    3  A    between atoms: O_5  and  C_23
    4  A    between atoms: C_9  and  C_16
    5  A    between atoms: C_27  and  C_31
                            x       y       z     vdW  Elec       q    Type
                         _______ _______ _______ _____ _____    ______ ____

>  <TORSDO>
F 5

$$$$
=
 OpenBabel11062409133D

 37 43  0  0  1  0  0  0  0  0999 V2000
  159.0600  211.6890  153.1000 C   0  0  0  0  0  0  0  0  0  0  0  0
  161.3030  208.5420  150.0130 C   0  0  0  0  0  2  0  0  0  0  0  0
  160.7290  211.0330  149.7510 C   0  0  1  0  0  3  0  0  0  0  0  0
  162.2540  210.3380  154.5870 C   0  0  0  0  0  1  0  0  0  0  0  0
  161.4000  209.7880  149.1440 C   0  0  0  0  0  2  0  0  0  0  0  0
  160.0330  211.2800  154.0110 C   0  0  0  0  0  3  0  0  0  0  0  0
  161.2370  210.7290  153.5670 C   0  0  0  0  0  0  0  0  0  0  0  0
  162.4260  208.5130  151.0570 C   0  0  1  0  0  3  0  0  0  0  0  0
  160.5060  211.0190  151.2570 C   0  0  0  0  0  0  0  0  0  0  0  0
  162.7200  209.8700  151.7180 C   0  0  0  0  0  2  0  0  0  0  0  0
  161.4720  210.5660  152.1880 C   0  0  0  0  0  0  0  0  0  0  0  0
  159.3070  211.5650  151.7280 C   0  0  0  0  0  3  0  0  0  0  0  0
  160.8910  213.8710  144.9790 C   0  0  1  0  0  3  0  0  0  0  0  0
  161.4430  212.3010  149.2330 C   0  0  1  0  0  0  0  0  0  0  0  0
  162.4080  213.3560  146.9860 C   0  0  1  0  0  3  0  0  0  0  0  0
  161.3300  212.5160  147.7190 C   0  0  1  0  0  0  0  0  0  0  0  0
  160.7260  211.4700  146.9890 O   0  0  0  0  0  0  0  0  0  0  0  0
  160.8830  212.4670  144.9240 O   0  0  0  0  0  0  0  0  0  0  0  0
  160.3840  213.2420  148.6620 C   0  0  2  0  0  3  0  0  0  0  0  0
  160.0010  212.0460  145.9300 C   0  0  0  0  0  2  0  0  0  0  0  0
  161.0820  213.5900  149.9580 C   0  0  0  0  0  2  0  0  0  0  0  0
  161.7620  214.4370  146.1160 C   0  0  1  0  0  3  0  0  0  0  0  0
  162.2980  214.3690  144.6990 C   0  0  0  0  0  2  0  0  0  0  0  0
  163.4800  213.9660  147.8820 C   0  0  0  0  0  2  0  0  0  0  0  0
  164.4100  212.9910  148.2360 O   0  0  0  0  0  1  0  0  0  0  0  0
  160.8080  207.0000  152.3780 C   0  0  2  0  0  3  0  0  0  0  0  0
  163.1610  206.2080  151.6790 C   0  0  0  0  0  3  0  0  0  0  0  0
  162.7400  204.9390  151.6250 C   0  0  0  0  0  3  0  0  0  0  0  0
  161.2950  204.1130  153.3140 O   0  0  0  0  0  1  0  0  0  0  0  0
  160.3400  205.6750  151.7620 C   0  0  2  0  0  3  0  0  0  0  0  0
  161.3390  204.5370  151.9850 C   0  0  1  0  0  3  0  0  0  0  0  0
  162.2760  207.3680  152.0680 C   0  0  1  0  0  3  0  0  0  0  0  0
  160.0900  205.8330  150.3990 O   0  0  0  0  0  1  0  0  0  0  0  0
  160.5820  206.9870  153.8790 C   0  0  0  0  0  1  0  0  0  0  0  0
  157.8650  212.2270  153.5830 O   0  0  0  0  0  0  0  0  0  0  0  0
  156.1380  212.3490  155.2400 C   0  0  0  0  0  1  0  0  0  0  0  0
  157.6240  212.4400  154.9670 C   0  0  0  0  0  2  0  0  0  0  0  0
  1 35  1  0  0  0  0
  1  6  1  0  0  0  0
  3  5  1  1  0  0  0
  3  9  1  0  0  0  0
  5  2  1  0  0  0  0
  7  6  2  0  0  0  0
  7  4  1  0  0  0  0
  8  2  1  1  0  0  0
  8 10  1  0  0  0  0
  8 32  1  0  0  0  0
  9 12  1  0  0  0  0
  9 11  2  0  0  0  0
 10 11  1  0  0  0  0
 11  7  1  0  0  0  0
 12  1  2  0  0  0  0
 13 23  1  6  0  0  0
 13 22  1  0  0  0  0
 14  3  1  0  0  0  0
 14 21  1  1  0  0  0
 15 16  1  0  0  0  0
 15 24  1  1  0  0  0
 16 17  1  6  0  0  0
 16 19  1  0  0  0  0
 16 14  1  0  0  0  0
 18 13  1  0  0  0  0
 18 20  1  0  0  0  0
 19 14  1  0  0  0  0
 19 21  1  1  0  0  0
 20 17  1  0  0  0  0
 22 23  1  6  0  0  0
 22 15  1  0  0  0  0
 24 25  1  0  0  0  0
 26 34  1  1  0  0  0
 28 27  2  0  0  0  0
 28 31  1  0  0  0  0
 30 33  1  6  0  0  0
 30 31  1  0  0  0  0
 30 26  1  0  0  0  0
 31 29  1  1  0  0  0
 32 27  1  6  0  0  0
 32 26  1  0  0  0  0
 35 37  1  0  0  0  0
 37 36  1  0  0  0  0
M  END
>  <MODEL>
2

>  <REMARK>
 VINA RESULT:      -2.3      2.417      6.954
  Name = 
  5 active torsions:
  status: ('A' for Active; 'I' for Inactive)
    1  A    between atoms: C_1  and  O_5
    2  A    between atoms: C_4  and  C_10
    3  A    between atoms: O_5  and  C_23
    4  A    between atoms: C_9  and  C_16
    5  A    between atoms: C_27  and  C_31
                            x       y       z     vdW  Elec       q    Type
                         _______ _______ _______ _____ _____    ______ ____

>  <TORSDO>
F 5

$$$$
=
 OpenBabel11062409133D

 37 43  0  0  1  0  0  0  0  0999 V2000
  157.2320  213.5790  152.9370 C   0  0  0  0  0  0  0  0  0  0  0  0
  160.4350  209.8680  152.2840 C   0  0  0  0  0  2  0  0  0  0  0  0
  159.9620  211.9520  150.8570 C   0  0  1  0  0  3  0  0  0  0  0  0
  159.7270  213.3970  155.7610 C   0  0  0  0  0  1  0  0  0  0  0  0
  160.8140  210.6860  151.0580 C   0  0  0  0  0  2  0  0  0  0  0  0
  157.8330  213.7010  154.1880 C   0  0  0  0  0  3  0  0  0  0  0  0
  159.1220  213.2100  154.4100 C   0  0  0  0  0  0  0  0  0  0  0  0
  161.1270  210.4090  153.5400 C   0  0  1  0  0  3  0  0  0  0  0  0
  159.2320  212.4820  152.0840 C   0  0  0  0  0  0  0  0  0  0  0  0
  161.1610  211.9430  153.6410 C   0  0  0  0  0  2  0  0  0  0  0  0
  159.8210  212.5690  153.3690 C   0  0  0  0  0  0  0  0  0  0  0  0
  157.9390  212.9790  151.8890 C   0  0  0  0  0  3  0  0  0  0  0  0
  160.4130  213.7580  145.6240 C   0  0  1  0  0  3  0  0  0  0  0  0
  160.7980  213.0170  150.1140 C   0  0  1  0  0  0  0  0  0  0  0  0
  161.8680  213.5070  147.7250 C   0  0  1  0  0  3  0  0  0  0  0  0
  160.7110  212.9380  148.5860 C   0  0  1  0  0  0  0  0  0  0  0  0
  160.0080  211.8300  148.0630 O   0  0  0  0  0  0  0  0  0  0  0  0
  160.2670  212.3770  145.8460 O   0  0  0  0  0  0  0  0  0  0  0  0
  159.8390  213.9240  149.3470 C   0  0  2  0  0  3  0  0  0  0  0  0
  159.3460  212.2520  146.8960 C   0  0  0  0  0  2  0  0  0  0  0  0
  160.5650  214.4530  150.5630 C   0  0  0  0  0  2  0  0  0  0  0  0
  161.3340  214.4510  146.6460 C   0  0  1  0  0  3  0  0  0  0  0  0
  161.8640  214.0530  145.2820 C   0  0  0  0  0  2  0  0  0  0  0  0
  162.9930  214.1770  148.5060 C   0  0  0  0  0  2  0  0  0  0  0  0
  164.1550  213.4130  148.4070 O   0  0  0  0  0  1  0  0  0  0  0  0
  159.7340  208.5080  154.5870 C   0  0  2  0  0  3  0  0  0  0  0  0
  161.8150  209.4850  155.7570 C   0  0  0  0  0  3  0  0  0  0  0  0
  162.0510  208.3140  156.3600 C   0  0  0  0  0  3  0  0  0  0  0  0
  160.2400  207.0760  157.2600 O   0  0  0  0  0  1  0  0  0  0  0  0
  160.3970  207.1520  154.8660 C   0  0  2  0  0  3  0  0  0  0  0  0
  161.1470  207.1270  156.2000 C   0  0  1  0  0  3  0  0  0  0  0  0
  160.6480  209.7290  154.8300 C   0  0  1  0  0  3  0  0  0  0  0  0
  161.2590  206.8070  153.8250 O   0  0  0  0  0  1  0  0  0  0  0  0
  158.4590  208.6440  155.3990 C   0  0  0  0  0  1  0  0  0  0  0  0
  155.9380  214.0740  152.7570 O   0  0  0  0  0  0  0  0  0  0  0  0
  154.9620  214.1070  154.9460 C   0  0  0  0  0  1  0  0  0  0  0  0
  154.8290  213.6180  153.5200 C   0  0  0  0  0  2  0  0  0  0  0  0
  1  6  1  0  0  0  0
  3  5  1  1  0  0  0
  3  9  1  0  0  0  0
  5  2  1  0  0  0  0
  6  7  2  0  0  0  0
  7  4  1  0  0  0  0
  8  2  1  6  0  0  0
  8 10  1  0  0  0  0
  8 32  1  0  0  0  0
  9 11  2  0  0  0  0
 11 10  1  0  0  0  0
 11  7  1  0  0  0  0
 12  9  1  0  0  0  0
 12  1  2  0  0  0  0
 13 23  1  6  0  0  0
 13 18  1  0  0  0  0
 13 22  1  0  0  0  0
 14 21  1  1  0  0  0
 14  3  1  0  0  0  0
 15 24  1  1  0  0  0
 15 16  1  0  0  0  0
 16 17  1  6  0  0  0
 16 19  1  0  0  0  0
 16 14  1  0  0  0  0
 18 20  1  0  0  0  0
 19 14  1  0  0  0  0
 19 21  1  6  0  0  0
 20 17  1  0  0  0  0
 22 23  1  6  0  0  0
 22 15  1  0  0  0  0
 25 24  1  0  0  0  0
 26 32  1  0  0  0  0
 26 30  1  0  0  0  0
 26 34  1  1  0  0  0
 27 28  2  0  0  0  0
 30 33  1  6  0  0  0
 30 31  1  0  0  0  0
 31 28  1  0  0  0  0
 31 29  1  1  0  0  0
 32 27  1  6  0  0  0
 35  1  1  0  0  0  0
 35 37  1  0  0  0  0
 37 36  1  0  0  0  0
M  END
>  <MODEL>
3

>  <REMARK>
 VINA RESULT:      -1.9      3.960      7.997
  Name = 
  5 active torsions:
  status: ('A' for Active; 'I' for Inactive)
    1  A    between atoms: C_1  and  O_5
    2  A    between atoms: C_4  and  C_10
    3  A    between atoms: O_5  and  C_23
    4  A    between atoms: C_9  and  C_16
    5  A    between atoms: C_27  and  C_31
                            x       y       z     vdW  Elec       q    Type
                         _______ _______ _______ _____ _____    ______ ____

>  <TORSDO>
F 5

$$$$
