=
 OpenBabel11062409463D

 34 39  0  0  1  0  0  0  0  0999 V2000
  159.5620  210.0500  156.3370 C   0  0  1  0  0  3  0  0  0  0  0  0
  159.3760  213.5470  154.9000 C   0  0  0  0  0  3  0  0  0  0  0  0
  159.7140  212.8570  151.5820 C   0  0  0  0  0  0  0  0  0  0  0  0
  160.5450  212.7690  156.8720 C   0  0  0  0  0  2  0  0  0  0  0  0
  160.8830  208.2880  155.1340 N   0  0  0  0  0  0  0  0  0  0  0  0
  159.5610  208.6500  155.6760 C   0  0  0  0  0  2  0  0  0  0  0  0
  161.9530  209.5630  156.8570 C   0  0  0  0  0  0  0  0  0  0  0  0
  163.0760  210.2730  157.0700 N   0  0  0  0  0  0  0  0  0  0  0  0
  159.9930  214.1950  151.3250 O   0  0  0  0  0  1  0  0  0  0  0  0
  161.8900  208.2280  156.2030 C   0  0  0  0  0  2  0  0  0  0  0  0
  161.3540  211.5540  157.1580 C   0  0  0  0  0  0  0  0  0  0  0  0
  160.8630  210.3330  156.9350 N   0  0  0  0  0  0  0  0  0  0  0  0
  162.6980  211.5330  157.2600 N   0  0  0  0  0  0  0  0  0  0  0  0
  158.5170  213.5200  153.6760 C   0  0  0  0  0  2  0  0  0  0  0  0
  160.1220  211.9770  150.7790 O   0  0  0  0  0  0  0  0  0  0  0  0
  158.9710  212.4850  152.7510 N   0  0  0  0  0  0  0  0  0  0  0  0
  158.6910  211.0740  153.0180 C   0  0  0  0  0  2  0  0  0  0  0  0
  159.6600  212.4940  155.6810 C   0  0  0  0  0  0  0  0  0  0  0  0
  158.1430  210.8650  154.4240 C   0  0  0  0  0  2  0  0  0  0  0  0
  159.1830  211.1380  155.4170 N   0  0  0  0  0  0  0  0  0  0  0  0
  160.8100  206.9980  154.4340 C   0  0  0  0  0  2  0  0  0  0  0  0
  161.4890  208.4300  150.9750 C   0  0  0  0  0  3  0  0  0  0  0  0
  160.9210  205.9470  152.1490 C   0  0  0  0  0  3  0  0  0  0  0  0
  161.4870  206.2280  147.9950 C   0  0  0  0  0  0  0  0  0  0  0  0
  161.5800  207.3780  148.7950 C   0  0  0  0  0  3  0  0  0  0  0  0
  161.3930  207.2880  150.1770 C   0  0  0  0  0  0  0  0  0  0  0  0
  161.0140  204.8940  149.9700 C   0  0  0  0  0  3  0  0  0  0  0  0
  161.1080  206.0360  150.7680 C   0  0  0  0  0  0  0  0  0  0  0  0
  161.2020  204.9900  148.5870 C   0  0  0  0  0  3  0  0  0  0  0  0
  161.0120  207.0950  152.9460 C   0  0  0  0  0  0  0  0  0  0  0  0
  161.2990  208.3320  152.3570 C   0  0  0  0  0  3  0  0  0  0  0  0
  161.6770  206.2990  146.5130 C   0  0  1  0  0  3  0  0  0  0  0  0
  162.5350  205.1490  146.0220 C   0  0  0  0  0  1  0  0  0  0  0  0
  160.3930  206.2840  145.8350 N   0  0  0  0  0  1  0  0  0  0  0  0
  1  6  1  6  0  0  0
  1 12  1  0  0  0  0
  2 18  2  0  0  0  0
  3 16  1  0  0  0  0
  4 11  1  0  0  0  0
  5  6  1  0  0  0  0
  5 10  1  0  0  0  0
  7 12  1  0  0  0  0
  7  8  2  0  0  0  0
  8 13  1  0  0  0  0
  9  3  1  0  0  0  0
 10  7  1  0  0  0  0
 11 13  2  0  0  0  0
 12 11  1  0  0  0  0
 14  2  1  0  0  0  0
 15  3  2  0  0  0  0
 16 17  1  0  0  0  0
 16 14  1  0  0  0  0
 17 19  1  0  0  0  0
 18  4  1  0  0  0  0
 19 20  1  0  0  0  0
 20 18  1  0  0  0  0
 20  1  1  0  0  0  0
 21  5  1  0  0  0  0
 22 31  1  0  0  0  0
 23 30  1  0  0  0  0
 24 29  1  0  0  0  0
 24 25  2  0  0  0  0
 25 26  1  0  0  0  0
 26 28  1  0  0  0  0
 26 22  2  0  0  0  0
 27 28  1  0  0  0  0
 28 23  2  0  0  0  0
 29 27  2  0  0  0  0
 30 21  1  0  0  0  0
 31 30  2  0  0  0  0
 32 33  1  6  0  0  0
 32 24  1  0  0  0  0
 34 32  1  0  0  0  0
M  END
>  <MODEL>
1

>  <REMARK>
 VINA RESULT:      -9.0      0.000      0.000
  Name = 
  3 active torsions:
  status: ('A' for Active; 'I' for Inactive)
    1  A    between atoms: C_7  and  C_11
    2  A    between atoms: N_8  and  C_18
    3  A    between atoms: C_18  and  C_30
                            x       y       z     vdW  Elec       q    Type
                         _______ _______ _______ _____ _____    ______ ____

>  <TORSDO>
F 3

$$$$
=
 OpenBabel11062409463D

 34 39  0  0  1  0  0  0  0  0999 V2000
  159.8640  214.0780  148.8100 C   0  0  1  0  0  3  0  0  0  0  0  0
  157.0000  214.2540  151.2780 C   0  0  0  0  0  3  0  0  0  0  0  0
  157.8530  211.7130  153.3790 C   0  0  0  0  0  0  0  0  0  0  0  0
  156.9490  214.4510  148.8660 C   0  0  0  0  0  2  0  0  0  0  0  0
  160.9940  211.8790  148.3820 N   0  0  0  0  0  0  0  0  0  0  0  0
  161.1890  213.2760  148.8060 C   0  0  0  0  0  2  0  0  0  0  0  0
  159.1860  212.5490  146.9600 C   0  0  0  0  0  0  0  0  0  0  0  0
  158.0350  212.0670  146.4550 N   0  0  0  0  0  0  0  0  0  0  0  0
  156.5690  211.7130  153.9130 O   0  0  0  0  0  1  0  0  0  0  0  0
  160.4800  211.8140  147.0060 C   0  0  0  0  0  2  0  0  0  0  0  0
  157.6410  213.7170  147.7740 C   0  0  0  0  0  0  0  0  0  0  0  0
  158.9700  213.5950  147.7620 N   0  0  0  0  0  0  0  0  0  0  0  0
  157.0570  212.8050  146.9700 N   0  0  0  0  0  0  0  0  0  0  0  0
  157.5450  214.0890  152.6620 C   0  0  0  0  0  2  0  0  0  0  0  0
  158.5510  210.6670  153.4540 O   0  0  0  0  0  0  0  0  0  0  0  0
  158.3740  212.8900  152.7480 N   0  0  0  0  0  0  0  0  0  0  0  0
  159.7240  212.8770  152.1810 C   0  0  0  0  0  2  0  0  0  0  0  0
  157.7210  214.2580  150.1480 C   0  0  0  0  0  0  0  0  0  0  0  0
  159.9860  214.1100  151.3240 C   0  0  0  0  0  2  0  0  0  0  0  0
  159.1690  214.0640  150.1110 N   0  0  0  0  0  0  0  0  0  0  0  0
  162.2560  211.1340  148.4860 C   0  0  0  0  0  2  0  0  0  0  0  0
  162.2130  208.4450  151.1770 C   0  0  0  0  0  3  0  0  0  0  0  0
  161.7910  208.6600  148.4120 C   0  0  0  0  0  3  0  0  0  0  0  0
  161.4310  204.9280  150.3090 C   0  0  0  0  0  0  0  0  0  0  0  0
  161.7640  206.0670  151.0590 C   0  0  0  0  0  3  0  0  0  0  0  0
  161.8850  207.3100  150.4320 C   0  0  0  0  0  0  0  0  0  0  0  0
  161.3420  206.2830  148.2950 C   0  0  0  0  0  3  0  0  0  0  0  0
  161.6710  207.4180  149.0390 C   0  0  0  0  0  0  0  0  0  0  0  0
  161.2230  205.0420  148.9280 C   0  0  0  0  0  3  0  0  0  0  0  0
  162.1260  209.7950  149.1610 C   0  0  0  0  0  0  0  0  0  0  0  0
  162.3320  209.6850  150.5420 C   0  0  0  0  0  3  0  0  0  0  0  0
  161.3030  203.5860  150.9560 C   0  0  1  0  0  3  0  0  0  0  0  0
  160.6610  203.7060  152.3260 C   0  0  0  0  0  1  0  0  0  0  0  0
  160.5220  202.6910  150.1200 N   0  0  0  0  0  1  0  0  0  0  0  0
  1  6  1  1  0  0  0
  1 20  1  0  0  0  0
  2 14  1  0  0  0  0
  3 15  2  0  0  0  0
  3  9  1  0  0  0  0
  4 18  1  0  0  0  0
  5 21  1  0  0  0  0
  5  6  1  0  0  0  0
  7 10  1  0  0  0  0
  7 12  1  0  0  0  0
  8  7  2  0  0  0  0
  8 13  1  0  0  0  0
 10  5  1  0  0  0  0
 11  4  1  0  0  0  0
 12 11  1  0  0  0  0
 12  1  1  0  0  0  0
 13 11  2  0  0  0  0
 14 16  1  0  0  0  0
 16  3  1  0  0  0  0
 17 16  1  0  0  0  0
 18  2  2  0  0  0  0
 19 17  1  0  0  0  0
 20 18  1  0  0  0  0
 20 19  1  0  0  0  0
 21 30  1  0  0  0  0
 23 28  2  0  0  0  0
 23 30  1  0  0  0  0
 24 32  1  0  0  0  0
 24 25  2  0  0  0  0
 26 25  1  0  0  0  0
 26 22  2  0  0  0  0
 27 29  2  0  0  0  0
 27 28  1  0  0  0  0
 28 26  1  0  0  0  0
 29 24  1  0  0  0  0
 30 31  2  0  0  0  0
 31 22  1  0  0  0  0
 32 33  1  1  0  0  0
 34 32  1  0  0  0  0
M  END
>  <MODEL>
2

>  <REMARK>
 VINA RESULT:      -7.9      3.522      6.383
  Name = 
  3 active torsions:
  status: ('A' for Active; 'I' for Inactive)
    1  A    between atoms: C_7  and  C_11
    2  A    between atoms: N_8  and  C_18
    3  A    between atoms: C_18  and  C_30
                            x       y       z     vdW  Elec       q    Type
                         _______ _______ _______ _____ _____    ______ ____

>  <TORSDO>
F 3

$$$$
