=
 OpenBabel11062407433D

 34 40  0  0  1  0  0  0  0  0999 V2000
  161.8180  210.5120  149.2140 N   0  0  1  0  0  0  0  0  0  0  0  0
  160.3480  211.6040  150.7600 C   0  0  1  0  0  3  0  0  0  0  0  0
  161.4250  209.3530  151.4000 C   0  0  0  0  0  0  0  0  0  0  0  0
  161.2030  208.0830  153.4580 C   0  0  0  0  0  0  0  0  0  0  0  0
  161.4620  212.8940  148.9350 C   0  0  0  0  0  3  0  0  0  0  0  0
  160.5350  212.8390  149.9080 C   0  0  0  0  0  3  0  0  0  0  0  0
  161.7000  210.6760  153.9020 S   0  0  0  0  0  0  0  0  0  0  0  0
  161.5840  210.6850  150.6590 C   0  0  1  0  0  3  0  0  0  0  0  0
  161.0570  208.1260  155.2330 S   0  0  0  0  0  0  0  0  0  0  0  0
  162.4140  211.7440  148.7100 C   0  0  0  0  0  2  0  0  0  0  0  0
  161.4670  208.1260  150.6790 C   0  0  0  0  0  0  0  0  0  0  0  0
  162.7030  209.3940  148.9410 C   0  0  0  0  0  2  0  0  0  0  0  0
  160.0450  211.9870  152.0490 F   0  0  0  0  0  0  0  0  0  0  0  0
  161.0670  206.9010  152.7390 C   0  0  0  0  0  3  0  0  0  0  0  0
  161.2100  206.8980  151.3450 C   0  0  0  0  0  0  0  0  0  0  0  0
  160.6220  209.8940  155.1410 C   0  0  1  0  0  3  0  0  0  0  0  0
  161.4110  209.2890  152.8110 C   0  0  0  0  0  0  0  0  0  0  0  0
  161.9180  208.1280  149.2410 C   0  0  0  0  0  2  0  0  0  0  0  0
  161.0840  204.3030  148.5720 C   0  0  0  0  0  0  0  0  0  0  0  0
  160.8350  203.1370  149.3000 C   0  0  0  0  0  3  0  0  0  0  0  0
  161.1060  205.5980  150.6340 C   0  0  0  0  0  0  0  0  0  0  0  0
  160.7130  203.1960  150.6900 C   0  0  0  0  0  3  0  0  0  0  0  0
  161.2130  205.5270  149.2350 C   0  0  0  0  0  3  0  0  0  0  0  0
  160.8440  204.4190  151.3530 C   0  0  0  0  0  3  0  0  0  0  0  0
  161.1980  204.2480  147.2240 F   0  0  0  0  0  0  0  0  0  0  0  0
  160.8310  210.5220  156.4330 N   0  0  0  0  0  2  0  0  0  0  0  0
  160.5060  211.9320  156.2780 C   0  0  0  0  0  2  0  0  0  0  0  0
  158.4970  212.7430  154.8530 C   0  0  0  0  0  2  0  0  0  0  0  0
  159.0330  212.0990  156.1000 C   0  0  0  0  0  0  0  0  0  0  0  0
  157.2880  211.9650  154.3100 C   0  0  1  0  0  3  0  0  0  0  0  0
  156.3230  211.4780  155.3580 C   0  0  1  0  0  3  0  0  0  0  0  0
  156.7030  211.8350  156.8040 C   0  0  0  0  0  2  0  0  0  0  0  0
  158.1770  211.6650  157.0300 C   0  0  0  0  0  3  0  0  0  0  0  0
  156.1070  212.6630  154.6280 O   0  0  0  0  0  0  0  0  0  0  0  0
  1 10  1  1  0  0  0
  1  8  1  0  0  0  0
  2 13  1  1  0  0  0
  3 17  1  0  0  0  0
  4  9  1  0  0  0  0
  5  6  2  0  0  0  0
  6  2  1  0  0  0  0
  7 16  1  0  0  0  0
  8  2  1  0  0  0  0
  8  3  1  6  0  0  0
 10  5  1  0  0  0  0
 11 15  1  0  0  0  0
 11  3  2  0  0  0  0
 12  1  1  0  0  0  0
 12 18  1  0  0  0  0
 14  4  1  0  0  0  0
 15 14  2  0  0  0  0
 16  9  1  0  0  0  0
 16 26  1  1  0  0  0
 17  4  2  0  0  0  0
 17  7  1  0  0  0  0
 18 11  1  0  0  0  0
 19 23  2  0  0  0  0
 19 20  1  0  0  0  0
 20 22  2  0  0  0  0
 21 15  1  0  0  0  0
 21 24  2  0  0  0  0
 22 24  1  0  0  0  0
 23 21  1  0  0  0  0
 25 19  1  0  0  0  0
 27 26  1  0  0  0  0
 28 29  1  0  0  0  0
 29 27  1  0  0  0  0
 29 33  2  0  0  0  0
 30 34  1  0  0  0  0
 30 28  1  1  0  0  0
 30 31  1  0  0  0  0
 31 32  1  1  0  0  0
 32 33  1  0  0  0  0
 34 31  1  0  0  0  0
M  END
>  <MODEL>
1

>  <REMARK>
 VINA RESULT:      -8.1      0.000      0.000
  Name = 
  4 active torsions:
  status: ('A' for Active; 'I' for Inactive)
    1  A    between atoms: C_3  and  C_13
    2  A    between atoms: C_3  and  N_17
    3  A    between atoms: C_12  and  C_28
    4  A    between atoms: N_17  and  C_29
                            x       y       z     vdW  Elec       q    Type
                         _______ _______ _______ _____ _____    ______ ____

>  <TORSDO>
F 4

$$$$
=
 OpenBabel11062407433D

 34 40  0  0  1  0  0  0  0  0999 V2000
  160.9660  208.2490  154.9150 N   0  0  1  0  0  0  0  0  0  0  0  0
  162.6130  209.8420  154.2090 C   0  0  1  0  0  3  0  0  0  0  0  0
  161.3530  208.4470  152.4480 C   0  0  0  0  0  0  0  0  0  0  0  0
  161.5510  208.5020  150.0270 C   0  0  0  0  0  0  0  0  0  0  0  0
  161.5410  210.0300  156.4570 C   0  0  0  0  0  3  0  0  0  0  0  0
  162.5060  210.4170  155.6030 C   0  0  0  0  0  3  0  0  0  0  0  0
  161.3360  210.9480  151.0940 S   0  0  0  0  0  0  0  0  0  0  0  0
  161.2890  209.1610  153.8020 C   0  0  1  0  0  3  0  0  0  0  0  0
  161.7900  209.4960  148.5690 S   0  0  0  0  0  0  0  0  0  0  0  0
  160.4700  209.0590  156.0220 C   0  0  0  0  0  2  0  0  0  0  0  0
  161.1530  207.0400  152.3720 C   0  0  0  0  0  0  0  0  0  0  0  0
  159.9630  207.2710  154.5370 C   0  0  0  0  0  2  0  0  0  0  0  0
  163.0160  210.8330  153.3410 F   0  0  0  0  0  0  0  0  0  0  0  0
  161.5340  207.1130  149.9740 C   0  0  0  0  0  3  0  0  0  0  0  0
  161.3220  206.3600  151.1360 C   0  0  0  0  0  0  0  0  0  0  0  0
  162.3920  210.8620  149.6160 C   0  0  1  0  0  3  0  0  0  0  0  0
  161.4320  209.1680  151.2360 C   0  0  0  0  0  0  0  0  0  0  0  0
  160.6330  206.3010  153.5790 C   0  0  0  0  0  2  0  0  0  0  0  0
  160.7350  202.8800  149.7270 C   0  0  0  0  0  0  0  0  0  0  0  0
  161.0820  202.0810  150.8190 C   0  0  0  0  0  3  0  0  0  0  0  0
  161.2600  204.8810  151.0110 C   0  0  0  0  0  0  0  0  0  0  0  0
  161.5110  202.6740  152.0080 C   0  0  0  0  0  3  0  0  0  0  0  0
  160.8180  204.2720  149.8250 C   0  0  0  0  0  3  0  0  0  0  0  0
  161.5950  204.0660  152.1050 C   0  0  0  0  0  3  0  0  0  0  0  0
  160.3150  202.3070  148.5740 F   0  0  0  0  0  0  0  0  0  0  0  0
  162.3120  212.1160  148.8880 N   0  0  0  0  0  2  0  0  0  0  0  0
  160.9840  212.1810  148.2980 C   0  0  0  0  0  2  0  0  0  0  0  0
  162.1880  213.6970  146.5730 C   0  0  0  0  0  2  0  0  0  0  0  0
  161.0620  212.7680  146.9280 C   0  0  0  0  0  0  0  0  0  0  0  0
  162.7610  213.3620  145.1870 C   0  0  1  0  0  3  0  0  0  0  0  0
  161.7330  213.0210  144.1410 C   0  0  1  0  0  3  0  0  0  0  0  0
  160.2750  213.0600  144.6270 C   0  0  0  0  0  2  0  0  0  0  0  0
  160.1510  212.4630  145.9990 C   0  0  0  0  0  3  0  0  0  0  0  0
  162.2950  214.3070  144.2520 O   0  0  0  0  0  0  0  0  0  0  0  0
  1 12  1  6  0  0  0
  1 10  1  0  0  0  0
  2 13  1  6  0  0  0
  2  6  1  0  0  0  0
  4 17  1  0  0  0  0
  6  5  2  0  0  0  0
  7 17  1  0  0  0  0
  8  3  1  6  0  0  0
  8  2  1  0  0  0  0
  8  1  1  0  0  0  0
  9 16  1  0  0  0  0
  9  4  1  0  0  0  0
 10  5  1  0  0  0  0
 11  3  1  0  0  0  0
 11 18  1  0  0  0  0
 14  4  2  0  0  0  0
 14 15  1  0  0  0  0
 15 11  2  0  0  0  0
 16 26  1  6  0  0  0
 16  7  1  0  0  0  0
 17  3  2  0  0  0  0
 18 12  1  0  0  0  0
 19 23  2  0  0  0  0
 19 20  1  0  0  0  0
 20 22  2  0  0  0  0
 21 15  1  0  0  0  0
 21 24  2  0  0  0  0
 22 24  1  0  0  0  0
 23 21  1  0  0  0  0
 25 19  1  0  0  0  0
 27 26  1  0  0  0  0
 28 29  1  0  0  0  0
 29 27  1  0  0  0  0
 30 28  1  1  0  0  0
 31 34  1  0  0  0  0
 31 32  1  1  0  0  0
 31 30  1  0  0  0  0
 32 33  1  0  0  0  0
 33 29  2  0  0  0  0
 34 30  1  0  0  0  0
M  END
>  <MODEL>
2

>  <REMARK>
 VINA RESULT:      -7.6      3.225      6.569
  Name = 
  4 active torsions:
  status: ('A' for Active; 'I' for Inactive)
    1  A    between atoms: C_3  and  C_13
    2  A    between atoms: C_3  and  N_17
    3  A    between atoms: C_12  and  C_28
    4  A    between atoms: N_17  and  C_29
                            x       y       z     vdW  Elec       q    Type
                         _______ _______ _______ _____ _____    ______ ____

>  <TORSDO>
F 4

$$$$
=
 OpenBabel11062407433D

 34 40  0  0  1  0  0  0  0  0999 V2000
  160.9310  208.1020  154.9800 N   0  0  1  0  0  0  0  0  0  0  0  0
  162.5500  209.7370  154.3050 C   0  0  1  0  0  3  0  0  0  0  0  0
  161.3080  208.3610  152.5170 C   0  0  0  0  0  0  0  0  0  0  0  0
  161.4990  208.4720  150.0980 C   0  0  0  0  0  0  0  0  0  0  0  0
  161.4820  209.8580  156.5600 C   0  0  0  0  0  3  0  0  0  0  0  0
  162.4380  210.2800  155.7120 C   0  0  0  0  0  3  0  0  0  0  0  0
  161.2460  210.8900  151.2180 S   0  0  0  0  0  0  0  0  0  0  0  0
  161.2360  209.0440  153.8860 C   0  0  1  0  0  3  0  0  0  0  0  0
  161.7170  209.5020  148.6610 S   0  0  0  0  0  0  0  0  0  0  0  0
  160.4260  208.8790  156.1060 C   0  0  0  0  0  2  0  0  0  0  0  0
  161.1310  206.9520  152.4110 C   0  0  0  0  0  0  0  0  0  0  0  0
  159.9440  207.1160  154.5830 C   0  0  0  0  0  2  0  0  0  0  0  0
  162.9350  210.7540  153.4590 F   0  0  0  0  0  0  0  0  0  0  0  0
  161.5040  207.0840  150.0140 C   0  0  0  0  0  3  0  0  0  0  0  0
  161.3070  206.3030  151.1600 C   0  0  0  0  0  0  0  0  0  0  0  0
  162.2990  210.8540  149.7360 C   0  0  1  0  0  3  0  0  0  0  0  0
  161.3710  209.1090  151.3210 C   0  0  0  0  0  0  0  0  0  0  0  0
  160.6270  206.1790  153.6020 C   0  0  0  0  0  2  0  0  0  0  0  0
  160.7930  202.8460  149.6680 C   0  0  0  0  0  0  0  0  0  0  0  0
  161.1360  202.0290  150.7480 C   0  0  0  0  0  3  0  0  0  0  0  0
  161.2700  204.8260  151.0020 C   0  0  0  0  0  0  0  0  0  0  0  0
  161.5390  202.6020  151.9560 C   0  0  0  0  0  3  0  0  0  0  0  0
  160.8540  204.2360  149.7970 C   0  0  0  0  0  3  0  0  0  0  0  0
  161.6010  203.9920  152.0840 C   0  0  0  0  0  3  0  0  0  0  0  0
  160.3980  202.2910  148.4970 F   0  0  0  0  0  0  0  0  0  0  0  0
  162.1960  212.1220  149.0360 N   0  0  0  0  0  2  0  0  0  0  0  0
  161.4740  211.8680  147.7990 C   0  0  0  0  0  2  0  0  0  0  0  0
  159.3840  212.6980  146.5100 C   0  0  0  0  0  2  0  0  0  0  0  0
  160.2770  212.7550  147.7160 C   0  0  0  0  0  0  0  0  0  0  0  0
  157.9030  212.7070  146.9210 C   0  0  1  0  0  3  0  0  0  0  0  0
  157.5620  213.6510  148.0440 C   0  0  1  0  0  3  0  0  0  0  0  0
  158.7490  214.4530  148.6000 C   0  0  0  0  0  2  0  0  0  0  0  0
  159.9730  213.5910  148.7140 C   0  0  0  0  0  3  0  0  0  0  0  0
  157.3660  213.9890  146.6910 O   0  0  0  0  0  0  0  0  0  0  0  0
  1 12  1  6  0  0  0
  1 10  1  0  0  0  0
  2 13  1  6  0  0  0
  2  6  1  0  0  0  0
  4 17  1  0  0  0  0
  6  5  2  0  0  0  0
  7 17  1  0  0  0  0
  8  3  1  6  0  0  0
  8  2  1  0  0  0  0
  8  1  1  0  0  0  0
  9 16  1  0  0  0  0
  9  4  1  0  0  0  0
 10  5  1  0  0  0  0
 11  3  1  0  0  0  0
 11 18  1  0  0  0  0
 14  4  2  0  0  0  0
 14 15  1  0  0  0  0
 15 11  2  0  0  0  0
 16 26  1  6  0  0  0
 16  7  1  0  0  0  0
 17  3  2  0  0  0  0
 18 12  1  0  0  0  0
 19 23  2  0  0  0  0
 19 20  1  0  0  0  0
 20 22  2  0  0  0  0
 21 15  1  0  0  0  0
 21 24  2  0  0  0  0
 22 24  1  0  0  0  0
 23 21  1  0  0  0  0
 25 19  1  0  0  0  0
 27 26  1  0  0  0  0
 28 29  1  0  0  0  0
 29 27  1  0  0  0  0
 29 33  2  0  0  0  0
 30 28  1  6  0  0  0
 30 31  1  0  0  0  0
 31 32  1  6  0  0  0
 32 33  1  0  0  0  0
 34 30  1  0  0  0  0
 34 31  1  0  0  0  0
M  END
>  <MODEL>
3

>  <REMARK>
 VINA RESULT:      -7.5      2.843      5.631
  Name = 
  4 active torsions:
  status: ('A' for Active; 'I' for Inactive)
    1  A    between atoms: C_3  and  C_13
    2  A    between atoms: C_3  and  N_17
    3  A    between atoms: C_12  and  C_28
    4  A    between atoms: N_17  and  C_29
                            x       y       z     vdW  Elec       q    Type
                         _______ _______ _______ _____ _____    ______ ____

>  <TORSDO>
F 4

$$$$
=
 OpenBabel11062407433D

 34 40  0  0  1  0  0  0  0  0999 V2000
  161.2090  205.6730  152.0760 N   0  0  1  0  0  0  0  0  0  0  0  0
  160.4040  206.2880  149.9030 C   0  0  1  0  0  3  0  0  0  0  0  0
  161.2440  208.1140  151.5140 C   0  0  0  0  0  0  0  0  0  0  0  0
  161.3900  210.5130  151.1620 C   0  0  0  0  0  0  0  0  0  0  0  0
  161.1720  203.9560  150.3630 C   0  0  0  0  0  3  0  0  0  0  0  0
  160.5470  204.8250  149.5480 C   0  0  0  0  0  3  0  0  0  0  0  0
  162.3920  209.1130  149.1110 S   0  0  0  0  0  0  0  0  0  0  0  0
  161.4060  206.6750  151.0120 C   0  0  1  0  0  3  0  0  0  0  0  0
  161.7390  211.8390  150.0240 S   0  0  0  0  0  0  0  0  0  0  0  0
  161.8330  204.4300  151.6340 C   0  0  0  0  0  2  0  0  0  0  0  0
  160.8960  208.3620  152.8710 C   0  0  0  0  0  0  0  0  0  0  0  0
  161.7980  206.0970  153.3320 C   0  0  0  0  0  2  0  0  0  0  0  0
  160.5260  207.0430  148.7570 F   0  0  0  0  0  0  0  0  0  0  0  0
  160.8790  210.7510  152.4320 C   0  0  0  0  0  3  0  0  0  0  0  0
  160.6370  209.6870  153.3110 C   0  0  0  0  0  0  0  0  0  0  0  0
  161.5800  210.6690  148.6340 C   0  0  1  0  0  3  0  0  0  0  0  0
  161.6030  209.2200  150.7120 C   0  0  0  0  0  0  0  0  0  0  0  0
  160.9340  207.2280  153.8630 C   0  0  0  0  0  2  0  0  0  0  0  0
  158.4650  210.9750  156.1510 C   0  0  0  0  0  0  0  0  0  0  0  0
  159.2530  210.6640  157.2610 C   0  0  0  0  0  3  0  0  0  0  0  0
  160.1410  210.0050  154.6750 C   0  0  0  0  0  0  0  0  0  0  0  0
  160.4850  210.0320  157.0850 C   0  0  0  0  0  3  0  0  0  0  0  0
  158.9090  210.6530  154.8650 C   0  0  0  0  0  3  0  0  0  0  0  0
  160.9290  209.7080  155.8000 C   0  0  0  0  0  3  0  0  0  0  0  0
  157.2700  211.5920  156.3190 F   0  0  0  0  0  0  0  0  0  0  0  0
  162.2280  211.2130  147.4540 N   0  0  0  0  0  2  0  0  0  0  0  0
  161.7820  212.5910  147.3200 C   0  0  0  0  0  2  0  0  0  0  0  0
  161.8520  213.3590  144.8450 C   0  0  0  0  0  2  0  0  0  0  0  0
  161.0970  212.7800  146.0070 C   0  0  0  0  0  0  0  0  0  0  0  0
  161.5570  212.5780  143.5540 C   0  0  1  0  0  3  0  0  0  0  0  0
  160.1180  212.1770  143.3690 C   0  0  1  0  0  3  0  0  0  0  0  0
  159.1730  212.6110  144.5010 C   0  0  0  0  0  2  0  0  0  0  0  0
  159.8200  212.4210  145.8430 C   0  0  0  0  0  3  0  0  0  0  0  0
  160.6650  213.3200  142.7560 O   0  0  0  0  0  0  0  0  0  0  0  0
  1 10  1  6  0  0  0
  1 12  1  0  0  0  0
  2 13  1  6  0  0  0
  2  8  1  0  0  0  0
  3 11  1  0  0  0  0
  4 14  2  0  0  0  0
  5 10  1  0  0  0  0
  6  2  1  0  0  0  0
  6  5  2  0  0  0  0
  7 17  1  0  0  0  0
  8  3  1  1  0  0  0
  8  1  1  0  0  0  0
  9  4  1  0  0  0  0
 11 15  2  0  0  0  0
 11 18  1  0  0  0  0
 12 18  1  0  0  0  0
 14 15  1  0  0  0  0
 15 21  1  0  0  0  0
 16 26  1  6  0  0  0
 16  7  1  0  0  0  0
 16  9  1  0  0  0  0
 17  4  1  0  0  0  0
 17  3  2  0  0  0  0
 19 25  1  0  0  0  0
 19 20  1  0  0  0  0
 21 23  1  0  0  0  0
 21 24  2  0  0  0  0
 22 20  2  0  0  0  0
 23 19  2  0  0  0  0
 24 22  1  0  0  0  0
 27 26  1  0  0  0  0
 28 29  1  0  0  0  0
 29 27  1  0  0  0  0
 30 28  1  1  0  0  0
 31 30  1  0  0  0  0
 31 32  1  1  0  0  0
 32 33  1  0  0  0  0
 33 29  2  0  0  0  0
 34 31  1  0  0  0  0
 34 30  1  0  0  0  0
M  END
>  <MODEL>
4

>  <REMARK>
 VINA RESULT:      -7.2      3.560      8.189
  Name = 
  4 active torsions:
  status: ('A' for Active; 'I' for Inactive)
    1  A    between atoms: C_3  and  C_13
    2  A    between atoms: C_3  and  N_17
    3  A    between atoms: C_12  and  C_28
    4  A    between atoms: N_17  and  C_29
                            x       y       z     vdW  Elec       q    Type
                         _______ _______ _______ _____ _____    ______ ____

>  <TORSDO>
F 4

$$$$
=
 OpenBabel11062407433D

 34 40  0  0  1  0  0  0  0  0999 V2000
  161.1830  209.5230  155.3620 N   0  0  1  0  0  0  0  0  0  0  0  0
  160.0540  207.4500  154.9380 C   0  0  1  0  0  3  0  0  0  0  0  0
  161.2960  208.6390  153.0210 C   0  0  0  0  0  0  0  0  0  0  0  0
  161.5530  207.9480  150.7060 C   0  0  0  0  0  0  0  0  0  0  0  0
  160.7180  208.0870  157.2600 C   0  0  0  0  0  3  0  0  0  0  0  0
  160.0230  207.2770  156.4410 C   0  0  0  0  0  3  0  0  0  0  0  0
  162.0720  205.9670  152.4310 S   0  0  0  0  0  0  0  0  0  0  0  0
  161.2610  208.3160  154.5180 C   0  0  1  0  0  3  0  0  0  0  0  0
  161.7910  206.6000  149.5660 S   0  0  0  0  0  0  0  0  0  0  0  0
  161.6260  209.1550  156.7020 C   0  0  0  0  0  2  0  0  0  0  0  0
  161.2120  209.9900  152.5790 C   0  0  0  0  0  0  0  0  0  0  0  0
  162.0140  210.5950  154.8480 C   0  0  0  0  0  2  0  0  0  0  0  0
  160.0260  206.2090  154.3410 F   0  0  0  0  0  0  0  0  0  0  0  0
  161.2930  209.2420  150.2690 C   0  0  0  0  0  3  0  0  0  0  0  0
  161.1330  210.2840  151.1920 C   0  0  0  0  0  0  0  0  0  0  0  0
  161.3040  205.4260  150.8730 C   0  0  1  0  0  3  0  0  0  0  0  0
  161.5880  207.6470  152.0580 C   0  0  0  0  0  0  0  0  0  0  0  0
  161.3420  211.1050  153.5840 C   0  0  0  0  0  2  0  0  0  0  0  0
  161.3690  213.4040  149.0360 C   0  0  0  0  0  0  0  0  0  0  0  0
  160.5300  214.2800  149.7290 C   0  0  0  0  0  3  0  0  0  0  0  0
  160.9100  211.6550  150.6670 C   0  0  0  0  0  0  0  0  0  0  0  0
  159.8860  213.8530  150.8920 C   0  0  0  0  0  3  0  0  0  0  0  0
  161.5620  212.1020  149.5060 C   0  0  0  0  0  3  0  0  0  0  0  0
  160.0780  212.5500  151.3610 C   0  0  0  0  0  3  0  0  0  0  0  0
  161.9990  213.8180  147.9100 F   0  0  0  0  0  0  0  0  0  0  0  0
  161.7710  204.0930  150.5390 N   0  0  0  0  0  2  0  0  0  0  0  0
  160.6320  203.3640  150.0040 C   0  0  0  0  0  2  0  0  0  0  0  0
  160.9460  201.3640  148.3850 C   0  0  0  0  0  2  0  0  0  0  0  0
  160.9530  202.8430  148.6430 C   0  0  0  0  0  0  0  0  0  0  0  0
  160.2400  201.0400  147.0590 C   0  0  1  0  0  3  0  0  0  0  0  0
  160.5530  201.9820  145.9260 C   0  0  1  0  0  3  0  0  0  0  0  0
  161.5290  203.1170  146.2780 C   0  0  0  0  0  2  0  0  0  0  0  0
  161.2290  203.6790  147.6370 C   0  0  0  0  0  3  0  0  0  0  0  0
  161.2070  200.7430  146.0790 O   0  0  0  0  0  0  0  0  0  0  0  0
  1 12  1  6  0  0  0
  1 10  1  0  0  0  0
  2 13  1  6  0  0  0
  2  6  1  0  0  0  0
  4 17  1  0  0  0  0
  6  5  2  0  0  0  0
  8  3  1  6  0  0  0
  8  2  1  0  0  0  0
  8  1  1  0  0  0  0
  9  4  1  0  0  0  0
  9 16  1  0  0  0  0
 10  5  1  0  0  0  0
 11  3  1  0  0  0  0
 11 18  1  0  0  0  0
 14  4  2  0  0  0  0
 14 15  1  0  0  0  0
 15 11  2  0  0  0  0
 16 26  1  6  0  0  0
 16  7  1  0  0  0  0
 17  7  1  0  0  0  0
 17  3  2  0  0  0  0
 18 12  1  0  0  0  0
 19 23  2  0  0  0  0
 19 20  1  0  0  0  0
 20 22  2  0  0  0  0
 21 15  1  0  0  0  0
 21 24  2  0  0  0  0
 22 24  1  0  0  0  0
 23 21  1  0  0  0  0
 25 19  1  0  0  0  0
 27 26  1  0  0  0  0
 28 29  1  0  0  0  0
 29 27  1  0  0  0  0
 30 28  1  1  0  0  0
 31 34  1  0  0  0  0
 31 32  1  1  0  0  0
 31 30  1  0  0  0  0
 32 33  1  0  0  0  0
 33 29  2  0  0  0  0
 34 30  1  0  0  0  0
M  END
>  <MODEL>
5

>  <REMARK>
 VINA RESULT:      -7.1      4.023      8.816
  Name = 
  4 active torsions:
  status: ('A' for Active; 'I' for Inactive)
    1  A    between atoms: C_3  and  C_13
    2  A    between atoms: C_3  and  N_17
    3  A    between atoms: C_12  and  C_28
    4  A    between atoms: N_17  and  C_29
                            x       y       z     vdW  Elec       q    Type
                         _______ _______ _______ _____ _____    ______ ____

>  <TORSDO>
F 4

$$$$
=
 OpenBabel11062407433D

 34 40  0  0  1  0  0  0  0  0999 V2000
  161.3570  204.7790  150.7260 N   0  0  1  0  0  0  0  0  0  0  0  0
  160.4360  205.9690  148.8590 C   0  0  1  0  0  3  0  0  0  0  0  0
  161.4360  207.2800  150.8370 C   0  0  0  0  0  0  0  0  0  0  0  0
  161.6380  209.6830  151.1320 C   0  0  0  0  0  0  0  0  0  0  0  0
  161.1540  203.5880  148.6220 C   0  0  0  0  0  3  0  0  0  0  0  0
  160.5070  204.6530  148.1160 C   0  0  0  0  0  3  0  0  0  0  0  0
  162.4600  208.8740  148.7160 S   0  0  0  0  0  0  0  0  0  0  0  0
  161.5180  206.0280  149.9580 C   0  0  1  0  0  3  0  0  0  0  0  0
  161.9560  211.2610  150.3700 S   0  0  0  0  0  0  0  0  0  0  0  0
  161.9110  203.6930  149.9250 C   0  0  0  0  0  2  0  0  0  0  0  0
  161.1840  207.1580  152.2330 C   0  0  0  0  0  0  0  0  0  0  0  0
  162.0390  204.8410  152.0050 C   0  0  0  0  0  2  0  0  0  0  0  0
  160.5090  207.0030  147.9520 F   0  0  0  0  0  0  0  0  0  0  0  0
  161.2170  209.5770  152.4530 C   0  0  0  0  0  3  0  0  0  0  0  0
  160.9970  208.3190  153.0290 C   0  0  0  0  0  0  0  0  0  0  0  0
  161.6710  210.5120  148.7320 C   0  0  1  0  0  3  0  0  0  0  0  0
  161.7790  208.5570  150.3380 C   0  0  0  0  0  0  0  0  0  0  0  0
  161.2480  205.7980  152.8800 C   0  0  0  0  0  2  0  0  0  0  0  0
  160.0660  209.3790  156.5580 C   0  0  0  0  0  0  0  0  0  0  0  0
  159.9190  208.1400  157.1850 C   0  0  0  0  0  3  0  0  0  0  0  0
  160.6000  208.2650  154.4600 C   0  0  0  0  0  0  0  0  0  0  0  0
  160.1180  206.9640  156.4600 C   0  0  0  0  0  3  0  0  0  0  0  0
  160.4100  209.4410  155.2040 C   0  0  0  0  0  3  0  0  0  0  0  0
  160.4600  207.0250  155.1070 C   0  0  0  0  0  3  0  0  0  0  0  0
  159.8780  210.5220  157.2610 F   0  0  0  0  0  0  0  0  0  0  0  0
  162.2590  211.3450  147.6980 N   0  0  0  0  0  2  0  0  0  0  0  0
  161.8040  212.7050  147.9370 C   0  0  0  0  0  2  0  0  0  0  0  0
  160.7550  212.9520  145.5790 C   0  0  0  0  0  2  0  0  0  0  0  0
  160.6250  213.0080  147.0740 C   0  0  0  0  0  0  0  0  0  0  0  0
  159.5510  212.2350  144.9490 C   0  0  1  0  0  3  0  0  0  0  0  0
  158.2170  212.5790  145.5570 C   0  0  1  0  0  3  0  0  0  0  0  0
  158.2740  213.5910  146.7120 C   0  0  0  0  0  2  0  0  0  0  0  0
  159.4400  213.3120  147.6140 C   0  0  0  0  0  3  0  0  0  0  0  0
  158.6880  213.1910  144.3790 O   0  0  0  0  0  0  0  0  0  0  0  0
  1 10  1  6  0  0  0
  1 12  1  0  0  0  0
  2 13  1  6  0  0  0
  2  8  1  0  0  0  0
  3 11  1  0  0  0  0
  4 14  2  0  0  0  0
  5 10  1  0  0  0  0
  6  5  2  0  0  0  0
  6  2  1  0  0  0  0
  7 16  1  0  0  0  0
  7 17  1  0  0  0  0
  8  1  1  0  0  0  0
  8  3  1  1  0  0  0
  9  4  1  0  0  0  0
 11 18  1  0  0  0  0
 11 15  2  0  0  0  0
 12 18  1  0  0  0  0
 14 15  1  0  0  0  0
 15 21  1  0  0  0  0
 16 26  1  6  0  0  0
 16  9  1  0  0  0  0
 17  3  2  0  0  0  0
 17  4  1  0  0  0  0
 19 20  1  0  0  0  0
 19 25  1  0  0  0  0
 21 24  2  0  0  0  0
 21 23  1  0  0  0  0
 22 20  2  0  0  0  0
 23 19  2  0  0  0  0
 24 22  1  0  0  0  0
 26 27  1  0  0  0  0
 28 29  1  0  0  0  0
 29 33  2  0  0  0  0
 29 27  1  0  0  0  0
 30 31  1  0  0  0  0
 30 28  1  1  0  0  0
 31 32  1  1  0  0  0
 32 33  1  0  0  0  0
 34 30  1  0  0  0  0
 34 31  1  0  0  0  0
M  END
>  <MODEL>
6

>  <REMARK>
 VINA RESULT:      -7.0      3.378      7.369
  Name = 
  4 active torsions:
  status: ('A' for Active; 'I' for Inactive)
    1  A    between atoms: C_3  and  C_13
    2  A    between atoms: C_3  and  N_17
    3  A    between atoms: C_12  and  C_28
    4  A    between atoms: N_17  and  C_29
                            x       y       z     vdW  Elec       q    Type
                         _______ _______ _______ _____ _____    ______ ____

>  <TORSDO>
F 4

$$$$
=
 OpenBabel11062407433D

 34 40  0  0  1  0  0  0  0  0999 V2000
  160.8430  213.0920  149.9600 N   0  0  1  0  0  0  0  0  0  0  0  0
  162.6430  212.0920  148.7320 C   0  0  1  0  0  3  0  0  0  0  0  0
  161.3440  210.6880  150.4570 C   0  0  0  0  0  0  0  0  0  0  0  0
  161.6440  208.3560  151.0660 C   0  0  0  0  0  0  0  0  0  0  0  0
  161.5010  214.1420  147.8750 C   0  0  0  0  0  3  0  0  0  0  0  0
  162.5280  213.2760  147.7980 C   0  0  0  0  0  3  0  0  0  0  0  0
  161.5880  208.7240  148.4140 S   0  0  0  0  0  0  0  0  0  0  0  0
  161.2840  211.7990  149.4040 C   0  0  1  0  0  3  0  0  0  0  0  0
  162.0230  206.7040  150.5160 S   0  0  0  0  0  0  0  0  0  0  0  0
  160.3720  213.9140  148.8510 C   0  0  0  0  0  2  0  0  0  0  0  0
  161.0320  210.9740  151.8160 C   0  0  0  0  0  0  0  0  0  0  0  0
  159.7790  212.9250  150.9320 C   0  0  0  0  0  2  0  0  0  0  0  0
  163.1620  211.0200  148.0390 F   0  0  0  0  0  0  0  0  0  0  0  0
  161.5140  208.6690  152.4130 C   0  0  0  0  0  3  0  0  0  0  0  0
  161.1930  209.9740  152.8110 C   0  0  0  0  0  0  0  0  0  0  0  0
  162.6930  207.3880  148.9650 C   0  0  1  0  0  3  0  0  0  0  0  0
  161.5310  209.3360  150.0930 C   0  0  0  0  0  0  0  0  0  0  0  0
  160.4040  212.2990  152.1670 C   0  0  0  0  0  2  0  0  0  0  0  0
  161.9120  210.9210  156.4200 C   0  0  0  0  0  0  0  0  0  0  0  0
  160.6760  210.6670  157.0210 C   0  0  0  0  0  3  0  0  0  0  0  0
  161.0150  210.2400  154.2620 C   0  0  0  0  0  0  0  0  0  0  0  0
  159.6120  210.1940  156.2510 C   0  0  0  0  0  3  0  0  0  0  0  0
  162.0810  210.7030  155.0500 C   0  0  0  0  0  3  0  0  0  0  0  0
  159.7810  209.9770  154.8810 C   0  0  0  0  0  3  0  0  0  0  0  0
  162.9470  211.3760  157.1660 F   0  0  0  0  0  0  0  0  0  0  0  0
  162.7450  206.3520  147.9500 N   0  0  0  0  0  2  0  0  0  0  0  0
  161.3900  205.8540  147.7780 C   0  0  0  0  0  2  0  0  0  0  0  0
  161.5530  203.4120  148.6340 C   0  0  0  0  0  2  0  0  0  0  0  0
  161.4160  204.3880  147.5000 C   0  0  0  0  0  0  0  0  0  0  0  0
  160.5790  202.2350  148.4660 C   0  0  1  0  0  3  0  0  0  0  0  0
  160.4490  201.7130  147.0600 C   0  0  1  0  0  3  0  0  0  0  0  0
  161.3100  202.4430  146.0160 C   0  0  0  0  0  2  0  0  0  0  0  0
  161.2980  203.9250  146.2520 C   0  0  0  0  0  3  0  0  0  0  0  0
  161.2890  201.1060  148.0130 O   0  0  0  0  0  0  0  0  0  0  0  0
  1 10  1  6  0  0  0
  1 12  1  0  0  0  0
  2 13  1  6  0  0  0
  2  8  1  0  0  0  0
  3 11  1  0  0  0  0
  4 14  2  0  0  0  0
  5 10  1  0  0  0  0
  6  5  2  0  0  0  0
  6  2  1  0  0  0  0
  7 16  1  0  0  0  0
  7 17  1  0  0  0  0
  8  1  1  0  0  0  0
  8  3  1  1  0  0  0
  9  4  1  0  0  0  0
 11 18  1  0  0  0  0
 11 15  2  0  0  0  0
 12 18  1  0  0  0  0
 14 15  1  0  0  0  0
 15 21  1  0  0  0  0
 16 26  1  6  0  0  0
 16  9  1  0  0  0  0
 17  3  2  0  0  0  0
 17  4  1  0  0  0  0
 19 20  1  0  0  0  0
 19 25  1  0  0  0  0
 21 24  2  0  0  0  0
 21 23  1  0  0  0  0
 22 20  2  0  0  0  0
 23 19  2  0  0  0  0
 24 22  1  0  0  0  0
 27 26  1  0  0  0  0
 29 27  1  0  0  0  0
 29 28  1  0  0  0  0
 30 28  1  6  0  0  0
 31 32  1  6  0  0  0
 31 34  1  0  0  0  0
 31 30  1  0  0  0  0
 32 33  1  0  0  0  0
 33 29  2  0  0  0  0
 34 30  1  0  0  0  0
M  END
>  <MODEL>
7

>  <REMARK>
 VINA RESULT:      -7.0      3.802      8.189
  Name = 
  4 active torsions:
  status: ('A' for Active; 'I' for Inactive)
    1  A    between atoms: C_3  and  C_13
    2  A    between atoms: C_3  and  N_17
    3  A    between atoms: C_12  and  C_28
    4  A    between atoms: N_17  and  C_29
                            x       y       z     vdW  Elec       q    Type
                         _______ _______ _______ _____ _____    ______ ____

>  <TORSDO>
F 4

$$$$
=
 OpenBabel11062407433D

 34 40  0  0  1  0  0  0  0  0999 V2000
  160.3180  212.7410  150.2040 N   0  0  1  0  0  0  0  0  0  0  0  0
  162.3120  211.4270  149.9930 C   0  0  1  0  0  3  0  0  0  0  0  0
  160.5560  210.8010  151.7700 C   0  0  0  0  0  0  0  0  0  0  0  0
  160.5740  208.9600  153.3550 C   0  0  0  0  0  0  0  0  0  0  0  0
  161.5250  212.8580  148.1030 C   0  0  0  0  0  3  0  0  0  0  0  0
  162.4930  212.1020  148.6520 C   0  0  0  0  0  3  0  0  0  0  0  0
  161.1960  208.1800  150.8710 S   0  0  0  0  0  0  0  0  0  0  0  0
  160.8160  211.3630  150.3690 C   0  0  1  0  0  3  0  0  0  0  0  0
  160.9920  207.2560  153.6620 S   0  0  0  0  0  0  0  0  0  0  0  0
  160.1790  212.9940  148.7740 C   0  0  0  0  0  2  0  0  0  0  0  0
  159.9320  211.6110  152.7600 C   0  0  0  0  0  0  0  0  0  0  0  0
  159.0390  212.9340  150.8610 C   0  0  0  0  0  2  0  0  0  0  0  0
  162.9300  210.1960  149.9650 F   0  0  0  0  0  0  0  0  0  0  0  0
  160.1310  209.8010  154.3690 C   0  0  0  0  0  3  0  0  0  0  0  0
  159.7900  211.1320  154.0900 C   0  0  0  0  0  0  0  0  0  0  0  0
  162.0590  207.2650  152.1850 C   0  0  1  0  0  3  0  0  0  0  0  0
  160.7560  209.4340  152.0670 C   0  0  0  0  0  0  0  0  0  0  0  0
  159.3070  212.9220  152.3570 C   0  0  0  0  0  2  0  0  0  0  0  0
  157.4380  212.7230  156.6150 C   0  0  0  0  0  0  0  0  0  0  0  0
  158.2950  213.6170  157.2610 C   0  0  0  0  0  3  0  0  0  0  0  0
  159.2720  211.9690  155.2020 C   0  0  0  0  0  0  0  0  0  0  0  0
  159.6350  213.6980  156.8780 C   0  0  0  0  0  3  0  0  0  0  0  0
  157.9230  211.9080  155.5870 C   0  0  0  0  0  3  0  0  0  0  0  0
  160.1200  212.8820  155.8520 C   0  0  0  0  0  3  0  0  0  0  0  0
  156.1360  212.6460  156.9820 F   0  0  0  0  0  0  0  0  0  0  0  0
  162.3080  205.9040  151.7460 N   0  0  0  0  0  2  0  0  0  0  0  0
  161.0130  205.2970  151.4830 C   0  0  0  0  0  2  0  0  0  0  0  0
  161.2770  202.7640  150.9980 C   0  0  0  0  0  2  0  0  0  0  0  0
  161.1610  204.1780  150.5070 C   0  0  0  0  0  0  0  0  0  0  0  0
  160.4020  201.8180  150.1600 C   0  0  1  0  0  3  0  0  0  0  0  0
  160.4190  202.0840  148.6780 C   0  0  1  0  0  3  0  0  0  0  0  0
  161.3070  203.2600  148.2410 C   0  0  0  0  0  2  0  0  0  0  0  0
  161.1740  204.4150  149.1910 C   0  0  0  0  0  3  0  0  0  0  0  0
  161.2220  201.0920  149.2740 O   0  0  0  0  0  0  0  0  0  0  0  0
  1 10  1  6  0  0  0
  1  8  1  0  0  0  0
  1 12  1  0  0  0  0
  2 13  1  6  0  0  0
  2  8  1  0  0  0  0
  3 17  2  0  0  0  0
  3 11  1  0  0  0  0
  4  9  1  0  0  0  0
  4 14  2  0  0  0  0
  5  6  2  0  0  0  0
  5 10  1  0  0  0  0
  6  2  1  0  0  0  0
  7 17  1  0  0  0  0
  7 16  1  0  0  0  0
  8  3  1  1  0  0  0
 11 15  2  0  0  0  0
 12 18  1  0  0  0  0
 15 14  1  0  0  0  0
 15 21  1  0  0  0  0
 16 26  1  6  0  0  0
 16  9  1  0  0  0  0
 17  4  1  0  0  0  0
 18 11  1  0  0  0  0
 19 25  1  0  0  0  0
 19 20  1  0  0  0  0
 21 23  1  0  0  0  0
 21 24  2  0  0  0  0
 22 20  2  0  0  0  0
 23 19  2  0  0  0  0
 24 22  1  0  0  0  0
 27 26  1  0  0  0  0
 29 28  1  0  0  0  0
 29 27  1  0  0  0  0
 30 28  1  1  0  0  0
 31 32  1  1  0  0  0
 31 34  1  0  0  0  0
 31 30  1  0  0  0  0
 32 33  1  0  0  0  0
 33 29  2  0  0  0  0
 34 30  1  0  0  0  0
M  END
>  <MODEL>
8

>  <REMARK>
 VINA RESULT:      -7.0      3.271      8.087
  Name = 
  4 active torsions:
  status: ('A' for Active; 'I' for Inactive)
    1  A    between atoms: C_3  and  C_13
    2  A    between atoms: C_3  and  N_17
    3  A    between atoms: C_12  and  C_28
    4  A    between atoms: N_17  and  C_29
                            x       y       z     vdW  Elec       q    Type
                         _______ _______ _______ _____ _____    ______ ____

>  <TORSDO>
F 4

$$$$
=
 OpenBabel11062407433D

 34 40  0  0  1  0  0  0  0  0999 V2000
  160.2720  208.8950  154.7290 N   0  0  1  0  0  0  0  0  0  0  0  0
  160.4230  208.2140  152.4360 C   0  0  1  0  0  3  0  0  0  0  0  0
  160.1290  210.7080  153.0070 C   0  0  0  0  0  0  0  0  0  0  0  0
  159.9980  212.6150  151.5070 C   0  0  0  0  0  0  0  0  0  0  0  0
  161.2970  206.7480  154.2590 C   0  0  0  0  0  3  0  0  0  0  0  0
  160.9590  206.9030  152.9660 C   0  0  0  0  0  3  0  0  0  0  0  0
  162.0320  210.9790  150.9110 S   0  0  0  0  0  0  0  0  0  0  0  0
  160.7430  209.3650  153.4130 C   0  0  1  0  0  3  0  0  0  0  0  0
  160.5790  213.3800  150.0070 S   0  0  0  0  0  0  0  0  0  0  0  0
  161.2320  207.9120  155.2180 C   0  0  0  0  0  2  0  0  0  0  0  0
  159.1760  211.3440  153.8530 C   0  0  0  0  0  0  0  0  0  0  0  0
  160.1580  209.9840  155.6810 C   0  0  0  0  0  2  0  0  0  0  0  0
  160.9080  208.4170  151.1620 F   0  0  0  0  0  0  0  0  0  0  0  0
  158.9430  213.1460  152.2400 C   0  0  0  0  0  3  0  0  0  0  0  0
  158.5240  212.5310  153.4280 C   0  0  0  0  0  0  0  0  0  0  0  0
  161.2600  211.7770  149.4700 C   0  0  1  0  0  3  0  0  0  0  0  0
  160.6080  211.4330  151.8930 C   0  0  0  0  0  0  0  0  0  0  0  0
  158.9660  210.8220  155.2520 C   0  0  0  0  0  2  0  0  0  0  0  0
  155.1600  214.0490  154.3320 C   0  0  0  0  0  0  0  0  0  0  0  0
  155.3870  214.4520  155.6500 C   0  0  0  0  0  3  0  0  0  0  0  0
  157.4270  213.1720  154.1980 C   0  0  0  0  0  0  0  0  0  0  0  0
  156.6300  214.2250  156.2440 C   0  0  0  0  0  3  0  0  0  0  0  0
  156.1760  213.4190  153.6090 C   0  0  0  0  0  3  0  0  0  0  0  0
  157.6450  213.5930  155.5210 C   0  0  0  0  0  3  0  0  0  0  0  0
  153.9550  214.2730  153.7530 F   0  0  0  0  0  0  0  0  0  0  0  0
  162.2590  211.9850  148.4370 N   0  0  0  0  0  2  0  0  0  0  0  0
  161.9510  213.2530  147.7950 C   0  0  0  0  0  2  0  0  0  0  0  0
  160.2800  212.5870  145.9280 C   0  0  0  0  0  2  0  0  0  0  0  0
  161.6510  213.0340  146.3500 C   0  0  0  0  0  0  0  0  0  0  0  0
  159.7990  213.3750  144.6990 C   0  0  1  0  0  3  0  0  0  0  0  0
  160.8500  213.6160  143.6480 C   0  0  1  0  0  3  0  0  0  0  0  0
  162.2360  213.0360  143.9710 C   0  0  0  0  0  2  0  0  0  0  0  0
  162.5830  213.2500  145.4160 C   0  0  0  0  0  3  0  0  0  0  0  0
  159.9170  212.5650  143.5530 O   0  0  0  0  0  0  0  0  0  0  0  0
  1 10  1  1  0  0  0
  1 12  1  0  0  0  0
  2 13  1  6  0  0  0
  2  6  1  0  0  0  0
  2  8  1  0  0  0  0
  3 11  1  0  0  0  0
  4 17  1  0  0  0  0
  4 14  2  0  0  0  0
  5 10  1  0  0  0  0
  6  5  2  0  0  0  0
  7 17  1  0  0  0  0
  8  3  1  6  0  0  0
  8  1  1  0  0  0  0
  9  4  1  0  0  0  0
 11 18  1  0  0  0  0
 14 15  1  0  0  0  0
 15 11  2  0  0  0  0
 15 21  1  0  0  0  0
 16 26  1  6  0  0  0
 16  9  1  0  0  0  0
 16  7  1  0  0  0  0
 17  3  2  0  0  0  0
 18 12  1  0  0  0  0
 19 20  1  0  0  0  0
 20 22  2  0  0  0  0
 21 24  2  0  0  0  0
 23 21  1  0  0  0  0
 23 19  2  0  0  0  0
 24 22  1  0  0  0  0
 25 19  1  0  0  0  0
 27 26  1  0  0  0  0
 28 29  1  0  0  0  0
 29 27  1  0  0  0  0
 30 28  1  1  0  0  0
 31 32  1  1  0  0  0
 31 30  1  0  0  0  0
 32 33  1  0  0  0  0
 33 29  2  0  0  0  0
 34 31  1  0  0  0  0
 34 30  1  0  0  0  0
M  END
>  <MODEL>
9

>  <REMARK>
 VINA RESULT:      -6.1      3.463      8.928
  Name = 
  4 active torsions:
  status: ('A' for Active; 'I' for Inactive)
    1  A    between atoms: C_3  and  C_13
    2  A    between atoms: C_3  and  N_17
    3  A    between atoms: C_12  and  C_28
    4  A    between atoms: N_17  and  C_29
                            x       y       z     vdW  Elec       q    Type
                         _______ _______ _______ _____ _____    ______ ____

>  <TORSDO>
F 4

$$$$
