=
 OpenBabel11062410093D

 43 50  0  0  1  0  0  0  0  0999 V2000
  160.7340  207.6440  153.1600 N   0  0  0  0  0  2  0  0  0  0  0  0
  161.0460  201.5850  148.7400 C   0  0  0  0  0  0  0  0  0  0  0  0
  161.1300  205.8770  151.4080 C   0  0  0  0  0  0  0  0  0  0  0  0
  162.2330  207.8770  149.7340 C   0  0  2  0  0  3  0  0  0  0  0  0
  160.9790  203.2200  150.5260 C   0  0  0  0  0  0  0  0  0  0  0  0
  161.2700  202.6030  147.8100 C   0  0  0  0  0  3  0  0  0  0  0  0
  160.9670  200.2650  148.3160 O   0  0  0  0  0  1  0  0  0  0  0  0
  161.2080  204.2570  149.5900 C   0  0  0  0  0  0  0  0  0  0  0  0
  160.8990  201.8920  150.0950 C   0  0  0  0  0  3  0  0  0  0  0  0
  161.3500  203.9330  148.2320 C   0  0  0  0  0  3  0  0  0  0  0  0
  161.4540  206.7350  149.0720 C   0  0  0  0  0  2  0  0  0  0  0  0
  161.2900  205.5890  150.0370 C   0  0  0  0  0  0  0  0  0  0  0  0
  160.8980  204.8420  152.3200 C   0  0  0  0  0  3  0  0  0  0  0  0
  161.2080  207.2830  151.8570 C   0  0  0  0  0  0  0  0  0  0  0  0
  161.6630  208.1960  151.0480 N   0  0  0  0  0  0  0  0  0  0  0  0
  160.8250  203.5190  151.8810 C   0  0  0  0  0  3  0  0  0  0  0  0
  160.9290  210.1870  155.7530 C   0  0  2  0  0  3  0  0  0  0  0  0
  162.3080  209.7030  156.1610 C   0  0  1  0  0  3  0  0  0  0  0  0
  162.0910  209.5860  153.6900 C   0  0  0  0  0  2  0  0  0  0  0  0
  160.1730  209.0730  155.0520 C   0  0  0  0  0  2  0  0  0  0  0  0
  160.6920  209.0210  153.6310 C   0  0  2  0  0  3  0  0  0  0  0  0
  162.1370  210.5130  154.8910 C   0  0  1  0  0  3  0  0  0  0  0  0
  163.8720  211.3900  156.7460 O   0  0  0  0  0  1  0  0  0  0  0  0
  162.8450  210.5990  157.2570 C   0  0  0  0  0  2  0  0  0  0  0  0
  162.2500  209.1140  148.8400 C   0  0  1  0  0  3  0  0  0  0  0  0
  161.3830  208.8960  147.6100 C   0  0  0  0  0  1  0  0  0  0  0  0
  161.7500  210.2660  149.5790 N   0  0  0  0  0  2  0  0  0  0  0  0
  161.9030  211.6060  149.1110 C   0  0  0  0  0  0  0  0  0  0  0  0
  162.5280  211.8480  148.0420 O   0  0  0  0  0  0  0  0  0  0  0  0
  161.3620  212.7310  149.9190 C   0  0  0  0  0  2  0  0  0  0  0  0
  159.9510  212.9210  149.6180 N   0  0  0  0  0  0  0  0  0  0  0  0
  158.3280  212.6380  151.3720 C   0  0  2  0  0  3  0  0  0  0  0  0
  159.3520  213.5400  150.7920 C   0  0  2  0  0  3  0  0  0  0  0  0
  157.9730  213.7360  150.5680 O   0  0  0  0  0  0  0  0  0  0  0  0
  158.0680  212.9550  152.8440 C   0  0  1  0  0  0  0  0  0  0  0  0
  159.2250  212.7500  153.7940 C   0  0  0  0  0  2  0  0  0  0  0  0
  156.1390  213.0380  154.3060 C   0  0  0  0  0  2  0  0  0  0  0  0
  157.0860  211.9700  154.8170 C   0  0  0  0  0  2  0  0  0  0  0  0
  156.9350  213.8550  153.3130 C   0  0  0  0  0  2  0  0  0  0  0  0
  158.1040  211.7210  153.7180 C   0  0  1  0  0  3  0  0  0  0  0  0
  159.8720  213.8950  148.5380 C   0  0  0  0  0  2  0  0  0  0  0  0
  157.6460  212.9690  147.2170 S   0  0  0  0  0  1  0  0  0  0  0  0
  159.4460  213.2190  147.2440 C   0  0  0  0  0  2  0  0  0  0  0  0
  2  9  1  0  0  0  0
  3 14  1  0  0  0  0
  3 13  1  0  0  0  0
  4 25  1  6  0  0  0
  4 15  1  0  0  0  0
  5 16  1  0  0  0  0
  6 10  1  0  0  0  0
  6  2  2  0  0  0  0
  7  2  1  0  0  0  0
  8 12  1  0  0  0  0
  8  5  1  0  0  0  0
  9  5  2  0  0  0  0
 10  8  2  0  0  0  0
 11  4  1  0  0  0  0
 11 12  1  0  0  0  0
 12  3  2  0  0  0  0
 14  1  1  0  0  0  0
 15 14  2  0  0  0  0
 16 13  2  0  0  0  0
 17 20  1  6  0  0  0
 17 18  1  0  0  0  0
 18 24  1  1  0  0  0
 21  1  1  1  0  0  0
 21 19  1  0  0  0  0
 21 20  1  0  0  0  0
 22 19  1  6  0  0  0
 22 17  1  0  0  0  0
 22 18  1  0  0  0  0
 23 24  1  0  0  0  0
 25 26  1  6  0  0  0
 25 27  1  0  0  0  0
 28 27  1  0  0  0  0
 28 30  1  0  0  0  0
 29 28  2  0  0  0  0
 31 30  1  0  0  0  0
 32 34  1  6  0  0  0
 32 35  1  0  0  0  0
 33 31  1  6  0  0  0
 33 32  1  0  0  0  0
 34 33  1  0  0  0  0
 35 39  1  1  0  0  0
 35 40  1  0  0  0  0
 35 36  1  0  0  0  0
 37 38  1  0  0  0  0
 39 37  1  0  0  0  0
 40 36  1  1  0  0  0
 40 38  1  0  0  0  0
 41 31  1  0  0  0  0
 42 43  1  0  0  0  0
 43 41  1  0  0  0  0
M  END
>  <MODEL>
1

>  <REMARK>
 VINA RESULT:      -7.8      0.000      0.000
  Name = 
  10 active torsions:
  status: ('A' for Active; 'I' for Inactive)
    1  A    between atoms: N_1  and  C_35
    2  A    between atoms: C_2  and  N_6
    3  A    between atoms: C_2  and  C_13
    4  A    between atoms: C_3  and  N_4
    5  A    between atoms: C_3  and  C_12
    6  A    between atoms: N_4  and  C_15
    7  A    between atoms: N_4  and  C_22
    8  A    between atoms: C_11  and  C_14
    9  A    between atoms: C_15  and  C_42
   10  A    between atoms: C_19  and  C_37
                            x       y       z     vdW  Elec       q    Type
                         _______ _______ _______ _____ _____    ______ ____

>  <TORSDO>
F 10

$$$$
=
 OpenBabel11062410093D

 43 50  0  0  1  0  0  0  0  0999 V2000
  161.0440  209.0140  152.7920 N   0  0  0  0  0  2  0  0  0  0  0  0
  161.3560  204.0730  147.1480 C   0  0  0  0  0  0  0  0  0  0  0  0
  161.4110  207.6900  150.6800 C   0  0  0  0  0  0  0  0  0  0  0  0
  162.3210  210.0620  149.4290 C   0  0  2  0  0  3  0  0  0  0  0  0
  161.3250  205.2800  149.2490 C   0  0  0  0  0  0  0  0  0  0  0  0
  161.4780  205.2790  146.4530 C   0  0  0  0  0  3  0  0  0  0  0  0
  161.3110  202.8740  146.4520 O   0  0  0  0  0  1  0  0  0  0  0  0
  161.4510  206.5050  148.5510 C   0  0  0  0  0  0  0  0  0  0  0  0
  161.2780  204.0740  148.5440 C   0  0  0  0  0  3  0  0  0  0  0  0
  161.5250  206.4890  147.1500 C   0  0  0  0  0  3  0  0  0  0  0  0
  161.5550  209.0470  148.5740 C   0  0  0  0  0  2  0  0  0  0  0  0
  161.5010  207.7130  149.2730 C   0  0  0  0  0  0  0  0  0  0  0  0
  161.2810  206.4720  151.3550 C   0  0  0  0  0  3  0  0  0  0  0  0
  161.4540  208.9680  151.4200 C   0  0  0  0  0  0  0  0  0  0  0  0
  161.8180  210.0580  150.8080 N   0  0  0  0  0  0  0  0  0  0  0  0
  161.2400  205.2720  150.6430 C   0  0  0  0  0  3  0  0  0  0  0  0
  159.3510  212.0340  153.9040 C   0  0  2  0  0  3  0  0  0  0  0  0
  158.1760  211.2190  154.4130 C   0  0  1  0  0  3  0  0  0  0  0  0
  160.2880  209.9990  154.8780 C   0  0  0  0  0  2  0  0  0  0  0  0
  160.0970  211.2580  152.8330 C   0  0  0  0  0  2  0  0  0  0  0  0
  160.9690  210.2520  153.5530 C   0  0  2  0  0  3  0  0  0  0  0  0
  159.4750  211.2420  155.1940 C   0  0  1  0  0  3  0  0  0  0  0  0
  156.0780  211.4090  155.5080 O   0  0  0  0  0  1  0  0  0  0  0  0
  157.1790  212.1460  155.0760 C   0  0  0  0  0  2  0  0  0  0  0  0
  162.2300  211.4620  148.8260 C   0  0  1  0  0  3  0  0  0  0  0  0
  163.5570  211.8610  148.2010 C   0  0  0  0  0  1  0  0  0  0  0  0
  161.1920  211.4930  147.8040 N   0  0  0  0  0  2  0  0  0  0  0  0
  160.3790  212.6430  147.5680 C   0  0  0  0  0  0  0  0  0  0  0  0
  160.5040  213.6760  148.2800 O   0  0  0  0  0  0  0  0  0  0  0  0
  159.3410  212.6010  146.5030 C   0  0  0  0  0  2  0  0  0  0  0  0
  159.5200  213.7250  145.5960 N   0  0  0  0  0  0  0  0  0  0  0  0
  161.0070  214.1750  143.7590 C   0  0  2  0  0  3  0  0  0  0  0  0
  160.0860  213.1850  144.3680 C   0  0  2  0  0  3  0  0  0  0  0  0
  159.6980  213.9910  143.2770 O   0  0  0  0  0  0  0  0  0  0  0  0
  162.0110  213.5040  142.8230 C   0  0  1  0  0  0  0  0  0  0  0  0
  163.4240  214.0430  142.8470 C   0  0  0  0  0  2  0  0  0  0  0  0
  161.9140  212.2620  140.7450 C   0  0  0  0  0  2  0  0  0  0  0  0
  162.7100  213.5310  140.5120 C   0  0  0  0  0  2  0  0  0  0  0  0
  161.8100  212.1100  142.2470 C   0  0  0  0  0  2  0  0  0  0  0  0
  162.4770  214.4250  141.7160 C   0  0  1  0  0  3  0  0  0  0  0  0
  158.1920  214.2240  145.2680 C   0  0  0  0  0  2  0  0  0  0  0  0
  156.5480  214.4210  147.4630 S   0  0  0  0  0  1  0  0  0  0  0  0
  157.1300  213.4540  146.0380 C   0  0  0  0  0  2  0  0  0  0  0  0
  2  9  1  0  0  0  0
  3 13  1  0  0  0  0
  3 14  1  0  0  0  0
  4 25  1  6  0  0  0
  4 15  1  0  0  0  0
  5 16  1  0  0  0  0
  6  2  2  0  0  0  0
  6 10  1  0  0  0  0
  7  2  1  0  0  0  0
  8  5  1  0  0  0  0
  8 12  1  0  0  0  0
  9  5  2  0  0  0  0
 10  8  2  0  0  0  0
 11 12  1  0  0  0  0
 11  4  1  0  0  0  0
 12  3  2  0  0  0  0
 14  1  1  0  0  0  0
 15 14  2  0  0  0  0
 16 13  2  0  0  0  0
 17 20  1  6  0  0  0
 17 18  1  0  0  0  0
 17 22  1  0  0  0  0
 18 24  1  1  0  0  0
 18 22  1  0  0  0  0
 20 21  1  0  0  0  0
 21  1  1  6  0  0  0
 21 19  1  0  0  0  0
 22 19  1  6  0  0  0
 24 23  1  0  0  0  0
 25 26  1  6  0  0  0
 27 25  1  0  0  0  0
 28 27  1  0  0  0  0
 28 29  2  0  0  0  0
 30 28  1  0  0  0  0
 31 30  1  0  0  0  0
 32 34  1  6  0  0  0
 32 33  1  0  0  0  0
 33 31  1  1  0  0  0
 34 33  1  0  0  0  0
 35 39  1  6  0  0  0
 35 36  1  0  0  0  0
 35 32  1  0  0  0  0
 37 39  1  0  0  0  0
 38 37  1  0  0  0  0
 40 38  1  6  0  0  0
 40 35  1  0  0  0  0
 40 36  1  0  0  0  0
 41 31  1  0  0  0  0
 41 43  1  0  0  0  0
 43 42  1  0  0  0  0
M  END
>  <MODEL>
2

>  <REMARK>
 VINA RESULT:      -7.3      3.163      5.986
  Name = 
  10 active torsions:
  status: ('A' for Active; 'I' for Inactive)
    1  A    between atoms: N_1  and  C_35
    2  A    between atoms: C_2  and  N_6
    3  A    between atoms: C_2  and  C_13
    4  A    between atoms: C_3  and  N_4
    5  A    between atoms: C_3  and  C_12
    6  A    between atoms: N_4  and  C_15
    7  A    between atoms: N_4  and  C_22
    8  A    between atoms: C_11  and  C_14
    9  A    between atoms: C_15  and  C_42
   10  A    between atoms: C_19  and  C_37
                            x       y       z     vdW  Elec       q    Type
                         _______ _______ _______ _____ _____    ______ ____

>  <TORSDO>
F 10

$$$$
=
 OpenBabel11062410093D

 43 50  0  0  1  0  0  0  0  0999 V2000
  160.3940  206.2390  154.8260 N   0  0  0  0  0  2  0  0  0  0  0  0
  161.3020  203.5230  147.8860 C   0  0  0  0  0  0  0  0  0  0  0  0
  160.9530  205.7250  152.4230 C   0  0  0  0  0  0  0  0  0  0  0  0
  161.7930  208.4110  152.1120 C   0  0  2  0  0  3  0  0  0  0  0  0
  161.0850  203.9430  150.2630 C   0  0  0  0  0  0  0  0  0  0  0  0
  161.3930  204.8970  147.6470 C   0  0  0  0  0  3  0  0  0  0  0  0
  161.3640  202.6300  146.8250 O   0  0  0  0  0  1  0  0  0  0  0  0
  161.1790  205.3360  150.0280 C   0  0  0  0  0  0  0  0  0  0  0  0
  161.1470  203.0470  149.1910 C   0  0  0  0  0  3  0  0  0  0  0  0
  161.3310  205.7990  148.7130 C   0  0  0  0  0  3  0  0  0  0  0  0
  161.1350  207.7210  150.9120 C   0  0  0  0  0  2  0  0  0  0  0  0
  161.1190  206.2270  151.1160 C   0  0  0  0  0  0  0  0  0  0  0  0
  160.8560  204.3460  152.6380 C   0  0  0  0  0  3  0  0  0  0  0  0
  160.8810  206.6770  153.5510 C   0  0  0  0  0  0  0  0  0  0  0  0
  161.2150  207.9220  153.3690 N   0  0  0  0  0  0  0  0  0  0  0  0
  160.9240  203.4590  151.5620 C   0  0  0  0  0  3  0  0  0  0  0  0
  161.5400  208.7660  157.1770 C   0  0  2  0  0  3  0  0  0  0  0  0
  161.9430  209.6820  156.0360 C   0  0  1  0  0  3  0  0  0  0  0  0
  159.8310  208.5160  155.4490 C   0  0  0  0  0  2  0  0  0  0  0  0
  161.5090  207.3250  156.7000 C   0  0  0  0  0  2  0  0  0  0  0  0
  160.2060  207.1420  155.9520 C   0  0  2  0  0  3  0  0  0  0  0  0
  160.4780  209.5160  156.3900 C   0  0  1  0  0  3  0  0  0  0  0  0
  163.8340  211.0540  156.4590 O   0  0  0  0  0  1  0  0  0  0  0  0
  162.4490  210.9910  156.6050 C   0  0  0  0  0  2  0  0  0  0  0  0
  161.6540  209.9290  152.0100 C   0  0  1  0  0  3  0  0  0  0  0  0
  162.2850  210.4370  150.7240 C   0  0  0  0  0  1  0  0  0  0  0  0
  160.2450  210.2990  152.0300 N   0  0  0  0  0  2  0  0  0  0  0  0
  159.7200  211.2780  152.9260 C   0  0  0  0  0  0  0  0  0  0  0  0
  160.4630  211.8350  153.7800 O   0  0  0  0  0  0  0  0  0  0  0  0
  158.2690  211.6070  152.8850 C   0  0  0  0  0  2  0  0  0  0  0  0
  158.0540  212.9520  153.3970 N   0  0  0  0  0  0  0  0  0  0  0  0
  158.6390  213.3470  151.0970 C   0  0  2  0  0  3  0  0  0  0  0  0
  157.8170  213.8060  152.2420 C   0  0  2  0  0  3  0  0  0  0  0  0
  159.0160  214.4520  151.8800 O   0  0  0  0  0  0  0  0  0  0  0  0
  158.0580  213.8180  149.7640 C   0  0  1  0  0  0  0  0  0  0  0  0
  156.6020  214.2240  149.7660 C   0  0  0  0  0  2  0  0  0  0  0  0
  158.5480  213.4710  147.4170 C   0  0  0  0  0  2  0  0  0  0  0  0
  157.1600  212.9320  147.7050 C   0  0  0  0  0  2  0  0  0  0  0  0
  158.9180  214.3200  148.6130 C   0  0  0  0  0  2  0  0  0  0  0  0
  157.0180  212.8660  149.2150 C   0  0  1  0  0  3  0  0  0  0  0  0
  156.8170  212.9230  154.1650 C   0  0  0  0  0  2  0  0  0  0  0  0
  157.5760  211.9560  156.6240 S   0  0  0  0  0  1  0  0  0  0  0  0
  156.7560  211.6710  155.0270 C   0  0  0  0  0  2  0  0  0  0  0  0
  2  9  1  0  0  0  0
  3 13  1  0  0  0  0
  3 14  1  0  0  0  0
  4 25  1  6  0  0  0
  4 15  1  0  0  0  0
  5 16  1  0  0  0  0
  6  2  2  0  0  0  0
  6 10  1  0  0  0  0
  7  2  1  0  0  0  0
  8  5  1  0  0  0  0
  8 12  1  0  0  0  0
  9  5  2  0  0  0  0
 10  8  2  0  0  0  0
 11 12  1  0  0  0  0
 11  4  1  0  0  0  0
 12  3  2  0  0  0  0
 14  1  1  0  0  0  0
 15 14  2  0  0  0  0
 16 13  2  0  0  0  0
 17 20  1  6  0  0  0
 18 22  1  0  0  0  0
 18 24  1  1  0  0  0
 18 17  1  0  0  0  0
 19 21  1  0  0  0  0
 21  1  1  6  0  0  0
 21 20  1  0  0  0  0
 22 19  1  6  0  0  0
 22 17  1  0  0  0  0
 23 24  1  0  0  0  0
 25 26  1  6  0  0  0
 25 27  1  0  0  0  0
 27 28  1  0  0  0  0
 28 29  2  0  0  0  0
 30 28  1  0  0  0  0
 30 31  1  0  0  0  0
 31 41  1  0  0  0  0
 32 34  1  1  0  0  0
 32 33  1  0  0  0  0
 33 31  1  1  0  0  0
 34 33  1  0  0  0  0
 35 39  1  6  0  0  0
 35 36  1  0  0  0  0
 35 32  1  0  0  0  0
 37 38  1  0  0  0  0
 37 39  1  0  0  0  0
 40 38  1  6  0  0  0
 40 35  1  0  0  0  0
 40 36  1  0  0  0  0
 41 43  1  0  0  0  0
 43 42  1  0  0  0  0
M  END
>  <MODEL>
3

>  <REMARK>
 VINA RESULT:      -6.9      2.280      3.788
  Name = 
  10 active torsions:
  status: ('A' for Active; 'I' for Inactive)
    1  A    between atoms: N_1  and  C_35
    2  A    between atoms: C_2  and  N_6
    3  A    between atoms: C_2  and  C_13
    4  A    between atoms: C_3  and  N_4
    5  A    between atoms: C_3  and  C_12
    6  A    between atoms: N_4  and  C_15
    7  A    between atoms: N_4  and  C_22
    8  A    between atoms: C_11  and  C_14
    9  A    between atoms: C_15  and  C_42
   10  A    between atoms: C_19  and  C_37
                            x       y       z     vdW  Elec       q    Type
                         _______ _______ _______ _____ _____    ______ ____

>  <TORSDO>
F 10

$$$$
=
 OpenBabel11062410093D

 43 50  0  0  1  0  0  0  0  0999 V2000
  160.7180  213.3200  149.7870 N   0  0  0  0  0  2  0  0  0  0  0  0
  156.2680  212.8640  155.8160 C   0  0  0  0  0  0  0  0  0  0  0  0
  159.5260  212.8250  151.9520 C   0  0  0  0  0  0  0  0  0  0  0  0
  161.0540  210.4510  152.1750 C   0  0  2  0  0  3  0  0  0  0  0  0
  157.6470  213.4880  153.9240 C   0  0  0  0  0  0  0  0  0  0  0  0
  156.7640  211.5590  155.7530 C   0  0  0  0  0  3  0  0  0  0  0  0
  155.3360  213.2050  156.7860 O   0  0  0  0  0  1  0  0  0  0  0  0
  158.1560  212.1680  153.8560 C   0  0  0  0  0  0  0  0  0  0  0  0
  156.7070  213.8260  154.9020 C   0  0  0  0  0  3  0  0  0  0  0  0
  157.7030  211.2120  154.7780 C   0  0  0  0  0  3  0  0  0  0  0  0
  159.6170  210.4330  152.7050 C   0  0  0  0  0  2  0  0  0  0  0  0
  159.1040  211.8410  152.8680 C   0  0  0  0  0  0  0  0  0  0  0  0
  159.0100  214.1230  152.0290 C   0  0  0  0  0  3  0  0  0  0  0  0
  160.5140  212.4600  150.9150 C   0  0  0  0  0  0  0  0  0  0  0  0
  161.1620  211.3340  151.0070 N   0  0  0  0  0  0  0  0  0  0  0  0
  158.0760  214.4530  153.0120 C   0  0  0  0  0  3  0  0  0  0  0  0
  161.4110  212.6600  146.2790 C   0  0  2  0  0  3  0  0  0  0  0  0
  160.8390  214.0100  145.8850 C   0  0  1  0  0  3  0  0  0  0  0  0
  162.0970  214.2380  148.0130 C   0  0  0  0  0  2  0  0  0  0  0  0
  160.8390  212.2230  147.6150 C   0  0  0  0  0  2  0  0  0  0  0  0
  161.6020  212.9770  148.6830 C   0  0  2  0  0  3  0  0  0  0  0  0
  162.2080  213.9290  146.5310 C   0  0  1  0  0  3  0  0  0  0  0  0
  159.7460  214.2160  143.7880 O   0  0  0  0  0  1  0  0  0  0  0  0
  161.0010  214.2020  144.3920 C   0  0  0  0  0  2  0  0  0  0  0  0
  161.5250  209.0410  151.8290 C   0  0  1  0  0  3  0  0  0  0  0  0
  160.9630  208.0330  152.8180 C   0  0  0  0  0  1  0  0  0  0  0  0
  161.0860  208.6880  150.4850 N   0  0  0  0  0  2  0  0  0  0  0  0
  161.9060  207.9550  149.5750 C   0  0  0  0  0  0  0  0  0  0  0  0
  163.0800  207.6200  149.8930 O   0  0  0  0  0  0  0  0  0  0  0  0
  161.3870  207.6290  148.2200 C   0  0  0  0  0  2  0  0  0  0  0  0
  162.0320  206.4220  147.7230 N   0  0  0  0  0  0  0  0  0  0  0  0
  161.9310  204.3970  149.0160 C   0  0  2  0  0  3  0  0  0  0  0  0
  161.1850  205.3040  148.1120 C   0  0  2  0  0  3  0  0  0  0  0  0
  161.7560  204.0990  147.6530 O   0  0  0  0  0  0  0  0  0  0  0  0
  160.9850  203.5490  149.8660 C   0  0  1  0  0  0  0  0  0  0  0  0
  160.2360  204.2670  150.9650 C   0  0  0  0  0  2  0  0  0  0  0  0
  160.8000  201.2140  150.4840 C   0  0  0  0  0  2  0  0  0  0  0  0
  161.0220  202.0300  151.7420 C   0  0  0  0  0  2  0  0  0  0  0  0
  160.4290  202.2090  149.4070 C   0  0  0  0  0  2  0  0  0  0  0  0
  161.4540  203.4160  151.2980 C   0  0  1  0  0  3  0  0  0  0  0  0
  162.0020  206.4920  146.2680 C   0  0  0  0  0  2  0  0  0  0  0  0
  161.0940  205.0910  144.0840 S   0  0  0  0  0  1  0  0  0  0  0  0
  160.7640  205.7920  145.7280 C   0  0  0  0  0  2  0  0  0  0  0  0
  1 14  1  0  0  0  0
  2  7  1  0  0  0  0
  3 13  2  0  0  0  0
  3 12  1  0  0  0  0
  4 25  1  6  0  0  0
  4 11  1  0  0  0  0
  5  9  1  0  0  0  0
  6  2  1  0  0  0  0
  8  5  1  0  0  0  0
  8 10  1  0  0  0  0
  9  2  2  0  0  0  0
 10  6  2  0  0  0  0
 11 12  1  0  0  0  0
 12  8  2  0  0  0  0
 13 16  1  0  0  0  0
 14 15  2  0  0  0  0
 14  3  1  0  0  0  0
 15  4  1  0  0  0  0
 16  5  2  0  0  0  0
 17 22  1  0  0  0  0
 17 20  1  1  0  0  0
 18 24  1  6  0  0  0
 18 17  1  0  0  0  0
 18 22  1  0  0  0  0
 19 21  1  0  0  0  0
 20 21  1  0  0  0  0
 21  1  1  1  0  0  0
 22 19  1  1  0  0  0
 23 24  1  0  0  0  0
 25 26  1  1  0  0  0
 27 25  1  0  0  0  0
 28 29  2  0  0  0  0
 28 27  1  0  0  0  0
 30 28  1  0  0  0  0
 31 30  1  0  0  0  0
 32 34  1  6  0  0  0
 32 35  1  0  0  0  0
 33 31  1  6  0  0  0
 33 32  1  0  0  0  0
 34 33  1  0  0  0  0
 35 39  1  6  0  0  0
 35 36  1  0  0  0  0
 35 40  1  0  0  0  0
 37 38  1  0  0  0  0
 39 37  1  0  0  0  0
 40 36  1  1  0  0  0
 40 38  1  0  0  0  0
 41 31  1  0  0  0  0
 42 43  1  0  0  0  0
 43 41  1  0  0  0  0
M  END
>  <MODEL>
4

>  <REMARK>
 VINA RESULT:      -6.7      2.913      9.414
  Name = 
  10 active torsions:
  status: ('A' for Active; 'I' for Inactive)
    1  A    between atoms: N_1  and  C_35
    2  A    between atoms: C_2  and  N_6
    3  A    between atoms: C_2  and  C_13
    4  A    between atoms: C_3  and  N_4
    5  A    between atoms: C_3  and  C_12
    6  A    between atoms: N_4  and  C_15
    7  A    between atoms: N_4  and  C_22
    8  A    between atoms: C_11  and  C_14
    9  A    between atoms: C_15  and  C_42
   10  A    between atoms: C_19  and  C_37
                            x       y       z     vdW  Elec       q    Type
                         _______ _______ _______ _____ _____    ______ ____

>  <TORSDO>
F 10

$$$$
=
 OpenBabel11062410093D

 43 50  0  0  1  0  0  0  0  0999 V2000
  162.1970  209.3280  148.5630 N   0  0  0  0  0  2  0  0  0  0  0  0
  161.0760  201.9790  147.5240 C   0  0  0  0  0  0  0  0  0  0  0  0
  161.5630  206.8900  148.6150 C   0  0  0  0  0  0  0  0  0  0  0  0
  160.7070  207.2370  151.2920 C   0  0  2  0  0  3  0  0  0  0  0  0
  161.3670  204.3800  147.3820 C   0  0  0  0  0  0  0  0  0  0  0  0
  160.9730  202.0680  148.9150 C   0  0  0  0  0  3  0  0  0  0  0  0
  160.9820  200.7410  146.9010 O   0  0  0  0  0  1  0  0  0  0  0  0
  161.2620  204.4790  148.7910 C   0  0  0  0  0  0  0  0  0  0  0  0
  161.2740  203.1320  146.7590 C   0  0  0  0  0  3  0  0  0  0  0  0
  161.0660  203.3120  149.5450 C   0  0  0  0  0  3  0  0  0  0  0  0
  161.3270  205.8910  150.9050 C   0  0  0  0  0  2  0  0  0  0  0  0
  161.3540  205.7420  149.4060 C   0  0  0  0  0  0  0  0  0  0  0  0
  161.6700  206.7750  147.2250 C   0  0  0  0  0  3  0  0  0  0  0  0
  161.6680  208.2060  149.2800 C   0  0  0  0  0  0  0  0  0  0  0  0
  161.3250  208.3280  150.5300 N   0  0  0  0  0  0  0  0  0  0  0  0
  161.5710  205.5260  146.6120 C   0  0  0  0  0  3  0  0  0  0  0  0
  162.1700  212.9650  148.5580 C   0  0  2  0  0  3  0  0  0  0  0  0
  160.6960  212.9790  148.1930 C   0  0  1  0  0  3  0  0  0  0  0  0
  161.1310  211.1300  149.7920 C   0  0  0  0  0  2  0  0  0  0  0  0
  162.7970  211.6500  148.1320 C   0  0  0  0  0  2  0  0  0  0  0  0
  162.4180  210.6270  149.1820 C   0  0  2  0  0  3  0  0  0  0  0  0
  161.1210  212.6370  149.6070 C   0  0  1  0  0  3  0  0  0  0  0  0
  158.9350  214.4520  147.5880 O   0  0  0  0  0  1  0  0  0  0  0  0
  160.2090  214.4120  148.1510 C   0  0  0  0  0  2  0  0  0  0  0  0
  160.8380  207.4870  152.7930 C   0  0  1  0  0  3  0  0  0  0  0  0
  161.7910  206.4830  153.4190 C   0  0  0  0  0  1  0  0  0  0  0  0
  161.3400  208.8340  153.0280 N   0  0  0  0  0  2  0  0  0  0  0  0
  160.4800  209.9350  153.3220 C   0  0  0  0  0  0  0  0  0  0  0  0
  159.2280  209.7860  153.3450 O   0  0  0  0  0  0  0  0  0  0  0  0
  161.0670  211.2820  153.5550 C   0  0  0  0  0  2  0  0  0  0  0  0
  161.1090  211.5620  154.9820 N   0  0  0  0  0  0  0  0  0  0  0  0
  159.0970  212.8760  155.0950 C   0  0  2  0  0  3  0  0  0  0  0  0
  159.7300  211.5820  155.4460 C   0  0  2  0  0  3  0  0  0  0  0  0
  159.5660  212.6120  156.3950 O   0  0  0  0  0  0  0  0  0  0  0  0
  157.5740  212.7630  155.0510 C   0  0  1  0  0  0  0  0  0  0  0  0
  156.8360  213.8500  154.3040 C   0  0  0  0  0  2  0  0  0  0  0  0
  155.8510  211.7410  156.4140 C   0  0  0  0  0  2  0  0  0  0  0  0
  155.6310  213.2410  156.4020 C   0  0  0  0  0  2  0  0  0  0  0  0
  156.8290  211.4590  155.2950 C   0  0  0  0  0  2  0  0  0  0  0  0
  156.8880  213.8670  155.8260 C   0  0  1  0  0  3  0  0  0  0  0  0
  161.7560  210.4240  155.6210 C   0  0  0  0  0  2  0  0  0  0  0  0
  161.0320  208.0510  156.8050 S   0  0  0  0  0  1  0  0  0  0  0  0
  160.8710  209.8590  156.7220 C   0  0  0  0  0  2  0  0  0  0  0  0
  1 14  1  0  0  0  0
  2  6  1  0  0  0  0
  3 14  1  0  0  0  0
  3 12  1  0  0  0  0
  4 25  1  1  0  0  0
  5  8  1  0  0  0  0
  6 10  2  0  0  0  0
  7  2  1  0  0  0  0
  8 12  2  0  0  0  0
  8 10  1  0  0  0  0
  9  5  1  0  0  0  0
  9  2  2  0  0  0  0
 11  4  1  0  0  0  0
 12 11  1  0  0  0  0
 13  3  2  0  0  0  0
 14 15  2  0  0  0  0
 15  4  1  0  0  0  0
 16 13  1  0  0  0  0
 16  5  2  0  0  0  0
 17 20  1  6  0  0  0
 17 22  1  0  0  0  0
 18 24  1  1  0  0  0
 18 17  1  0  0  0  0
 18 22  1  0  0  0  0
 20 21  1  0  0  0  0
 21  1  1  6  0  0  0
 21 19  1  0  0  0  0
 22 19  1  6  0  0  0
 23 24  1  0  0  0  0
 25 27  1  0  0  0  0
 25 26  1  6  0  0  0
 27 28  1  0  0  0  0
 28 29  2  0  0  0  0
 28 30  1  0  0  0  0
 30 31  1  0  0  0  0
 31 41  1  0  0  0  0
 32 33  1  0  0  0  0
 32 34  1  1  0  0  0
 33 31  1  6  0  0  0
 33 34  1  0  0  0  0
 35 36  1  6  0  0  0
 35 32  1  0  0  0  0
 35 39  1  0  0  0  0
 35 40  1  0  0  0  0
 38 37  1  0  0  0  0
 39 37  1  0  0  0  0
 40 36  1  6  0  0  0
 40 38  1  0  0  0  0
 41 43  1  0  0  0  0
 43 42  1  0  0  0  0
M  END
>  <MODEL>
5

>  <REMARK>
 VINA RESULT:      -6.5      2.509      5.399
  Name = 
  10 active torsions:
  status: ('A' for Active; 'I' for Inactive)
    1  A    between atoms: N_1  and  C_35
    2  A    between atoms: C_2  and  N_6
    3  A    between atoms: C_2  and  C_13
    4  A    between atoms: C_3  and  N_4
    5  A    between atoms: C_3  and  C_12
    6  A    between atoms: N_4  and  C_15
    7  A    between atoms: N_4  and  C_22
    8  A    between atoms: C_11  and  C_14
    9  A    between atoms: C_15  and  C_42
   10  A    between atoms: C_19  and  C_37
                            x       y       z     vdW  Elec       q    Type
                         _______ _______ _______ _____ _____    ______ ____

>  <TORSDO>
F 10

$$$$
=
 OpenBabel11062410093D

 43 50  0  0  1  0  0  0  0  0999 V2000
  160.8100  206.0780  154.2080 N   0  0  0  0  0  2  0  0  0  0  0  0
  161.2120  203.4940  147.1710 C   0  0  0  0  0  0  0  0  0  0  0  0
  161.1860  205.6140  151.7600 C   0  0  0  0  0  0  0  0  0  0  0  0
  161.9560  208.3200  151.4320 C   0  0  2  0  0  3  0  0  0  0  0  0
  161.1760  203.8710  149.5650 C   0  0  0  0  0  0  0  0  0  0  0  0
  161.2620  204.8730  146.9510 C   0  0  0  0  0  3  0  0  0  0  0  0
  161.2050  202.6200  146.0930 O   0  0  0  0  0  1  0  0  0  0  0  0
  161.2290  205.2690  149.3490 C   0  0  0  0  0  0  0  0  0  0  0  0
  161.1680  202.9940  148.4760 C   0  0  0  0  0  3  0  0  0  0  0  0
  161.2700  205.7560  148.0330 C   0  0  0  0  0  3  0  0  0  0  0  0
  161.2170  207.6370  150.2760 C   0  0  0  0  0  2  0  0  0  0  0  0
  161.2400  206.1410  150.4540 C   0  0  0  0  0  0  0  0  0  0  0  0
  161.1290  204.2300  151.9570 C   0  0  0  0  0  3  0  0  0  0  0  0
  161.1880  206.5460  152.9070 C   0  0  0  0  0  0  0  0  0  0  0  0
  161.4870  207.7990  152.7220 N   0  0  0  0  0  0  0  0  0  0  0  0
  161.1260  203.3620  150.8640 C   0  0  0  0  0  3  0  0  0  0  0  0
  160.9920  209.3270  155.8320 C   0  0  2  0  0  3  0  0  0  0  0  0
  160.0190  209.9140  154.8250 C   0  0  1  0  0  3  0  0  0  0  0  0
  159.3270  207.5960  155.3870 C   0  0  0  0  0  2  0  0  0  0  0  0
  161.6760  208.1070  155.2420 C   0  0  0  0  0  2  0  0  0  0  0  0
  160.6970  206.9590  155.3620 C   0  0  2  0  0  3  0  0  0  0  0  0
  159.5110  209.0040  155.9260 C   0  0  1  0  0  3  0  0  0  0  0  0
  160.1480  212.1900  154.1620 O   0  0  0  0  0  1  0  0  0  0  0  0
  159.7290  211.3530  155.1950 C   0  0  0  0  0  2  0  0  0  0  0  0
  161.7850  209.8360  151.3690 C   0  0  1  0  0  3  0  0  0  0  0  0
  162.7860  210.5230  152.2830 C   0  0  0  0  0  1  0  0  0  0  0  0
  161.9890  210.3000  150.0030 N   0  0  0  0  0  2  0  0  0  0  0  0
  161.5560  211.5840  149.5550 C   0  0  0  0  0  0  0  0  0  0  0  0
  160.9320  212.3600  150.3280 O   0  0  0  0  0  0  0  0  0  0  0  0
  161.8030  211.9900  148.1450 C   0  0  0  0  0  2  0  0  0  0  0  0
  160.9310  213.1000  147.7920 N   0  0  0  0  0  0  0  0  0  0  0  0
  161.5080  212.9010  145.4650 C   0  0  2  0  0  3  0  0  0  0  0  0
  161.5500  213.7760  146.6610 C   0  0  2  0  0  3  0  0  0  0  0  0
  162.6770  213.0430  146.2340 O   0  0  0  0  0  0  0  0  0  0  0  0
  161.6250  213.7100  144.1730 C   0  0  1  0  0  0  0  0  0  0  0  0
  160.3660  214.3880  143.6830 C   0  0  0  0  0  2  0  0  0  0  0  0
  163.0620  213.7020  142.2230 C   0  0  0  0  0  2  0  0  0  0  0  0
  161.6440  213.4040  141.7790 C   0  0  0  0  0  2  0  0  0  0  0  0
  162.9490  214.2310  143.6360 C   0  0  0  0  0  2  0  0  0  0  0  0
  160.8440  213.0960  143.0320 C   0  0  1  0  0  3  0  0  0  0  0  0
  159.6820  212.5250  147.3100 C   0  0  0  0  0  2  0  0  0  0  0  0
  157.4970  213.6600  146.0880 S   0  0  0  0  0  1  0  0  0  0  0  0
  158.5230  213.4740  147.5770 C   0  0  0  0  0  2  0  0  0  0  0  0
  2  9  1  0  0  0  0
  3 13  1  0  0  0  0
  3 14  1  0  0  0  0
  4 25  1  1  0  0  0
  4 15  1  0  0  0  0
  5 16  1  0  0  0  0
  6  2  2  0  0  0  0
  6 10  1  0  0  0  0
  7  2  1  0  0  0  0
  8  5  1  0  0  0  0
  8 12  1  0  0  0  0
  9  5  2  0  0  0  0
 10  8  2  0  0  0  0
 11 12  1  0  0  0  0
 11  4  1  0  0  0  0
 12  3  2  0  0  0  0
 14  1  1  0  0  0  0
 15 14  2  0  0  0  0
 16 13  2  0  0  0  0
 17 20  1  6  0  0  0
 17 22  1  0  0  0  0
 18 24  1  1  0  0  0
 18 17  1  0  0  0  0
 18 22  1  0  0  0  0
 20 21  1  0  0  0  0
 21  1  1  6  0  0  0
 21 19  1  0  0  0  0
 22 19  1  6  0  0  0
 23 24  1  0  0  0  0
 25 26  1  1  0  0  0
 27 25  1  0  0  0  0
 28 27  1  0  0  0  0
 28 29  2  0  0  0  0
 30 28  1  0  0  0  0
 31 30  1  0  0  0  0
 32 34  1  1  0  0  0
 32 33  1  0  0  0  0
 33 31  1  1  0  0  0
 34 33  1  0  0  0  0
 35 39  1  6  0  0  0
 35 32  1  0  0  0  0
 36 35  1  0  0  0  0
 37 39  1  0  0  0  0
 38 37  1  0  0  0  0
 40 38  1  6  0  0  0
 40 36  1  0  0  0  0
 40 35  1  0  0  0  0
 41 43  1  0  0  0  0
 41 31  1  0  0  0  0
 42 43  1  0  0  0  0
M  END
>  <MODEL>
6

>  <REMARK>
 VINA RESULT:      -6.4      2.446      5.121
  Name = 
  10 active torsions:
  status: ('A' for Active; 'I' for Inactive)
    1  A    between atoms: N_1  and  C_35
    2  A    between atoms: C_2  and  N_6
    3  A    between atoms: C_2  and  C_13
    4  A    between atoms: C_3  and  N_4
    5  A    between atoms: C_3  and  C_12
    6  A    between atoms: N_4  and  C_15
    7  A    between atoms: N_4  and  C_22
    8  A    between atoms: C_11  and  C_14
    9  A    between atoms: C_15  and  C_42
   10  A    between atoms: C_19  and  C_37
                            x       y       z     vdW  Elec       q    Type
                         _______ _______ _______ _____ _____    ______ ____

>  <TORSDO>
F 10

$$$$
=
 OpenBabel11062410093D

 43 50  0  0  1  0  0  0  0  0999 V2000
  159.5710  213.3160  150.6130 N   0  0  0  0  0  2  0  0  0  0  0  0
  154.8120  213.1540  156.4170 C   0  0  0  0  0  0  0  0  0  0  0  0
  158.3350  213.0520  152.7930 C   0  0  0  0  0  0  0  0  0  0  0  0
  160.3630  211.2730  153.6530 C   0  0  2  0  0  3  0  0  0  0  0  0
  156.1730  213.6510  154.4750 C   0  0  0  0  0  0  0  0  0  0  0  0
  155.6130  212.0440  156.6990 C   0  0  0  0  0  3  0  0  0  0  0  0
  153.7380  213.4600  157.2410 O   0  0  0  0  0  1  0  0  0  0  0  0
  156.9900  212.5290  154.7560 C   0  0  0  0  0  0  0  0  0  0  0  0
  155.0910  213.9550  155.3060 C   0  0  0  0  0  3  0  0  0  0  0  0
  156.6960  211.7320  155.8730 C   0  0  0  0  0  3  0  0  0  0  0  0
  158.9290  211.0100  154.1240 C   0  0  0  0  0  2  0  0  0  0  0  0
  158.0780  212.2360  153.9130 C   0  0  0  0  0  0  0  0  0  0  0  0
  157.5160  214.1540  152.5260 C   0  0  0  0  0  3  0  0  0  0  0  0
  159.4760  212.7220  151.9140 C   0  0  0  0  0  0  0  0  0  0  0  0
  160.3650  211.8550  152.3060 N   0  0  0  0  0  0  0  0  0  0  0  0
  156.4410  214.4530  153.3640 C   0  0  0  0  0  3  0  0  0  0  0  0
  160.8170  212.7410  147.2460 C   0  0  2  0  0  3  0  0  0  0  0  0
  160.3850  214.1320  146.8200 C   0  0  1  0  0  3  0  0  0  0  0  0
  161.2730  214.2190  149.1370 C   0  0  0  0  0  2  0  0  0  0  0  0
  160.0070  212.2900  148.4470 C   0  0  0  0  0  2  0  0  0  0  0  0
  160.6130  212.9650  149.6590 C   0  0  2  0  0  3  0  0  0  0  0  0
  161.6190  213.9550  147.6820 C   0  0  1  0  0  3  0  0  0  0  0  0
  162.0820  213.8390  145.1860 O   0  0  0  0  0  1  0  0  0  0  0  0
  160.8070  214.3660  145.3850 C   0  0  0  0  0  2  0  0  0  0  0  0
  161.1920  209.9910  153.6870 C   0  0  1  0  0  3  0  0  0  0  0  0
  160.6830  209.0560  154.7710 C   0  0  0  0  0  1  0  0  0  0  0  0
  161.1120  209.3160  152.3980 N   0  0  0  0  0  2  0  0  0  0  0  0
  162.1490  209.4000  151.4200 C   0  0  0  0  0  0  0  0  0  0  0  0
  163.1700  210.1110  151.6240 O   0  0  0  0  0  0  0  0  0  0  0  0
  161.9980  208.6800  150.1270 C   0  0  0  0  0  2  0  0  0  0  0  0
  161.4200  207.3650  150.3600 N   0  0  0  0  0  0  0  0  0  0  0  0
  161.9300  206.4110  148.2110 C   0  0  2  0  0  3  0  0  0  0  0  0
  160.8550  206.9250  149.0930 C   0  0  2  0  0  3  0  0  0  0  0  0
  161.3920  207.6990  148.0440 O   0  0  0  0  0  0  0  0  0  0  0  0
  161.3780  205.4660  147.1450 C   0  0  1  0  0  0  0  0  0  0  0  0
  161.1690  204.0270  147.5580 C   0  0  0  0  0  2  0  0  0  0  0  0
  161.3660  205.3700  144.7240 C   0  0  0  0  0  2  0  0  0  0  0  0
  162.1130  204.1600  145.2520 C   0  0  0  0  0  2  0  0  0  0  0  0
  160.6300  205.9500  145.9110 C   0  0  0  0  0  2  0  0  0  0  0  0
  162.3830  204.4160  146.7240 C   0  0  1  0  0  3  0  0  0  0  0  0
  162.5220  206.4630  150.6690 C   0  0  0  0  0  2  0  0  0  0  0  0
  161.3580  204.1220  151.5160 S   0  0  0  0  0  1  0  0  0  0  0  0
  162.2200  205.6670  151.9290 C   0  0  0  0  0  2  0  0  0  0  0  0
  1 14  1  0  0  0  0
  2  6  1  0  0  0  0
  2  7  1  0  0  0  0
  3 12  1  0  0  0  0
  4 25  1  6  0  0  0
  4 11  1  0  0  0  0
  5  8  1  0  0  0  0
  5  9  1  0  0  0  0
  8 10  1  0  0  0  0
  9  2  2  0  0  0  0
 10  6  2  0  0  0  0
 12 11  1  0  0  0  0
 12  8  2  0  0  0  0
 13  3  2  0  0  0  0
 13 16  1  0  0  0  0
 14 15  2  0  0  0  0
 14  3  1  0  0  0  0
 15  4  1  0  0  0  0
 16  5  2  0  0  0  0
 17 22  1  0  0  0  0
 17 20  1  1  0  0  0
 18 24  1  6  0  0  0
 18 17  1  0  0  0  0
 18 22  1  0  0  0  0
 19 21  1  0  0  0  0
 20 21  1  0  0  0  0
 21  1  1  1  0  0  0
 22 19  1  1  0  0  0
 23 24  1  0  0  0  0
 25 26  1  1  0  0  0
 27 25  1  0  0  0  0
 28 29  2  0  0  0  0
 28 27  1  0  0  0  0
 30 31  1  0  0  0  0
 30 28  1  0  0  0  0
 31 41  1  0  0  0  0
 32 34  1  6  0  0  0
 32 33  1  0  0  0  0
 33 31  1  1  0  0  0
 34 33  1  0  0  0  0
 35 39  1  6  0  0  0
 35 36  1  0  0  0  0
 35 32  1  0  0  0  0
 37 38  1  0  0  0  0
 37 39  1  0  0  0  0
 40 38  1  6  0  0  0
 40 35  1  0  0  0  0
 40 36  1  0  0  0  0
 41 43  1  0  0  0  0
 42 43  1  0  0  0  0
M  END
>  <MODEL>
7

>  <REMARK>
 VINA RESULT:      -6.0      2.916      9.629
  Name = 
  10 active torsions:
  status: ('A' for Active; 'I' for Inactive)
    1  A    between atoms: N_1  and  C_35
    2  A    between atoms: C_2  and  N_6
    3  A    between atoms: C_2  and  C_13
    4  A    between atoms: C_3  and  N_4
    5  A    between atoms: C_3  and  C_12
    6  A    between atoms: N_4  and  C_15
    7  A    between atoms: N_4  and  C_22
    8  A    between atoms: C_11  and  C_14
    9  A    between atoms: C_15  and  C_42
   10  A    between atoms: C_19  and  C_37
                            x       y       z     vdW  Elec       q    Type
                         _______ _______ _______ _____ _____    ______ ____

>  <TORSDO>
F 10

$$$$
=
 OpenBabel11062410093D

 43 50  0  0  1  0  0  0  0  0999 V2000
  161.0950  207.3240  153.9290 N   0  0  0  0  0  2  0  0  0  0  0  0
  160.8420  201.8270  148.8220 C   0  0  0  0  0  0  0  0  0  0  0  0
  161.2930  205.7650  151.9590 C   0  0  0  0  0  0  0  0  0  0  0  0
  162.3650  207.9110  150.4530 C   0  0  2  0  0  3  0  0  0  0  0  0
  160.9680  203.2390  150.7870 C   0  0  0  0  0  0  0  0  0  0  0  0
  161.0460  202.9410  148.0030 C   0  0  0  0  0  3  0  0  0  0  0  0
  160.6780  200.5710  148.2550 O   0  0  0  0  0  1  0  0  0  0  0  0
  161.1770  204.3710  149.9640 C   0  0  0  0  0  0  0  0  0  0  0  0
  160.8020  201.9760  150.2110 C   0  0  0  0  0  3  0  0  0  0  0  0
  161.2130  204.2070  148.5710 C   0  0  0  0  0  3  0  0  0  0  0  0
  161.4940  206.8830  149.7210 C   0  0  0  0  0  2  0  0  0  0  0  0
  161.3470  205.6370  150.5560 C   0  0  0  0  0  0  0  0  0  0  0  0
  161.0800  204.6380  152.7590 C   0  0  0  0  0  3  0  0  0  0  0  0
  161.4620  207.1040  152.5620 C   0  0  0  0  0  0  0  0  0  0  0  0
  161.9000  208.0900  151.8330 N   0  0  0  0  0  0  0  0  0  0  0  0
  160.9200  203.3800  152.1750 C   0  0  0  0  0  3  0  0  0  0  0  0
  159.8610  210.7000  154.4790 C   0  0  2  0  0  3  0  0  0  0  0  0
  158.4890  210.1660  154.8500 C   0  0  1  0  0  3  0  0  0  0  0  0
  160.2360  208.6580  155.7660 C   0  0  0  0  0  2  0  0  0  0  0  0
  160.5970  209.6880  153.6190 C   0  0  0  0  0  2  0  0  0  0  0  0
  161.1440  208.6350  154.5590 C   0  0  2  0  0  3  0  0  0  0  0  0
  159.6370  210.0510  155.8340 C   0  0  1  0  0  3  0  0  0  0  0  0
  157.1020  211.0980  156.5360 O   0  0  0  0  0  1  0  0  0  0  0  0
  157.5990  211.3230  155.2540 C   0  0  0  0  0  2  0  0  0  0  0  0
  162.3740  209.2450  149.7100 C   0  0  1  0  0  3  0  0  0  0  0  0
  162.1690  209.0260  148.2200 C   0  0  0  0  0  1  0  0  0  0  0  0
  161.3110  210.1010  150.2180 N   0  0  0  0  0  2  0  0  0  0  0  0
  161.3070  211.5160  150.0270 C   0  0  0  0  0  0  0  0  0  0  0  0
  162.2640  212.0900  149.4400 O   0  0  0  0  0  0  0  0  0  0  0  0
  160.1850  212.3260  150.5730 C   0  0  0  0  0  2  0  0  0  0  0  0
  160.5270  213.7400  150.5230 N   0  0  0  0  0  0  0  0  0  0  0  0
  159.6600  213.3680  148.3100 C   0  0  2  0  0  3  0  0  0  0  0  0
  159.7460  214.3230  149.4420 C   0  0  2  0  0  3  0  0  0  0  0  0
  160.5550  214.4530  148.2940 O   0  0  0  0  0  0  0  0  0  0  0  0
  158.4570  213.6650  147.4160 C   0  0  1  0  0  0  0  0  0  0  0  0
  157.1170  213.7900  148.1040 C   0  0  0  0  0  2  0  0  0  0  0  0
  157.8710  213.3170  145.0910 C   0  0  0  0  0  2  0  0  0  0  0  0
  156.8980  212.5390  145.9560 C   0  0  0  0  0  2  0  0  0  0  0  0
  158.5830  214.2700  146.0260 C   0  0  0  0  0  2  0  0  0  0  0  0
  157.4790  212.5120  147.3580 C   0  0  1  0  0  3  0  0  0  0  0  0
  160.0490  214.3380  151.7630 C   0  0  0  0  0  2  0  0  0  0  0  0
  158.1720  214.3950  153.7700 S   0  0  0  0  0  1  0  0  0  0  0  0
  158.7380  213.6970  152.1910 C   0  0  0  0  0  2  0  0  0  0  0  0
  2  9  1  0  0  0  0
  3 14  1  0  0  0  0
  3 13  1  0  0  0  0
  4 25  1  6  0  0  0
  4 15  1  0  0  0  0
  5 16  1  0  0  0  0
  6 10  1  0  0  0  0
  6  2  2  0  0  0  0
  7  2  1  0  0  0  0
  8 12  1  0  0  0  0
  8  5  1  0  0  0  0
  9  5  2  0  0  0  0
 10  8  2  0  0  0  0
 11  4  1  0  0  0  0
 11 12  1  0  0  0  0
 12  3  2  0  0  0  0
 14  1  1  0  0  0  0
 15 14  2  0  0  0  0
 16 13  2  0  0  0  0
 17 20  1  6  0  0  0
 17 18  1  0  0  0  0
 17 22  1  0  0  0  0
 18 24  1  1  0  0  0
 18 22  1  0  0  0  0
 20 21  1  0  0  0  0
 21  1  1  6  0  0  0
 21 19  1  0  0  0  0
 22 19  1  6  0  0  0
 24 23  1  0  0  0  0
 25 26  1  6  0  0  0
 25 27  1  0  0  0  0
 28 27  1  0  0  0  0
 28 30  1  0  0  0  0
 29 28  2  0  0  0  0
 31 30  1  0  0  0  0
 31 41  1  0  0  0  0
 32 34  1  6  0  0  0
 32 33  1  0  0  0  0
 33 31  1  1  0  0  0
 34 33  1  0  0  0  0
 35 39  1  6  0  0  0
 35 36  1  0  0  0  0
 35 32  1  0  0  0  0
 37 38  1  0  0  0  0
 37 39  1  0  0  0  0
 40 38  1  6  0  0  0
 40 35  1  0  0  0  0
 40 36  1  0  0  0  0
 41 43  1  0  0  0  0
 43 42  1  0  0  0  0
M  END
>  <MODEL>
8

>  <REMARK>
 VINA RESULT:      -5.3      1.986      3.647
  Name = 
  10 active torsions:
  status: ('A' for Active; 'I' for Inactive)
    1  A    between atoms: N_1  and  C_35
    2  A    between atoms: C_2  and  N_6
    3  A    between atoms: C_2  and  C_13
    4  A    between atoms: C_3  and  N_4
    5  A    between atoms: C_3  and  C_12
    6  A    between atoms: N_4  and  C_15
    7  A    between atoms: N_4  and  C_22
    8  A    between atoms: C_11  and  C_14
    9  A    between atoms: C_15  and  C_42
   10  A    between atoms: C_19  and  C_37
                            x       y       z     vdW  Elec       q    Type
                         _______ _______ _______ _____ _____    ______ ____

>  <TORSDO>
F 10

$$$$
=
 OpenBabel11062410093D

 43 50  0  0  1  0  0  0  0  0999 V2000
  159.2710  213.0060  153.6190 N   0  0  0  0  0  2  0  0  0  0  0  0
  162.1960  213.2950  146.7120 C   0  0  0  0  0  0  0  0  0  0  0  0
  160.2800  212.6280  151.3420 C   0  0  0  0  0  0  0  0  0  0  0  0
  160.9220  209.9870  152.1360 C   0  0  2  0  0  3  0  0  0  0  0  0
  160.9430  213.5330  148.7720 C   0  0  0  0  0  0  0  0  0  0  0  0
  162.8010  212.1370  147.2080 C   0  0  0  0  0  3  0  0  0  0  0  0
  162.5170  213.7550  145.4420 O   0  0  0  0  0  1  0  0  0  0  0  0
  161.5500  212.3580  149.2800 C   0  0  0  0  0  0  0  0  0  0  0  0
  161.2710  213.9930  147.4930 C   0  0  0  0  0  3  0  0  0  0  0  0
  162.4800  211.6710  148.4850 C   0  0  0  0  0  3  0  0  0  0  0  0
  161.8840  210.7050  151.1830 C   0  0  0  0  0  2  0  0  0  0  0  0
  161.2090  211.9040  150.5680 C   0  0  0  0  0  0  0  0  0  0  0  0
  159.6930  213.7900  150.8280 C   0  0  0  0  0  3  0  0  0  0  0  0
  159.9430  212.1410  152.6960 C   0  0  0  0  0  0  0  0  0  0  0  0
  160.3020  210.9440  153.0600 N   0  0  0  0  0  0  0  0  0  0  0  0
  160.0220  214.2390  149.5480 C   0  0  0  0  0  3  0  0  0  0  0  0
  157.4990  213.3440  156.7780 C   0  0  2  0  0  3  0  0  0  0  0  0
  156.1640  213.1760  156.0760 C   0  0  1  0  0  3  0  0  0  0  0  0
  157.8350  211.6600  155.0400 C   0  0  0  0  0  2  0  0  0  0  0  0
  158.5450  213.8340  155.7930 C   0  0  0  0  0  2  0  0  0  0  0  0
  158.9940  212.6270  154.9980 C   0  0  2  0  0  3  0  0  0  0  0  0
  157.0540  211.9700  156.3050 C   0  0  1  0  0  3  0  0  0  0  0  0
  154.4850  214.4510  157.1680 O   0  0  0  0  0  1  0  0  0  0  0  0
  155.0560  213.1810  157.1090 C   0  0  0  0  0  2  0  0  0  0  0  0
  161.6420  208.8830  152.9070 C   0  0  1  0  0  3  0  0  0  0  0  0
  160.7970  208.4150  154.0810 C   0  0  0  0  0  1  0  0  0  0  0  0
  161.9010  207.7530  152.0250 N   0  0  0  0  0  2  0  0  0  0  0  0
  162.0160  206.4130  152.5050 C   0  0  0  0  0  0  0  0  0  0  0  0
  161.9400  206.1620  153.7390 O   0  0  0  0  0  0  0  0  0  0  0  0
  162.2790  205.3090  151.5430 C   0  0  0  0  0  2  0  0  0  0  0  0
  161.0930  205.0650  150.7370 N   0  0  0  0  0  0  0  0  0  0  0  0
  160.8290  205.6480  148.4180 C   0  0  2  0  0  3  0  0  0  0  0  0
  161.5550  204.7900  149.3840 C   0  0  2  0  0  3  0  0  0  0  0  0
  160.4830  204.2980  148.6110 O   0  0  0  0  0  0  0  0  0  0  0  0
  161.6090  205.8110  147.1140 C   0  0  1  0  0  0  0  0  0  0  0  0
  161.2590  207.0080  146.2600 C   0  0  0  0  0  2  0  0  0  0  0  0
  162.7960  204.3510  145.5870 C   0  0  0  0  0  2  0  0  0  0  0  0
  161.6380  204.9880  144.8450 C   0  0  0  0  0  2  0  0  0  0  0  0
  162.9560  205.1480  146.8630 C   0  0  0  0  0  2  0  0  0  0  0  0
  160.7400  205.6240  145.8900 C   0  0  1  0  0  3  0  0  0  0  0  0
  160.4830  203.8390  151.2350 C   0  0  0  0  0  2  0  0  0  0  0  0
  160.9800  201.3070  150.2870 S   0  0  0  0  0  1  0  0  0  0  0  0
  161.5120  202.7210  151.2970 C   0  0  0  0  0  2  0  0  0  0  0  0
  2  6  2  0  0  0  0
  2  9  1  0  0  0  0
  3 14  1  0  0  0  0
  4 25  1  1  0  0  0
  4 15  1  0  0  0  0
  5  8  1  0  0  0  0
  5 16  1  0  0  0  0
  6 10  1  0  0  0  0
  7  2  1  0  0  0  0
  8 12  1  0  0  0  0
  9  5  2  0  0  0  0
 10  8  2  0  0  0  0
 11  4  1  0  0  0  0
 12 11  1  0  0  0  0
 12  3  2  0  0  0  0
 13  3  1  0  0  0  0
 14 15  2  0  0  0  0
 14  1  1  0  0  0  0
 16 13  2  0  0  0  0
 17 20  1  6  0  0  0
 18 22  1  0  0  0  0
 18 17  1  0  0  0  0
 18 24  1  1  0  0  0
 21  1  1  6  0  0  0
 21 19  1  0  0  0  0
 21 20  1  0  0  0  0
 22 19  1  6  0  0  0
 22 17  1  0  0  0  0
 24 23  1  0  0  0  0
 25 26  1  1  0  0  0
 27 28  1  0  0  0  0
 27 25  1  0  0  0  0
 28 29  2  0  0  0  0
 30 28  1  0  0  0  0
 31 41  1  0  0  0  0
 31 30  1  0  0  0  0
 32 34  1  6  0  0  0
 32 33  1  0  0  0  0
 33 31  1  1  0  0  0
 34 33  1  0  0  0  0
 35 36  1  6  0  0  0
 35 32  1  0  0  0  0
 37 39  1  0  0  0  0
 38 37  1  0  0  0  0
 39 35  1  0  0  0  0
 40 38  1  6  0  0  0
 40 36  1  0  0  0  0
 40 35  1  0  0  0  0
 41 43  1  0  0  0  0
 42 43  1  0  0  0  0
M  END
>  <MODEL>
9

>  <REMARK>
 VINA RESULT:      -5.3      3.186      8.764
  Name = 
  10 active torsions:
  status: ('A' for Active; 'I' for Inactive)
    1  A    between atoms: N_1  and  C_35
    2  A    between atoms: C_2  and  N_6
    3  A    between atoms: C_2  and  C_13
    4  A    between atoms: C_3  and  N_4
    5  A    between atoms: C_3  and  C_12
    6  A    between atoms: N_4  and  C_15
    7  A    between atoms: N_4  and  C_22
    8  A    between atoms: C_11  and  C_14
    9  A    between atoms: C_15  and  C_42
   10  A    between atoms: C_19  and  C_37
                            x       y       z     vdW  Elec       q    Type
                         _______ _______ _______ _____ _____    ______ ____

>  <TORSDO>
F 10

$$$$
