=
 OpenBabel11052421523D

 30 33  0  0  1  0  0  0  0  0999 V2000
  161.4540  209.3940  151.6820 C   0  0  1  0  0  3  0  0  0  0  0  0
  160.4910  208.1730  151.6400 C   0  0  0  0  0  2  0  0  0  0  0  0
  162.0680  209.6870  152.9340 O   0  0  0  0  0  0  0  0  0  0  0  0
  160.6650  207.1440  155.4750 S   0  0  0  0  0  0  0  0  0  0  0  0
  161.4520  207.6630  153.9570 C   0  0  2  0  0  3  0  0  0  0  0  0
  161.7490  209.6060  155.2240 O   0  0  0  0  0  0  0  0  0  0  0  0
  161.3040  209.1510  153.9800 C   0  0  1  0  0  3  0  0  0  0  0  0
  160.7820  207.0890  152.7040 C   0  0  2  0  0  3  0  0  0  0  0  0
  159.9670  209.4340  156.8290 C   0  0  0  0  0  1  0  0  0  0  0  0
  161.1640  208.7560  156.1880 C   0  0  1  0  0  3  0  0  0  0  0  0
  161.4310  204.7860  153.0240 O   0  0  0  0  0  0  0  0  0  0  0  0
  160.4880  204.0140  151.2110 C   0  0  1  0  0  3  0  0  0  0  0  0
  160.4110  204.0340  152.6080 O   0  0  0  0  0  0  0  0  0  0  0  0
  160.8740  205.4170  150.8470 C   0  0  1  0  0  3  0  0  0  0  0  0
  163.0290  206.1920  151.9650 C   0  0  0  0  0  1  0  0  0  0  0  0
  161.5410  205.8740  152.1330 C   0  0  1  0  0  0  0  0  0  0  0  0
  161.4600  203.0870  150.8120 O   0  0  0  0  0  0  0  0  0  0  0  0
  160.7390  202.0410  150.2370 C   0  0  0  0  0  1  0  0  0  0  0  0
  161.6850  205.5490  149.5490 C   0  0  0  0  0  2  0  0  0  0  0  0
  160.8100  205.3150  148.3260 C   0  0  0  0  0  2  0  0  0  0  0  0
  161.5260  204.4320  147.3200 C   0  0  0  0  0  1  0  0  0  0  0  0
  162.4540  209.2330  150.7050 O   0  0  0  0  0  0  0  0  0  0  0  0
  161.9780  209.7090  149.4600 C   0  0  2  0  0  3  0  0  0  0  0  0
  162.2310  208.7360  148.3140 C   0  0  0  0  0  1  0  0  0  0  0  0
  162.4440  211.1240  149.1210 C   0  0  0  0  0  2  0  0  0  0  0  0
  161.5980  211.7110  148.0060 C   0  0  1  0  0  3  0  0  0  0  0  0
  161.1660  213.0530  148.3720 C   0  0  0  0  0  2  0  0  0  0  0  0
  162.2870  212.8790  147.4360 N   0  0  0  0  0  0  0  0  0  0  0  0
  162.7920  213.2400  145.1960 O   0  0  0  0  0  1  0  0  0  0  0  0
  161.7470  213.0630  146.1020 C   0  0  0  0  0  2  0  0  0  0  0  0
  1 22  1  6  0  0  0
  1  3  1  0  0  0  0
  2  1  1  0  0  0  0
  4 10  1  0  0  0  0
  5  7  1  0  0  0  0
  5  4  1  1  0  0  0
  6 10  1  0  0  0  0
  7  3  1  6  0  0  0
  7  6  1  0  0  0  0
  8  2  1  6  0  0  0
  8  5  1  0  0  0  0
 10  9  1  6  0  0  0
 12 17  1  1  0  0  0
 12 13  1  0  0  0  0
 13 11  1  0  0  0  0
 14 19  1  6  0  0  0
 14 12  1  0  0  0  0
 14 16  1  0  0  0  0
 16 15  1  6  0  0  0
 16  8  1  0  0  0  0
 16 11  1  0  0  0  0
 18 17  1  0  0  0  0
 20 19  1  0  0  0  0
 21 20  1  0  0  0  0
 23 24  1  6  0  0  0
 23 22  1  0  0  0  0
 25 23  1  0  0  0  0
 26 27  1  0  0  0  0
 26 25  1  1  0  0  0
 28 26  1  0  0  0  0
 28 27  1  0  0  0  0
 29 30  1  0  0  0  0
 30 28  1  0  0  0  0
M  END
>  <MODEL>
1

>  <REMARK>
 VINA RESULT:      -6.3      0.000      0.000
  Name = 
  9 active torsions:
  status: ('A' for Active; 'I' for Inactive)
    1  A    between atoms: C_1  and  O_22
    2  A    between atoms: C_2  and  C_14
    3  A    between atoms: C_2  and  O_22
    4  A    between atoms: C_10  and  O_15
    5  A    between atoms: C_11  and  C_25
    6  A    between atoms: C_13  and  C_30
    7  A    between atoms: C_14  and  C_20
    8  A    between atoms: C_19  and  N_29
    9  A    between atoms: C_23  and  C_25
                            x       y       z     vdW  Elec       q    Type
                         _______ _______ _______ _____ _____    ______ ____

>  <TORSDO>
F 9

$$$$
=
 OpenBabel11052421523D

 30 33  0  0  1  0  0  0  0  0999 V2000
  161.5460  206.9430  148.5110 C   0  0  1  0  0  3  0  0  0  0  0  0
  160.6070  207.1600  149.7320 C   0  0  0  0  0  2  0  0  0  0  0  0
  162.3950  208.0300  148.1500 O   0  0  0  0  0  0  0  0  0  0  0  0
  161.5550  210.9320  150.5500 S   0  0  0  0  0  0  0  0  0  0  0  0
  162.0170  209.2620  150.1150 C   0  0  2  0  0  3  0  0  0  0  0  0
  162.5420  210.3390  148.1060 O   0  0  0  0  0  0  0  0  0  0  0  0
  161.8610  209.2350  148.6280 C   0  0  1  0  0  3  0  0  0  0  0  0
  161.1160  208.2000  150.7560 C   0  0  2  0  0  3  0  0  0  0  0  0
  161.1190  212.2740  148.1910 C   0  0  0  0  0  1  0  0  0  0  0  0
  162.1710  211.4440  148.9030 C   0  0  1  0  0  3  0  0  0  0  0  0
  161.9350  208.5320  153.0030 O   0  0  0  0  0  0  0  0  0  0  0  0
  160.5920  207.1010  153.9630 C   0  0  1  0  0  3  0  0  0  0  0  0
  160.8790  208.4630  153.8150 O   0  0  0  0  0  0  0  0  0  0  0  0
  160.8030  206.5320  152.5920 C   0  0  1  0  0  3  0  0  0  0  0  0
  163.1350  206.9760  151.6640 C   0  0  0  0  0  1  0  0  0  0  0  0
  161.7580  207.5550  152.0010 C   0  0  1  0  0  0  0  0  0  0  0  0
  161.4710  206.5400  154.9000 O   0  0  0  0  0  0  0  0  0  0  0  0
  161.1820  207.1970  156.0960 C   0  0  0  0  0  1  0  0  0  0  0  0
  161.2430  205.0600  152.5620 C   0  0  0  0  0  2  0  0  0  0  0  0
  160.3910  204.2490  151.5970 C   0  0  0  0  0  2  0  0  0  0  0  0
  160.8490  202.8030  151.5690 C   0  0  0  0  0  1  0  0  0  0  0  0
  162.3320  205.7960  148.7240 O   0  0  0  0  0  0  0  0  0  0  0  0
  162.0300  204.8260  147.7390 C   0  0  2  0  0  3  0  0  0  0  0  0
  161.3800  205.4200  146.4950 C   0  0  0  0  0  1  0  0  0  0  0  0
  161.2490  203.6260  148.2740 C   0  0  0  0  0  2  0  0  0  0  0  0
  161.5810  202.3770  147.4790 C   0  0  1  0  0  3  0  0  0  0  0  0
  161.0810  201.2020  148.1800 C   0  0  0  0  0  2  0  0  0  0  0  0
  160.3340  201.7380  147.0320 N   0  0  0  0  0  0  0  0  0  0  0  0
  159.9120  201.2950  144.7890 O   0  0  0  0  0  1  0  0  0  0  0  0
  160.6820  200.9150  145.8890 C   0  0  0  0  0  2  0  0  0  0  0  0
  1 22  1  1  0  0  0
  1  2  1  0  0  0  0
  3  1  1  0  0  0  0
  3  7  1  0  0  0  0
  5  4  1  1  0  0  0
  5  8  1  0  0  0  0
  6 10  1  0  0  0  0
  7  6  1  6  0  0  0
  7  5  1  0  0  0  0
  8  2  1  6  0  0  0
  8 16  1  0  0  0  0
 10  9  1  6  0  0  0
 10  4  1  0  0  0  0
 11 13  1  0  0  0  0
 12 17  1  1  0  0  0
 13 12  1  0  0  0  0
 14 19  1  1  0  0  0
 14 12  1  0  0  0  0
 16 15  1  6  0  0  0
 16 14  1  0  0  0  0
 16 11  1  0  0  0  0
 17 18  1  0  0  0  0
 20 19  1  0  0  0  0
 21 20  1  0  0  0  0
 23 24  1  6  0  0  0
 23 25  1  0  0  0  0
 23 22  1  0  0  0  0
 26 27  1  0  0  0  0
 26 25  1  1  0  0  0
 28 26  1  0  0  0  0
 28 27  1  0  0  0  0
 29 30  1  0  0  0  0
 30 28  1  0  0  0  0
M  END
>  <MODEL>
2

>  <REMARK>
 VINA RESULT:      -5.2      3.145      6.582
  Name = 
  9 active torsions:
  status: ('A' for Active; 'I' for Inactive)
    1  A    between atoms: C_1  and  O_22
    2  A    between atoms: C_2  and  C_14
    3  A    between atoms: C_2  and  O_22
    4  A    between atoms: C_10  and  O_15
    5  A    between atoms: C_11  and  C_25
    6  A    between atoms: C_13  and  C_30
    7  A    between atoms: C_14  and  C_20
    8  A    between atoms: C_19  and  N_29
    9  A    between atoms: C_23  and  C_25
                            x       y       z     vdW  Elec       q    Type
                         _______ _______ _______ _____ _____    ______ ____

>  <TORSDO>
F 9

$$$$
=
 OpenBabel11052421523D

 30 33  0  0  1  0  0  0  0  0999 V2000
  161.3940  207.9100  151.0200 C   0  0  1  0  0  3  0  0  0  0  0  0
  160.2870  208.7250  151.7490 C   0  0  0  0  0  2  0  0  0  0  0  0
  162.3130  208.6470  150.2190 O   0  0  0  0  0  0  0  0  0  0  0  0
  161.1920  212.3360  150.3590 S   0  0  0  0  0  0  0  0  0  0  0  0
  161.6730  210.7550  151.0370 C   0  0  2  0  0  3  0  0  0  0  0  0
  162.5210  210.5150  148.8700 O   0  0  0  0  0  0  0  0  0  0  0  0
  161.7430  209.8690  149.8340 C   0  0  1  0  0  3  0  0  0  0  0  0
  160.6610  210.1960  152.0420 C   0  0  2  0  0  3  0  0  0  0  0  0
  161.1480  212.0470  147.6250 C   0  0  0  0  0  1  0  0  0  0  0  0
  162.0600  211.8490  148.8220 C   0  0  1  0  0  3  0  0  0  0  0  0
  160.7810  211.7500  153.8860 O   0  0  0  0  0  0  0  0  0  0  0  0
  159.5970  210.5590  155.2830 C   0  0  1  0  0  3  0  0  0  0  0  0
  159.5970  211.7170  154.4990 O   0  0  0  0  0  0  0  0  0  0  0  0
  160.2740  209.5350  154.4220 C   0  0  1  0  0  3  0  0  0  0  0  0
  162.6030  210.2390  153.6620 C   0  0  0  0  0  1  0  0  0  0  0  0
  161.0920  210.4280  153.5040 C   0  0  1  0  0  0  0  0  0  0  0  0
  160.3100  210.7980  156.4660 O   0  0  0  0  0  0  0  0  0  0  0  0
  159.5270  211.7090  157.1750 C   0  0  0  0  0  1  0  0  0  0  0  0
  161.0280  208.4390  155.1910 C   0  0  0  0  0  2  0  0  0  0  0  0
  160.0680  207.4110  155.7700 C   0  0  0  0  0  2  0  0  0  0  0  0
  160.3110  207.2320  157.2570 C   0  0  0  0  0  1  0  0  0  0  0  0
  162.1100  207.1500  151.9630 O   0  0  0  0  0  0  0  0  0  0  0  0
  161.4850  205.8910  152.1280 C   0  0  2  0  0  3  0  0  0  0  0  0
  161.4920  205.4060  153.5730 C   0  0  0  0  0  1  0  0  0  0  0  0
  161.9920  204.8200  151.1630 C   0  0  0  0  0  2  0  0  0  0  0  0
  160.8310  204.1680  150.4330 C   0  0  1  0  0  3  0  0  0  0  0  0
  160.9580  204.4030  149.0020 C   0  0  0  0  0  2  0  0  0  0  0  0
  161.3430  203.0990  149.5630 N   0  0  0  0  0  0  0  0  0  0  0  0
  160.5390  200.9330  149.8230 O   0  0  0  0  0  1  0  0  0  0  0  0
  160.2310  202.1980  149.3230 C   0  0  0  0  0  2  0  0  0  0  0  0
  1  2  1  0  0  0  0
  1 22  1  1  0  0  0
  3  1  1  0  0  0  0
  5  4  1  6  0  0  0
  5  8  1  0  0  0  0
  7  6  1  6  0  0  0
  7  3  1  0  0  0  0
  7  5  1  0  0  0  0
  8  2  1  6  0  0  0
  8 16  1  0  0  0  0
 10  9  1  6  0  0  0
 10  6  1  0  0  0  0
 10  4  1  0  0  0  0
 11 13  1  0  0  0  0
 12 17  1  1  0  0  0
 13 12  1  0  0  0  0
 14 19  1  1  0  0  0
 14 12  1  0  0  0  0
 16 15  1  1  0  0  0
 16 11  1  0  0  0  0
 16 14  1  0  0  0  0
 17 18  1  0  0  0  0
 19 20  1  0  0  0  0
 20 21  1  0  0  0  0
 22 23  1  0  0  0  0
 23 24  1  1  0  0  0
 25 23  1  0  0  0  0
 26 25  1  1  0  0  0
 27 28  1  0  0  0  0
 27 26  1  0  0  0  0
 28 26  1  0  0  0  0
 30 28  1  0  0  0  0
 30 29  1  0  0  0  0
M  END
>  <MODEL>
3

>  <REMARK>
 VINA RESULT:      -4.9      2.889      7.440
  Name = 
  9 active torsions:
  status: ('A' for Active; 'I' for Inactive)
    1  A    between atoms: C_1  and  O_22
    2  A    between atoms: C_2  and  C_14
    3  A    between atoms: C_2  and  O_22
    4  A    between atoms: C_10  and  O_15
    5  A    between atoms: C_11  and  C_25
    6  A    between atoms: C_13  and  C_30
    7  A    between atoms: C_14  and  C_20
    8  A    between atoms: C_19  and  N_29
    9  A    between atoms: C_23  and  C_25
                            x       y       z     vdW  Elec       q    Type
                         _______ _______ _______ _____ _____    ______ ____

>  <TORSDO>
F 9

$$$$
=
 OpenBabel11052421523D

 30 33  0  0  1  0  0  0  0  0999 V2000
  161.5970  209.1180  152.5610 C   0  0  1  0  0  3  0  0  0  0  0  0
  161.9560  210.3130  153.4910 C   0  0  0  0  0  2  0  0  0  0  0  0
  160.7410  208.1150  153.1030 O   0  0  0  0  0  0  0  0  0  0  0  0
  160.0370  209.1200  156.7610 S   0  0  0  0  0  0  0  0  0  0  0  0
  160.1130  209.3630  154.9930 C   0  0  2  0  0  3  0  0  0  0  0  0
  160.1620  207.0250  155.0590 O   0  0  0  0  0  0  0  0  0  0  0  0
  160.8080  208.1320  154.5030 C   0  0  1  0  0  3  0  0  0  0  0  0
  160.9070  210.6100  154.5880 C   0  0  2  0  0  3  0  0  0  0  0  0
  161.0340  206.6060  157.2600 C   0  0  0  0  0  1  0  0  0  0  0  0
  159.9830  207.3200  156.4290 C   0  0  1  0  0  3  0  0  0  0  0  0
  160.4110  212.3790  153.0240 O   0  0  0  0  0  0  0  0  0  0  0  0
  158.3700  211.7430  152.5770 C   0  0  1  0  0  3  0  0  0  0  0  0
  159.6650  211.8450  152.0570 O   0  0  0  0  0  0  0  0  0  0  0  0
  158.5800  211.3070  153.9970 C   0  0  1  0  0  3  0  0  0  0  0  0
  160.0800  212.8840  155.3230 C   0  0  0  0  0  1  0  0  0  0  0  0
  159.9950  211.8030  154.2420 C   0  0  1  0  0  0  0  0  0  0  0  0
  157.7400  212.9920  152.5050 O   0  0  0  0  0  0  0  0  0  0  0  0
  157.8390  213.3640  151.1640 C   0  0  0  0  0  1  0  0  0  0  0  0
  157.4940  211.7640  154.9820 C   0  0  0  0  0  2  0  0  0  0  0  0
  156.3310  210.7840  155.0140 C   0  0  0  0  0  2  0  0  0  0  0  0
  155.3960  211.1040  156.1660 C   0  0  0  0  0  1  0  0  0  0  0  0
  161.0350  209.6080  151.3680 O   0  0  0  0  0  0  0  0  0  0  0  0
  162.0230  209.6350  150.3560 C   0  0  2  0  0  3  0  0  0  0  0  0
  162.0680  210.9580  149.6000 C   0  0  0  0  0  1  0  0  0  0  0  0
  161.9690  208.4370  149.4090 C   0  0  0  0  0  2  0  0  0  0  0  0
  160.9670  207.4100  149.9050 C   0  0  1  0  0  3  0  0  0  0  0  0
  160.6320  206.4910  148.8250 C   0  0  0  0  0  2  0  0  0  0  0  0
  161.5810  206.0750  149.8690 N   0  0  0  0  0  0  0  0  0  0  0  0
  161.5820  205.0830  151.9720 O   0  0  0  0  0  1  0  0  0  0  0  0
  160.8360  205.2550  150.8060 C   0  0  0  0  0  2  0  0  0  0  0  0
  1 22  1  6  0  0  0
  1  3  1  0  0  0  0
  1  2  1  0  0  0  0
  5  4  1  1  0  0  0
  6 10  1  0  0  0  0
  7  3  1  6  0  0  0
  7  5  1  0  0  0  0
  7  6  1  0  0  0  0
  8  2  1  6  0  0  0
  8  5  1  0  0  0  0
 10  4  1  0  0  0  0
 10  9  1  1  0  0  0
 11 16  1  0  0  0  0
 12 17  1  1  0  0  0
 12 14  1  0  0  0  0
 13 12  1  0  0  0  0
 13 11  1  0  0  0  0
 14 16  1  0  0  0  0
 14 19  1  1  0  0  0
 16  8  1  0  0  0  0
 16 15  1  1  0  0  0
 18 17  1  0  0  0  0
 19 20  1  0  0  0  0
 20 21  1  0  0  0  0
 23 24  1  6  0  0  0
 23 22  1  0  0  0  0
 25 23  1  0  0  0  0
 26 25  1  6  0  0  0
 27 28  1  0  0  0  0
 27 26  1  0  0  0  0
 28 26  1  0  0  0  0
 28 30  1  0  0  0  0
 30 29  1  0  0  0  0
M  END
>  <MODEL>
4

>  <REMARK>
 VINA RESULT:      -4.8      3.058      6.676
  Name = 
  9 active torsions:
  status: ('A' for Active; 'I' for Inactive)
    1  A    between atoms: C_1  and  O_22
    2  A    between atoms: C_2  and  C_14
    3  A    between atoms: C_2  and  O_22
    4  A    between atoms: C_10  and  O_15
    5  A    between atoms: C_11  and  C_25
    6  A    between atoms: C_13  and  C_30
    7  A    between atoms: C_14  and  C_20
    8  A    between atoms: C_19  and  N_29
    9  A    between atoms: C_23  and  C_25
                            x       y       z     vdW  Elec       q    Type
                         _______ _______ _______ _____ _____    ______ ____

>  <TORSDO>
F 9

$$$$
=
 OpenBabel11052421523D

 30 33  0  0  1  0  0  0  0  0999 V2000
  161.5570  209.0000  152.2860 C   0  0  1  0  0  3  0  0  0  0  0  0
  161.7050  210.3450  153.0540 C   0  0  0  0  0  2  0  0  0  0  0  0
  160.8020  207.9730  152.9240 O   0  0  0  0  0  0  0  0  0  0  0  0
  159.7540  209.3530  156.3720 S   0  0  0  0  0  0  0  0  0  0  0  0
  159.9080  209.3670  154.5920 C   0  0  2  0  0  3  0  0  0  0  0  0
  160.2450  207.0860  154.9870 O   0  0  0  0  0  0  0  0  0  0  0  0
  160.7810  208.1850  154.3100 C   0  0  1  0  0  3  0  0  0  0  0  0
  160.5620  210.6430  154.0520 C   0  0  2  0  0  3  0  0  0  0  0  0
  161.0270  207.0830  157.2610 C   0  0  0  0  0  1  0  0  0  0  0  0
  159.9480  207.5330  156.2930 C   0  0  1  0  0  3  0  0  0  0  0  0
  158.4330  210.9490  152.9570 O   0  0  0  0  0  0  0  0  0  0  0  0
  157.5070  212.1190  154.5520 C   0  0  1  0  0  3  0  0  0  0  0  0
  157.4960  210.8800  153.9030 O   0  0  0  0  0  0  0  0  0  0  0  0
  158.9620  212.4690  154.6490 C   0  0  1  0  0  3  0  0  0  0  0  0
  160.1420  212.5030  152.3900 C   0  0  0  0  0  1  0  0  0  0  0  0
  159.5300  211.6480  153.5030 C   0  0  1  0  0  0  0  0  0  0  0  0
  156.7980  213.0520  153.7840 O   0  0  0  0  0  0  0  0  0  0  0  0
  155.6980  213.3980  154.5690 C   0  0  0  0  0  1  0  0  0  0  0  0
  159.2670  213.9750  154.6540 C   0  0  0  0  0  2  0  0  0  0  0  0
  159.6630  214.4520  156.0430 C   0  0  0  0  0  2  0  0  0  0  0  0
  160.0840  213.2780  156.9100 C   0  0  0  0  0  1  0  0  0  0  0  0
  161.0120  209.2480  151.0130 O   0  0  0  0  0  0  0  0  0  0  0  0
  162.0460  209.2470  150.0470 C   0  0  2  0  0  3  0  0  0  0  0  0
  162.0690  210.5110  149.1950 C   0  0  0  0  0  1  0  0  0  0  0  0
  162.0920  207.9810  149.1930 C   0  0  0  0  0  2  0  0  0  0  0  0
  160.9750  207.0310  149.5870 C   0  0  1  0  0  3  0  0  0  0  0  0
  160.5870  206.2270  148.4370 C   0  0  0  0  0  2  0  0  0  0  0  0
  161.4530  205.6450  149.4730 N   0  0  0  0  0  0  0  0  0  0  0  0
  161.3640  203.8870  150.9910 O   0  0  0  0  0  1  0  0  0  0  0  0
  160.5970  204.8450  150.3290 C   0  0  0  0  0  2  0  0  0  0  0  0
  1 22  1  6  0  0  0
  1  3  1  0  0  0  0
  1  2  1  0  0  0  0
  5  4  1  1  0  0  0
  6 10  1  0  0  0  0
  7  3  1  6  0  0  0
  7  5  1  0  0  0  0
  7  6  1  0  0  0  0
  8  2  1  6  0  0  0
  8  5  1  0  0  0  0
 10  4  1  0  0  0  0
 10  9  1  1  0  0  0
 11 16  1  0  0  0  0
 11 13  1  0  0  0  0
 12 17  1  6  0  0  0
 12 14  1  0  0  0  0
 13 12  1  0  0  0  0
 14 19  1  6  0  0  0
 16 15  1  6  0  0  0
 16  8  1  0  0  0  0
 16 14  1  0  0  0  0
 17 18  1  0  0  0  0
 19 20  1  0  0  0  0
 20 21  1  0  0  0  0
 23 24  1  6  0  0  0
 23 22  1  0  0  0  0
 25 23  1  0  0  0  0
 26 25  1  6  0  0  0
 27 28  1  0  0  0  0
 27 26  1  0  0  0  0
 28 26  1  0  0  0  0
 28 30  1  0  0  0  0
 30 29  1  0  0  0  0
M  END
>  <MODEL>
5

>  <REMARK>
 VINA RESULT:      -4.7      3.355      7.031
  Name = 
  9 active torsions:
  status: ('A' for Active; 'I' for Inactive)
    1  A    between atoms: C_1  and  O_22
    2  A    between atoms: C_2  and  C_14
    3  A    between atoms: C_2  and  O_22
    4  A    between atoms: C_10  and  O_15
    5  A    between atoms: C_11  and  C_25
    6  A    between atoms: C_13  and  C_30
    7  A    between atoms: C_14  and  C_20
    8  A    between atoms: C_19  and  N_29
    9  A    between atoms: C_23  and  C_25
                            x       y       z     vdW  Elec       q    Type
                         _______ _______ _______ _____ _____    ______ ____

>  <TORSDO>
F 9

$$$$
=
 OpenBabel11052421523D

 30 33  0  0  1  0  0  0  0  0999 V2000
  161.2470  206.7080  149.7790 C   0  0  1  0  0  3  0  0  0  0  0  0
  160.3980  207.3800  150.8970 C   0  0  0  0  0  2  0  0  0  0  0  0
  162.1480  207.5480  149.0620 O   0  0  0  0  0  0  0  0  0  0  0  0
  161.6570  211.1210  150.4340 S   0  0  0  0  0  0  0  0  0  0  0  0
  161.9730  209.3660  150.5420 C   0  0  2  0  0  3  0  0  0  0  0  0
  162.4550  209.7030  148.2780 O   0  0  0  0  0  0  0  0  0  0  0  0
  161.7290  208.8840  149.1470 C   0  0  1  0  0  3  0  0  0  0  0  0
  161.0380  208.6430  151.5170 C   0  0  2  0  0  3  0  0  0  0  0  0
  161.1800  211.6800  147.7850 C   0  0  0  0  0  1  0  0  0  0  0  0
  162.2100  211.0310  148.6900 C   0  0  1  0  0  3  0  0  0  0  0  0
  162.6220  209.4030  153.1730 O   0  0  0  0  0  0  0  0  0  0  0  0
  161.1960  209.5540  154.8210 C   0  0  1  0  0  3  0  0  0  0  0  0
  161.9880  210.2940  153.9360 O   0  0  0  0  0  0  0  0  0  0  0  0
  160.6560  208.4360  153.9790 C   0  0  1  0  0  3  0  0  0  0  0  0
  162.4760  207.0500  152.8560 C   0  0  0  0  0  1  0  0  0  0  0  0
  161.7040  208.3720  152.8810 C   0  0  1  0  0  0  0  0  0  0  0  0
  161.9910  209.0770  155.8710 O   0  0  0  0  0  0  0  0  0  0  0  0
  162.0800  210.1450  156.7630 C   0  0  0  0  0  1  0  0  0  0  0  0
  160.3580  207.1360  154.7430 C   0  0  0  0  0  2  0  0  0  0  0  0
  159.4540  207.3950  155.9390 C   0  0  0  0  0  2  0  0  0  0  0  0
  160.1010  206.8870  157.2150 C   0  0  0  0  0  1  0  0  0  0  0  0
  161.9600  205.6250  150.3230 O   0  0  0  0  0  0  0  0  0  0  0  0
  161.0660  204.5660  150.6110 C   0  0  2  0  0  3  0  0  0  0  0  0
  161.5950  203.6080  151.6710 C   0  0  0  0  0  1  0  0  0  0  0  0
  160.5660  203.8270  149.3710 C   0  0  0  0  0  2  0  0  0  0  0  0
  161.6680  203.7200  148.3320 C   0  0  1  0  0  3  0  0  0  0  0  0
  161.3480  202.6630  147.3830 C   0  0  0  0  0  2  0  0  0  0  0  0
  161.1270  204.0680  147.0100 N   0  0  0  0  0  0  0  0  0  0  0  0
  162.5630  205.8050  146.4390 O   0  0  0  0  0  1  0  0  0  0  0  0
  162.2600  204.4650  146.1950 C   0  0  0  0  0  2  0  0  0  0  0  0
  1 22  1  1  0  0  0
  1  2  1  0  0  0  0
  3  7  1  0  0  0  0
  3  1  1  0  0  0  0
  5  4  1  6  0  0  0
  5  8  1  0  0  0  0
  6 10  1  0  0  0  0
  7  6  1  6  0  0  0
  7  5  1  0  0  0  0
  8  2  1  6  0  0  0
  8 16  1  0  0  0  0
 10  9  1  6  0  0  0
 10  4  1  0  0  0  0
 11 13  1  0  0  0  0
 12 17  1  1  0  0  0
 13 12  1  0  0  0  0
 14 19  1  1  0  0  0
 14 12  1  0  0  0  0
 16 15  1  6  0  0  0
 16 11  1  0  0  0  0
 16 14  1  0  0  0  0
 17 18  1  0  0  0  0
 19 20  1  0  0  0  0
 20 21  1  0  0  0  0
 22 23  1  0  0  0  0
 23 24  1  1  0  0  0
 25 23  1  0  0  0  0
 26 25  1  1  0  0  0
 27 26  1  0  0  0  0
 28 27  1  0  0  0  0
 28 26  1  0  0  0  0
 30 29  1  0  0  0  0
 30 28  1  0  0  0  0
M  END
>  <MODEL>
6

>  <REMARK>
 VINA RESULT:      -4.7      2.680      6.701
  Name = 
  9 active torsions:
  status: ('A' for Active; 'I' for Inactive)
    1  A    between atoms: C_1  and  O_22
    2  A    between atoms: C_2  and  C_14
    3  A    between atoms: C_2  and  O_22
    4  A    between atoms: C_10  and  O_15
    5  A    between atoms: C_11  and  C_25
    6  A    between atoms: C_13  and  C_30
    7  A    between atoms: C_14  and  C_20
    8  A    between atoms: C_19  and  N_29
    9  A    between atoms: C_23  and  C_25
                            x       y       z     vdW  Elec       q    Type
                         _______ _______ _______ _____ _____    ______ ____

>  <TORSDO>
F 9

$$$$
=
 OpenBabel11052421523D

 30 33  0  0  1  0  0  0  0  0999 V2000
  161.7880  204.9900  151.9860 C   0  0  1  0  0  3  0  0  0  0  0  0
  162.6690  206.1990  151.5590 C   0  0  0  0  0  2  0  0  0  0  0  0
  160.8350  205.2210  153.0200 O   0  0  0  0  0  0  0  0  0  0  0  0
  161.2990  208.8800  154.1530 S   0  0  0  0  0  0  0  0  0  0  0  0
  161.0320  207.5620  152.9760 C   0  0  2  0  0  3  0  0  0  0  0  0
  160.4400  206.4440  154.9440 O   0  0  0  0  0  0  0  0  0  0  0  0
  161.2240  206.3240  153.7930 C   0  0  1  0  0  3  0  0  0  0  0  0
  162.0270  207.5820  151.8110 C   0  0  2  0  0  3  0  0  0  0  0  0
  161.6430  207.6930  156.6090 C   0  0  0  0  0  1  0  0  0  0  0  0
  160.6710  207.7440  155.4450 C   0  0  1  0  0  3  0  0  0  0  0  0
  160.7930  209.4260  150.8610 O   0  0  0  0  0  0  0  0  0  0  0  0
  162.3450  210.0590  149.4600 C   0  0  1  0  0  3  0  0  0  0  0  0
  161.6690  210.4050  150.6360 O   0  0  0  0  0  0  0  0  0  0  0  0
  162.5500  208.5780  149.5790 C   0  0  1  0  0  3  0  0  0  0  0  0
  160.3810  207.2840  149.9140 C   0  0  0  0  0  1  0  0  0  0  0  0
  161.4290  208.2100  150.5360 C   0  0  1  0  0  0  0  0  0  0  0  0
  161.5500  210.3870  148.3540 O   0  0  0  0  0  0  0  0  0  0  0  0
  161.8360  211.7270  148.0940 C   0  0  0  0  0  1  0  0  0  0  0  0
  162.6100  207.8230  148.2420 C   0  0  0  0  0  2  0  0  0  0  0  0
  162.5960  206.3180  148.4580 C   0  0  0  0  0  2  0  0  0  0  0  0
  162.1700  205.6020  147.1890 C   0  0  0  0  0  1  0  0  0  0  0  0
  161.1260  204.4730  150.8570 O   0  0  0  0  0  0  0  0  0  0  0  0
  160.7980  203.1150  151.0820 C   0  0  2  0  0  3  0  0  0  0  0  0
  161.9660  202.2990  151.6230 C   0  0  0  0  0  1  0  0  0  0  0  0
  160.1310  202.4360  149.8860 C   0  0  0  0  0  2  0  0  0  0  0  0
  161.1040  202.3230  148.7270 C   0  0  1  0  0  3  0  0  0  0  0  0
  161.3170  200.9190  148.4000 C   0  0  0  0  0  2  0  0  0  0  0  0
  160.4150  201.7320  147.5690 N   0  0  0  0  0  0  0  0  0  0  0  0
  160.3650  202.0250  145.2640 O   0  0  0  0  0  1  0  0  0  0  0  0
  161.1730  202.1260  146.3960 C   0  0  0  0  0  2  0  0  0  0  0  0
  1 22  1  6  0  0  0
  1  3  1  0  0  0  0
  2  1  1  0  0  0  0
  4 10  1  0  0  0  0
  5  7  1  0  0  0  0
  5  4  1  1  0  0  0
  6 10  1  0  0  0  0
  7  3  1  6  0  0  0
  7  6  1  0  0  0  0
  8  2  1  6  0  0  0
  8  5  1  0  0  0  0
 10  9  1  1  0  0  0
 12 17  1  6  0  0  0
 12 14  1  0  0  0  0
 12 13  1  0  0  0  0
 13 11  1  0  0  0  0
 14 19  1  6  0  0  0
 14 16  1  0  0  0  0
 16 15  1  6  0  0  0
 16 11  1  0  0  0  0
 16  8  1  0  0  0  0
 18 17  1  0  0  0  0
 19 20  1  0  0  0  0
 21 20  1  0  0  0  0
 22 23  1  0  0  0  0
 23 24  1  6  0  0  0
 25 23  1  0  0  0  0
 26 25  1  1  0  0  0
 27 26  1  0  0  0  0
 28 27  1  0  0  0  0
 28 26  1  0  0  0  0
 29 30  1  0  0  0  0
 30 28  1  0  0  0  0
M  END
>  <MODEL>
7

>  <REMARK>
 VINA RESULT:      -4.6      2.768      6.405
  Name = 
  9 active torsions:
  status: ('A' for Active; 'I' for Inactive)
    1  A    between atoms: C_1  and  O_22
    2  A    between atoms: C_2  and  C_14
    3  A    between atoms: C_2  and  O_22
    4  A    between atoms: C_10  and  O_15
    5  A    between atoms: C_11  and  C_25
    6  A    between atoms: C_13  and  C_30
    7  A    between atoms: C_14  and  C_20
    8  A    between atoms: C_19  and  N_29
    9  A    between atoms: C_23  and  C_25
                            x       y       z     vdW  Elec       q    Type
                         _______ _______ _______ _____ _____    ______ ____

>  <TORSDO>
F 9

$$$$
=
 OpenBabel11052421523D

 30 33  0  0  1  0  0  0  0  0999 V2000
  161.1880  209.0060  151.4640 C   0  0  1  0  0  3  0  0  0  0  0  0
  160.0880  208.8070  152.5460 C   0  0  0  0  0  2  0  0  0  0  0  0
  161.5200  210.3490  151.1220 O   0  0  0  0  0  0  0  0  0  0  0  0
  159.1760  212.6230  153.1770 S   0  0  0  0  0  0  0  0  0  0  0  0
  160.3740  211.3220  152.9290 C   0  0  2  0  0  3  0  0  0  0  0  0
  160.6510  212.4840  150.9170 O   0  0  0  0  0  0  0  0  0  0  0  0
  160.4530  211.2030  151.4400 C   0  0  1  0  0  3  0  0  0  0  0  0
  159.9460  209.9830  153.5400 C   0  0  2  0  0  3  0  0  0  0  0  0
  158.5310  213.5930  150.6850 C   0  0  0  0  0  1  0  0  0  0  0  0
  159.7290  213.3250  151.5780 C   0  0  1  0  0  3  0  0  0  0  0  0
  162.0220  209.6270  154.7190 O   0  0  0  0  0  0  0  0  0  0  0  0
  161.8150  211.3170  156.0880 C   0  0  1  0  0  3  0  0  0  0  0  0
  162.5280  210.8320  154.9860 O   0  0  0  0  0  0  0  0  0  0  0  0
  160.4010  210.8930  155.8240 C   0  0  1  0  0  3  0  0  0  0  0  0
  160.1480  208.3800  155.4860 C   0  0  0  0  0  1  0  0  0  0  0  0
  160.6250  209.7100  154.8970 C   0  0  1  0  0  0  0  0  0  0  0  0
  162.3210  210.7390  157.2600 O   0  0  0  0  0  0  0  0  0  0  0  0
  163.6830  211.0360  157.2440 C   0  0  0  0  0  1  0  0  0  0  0  0
  159.5510  210.6510  157.0810 C   0  0  0  0  0  2  0  0  0  0  0  0
  158.2980  211.5130  157.0740 C   0  0  0  0  0  2  0  0  0  0  0  0
  157.4290  211.1800  155.8760 C   0  0  0  0  0  1  0  0  0  0  0  0
  162.3560  208.3280  151.8560 O   0  0  0  0  0  0  0  0  0  0  0  0
  162.4340  207.0880  151.1780 C   0  0  2  0  0  3  0  0  0  0  0  0
  162.2840  207.2230  149.6670 C   0  0  0  0  0  1  0  0  0  0  0  0
  161.5100  206.0140  151.7500 C   0  0  0  0  0  2  0  0  0  0  0  0
  161.7670  204.6770  151.0780 C   0  0  1  0  0  3  0  0  0  0  0  0
  161.1080  203.6160  151.8280 C   0  0  0  0  0  2  0  0  0  0  0  0
  160.4940  204.1240  150.5920 N   0  0  0  0  0  0  0  0  0  0  0  0
  161.0410  203.8690  148.3470 O   0  0  0  0  0  1  0  0  0  0  0  0
  160.8310  203.1810  149.5420 C   0  0  0  0  0  2  0  0  0  0  0  0
  1 22  1  1  0  0  0
  1  2  1  0  0  0  0
  3  7  1  0  0  0  0
  3  1  1  0  0  0  0
  5  4  1  6  0  0  0
  5  8  1  0  0  0  0
  6 10  1  0  0  0  0
  7  6  1  6  0  0  0
  7  5  1  0  0  0  0
  8  2  1  6  0  0  0
  8 16  1  0  0  0  0
 10  9  1  6  0  0  0
 10  4  1  0  0  0  0
 11 16  1  0  0  0  0
 11 13  1  0  0  0  0
 12 17  1  1  0  0  0
 13 12  1  0  0  0  0
 14 12  1  0  0  0  0
 14 19  1  1  0  0  0
 16 15  1  1  0  0  0
 16 14  1  0  0  0  0
 18 17  1  0  0  0  0
 20 19  1  0  0  0  0
 21 20  1  0  0  0  0
 23 24  1  6  0  0  0
 23 25  1  0  0  0  0
 23 22  1  0  0  0  0
 26 25  1  1  0  0  0
 26 27  1  0  0  0  0
 28 26  1  0  0  0  0
 28 27  1  0  0  0  0
 29 30  1  0  0  0  0
 30 28  1  0  0  0  0
M  END
>  <MODEL>
8

>  <REMARK>
 VINA RESULT:      -4.5      3.280      7.233
  Name = 
  9 active torsions:
  status: ('A' for Active; 'I' for Inactive)
    1  A    between atoms: C_1  and  O_22
    2  A    between atoms: C_2  and  C_14
    3  A    between atoms: C_2  and  O_22
    4  A    between atoms: C_10  and  O_15
    5  A    between atoms: C_11  and  C_25
    6  A    between atoms: C_13  and  C_30
    7  A    between atoms: C_14  and  C_20
    8  A    between atoms: C_19  and  N_29
    9  A    between atoms: C_23  and  C_25
                            x       y       z     vdW  Elec       q    Type
                         _______ _______ _______ _____ _____    ______ ____

>  <TORSDO>
F 9

$$$$
=
 OpenBabel11052421523D

 30 33  0  0  1  0  0  0  0  0999 V2000
  161.6770  208.8180  150.7340 C   0  0  1  0  0  3  0  0  0  0  0  0
  160.6800  207.6310  150.8730 C   0  0  0  0  0  2  0  0  0  0  0  0
  162.1840  209.3780  151.9430 O   0  0  0  0  0  0  0  0  0  0  0  0
  160.4720  207.4890  154.8390 S   0  0  0  0  0  0  0  0  0  0  0  0
  161.4100  207.6430  153.3260 C   0  0  2  0  0  3  0  0  0  0  0  0
  161.6570  209.8180  154.1520 O   0  0  0  0  0  0  0  0  0  0  0  0
  161.3100  209.1000  153.0040 C   0  0  1  0  0  3  0  0  0  0  0  0
  160.8370  206.8110  152.1740 C   0  0  2  0  0  3  0  0  0  0  0  0
  159.7320  210.0330  155.5770 C   0  0  0  0  0  1  0  0  0  0  0  0
  160.9590  209.2130  155.2200 C   0  0  1  0  0  3  0  0  0  0  0  0
  161.6510  204.7720  153.1780 O   0  0  0  0  0  0  0  0  0  0  0  0
  160.5720  203.4060  151.8580 C   0  0  1  0  0  3  0  0  0  0  0  0
  160.6400  203.9030  153.1650 O   0  0  0  0  0  0  0  0  0  0  0  0
  160.8330  204.6050  150.9970 C   0  0  1  0  0  3  0  0  0  0  0  0
  163.0440  205.7600  151.5230 C   0  0  0  0  0  1  0  0  0  0  0  0
  161.6030  205.4890  151.9640 C   0  0  1  0  0  0  0  0  0  0  0  0
  161.5500  202.4170  151.6850 O   0  0  0  0  0  0  0  0  0  0  0  0
  160.8640  201.3290  151.1460 C   0  0  0  0  0  1  0  0  0  0  0  0
  161.4950  204.2990  149.6450 C   0  0  0  0  0  2  0  0  0  0  0  0
  160.5360  203.5760  148.7120 C   0  0  0  0  0  2  0  0  0  0  0  0
  161.2760  202.5440  147.8810 C   0  0  0  0  0  1  0  0  0  0  0  0
  162.7540  208.4300  149.9180 O   0  0  0  0  0  0  0  0  0  0  0  0
  162.3600  208.4760  148.5600 C   0  0  2  0  0  3  0  0  0  0  0  0
  161.6300  209.7630  148.1930 C   0  0  0  0  0  1  0  0  0  0  0  0
  161.5980  207.2360  148.0960 C   0  0  0  0  0  2  0  0  0  0  0  0
  162.0140  206.8490  146.6880 C   0  0  1  0  0  3  0  0  0  0  0  0
  162.6930  205.5610  146.7140 C   0  0  0  0  0  2  0  0  0  0  0  0
  161.2890  205.6360  146.2830 N   0  0  0  0  0  0  0  0  0  0  0  0
  160.3670  204.6890  144.3700 O   0  0  0  0  0  1  0  0  0  0  0  0
  161.2980  205.6190  144.8320 C   0  0  0  0  0  2  0  0  0  0  0  0
  1 22  1  6  0  0  0
  1  2  1  0  0  0  0
  1  3  1  0  0  0  0
  4 10  1  0  0  0  0
  5  4  1  1  0  0  0
  6 10  1  0  0  0  0
  7  3  1  6  0  0  0
  7  5  1  0  0  0  0
  7  6  1  0  0  0  0
  8  2  1  6  0  0  0
  8  5  1  0  0  0  0
 10  9  1  6  0  0  0
 12 17  1  1  0  0  0
 12 13  1  0  0  0  0
 13 11  1  0  0  0  0
 14 19  1  6  0  0  0
 14 12  1  0  0  0  0
 14 16  1  0  0  0  0
 16 15  1  6  0  0  0
 16  8  1  0  0  0  0
 16 11  1  0  0  0  0
 18 17  1  0  0  0  0
 20 19  1  0  0  0  0
 21 20  1  0  0  0  0
 23 24  1  1  0  0  0
 23 22  1  0  0  0  0
 25 23  1  0  0  0  0
 26 27  1  0  0  0  0
 26 25  1  1  0  0  0
 28 26  1  0  0  0  0
 28 27  1  0  0  0  0
 29 30  1  0  0  0  0
 30 28  1  0  0  0  0
M  END
>  <MODEL>
9

>  <REMARK>
 VINA RESULT:      -4.5      2.306      3.288
  Name = 
  9 active torsions:
  status: ('A' for Active; 'I' for Inactive)
    1  A    between atoms: C_1  and  O_22
    2  A    between atoms: C_2  and  C_14
    3  A    between atoms: C_2  and  O_22
    4  A    between atoms: C_10  and  O_15
    5  A    between atoms: C_11  and  C_25
    6  A    between atoms: C_13  and  C_30
    7  A    between atoms: C_14  and  C_20
    8  A    between atoms: C_19  and  N_29
    9  A    between atoms: C_23  and  C_25
                            x       y       z     vdW  Elec       q    Type
                         _______ _______ _______ _____ _____    ______ ____

>  <TORSDO>
F 9

$$$$
