=
 OpenBabel11062408153D

 32 38  0  0  1  0  0  0  0  0999 V2000
  161.1220  208.7860  154.2510 C   0  0  2  0  0  3  0  0  0  0  0  0
  160.8010  211.4080  154.1560 C   0  0  2  0  0  3  0  0  0  0  0  0
  160.5390  208.0580  155.4500 C   0  0  0  0  0  2  0  0  0  0  0  0
  161.6590  210.2050  154.5860 C   0  0  1  0  0  3  0  0  0  0  0  0
  160.0120  212.0420  155.2960 C   0  0  2  0  0  0  0  0  0  0  0  0
  157.6010  213.5600  151.0770 C   0  0  0  0  0  3  0  0  0  0  0  0
  159.9420  211.1930  152.9060 C   0  0  1  0  0  3  0  0  0  0  0  0
  157.7570  214.2990  153.3780 C   0  0  0  0  0  3  0  0  0  0  0  0
  158.6390  213.2520  153.6610 C   0  0  0  0  0  0  0  0  0  0  0  0
  159.6380  211.2280  156.5290 C   0  0  2  0  0  3  0  0  0  0  0  0
  162.2510  210.3820  156.0130 C   0  0  1  0  0  3  0  0  0  0  0  0
  159.1600  213.1290  154.9540 O   0  0  0  0  0  0  0  0  0  0  0  0
  162.1350  211.7130  156.5010 O   0  0  0  0  0  0  0  0  0  0  0  0
  161.8320  209.3660  157.0900 C   0  0  0  0  0  2  0  0  0  0  0  0
  159.1790  209.8820  152.9900 C   0  0  0  0  0  2  0  0  0  0  0  0
  158.4380  211.8050  157.2610 C   0  0  0  0  0  1  0  0  0  0  0  0
  160.1510  208.7080  153.0650 C   0  0  1  0  0  3  0  0  0  0  0  0
  159.0080  212.3470  152.6390 C   0  0  0  0  0  0  0  0  0  0  0  0
  160.7990  212.2420  156.5810 C   0  0  1  0  0  3  0  0  0  0  0  0
  161.5990  207.9760  156.5280 C   0  0  0  0  0  2  0  0  0  0  0  0
  157.2380  214.4530  152.0900 C   0  0  0  0  0  3  0  0  0  0  0  0
  158.4820  212.5110  151.3510 C   0  0  0  0  0  3  0  0  0  0  0  0
  162.0950  209.1290  149.6810 C   0  0  2  0  0  3  0  0  0  0  0  0
  161.1930  209.7760  148.8360 O   0  0  0  0  0  1  0  0  0  0  0  0
  162.4410  206.7610  150.5830 C   0  0  0  0  0  2  0  0  0  0  0  0
  160.8050  208.3730  151.7180 C   0  0  2  0  0  3  0  0  0  0  0  0
  162.1110  207.6210  149.3590 C   0  0  2  0  0  3  0  0  0  0  0  0
  161.4230  206.9670  151.7120 C   0  0  0  0  0  2  0  0  0  0  0  0
  161.7480  209.4440  151.1420 C   0  0  1  0  0  3  0  0  0  0  0  0
  162.9270  209.5240  151.8870 O   0  0  0  0  0  1  0  0  0  0  0  0
  162.3450  206.4750  147.1140 C   0  0  0  0  0  1  0  0  0  0  0  0
  163.0350  207.3070  148.1860 C   0  0  0  0  0  2  0  0  0  0  0  0
  1  4  1  0  0  0  0
  1  3  1  1  0  0  0
  2  4  1  0  0  0  0
  2  5  1  0  0  0  0
  3 20  1  0  0  0  0
  4 11  1  0  0  0  0
  5 10  1  0  0  0  0
  5 19  1  0  0  0  0
  6 22  2  0  0  0  0
  6 21  1  0  0  0  0
  7 15  1  0  0  0  0
  7  2  1  0  0  0  0
  8  9  1  0  0  0  0
  9 12  1  0  0  0  0
 10 19  1  0  0  0  0
 10 16  1  0  0  0  0
 11 13  1  0  0  0  0
 11 14  1  0  0  0  0
 12  5  1  0  0  0  0
 13 19  1  0  0  0  0
 15 17  1  0  0  0  0
 17  1  1  0  0  0  0
 18  7  1  0  0  0  0
 18  9  2  0  0  0  0
 20 14  1  0  0  0  0
 21  8  2  0  0  0  0
 22 18  1  0  0  0  0
 23 29  1  0  0  0  0
 24 23  1  0  0  0  0
 25 28  1  0  0  0  0
 26 17  1  0  0  0  0
 27 23  1  0  0  0  0
 27 25  1  0  0  0  0
 28 26  1  0  0  0  0
 29 26  1  0  0  0  0
 29 30  1  0  0  0  0
 31 32  1  0  0  0  0
 32 27  1  0  0  0  0
M  END
>  <MODEL>
1

>  <REMARK>
 VINA RESULT:      -5.2      0.000      0.000
  Name = 
  2 active torsions:
  status: ('A' for Active; 'I' for Inactive)
    1  A    between atoms: C_16  and  C_27
    2  A    between atoms: C_19  and  C_26
                            x       y       z     vdW  Elec       q    Type
                         _______ _______ _______ _____ _____    ______ ____

>  <TORSDO>
F 2

$$$$
=
 OpenBabel11062408153D

 32 38  0  0  1  0  0  0  0  0999 V2000
  159.5250  212.6580  152.5510 C   0  0  2  0  0  3  0  0  0  0  0  0
  159.1780  210.1220  153.2090 C   0  0  2  0  0  3  0  0  0  0  0  0
  160.0050  213.5990  153.6430 C   0  0  0  0  0  2  0  0  0  0  0  0
  158.5840  211.5350  153.0680 C   0  0  1  0  0  3  0  0  0  0  0  0
  159.5170  209.7350  154.6440 C   0  0  2  0  0  0  0  0  0  0  0  0
  162.3010  206.5790  151.7790 C   0  0  0  0  0  3  0  0  0  0  0  0
  160.3090  209.7810  152.2330 C   0  0  1  0  0  3  0  0  0  0  0  0
  161.4750  206.6240  154.0550 C   0  0  0  0  0  3  0  0  0  0  0  0
  160.8510  207.8510  153.8110 C   0  0  0  0  0  0  0  0  0  0  0  0
  159.8150  210.8050  155.6880 C   0  0  2  0  0  3  0  0  0  0  0  0
  157.6780  211.9170  154.2720 C   0  0  1  0  0  3  0  0  0  0  0  0
  160.1160  208.4580  154.8350 O   0  0  0  0  0  0  0  0  0  0  0  0
  157.3430  210.8010  155.0910 O   0  0  0  0  0  0  0  0  0  0  0  0
  158.1030  213.1190  155.1330 C   0  0  0  0  0  2  0  0  0  0  0  0
  161.3460  210.8910  152.1940 C   0  0  0  0  0  2  0  0  0  0  0  0
  160.6440  210.2710  156.8430 C   0  0  0  0  0  1  0  0  0  0  0  0
  160.7120  212.1880  151.7000 C   0  0  1  0  0  3  0  0  0  0  0  0
  160.9520  208.4500  152.5340 C   0  0  0  0  0  0  0  0  0  0  0  0
  158.4500  210.0870  155.6680 C   0  0  1  0  0  3  0  0  0  0  0  0
  158.7970  214.2010  154.3280 C   0  0  0  0  0  2  0  0  0  0  0  0
  162.1990  205.9900  153.0430 C   0  0  0  0  0  3  0  0  0  0  0  0
  161.6790  207.8040  151.5270 C   0  0  0  0  0  3  0  0  0  0  0  0
  159.5710  213.3970  148.1450 C   0  0  2  0  0  3  0  0  0  0  0  0
  158.1850  213.2360  148.1480 O   0  0  0  0  0  1  0  0  0  0  0  0
  161.6240  211.8890  147.9230 C   0  0  0  0  0  2  0  0  0  0  0  0
  160.4680  212.2080  150.1860 C   0  0  2  0  0  3  0  0  0  0  0  0
  160.2230  212.2160  147.3980 C   0  0  2  0  0  3  0  0  0  0  0  0
  161.6010  211.5180  149.4110 C   0  0  0  0  0  2  0  0  0  0  0  0
  160.0720  213.5680  149.5850 C   0  0  1  0  0  3  0  0  0  0  0  0
  161.1550  214.4500  149.5930 O   0  0  0  0  0  1  0  0  0  0  0  0
  161.4300  213.2480  145.4270 C   0  0  0  0  0  1  0  0  0  0  0  0
  160.2270  212.4390  145.8880 C   0  0  0  0  0  2  0  0  0  0  0  0
  1  4  1  0  0  0  0
  1  3  1  1  0  0  0
  2  5  1  0  0  0  0
  3 20  1  0  0  0  0
  4  2  1  0  0  0  0
  4 11  1  0  0  0  0
  5 12  1  0  0  0  0
  5 19  1  0  0  0  0
  5 10  1  0  0  0  0
  6 21  1  0  0  0  0
  7 18  1  0  0  0  0
  7  2  1  0  0  0  0
  9  8  1  0  0  0  0
  9 12  1  0  0  0  0
 10 16  1  0  0  0  0
 11 13  1  0  0  0  0
 11 14  1  0  0  0  0
 13 19  1  0  0  0  0
 15  7  1  0  0  0  0
 17 15  1  0  0  0  0
 17  1  1  0  0  0  0
 18  9  2  0  0  0  0
 19 10  1  0  0  0  0
 20 14  1  0  0  0  0
 21  8  2  0  0  0  0
 22  6  2  0  0  0  0
 22 18  1  0  0  0  0
 23 24  1  0  0  0  0
 23 29  1  0  0  0  0
 25 28  1  0  0  0  0
 26 17  1  0  0  0  0
 27 25  1  0  0  0  0
 27 23  1  0  0  0  0
 28 26  1  0  0  0  0
 29 30  1  0  0  0  0
 29 26  1  0  0  0  0
 31 32  1  0  0  0  0
 32 27  1  0  0  0  0
M  END
>  <MODEL>
2

>  <REMARK>
 VINA RESULT:      -4.8      2.698      5.319
  Name = 
  2 active torsions:
  status: ('A' for Active; 'I' for Inactive)
    1  A    between atoms: C_16  and  C_27
    2  A    between atoms: C_19  and  C_26
                            x       y       z     vdW  Elec       q    Type
                         _______ _______ _______ _____ _____    ______ ____

>  <TORSDO>
F 2

$$$$
=
 OpenBabel11062408153D

 32 38  0  0  1  0  0  0  0  0999 V2000
  161.6560  210.0380  151.3120 C   0  0  2  0  0  3  0  0  0  0  0  0
  160.6740  207.6610  150.7050 C   0  0  2  0  0  3  0  0  0  0  0  0
  162.8680  210.0760  152.2270 C   0  0  0  0  0  2  0  0  0  0  0  0
  160.6670  208.8850  151.6370 C   0  0  1  0  0  3  0  0  0  0  0  0
  161.4050  206.4520  151.2790 C   0  0  2  0  0  0  0  0  0  0  0  0
  161.2940  205.6110  146.2590 C   0  0  0  0  0  3  0  0  0  0  0  0
  161.0670  207.9400  149.2510 C   0  0  1  0  0  3  0  0  0  0  0  0
  161.5810  204.2800  148.2610 C   0  0  0  0  0  3  0  0  0  0  0  0
  161.4340  205.4230  149.0510 C   0  0  0  0  0  0  0  0  0  0  0  0
  162.4950  206.6290  152.3280 C   0  0  2  0  0  3  0  0  0  0  0  0
  160.5690  208.4850  153.1360 C   0  0  1  0  0  3  0  0  0  0  0  0
  161.4880  205.3030  150.4440 O   0  0  0  0  0  0  0  0  0  0  0  0
  160.2070  207.1210  153.3240 O   0  0  0  0  0  0  0  0  0  0  0  0
  161.7390  208.8730  154.0570 C   0  0  0  0  0  2  0  0  0  0  0  0
  162.3310  208.7810  149.1830 C   0  0  0  0  0  2  0  0  0  0  0  0
  163.4560  205.4530  152.3680 C   0  0  0  0  0  1  0  0  0  0  0  0
  162.1000  210.1360  149.8460 C   0  0  1  0  0  3  0  0  0  0  0  0
  161.2140  206.6780  148.4370 C   0  0  0  0  0  0  0  0  0  0  0  0
  161.0870  206.1480  152.7340 C   0  0  1  0  0  3  0  0  0  0  0  0
  162.3890  210.1840  153.6590 C   0  0  0  0  0  2  0  0  0  0  0  0
  161.5120  204.3720  146.8690 C   0  0  0  0  0  3  0  0  0  0  0  0
  161.1450  206.7590  147.0410 C   0  0  0  0  0  3  0  0  0  0  0  0
  160.5020  213.4570  148.4940 C   0  0  2  0  0  3  0  0  0  0  0  0
  159.5030  213.7660  149.4170 O   0  0  0  0  0  1  0  0  0  0  0  0
  160.8170  211.8060  146.5660 C   0  0  0  0  0  2  0  0  0  0  0  0
  161.2730  211.1020  148.9860 C   0  0  2  0  0  3  0  0  0  0  0  0
  159.8690  212.7930  147.2540 C   0  0  2  0  0  3  0  0  0  0  0  0
  161.2420  210.6750  147.5110 C   0  0  0  0  0  2  0  0  0  0  0  0
  161.5790  212.5980  149.1710 C   0  0  1  0  0  3  0  0  0  0  0  0
  162.8280  212.9220  148.6350 O   0  0  0  0  0  1  0  0  0  0  0  0
  158.6100  213.1950  145.0960 C   0  0  0  0  0  1  0  0  0  0  0  0
  159.3320  213.8320  146.2740 C   0  0  0  0  0  2  0  0  0  0  0  0
  1  4  1  0  0  0  0
  1  3  1  1  0  0  0
  2  5  1  0  0  0  0
  2  4  1  0  0  0  0
  3 20  1  0  0  0  0
  4 11  1  0  0  0  0
  5 10  1  0  0  0  0
  5 19  1  0  0  0  0
  6 21  2  0  0  0  0
  6 22  1  0  0  0  0
  7  2  1  0  0  0  0
  8  9  2  0  0  0  0
  9 12  1  0  0  0  0
 10 16  1  0  0  0  0
 10 19  1  0  0  0  0
 11 13  1  0  0  0  0
 11 14  1  0  0  0  0
 12  5  1  0  0  0  0
 15  7  1  0  0  0  0
 15 17  1  0  0  0  0
 17  1  1  0  0  0  0
 18  9  1  0  0  0  0
 18  7  1  0  0  0  0
 19 13  1  0  0  0  0
 20 14  1  0  0  0  0
 21  8  1  0  0  0  0
 22 18  2  0  0  0  0
 23 29  1  0  0  0  0
 23 24  1  0  0  0  0
 25 27  1  0  0  0  0
 25 28  1  0  0  0  0
 26 29  1  0  0  0  0
 26 17  1  0  0  0  0
 27 23  1  0  0  0  0
 28 26  1  0  0  0  0
 30 29  1  0  0  0  0
 31 32  1  0  0  0  0
 32 27  1  0  0  0  0
M  END
>  <MODEL>
3

>  <REMARK>
 VINA RESULT:      -4.2      3.269      6.737
  Name = 
  2 active torsions:
  status: ('A' for Active; 'I' for Inactive)
    1  A    between atoms: C_16  and  C_27
    2  A    between atoms: C_19  and  C_26
                            x       y       z     vdW  Elec       q    Type
                         _______ _______ _______ _____ _____    ______ ____

>  <TORSDO>
F 2

$$$$
=
 OpenBabel11062408153D

 32 38  0  0  1  0  0  0  0  0999 V2000
  161.9640  212.5580  141.5330 C   0  0  2  0  0  3  0  0  0  0  0  0
  159.5550  211.6880  140.8790 C   0  0  2  0  0  3  0  0  0  0  0  0
  162.8980  212.9360  140.3970 C   0  0  0  0  0  2  0  0  0  0  0  0
  161.0260  211.3660  141.1970 C   0  0  1  0  0  3  0  0  0  0  0  0
  159.2230  211.6500  139.3910 C   0  0  2  0  0  0  0  0  0  0  0  0
  155.5090  214.4530  141.4560 C   0  0  0  0  0  3  0  0  0  0  0  0
  158.9880  212.9340  141.5680 C   0  0  1  0  0  3  0  0  0  0  0  0
  155.8290  213.1790  139.4220 C   0  0  0  0  0  3  0  0  0  0  0  0
  157.1130  212.8200  139.8410 C   0  0  0  0  0  0  0  0  0  0  0  0
  160.3080  211.8810  138.3470 C   0  0  2  0  0  3  0  0  0  0  0  0
  161.6160  210.2940  140.2380 C   0  0  1  0  0  3  0  0  0  0  0  0
  157.8890  211.9870  139.0280 O   0  0  0  0  0  0  0  0  0  0  0  0
  160.6200  209.6230  139.4750 O   0  0  0  0  0  0  0  0  0  0  0  0
  162.8010  210.7090  139.3480 C   0  0  0  0  0  2  0  0  0  0  0  0
  159.9320  214.1150  141.4150 C   0  0  0  0  0  2  0  0  0  0  0  0
  159.7400  212.3510  137.0180 C   0  0  0  0  0  1  0  0  0  0  0  0
  161.2700  213.8120  142.0830 C   0  0  1  0  0  3  0  0  0  0  0  0
  157.6020  213.2830  141.0850 C   0  0  0  0  0  0  0  0  0  0  0  0
  159.7950  210.4570  138.6420 C   0  0  1  0  0  3  0  0  0  0  0  0
  163.7140  211.7180  140.0170 C   0  0  0  0  0  2  0  0  0  0  0  0
  155.0290  213.9940  140.2260 C   0  0  0  0  0  3  0  0  0  0  0  0
  156.7910  214.0990  141.8830 C   0  0  0  0  0  3  0  0  0  0  0  0
  159.9900  213.4660  145.7770 C   0  0  2  0  0  3  0  0  0  0  0  0
  159.0130  214.4530  145.9040 O   0  0  0  0  0  1  0  0  0  0  0  0
  162.5460  213.3620  145.7390 C   0  0  0  0  0  2  0  0  0  0  0  0
  161.2210  213.9020  143.6140 C   0  0  2  0  0  3  0  0  0  0  0  0
  161.3060  213.9610  146.4110 C   0  0  2  0  0  3  0  0  0  0  0  0
  162.6070  213.7130  144.2470 C   0  0  0  0  0  2  0  0  0  0  0  0
  160.1290  213.0650  144.3030 C   0  0  1  0  0  3  0  0  0  0  0  0
  160.4200  211.7020  144.2220 O   0  0  0  0  0  1  0  0  0  0  0  0
  161.8120  212.3450  148.2920 C   0  0  0  0  0  1  0  0  0  0  0  0
  161.3230  213.7370  147.9200 C   0  0  0  0  0  2  0  0  0  0  0  0
  1  3  1  6  0  0  0
  1 17  1  0  0  0  0
  2  4  1  0  0  0  0
  2  7  1  0  0  0  0
  4  1  1  0  0  0  0
  5  2  1  0  0  0  0
  6 22  1  0  0  0  0
  8  9  2  0  0  0  0
  8 21  1  0  0  0  0
  9 18  1  0  0  0  0
 10 19  1  0  0  0  0
 10  5  1  0  0  0  0
 11  4  1  0  0  0  0
 12  5  1  0  0  0  0
 12  9  1  0  0  0  0
 13 11  1  0  0  0  0
 14 20  1  0  0  0  0
 14 11  1  0  0  0  0
 15  7  1  0  0  0  0
 15 17  1  0  0  0  0
 16 10  1  0  0  0  0
 17 26  1  0  0  0  0
 18  7  1  0  0  0  0
 18 22  2  0  0  0  0
 19  5  1  0  0  0  0
 19 13  1  0  0  0  0
 20  3  1  0  0  0  0
 21  6  2  0  0  0  0
 23 24  1  0  0  0  0
 23 27  1  0  0  0  0
 25 27  1  0  0  0  0
 26 28  1  0  0  0  0
 26 29  1  0  0  0  0
 27 32  1  0  0  0  0
 28 25  1  0  0  0  0
 29 23  1  0  0  0  0
 30 29  1  0  0  0  0
 32 31  1  0  0  0  0
M  END
>  <MODEL>
4

>  <REMARK>
 VINA RESULT:      -3.8      8.729     13.025
  Name = 
  2 active torsions:
  status: ('A' for Active; 'I' for Inactive)
    1  A    between atoms: C_16  and  C_27
    2  A    between atoms: C_19  and  C_26
                            x       y       z     vdW  Elec       q    Type
                         _______ _______ _______ _____ _____    ______ ____

>  <TORSDO>
F 2

$$$$
=
 OpenBabel11062408153D

 32 38  0  0  1  0  0  0  0  0999 V2000
  161.0550  206.5960  146.9900 C   0  0  2  0  0  3  0  0  0  0  0  0
  162.1260  204.2950  147.7300 C   0  0  2  0  0  3  0  0  0  0  0  0
  160.0700  206.5640  145.8340 C   0  0  0  0  0  2  0  0  0  0  0  0
  162.2060  205.5600  146.8560 C   0  0  1  0  0  3  0  0  0  0  0  0
  161.6650  203.0530  146.9770 C   0  0  2  0  0  0  0  0  0  0  0  0
  160.7850  201.9770  151.8740 C   0  0  0  0  0  3  0  0  0  0  0  0
  161.4030  204.4630  149.0700 C   0  0  1  0  0  3  0  0  0  0  0  0
  161.0720  200.7260  149.8210 C   0  0  0  0  0  3  0  0  0  0  0  0
  161.2650  201.9160  149.1150 C   0  0  0  0  0  0  0  0  0  0  0  0
  160.8120  203.1780  145.7200 C   0  0  2  0  0  3  0  0  0  0  0  0
  162.6640  205.2460  145.4040 C   0  0  1  0  0  3  0  0  0  0  0  0
  161.5240  201.8610  147.7410 O   0  0  0  0  0  0  0  0  0  0  0  0
  163.1960  203.9340  145.2610 O   0  0  0  0  0  0  0  0  0  0  0  0
  161.6840  205.5670  144.2620 C   0  0  0  0  0  2  0  0  0  0  0  0
  160.0740  205.1760  148.8850 C   0  0  0  0  0  2  0  0  0  0  0  0
  160.0080  201.9190  145.4390 C   0  0  0  0  0  1  0  0  0  0  0  0
  160.3000  206.5780  148.3260 C   0  0  1  0  0  3  0  0  0  0  0  0
  161.2180  203.1540  149.7970 C   0  0  0  0  0  0  0  0  0  0  0  0
  162.3160  202.8530  145.6180 C   0  0  1  0  0  3  0  0  0  0  0  0
  160.8310  206.7890  144.5450 C   0  0  0  0  0  2  0  0  0  0  0  0
  160.8320  200.7550  151.1970 C   0  0  0  0  0  3  0  0  0  0  0  0
  160.9770  203.1720  151.1760 C   0  0  0  0  0  3  0  0  0  0  0  0
  161.7620  208.0110  151.6750 C   0  0  2  0  0  3  0  0  0  0  0  0
  160.6990  207.9500  152.5760 O   0  0  0  0  0  1  0  0  0  0  0  0
  162.4700  209.5010  149.7210 C   0  0  0  0  0  2  0  0  0  0  0  0
  160.8190  207.5740  149.3730 C   0  0  2  0  0  3  0  0  0  0  0  0
  161.9030  209.4510  151.1430 C   0  0  2  0  0  3  0  0  0  0  0  0
  161.5810  208.7410  148.7280 C   0  0  0  0  0  2  0  0  0  0  0  0
  161.5620  206.9630  150.5730 C   0  0  1  0  0  3  0  0  0  0  0  0
  162.8070  206.4600  150.1860 O   0  0  0  0  0  1  0  0  0  0  0  0
  161.9570  210.6080  153.3930 C   0  0  0  0  0  1  0  0  0  0  0  0
  162.7060  210.3280  152.0990 C   0  0  0  0  0  2  0  0  0  0  0  0
  1  3  1  6  0  0  0
  1 17  1  0  0  0  0
  2  7  1  0  0  0  0
  4  1  1  0  0  0  0
  4  2  1  0  0  0  0
  5  2  1  0  0  0  0
  5 12  1  0  0  0  0
  7 18  1  0  0  0  0
  8 21  2  0  0  0  0
  9 18  2  0  0  0  0
  9  8  1  0  0  0  0
 10  5  1  0  0  0  0
 11  4  1  0  0  0  0
 12  9  1  0  0  0  0
 13 11  1  0  0  0  0
 13 19  1  0  0  0  0
 14 20  1  0  0  0  0
 14 11  1  0  0  0  0
 15  7  1  0  0  0  0
 16 10  1  0  0  0  0
 17 15  1  0  0  0  0
 17 26  1  0  0  0  0
 18 22  1  0  0  0  0
 19 10  1  0  0  0  0
 19  5  1  0  0  0  0
 20  3  1  0  0  0  0
 21  6  1  0  0  0  0
 22  6  2  0  0  0  0
 23 24  1  0  0  0  0
 25 27  1  0  0  0  0
 26 29  1  0  0  0  0
 27 23  1  0  0  0  0
 27 32  1  0  0  0  0
 28 26  1  0  0  0  0
 28 25  1  0  0  0  0
 29 23  1  0  0  0  0
 30 29  1  0  0  0  0
 32 31  1  0  0  0  0
M  END
>  <MODEL>
5

>  <REMARK>
 VINA RESULT:      -3.1      3.696      9.900
  Name = 
  2 active torsions:
  status: ('A' for Active; 'I' for Inactive)
    1  A    between atoms: C_16  and  C_27
    2  A    between atoms: C_19  and  C_26
                            x       y       z     vdW  Elec       q    Type
                         _______ _______ _______ _____ _____    ______ ____

>  <TORSDO>
F 2

$$$$
=
 OpenBabel11062408153D

 32 38  0  0  1  0  0  0  0  0999 V2000
  161.6520  206.8690  151.4100 C   0  0  2  0  0  3  0  0  0  0  0  0
  160.4160  205.4330  149.5670 C   0  0  2  0  0  3  0  0  0  0  0  0
  162.6810  206.1560  152.2720 C   0  0  0  0  0  2  0  0  0  0  0  0
  160.4490  205.9720  151.0080 C   0  0  1  0  0  3  0  0  0  0  0  0
  160.8330  203.9720  149.4450 C   0  0  2  0  0  0  0  0  0  0  0  0
  161.4450  205.8690  144.7610 C   0  0  0  0  0  3  0  0  0  0  0  0
  161.0920  206.3190  148.5160 C   0  0  1  0  0  3  0  0  0  0  0  0
  161.1670  203.6760  145.7500 C   0  0  0  0  0  3  0  0  0  0  0  0
  161.0750  204.2530  147.0190 C   0  0  0  0  0  0  0  0  0  0  0  0
  161.7430  203.3340  150.4880 C   0  0  2  0  0  3  0  0  0  0  0  0
  160.0330  204.8960  152.0510 C   0  0  1  0  0  3  0  0  0  0  0  0
  160.8710  203.4280  148.1310 O   0  0  0  0  0  0  0  0  0  0  0  0
  159.4290  203.7530  151.4570 O   0  0  0  0  0  0  0  0  0  0  0  0
  161.0770  204.4800  153.1020 C   0  0  0  0  0  2  0  0  0  0  0  0
  162.4680  206.7640  148.9830 C   0  0  0  0  0  2  0  0  0  0  0  0
  162.4800  202.1200  149.9470 C   0  0  0  0  0  1  0  0  0  0  0  0
  162.3500  207.5990  150.2540 C   0  0  1  0  0  3  0  0  0  0  0  0
  161.1690  205.6570  147.1630 C   0  0  0  0  0  0  0  0  0  0  0  0
  160.2270  203.0480  150.4890 C   0  0  1  0  0  3  0  0  0  0  0  0
  161.9880  205.6220  153.5080 C   0  0  0  0  0  2  0  0  0  0  0  0
  161.3530  204.4810  144.6230 C   0  0  0  0  0  3  0  0  0  0  0  0
  161.3530  206.4540  146.0260 C   0  0  0  0  0  3  0  0  0  0  0  0
  161.2290  211.3050  150.8990 C   0  0  2  0  0  3  0  0  0  0  0  0
  159.9610  211.1940  151.4680 O   0  0  0  0  0  1  0  0  0  0  0  0
  162.2500  211.1090  148.5620 C   0  0  0  0  0  2  0  0  0  0  0  0
  161.8490  209.0270  149.9990 C   0  0  2  0  0  3  0  0  0  0  0  0
  161.0920  211.6550  149.4030 C   0  0  2  0  0  3  0  0  0  0  0  0
  162.3500  209.5820  148.6570 C   0  0  0  0  0  2  0  0  0  0  0  0
  162.0250  210.0200  151.1610 C   0  0  1  0  0  3  0  0  0  0  0  0
  163.3720  210.3430  151.3420 O   0  0  0  0  0  1  0  0  0  0  0  0
  161.9880  213.7560  148.3120 C   0  0  0  0  0  1  0  0  0  0  0  0
  160.9020  213.1540  149.1910 C   0  0  0  0  0  2  0  0  0  0  0  0
  1  3  1  6  0  0  0
  2  4  1  0  0  0  0
  3 20  1  0  0  0  0
  4  1  1  0  0  0  0
  4 11  1  0  0  0  0
  5  2  1  0  0  0  0
  5 10  1  0  0  0  0
  5 19  1  0  0  0  0
  6 22  1  0  0  0  0
  7 15  1  0  0  0  0
  7  2  1  0  0  0  0
  8  9  2  0  0  0  0
  9 18  1  0  0  0  0
  9 12  1  0  0  0  0
 10 19  1  0  0  0  0
 11 14  1  0  0  0  0
 12  5  1  0  0  0  0
 13 11  1  0  0  0  0
 14 20  1  0  0  0  0
 15 17  1  0  0  0  0
 16 10  1  0  0  0  0
 17  1  1  0  0  0  0
 18  7  1  0  0  0  0
 19 13  1  0  0  0  0
 21  6  2  0  0  0  0
 21  8  1  0  0  0  0
 22 18  2  0  0  0  0
 23 29  1  0  0  0  0
 23 24  1  0  0  0  0
 25 28  1  0  0  0  0
 25 27  1  0  0  0  0
 26 17  1  0  0  0  0
 26 29  1  0  0  0  0
 27 23  1  0  0  0  0
 28 26  1  0  0  0  0
 29 30  1  0  0  0  0
 31 32  1  0  0  0  0
 32 27  1  0  0  0  0
M  END
>  <MODEL>
6

>  <REMARK>
 VINA RESULT:      -3.1      3.717      7.859
  Name = 
  2 active torsions:
  status: ('A' for Active; 'I' for Inactive)
    1  A    between atoms: C_16  and  C_27
    2  A    between atoms: C_19  and  C_26
                            x       y       z     vdW  Elec       q    Type
                         _______ _______ _______ _____ _____    ______ ____

>  <TORSDO>
F 2

$$$$
=
 OpenBabel11062408153D

 32 38  0  0  1  0  0  0  0  0999 V2000
  161.0930  204.8400  149.6970 C   0  0  2  0  0  3  0  0  0  0  0  0
  162.3780  206.9080  150.7250 C   0  0  2  0  0  3  0  0  0  0  0  0
  159.9760  204.2330  150.5280 C   0  0  0  0  0  2  0  0  0  0  0  0
  162.2760  205.3830  150.5460 C   0  0  1  0  0  3  0  0  0  0  0  0
  161.8990  207.4030  152.0850 C   0  0  2  0  0  0  0  0  0  0  0  0
  161.6960  211.5130  149.0870 C   0  0  0  0  0  3  0  0  0  0  0  0
  161.8190  207.7470  149.5720 C   0  0  1  0  0  3  0  0  0  0  0  0
  161.7990  211.0730  151.4660 C   0  0  0  0  0  3  0  0  0  0  0  0
  161.8340  209.6980  151.2170 C   0  0  0  0  0  0  0  0  0  0  0  0
  160.8910  206.5970  152.8950 C   0  0  2  0  0  3  0  0  0  0  0  0
  162.5670  204.6130  151.8650 C   0  0  1  0  0  3  0  0  0  0  0  0
  161.9230  208.8110  152.2950 O   0  0  0  0  0  0  0  0  0  0  0  0
  163.1530  205.4340  152.8690 O   0  0  0  0  0  0  0  0  0  0  0  0
  161.4370  203.7510  152.4530 C   0  0  0  0  0  2  0  0  0  0  0  0
  160.4380  207.2600  149.1660 C   0  0  0  0  0  2  0  0  0  0  0  0
  160.1330  207.4550  153.8940 C   0  0  0  0  0  1  0  0  0  0  0  0
  160.5120  205.8190  148.6680 C   0  0  1  0  0  3  0  0  0  0  0  0
  161.8000  209.2230  149.8850 C   0  0  0  0  0  0  0  0  0  0  0  0
  162.3870  206.5840  153.2690 C   0  0  1  0  0  3  0  0  0  0  0  0
  160.5570  203.1280  151.3860 C   0  0  0  0  0  2  0  0  0  0  0  0
  161.7290  211.9780  150.4050 C   0  0  0  0  0  3  0  0  0  0  0  0
  161.7320  210.1400  148.8290 C   0  0  0  0  0  3  0  0  0  0  0  0
  162.4780  204.3950  145.5840 C   0  0  2  0  0  3  0  0  0  0  0  0
  163.8200  204.6280  145.8860 O   0  0  0  0  0  1  0  0  0  0  0  0
  160.4810  205.7700  144.7710 C   0  0  0  0  0  2  0  0  0  0  0  0
  161.0980  205.6930  147.2550 C   0  0  2  0  0  3  0  0  0  0  0  0
  161.9760  205.4770  144.6070 C   0  0  2  0  0  3  0  0  0  0  0  0
  160.1510  206.2580  146.1870 C   0  0  0  0  0  2  0  0  0  0  0  0
  161.6660  204.3120  146.8830 C   0  0  1  0  0  3  0  0  0  0  0  0
  160.6410  203.3770  146.7250 O   0  0  0  0  0  1  0  0  0  0  0  0
  161.6770  206.0870  142.1690 C   0  0  0  0  0  1  0  0  0  0  0  0
  162.3260  205.1340  143.1620 C   0  0  0  0  0  2  0  0  0  0  0  0
  1  3  1  1  0  0  0
  1  4  1  0  0  0  0
  2  5  1  0  0  0  0
  3 20  1  0  0  0  0
  4  2  1  0  0  0  0
  4 11  1  0  0  0  0
  5 12  1  0  0  0  0
  5 10  1  0  0  0  0
  5 19  1  0  0  0  0
  6 21  1  0  0  0  0
  7 18  1  0  0  0  0
  7  2  1  0  0  0  0
  9  8  1  0  0  0  0
  9 12  1  0  0  0  0
 10 19  1  0  0  0  0
 10 16  1  0  0  0  0
 11 14  1  0  0  0  0
 11 13  1  0  0  0  0
 13 19  1  0  0  0  0
 15  7  1  0  0  0  0
 17 15  1  0  0  0  0
 17  1  1  0  0  0  0
 18  9  2  0  0  0  0
 20 14  1  0  0  0  0
 21  8  2  0  0  0  0
 22  6  2  0  0  0  0
 22 18  1  0  0  0  0
 23 24  1  0  0  0  0
 23 29  1  0  0  0  0
 25 28  1  0  0  0  0
 26 17  1  0  0  0  0
 27 25  1  0  0  0  0
 27 23  1  0  0  0  0
 28 26  1  0  0  0  0
 29 26  1  0  0  0  0
 30 29  1  0  0  0  0
 31 32  1  0  0  0  0
 32 27  1  0  0  0  0
M  END
>  <MODEL>
7

>  <REMARK>
 VINA RESULT:      -2.8      3.493      6.013
  Name = 
  2 active torsions:
  status: ('A' for Active; 'I' for Inactive)
    1  A    between atoms: C_16  and  C_27
    2  A    between atoms: C_19  and  C_26
                            x       y       z     vdW  Elec       q    Type
                         _______ _______ _______ _____ _____    ______ ____

>  <TORSDO>
F 2

$$$$
=
 OpenBabel11062408153D

 32 38  0  0  1  0  0  0  0  0999 V2000
  161.5470  205.5610  152.2290 C   0  0  2  0  0  3  0  0  0  0  0  0
  160.6890  207.0640  150.2320 C   0  0  2  0  0  3  0  0  0  0  0  0
  162.5080  204.4350  151.8870 C   0  0  0  0  0  2  0  0  0  0  0  0
  160.4860  205.8290  151.1260 C   0  0  1  0  0  3  0  0  0  0  0  0
  161.2380  206.7400  148.8470 C   0  0  2  0  0  0  0  0  0  0  0  0
  162.3050  211.6730  149.5200 C   0  0  0  0  0  3  0  0  0  0  0  0
  161.4220  208.2400  150.8860 C   0  0  1  0  0  3  0  0  0  0  0  0
  162.0820  210.1600  147.6420 C   0  0  0  0  0  3  0  0  0  0  0  0
  161.7750  209.1120  148.5140 C   0  0  0  0  0  0  0  0  0  0  0  0
  162.0520  205.4740  148.6100 C   0  0  2  0  0  3  0  0  0  0  0  0
  160.0270  204.5830  150.3170 C   0  0  1  0  0  3  0  0  0  0  0  0
  161.4940  207.8460  147.9890 O   0  0  0  0  0  0  0  0  0  0  0  0
  159.6040  204.9040  148.9960 O   0  0  0  0  0  0  0  0  0  0  0  0
  160.9530  203.3550  150.3110 C   0  0  0  0  0  2  0  0  0  0  0  0
  162.6830  207.7690  151.5920 C   0  0  0  0  0  2  0  0  0  0  0  0
  162.9520  205.5840  147.3910 C   0  0  0  0  0  1  0  0  0  0  0  0
  162.3280  206.7920  152.7100 C   0  0  1  0  0  3  0  0  0  0  0  0
  161.7320  209.3460  149.9080 C   0  0  0  0  0  0  0  0  0  0  0  0
  160.5790  205.5550  148.1620 C   0  0  1  0  0  3  0  0  0  0  0  0
  161.7050  203.1800  151.6170 C   0  0  0  0  0  2  0  0  0  0  0  0
  162.3470  211.4370  148.1430 C   0  0  0  0  0  3  0  0  0  0  0  0
  161.9980  210.6310  150.3990 C   0  0  0  0  0  3  0  0  0  0  0  0
  161.0740  209.5960  155.1530 C   0  0  2  0  0  3  0  0  0  0  0  0
  162.2410  210.1880  155.6360 O   0  0  0  0  0  1  0  0  0  0  0  0
  159.7620  207.4400  155.5710 C   0  0  0  0  0  2  0  0  0  0  0  0
  161.7490  207.4760  153.9550 C   0  0  2  0  0  3  0  0  0  0  0  0
  160.5250  208.6080  156.2030 C   0  0  2  0  0  3  0  0  0  0  0  0
  160.6500  206.6320  154.6170 C   0  0  0  0  0  2  0  0  0  0  0  0
  161.3510  208.9530  153.7880 C   0  0  1  0  0  3  0  0  0  0  0  0
  160.2150  209.0750  152.9830 O   0  0  0  0  0  1  0  0  0  0  0  0
  159.1210  210.6410  156.7560 C   0  0  0  0  0  1  0  0  0  0  0  0
  159.6860  209.3210  157.2600 C   0  0  0  0  0  2  0  0  0  0  0  0
  1  3  1  6  0  0  0
  1 17  1  0  0  0  0
  2  7  1  0  0  0  0
  2  4  1  0  0  0  0
  4  1  1  0  0  0  0
  5  2  1  0  0  0  0
  6 22  1  0  0  0  0
  7 15  1  0  0  0  0
  8 21  1  0  0  0  0
  8  9  2  0  0  0  0
  9 18  1  0  0  0  0
 10  5  1  0  0  0  0
 11  4  1  0  0  0  0
 12  9  1  0  0  0  0
 12  5  1  0  0  0  0
 13 11  1  0  0  0  0
 14 11  1  0  0  0  0
 14 20  1  0  0  0  0
 15 17  1  0  0  0  0
 16 10  1  0  0  0  0
 17 26  1  0  0  0  0
 18 22  2  0  0  0  0
 18  7  1  0  0  0  0
 19 10  1  0  0  0  0
 19  5  1  0  0  0  0
 19 13  1  0  0  0  0
 20  3  1  0  0  0  0
 21  6  2  0  0  0  0
 23 24  1  0  0  0  0
 23 27  1  0  0  0  0
 25 27  1  0  0  0  0
 26 28  1  0  0  0  0
 27 32  1  0  0  0  0
 28 25  1  0  0  0  0
 29 26  1  0  0  0  0
 29 23  1  0  0  0  0
 30 29  1  0  0  0  0
 31 32  1  0  0  0  0
M  END
>  <MODEL>
8

>  <REMARK>
 VINA RESULT:      -2.5      2.718      7.167
  Name = 
  2 active torsions:
  status: ('A' for Active; 'I' for Inactive)
    1  A    between atoms: C_16  and  C_27
    2  A    between atoms: C_19  and  C_26
                            x       y       z     vdW  Elec       q    Type
                         _______ _______ _______ _____ _____    ______ ____

>  <TORSDO>
F 2

$$$$
=
 OpenBabel11062408153D

 32 38  0  0  1  0  0  0  0  0999 V2000
  160.4780  210.9760  151.2710 C   0  0  2  0  0  3  0  0  0  0  0  0
  159.2250  210.0690  153.4140 C   0  0  2  0  0  3  0  0  0  0  0  0
  161.2020  212.3050  151.4000 C   0  0  0  0  0  2  0  0  0  0  0  0
  159.1760  210.8920  152.1140 C   0  0  1  0  0  3  0  0  0  0  0  0
  159.3290  210.9160  154.6770 C   0  0  2  0  0  0  0  0  0  0  0  0
  160.9680  206.3070  156.0910 C   0  0  0  0  0  3  0  0  0  0  0  0
  160.2120  208.8970  153.4170 C   0  0  1  0  0  3  0  0  0  0  0  0
  160.0920  208.2780  157.1910 C   0  0  0  0  0  3  0  0  0  0  0  0
  159.9550  208.9160  155.9550 C   0  0  0  0  0  0  0  0  0  0  0  0
  159.9300  212.3150  154.6270 C   0  0  2  0  0  3  0  0  0  0  0  0
  158.4000  212.2280  152.2900 C   0  0  1  0  0  3  0  0  0  0  0  0
  159.4280  210.2110  155.9090 O   0  0  0  0  0  0  0  0  0  0  0  0
  157.6510  212.2790  153.4990 O   0  0  0  0  0  0  0  0  0  0  0  0
  159.1760  213.5380  152.0710 C   0  0  0  0  0  2  0  0  0  0  0  0
  161.5750  209.3340  152.9060 C   0  0  0  0  0  2  0  0  0  0  0  0
  160.4550  212.7680  155.9790 C   0  0  0  0  0  1  0  0  0  0  0  0
  161.4670  209.8180  151.4620 C   0  0  1  0  0  3  0  0  0  0  0  0
  160.3280  208.2400  154.7700 C   0  0  0  0  0  0  0  0  0  0  0  0
  158.4030  212.1200  154.7150 C   0  0  1  0  0  3  0  0  0  0  0  0
  160.2490  213.4140  151.0060 C   0  0  0  0  0  2  0  0  0  0  0  0
  160.5980  206.9780  157.2600 C   0  0  0  0  0  3  0  0  0  0  0  0
  160.8330  206.9370  154.8510 C   0  0  0  0  0  3  0  0  0  0  0  0
  162.3330  207.2650  148.6090 C   0  0  2  0  0  3  0  0  0  0  0  0
  162.2920  208.0220  147.4370 O   0  0  0  0  0  1  0  0  0  0  0  0
  160.6410  206.2180  150.2160 C   0  0  0  0  0  2  0  0  0  0  0  0
  161.3260  208.6750  150.4470 C   0  0  2  0  0  3  0  0  0  0  0  0
  161.0200  206.4690  148.7530 C   0  0  2  0  0  3  0  0  0  0  0  0
  160.4550  207.5310  150.9870 C   0  0  0  0  0  2  0  0  0  0  0  0
  162.6320  208.1820  149.8020 C   0  0  1  0  0  3  0  0  0  0  0  0
  163.4150  207.4890  150.7290 O   0  0  0  0  0  1  0  0  0  0  0  0
  161.2060  203.9460  148.8450 C   0  0  0  0  0  1  0  0  0  0  0  0
  161.0600  205.1700  147.9530 C   0  0  0  0  0  2  0  0  0  0  0  0
  1  3  1  1  0  0  0
  1 17  1  0  0  0  0
  1  4  1  0  0  0  0
  2  7  1  0  0  0  0
  2  5  1  0  0  0  0
  4 11  1  0  0  0  0
  4  2  1  0  0  0  0
  5 19  1  0  0  0  0
  5 12  1  0  0  0  0
  6 21  1  0  0  0  0
  7 18  1  0  0  0  0
  8 21  2  0  0  0  0
  9  8  1  0  0  0  0
 10  5  1  0  0  0  0
 10 19  1  0  0  0  0
 10 16  1  0  0  0  0
 11 13  1  0  0  0  0
 12  9  1  0  0  0  0
 13 19  1  0  0  0  0
 14 11  1  0  0  0  0
 15  7  1  0  0  0  0
 17 15  1  0  0  0  0
 18 22  1  0  0  0  0
 18  9  2  0  0  0  0
 20  3  1  0  0  0  0
 20 14  1  0  0  0  0
 22  6  2  0  0  0  0
 23 27  1  0  0  0  0
 23 29  1  0  0  0  0
 24 23  1  0  0  0  0
 25 28  1  0  0  0  0
 26 28  1  0  0  0  0
 26 17  1  0  0  0  0
 27 25  1  0  0  0  0
 29 26  1  0  0  0  0
 29 30  1  0  0  0  0
 32 27  1  0  0  0  0
 32 31  1  0  0  0  0
M  END
>  <MODEL>
9

>  <REMARK>
 VINA RESULT:      -2.5      1.669      4.598
  Name = 
  2 active torsions:
  status: ('A' for Active; 'I' for Inactive)
    1  A    between atoms: C_16  and  C_27
    2  A    between atoms: C_19  and  C_26
                            x       y       z     vdW  Elec       q    Type
                         _______ _______ _______ _____ _____    ______ ____

>  <TORSDO>
F 2

$$$$
