=
 OpenBabel11062408183D

 32 36  0  0  1  0  0  0  0  0999 V2000
  160.5910  210.5500  154.9050 C   0  0  1  0  0  3  0  0  0  0  0  0
  160.5780  210.1200  152.3460 C   0  0  0  0  0  2  0  0  0  0  0  0
  160.5470  210.0120  156.2050 O   0  0  0  0  0  0  0  0  0  0  0  0
  161.0200  209.5700  153.6720 C   0  0  2  0  0  0  0  0  0  0  0  0
  161.5480  206.4160  150.9630 C   0  0  0  0  0  2  0  0  0  0  0  0
  162.1390  210.6460  148.8660 C   0  0  0  0  0  1  0  0  0  0  0  0
  162.2780  208.7780  150.5560 C   0  0  1  0  0  3  0  0  0  0  0  0
  161.8630  209.1510  149.3110 C   0  0  2  0  0  3  0  0  0  0  0  0
  161.1200  208.0770  153.9140 C   0  0  2  0  0  3  0  0  0  0  0  0
  162.4740  207.4300  150.8560 O   0  0  0  0  0  0  0  0  0  0  0  0
  160.3120  207.1560  152.9810 C   0  0  0  0  0  2  0  0  0  0  0  0
  160.9070  207.6410  155.3850 C   0  0  0  0  0  2  0  0  0  0  0  0
  162.0170  210.3300  152.7440 C   0  0  1  0  0  3  0  0  0  0  0  0
  161.3090  206.0790  152.4780 C   0  0  1  0  0  3  0  0  0  0  0  0
  161.1720  208.7660  156.3990 C   0  0  0  0  0  2  0  0  0  0  0  0
  162.7630  209.7160  151.6040 O   0  0  0  0  0  0  0  0  0  0  0  0
  162.6130  207.1060  147.8250 C   0  0  0  0  0  1  0  0  0  0  0  0
  161.4910  208.1580  148.1810 C   0  0  0  0  0  2  0  0  0  0  0  0
  161.1600  204.3460  153.1830 S   0  0  0  0  0  0  0  0  0  0  0  0
  161.4930  203.6640  151.5830 C   0  0  0  0  0  1  0  0  0  0  0  0
  158.0530  210.7140  155.4540 C   0  0  0  0  0  1  0  0  0  0  0  0
  159.2710  211.2620  154.6570 C   0  0  1  0  0  3  0  0  0  0  0  0
  159.4120  212.8310  154.6630 C   0  0  2  0  0  3  0  0  0  0  0  0
  157.7680  214.4500  156.0450 C   0  0  0  0  0  1  0  0  0  0  0  0
  159.0800  213.5590  156.0430 C   0  0  2  0  0  3  0  0  0  0  0  0
  160.1590  214.2110  156.5730 O   0  0  0  0  0  1  0  0  0  0  0  0
  158.9110  213.8170  153.5340 C   0  0  0  0  0  2  0  0  0  0  0  0
  156.9300  213.9110  152.3410 C   0  0  0  0  0  2  0  0  0  0  0  0
  158.1990  213.0880  152.4190 C   0  0  2  0  0  0  0  0  0  0  0  0
  157.5210  213.3650  150.9940 C   0  0  2  0  0  3  0  0  0  0  0  0
  159.9140  214.4530  151.0430 C   0  0  0  0  0  1  0  0  0  0  0  0
  159.0170  213.1310  151.1110 C   0  0  1  0  0  3  0  0  0  0  0  0
  1 22  1  6  0  0  0
  1  3  1  0  0  0  0
  3 15  1  0  0  0  0
  4  2  1  6  0  0  0
  4  9  1  0  0  0  0
  4  1  1  0  0  0  0
  5 14  1  0  0  0  0
  7  8  1  6  0  0  0
  7 10  1  0  0  0  0
  7 16  1  0  0  0  0
  8  6  1  6  0  0  0
  9 11  1  6  0  0  0
  9 12  1  0  0  0  0
 10  5  1  0  0  0  0
 12 15  1  0  0  0  0
 13  2  1  6  0  0  0
 13  4  1  0  0  0  0
 14 11  1  0  0  0  0
 14 19  1  6  0  0  0
 16 13  1  0  0  0  0
 17 18  1  0  0  0  0
 18  8  1  0  0  0  0
 20 19  1  0  0  0  0
 22 23  1  0  0  0  0
 22 21  1  1  0  0  0
 23 27  1  6  0  0  0
 23 25  1  0  0  0  0
 25 24  1  6  0  0  0
 25 26  1  0  0  0  0
 28 29  1  0  0  0  0
 29 27  1  1  0  0  0
 30 32  1  0  0  0  0
 30 28  1  1  0  0  0
 30 29  1  0  0  0  0
 32 31  1  1  0  0  0
 32 29  1  0  0  0  0
M  END
>  <MODEL>
1

>  <REMARK>
 VINA RESULT:      -5.0      0.000      0.000
  Name = 
  7 active torsions:
  status: ('A' for Active; 'I' for Inactive)
    1  A    between atoms: C_1  and  C_27
    2  A    between atoms: C_7  and  C_20
    3  A    between atoms: C_12  and  C_31
    4  A    between atoms: S_13  and  C_29
    5  A    between atoms: C_16  and  C_20
    6  A    between atoms: C_16  and  C_22
    7  A    between atoms: C_16  and  C_27
                            x       y       z     vdW  Elec       q    Type
                         _______ _______ _______ _____ _____    ______ ____

>  <TORSDO>
F 7

$$$$
=
 OpenBabel11062408183D

 32 36  0  0  1  0  0  0  0  0999 V2000
  162.0600  207.6080  149.0940 C   0  0  1  0  0  3  0  0  0  0  0  0
  160.9150  207.0190  151.3470 C   0  0  0  0  0  2  0  0  0  0  0  0
  162.3890  208.5950  148.1460 O   0  0  0  0  0  0  0  0  0  0  0  0
  161.6770  208.0810  150.6080 C   0  0  2  0  0  0  0  0  0  0  0  0
  160.2000  209.9910  154.0330 C   0  0  0  0  0  2  0  0  0  0  0  0
  161.0450  205.3770  154.8260 C   0  0  0  0  0  1  0  0  0  0  0  0
  161.3250  207.7530  154.0270 C   0  0  1  0  0  3  0  0  0  0  0  0
  160.5700  206.8870  154.7610 C   0  0  2  0  0  3  0  0  0  0  0  0
  161.4520  209.5540  150.8890 C   0  0  2  0  0  3  0  0  0  0  0  0
  161.2470  209.1260  154.2620 O   0  0  0  0  0  0  0  0  0  0  0  0
  160.1210  209.9490  151.5560 C   0  0  0  0  0  2  0  0  0  0  0  0
  161.7300  210.4930  149.6890 C   0  0  0  0  0  2  0  0  0  0  0  0
  162.3900  207.1410  151.6280 C   0  0  1  0  0  3  0  0  0  0  0  0
  160.5000  210.8550  152.7570 C   0  0  1  0  0  3  0  0  0  0  0  0
  162.6730  209.8820  148.6400 C   0  0  0  0  0  2  0  0  0  0  0  0
  162.4230  207.3500  153.1080 O   0  0  0  0  0  0  0  0  0  0  0  0
  160.1070  207.5940  157.2590 C   0  0  0  0  0  1  0  0  0  0  0  0
  159.5230  207.3210  155.8180 C   0  0  0  0  0  2  0  0  0  0  0  0
  160.1740  212.6970  152.6040 S   0  0  0  0  0  0  0  0  0  0  0  0
  158.4470  212.3760  152.3880 C   0  0  0  0  0  1  0  0  0  0  0  0
  160.3870  207.2210  147.1380 C   0  0  0  0  0  1  0  0  0  0  0  0
  161.0010  206.7110  148.4740 C   0  0  1  0  0  3  0  0  0  0  0  0
  161.4110  205.1900  148.4720 C   0  0  2  0  0  3  0  0  0  0  0  0
  161.3740  203.1510  146.7190 C   0  0  0  0  0  1  0  0  0  0  0  0
  161.9110  204.6000  147.0770 C   0  0  2  0  0  3  0  0  0  0  0  0
  163.2620  204.7180  146.9040 O   0  0  0  0  0  1  0  0  0  0  0  0
  160.6240  204.0110  149.1720 C   0  0  0  0  0  2  0  0  0  0  0  0
  160.6310  203.9420  151.4860 C   0  0  0  0  0  2  0  0  0  0  0  0
  161.4110  203.3980  150.3070 C   0  0  2  0  0  0  0  0  0  0  0  0
  161.2030  202.4860  151.6060 C   0  0  2  0  0  3  0  0  0  0  0  0
  160.0390  201.3400  149.5460 C   0  0  0  0  0  1  0  0  0  0  0  0
  161.3860  201.8570  150.2370 C   0  0  1  0  0  3  0  0  0  0  0  0
  1 22  1  6  0  0  0
  1  4  1  0  0  0  0
  3 15  1  0  0  0  0
  3  1  1  0  0  0  0
  4  9  1  0  0  0  0
  4  2  1  1  0  0  0
  4 13  1  0  0  0  0
  5 10  1  0  0  0  0
  7 10  1  0  0  0  0
  7  8  1  1  0  0  0
  8  6  1  1  0  0  0
  8 18  1  0  0  0  0
  9 12  1  6  0  0  0
  9 11  1  0  0  0  0
 11 14  1  0  0  0  0
 13  2  1  1  0  0  0
 13 16  1  0  0  0  0
 14 19  1  1  0  0  0
 14  5  1  0  0  0  0
 15 12  1  0  0  0  0
 16  7  1  0  0  0  0
 18 17  1  0  0  0  0
 20 19  1  0  0  0  0
 22 21  1  6  0  0  0
 23 22  1  0  0  0  0
 23 27  1  6  0  0  0
 25 24  1  1  0  0  0
 25 23  1  0  0  0  0
 26 25  1  0  0  0  0
 29 27  1  6  0  0  0
 29 28  1  0  0  0  0
 29 30  1  0  0  0  0
 30 28  1  6  0  0  0
 32 31  1  6  0  0  0
 32 29  1  0  0  0  0
 32 30  1  0  0  0  0
M  END
>  <MODEL>
2

>  <REMARK>
 VINA RESULT:      -4.0      2.611      8.655
  Name = 
  7 active torsions:
  status: ('A' for Active; 'I' for Inactive)
    1  A    between atoms: C_1  and  C_27
    2  A    between atoms: C_7  and  C_20
    3  A    between atoms: C_12  and  C_31
    4  A    between atoms: S_13  and  C_29
    5  A    between atoms: C_16  and  C_20
    6  A    between atoms: C_16  and  C_22
    7  A    between atoms: C_16  and  C_27
                            x       y       z     vdW  Elec       q    Type
                         _______ _______ _______ _____ _____    ______ ____

>  <TORSDO>
F 7

$$$$
=
 OpenBabel11062408183D

 32 36  0  0  1  0  0  0  0  0999 V2000
  161.7400  206.5760  150.2790 C   0  0  1  0  0  3  0  0  0  0  0  0
  160.4860  207.2470  152.4490 C   0  0  0  0  0  2  0  0  0  0  0  0
  162.2590  206.9700  149.0310 O   0  0  0  0  0  0  0  0  0  0  0  0
  161.4430  207.7280  151.3960 C   0  0  2  0  0  0  0  0  0  0  0  0
  160.3320  211.1760  153.5040 C   0  0  0  0  0  2  0  0  0  0  0  0
  160.2730  207.3210  156.2920 C   0  0  0  0  0  1  0  0  0  0  0  0
  161.0090  209.0130  154.5720 C   0  0  1  0  0  3  0  0  0  0  0  0
  160.0970  208.7020  155.5360 C   0  0  2  0  0  3  0  0  0  0  0  0
  161.5010  209.1870  150.9890 C   0  0  2  0  0  3  0  0  0  0  0  0
  161.1930  210.3390  154.1790 O   0  0  0  0  0  0  0  0  0  0  0  0
  160.2660  210.0540  151.2940 C   0  0  0  0  0  2  0  0  0  0  0  0
  161.9630  209.4360  149.5320 C   0  0  0  0  0  2  0  0  0  0  0  0
  161.9560  207.2320  152.7840 C   0  0  1  0  0  3  0  0  0  0  0  0
  160.8020  211.3200  152.0130 C   0  0  1  0  0  3  0  0  0  0  0  0
  162.7800  208.2740  148.9420 C   0  0  0  0  0  2  0  0  0  0  0  0
  162.0160  208.0660  154.0220 O   0  0  0  0  0  0  0  0  0  0  0  0
  159.8260  210.6790  157.2610 C   0  0  0  0  0  1  0  0  0  0  0  0
  159.1440  209.7290  156.2000 C   0  0  0  0  0  2  0  0  0  0  0  0
  160.8350  212.9290  151.0480 S   0  0  0  0  0  0  0  0  0  0  0  0
  159.3040  213.4120  151.7950 C   0  0  0  0  0  1  0  0  0  0  0  0
  159.6950  206.0540  148.7560 C   0  0  0  0  0  1  0  0  0  0  0  0
  160.5330  205.6900  150.0150 C   0  0  1  0  0  3  0  0  0  0  0  0
  160.8550  204.1560  150.1720 C   0  0  2  0  0  3  0  0  0  0  0  0
  161.9850  202.2230  151.6630 C   0  0  0  0  0  1  0  0  0  0  0  0
  161.3960  203.6950  151.6000 C   0  0  2  0  0  3  0  0  0  0  0  0
  160.5120  203.9510  152.6120 O   0  0  0  0  0  1  0  0  0  0  0  0
  161.6110  203.2490  149.1210 C   0  0  0  0  0  2  0  0  0  0  0  0
  161.8360  203.6360  146.8500 C   0  0  0  0  0  2  0  0  0  0  0  0
  160.8270  203.0910  147.8390 C   0  0  2  0  0  0  0  0  0  0  0  0
  160.9500  202.4270  146.3870 C   0  0  2  0  0  3  0  0  0  0  0  0
  161.5780  200.6430  148.2140 C   0  0  0  0  0  1  0  0  0  0  0  0
  160.4770  201.6110  147.5770 C   0  0  1  0  0  3  0  0  0  0  0  0
  1 22  1  6  0  0  0
  1  4  1  0  0  0  0
  3  1  1  0  0  0  0
  4  2  1  1  0  0  0
  4 13  1  0  0  0  0
  5 10  1  0  0  0  0
  7  8  1  1  0  0  0
  8 18  1  0  0  0  0
  8  6  1  1  0  0  0
  9 12  1  6  0  0  0
  9 11  1  0  0  0  0
  9  4  1  0  0  0  0
 10  7  1  0  0  0  0
 11 14  1  0  0  0  0
 13  2  1  1  0  0  0
 13 16  1  0  0  0  0
 14 19  1  6  0  0  0
 14  5  1  0  0  0  0
 15  3  1  0  0  0  0
 15 12  1  0  0  0  0
 16  7  1  0  0  0  0
 18 17  1  0  0  0  0
 19 20  1  0  0  0  0
 22 21  1  6  0  0  0
 22 23  1  0  0  0  0
 23 27  1  6  0  0  0
 23 25  1  0  0  0  0
 25 24  1  6  0  0  0
 25 26  1  0  0  0  0
 28 29  1  0  0  0  0
 29 27  1  1  0  0  0
 30 28  1  1  0  0  0
 30 32  1  0  0  0  0
 30 29  1  0  0  0  0
 32 29  1  0  0  0  0
 32 31  1  1  0  0  0
M  END
>  <MODEL>
3

>  <REMARK>
 VINA RESULT:      -4.0      2.849      8.667
  Name = 
  7 active torsions:
  status: ('A' for Active; 'I' for Inactive)
    1  A    between atoms: C_1  and  C_27
    2  A    between atoms: C_7  and  C_20
    3  A    between atoms: C_12  and  C_31
    4  A    between atoms: S_13  and  C_29
    5  A    between atoms: C_16  and  C_20
    6  A    between atoms: C_16  and  C_22
    7  A    between atoms: C_16  and  C_27
                            x       y       z     vdW  Elec       q    Type
                         _______ _______ _______ _____ _____    ______ ____

>  <TORSDO>
F 7

$$$$
=
 OpenBabel11062408183D

 32 36  0  0  1  0  0  0  0  0999 V2000
  160.0700  212.0970  153.3630 C   0  0  1  0  0  3  0  0  0  0  0  0
  160.1170  209.8990  151.9840 C   0  0  0  0  0  2  0  0  0  0  0  0
  160.0670  212.7090  154.6300 O   0  0  0  0  0  0  0  0  0  0  0  0
  160.5980  210.5570  153.2450 C   0  0  2  0  0  0  0  0  0  0  0  0
  161.4430  206.4840  153.7590 C   0  0  0  0  0  2  0  0  0  0  0  0
  161.6470  207.7530  149.1780 C   0  0  0  0  0  1  0  0  0  0  0  0
  161.9500  207.7900  151.6820 C   0  0  1  0  0  3  0  0  0  0  0  0
  161.5110  207.0790  150.6050 C   0  0  2  0  0  3  0  0  0  0  0  0
  160.8380  209.7580  154.5110 C   0  0  2  0  0  3  0  0  0  0  0  0
  162.2700  207.1380  152.8720 O   0  0  0  0  0  0  0  0  0  0  0  0
  160.1280  208.3960  154.6300 C   0  0  0  0  0  2  0  0  0  0  0  0
  160.6560  210.5550  155.8260 C   0  0  0  0  0  2  0  0  0  0  0  0
  161.5260  210.4340  151.9970 C   0  0  1  0  0  3  0  0  0  0  0  0
  161.2260  207.3780  155.0320 C   0  0  1  0  0  3  0  0  0  0  0  0
  160.8060  212.0750  155.6460 C   0  0  0  0  0  2  0  0  0  0  0  0
  162.3350  209.2270  151.6480 O   0  0  0  0  0  0  0  0  0  0  0  0
  160.8530  204.9340  149.2180 C   0  0  0  0  0  1  0  0  0  0  0  0
  161.2420  205.5520  150.6180 C   0  0  0  0  0  2  0  0  0  0  0  0
  161.2360  206.7490  156.8000 S   0  0  0  0  0  0  0  0  0  0  0  0
  159.4700  206.8560  156.8510 C   0  0  0  0  0  1  0  0  0  0  0  0
  157.5320  211.5270  153.4590 C   0  0  0  0  0  1  0  0  0  0  0  0
  158.6900  212.2920  152.7550 C   0  0  1  0  0  3  0  0  0  0  0  0
  158.3770  213.7980  152.4180 C   0  0  2  0  0  3  0  0  0  0  0  0
  157.1660  214.3200  154.7620 C   0  0  0  0  0  1  0  0  0  0  0  0
  157.1340  214.4430  153.1810 C   0  0  2  0  0  3  0  0  0  0  0  0
  155.9310  214.0690  152.6490 O   0  0  0  0  0  1  0  0  0  0  0  0
  158.3750  214.4520  150.9790 C   0  0  0  0  0  2  0  0  0  0  0  0
  157.2760  214.1220  148.9680 C   0  0  0  0  0  2  0  0  0  0  0  0
  158.2530  213.4160  149.8850 C   0  0  2  0  0  0  0  0  0  0  0  0
  158.4090  213.2680  148.2980 C   0  0  2  0  0  3  0  0  0  0  0  0
  160.5440  214.4520  149.2730 C   0  0  0  0  0  1  0  0  0  0  0  0
  159.6160  213.1510  149.2120 C   0  0  1  0  0  3  0  0  0  0  0  0
  1 22  1  1  0  0  0
  1  3  1  0  0  0  0
  3 15  1  0  0  0  0
  4  2  1  6  0  0  0
  4  1  1  0  0  0  0
  4  9  1  0  0  0  0
  5 14  1  0  0  0  0
  7  8  1  6  0  0  0
  7 10  1  0  0  0  0
  8  6  1  6  0  0  0
  8 18  1  0  0  0  0
  9 11  1  1  0  0  0
  9 12  1  0  0  0  0
 10  5  1  0  0  0  0
 11 14  1  0  0  0  0
 13  2  1  6  0  0  0
 13  4  1  0  0  0  0
 14 19  1  1  0  0  0
 15 12  1  0  0  0  0
 16  7  1  0  0  0  0
 16 13  1  0  0  0  0
 17 18  1  0  0  0  0
 19 20  1  0  0  0  0
 22 21  1  1  0  0  0
 23 27  1  6  0  0  0
 23 22  1  0  0  0  0
 23 25  1  0  0  0  0
 25 24  1  1  0  0  0
 26 25  1  0  0  0  0
 28 29  1  0  0  0  0
 29 27  1  1  0  0  0
 30 28  1  6  0  0  0
 30 32  1  0  0  0  0
 30 29  1  0  0  0  0
 32 31  1  6  0  0  0
 32 29  1  0  0  0  0
M  END
>  <MODEL>
4

>  <REMARK>
 VINA RESULT:      -3.7      1.969      2.919
  Name = 
  7 active torsions:
  status: ('A' for Active; 'I' for Inactive)
    1  A    between atoms: C_1  and  C_27
    2  A    between atoms: C_7  and  C_20
    3  A    between atoms: C_12  and  C_31
    4  A    between atoms: S_13  and  C_29
    5  A    between atoms: C_16  and  C_20
    6  A    between atoms: C_16  and  C_22
    7  A    between atoms: C_16  and  C_27
                            x       y       z     vdW  Elec       q    Type
                         _______ _______ _______ _____ _____    ______ ____

>  <TORSDO>
F 7

$$$$
=
 OpenBabel11062408183D

 32 36  0  0  1  0  0  0  0  0999 V2000
  161.2240  208.9620  154.0220 C   0  0  1  0  0  3  0  0  0  0  0  0
  160.8930  210.1970  151.7640 C   0  0  0  0  0  2  0  0  0  0  0  0
  161.2580  207.7390  154.7190 O   0  0  0  0  0  0  0  0  0  0  0  0
  161.4090  208.9380  152.4010 C   0  0  2  0  0  0  0  0  0  0  0  0
  161.2980  208.1080  148.2950 C   0  0  0  0  0  2  0  0  0  0  0  0
  162.1250  212.7180  149.1290 C   0  0  0  0  0  1  0  0  0  0  0  0
  162.2360  210.2030  149.2960 C   0  0  1  0  0  3  0  0  0  0  0  0
  161.7360  211.2720  148.6130 C   0  0  2  0  0  3  0  0  0  0  0  0
  161.3700  207.6100  151.6700 C   0  0  2  0  0  3  0  0  0  0  0  0
  162.3140  208.9520  148.6850 O   0  0  0  0  0  0  0  0  0  0  0  0
  160.3720  207.4760  150.5060 C   0  0  0  0  0  2  0  0  0  0  0  0
  161.2670  206.3670  152.5880 C   0  0  0  0  0  2  0  0  0  0  0  0
  162.3800  210.0860  151.9850 C   0  0  1  0  0  3  0  0  0  0  0  0
  161.1860  206.9150  149.3100 C   0  0  1  0  0  3  0  0  0  0  0  0
  161.7600  206.6240  154.0220 C   0  0  0  0  0  2  0  0  0  0  0  0
  162.9290  210.2880  150.6100 O   0  0  0  0  0  0  0  0  0  0  0  0
  160.3840  212.4940  146.7070 C   0  0  0  0  0  1  0  0  0  0  0  0
  161.1390  211.1920  147.1840 C   0  0  0  0  0  2  0  0  0  0  0  0
  160.9230  205.1190  148.8340 S   0  0  0  0  0  0  0  0  0  0  0  0
  162.1780  205.2610  147.5930 C   0  0  0  0  0  1  0  0  0  0  0  0
  158.9780  208.8880  155.3360 C   0  0  0  0  0  1  0  0  0  0  0  0
  159.9710  209.7040  154.4590 C   0  0  1  0  0  3  0  0  0  0  0  0
  160.2740  211.1580  154.9850 C   0  0  2  0  0  3  0  0  0  0  0  0
  158.8460  211.2880  157.2600 C   0  0  0  0  0  1  0  0  0  0  0  0
  160.2730  211.3460  156.5690 C   0  0  2  0  0  3  0  0  0  0  0  0
  161.0120  212.4210  156.9770 O   0  0  0  0  0  1  0  0  0  0  0  0
  159.6840  212.5030  154.3990 C   0  0  0  0  0  2  0  0  0  0  0  0
  157.6300  213.5290  154.6920 C   0  0  0  0  0  2  0  0  0  0  0  0
  158.2450  212.3500  153.9650 C   0  0  2  0  0  0  0  0  0  0  0  0
  157.0680  213.1830  153.2680 C   0  0  2  0  0  3  0  0  0  0  0  0
  159.2550  213.3950  151.8230 C   0  0  0  0  0  1  0  0  0  0  0  0
  158.1090  212.4600  152.4320 C   0  0  1  0  0  3  0  0  0  0  0  0
  1 22  1  6  0  0  0
  1  3  1  0  0  0  0
  4  2  1  6  0  0  0
  4  1  1  0  0  0  0
  5 10  1  0  0  0  0
  5 14  1  0  0  0  0
  7  8  1  6  0  0  0
  7 16  1  0  0  0  0
  8  6  1  6  0  0  0
  9 11  1  6  0  0  0
  9  4  1  0  0  0  0
  9 12  1  0  0  0  0
 10  7  1  0  0  0  0
 12 15  1  0  0  0  0
 13  2  1  6  0  0  0
 13  4  1  0  0  0  0
 14 19  1  6  0  0  0
 14 11  1  0  0  0  0
 15  3  1  0  0  0  0
 16 13  1  0  0  0  0
 17 18  1  0  0  0  0
 18  8  1  0  0  0  0
 20 19  1  0  0  0  0
 22 23  1  0  0  0  0
 22 21  1  1  0  0  0
 23 27  1  6  0  0  0
 23 25  1  0  0  0  0
 25 26  1  0  0  0  0
 25 24  1  6  0  0  0
 29 27  1  1  0  0  0
 29 28  1  0  0  0  0
 30 29  1  0  0  0  0
 30 28  1  1  0  0  0
 32 31  1  1  0  0  0
 32 30  1  0  0  0  0
 32 29  1  0  0  0  0
M  END
>  <MODEL>
5

>  <REMARK>
 VINA RESULT:      -3.2      1.764      2.680
  Name = 
  7 active torsions:
  status: ('A' for Active; 'I' for Inactive)
    1  A    between atoms: C_1  and  C_27
    2  A    between atoms: C_7  and  C_20
    3  A    between atoms: C_12  and  C_31
    4  A    between atoms: S_13  and  C_29
    5  A    between atoms: C_16  and  C_20
    6  A    between atoms: C_16  and  C_22
    7  A    between atoms: C_16  and  C_27
                            x       y       z     vdW  Elec       q    Type
                         _______ _______ _______ _____ _____    ______ ____

>  <TORSDO>
F 7

$$$$
=
 OpenBabel11062408183D

 32 36  0  0  1  0  0  0  0  0999 V2000
  161.2390  209.1420  154.5310 C   0  0  1  0  0  3  0  0  0  0  0  0
  160.8980  208.9230  151.9670 C   0  0  0  0  0  2  0  0  0  0  0  0
  161.2550  208.5120  155.7890 O   0  0  0  0  0  0  0  0  0  0  0  0
  161.3940  208.2160  153.1960 C   0  0  2  0  0  0  0  0  0  0  0  0
  161.1890  205.2470  150.2460 C   0  0  0  0  0  2  0  0  0  0  0  0
  162.1450  209.5150  148.3740 C   0  0  0  0  0  1  0  0  0  0  0  0
  162.1960  207.5150  149.9110 C   0  0  1  0  0  3  0  0  0  0  0  0
  161.7100  208.0380  148.7490 C   0  0  2  0  0  3  0  0  0  0  0  0
  161.3080  206.7080  153.3270 C   0  0  2  0  0  3  0  0  0  0  0  0
  162.2320  206.1340  150.0990 O   0  0  0  0  0  0  0  0  0  0  0  0
  160.2860  205.9790  152.4350 C   0  0  0  0  0  2  0  0  0  0  0  0
  161.1920  206.1880  154.7810 C   0  0  0  0  0  2  0  0  0  0  0  0
  162.3850  208.9090  152.2110 C   0  0  1  0  0  3  0  0  0  0  0  0
  161.0650  204.8240  151.7530 C   0  0  1  0  0  3  0  0  0  0  0  0
  161.7170  207.1830  155.8300 C   0  0  0  0  0  2  0  0  0  0  0  0
  162.9150  208.2950  150.9550 O   0  0  0  0  0  0  0  0  0  0  0  0
  162.1050  206.2780  146.8260 C   0  0  0  0  0  1  0  0  0  0  0  0
  161.0860  207.1970  147.6070 C   0  0  0  0  0  2  0  0  0  0  0  0
  160.7490  203.0750  152.3560 S   0  0  0  0  0  0  0  0  0  0  0  0
  161.1230  202.4480  150.7430 C   0  0  0  0  0  1  0  0  0  0  0  0
  158.7660  209.5170  155.2520 C   0  0  0  0  0  1  0  0  0  0  0  0
  160.0130  210.0400  154.4820 C   0  0  1  0  0  3  0  0  0  0  0  0
  160.3550  211.5570  154.7340 C   0  0  2  0  0  3  0  0  0  0  0  0
  160.2890  213.5370  156.5540 C   0  0  0  0  0  1  0  0  0  0  0  0
  160.5180  211.9950  156.2590 C   0  0  2  0  0  3  0  0  0  0  0  0
  161.6640  211.5150  156.8310 O   0  0  0  0  0  1  0  0  0  0  0  0
  159.6950  212.7960  154.0070 C   0  0  0  0  0  2  0  0  0  0  0  0
  157.6240  213.3230  154.8970 C   0  0  0  0  0  2  0  0  0  0  0  0
  158.2270  212.5730  153.7270 C   0  0  2  0  0  0  0  0  0  0  0  0
  156.8680  213.3950  153.5240 C   0  0  2  0  0  3  0  0  0  0  0  0
  158.7420  214.4260  151.9950 C   0  0  0  0  0  1  0  0  0  0  0  0
  157.8210  213.1720  152.3640 C   0  0  1  0  0  3  0  0  0  0  0  0
  1 22  1  6  0  0  0
  1  3  1  0  0  0  0
  3 15  1  0  0  0  0
  4  2  1  6  0  0  0
  4  9  1  0  0  0  0
  4  1  1  0  0  0  0
  5 14  1  0  0  0  0
  7  8  1  6  0  0  0
  7 10  1  0  0  0  0
  7 16  1  0  0  0  0
  8  6  1  6  0  0  0
  9 11  1  6  0  0  0
  9 12  1  0  0  0  0
 10  5  1  0  0  0  0
 12 15  1  0  0  0  0
 13  2  1  6  0  0  0
 13  4  1  0  0  0  0
 14 19  1  6  0  0  0
 14 11  1  0  0  0  0
 16 13  1  0  0  0  0
 17 18  1  0  0  0  0
 18  8  1  0  0  0  0
 20 19  1  0  0  0  0
 22 23  1  0  0  0  0
 22 21  1  1  0  0  0
 23 27  1  1  0  0  0
 23 25  1  0  0  0  0
 25 24  1  6  0  0  0
 25 26  1  0  0  0  0
 29 27  1  1  0  0  0
 29 28  1  0  0  0  0
 30 29  1  0  0  0  0
 30 28  1  1  0  0  0
 32 31  1  1  0  0  0
 32 30  1  0  0  0  0
 32 29  1  0  0  0  0
M  END
>  <MODEL>
6

>  <REMARK>
 VINA RESULT:      -3.2      1.372      1.724
  Name = 
  7 active torsions:
  status: ('A' for Active; 'I' for Inactive)
    1  A    between atoms: C_1  and  C_27
    2  A    between atoms: C_7  and  C_20
    3  A    between atoms: C_12  and  C_31
    4  A    between atoms: S_13  and  C_29
    5  A    between atoms: C_16  and  C_20
    6  A    between atoms: C_16  and  C_22
    7  A    between atoms: C_16  and  C_27
                            x       y       z     vdW  Elec       q    Type
                         _______ _______ _______ _____ _____    ______ ____

>  <TORSDO>
F 7

$$$$
=
 OpenBabel11062408183D

 32 36  0  0  1  0  0  0  0  0999 V2000
  161.8160  208.3440  150.4620 C   0  0  1  0  0  3  0  0  0  0  0  0
  160.3640  208.8190  152.5600 C   0  0  0  0  0  2  0  0  0  0  0  0
  162.3180  208.8040  149.2300 O   0  0  0  0  0  0  0  0  0  0  0  0
  161.2720  209.4430  151.5390 C   0  0  2  0  0  0  0  0  0  0  0  0
  159.4830  212.6750  153.5170 C   0  0  0  0  0  2  0  0  0  0  0  0
  159.9610  208.9110  156.3870 C   0  0  0  0  0  1  0  0  0  0  0  0
  160.4730  210.6800  154.6620 C   0  0  1  0  0  3  0  0  0  0  0  0
  159.5840  210.2290  155.5930 C   0  0  2  0  0  3  0  0  0  0  0  0
  161.0960  210.8840  151.1010 C   0  0  2  0  0  3  0  0  0  0  0  0
  160.4420  212.0110  154.2490 O   0  0  0  0  0  0  0  0  0  0  0  0
  159.7160  211.5270  151.3330 C   0  0  0  0  0  2  0  0  0  0  0  0
  161.5750  211.1880  149.6610 C   0  0  0  0  0  2  0  0  0  0  0  0
  161.7970  209.0640  152.9590 C   0  0  1  0  0  3  0  0  0  0  0  0
  159.9900  212.8770  152.0450 C   0  0  1  0  0  3  0  0  0  0  0  0
  162.6080  210.1780  149.1340 C   0  0  0  0  0  2  0  0  0  0  0  0
  161.6540  209.9150  154.1790 O   0  0  0  0  0  0  0  0  0  0  0  0
  157.0500  210.9450  155.4510 C   0  0  0  0  0  1  0  0  0  0  0  0
  158.4370  211.0840  156.1910 C   0  0  0  0  0  2  0  0  0  0  0  0
  159.7890  214.4530  151.0460 S   0  0  0  0  0  0  0  0  0  0  0  0
  158.3570  213.7750  150.2570 C   0  0  0  0  0  1  0  0  0  0  0  0
  160.3720  207.1210  148.6750 C   0  0  0  0  0  1  0  0  0  0  0  0
  160.7950  207.2570  150.1670 C   0  0  1  0  0  3  0  0  0  0  0  0
  161.1260  205.8950  150.8840 C   0  0  2  0  0  3  0  0  0  0  0  0
  163.3720  205.5670  152.3280 C   0  0  0  0  0  1  0  0  0  0  0  0
  161.8480  206.0060  152.3030 C   0  0  2  0  0  3  0  0  0  0  0  0
  161.1210  205.4420  153.3150 O   0  0  0  0  0  1  0  0  0  0  0  0
  161.7320  204.6040  150.2020 C   0  0  0  0  0  2  0  0  0  0  0  0
  161.2720  203.1840  148.4330 C   0  0  0  0  0  2  0  0  0  0  0  0
  160.6560  203.6500  149.7360 C   0  0  2  0  0  0  0  0  0  0  0  0
  160.4680  202.1290  149.2710 C   0  0  2  0  0  3  0  0  0  0  0  0
  161.8110  202.1860  151.5310 C   0  0  0  0  0  1  0  0  0  0  0  0
  160.4550  202.4990  150.7440 C   0  0  1  0  0  3  0  0  0  0  0  0
  1 22  1  6  0  0  0
  1  4  1  0  0  0  0
  3  1  1  0  0  0  0
  4  2  1  1  0  0  0
  4 13  1  0  0  0  0
  5 10  1  0  0  0  0
  7  8  1  1  0  0  0
  8 18  1  0  0  0  0
  8  6  1  1  0  0  0
  9 12  1  6  0  0  0
  9 11  1  0  0  0  0
  9  4  1  0  0  0  0
 10  7  1  0  0  0  0
 11 14  1  0  0  0  0
 13  2  1  1  0  0  0
 13 16  1  0  0  0  0
 14 19  1  6  0  0  0
 14  5  1  0  0  0  0
 15  3  1  0  0  0  0
 15 12  1  0  0  0  0
 16  7  1  0  0  0  0
 17 18  1  0  0  0  0
 20 19  1  0  0  0  0
 22 21  1  6  0  0  0
 22 23  1  0  0  0  0
 23 27  1  6  0  0  0
 23 25  1  0  0  0  0
 25 24  1  6  0  0  0
 25 26  1  0  0  0  0
 28 29  1  0  0  0  0
 29 27  1  6  0  0  0
 29 32  1  0  0  0  0
 30 28  1  1  0  0  0
 30 29  1  0  0  0  0
 30 32  1  0  0  0  0
 32 31  1  1  0  0  0
M  END
>  <MODEL>
7

>  <REMARK>
 VINA RESULT:      -3.0      2.527      8.168
  Name = 
  7 active torsions:
  status: ('A' for Active; 'I' for Inactive)
    1  A    between atoms: C_1  and  C_27
    2  A    between atoms: C_7  and  C_20
    3  A    between atoms: C_12  and  C_31
    4  A    between atoms: S_13  and  C_29
    5  A    between atoms: C_16  and  C_20
    6  A    between atoms: C_16  and  C_22
    7  A    between atoms: C_16  and  C_27
                            x       y       z     vdW  Elec       q    Type
                         _______ _______ _______ _____ _____    ______ ____

>  <TORSDO>
F 7

$$$$
=
 OpenBabel11062408183D

 32 36  0  0  1  0  0  0  0  0999 V2000
  161.8760  206.8090  150.0580 C   0  0  1  0  0  3  0  0  0  0  0  0
  160.5390  208.0130  151.9280 C   0  0  0  0  0  2  0  0  0  0  0  0
  162.4810  206.8820  148.7890 O   0  0  0  0  0  0  0  0  0  0  0  0
  161.5740  208.2000  150.8560 C   0  0  2  0  0  0  0  0  0  0  0  0
  160.5170  212.0820  152.0300 C   0  0  0  0  0  2  0  0  0  0  0  0
  160.1200  208.9930  155.6270 C   0  0  0  0  0  1  0  0  0  0  0  0
  161.0290  210.2080  153.6120 C   0  0  1  0  0  3  0  0  0  0  0  0
  160.0520  210.1640  154.5610 C   0  0  2  0  0  3  0  0  0  0  0  0
  161.7240  209.5200  150.1250 C   0  0  2  0  0  3  0  0  0  0  0  0
  161.2980  211.3980  152.9350 O   0  0  0  0  0  0  0  0  0  0  0  0
  160.5170  210.4760  150.1410 C   0  0  0  0  0  2  0  0  0  0  0  0
  162.2760  209.4050  148.6830 C   0  0  0  0  0  2  0  0  0  0  0  0
  161.9850  208.0260  152.3500 C   0  0  1  0  0  3  0  0  0  0  0  0
  161.0730  211.8560  150.5790 C   0  0  1  0  0  3  0  0  0  0  0  0
  163.0680  208.1100  148.4330 C   0  0  0  0  0  2  0  0  0  0  0  0
  162.0180  209.1250  153.3630 O   0  0  0  0  0  0  0  0  0  0  0  0
  157.6850  211.2820  154.2390 C   0  0  0  0  0  1  0  0  0  0  0  0
  159.1150  211.3490  154.9060 C   0  0  0  0  0  2  0  0  0  0  0  0
  161.2370  213.1920  149.2710 S   0  0  0  0  0  0  0  0  0  0  0  0
  162.6120  212.3330  148.5610 C   0  0  0  0  0  1  0  0  0  0  0  0
  159.7410  206.2100  148.6950 C   0  0  0  0  0  1  0  0  0  0  0  0
  160.6440  205.9270  149.9300 C   0  0  1  0  0  3  0  0  0  0  0  0
  160.9530  204.4040  150.1860 C   0  0  2  0  0  3  0  0  0  0  0  0
  161.7070  202.4870  151.9150 C   0  0  0  0  0  1  0  0  0  0  0  0
  161.5260  204.0370  151.6280 C   0  0  2  0  0  3  0  0  0  0  0  0
  160.8760  204.6870  152.6400 O   0  0  0  0  0  1  0  0  0  0  0  0
  161.6710  203.4160  149.1820 C   0  0  0  0  0  2  0  0  0  0  0  0
  161.8900  203.6350  146.8880 C   0  0  0  0  0  2  0  0  0  0  0  0
  160.8670  203.2060  147.9200 C   0  0  2  0  0  0  0  0  0  0  0  0
  160.9450  202.4390  146.5160 C   0  0  2  0  0  3  0  0  0  0  0  0
  161.5110  200.7580  148.4570 C   0  0  0  0  0  1  0  0  0  0  0  0
  160.4470  201.7300  147.7630 C   0  0  1  0  0  3  0  0  0  0  0  0
  1 22  1  6  0  0  0
  1  4  1  0  0  0  0
  3  1  1  0  0  0  0
  4  2  1  1  0  0  0
  4 13  1  0  0  0  0
  5 10  1  0  0  0  0
  7  8  1  1  0  0  0
  8 18  1  0  0  0  0
  8  6  1  1  0  0  0
  9 12  1  6  0  0  0
  9 11  1  0  0  0  0
  9  4  1  0  0  0  0
 10  7  1  0  0  0  0
 11 14  1  0  0  0  0
 13  2  1  1  0  0  0
 13 16  1  0  0  0  0
 14 19  1  6  0  0  0
 14  5  1  0  0  0  0
 15 12  1  0  0  0  0
 15  3  1  0  0  0  0
 16  7  1  0  0  0  0
 17 18  1  0  0  0  0
 20 19  1  0  0  0  0
 22 21  1  6  0  0  0
 22 23  1  0  0  0  0
 23 27  1  6  0  0  0
 23 25  1  0  0  0  0
 25 24  1  1  0  0  0
 25 26  1  0  0  0  0
 28 29  1  0  0  0  0
 29 27  1  1  0  0  0
 30 28  1  1  0  0  0
 30 32  1  0  0  0  0
 30 29  1  0  0  0  0
 32 29  1  0  0  0  0
 32 31  1  1  0  0  0
M  END
>  <MODEL>
8

>  <REMARK>
 VINA RESULT:      -2.7      2.877      8.520
  Name = 
  7 active torsions:
  status: ('A' for Active; 'I' for Inactive)
    1  A    between atoms: C_1  and  C_27
    2  A    between atoms: C_7  and  C_20
    3  A    between atoms: C_12  and  C_31
    4  A    between atoms: S_13  and  C_29
    5  A    between atoms: C_16  and  C_20
    6  A    between atoms: C_16  and  C_22
    7  A    between atoms: C_16  and  C_27
                            x       y       z     vdW  Elec       q    Type
                         _______ _______ _______ _____ _____    ______ ____

>  <TORSDO>
F 7

$$$$
=
 OpenBabel11062408183D

 32 36  0  0  1  0  0  0  0  0999 V2000
  162.1860  209.1120  149.6470 C   0  0  1  0  0  3  0  0  0  0  0  0
  160.9660  208.9300  151.9310 C   0  0  0  0  0  2  0  0  0  0  0  0
  162.4070  209.8500  148.4690 O   0  0  0  0  0  0  0  0  0  0  0  0
  161.5760  209.8880  150.9470 C   0  0  2  0  0  0  0  0  0  0  0  0
  159.4360  212.3000  153.6240 C   0  0  0  0  0  2  0  0  0  0  0  0
  161.0790  208.3670  155.7370 C   0  0  0  0  0  1  0  0  0  0  0  0
  160.9690  210.4380  154.3020 C   0  0  1  0  0  3  0  0  0  0  0  0
  160.3290  209.6650  155.2250 C   0  0  2  0  0  3  0  0  0  0  0  0
  161.0430  211.2980  150.7850 C   0  0  2  0  0  3  0  0  0  0  0  0
  160.6040  211.7730  154.1290 O   0  0  0  0  0  0  0  0  0  0  0  0
  159.6040  211.5680  151.2620 C   0  0  0  0  0  2  0  0  0  0  0  0
  161.2480  211.9120  149.3780 C   0  0  0  0  0  2  0  0  0  0  0  0
  162.3570  209.4360  152.2200 C   0  0  1  0  0  3  0  0  0  0  0  0
  159.6840  212.8260  152.1660 C   0  0  1  0  0  3  0  0  0  0  0  0
  162.3880  211.2520  148.5840 C   0  0  0  0  0  2  0  0  0  0  0  0
  162.2070  210.0430  153.5770 O   0  0  0  0  0  0  0  0  0  0  0  0
  159.4760  211.1670  157.2180 C   0  0  0  0  0  1  0  0  0  0  0  0
  159.1220  210.1380  156.0740 C   0  0  0  0  0  2  0  0  0  0  0  0
  159.0240  214.4430  151.4800 S   0  0  0  0  0  0  0  0  0  0  0  0
  157.4750  213.6630  151.1230 C   0  0  0  0  0  1  0  0  0  0  0  0
  160.5960  207.9680  147.9340 C   0  0  0  0  0  1  0  0  0  0  0  0
  161.3840  207.8760  149.2720 C   0  0  1  0  0  3  0  0  0  0  0  0
  162.1920  206.5390  149.4710 C   0  0  2  0  0  3  0  0  0  0  0  0
  162.3680  205.7330  146.9110 C   0  0  0  0  0  1  0  0  0  0  0  0
  161.9250  205.3910  148.3950 C   0  0  2  0  0  3  0  0  0  0  0  0
  160.6570  204.8840  148.4630 O   0  0  0  0  0  1  0  0  0  0  0  0
  162.4300  205.7870  150.8410 C   0  0  0  0  0  2  0  0  0  0  0  0
  161.8560  203.5870  151.2780 C   0  0  0  0  0  2  0  0  0  0  0  0
  161.2300  204.9660  151.2530 C   0  0  2  0  0  0  0  0  0  0  0  0
  160.7760  203.9110  152.3700 C   0  0  2  0  0  3  0  0  0  0  0  0
  161.8840  205.9900  153.5380 C   0  0  0  0  0  1  0  0  0  0  0  0
  160.7010  205.4040  152.6350 C   0  0  1  0  0  3  0  0  0  0  0  0
  1 22  1  6  0  0  0
  1  4  1  0  0  0  0
  3 15  1  0  0  0  0
  3  1  1  0  0  0  0
  4  2  1  1  0  0  0
  4 13  1  0  0  0  0
  5 10  1  0  0  0  0
  7  8  1  1  0  0  0
  8  6  1  1  0  0  0
  8 18  1  0  0  0  0
  9 12  1  6  0  0  0
  9  4  1  0  0  0  0
  9 11  1  0  0  0  0
 10  7  1  0  0  0  0
 11 14  1  0  0  0  0
 13  2  1  1  0  0  0
 13 16  1  0  0  0  0
 14 19  1  6  0  0  0
 14  5  1  0  0  0  0
 15 12  1  0  0  0  0
 16  7  1  0  0  0  0
 18 17  1  0  0  0  0
 20 19  1  0  0  0  0
 22 21  1  6  0  0  0
 22 23  1  0  0  0  0
 23 27  1  1  0  0  0
 25 24  1  6  0  0  0
 25 26  1  0  0  0  0
 25 23  1  0  0  0  0
 29 27  1  6  0  0  0
 29 28  1  0  0  0  0
 29 30  1  0  0  0  0
 29 32  1  0  0  0  0
 30 28  1  1  0  0  0
 30 32  1  0  0  0  0
 32 31  1  1  0  0  0
M  END
>  <MODEL>
9

>  <REMARK>
 VINA RESULT:      -2.7      2.522      8.147
  Name = 
  7 active torsions:
  status: ('A' for Active; 'I' for Inactive)
    1  A    between atoms: C_1  and  C_27
    2  A    between atoms: C_7  and  C_20
    3  A    between atoms: C_12  and  C_31
    4  A    between atoms: S_13  and  C_29
    5  A    between atoms: C_16  and  C_20
    6  A    between atoms: C_16  and  C_22
    7  A    between atoms: C_16  and  C_27
                            x       y       z     vdW  Elec       q    Type
                         _______ _______ _______ _____ _____    ______ ____

>  <TORSDO>
F 7

$$$$
