=
 OpenBabel11052422063D

 25 29  0  0  1  0  0  0  0  0999 V2000
  161.0830  205.7880  149.8800 N   0  0  0  0  0  0  0  0  0  0  0  0
  160.8090  206.9730  150.7000 C   0  0  2  0  0  3  0  0  0  0  0  0
  161.1950  204.3320  151.7880 C   0  0  0  0  0  3  0  0  0  0  0  0
  160.5860  205.5800  148.5260 C   0  0  2  0  0  3  0  0  0  0  0  0
  162.4010  204.6990  146.3970 C   0  0  0  0  0  2  0  0  0  0  0  0
  161.3690  205.5220  152.6440 C   0  0  0  0  0  3  0  0  0  0  0  0
  160.7680  204.0600  148.2360 C   0  0  1  0  0  3  0  0  0  0  0  0
  162.0840  203.7280  147.5190 C   0  0  0  0  0  2  0  0  0  0  0  0
  161.5100  207.9450  152.9670 C   0  0  0  0  0  0  0  0  0  0  0  0
  161.5500  207.8540  154.3200 F   0  0  0  0  0  0  0  0  0  0  0  0
  161.4190  208.2210  150.1200 C   0  0  0  0  0  3  0  0  0  0  0  0
  162.5370  206.0900  146.9840 C   0  0  0  0  0  2  0  0  0  0  0  0
  161.0790  204.5000  150.4730 C   0  0  0  0  0  0  0  0  0  0  0  0
  160.8310  203.4490  149.5580 N   0  0  0  0  0  2  0  0  0  0  0  0
  161.7700  209.1130  152.3730 C   0  0  0  0  0  3  0  0  0  0  0  0
  161.1790  206.5440  147.4910 C   0  0  0  0  0  2  0  0  0  0  0  0
  161.8050  209.2440  150.8930 C   0  0  0  0  0  0  0  0  0  0  0  0
  161.2500  206.7580  152.1370 C   0  0  0  0  0  0  0  0  0  0  0  0
  162.3130  210.4230  150.2570 N   0  0  0  0  0  2  0  0  0  0  0  0
  162.1050  210.8150  148.8930 C   0  0  0  0  0  0  0  0  0  0  0  0
  161.5050  210.0570  148.0840 O   0  0  0  0  0  0  0  0  0  0  0  0
  161.7630  213.3430  148.6180 C   0  0  1  0  0  3  0  0  0  0  0  0
  161.8630  212.6830  147.2590 C   0  0  0  0  0  2  0  0  0  0  0  0
  160.3890  213.0510  149.2070 C   0  0  0  0  0  1  0  0  0  0  0  0
  162.6730  212.1200  148.4140 C   0  0  2  0  0  3  0  0  0  0  0  0
  1 13  1  0  0  0  0
  1  2  1  0  0  0  0
  2 11  1  6  0  0  0
  2 18  1  0  0  0  0
  3  6  1  0  0  0  0
  4 16  1  6  0  0  0
  4  1  1  0  0  0  0
  5 12  1  0  0  0  0
  5  8  1  0  0  0  0
  7  8  1  1  0  0  0
  7  4  1  0  0  0  0
  7 14  1  0  0  0  0
  9 10  1  0  0  0  0
 11 17  2  0  0  0  0
 12 16  1  0  0  0  0
 13  3  2  0  0  0  0
 14 13  1  0  0  0  0
 15  9  2  0  0  0  0
 17 15  1  0  0  0  0
 18  6  2  0  0  0  0
 18  9  1  0  0  0  0
 19 17  1  0  0  0  0
 20 19  1  0  0  0  0
 21 20  2  0  0  0  0
 22 24  1  1  0  0  0
 23 25  1  0  0  0  0
 23 22  1  0  0  0  0
 25 22  1  0  0  0  0
 25 20  1  1  0  0  0
M  END
>  <MODEL>
1

>  <REMARK>
 VINA RESULT:      -8.8      0.000      0.000
  Name = 
  2 active torsions:
  status: ('A' for Active; 'I' for Inactive)
    1  A    between atoms: N_6  and  C_23
    2  A    between atoms: C_15  and  C_21
                            x       y       z     vdW  Elec       q    Type
                         _______ _______ _______ _____ _____    ______ ____

>  <TORSDO>
F 2

$$$$
=
 OpenBabel11052422063D

 25 29  0  0  1  0  0  0  0  0999 V2000
  161.0530  203.9140  148.2140 N   0  0  0  0  0  0  0  0  0  0  0  0
  160.5980  204.2820  149.5590 C   0  0  2  0  0  3  0  0  0  0  0  0
  160.9690  201.5600  148.6870 C   0  0  0  0  0  3  0  0  0  0  0  0
  160.7690  204.6730  147.0020 C   0  0  2  0  0  3  0  0  0  0  0  0
  162.9190  205.3100  145.1110 C   0  0  0  0  0  2  0  0  0  0  0  0
  160.9510  201.8840  150.1280 C   0  0  0  0  0  3  0  0  0  0  0  0
  161.0750  203.7100  145.8170 C   0  0  1  0  0  3  0  0  0  0  0  0
  162.4970  203.8590  145.2590 C   0  0  0  0  0  2  0  0  0  0  0  0
  160.9090  203.4880  151.9770 C   0  0  0  0  0  0  0  0  0  0  0  0
  160.7580  202.5300  152.9250 F   0  0  0  0  0  0  0  0  0  0  0  0
  161.2160  205.5690  150.0370 C   0  0  0  0  0  3  0  0  0  0  0  0
  162.8920  205.9640  146.4790 C   0  0  0  0  0  2  0  0  0  0  0  0
  161.0350  202.5560  147.8070 C   0  0  0  0  0  0  0  0  0  0  0  0
  160.9810  202.3790  146.4040 N   0  0  0  0  0  2  0  0  0  0  0  0
  161.1880  204.7430  152.3410 C   0  0  0  0  0  3  0  0  0  0  0  0
  161.4520  206.0450  146.9540 C   0  0  0  0  0  2  0  0  0  0  0  0
  161.4290  205.8100  151.3370 C   0  0  0  0  0  0  0  0  0  0  0  0
  160.8380  203.1530  150.5460 C   0  0  0  0  0  0  0  0  0  0  0  0
  161.9570  207.0890  151.7130 N   0  0  0  0  0  2  0  0  0  0  0  0
  161.8870  208.3000  150.9490 C   0  0  0  0  0  0  0  0  0  0  0  0
  161.4120  208.3060  149.7820 O   0  0  0  0  0  0  0  0  0  0  0  0
  161.5170  210.3160  152.4940 C   0  0  1  0  0  3  0  0  0  0  0  0
  161.6770  210.7830  151.0620 C   0  0  0  0  0  2  0  0  0  0  0  0
  160.1270  209.7170  152.6640 C   0  0  0  0  0  1  0  0  0  0  0  0
  162.4520  209.5640  151.5320 C   0  0  2  0  0  3  0  0  0  0  0  0
  1  2  1  0  0  0  0
  2 11  1  1  0  0  0
  2 18  1  0  0  0  0
  3  6  1  0  0  0  0
  4 16  1  6  0  0  0
  4  1  1  0  0  0  0
  5  8  1  0  0  0  0
  5 12  1  0  0  0  0
  6 18  2  0  0  0  0
  7  8  1  1  0  0  0
  7 14  1  0  0  0  0
  7  4  1  0  0  0  0
  9 15  2  0  0  0  0
  9 10  1  0  0  0  0
 11 17  2  0  0  0  0
 12 16  1  0  0  0  0
 13  1  1  0  0  0  0
 13  3  2  0  0  0  0
 14 13  1  0  0  0  0
 17 19  1  0  0  0  0
 17 15  1  0  0  0  0
 18  9  1  0  0  0  0
 20 19  1  0  0  0  0
 21 20  2  0  0  0  0
 22 24  1  6  0  0  0
 23 25  1  0  0  0  0
 23 22  1  0  0  0  0
 25 20  1  6  0  0  0
 25 22  1  0  0  0  0
M  END
>  <MODEL>
2

>  <REMARK>
 VINA RESULT:      -8.5      2.343      3.522
  Name = 
  2 active torsions:
  status: ('A' for Active; 'I' for Inactive)
    1  A    between atoms: N_6  and  C_23
    2  A    between atoms: C_15  and  C_21
                            x       y       z     vdW  Elec       q    Type
                         _______ _______ _______ _____ _____    ______ ____

>  <TORSDO>
F 2

$$$$
=
 OpenBabel11052422063D

 25 29  0  0  1  0  0  0  0  0999 V2000
  160.4980  209.7560  154.0830 N   0  0  0  0  0  0  0  0  0  0  0  0
  161.2260  208.6360  153.4770 C   0  0  2  0  0  3  0  0  0  0  0  0
  160.2820  208.6410  156.2010 C   0  0  0  0  0  3  0  0  0  0  0  0
  160.6920  211.1590  153.7370 C   0  0  2  0  0  3  0  0  0  0  0  0
  158.3850  212.8870  153.1960 C   0  0  0  0  0  2  0  0  0  0  0  0
  160.5940  207.3670  155.5240 C   0  0  0  0  0  3  0  0  0  0  0  0
  160.0410  211.9740  154.8940 C   0  0  1  0  0  3  0  0  0  0  0  0
  158.5880  212.3810  154.6120 C   0  0  0  0  0  2  0  0  0  0  0  0
  161.2020  206.0720  153.5370 C   0  0  0  0  0  0  0  0  0  0  0  0
  161.3550  204.9140  154.2260 F   0  0  0  0  0  0  0  0  0  0  0  0
  160.9110  208.4770  152.0130 C   0  0  0  0  0  3  0  0  0  0  0  0
  158.7460  211.7770  152.2290 C   0  0  0  0  0  2  0  0  0  0  0  0
  160.2300  209.7560  155.4750 C   0  0  0  0  0  0  0  0  0  0  0  0
  160.0180  211.0460  156.0180 N   0  0  0  0  0  2  0  0  0  0  0  0
  161.1940  206.0520  152.2010 C   0  0  0  0  0  3  0  0  0  0  0  0
  160.2400  211.5170  152.3160 C   0  0  0  0  0  2  0  0  0  0  0  0
  160.9610  207.2850  151.4050 C   0  0  0  0  0  0  0  0  0  0  0  0
  160.9780  207.3460  154.2390 C   0  0  0  0  0  0  0  0  0  0  0  0
  160.7160  207.2310  149.9940 N   0  0  0  0  0  2  0  0  0  0  0  0
  161.7040  207.1500  148.9580 C   0  0  0  0  0  0  0  0  0  0  0  0
  162.9340  207.2190  149.2260 O   0  0  0  0  0  0  0  0  0  0  0  0
  160.9800  205.6180  147.0300 C   0  0  1  0  0  3  0  0  0  0  0  0
  162.2790  206.3130  146.6800 C   0  0  0  0  0  2  0  0  0  0  0  0
  161.2700  204.5050  148.0290 C   0  0  0  0  0  1  0  0  0  0  0  0
  161.2550  207.0470  147.5280 C   0  0  2  0  0  3  0  0  0  0  0  0
  1 13  1  0  0  0  0
  2 11  1  6  0  0  0
  2  1  1  0  0  0  0
  2 18  1  0  0  0  0
  4 16  1  6  0  0  0
  4  1  1  0  0  0  0
  4  7  1  0  0  0  0
  5  8  1  0  0  0  0
  6  3  1  0  0  0  0
  7  8  1  6  0  0  0
  7 14  1  0  0  0  0
  9 10  1  0  0  0  0
  9 18  1  0  0  0  0
 12 16  1  0  0  0  0
 12  5  1  0  0  0  0
 13 14  1  0  0  0  0
 13  3  2  0  0  0  0
 15  9  2  0  0  0  0
 17 11  2  0  0  0  0
 17 15  1  0  0  0  0
 18  6  2  0  0  0  0
 19 17  1  0  0  0  0
 20 21  2  0  0  0  0
 20 19  1  0  0  0  0
 22 25  1  0  0  0  0
 22 24  1  1  0  0  0
 23 22  1  0  0  0  0
 23 25  1  0  0  0  0
 25 20  1  1  0  0  0
M  END
>  <MODEL>
3

>  <REMARK>
 VINA RESULT:      -8.4      2.927      6.591
  Name = 
  2 active torsions:
  status: ('A' for Active; 'I' for Inactive)
    1  A    between atoms: N_6  and  C_23
    2  A    between atoms: C_15  and  C_21
                            x       y       z     vdW  Elec       q    Type
                         _______ _______ _______ _____ _____    ______ ____

>  <TORSDO>
F 2

$$$$
=
 OpenBabel11052422063D

 25 29  0  0  1  0  0  0  0  0999 V2000
  161.3910  208.1960  152.7820 N   0  0  0  0  0  0  0  0  0  0  0  0
  161.7120  206.9900  152.0100 C   0  0  2  0  0  3  0  0  0  0  0  0
  160.9650  206.9530  154.7940 C   0  0  0  0  0  3  0  0  0  0  0  0
  161.9810  209.5090  152.5560 C   0  0  2  0  0  3  0  0  0  0  0  0
  160.2780  211.8910  152.3860 C   0  0  0  0  0  2  0  0  0  0  0  0
  160.8390  205.7320  153.9730 C   0  0  0  0  0  3  0  0  0  0  0  0
  161.6710  210.3390  153.8370 C   0  0  1  0  0  3  0  0  0  0  0  0
  160.3960  211.1850  153.7240 C   0  0  0  0  0  2  0  0  0  0  0  0
  160.9190  204.5580  151.8260 C   0  0  0  0  0  0  0  0  0  0  0  0
  160.7520  203.3340  152.3860 F   0  0  0  0  0  0  0  0  0  0  0  0
  161.2850  207.1040  150.5710 C   0  0  0  0  0  3  0  0  0  0  0  0
  160.2330  210.8460  151.2890 C   0  0  0  0  0  2  0  0  0  0  0  0
  161.2130  208.1110  154.1860 C   0  0  0  0  0  0  0  0  0  0  0  0
  161.4310  209.3330  154.8650 N   0  0  0  0  0  2  0  0  0  0  0  0
  160.8310  204.6990  150.5000 C   0  0  0  0  0  3  0  0  0  0  0  0
  161.5810  210.1490  151.2210 C   0  0  0  0  0  2  0  0  0  0  0  0
  160.9390  206.0300  149.8500 C   0  0  0  0  0  0  0  0  0  0  0  0
  161.1280  205.7500  152.6640 C   0  0  0  0  0  0  0  0  0  0  0  0
  160.6120  206.2160  148.4670 N   0  0  0  0  0  2  0  0  0  0  0  0
  161.4840  206.0110  147.3470 C   0  0  0  0  0  0  0  0  0  0  0  0
  162.7000  205.7250  147.5150 O   0  0  0  0  0  0  0  0  0  0  0  0
  160.7570  204.9150  145.1440 C   0  0  1  0  0  3  0  0  0  0  0  0
  161.9660  205.7950  144.9100 C   0  0  0  0  0  2  0  0  0  0  0  0
  161.2060  203.6310  145.8290 C   0  0  0  0  0  1  0  0  0  0  0  0
  160.9470  206.2050  145.9580 C   0  0  2  0  0  3  0  0  0  0  0  0
  1 13  1  0  0  0  0
  2 11  1  6  0  0  0
  2 18  1  0  0  0  0
  2  1  1  0  0  0  0
  4 16  1  6  0  0  0
  4  1  1  0  0  0  0
  4  7  1  0  0  0  0
  5  8  1  0  0  0  0
  6  3  1  0  0  0  0
  7  8  1  6  0  0  0
  7 14  1  0  0  0  0
  9 10  1  0  0  0  0
  9 18  1  0  0  0  0
 12  5  1  0  0  0  0
 13  3  2  0  0  0  0
 13 14  1  0  0  0  0
 15  9  2  0  0  0  0
 16 12  1  0  0  0  0
 17 15  1  0  0  0  0
 17 11  2  0  0  0  0
 18  6  2  0  0  0  0
 19 17  1  0  0  0  0
 20 21  2  0  0  0  0
 20 19  1  0  0  0  0
 22 24  1  1  0  0  0
 22 25  1  0  0  0  0
 23 22  1  0  0  0  0
 23 25  1  0  0  0  0
 25 20  1  1  0  0  0
M  END
>  <MODEL>
4

>  <REMARK>
 VINA RESULT:      -8.1      2.495      6.071
  Name = 
  2 active torsions:
  status: ('A' for Active; 'I' for Inactive)
    1  A    between atoms: N_6  and  C_23
    2  A    between atoms: C_15  and  C_21
                            x       y       z     vdW  Elec       q    Type
                         _______ _______ _______ _____ _____    ______ ____

>  <TORSDO>
F 2

$$$$
=
 OpenBabel11052422063D

 25 29  0  0  1  0  0  0  0  0999 V2000
  161.6300  205.4020  151.4650 N   0  0  0  0  0  0  0  0  0  0  0  0
  161.8540  204.2060  150.6450 C   0  0  2  0  0  3  0  0  0  0  0  0
  160.7120  204.1380  153.2910 C   0  0  0  0  0  3  0  0  0  0  0  0
  162.4580  206.6010  151.4310 C   0  0  2  0  0  3  0  0  0  0  0  0
  161.2210  209.2540  151.2350 C   0  0  0  0  0  2  0  0  0  0  0  0
  160.5050  203.0090  152.3620 C   0  0  0  0  0  3  0  0  0  0  0  0
  162.1070  207.3950  152.7250 C   0  0  1  0  0  3  0  0  0  0  0  0
  161.0220  208.4590  152.5140 C   0  0  0  0  0  2  0  0  0  0  0  0
  160.7000  201.9690  150.1540 C   0  0  0  0  0  0  0  0  0  0  0  0
  160.2510  200.7640  150.5810 F   0  0  0  0  0  0  0  0  0  0  0  0
  161.6670  204.4790  149.1760 C   0  0  0  0  0  3  0  0  0  0  0  0
  161.1630  208.2990  150.0590 C   0  0  0  0  0  2  0  0  0  0  0  0
  161.2360  205.2680  152.8210 C   0  0  0  0  0  0  0  0  0  0  0  0
  161.5540  206.3890  153.6230 N   0  0  0  0  0  2  0  0  0  0  0  0
  160.8320  202.2020  148.8440 C   0  0  0  0  0  3  0  0  0  0  0  0
  162.3710  207.3800  150.1130 C   0  0  0  0  0  2  0  0  0  0  0  0
  161.2550  203.5290  148.3280 C   0  0  0  0  0  0  0  0  0  0  0  0
  160.9810  203.0530  151.1090 C   0  0  0  0  0  0  0  0  0  0  0  0
  161.1700  203.8520  146.9340 N   0  0  0  0  0  2  0  0  0  0  0  0
  162.2040  204.4320  146.1270 C   0  0  0  0  0  0  0  0  0  0  0  0
  163.2940  204.8060  146.6370 O   0  0  0  0  0  0  0  0  0  0  0  0
  160.9530  205.7750  144.3330 C   0  0  1  0  0  3  0  0  0  0  0  0
  160.5120  204.3260  144.2970 C   0  0  0  0  0  2  0  0  0  0  0  0
  160.3080  206.4560  145.5330 C   0  0  0  0  0  1  0  0  0  0  0  0
  161.9500  204.6510  144.6630 C   0  0  2  0  0  3  0  0  0  0  0  0
  1 13  1  0  0  0  0
  2 11  1  6  0  0  0
  2 18  1  0  0  0  0
  2  1  1  0  0  0  0
  4 16  1  6  0  0  0
  4  1  1  0  0  0  0
  4  7  1  0  0  0  0
  5  8  1  0  0  0  0
  6  3  1  0  0  0  0
  7  8  1  6  0  0  0
  7 14  1  0  0  0  0
  9 10  1  0  0  0  0
  9 18  1  0  0  0  0
 12 16  1  0  0  0  0
 12  5  1  0  0  0  0
 13  3  2  0  0  0  0
 13 14  1  0  0  0  0
 15  9  2  0  0  0  0
 17 15  1  0  0  0  0
 17 11  2  0  0  0  0
 18  6  2  0  0  0  0
 19 17  1  0  0  0  0
 20 21  2  0  0  0  0
 20 19  1  0  0  0  0
 22 25  1  0  0  0  0
 22 24  1  1  0  0  0
 23 22  1  0  0  0  0
 23 25  1  0  0  0  0
 25 20  1  1  0  0  0
M  END
>  <MODEL>
5

>  <REMARK>
 VINA RESULT:      -7.9      3.195      5.933
  Name = 
  2 active torsions:
  status: ('A' for Active; 'I' for Inactive)
    1  A    between atoms: N_6  and  C_23
    2  A    between atoms: C_15  and  C_21
                            x       y       z     vdW  Elec       q    Type
                         _______ _______ _______ _____ _____    ______ ____

>  <TORSDO>
F 2

$$$$
=
 OpenBabel11052422063D

 25 29  0  0  1  0  0  0  0  0999 V2000
  161.4530  208.6120  152.7360 N   0  0  0  0  0  0  0  0  0  0  0  0
  162.1610  208.8940  151.4830 C   0  0  2  0  0  3  0  0  0  0  0  0
  161.2310  206.2720  152.2370 C   0  0  0  0  0  3  0  0  0  0  0  0
  161.6670  209.3240  153.9900 C   0  0  2  0  0  3  0  0  0  0  0  0
  159.3830  210.3100  155.5440 C   0  0  0  0  0  2  0  0  0  0  0  0
  161.5200  206.5800  150.8230 C   0  0  0  0  0  3  0  0  0  0  0  0
  161.0330  208.4300  155.0980 C   0  0  1  0  0  3  0  0  0  0  0  0
  159.5850  208.8090  155.4360 C   0  0  0  0  0  2  0  0  0  0  0  0
  162.1000  208.1450  149.0310 C   0  0  0  0  0  0  0  0  0  0  0  0
  162.2390  207.1690  148.1000 F   0  0  0  0  0  0  0  0  0  0  0  0
  161.8380  210.2600  150.9400 C   0  0  0  0  0  3  0  0  0  0  0  0
  159.7230  210.9420  154.2090 C   0  0  0  0  0  2  0  0  0  0  0  0
  161.1920  207.2710  153.1160 C   0  0  0  0  0  0  0  0  0  0  0  0
  161.0020  207.0970  154.5070 N   0  0  0  0  0  2  0  0  0  0  0  0
  162.0850  209.4260  148.6510 C   0  0  0  0  0  3  0  0  0  0  0  0
  161.2130  210.7880  153.9590 C   0  0  0  0  0  2  0  0  0  0  0  0
  161.8670  210.5240  149.6270 C   0  0  0  0  0  0  0  0  0  0  0  0
  161.8980  207.8120  150.4500 C   0  0  0  0  0  0  0  0  0  0  0  0
  161.6140  211.8680  149.1980 N   0  0  0  0  0  2  0  0  0  0  0  0
  162.4160  212.6420  148.2960 C   0  0  0  0  0  0  0  0  0  0  0  0
  163.5150  212.2030  147.8640 O   0  0  0  0  0  0  0  0  0  0  0  0
  160.9680  214.0870  146.7460 C   0  0  1  0  0  3  0  0  0  0  0  0
  162.4340  214.3960  146.5230 C   0  0  0  0  0  2  0  0  0  0  0  0
  160.6390  212.7540  146.0880 C   0  0  0  0  0  1  0  0  0  0  0  0
  161.9630  214.0230  147.9170 C   0  0  2  0  0  3  0  0  0  0  0  0
  1 13  1  0  0  0  0
  1  4  1  0  0  0  0
  2 11  1  6  0  0  0
  2  1  1  0  0  0  0
  3 13  2  0  0  0  0
  4 16  1  6  0  0  0
  4  7  1  0  0  0  0
  6  3  1  0  0  0  0
  7  8  1  6  0  0  0
  8  5  1  0  0  0  0
  9 18  1  0  0  0  0
 10  9  1  0  0  0  0
 12  5  1  0  0  0  0
 13 14  1  0  0  0  0
 14  7  1  0  0  0  0
 15  9  2  0  0  0  0
 15 17  1  0  0  0  0
 16 12  1  0  0  0  0
 17 11  2  0  0  0  0
 18  6  2  0  0  0  0
 18  2  1  0  0  0  0
 19 17  1  0  0  0  0
 20 19  1  0  0  0  0
 21 20  2  0  0  0  0
 22 24  1  6  0  0  0
 22 25  1  0  0  0  0
 23 22  1  0  0  0  0
 23 25  1  0  0  0  0
 25 20  1  6  0  0  0
M  END
>  <MODEL>
6

>  <REMARK>
 VINA RESULT:      -7.8      2.831      5.209
  Name = 
  2 active torsions:
  status: ('A' for Active; 'I' for Inactive)
    1  A    between atoms: N_6  and  C_23
    2  A    between atoms: C_15  and  C_21
                            x       y       z     vdW  Elec       q    Type
                         _______ _______ _______ _____ _____    ______ ____

>  <TORSDO>
F 2

$$$$
=
 OpenBabel11052422063D

 25 29  0  0  1  0  0  0  0  0999 V2000
  161.7890  206.2000  149.9630 N   0  0  0  0  0  0  0  0  0  0  0  0
  162.4040  207.5320  149.9370 C   0  0  2  0  0  3  0  0  0  0  0  0
  161.0080  206.3720  147.6980 C   0  0  0  0  0  3  0  0  0  0  0  0
  162.2870  205.0690  150.7380 C   0  0  2  0  0  3  0  0  0  0  0  0
  160.4560  203.4780  152.3860 C   0  0  0  0  0  2  0  0  0  0  0  0
  161.2040  207.8340  147.7770 C   0  0  0  0  0  3  0  0  0  0  0  0
  161.5960  203.8090  150.1390 C   0  0  1  0  0  3  0  0  0  0  0  0
  160.3110  203.4080  150.8760 C   0  0  0  0  0  2  0  0  0  0  0  0
  161.9170  209.8540  148.9620 C   0  0  0  0  0  0  0  0  0  0  0  0
  161.7370  210.6590  147.8860 F   0  0  0  0  0  0  0  0  0  0  0  0
  162.3310  208.2190  151.2750 C   0  0  0  0  0  3  0  0  0  0  0  0
  160.7800  204.9070  152.7740 C   0  0  0  0  0  2  0  0  0  0  0  0
  161.2830  205.6300  148.7680 C   0  0  0  0  0  0  0  0  0  0  0  0
  161.2100  204.2170  148.7930 N   0  0  0  0  0  2  0  0  0  0  0  0
  162.1420  210.3930  150.1640 C   0  0  0  0  0  3  0  0  0  0  0  0
  162.1650  205.2540  152.2550 C   0  0  0  0  0  2  0  0  0  0  0  0
  162.2760  209.5530  151.3820 C   0  0  0  0  0  0  0  0  0  0  0  0
  161.8000  208.3920  148.8410 C   0  0  0  0  0  0  0  0  0  0  0  0
  162.2790  210.1310  152.6940 N   0  0  0  0  0  2  0  0  0  0  0  0
  161.1300  210.4530  153.4880 C   0  0  0  0  0  0  0  0  0  0  0  0
  159.9640  210.3310  153.0240 O   0  0  0  0  0  0  0  0  0  0  0  0
  161.4120  209.9540  155.9900 C   0  0  1  0  0  3  0  0  0  0  0  0
  160.1290  210.7240  155.7560 C   0  0  0  0  0  2  0  0  0  0  0  0
  161.2060  208.5100  155.5530 C   0  0  0  0  0  1  0  0  0  0  0  0
  161.3300  211.0060  154.8710 C   0  0  2  0  0  3  0  0  0  0  0  0
  1  4  1  0  0  0  0
  2  1  1  0  0  0  0
  2 11  1  1  0  0  0
  3  6  1  0  0  0  0
  3 13  2  0  0  0  0
  4 16  1  1  0  0  0
  5 12  1  0  0  0  0
  6 18  2  0  0  0  0
  7  4  1  0  0  0  0
  7  8  1  1  0  0  0
  8  5  1  0  0  0  0
  9 15  2  0  0  0  0
 10  9  1  0  0  0  0
 11 17  2  0  0  0  0
 13 14  1  0  0  0  0
 13  1  1  0  0  0  0
 14  7  1  0  0  0  0
 15 17  1  0  0  0  0
 16 12  1  0  0  0  0
 17 19  1  0  0  0  0
 18  9  1  0  0  0  0
 18  2  1  0  0  0  0
 19 20  1  0  0  0  0
 21 20  2  0  0  0  0
 22 24  1  6  0  0  0
 23 22  1  0  0  0  0
 25 20  1  6  0  0  0
 25 23  1  0  0  0  0
 25 22  1  0  0  0  0
M  END
>  <MODEL>
7

>  <REMARK>
 VINA RESULT:      -7.4      2.529      4.857
  Name = 
  2 active torsions:
  status: ('A' for Active; 'I' for Inactive)
    1  A    between atoms: N_6  and  C_23
    2  A    between atoms: C_15  and  C_21
                            x       y       z     vdW  Elec       q    Type
                         _______ _______ _______ _____ _____    ______ ____

>  <TORSDO>
F 2

$$$$
=
 OpenBabel11052422063D

 25 29  0  0  1  0  0  0  0  0999 V2000
  161.4930  208.1710  152.5140 N   0  0  0  0  0  0  0  0  0  0  0  0
  162.1380  208.1050  151.1980 C   0  0  2  0  0  3  0  0  0  0  0  0
  161.2060  205.7880  152.6390 C   0  0  0  0  0  3  0  0  0  0  0  0
  161.7850  209.1700  153.5350 C   0  0  2  0  0  3  0  0  0  0  0  0
  159.6040  210.5850  154.8930 C   0  0  0  0  0  2  0  0  0  0  0  0
  161.4250  205.7200  151.1800 C   0  0  0  0  0  3  0  0  0  0  0  0
  161.1960  208.6050  154.8620 C   0  0  1  0  0  3  0  0  0  0  0  0
  159.7750  209.1000  155.1600 C   0  0  0  0  0  2  0  0  0  0  0  0
  161.9350  206.7610  149.0240 C   0  0  0  0  0  0  0  0  0  0  0  0
  162.0070  205.5780  148.3660 F   0  0  0  0  0  0  0  0  0  0  0  0
  161.8090  209.2980  150.3420 C   0  0  0  0  0  3  0  0  0  0  0  0
  159.8830  210.8480  153.4260 C   0  0  0  0  0  2  0  0  0  0  0  0
  161.2300  206.9780  153.2350 C   0  0  0  0  0  0  0  0  0  0  0  0
  161.1120  207.1680  154.6320 N   0  0  0  0  0  2  0  0  0  0  0  0
  161.9200  207.9050  148.3320 C   0  0  0  0  0  3  0  0  0  0  0  0
  161.3550  210.5920  153.1530 C   0  0  0  0  0  2  0  0  0  0  0  0
  161.7730  209.2200  149.0050 C   0  0  0  0  0  0  0  0  0  0  0  0
  161.8020  206.8050  150.4880 C   0  0  0  0  0  0  0  0  0  0  0  0
  161.5200  210.4190  148.2610 N   0  0  0  0  0  2  0  0  0  0  0  0
  162.3300  211.6020  148.2460 C   0  0  0  0  0  0  0  0  0  0  0  0
  163.3310  211.7130  149.0030 O   0  0  0  0  0  0  0  0  0  0  0  0
  160.9490  213.7490  147.9830 C   0  0  1  0  0  3  0  0  0  0  0  0
  160.4550  212.6930  147.0160 C   0  0  0  0  0  2  0  0  0  0  0  0
  160.4570  213.4040  149.3820 C   0  0  0  0  0  1  0  0  0  0  0  0
  161.9340  212.7470  147.3580 C   0  0  2  0  0  3  0  0  0  0  0  0
  1 13  1  0  0  0  0
  1  4  1  0  0  0  0
  2 11  1  6  0  0  0
  2  1  1  0  0  0  0
  3 13  2  0  0  0  0
  4 16  1  6  0  0  0
  4  7  1  0  0  0  0
  5  8  1  0  0  0  0
  6  3  1  0  0  0  0
  7  8  1  6  0  0  0
  9 18  1  0  0  0  0
 10  9  1  0  0  0  0
 12  5  1  0  0  0  0
 13 14  1  0  0  0  0
 14  7  1  0  0  0  0
 15 17  1  0  0  0  0
 15  9  2  0  0  0  0
 16 12  1  0  0  0  0
 17 11  2  0  0  0  0
 18  6  2  0  0  0  0
 18  2  1  0  0  0  0
 19 17  1  0  0  0  0
 20 19  1  0  0  0  0
 20 21  2  0  0  0  0
 22 24  1  1  0  0  0
 23 25  1  0  0  0  0
 23 22  1  0  0  0  0
 25 22  1  0  0  0  0
 25 20  1  1  0  0  0
M  END
>  <MODEL>
8

>  <REMARK>
 VINA RESULT:      -7.2      2.482      4.929
  Name = 
  2 active torsions:
  status: ('A' for Active; 'I' for Inactive)
    1  A    between atoms: N_6  and  C_23
    2  A    between atoms: C_15  and  C_21
                            x       y       z     vdW  Elec       q    Type
                         _______ _______ _______ _____ _____    ______ ____

>  <TORSDO>
F 2

$$$$
=
 OpenBabel11052422063D

 25 29  0  0  1  0  0  0  0  0999 V2000
  159.9040  210.9750  154.5360 N   0  0  0  0  0  0  0  0  0  0  0  0
  160.7060  209.7480  154.4800 C   0  0  2  0  0  3  0  0  0  0  0  0
  159.3270  210.6470  156.8460 C   0  0  0  0  0  3  0  0  0  0  0  0
  160.1730  212.1810  153.7620 C   0  0  2  0  0  3  0  0  0  0  0  0
  158.0110  213.5150  152.2950 C   0  0  0  0  0  2  0  0  0  0  0  0
  159.7280  209.2330  156.7100 C   0  0  0  0  0  3  0  0  0  0  0  0
  159.3520  213.3140  154.4450 C   0  0  1  0  0  3  0  0  0  0  0  0
  157.9710  213.5350  153.8130 C   0  0  0  0  0  2  0  0  0  0  0  0
  160.6370  207.3620  155.4180 C   0  0  0  0  0  0  0  0  0  0  0  0
  160.6580  206.5200  156.4810 F   0  0  0  0  0  0  0  0  0  0  0  0
  160.6350  209.0820  153.1310 C   0  0  0  0  0  3  0  0  0  0  0  0
  158.5110  212.1570  151.8430 C   0  0  0  0  0  2  0  0  0  0  0  0
  159.4110  211.4420  155.7810 C   0  0  0  0  0  0  0  0  0  0  0  0
  159.1310  212.8290  155.8020 N   0  0  0  0  0  2  0  0  0  0  0  0
  160.8480  206.8840  154.1880 C   0  0  0  0  0  3  0  0  0  0  0  0
  159.9660  212.0090  152.2520 C   0  0  0  0  0  2  0  0  0  0  0  0
  160.7670  207.7570  152.9890 C   0  0  0  0  0  0  0  0  0  0  0  0
  160.3180  208.7880  155.5910 C   0  0  0  0  0  0  0  0  0  0  0  0
  160.7570  207.2110  151.6640 N   0  0  0  0  0  2  0  0  0  0  0  0
  161.8430  206.5430  151.0070 C   0  0  0  0  0  0  0  0  0  0  0  0
  162.9800  206.4670  151.5450 O   0  0  0  0  0  0  0  0  0  0  0  0
  161.7640  207.0020  148.4830 C   0  0  1  0  0  3  0  0  0  0  0  0
  160.3950  206.5830  148.9760 C   0  0  0  0  0  2  0  0  0  0  0  0
  162.0200  208.4430  148.9080 C   0  0  0  0  0  1  0  0  0  0  0  0
  161.6300  205.9850  149.6290 C   0  0  2  0  0  3  0  0  0  0  0  0
  1 13  1  0  0  0  0
  2 11  1  6  0  0  0
  2  1  1  0  0  0  0
  2 18  1  0  0  0  0
  4 16  1  6  0  0  0
  4  7  1  0  0  0  0
  4  1  1  0  0  0  0
  5  8  1  0  0  0  0
  6  3  1  0  0  0  0
  7  8  1  6  0  0  0
  7 14  1  0  0  0  0
  9 18  1  0  0  0  0
  9 10  1  0  0  0  0
 12 16  1  0  0  0  0
 12  5  1  0  0  0  0
 13 14  1  0  0  0  0
 13  3  2  0  0  0  0
 15  9  2  0  0  0  0
 17 11  2  0  0  0  0
 17 15  1  0  0  0  0
 18  6  2  0  0  0  0
 19 17  1  0  0  0  0
 20 21  2  0  0  0  0
 20 19  1  0  0  0  0
 22 24  1  1  0  0  0
 22 23  1  0  0  0  0
 22 25  1  0  0  0  0
 23 25  1  0  0  0  0
 25 20  1  1  0  0  0
M  END
>  <MODEL>
9

>  <REMARK>
 VINA RESULT:      -7.1      3.586      7.114
  Name = 
  2 active torsions:
  status: ('A' for Active; 'I' for Inactive)
    1  A    between atoms: N_6  and  C_23
    2  A    between atoms: C_15  and  C_21
                            x       y       z     vdW  Elec       q    Type
                         _______ _______ _______ _____ _____    ______ ____

>  <TORSDO>
F 2

$$$$
