=
 OpenBabel11052421533D

 30 31  0  0  1  0  0  0  0  0999 V2000
  161.7160  206.9730  150.2100 C   0  0  1  0  0  0  0  0  0  0  0  0
  163.2960  206.1920  148.2340 C   0  0  0  0  0  3  0  0  0  0  0  0
  163.0200  206.6100  149.4810 C   0  0  0  0  0  3  0  0  0  0  0  0
  162.7420  205.1080  146.1340 C   0  0  0  0  0  0  0  0  0  0  0  0
  161.9490  204.9860  144.8940 C   0  0  0  0  0  3  0  0  0  0  0  0
  163.8280  204.3100  146.2930 F   0  0  0  0  0  0  0  0  0  0  0  0
  160.7790  205.6140  144.7680 C   0  0  0  0  0  3  0  0  0  0  0  0
  162.4020  206.0020  147.0780 C   0  0  0  0  0  0  0  0  0  0  0  0
  160.2020  206.3880  145.9180 C   0  0  0  0  0  2  0  0  0  0  0  0
  161.3100  206.9970  146.7810 C   0  0  0  0  0  2  0  0  0  0  0  0
  159.7640  206.0120  149.0610 O   0  0  0  0  0  1  0  0  0  0  0  0
  160.6850  205.7950  150.0890 C   0  0  1  0  0  3  0  0  0  0  0  0
  160.8040  203.5680  148.7730 C   0  0  0  0  0  2  0  0  0  0  0  0
  160.7690  203.4440  151.1560 C   0  0  0  0  0  2  0  0  0  0  0  0
  161.1630  204.3340  150.0160 C   0  0  2  0  0  3  0  0  0  0  0  0
  160.8780  202.1510  149.1110 N   0  0  0  0  0  2  0  0  0  0  0  0
  160.9230  202.0550  150.5720 C   0  0  0  0  0  2  0  0  0  0  0  0
  161.9690  207.3390  151.7000 C   0  0  2  0  0  3  0  0  0  0  0  0
  161.6250  205.7640  153.5110 O   0  0  0  0  0  1  0  0  0  0  0  0
  162.5290  206.1710  152.5270 C   0  0  0  0  0  2  0  0  0  0  0  0
  160.7020  207.9060  152.3630 C   0  0  0  0  0  2  0  0  0  0  0  0
  160.9870  209.1640  153.1700 C   0  0  0  0  0  2  0  0  0  0  0  0
  160.0890  210.3000  152.7230 C   0  0  0  0  0  1  0  0  0  0  0  0
  161.1270  208.1470  149.6420 O   0  0  0  0  0  0  0  0  0  0  0  0
  161.9810  209.2690  149.6820 C   0  0  0  0  0  2  0  0  0  0  0  0
  161.7920  210.1060  148.4300 C   0  0  0  0  0  2  0  0  0  0  0  0
  162.0990  211.5630  148.7260 C   0  0  0  0  0  2  0  0  0  0  0  0
  162.7030  212.9900  146.7740 O   0  0  0  0  0  0  0  0  0  0  0  0
  161.7180  212.4050  147.5600 C   0  0  0  0  0  0  0  0  0  0  0  0
  160.5050  212.5630  147.2670 O   0  0  0  0  0  1  0  0  0  0  0  0
  1  3  1  6  0  0  0
  1 18  1  0  0  0  0
  2  3  2  0  0  0  0
  4  6  1  0  0  0  0
  4  8  2  0  0  0  0
  5  4  1  0  0  0  0
  7  5  2  0  0  0  0
  7  9  1  0  0  0  0
  8  2  1  0  0  0  0
  9 10  1  0  0  0  0
 10  8  1  0  0  0  0
 12 11  1  6  0  0  0
 12  1  1  0  0  0  0
 13 16  1  0  0  0  0
 13 15  1  0  0  0  0
 15 12  1  1  0  0  0
 15 14  1  0  0  0  0
 16 17  1  0  0  0  0
 17 14  1  0  0  0  0
 18 21  1  1  0  0  0
 18 20  1  0  0  0  0
 20 19  1  0  0  0  0
 21 22  1  0  0  0  0
 23 22  1  0  0  0  0
 24 25  1  0  0  0  0
 24  1  1  0  0  0  0
 26 27  1  0  0  0  0
 26 25  1  0  0  0  0
 28 29  2  0  0  0  0
 29 27  1  0  0  0  0
 30 29  1  0  0  0  0
M  END
>  <MODEL>
1

>  <REMARK>
 VINA RESULT:      -5.2      0.000      0.000
  Name = 
  13 active torsions:
  status: ('A' for Active; 'I' for Inactive)
    1  A    between atoms: C_1  and  C_22
    2  A    between atoms: C_3  and  C_19
    3  A    between atoms: C_4  and  C_13
    4  A    between atoms: C_7  and  C_15
    5  A    between atoms: C_7  and  C_16
    6  A    between atoms: C_8  and  C_12
    7  A    between atoms: C_8  and  C_13
    8  A    between atoms: C_13  and  C_23
    9  A    between atoms: C_13  and  O_27
   10  A    between atoms: C_16  and  C_30
   11  A    between atoms: C_19  and  C_23
   12  A    between atoms: C_23  and  C_25
   13  A    between atoms: O_27  and  C_30
                            x       y       z     vdW  Elec       q    Type
                         _______ _______ _______ _____ _____    ______ ____

>  <TORSDO>
F 13

$$$$
=
 OpenBabel11052421533D

 30 31  0  0  1  0  0  0  0  0999 V2000
  161.7080  206.7520  151.1400 C   0  0  1  0  0  0  0  0  0  0  0  0
  160.0580  206.0850  149.1790 C   0  0  0  0  0  3  0  0  0  0  0  0
  160.3750  206.5130  150.4130 C   0  0  0  0  0  3  0  0  0  0  0  0
  161.0550  206.3730  146.9840 C   0  0  0  0  0  0  0  0  0  0  0  0
  161.8030  205.8770  145.8120 C   0  0  0  0  0  3  0  0  0  0  0  0
  160.4850  207.6030  146.9190 F   0  0  0  0  0  0  0  0  0  0  0  0
  162.5290  204.7600  145.8890 C   0  0  0  0  0  3  0  0  0  0  0  0
  160.9290  205.6150  148.0870 C   0  0  0  0  0  0  0  0  0  0  0  0
  162.6700  204.0320  147.1950 C   0  0  0  0  0  2  0  0  0  0  0  0
  161.4090  204.1880  148.0490 C   0  0  0  0  0  2  0  0  0  0  0  0
  163.2560  207.1870  149.2780 O   0  0  0  0  0  1  0  0  0  0  0  0
  162.5780  207.7880  150.3420 C   0  0  1  0  0  3  0  0  0  0  0  0
  162.2170  209.4720  148.4100 C   0  0  0  0  0  2  0  0  0  0  0  0
  162.3280  210.3420  150.6290 C   0  0  0  0  0  2  0  0  0  0  0  0
  161.9720  209.1130  149.8490 C   0  0  2  0  0  3  0  0  0  0  0  0
  162.0320  210.9150  148.2950 N   0  0  0  0  0  2  0  0  0  0  0  0
  162.0330  211.4620  149.6540 C   0  0  0  0  0  2  0  0  0  0  0  0
  161.4900  207.2240  152.6060 C   0  0  2  0  0  3  0  0  0  0  0  0
  160.4840  206.5220  154.6980 O   0  0  0  0  0  1  0  0  0  0  0  0
  161.1870  206.0720  153.5770 C   0  0  0  0  0  2  0  0  0  0  0  0
  160.3960  208.3010  152.6940 C   0  0  0  0  0  2  0  0  0  0  0  0
  160.7830  209.4430  153.6220 C   0  0  0  0  0  2  0  0  0  0  0  0
  159.9220  210.6620  153.3570 C   0  0  0  0  0  1  0  0  0  0  0  0
  162.4480  205.5340  151.2550 O   0  0  0  0  0  0  0  0  0  0  0  0
  161.7720  204.5430  151.9970 C   0  0  0  0  0  2  0  0  0  0  0  0
  161.8380  203.2160  151.2650 C   0  0  0  0  0  2  0  0  0  0  0  0
  160.4420  202.6480  151.0880 C   0  0  0  0  0  2  0  0  0  0  0  0
  159.3550  201.4290  149.2060 O   0  0  0  0  0  0  0  0  0  0  0  0
  160.4560  201.5950  150.0370 C   0  0  0  0  0  0  0  0  0  0  0  0
  161.4750  200.8750  149.8800 O   0  0  0  0  0  1  0  0  0  0  0  0
  1  3  1  6  0  0  0
  1 24  1  0  0  0  0
  1 18  1  0  0  0  0
  2  3  2  0  0  0  0
  4  8  2  0  0  0  0
  5  7  2  0  0  0  0
  5  4  1  0  0  0  0
  6  4  1  0  0  0  0
  7  9  1  0  0  0  0
  8  2  1  0  0  0  0
  9 10  1  0  0  0  0
 10  8  1  0  0  0  0
 12 11  1  6  0  0  0
 12  1  1  0  0  0  0
 13 15  1  0  0  0  0
 15 12  1  1  0  0  0
 15 14  1  0  0  0  0
 16 13  1  0  0  0  0
 16 17  1  0  0  0  0
 17 14  1  0  0  0  0
 18 21  1  6  0  0  0
 18 20  1  0  0  0  0
 20 19  1  0  0  0  0
 21 22  1  0  0  0  0
 23 22  1  0  0  0  0
 24 25  1  0  0  0  0
 26 25  1  0  0  0  0
 27 26  1  0  0  0  0
 28 29  2  0  0  0  0
 29 27  1  0  0  0  0
 30 29  1  0  0  0  0
M  END
>  <MODEL>
2

>  <REMARK>
 VINA RESULT:      -4.8      2.818      5.752
  Name = 
  13 active torsions:
  status: ('A' for Active; 'I' for Inactive)
    1  A    between atoms: C_1  and  C_22
    2  A    between atoms: C_3  and  C_19
    3  A    between atoms: C_4  and  C_13
    4  A    between atoms: C_7  and  C_15
    5  A    between atoms: C_7  and  C_16
    6  A    between atoms: C_8  and  C_12
    7  A    between atoms: C_8  and  C_13
    8  A    between atoms: C_13  and  C_23
    9  A    between atoms: C_13  and  O_27
   10  A    between atoms: C_16  and  C_30
   11  A    between atoms: C_19  and  C_23
   12  A    between atoms: C_23  and  C_25
   13  A    between atoms: O_27  and  C_30
                            x       y       z     vdW  Elec       q    Type
                         _______ _______ _______ _____ _____    ______ ____

>  <TORSDO>
F 13

$$$$
=
 OpenBabel11052421533D

 30 31  0  0  1  0  0  0  0  0999 V2000
  161.0790  205.2320  150.4080 C   0  0  1  0  0  0  0  0  0  0  0  0
  163.1410  206.8910  150.4660 C   0  0  0  0  0  3  0  0  0  0  0  0
  162.5420  205.6890  150.5160 C   0  0  0  0  0  3  0  0  0  0  0  0
  162.4490  208.8030  149.1400 C   0  0  0  0  0  0  0  0  0  0  0  0
  161.9990  210.2020  148.9980 C   0  0  0  0  0  3  0  0  0  0  0  0
  162.7690  208.1060  148.0210 F   0  0  0  0  0  0  0  0  0  0  0  0
  161.5050  210.8690  150.0420 C   0  0  0  0  0  3  0  0  0  0  0  0
  162.5550  208.2390  150.3550 C   0  0  0  0  0  0  0  0  0  0  0  0
  161.3150  210.1820  151.3640 C   0  0  0  0  0  2  0  0  0  0  0  0
  162.3770  209.1000  151.5780 C   0  0  0  0  0  2  0  0  0  0  0  0
  159.7460  206.6000  148.8570 O   0  0  0  0  0  1  0  0  0  0  0  0
  160.5490  205.4600  148.9460 C   0  0  1  0  0  3  0  0  0  0  0  0
  161.0620  206.1720  146.5100 C   0  0  0  0  0  2  0  0  0  0  0  0
  161.9720  204.1020  147.2730 C   0  0  0  0  0  2  0  0  0  0  0  0
  161.5140  205.4470  147.7480 C   0  0  2  0  0  3  0  0  0  0  0  0
  161.8250  205.6230  145.3950 N   0  0  0  0  0  2  0  0  0  0  0  0
  162.4460  204.3820  145.8630 C   0  0  0  0  0  2  0  0  0  0  0  0
  160.9040  203.7470  150.8350 C   0  0  2  0  0  3  0  0  0  0  0  0
  161.9650  202.0890  152.2500 O   0  0  0  0  0  1  0  0  0  0  0  0
  162.2110  203.0920  151.3090 C   0  0  0  0  0  2  0  0  0  0  0  0
  160.2600  202.9120  149.7150 C   0  0  0  0  0  2  0  0  0  0  0  0
  160.5690  201.4280  149.8510 C   0  0  0  0  0  2  0  0  0  0  0  0
  161.0860  200.8680  148.5410 C   0  0  0  0  0  1  0  0  0  0  0  0
  160.2480  205.9710  151.3090 O   0  0  0  0  0  0  0  0  0  0  0  0
  160.5970  205.7840  152.6620 C   0  0  0  0  0  2  0  0  0  0  0  0
  160.7380  207.1290  153.3500 C   0  0  0  0  0  2  0  0  0  0  0  0
  160.6330  206.9600  154.8540 C   0  0  0  0  0  2  0  0  0  0  0  0
  161.2320  209.3760  154.9590 O   0  0  0  0  0  0  0  0  0  0  0  0
  161.2750  208.1140  155.5380 C   0  0  0  0  0  0  0  0  0  0  0  0
  161.8320  207.9550  156.6540 O   0  0  0  0  0  1  0  0  0  0  0  0
  1  3  1  1  0  0  0
  1 18  1  0  0  0  0
  1 24  1  0  0  0  0
  2  3  2  0  0  0  0
  4  8  2  0  0  0  0
  5  4  1  0  0  0  0
  5  7  2  0  0  0  0
  6  4  1  0  0  0  0
  7  9  1  0  0  0  0
  8  2  1  0  0  0  0
  8 10  1  0  0  0  0
  9 10  1  0  0  0  0
 12 11  1  1  0  0  0
 12  1  1  0  0  0  0
 13 15  1  0  0  0  0
 14 15  1  0  0  0  0
 15 12  1  1  0  0  0
 16 17  1  0  0  0  0
 16 13  1  0  0  0  0
 17 14  1  0  0  0  0
 18 21  1  6  0  0  0
 18 20  1  0  0  0  0
 20 19  1  0  0  0  0
 21 22  1  0  0  0  0
 23 22  1  0  0  0  0
 24 25  1  0  0  0  0
 25 26  1  0  0  0  0
 26 27  1  0  0  0  0
 27 29  1  0  0  0  0
 28 29  2  0  0  0  0
 29 30  1  0  0  0  0
M  END
>  <MODEL>
3

>  <REMARK>
 VINA RESULT:      -4.7      2.561      5.743
  Name = 
  13 active torsions:
  status: ('A' for Active; 'I' for Inactive)
    1  A    between atoms: C_1  and  C_22
    2  A    between atoms: C_3  and  C_19
    3  A    between atoms: C_4  and  C_13
    4  A    between atoms: C_7  and  C_15
    5  A    between atoms: C_7  and  C_16
    6  A    between atoms: C_8  and  C_12
    7  A    between atoms: C_8  and  C_13
    8  A    between atoms: C_13  and  C_23
    9  A    between atoms: C_13  and  O_27
   10  A    between atoms: C_16  and  C_30
   11  A    between atoms: C_19  and  C_23
   12  A    between atoms: C_23  and  C_25
   13  A    between atoms: O_27  and  C_30
                            x       y       z     vdW  Elec       q    Type
                         _______ _______ _______ _____ _____    ______ ____

>  <TORSDO>
F 13

$$$$
=
 OpenBabel11052421533D

 30 31  0  0  1  0  0  0  0  0999 V2000
  161.9140  207.1950  149.5640 C   0  0  1  0  0  0  0  0  0  0  0  0
  159.8660  205.5330  149.7930 C   0  0  0  0  0  3  0  0  0  0  0  0
  160.4500  206.7270  149.5970 C   0  0  0  0  0  3  0  0  0  0  0  0
  160.6840  203.3430  149.1380 C   0  0  0  0  0  0  0  0  0  0  0  0
  161.1510  201.9760  149.4440 C   0  0  0  0  0  3  0  0  0  0  0  0
  160.4670  203.6820  147.8420 F   0  0  0  0  0  0  0  0  0  0  0  0
  161.5480  201.6500  150.6750 C   0  0  0  0  0  3  0  0  0  0  0  0
  160.4650  204.2270  150.1260 C   0  0  0  0  0  0  0  0  0  0  0  0
  161.6130  202.6910  151.7550 C   0  0  0  0  0  2  0  0  0  0  0  0
  160.5310  203.7570  151.5550 C   0  0  0  0  0  2  0  0  0  0  0  0
  163.8570  206.4630  148.2450 O   0  0  0  0  0  1  0  0  0  0  0  0
  162.5380  206.9130  148.1510 C   0  0  1  0  0  3  0  0  0  0  0  0
  162.6420  205.3630  146.0790 C   0  0  0  0  0  2  0  0  0  0  0  0
  160.6880  206.7030  146.3620 C   0  0  0  0  0  2  0  0  0  0  0  0
  161.7970  206.0420  147.1220 C   0  0  2  0  0  3  0  0  0  0  0  0
  161.7620  205.0460  144.9600 N   0  0  0  0  0  2  0  0  0  0  0  0
  160.5270  205.8110  145.1490 C   0  0  0  0  0  2  0  0  0  0  0  0
  162.0480  208.6980  149.9410 C   0  0  2  0  0  3  0  0  0  0  0  0
  161.4850  210.1170  151.8240 O   0  0  0  0  0  1  0  0  0  0  0  0
  160.9720  209.1780  150.9260 C   0  0  0  0  0  2  0  0  0  0  0  0
  162.0660  209.5920  148.6880 C   0  0  0  0  0  2  0  0  0  0  0  0
  161.9150  211.0670  149.0300 C   0  0  0  0  0  2  0  0  0  0  0  0
  162.8760  211.9050  148.2100 C   0  0  0  0  0  1  0  0  0  0  0  0
  162.6900  206.5030  150.5460 O   0  0  0  0  0  0  0  0  0  0  0  0
  162.7170  207.1590  151.7940 C   0  0  0  0  0  2  0  0  0  0  0  0
  162.0510  206.2930  152.8470 C   0  0  0  0  0  2  0  0  0  0  0  0
  160.7620  206.9430  153.3180 C   0  0  0  0  0  2  0  0  0  0  0  0
  161.3750  208.7950  154.8670 O   0  0  0  0  0  0  0  0  0  0  0  0
  160.9440  207.4870  154.6900 C   0  0  0  0  0  0  0  0  0  0  0  0
  160.6800  206.7720  155.6910 O   0  0  0  0  0  1  0  0  0  0  0  0
  1  3  1  1  0  0  0
  1 18  1  0  0  0  0
  1 24  1  0  0  0  0
  2  8  1  0  0  0  0
  3  2  2  0  0  0  0
  4  5  1  0  0  0  0
  4  8  2  0  0  0  0
  5  7  2  0  0  0  0
  6  4  1  0  0  0  0
  7  9  1  0  0  0  0
  8 10  1  0  0  0  0
 10  9  1  0  0  0  0
 12 11  1  1  0  0  0
 12  1  1  0  0  0  0
 13 15  1  0  0  0  0
 14 15  1  0  0  0  0
 15 12  1  6  0  0  0
 16 17  1  0  0  0  0
 16 13  1  0  0  0  0
 17 14  1  0  0  0  0
 18 21  1  6  0  0  0
 18 20  1  0  0  0  0
 20 19  1  0  0  0  0
 21 22  1  0  0  0  0
 23 22  1  0  0  0  0
 24 25  1  0  0  0  0
 25 26  1  0  0  0  0
 26 27  1  0  0  0  0
 27 29  1  0  0  0  0
 29 28  2  0  0  0  0
 29 30  1  0  0  0  0
M  END
>  <MODEL>
4

>  <REMARK>
 VINA RESULT:      -4.4      2.257      5.351
  Name = 
  13 active torsions:
  status: ('A' for Active; 'I' for Inactive)
    1  A    between atoms: C_1  and  C_22
    2  A    between atoms: C_3  and  C_19
    3  A    between atoms: C_4  and  C_13
    4  A    between atoms: C_7  and  C_15
    5  A    between atoms: C_7  and  C_16
    6  A    between atoms: C_8  and  C_12
    7  A    between atoms: C_8  and  C_13
    8  A    between atoms: C_13  and  C_23
    9  A    between atoms: C_13  and  O_27
   10  A    between atoms: C_16  and  C_30
   11  A    between atoms: C_19  and  C_23
   12  A    between atoms: C_23  and  C_25
   13  A    between atoms: O_27  and  C_30
                            x       y       z     vdW  Elec       q    Type
                         _______ _______ _______ _____ _____    ______ ____

>  <TORSDO>
F 13

$$$$
=
 OpenBabel11052421533D

 30 31  0  0  1  0  0  0  0  0999 V2000
  161.5790  208.0200  151.2360 C   0  0  1  0  0  0  0  0  0  0  0  0
  162.8680  210.3180  150.9780 C   0  0  0  0  0  3  0  0  0  0  0  0
  162.7260  209.0370  151.3560 C   0  0  0  0  0  3  0  0  0  0  0  0
  161.9800  211.4660  149.0310 C   0  0  0  0  0  0  0  0  0  0  0  0
  161.1200  212.4810  148.3910 C   0  0  0  0  0  3  0  0  0  0  0  0
  162.8640  210.7820  148.2610 F   0  0  0  0  0  0  0  0  0  0  0  0
  160.1180  213.0490  149.0630 C   0  0  0  0  0  3  0  0  0  0  0  0
  161.8980  211.2350  150.3530 C   0  0  0  0  0  0  0  0  0  0  0  0
  159.7880  212.6020  150.4590 C   0  0  0  0  0  2  0  0  0  0  0  0
  161.0470  212.1440  151.2010 C   0  0  0  0  0  2  0  0  0  0  0  0
  163.1740  206.3700  152.1230 O   0  0  0  0  0  1  0  0  0  0  0  0
  162.1570  206.5600  151.1840 C   0  0  1  0  0  3  0  0  0  0  0  0
  161.3850  204.4010  152.3870 C   0  0  0  0  0  2  0  0  0  0  0  0
  161.2110  204.4650  150.0080 C   0  0  0  0  0  2  0  0  0  0  0  0
  161.2210  205.3400  151.2240 C   0  0  2  0  0  3  0  0  0  0  0  0
  160.8150  203.1210  151.9830 N   0  0  0  0  0  2  0  0  0  0  0  0
  160.6390  203.1630  150.5300 C   0  0  0  0  0  2  0  0  0  0  0  0
  160.5510  208.1680  152.3930 C   0  0  2  0  0  3  0  0  0  0  0  0
  159.9500  210.1750  153.6130 O   0  0  0  0  0  1  0  0  0  0  0  0
  159.8180  209.5190  152.3860 C   0  0  0  0  0  2  0  0  0  0  0  0
  161.2050  207.9190  153.7630 C   0  0  0  0  0  2  0  0  0  0  0  0
  160.4540  206.8800  154.5810 C   0  0  0  0  0  2  0  0  0  0  0  0
  160.0550  207.4480  155.9290 C   0  0  0  0  0  1  0  0  0  0  0  0
  160.8220  208.2470  150.0430 O   0  0  0  0  0  0  0  0  0  0  0  0
  161.5630  208.0180  148.8650 C   0  0  0  0  0  2  0  0  0  0  0  0
  160.8310  207.0260  147.9810 C   0  0  0  0  0  2  0  0  0  0  0  0
  161.7820  206.4430  146.9520 C   0  0  0  0  0  2  0  0  0  0  0  0
  161.2710  204.2940  145.8000 O   0  0  0  0  0  1  0  0  0  0  0  0
  161.0190  205.6520  145.9510 C   0  0  0  0  0  0  0  0  0  0  0  0
  160.1240  206.2040  145.2610 O   0  0  0  0  0  0  0  0  0  0  0  0
  1  3  1  1  0  0  0
  1 18  1  0  0  0  0
  2  3  2  0  0  0  0
  4  8  2  0  0  0  0
  5  4  1  0  0  0  0
  5  7  2  0  0  0  0
  6  4  1  0  0  0  0
  7  9  1  0  0  0  0
  8  2  1  0  0  0  0
  8 10  1  0  0  0  0
  9 10  1  0  0  0  0
 12  1  1  0  0  0  0
 12 11  1  1  0  0  0
 14 17  1  0  0  0  0
 14 15  1  0  0  0  0
 15 12  1  6  0  0  0
 15 13  1  0  0  0  0
 16 13  1  0  0  0  0
 17 16  1  0  0  0  0
 18 20  1  1  0  0  0
 18 21  1  0  0  0  0
 20 19  1  0  0  0  0
 21 22  1  0  0  0  0
 22 23  1  0  0  0  0
 24  1  1  0  0  0  0
 25 24  1  0  0  0  0
 26 25  1  0  0  0  0
 27 26  1  0  0  0  0
 28 29  1  0  0  0  0
 29 27  1  0  0  0  0
 30 29  2  0  0  0  0
M  END
>  <MODEL>
5

>  <REMARK>
 VINA RESULT:      -4.0      2.434      5.037
  Name = 
  13 active torsions:
  status: ('A' for Active; 'I' for Inactive)
    1  A    between atoms: C_1  and  C_22
    2  A    between atoms: C_3  and  C_19
    3  A    between atoms: C_4  and  C_13
    4  A    between atoms: C_7  and  C_15
    5  A    between atoms: C_7  and  C_16
    6  A    between atoms: C_8  and  C_12
    7  A    between atoms: C_8  and  C_13
    8  A    between atoms: C_13  and  C_23
    9  A    between atoms: C_13  and  O_27
   10  A    between atoms: C_16  and  C_30
   11  A    between atoms: C_19  and  C_23
   12  A    between atoms: C_23  and  C_25
   13  A    between atoms: O_27  and  C_30
                            x       y       z     vdW  Elec       q    Type
                         _______ _______ _______ _____ _____    ______ ____

>  <TORSDO>
F 13

$$$$
=
 OpenBabel11052421533D

 30 31  0  0  1  0  0  0  0  0999 V2000
  161.8170  205.9870  149.4580 C   0  0  1  0  0  0  0  0  0  0  0  0
  163.2020  205.1650  147.3570 C   0  0  0  0  0  3  0  0  0  0  0  0
  163.0240  205.8050  148.5250 C   0  0  0  0  0  3  0  0  0  0  0  0
  161.8800  204.9900  145.3280 C   0  0  0  0  0  0  0  0  0  0  0  0
  160.8080  204.3820  144.5140 C   0  0  0  0  0  3  0  0  0  0  0  0
  162.4920  206.1090  144.8670 F   0  0  0  0  0  0  0  0  0  0  0  0
  160.3020  203.1900  144.8330 C   0  0  0  0  0  3  0  0  0  0  0  0
  162.2290  204.4520  146.5090 C   0  0  0  0  0  0  0  0  0  0  0  0
  160.8720  202.4010  145.9760 C   0  0  0  0  0  2  0  0  0  0  0  0
  161.3990  203.3290  147.0740 C   0  0  0  0  0  2  0  0  0  0  0  0
  163.4050  207.1500  150.9330 O   0  0  0  0  0  1  0  0  0  0  0  0
  162.3050  206.2890  150.9200 C   0  0  1  0  0  3  0  0  0  0  0  0
  161.3880  208.1900  152.4190 C   0  0  0  0  0  2  0  0  0  0  0  0
  161.3140  205.9670  153.2820 C   0  0  0  0  0  2  0  0  0  0  0  0
  161.3130  206.7470  152.0030 C   0  0  2  0  0  3  0  0  0  0  0  0
  160.7760  208.2830  153.7400 N   0  0  0  0  0  2  0  0  0  0  0  0
  160.6620  206.9190  154.2630 C   0  0  0  0  0  2  0  0  0  0  0  0
  160.8590  207.1030  148.9510 C   0  0  2  0  0  3  0  0  0  0  0  0
  160.0640  206.8010  146.6810 O   0  0  0  0  0  1  0  0  0  0  0  0
  159.7510  206.5790  148.0240 C   0  0  0  0  0  2  0  0  0  0  0  0
  161.6340  208.2430  148.2700 C   0  0  0  0  0  2  0  0  0  0  0  0
  161.9360  209.3880  149.2250 C   0  0  0  0  0  2  0  0  0  0  0  0
  161.9710  210.7090  148.4820 C   0  0  0  0  0  1  0  0  0  0  0  0
  161.0140  204.8030  149.4860 O   0  0  0  0  0  0  0  0  0  0  0  0
  161.5820  203.7670  150.2560 C   0  0  0  0  0  2  0  0  0  0  0  0
  160.5000  203.0630  151.0530 C   0  0  0  0  0  2  0  0  0  0  0  0
  160.6590  201.5590  150.9340 C   0  0  0  0  0  2  0  0  0  0  0  0
  161.3690  200.4900  148.7980 O   0  0  0  0  0  0  0  0  0  0  0  0
  160.3830  201.1320  149.5360 C   0  0  0  0  0  0  0  0  0  0  0  0
  159.2470  201.3240  149.0320 O   0  0  0  0  0  1  0  0  0  0  0  0
  1  3  1  6  0  0  0
  1 24  1  0  0  0  0
  1 12  1  0  0  0  0
  2  3  2  0  0  0  0
  4  8  2  0  0  0  0
  5  7  2  0  0  0  0
  5  4  1  0  0  0  0
  6  4  1  0  0  0  0
  7  9  1  0  0  0  0
  8 10  1  0  0  0  0
  8  2  1  0  0  0  0
  9 10  1  0  0  0  0
 12 11  1  6  0  0  0
 13 16  1  0  0  0  0
 14 17  1  0  0  0  0
 15 12  1  6  0  0  0
 15 13  1  0  0  0  0
 15 14  1  0  0  0  0
 16 17  1  0  0  0  0
 18 20  1  6  0  0  0
 18  1  1  0  0  0  0
 19 20  1  0  0  0  0
 21 18  1  0  0  0  0
 21 22  1  0  0  0  0
 23 22  1  0  0  0  0
 24 25  1  0  0  0  0
 25 26  1  0  0  0  0
 27 26  1  0  0  0  0
 28 29  2  0  0  0  0
 29 27  1  0  0  0  0
 30 29  1  0  0  0  0
M  END
>  <MODEL>
6

>  <REMARK>
 VINA RESULT:      -4.0      2.621      5.785
  Name = 
  13 active torsions:
  status: ('A' for Active; 'I' for Inactive)
    1  A    between atoms: C_1  and  C_22
    2  A    between atoms: C_3  and  C_19
    3  A    between atoms: C_4  and  C_13
    4  A    between atoms: C_7  and  C_15
    5  A    between atoms: C_7  and  C_16
    6  A    between atoms: C_8  and  C_12
    7  A    between atoms: C_8  and  C_13
    8  A    between atoms: C_13  and  C_23
    9  A    between atoms: C_13  and  O_27
   10  A    between atoms: C_16  and  C_30
   11  A    between atoms: C_19  and  C_23
   12  A    between atoms: C_23  and  C_25
   13  A    between atoms: O_27  and  C_30
                            x       y       z     vdW  Elec       q    Type
                         _______ _______ _______ _____ _____    ______ ____

>  <TORSDO>
F 13

$$$$
=
 OpenBabel11052421533D

 30 31  0  0  1  0  0  0  0  0999 V2000
  159.3950  211.8800  154.6260 C   0  0  1  0  0  0  0  0  0  0  0  0
  161.6820  210.5470  154.6990 C   0  0  0  0  0  3  0  0  0  0  0  0
  160.8720  211.5920  154.9380 C   0  0  0  0  0  3  0  0  0  0  0  0
  161.6150  209.2800  152.6290 C   0  0  0  0  0  0  0  0  0  0  0  0
  161.2360  208.0960  151.8310 C   0  0  0  0  0  3  0  0  0  0  0  0
  162.1470  210.3520  151.9900 F   0  0  0  0  0  0  0  0  0  0  0  0
  160.8800  206.9570  152.4280 C   0  0  0  0  0  3  0  0  0  0  0  0
  161.4230  209.2980  153.9590 C   0  0  0  0  0  0  0  0  0  0  0  0
  160.9420  206.8280  153.9230 C   0  0  0  0  0  2  0  0  0  0  0  0
  160.6570  208.1710  154.6010 C   0  0  0  0  0  2  0  0  0  0  0  0
  159.0610  210.5820  156.6890 O   0  0  0  0  0  1  0  0  0  0  0  0
  158.4710  210.9330  155.4720 C   0  0  1  0  0  3  0  0  0  0  0  0
  156.6130  211.5750  157.1570 C   0  0  0  0  0  2  0  0  0  0  0  0
  155.9730  210.3250  155.2280 C   0  0  0  0  0  2  0  0  0  0  0  0
  156.9980  211.2950  155.7310 C   0  0  2  0  0  3  0  0  0  0  0  0
  155.1700  211.3830  157.2530 N   0  0  0  0  0  2  0  0  0  0  0  0
  154.7460  210.6720  156.0440 C   0  0  0  0  0  2  0  0  0  0  0  0
  159.0320  213.3720  154.8690 C   0  0  2  0  0  3  0  0  0  0  0  0
  158.6840  214.3060  157.0790 O   0  0  0  0  0  1  0  0  0  0  0  0
  159.6610  213.9510  156.1460 C   0  0  0  0  0  2  0  0  0  0  0  0
  157.5090  213.5860  154.8770 C   0  0  0  0  0  2  0  0  0  0  0  0
  157.0420  214.4530  153.7170 C   0  0  0  0  0  2  0  0  0  0  0  0
  155.7050  213.9680  153.1920 C   0  0  0  0  0  1  0  0  0  0  0  0
  159.1180  211.6580  153.2390 O   0  0  0  0  0  0  0  0  0  0  0  0
  159.8410  212.5170  152.3860 C   0  0  0  0  0  2  0  0  0  0  0  0
  158.9900  212.8900  151.1870 C   0  0  0  0  0  2  0  0  0  0  0  0
  159.6850  213.9610  150.3660 C   0  0  0  0  0  2  0  0  0  0  0  0
  159.0480  213.3120  148.0470 O   0  0  0  0  0  0  0  0  0  0  0  0
  160.0300  213.4230  149.0230 C   0  0  0  0  0  0  0  0  0  0  0  0
  161.2150  213.0950  148.7610 O   0  0  0  0  0  1  0  0  0  0  0  0
  1 18  1  0  0  0  0
  1  3  1  1  0  0  0
  1 12  1  0  0  0  0
  2  3  2  0  0  0  0
  4  8  2  0  0  0  0
  5  7  2  0  0  0  0
  5  4  1  0  0  0  0
  6  4  1  0  0  0  0
  7  9  1  0  0  0  0
  8 10  1  0  0  0  0
  8  2  1  0  0  0  0
  9 10  1  0  0  0  0
 12 11  1  1  0  0  0
 13 16  1  0  0  0  0
 14 15  1  0  0  0  0
 14 17  1  0  0  0  0
 15 12  1  1  0  0  0
 15 13  1  0  0  0  0
 17 16  1  0  0  0  0
 18 21  1  1  0  0  0
 18 20  1  0  0  0  0
 20 19  1  0  0  0  0
 22 21  1  0  0  0  0
 23 22  1  0  0  0  0
 24  1  1  0  0  0  0
 25 24  1  0  0  0  0
 26 25  1  0  0  0  0
 27 26  1  0  0  0  0
 28 29  2  0  0  0  0
 29 27  1  0  0  0  0
 30 29  1  0  0  0  0
M  END
>  <MODEL>
7

>  <REMARK>
 VINA RESULT:      -3.9      5.157      7.924
  Name = 
  13 active torsions:
  status: ('A' for Active; 'I' for Inactive)
    1  A    between atoms: C_1  and  C_22
    2  A    between atoms: C_3  and  C_19
    3  A    between atoms: C_4  and  C_13
    4  A    between atoms: C_7  and  C_15
    5  A    between atoms: C_7  and  C_16
    6  A    between atoms: C_8  and  C_12
    7  A    between atoms: C_8  and  C_13
    8  A    between atoms: C_13  and  C_23
    9  A    between atoms: C_13  and  O_27
   10  A    between atoms: C_16  and  C_30
   11  A    between atoms: C_19  and  C_23
   12  A    between atoms: C_23  and  C_25
   13  A    between atoms: O_27  and  C_30
                            x       y       z     vdW  Elec       q    Type
                         _______ _______ _______ _____ _____    ______ ____

>  <TORSDO>
F 13

$$$$
=
 OpenBabel11052421533D

 30 31  0  0  1  0  0  0  0  0999 V2000
  161.7300  206.2480  149.2520 C   0  0  1  0  0  0  0  0  0  0  0  0
  163.0810  206.5800  151.5050 C   0  0  0  0  0  3  0  0  0  0  0  0
  162.9140  206.1860  150.2310 C   0  0  0  0  0  3  0  0  0  0  0  0
  161.5500  206.3730  153.3780 C   0  0  0  0  0  0  0  0  0  0  0  0
  160.4760  206.8860  154.2520 C   0  0  0  0  0  3  0  0  0  0  0  0
  161.9460  205.0830  153.5210 F   0  0  0  0  0  0  0  0  0  0  0  0
  160.1770  208.1860  154.2750 C   0  0  0  0  0  3  0  0  0  0  0  0
  162.1140  207.1660  152.4500 C   0  0  0  0  0  0  0  0  0  0  0  0
  160.9870  209.1670  153.4780 C   0  0  0  0  0  2  0  0  0  0  0  0
  161.5190  208.5260  152.1930 C   0  0  0  0  0  2  0  0  0  0  0  0
  163.6390  206.1320  147.7030 O   0  0  0  0  0  1  0  0  0  0  0  0
  162.2570  206.3260  147.7740 C   0  0  1  0  0  3  0  0  0  0  0  0
  162.5060  204.8820  145.6390 C   0  0  0  0  0  2  0  0  0  0  0  0
  160.5310  206.2030  145.8570 C   0  0  0  0  0  2  0  0  0  0  0  0
  161.5910  205.5070  146.6560 C   0  0  2  0  0  3  0  0  0  0  0  0
  161.7040  204.6210  144.4490 N   0  0  0  0  0  2  0  0  0  0  0  0
  160.4560  205.3730  144.5930 C   0  0  0  0  0  2  0  0  0  0  0  0
  160.7660  205.0410  149.4340 C   0  0  2  0  0  3  0  0  0  0  0  0
  160.3000  203.9120  151.5280 O   0  0  0  0  0  1  0  0  0  0  0  0
  160.0190  205.0560  150.7760 C   0  0  0  0  0  2  0  0  0  0  0  0
  161.4990  203.7020  149.2420 C   0  0  0  0  0  2  0  0  0  0  0  0
  160.7040  202.7260  148.3880 C   0  0  0  0  0  2  0  0  0  0  0  0
  160.8130  201.3200  148.9430 C   0  0  0  0  0  1  0  0  0  0  0  0
  160.9220  207.4010  149.5040 O   0  0  0  0  0  0  0  0  0  0  0  0
  161.1710  208.4590  148.6050 C   0  0  0  0  0  2  0  0  0  0  0  0
  162.3310  209.2990  149.1050 C   0  0  0  0  0  2  0  0  0  0  0  0
  161.8530  210.6990  149.4450 C   0  0  0  0  0  2  0  0  0  0  0  0
  163.2620  212.1350  147.9740 O   0  0  0  0  0  1  0  0  0  0  0  0
  162.0180  211.5890  148.2640 C   0  0  0  0  0  0  0  0  0  0  0  0
  161.0380  211.8230  147.5110 O   0  0  0  0  0  0  0  0  0  0  0  0
  1 18  1  0  0  0  0
  1 24  1  0  0  0  0
  1  3  1  1  0  0  0
  2  8  1  0  0  0  0
  3  2  2  0  0  0  0
  4  6  1  0  0  0  0
  4  5  1  0  0  0  0
  5  7  2  0  0  0  0
  8  4  2  0  0  0  0
  9  7  1  0  0  0  0
 10  8  1  0  0  0  0
 10  9  1  0  0  0  0
 12 11  1  1  0  0  0
 12  1  1  0  0  0  0
 13 15  1  0  0  0  0
 14 15  1  0  0  0  0
 15 12  1  6  0  0  0
 16 17  1  0  0  0  0
 16 13  1  0  0  0  0
 17 14  1  0  0  0  0
 18 21  1  1  0  0  0
 18 20  1  0  0  0  0
 20 19  1  0  0  0  0
 22 23  1  0  0  0  0
 22 21  1  0  0  0  0
 25 26  1  0  0  0  0
 25 24  1  0  0  0  0
 26 27  1  0  0  0  0
 28 29  1  0  0  0  0
 29 27  1  0  0  0  0
 30 29  2  0  0  0  0
M  END
>  <MODEL>
8

>  <REMARK>
 VINA RESULT:      -3.9      2.168      5.281
  Name = 
  13 active torsions:
  status: ('A' for Active; 'I' for Inactive)
    1  A    between atoms: C_1  and  C_22
    2  A    between atoms: C_3  and  C_19
    3  A    between atoms: C_4  and  C_13
    4  A    between atoms: C_7  and  C_15
    5  A    between atoms: C_7  and  C_16
    6  A    between atoms: C_8  and  C_12
    7  A    between atoms: C_8  and  C_13
    8  A    between atoms: C_13  and  C_23
    9  A    between atoms: C_13  and  O_27
   10  A    between atoms: C_16  and  C_30
   11  A    between atoms: C_19  and  C_23
   12  A    between atoms: C_23  and  C_25
   13  A    between atoms: O_27  and  C_30
                            x       y       z     vdW  Elec       q    Type
                         _______ _______ _______ _____ _____    ______ ____

>  <TORSDO>
F 13

$$$$
=
 OpenBabel11052421533D

 30 31  0  0  1  0  0  0  0  0999 V2000
  161.9830  207.6780  150.3410 C   0  0  1  0  0  0  0  0  0  0  0  0
  162.9330  205.5400  151.5810 C   0  0  0  0  0  3  0  0  0  0  0  0
  162.9600  206.8130  151.1540 C   0  0  0  0  0  3  0  0  0  0  0  0
  161.1850  204.0480  152.3660 C   0  0  0  0  0  0  0  0  0  0  0  0
  160.2770  202.8960  152.2000 C   0  0  0  0  0  3  0  0  0  0  0  0
  161.2560  204.6510  153.5800 F   0  0  0  0  0  0  0  0  0  0  0  0
  160.0370  202.3850  150.9910 C   0  0  0  0  0  3  0  0  0  0  0  0
  161.9360  204.4800  151.3390 C   0  0  0  0  0  0  0  0  0  0  0  0
  160.6170  203.0270  149.7640 C   0  0  0  0  0  2  0  0  0  0  0  0
  161.9730  203.6700  150.0700 C   0  0  0  0  0  2  0  0  0  0  0  0
  159.7820  206.9020  149.5620 O   0  0  0  0  0  1  0  0  0  0  0  0
  161.1580  206.7760  149.3550 C   0  0  1  0  0  3  0  0  0  0  0  0
  160.2730  206.4730  146.9410 C   0  0  0  0  0  2  0  0  0  0  0  0
  162.5720  205.9780  147.3470 C   0  0  0  0  0  2  0  0  0  0  0  0
  161.4290  206.8120  147.8410 C   0  0  2  0  0  3  0  0  0  0  0  0
  160.8390  206.0680  145.6580 N   0  0  0  0  0  2  0  0  0  0  0  0
  162.2660  205.8210  145.8720 C   0  0  0  0  0  2  0  0  0  0  0  0
  161.0380  208.5030  151.2610 C   0  0  2  0  0  3  0  0  0  0  0  0
  160.6890  210.8410  151.7950 O   0  0  0  0  0  1  0  0  0  0  0  0
  161.6520  209.8310  151.7290 C   0  0  0  0  0  2  0  0  0  0  0  0
  160.5660  207.6750  152.4690 C   0  0  0  0  0  2  0  0  0  0  0  0
  161.0530  208.2510  153.7900 C   0  0  0  0  0  2  0  0  0  0  0  0
  160.5200  207.4410  154.9550 C   0  0  0  0  0  1  0  0  0  0  0  0
  162.6900  208.6570  149.5730 O   0  0  0  0  0  0  0  0  0  0  0  0
  161.8380  209.4810  148.8090 C   0  0  0  0  0  2  0  0  0  0  0  0
  162.5220  210.8050  148.5230 C   0  0  0  0  0  2  0  0  0  0  0  0
  161.4960  211.9220  148.4740 C   0  0  0  0  0  2  0  0  0  0  0  0
  160.2860  212.6530  146.4230 O   0  0  0  0  0  0  0  0  0  0  0  0
  161.4820  212.5350  147.1190 C   0  0  0  0  0  0  0  0  0  0  0  0
  162.5470  212.9740  146.6150 O   0  0  0  0  0  1  0  0  0  0  0  0
  1  3  1  1  0  0  0
  1 18  1  0  0  0  0
  3  2  2  0  0  0  0
  4  6  1  0  0  0  0
  5  4  1  0  0  0  0
  7  5  2  0  0  0  0
  8  2  1  0  0  0  0
  8  4  2  0  0  0  0
  9 10  1  0  0  0  0
  9  7  1  0  0  0  0
 10  8  1  0  0  0  0
 12 11  1  6  0  0  0
 12  1  1  0  0  0  0
 13 15  1  0  0  0  0
 14 15  1  0  0  0  0
 15 12  1  1  0  0  0
 16 17  1  0  0  0  0
 16 13  1  0  0  0  0
 17 14  1  0  0  0  0
 18 20  1  1  0  0  0
 18 21  1  0  0  0  0
 20 19  1  0  0  0  0
 21 22  1  0  0  0  0
 22 23  1  0  0  0  0
 24  1  1  0  0  0  0
 25 24  1  0  0  0  0
 26 25  1  0  0  0  0
 27 26  1  0  0  0  0
 28 29  2  0  0  0  0
 29 27  1  0  0  0  0
 30 29  1  0  0  0  0
M  END
>  <MODEL>
9

>  <REMARK>
 VINA RESULT:      -3.9      2.176      4.041
  Name = 
  13 active torsions:
  status: ('A' for Active; 'I' for Inactive)
    1  A    between atoms: C_1  and  C_22
    2  A    between atoms: C_3  and  C_19
    3  A    between atoms: C_4  and  C_13
    4  A    between atoms: C_7  and  C_15
    5  A    between atoms: C_7  and  C_16
    6  A    between atoms: C_8  and  C_12
    7  A    between atoms: C_8  and  C_13
    8  A    between atoms: C_13  and  C_23
    9  A    between atoms: C_13  and  O_27
   10  A    between atoms: C_16  and  C_30
   11  A    between atoms: C_19  and  C_23
   12  A    between atoms: C_23  and  C_25
   13  A    between atoms: O_27  and  C_30
                            x       y       z     vdW  Elec       q    Type
                         _______ _______ _______ _____ _____    ______ ____

>  <TORSDO>
F 13

$$$$
