=
 OpenBabel11052423173D

 27 31  0  0  1  0  0  0  0  0999 V2000
  162.5250  208.4120  148.3550 O   0  0  0  0  0  0  0  0  0  0  0  0
  161.6620  209.2420  150.4240 C   0  0  0  0  0  0  0  0  0  0  0  0
  160.8600  206.8820  150.3300 N   0  0  0  0  0  2  0  0  0  0  0  0
  161.5730  209.1450  154.5640 N   0  0  0  0  0  0  0  0  0  0  0  0
  161.1650  208.0440  155.2500 C   0  0  0  0  0  0  0  0  0  0  0  0
  162.0370  210.3210  151.1710 N   0  0  0  0  0  0  0  0  0  0  0  0
  160.7890  206.8920  153.1660 C   0  0  0  0  0  3  0  0  0  0  0  0
  161.5390  204.3930  147.6620 C   0  0  0  0  0  0  0  0  0  0  0  0
  160.7660  206.8970  154.5610 C   0  0  0  0  0  3  0  0  0  0  0  0
  161.1730  202.9830  147.3710 C   0  0  0  0  0  1  0  0  0  0  0  0
  161.2080  208.0320  152.4670 C   0  0  0  0  0  0  0  0  0  0  0  0
  161.6200  209.3370  148.9300 C   0  0  1  0  0  3  0  0  0  0  0  0
  161.1470  208.0600  156.6720 N   0  0  0  0  0  1  0  0  0  0  0  0
  161.6030  209.1650  153.2050 C   0  0  0  0  0  0  0  0  0  0  0  0
  162.2130  207.0610  148.2070 C   0  0  0  0  0  0  0  0  0  0  0  0
  161.2570  208.0540  151.0610 C   0  0  0  0  0  0  0  0  0  0  0  0
  161.0080  205.0350  148.7820 C   0  0  0  0  0  3  0  0  0  0  0  0
  162.0240  210.3060  152.5290 C   0  0  0  0  0  3  0  0  0  0  0  0
  162.4370  205.0670  146.8370 C   0  0  0  0  0  3  0  0  0  0  0  0
  162.7700  206.3940  147.1100 C   0  0  0  0  0  3  0  0  0  0  0  0
  161.3420  206.3620  149.0800 C   0  0  0  0  0  0  0  0  0  0  0  0
  162.4050  213.2740  147.3890 C   0  0  0  0  0  3  0  0  0  0  0  0
  161.8780  210.7180  148.4040 C   0  0  0  0  0  0  0  0  0  0  0  0
  163.1900  211.2030  148.3670 C   0  0  0  0  0  3  0  0  0  0  0  0
  163.4530  212.4800  147.8620 C   0  0  0  0  0  3  0  0  0  0  0  0
  161.0920  212.7930  147.4190 C   0  0  0  0  0  3  0  0  0  0  0  0
  160.8290  211.5160  147.9230 C   0  0  0  0  0  3  0  0  0  0  0  0
  1 12  1  0  0  0  0
  2 16  2  0  0  0  0
  2  6  1  0  0  0  0
  3 16  1  0  0  0  0
  4  5  1  0  0  0  0
  5 13  1  0  0  0  0
  6 18  2  0  0  0  0
  7  9  1  0  0  0  0
  8 17  1  0  0  0  0
  9  5  2  0  0  0  0
 10  8  1  0  0  0  0
 11  7  2  0  0  0  0
 11 14  1  0  0  0  0
 12 23  1  1  0  0  0
 12  2  1  0  0  0  0
 14  4  2  0  0  0  0
 15  1  1  0  0  0  0
 15 21  1  0  0  0  0
 16 11  1  0  0  0  0
 17 21  2  0  0  0  0
 18 14  1  0  0  0  0
 19 20  1  0  0  0  0
 19  8  2  0  0  0  0
 20 15  2  0  0  0  0
 21  3  1  0  0  0  0
 22 26  2  0  0  0  0
 22 25  1  0  0  0  0
 24 23  1  0  0  0  0
 25 24  2  0  0  0  0
 26 27  1  0  0  0  0
 27 23  2  0  0  0  0
M  END
>  <MODEL>
1

>  <REMARK>
 VINA RESULT:      -8.2      0.000      0.000
  Name = 
  1 active torsions:
  status: ('A' for Active; 'I' for Inactive)
    1  A    between atoms: C_9  and  C_15
                            x       y       z     vdW  Elec       q    Type
                         _______ _______ _______ _____ _____    ______ ____

>  <TORSDO>
F 1

$$$$
=
 OpenBabel11052423173D

 27 31  0  0  1  0  0  0  0  0999 V2000
  160.6240  209.7120  151.9380 O   0  0  0  0  0  0  0  0  0  0  0  0
  161.4000  208.1280  150.3250 C   0  0  0  0  0  0  0  0  0  0  0  0
  161.6060  206.9320  152.5040 N   0  0  0  0  0  2  0  0  0  0  0  0
  160.9470  204.5170  148.3460 N   0  0  0  0  0  0  0  0  0  0  0  0
  160.9850  203.3260  149.0020 C   0  0  0  0  0  0  0  0  0  0  0  0
  161.2090  208.0730  148.9740 N   0  0  0  0  0  0  0  0  0  0  0  0
  161.3250  204.4920  151.0850 C   0  0  0  0  0  3  0  0  0  0  0  0
  160.6770  208.2200  155.8580 C   0  0  0  0  0  0  0  0  0  0  0  0
  161.1750  203.2940  150.3850 C   0  0  0  0  0  3  0  0  0  0  0  0
  160.7220  207.7330  157.2610 C   0  0  0  0  0  1  0  0  0  0  0  0
  161.2870  205.7140  150.4000 C   0  0  0  0  0  0  0  0  0  0  0  0
  161.6480  209.4420  150.9980 C   0  0  1  0  0  3  0  0  0  0  0  0
  160.8300  202.1120  148.2790 N   0  0  0  0  0  1  0  0  0  0  0  0
  161.0910  205.6970  149.0050 C   0  0  0  0  0  0  0  0  0  0  0  0
  160.6120  209.1430  153.2090 C   0  0  0  0  0  0  0  0  0  0  0  0
  161.4190  206.9400  151.0780 C   0  0  0  0  0  0  0  0  0  0  0  0
  161.2060  207.4370  154.8300 C   0  0  0  0  0  3  0  0  0  0  0  0
  161.0500  206.9000  148.3080 C   0  0  0  0  0  3  0  0  0  0  0  0
  160.0810  209.4440  155.5610 C   0  0  0  0  0  3  0  0  0  0  0  0
  160.0500  209.9000  154.2430 C   0  0  0  0  0  3  0  0  0  0  0  0
  161.1720  207.8720  153.5000 C   0  0  0  0  0  0  0  0  0  0  0  0
  162.0960  212.7730  148.3160 C   0  0  0  0  0  3  0  0  0  0  0  0
  161.8030  210.5900  150.0450 C   0  0  0  0  0  0  0  0  0  0  0  0
  161.0560  211.7560  150.2500 C   0  0  0  0  0  3  0  0  0  0  0  0
  161.2000  212.8440  149.3860 C   0  0  0  0  0  3  0  0  0  0  0  0
  162.8500  211.6130  148.1090 C   0  0  0  0  0  3  0  0  0  0  0  0
  162.7060  210.5250  148.9730 C   0  0  0  0  0  3  0  0  0  0  0  0
  1 15  1  0  0  0  0
  2 12  1  0  0  0  0
  2 16  1  0  0  0  0
  3 21  1  0  0  0  0
  4  5  2  0  0  0  0
  4 14  1  0  0  0  0
  5  9  1  0  0  0  0
  6  2  2  0  0  0  0
  8 10  1  0  0  0  0
  9  7  2  0  0  0  0
 11 16  2  0  0  0  0
 11  7  1  0  0  0  0
 12 23  1  6  0  0  0
 12  1  1  0  0  0  0
 13  5  1  0  0  0  0
 14 11  1  0  0  0  0
 15 21  2  0  0  0  0
 15 20  1  0  0  0  0
 16  3  1  0  0  0  0
 17  8  2  0  0  0  0
 18  6  1  0  0  0  0
 18 14  2  0  0  0  0
 19  8  1  0  0  0  0
 20 19  2  0  0  0  0
 21 17  1  0  0  0  0
 22 25  1  0  0  0  0
 23 24  1  0  0  0  0
 25 24  2  0  0  0  0
 26 22  2  0  0  0  0
 26 27  1  0  0  0  0
 27 23  2  0  0  0  0
M  END
>  <MODEL>
2

>  <REMARK>
 VINA RESULT:      -8.0      2.035      5.711
  Name = 
  1 active torsions:
  status: ('A' for Active; 'I' for Inactive)
    1  A    between atoms: C_9  and  C_15
                            x       y       z     vdW  Elec       q    Type
                         _______ _______ _______ _____ _____    ______ ____

>  <TORSDO>
F 1

$$$$
=
 OpenBabel11052423173D

 27 31  0  0  1  0  0  0  0  0999 V2000
  161.5890  206.4250  153.0170 O   0  0  0  0  0  0  0  0  0  0  0  0
  161.3790  207.4250  150.8560 C   0  0  0  0  0  0  0  0  0  0  0  0
  160.6190  209.2050  152.4290 N   0  0  0  0  0  2  0  0  0  0  0  0
  162.5440  210.3000  148.1110 N   0  0  0  0  0  0  0  0  0  0  0  0
  162.3780  211.6300  148.3450 C   0  0  0  0  0  0  0  0  0  0  0  0
  161.9470  207.0840  149.6620 N   0  0  0  0  0  0  0  0  0  0  0  0
  161.4060  211.1230  150.4930 C   0  0  0  0  0  3  0  0  0  0  0  0
  160.4960  209.0110  156.1330 C   0  0  0  0  0  0  0  0  0  0  0  0
  161.8050  212.0640  149.5430 C   0  0  0  0  0  3  0  0  0  0  0  0
  160.0780  209.8900  157.2550 C   0  0  0  0  0  1  0  0  0  0  0  0
  161.5790  209.7550  150.2420 C   0  0  0  0  0  0  0  0  0  0  0  0
  160.8880  206.3610  151.7880 C   0  0  1  0  0  3  0  0  0  0  0  0
  162.7890  212.5800  147.3710 N   0  0  0  0  0  1  0  0  0  0  0  0
  162.1630  209.3650  149.0210 C   0  0  0  0  0  0  0  0  0  0  0  0
  161.2660  207.3460  154.0110 C   0  0  0  0  0  0  0  0  0  0  0  0
  161.2020  208.7810  151.1850 C   0  0  0  0  0  0  0  0  0  0  0  0
  160.3180  209.4310  154.8140 C   0  0  0  0  0  3  0  0  0  0  0  0
  162.3440  208.0120  148.7540 C   0  0  0  0  0  3  0  0  0  0  0  0
  161.0930  207.7800  156.3950 C   0  0  0  0  0  3  0  0  0  0  0  0
  161.4750  206.9540  155.3370 C   0  0  0  0  0  3  0  0  0  0  0  0
  160.7080  208.6220  153.7400 C   0  0  0  0  0  0  0  0  0  0  0  0
  161.0450  202.3710  150.1920 C   0  0  0  0  0  3  0  0  0  0  0  0
  160.9560  204.9760  151.2160 C   0  0  0  0  0  0  0  0  0  0  0  0
  161.1620  203.8900  152.0730 C   0  0  0  0  0  3  0  0  0  0  0  0
  161.2090  202.5900  151.5630 C   0  0  0  0  0  3  0  0  0  0  0  0
  160.8330  203.4520  149.3310 C   0  0  0  0  0  3  0  0  0  0  0  0
  160.7860  204.7520  149.8410 C   0  0  0  0  0  3  0  0  0  0  0  0
  1 15  1  0  0  0  0
  2 16  1  0  0  0  0
  2 12  1  0  0  0  0
  3 21  1  0  0  0  0
  4  5  2  0  0  0  0
  4 14  1  0  0  0  0
  5  9  1  0  0  0  0
  6  2  2  0  0  0  0
  8 19  1  0  0  0  0
  8 10  1  0  0  0  0
  9  7  2  0  0  0  0
 11  7  1  0  0  0  0
 11 16  2  0  0  0  0
 12 23  1  6  0  0  0
 12  1  1  0  0  0  0
 13  5  1  0  0  0  0
 14 11  1  0  0  0  0
 15 20  1  0  0  0  0
 16  3  1  0  0  0  0
 17  8  2  0  0  0  0
 18 14  2  0  0  0  0
 18  6  1  0  0  0  0
 20 19  2  0  0  0  0
 21 15  2  0  0  0  0
 21 17  1  0  0  0  0
 22 25  1  0  0  0  0
 23 24  1  0  0  0  0
 25 24  2  0  0  0  0
 26 27  1  0  0  0  0
 26 22  2  0  0  0  0
 27 23  2  0  0  0  0
M  END
>  <MODEL>
3

>  <REMARK>
 VINA RESULT:      -7.6      2.245      7.298
  Name = 
  1 active torsions:
  status: ('A' for Active; 'I' for Inactive)
    1  A    between atoms: C_9  and  C_15
                            x       y       z     vdW  Elec       q    Type
                         _______ _______ _______ _____ _____    ______ ____

>  <TORSDO>
F 1

$$$$
=
 OpenBabel11052423173D

 27 31  0  0  1  0  0  0  0  0999 V2000
  162.0130  208.4350  152.5950 O   0  0  0  0  0  0  0  0  0  0  0  0
  161.0580  206.2570  152.3480 C   0  0  0  0  0  0  0  0  0  0  0  0
  160.9000  207.2560  150.0680 N   0  0  0  0  0  2  0  0  0  0  0  0
  161.1890  202.4540  150.7120 N   0  0  0  0  0  0  0  0  0  0  0  0
  161.1160  202.2440  149.3700 C   0  0  0  0  0  0  0  0  0  0  0  0
  161.1720  205.1460  153.1330 N   0  0  0  0  0  0  0  0  0  0  0  0
  160.9590  204.6230  149.0130 C   0  0  0  0  0  3  0  0  0  0  0  0
  162.0830  210.6100  149.0080 C   0  0  0  0  0  0  0  0  0  0  0  0
  161.0000  203.3280  148.4960 C   0  0  0  0  0  3  0  0  0  0  0  0
  162.0850  211.4190  147.7630 C   0  0  0  0  0  1  0  0  0  0  0  0
  161.0320  204.8300  150.3970 C   0  0  0  0  0  0  0  0  0  0  0  0
  160.9250  207.6110  152.9730 C   0  0  1  0  0  3  0  0  0  0  0  0
  161.1600  200.9200  148.8550 N   0  0  0  0  0  1  0  0  0  0  0  0
  161.1510  203.7060  151.2380 C   0  0  0  0  0  0  0  0  0  0  0  0
  162.0590  209.0860  151.3640 C   0  0  0  0  0  0  0  0  0  0  0  0
  161.0090  206.1240  150.9480 C   0  0  0  0  0  0  0  0  0  0  0  0
  161.4540  209.3640  149.0300 C   0  0  0  0  0  3  0  0  0  0  0  0
  161.2260  203.8920  152.6150 C   0  0  0  0  0  3  0  0  0  0  0  0
  162.7330  211.0790  150.1480 C   0  0  0  0  0  3  0  0  0  0  0  0
  162.7200  210.3190  151.3180 C   0  0  0  0  0  3  0  0  0  0  0  0
  161.4420  208.5810  150.1900 C   0  0  0  0  0  0  0  0  0  0  0  0
  160.5420  207.5740  157.2560 C   0  0  0  0  0  3  0  0  0  0  0  0
  160.7870  207.5770  154.4670 C   0  0  0  0  0  0  0  0  0  0  0  0
  161.7510  208.2100  155.2580 C   0  0  0  0  0  3  0  0  0  0  0  0
  161.6310  208.2070  156.6510 C   0  0  0  0  0  3  0  0  0  0  0  0
  159.5720  206.9440  156.4710 C   0  0  0  0  0  3  0  0  0  0  0  0
  159.6920  206.9470  155.0780 C   0  0  0  0  0  3  0  0  0  0  0  0
  1 12  1  0  0  0  0
  2 12  1  0  0  0  0
  2  6  1  0  0  0  0
  3 21  1  0  0  0  0
  3 16  1  0  0  0  0
  4 14  1  0  0  0  0
  5  4  2  0  0  0  0
  7 11  1  0  0  0  0
  8 17  2  0  0  0  0
  8 19  1  0  0  0  0
  9  7  2  0  0  0  0
  9  5  1  0  0  0  0
 10  8  1  0  0  0  0
 11 16  1  0  0  0  0
 11 14  2  0  0  0  0
 12 23  1  1  0  0  0
 13  5  1  0  0  0  0
 14 18  1  0  0  0  0
 15  1  1  0  0  0  0
 16  2  2  0  0  0  0
 17 21  1  0  0  0  0
 18  6  2  0  0  0  0
 19 20  2  0  0  0  0
 20 15  1  0  0  0  0
 21 15  2  0  0  0  0
 23 27  2  0  0  0  0
 23 24  1  0  0  0  0
 24 25  2  0  0  0  0
 25 22  1  0  0  0  0
 26 22  2  0  0  0  0
 27 26  1  0  0  0  0
M  END
>  <MODEL>
4

>  <REMARK>
 VINA RESULT:      -7.0      2.286      6.808
  Name = 
  1 active torsions:
  status: ('A' for Active; 'I' for Inactive)
    1  A    between atoms: C_9  and  C_15
                            x       y       z     vdW  Elec       q    Type
                         _______ _______ _______ _____ _____    ______ ____

>  <TORSDO>
F 1

$$$$
=
 OpenBabel11052423173D

 27 31  0  0  1  0  0  0  0  0999 V2000
  161.5310  207.7430  153.1040 O   0  0  0  0  0  0  0  0  0  0  0  0
  161.3160  208.6480  150.9020 C   0  0  0  0  0  0  0  0  0  0  0  0
  160.4290  210.4430  152.3890 N   0  0  0  0  0  2  0  0  0  0  0  0
  162.3880  211.4750  148.0710 N   0  0  0  0  0  0  0  0  0  0  0  0
  162.1470  212.8010  148.2490 C   0  0  0  0  0  0  0  0  0  0  0  0
  161.9270  208.2920  149.7340 N   0  0  0  0  0  0  0  0  0  0  0  0
  161.1560  212.3250  150.3950 C   0  0  0  0  0  3  0  0  0  0  0  0
  160.2350  210.3830  156.0940 C   0  0  0  0  0  0  0  0  0  0  0  0
  161.5260  213.2490  149.4180 C   0  0  0  0  0  3  0  0  0  0  0  0
  159.7470  211.2810  157.1730 C   0  0  0  0  0  1  0  0  0  0  0  0
  161.4070  210.9600  150.2010 C   0  0  0  0  0  0  0  0  0  0  0  0
  160.8610  207.5950  151.8650 C   0  0  1  0  0  3  0  0  0  0  0  0
  162.5280  213.7340  147.2470 N   0  0  0  0  0  1  0  0  0  0  0  0
  162.0370  210.5560  149.0080 C   0  0  0  0  0  0  0  0  0  0  0  0
  161.1380  208.6830  154.0540 C   0  0  0  0  0  0  0  0  0  0  0  0
  161.0610  210.0040  151.1740 C   0  0  0  0  0  0  0  0  0  0  0  0
  160.0640  210.7430  154.7570 C   0  0  0  0  0  3  0  0  0  0  0  0
  162.2950  209.2050  148.7980 C   0  0  0  0  0  3  0  0  0  0  0  0
  160.8910  209.1970  156.4160 C   0  0  0  0  0  3  0  0  0  0  0  0
  161.3390  208.3530  155.3990 C   0  0  0  0  0  3  0  0  0  0  0  0
  160.5200  209.9160  153.7230 C   0  0  0  0  0  0  0  0  0  0  0  0
  161.2710  203.5610  150.4350 C   0  0  0  0  0  3  0  0  0  0  0  0
  161.0140  206.1950  151.3490 C   0  0  0  0  0  0  0  0  0  0  0  0
  161.4510  205.1890  152.2170 C   0  0  0  0  0  3  0  0  0  0  0  0
  161.5810  203.8740  151.7610 C   0  0  0  0  0  3  0  0  0  0  0  0
  160.8300  204.5610  149.5630 C   0  0  0  0  0  3  0  0  0  0  0  0
  160.6990  205.8760  150.0190 C   0  0  0  0  0  3  0  0  0  0  0  0
  1 15  1  0  0  0  0
  2 16  1  0  0  0  0
  2 12  1  0  0  0  0
  3 21  1  0  0  0  0
  4  5  2  0  0  0  0
  4 14  1  0  0  0  0
  5  9  1  0  0  0  0
  6  2  2  0  0  0  0
  8 19  1  0  0  0  0
  8 10  1  0  0  0  0
  9  7  2  0  0  0  0
 11  7  1  0  0  0  0
 11 16  2  0  0  0  0
 12 23  1  6  0  0  0
 12  1  1  0  0  0  0
 13  5  1  0  0  0  0
 14 11  1  0  0  0  0
 15 20  1  0  0  0  0
 16  3  1  0  0  0  0
 17  8  2  0  0  0  0
 18 14  2  0  0  0  0
 18  6  1  0  0  0  0
 20 19  2  0  0  0  0
 21 15  2  0  0  0  0
 21 17  1  0  0  0  0
 22 25  1  0  0  0  0
 23 24  1  0  0  0  0
 25 24  2  0  0  0  0
 26 27  1  0  0  0  0
 26 22  2  0  0  0  0
 27 23  2  0  0  0  0
M  END
>  <MODEL>
5

>  <REMARK>
 VINA RESULT:      -6.9      2.366      7.341
  Name = 
  1 active torsions:
  status: ('A' for Active; 'I' for Inactive)
    1  A    between atoms: C_9  and  C_15
                            x       y       z     vdW  Elec       q    Type
                         _______ _______ _______ _____ _____    ______ ____

>  <TORSDO>
F 1

$$$$
=
 OpenBabel11052423173D

 27 31  0  0  1  0  0  0  0  0999 V2000
  160.5830  206.9140  151.8330 O   0  0  0  0  0  0  0  0  0  0  0  0
  161.2760  209.2000  151.7360 C   0  0  0  0  0  0  0  0  0  0  0  0
  162.1050  208.2190  149.5980 N   0  0  0  0  0  2  0  0  0  0  0  0
  161.0450  212.9400  149.9700 N   0  0  0  0  0  0  0  0  0  0  0  0
  161.4090  213.1500  148.6770 C   0  0  0  0  0  0  0  0  0  0  0  0
  160.8330  210.2900  152.4280 N   0  0  0  0  0  0  0  0  0  0  0  0
  161.9570  210.8130  148.4580 C   0  0  0  0  0  3  0  0  0  0  0  0
  161.6600  204.7290  148.4180 C   0  0  0  0  0  0  0  0  0  0  0  0
  161.8720  212.0870  147.8980 C   0  0  0  0  0  3  0  0  0  0  0  0
  162.0610  203.9190  147.2390 C   0  0  0  0  0  1  0  0  0  0  0  0
  161.5820  210.6060  149.7930 C   0  0  0  0  0  0  0  0  0  0  0  0
  161.4320  207.8810  152.4260 C   0  0  1  0  0  3  0  0  0  0  0  0
  161.3170  214.4530  148.1160 N   0  0  0  0  0  1  0  0  0  0  0  0
  161.1190  211.7080  150.5390 C   0  0  0  0  0  0  0  0  0  0  0  0
  160.9190  206.2560  150.6520 C   0  0  0  0  0  0  0  0  0  0  0  0
  161.6410  209.3310  150.3830 C   0  0  0  0  0  0  0  0  0  0  0  0
  162.0970  206.0490  148.5400 C   0  0  0  0  0  3  0  0  0  0  0  0
  160.7410  211.5220  151.8650 C   0  0  0  0  0  3  0  0  0  0  0  0
  160.8220  204.1830  149.3880 C   0  0  0  0  0  3  0  0  0  0  0  0
  160.4550  204.9440  150.4980 C   0  0  0  0  0  3  0  0  0  0  0  0
  161.7270  206.8340  149.6390 C   0  0  0  0  0  0  0  0  0  0  0  0
  160.7880  207.9970  156.6770 C   0  0  0  0  0  3  0  0  0  0  0  0
  161.2020  207.9430  153.9080 C   0  0  0  0  0  0  0  0  0  0  0  0
  160.4590  206.9320  154.5280 C   0  0  0  0  0  3  0  0  0  0  0  0
  160.2510  206.9600  155.9100 C   0  0  0  0  0  3  0  0  0  0  0  0
  161.5350  209.0080  156.0630 C   0  0  0  0  0  3  0  0  0  0  0  0
  161.7440  208.9790  154.6820 C   0  0  0  0  0  3  0  0  0  0  0  0
  1 12  1  0  0  0  0
  2 12  1  0  0  0  0
  2  6  1  0  0  0  0
  3 21  1  0  0  0  0
  3 16  1  0  0  0  0
  4 14  1  0  0  0  0
  5  4  2  0  0  0  0
  7 11  1  0  0  0  0
  8 17  2  0  0  0  0
  8 19  1  0  0  0  0
  9  7  2  0  0  0  0
  9  5  1  0  0  0  0
 10  8  1  0  0  0  0
 11 16  1  0  0  0  0
 11 14  2  0  0  0  0
 12 23  1  1  0  0  0
 13  5  1  0  0  0  0
 14 18  1  0  0  0  0
 15  1  1  0  0  0  0
 16  2  2  0  0  0  0
 17 21  1  0  0  0  0
 18  6  2  0  0  0  0
 19 20  2  0  0  0  0
 20 15  1  0  0  0  0
 21 15  2  0  0  0  0
 23 24  2  0  0  0  0
 23 27  1  0  0  0  0
 24 25  1  0  0  0  0
 25 22  2  0  0  0  0
 26 22  1  0  0  0  0
 27 26  2  0  0  0  0
M  END
>  <MODEL>
6

>  <REMARK>
 VINA RESULT:      -6.9      1.898      5.820
  Name = 
  1 active torsions:
  status: ('A' for Active; 'I' for Inactive)
    1  A    between atoms: C_9  and  C_15
                            x       y       z     vdW  Elec       q    Type
                         _______ _______ _______ _____ _____    ______ ____

>  <TORSDO>
F 1

$$$$
=
 OpenBabel11052423173D

 27 31  0  0  1  0  0  0  0  0999 V2000
  160.5180  211.7840  150.7390 O   0  0  0  0  0  0  0  0  0  0  0  0
  161.5820  209.7740  150.0020 C   0  0  0  0  0  0  0  0  0  0  0  0
  161.5190  209.5570  152.4860 N   0  0  0  0  0  2  0  0  0  0  0  0
  161.5650  205.6510  149.6060 N   0  0  0  0  0  0  0  0  0  0  0  0
  161.5560  204.8230  150.6850 C   0  0  0  0  0  0  0  0  0  0  0  0
  161.5910  209.1750  148.7760 N   0  0  0  0  0  0  0  0  0  0  0  0
  161.5440  206.7400  152.1470 C   0  0  0  0  0  3  0  0  0  0  0  0
  160.0650  211.9660  154.9050 C   0  0  0  0  0  0  0  0  0  0  0  0
  161.5450  205.3560  151.9770 C   0  0  0  0  0  3  0  0  0  0  0  0
  159.9260  212.0770  156.3800 C   0  0  0  0  0  1  0  0  0  0  0  0
  161.5560  207.5850  151.0290 C   0  0  0  0  0  0  0  0  0  0  0  0
  161.6780  211.2640  150.1130 C   0  0  1  0  0  3  0  0  0  0  0  0
  161.5560  203.4140  150.5000 N   0  0  0  0  0  1  0  0  0  0  0  0
  161.5650  207.0020  149.7470 C   0  0  0  0  0  0  0  0  0  0  0  0
  160.3470  211.7620  152.1210 C   0  0  0  0  0  0  0  0  0  0  0  0
  161.5400  208.9850  151.1660 C   0  0  0  0  0  0  0  0  0  0  0  0
  160.7680  210.8960  154.3490 C   0  0  0  0  0  3  0  0  0  0  0  0
  161.5760  207.8250  148.6250 C   0  0  0  0  0  3  0  0  0  0  0  0
  159.4690  212.9120  154.0740 C   0  0  0  0  0  3  0  0  0  0  0  0
  159.6110  212.8090  152.6900 C   0  0  0  0  0  3  0  0  0  0  0  0
  160.9080  210.7670  152.9620 C   0  0  0  0  0  0  0  0  0  0  0  0
  162.4120  213.1940  146.3410 C   0  0  0  0  0  3  0  0  0  0  0  0
  161.9220  211.9540  148.8040 C   0  0  0  0  0  0  0  0  0  0  0  0
  163.2140  211.9660  148.2660 C   0  0  0  0  0  3  0  0  0  0  0  0
  163.4600  212.5860  147.0390 C   0  0  0  0  0  3  0  0  0  0  0  0
  161.1180  213.1810  146.8710 C   0  0  0  0  0  3  0  0  0  0  0  0
  160.8720  212.5610  148.0990 C   0  0  0  0  0  3  0  0  0  0  0  0
  1 15  1  0  0  0  0
  2 12  1  0  0  0  0
  2 16  1  0  0  0  0
  3 21  1  0  0  0  0
  4 14  1  0  0  0  0
  4  5  2  0  0  0  0
  5  9  1  0  0  0  0
  6  2  2  0  0  0  0
  8 10  1  0  0  0  0
  9  7  2  0  0  0  0
 11 16  2  0  0  0  0
 11  7  1  0  0  0  0
 12 23  1  6  0  0  0
 12  1  1  0  0  0  0
 13  5  1  0  0  0  0
 14 11  1  0  0  0  0
 15 20  2  0  0  0  0
 15 21  1  0  0  0  0
 16  3  1  0  0  0  0
 17  8  1  0  0  0  0
 18  6  1  0  0  0  0
 18 14  2  0  0  0  0
 19  8  2  0  0  0  0
 20 19  1  0  0  0  0
 21 17  2  0  0  0  0
 22 26  2  0  0  0  0
 22 25  1  0  0  0  0
 24 23  1  0  0  0  0
 25 24  2  0  0  0  0
 26 27  1  0  0  0  0
 27 23  2  0  0  0  0
M  END
>  <MODEL>
7

>  <REMARK>
 VINA RESULT:      -6.4      2.265      5.631
  Name = 
  1 active torsions:
  status: ('A' for Active; 'I' for Inactive)
    1  A    between atoms: C_9  and  C_15
                            x       y       z     vdW  Elec       q    Type
                         _______ _______ _______ _____ _____    ______ ____

>  <TORSDO>
F 1

$$$$
=
 OpenBabel11052423173D

 27 31  0  0  1  0  0  0  0  0999 V2000
  161.2060  208.9860  148.3450 O   0  0  0  0  0  0  0  0  0  0  0  0
  161.6220  208.0730  150.5150 C   0  0  0  0  0  0  0  0  0  0  0  0
  162.3980  210.4370  150.6870 N   0  0  0  0  0  2  0  0  0  0  0  0
  160.8330  207.9980  154.5800 N   0  0  0  0  0  0  0  0  0  0  0  0
  161.0740  209.0710  155.3810 C   0  0  0  0  0  0  0  0  0  0  0  0
  161.1100  206.9630  151.1220 N   0  0  0  0  0  0  0  0  0  0  0  0
  161.8690  210.3090  153.4710 C   0  0  0  0  0  3  0  0  0  0  0  0
  162.2710  213.0320  148.0370 C   0  0  0  0  0  0  0  0  0  0  0  0
  161.5970  210.2470  154.8380 C   0  0  0  0  0  3  0  0  0  0  0  0
  162.6740  214.4530  147.8860 C   0  0  0  0  0  1  0  0  0  0  0  0
  161.6200  209.1980  152.6550 C   0  0  0  0  0  0  0  0  0  0  0  0
  161.9790  208.0400  149.0610 C   0  0  1  0  0  3  0  0  0  0  0  0
  160.7920  208.9960  156.7720 N   0  0  0  0  0  1  0  0  0  0  0  0
  161.0900  208.0350  153.2460 C   0  0  0  0  0  0  0  0  0  0  0  0
  161.5270  210.3420  148.3200 C   0  0  0  0  0  0  0  0  0  0  0  0
  161.8690  209.2340  151.2700 C   0  0  0  0  0  0  0  0  0  0  0  0
  162.5610  212.3450  149.2170 C   0  0  0  0  0  3  0  0  0  0  0  0
  160.8350  206.9220  152.4510 C   0  0  0  0  0  3  0  0  0  0  0  0
  161.5750  212.3900  147.0140 C   0  0  0  0  0  3  0  0  0  0  0  0
  161.2070  211.0520  147.1580 C   0  0  0  0  0  3  0  0  0  0  0  0
  162.1860  211.0070  149.3860 C   0  0  0  0  0  0  0  0  0  0  0  0
  161.6800  204.1480  147.2560 C   0  0  0  0  0  3  0  0  0  0  0  0
  161.8540  206.6810  148.4380 C   0  0  0  0  0  0  0  0  0  0  0  0
  162.3310  206.4760  147.1380 C   0  0  0  0  0  3  0  0  0  0  0  0
  162.2420  205.2130  146.5470 C   0  0  0  0  0  3  0  0  0  0  0  0
  161.2070  204.3440  148.5570 C   0  0  0  0  0  3  0  0  0  0  0  0
  161.2960  205.6080  149.1490 C   0  0  0  0  0  3  0  0  0  0  0  0
  1 12  1  0  0  0  0
  2  6  2  0  0  0  0
  2 16  1  0  0  0  0
  3 16  1  0  0  0  0
  4  5  2  0  0  0  0
  5 13  1  0  0  0  0
  6 18  1  0  0  0  0
  7  9  2  0  0  0  0
  8 17  1  0  0  0  0
  9  5  1  0  0  0  0
 10  8  1  0  0  0  0
 11 14  1  0  0  0  0
 11  7  1  0  0  0  0
 12 23  1  6  0  0  0
 12  2  1  0  0  0  0
 14  4  1  0  0  0  0
 15  1  1  0  0  0  0
 15 21  1  0  0  0  0
 16 11  2  0  0  0  0
 17 21  2  0  0  0  0
 18 14  2  0  0  0  0
 19 20  1  0  0  0  0
 19  8  2  0  0  0  0
 20 15  2  0  0  0  0
 21  3  1  0  0  0  0
 22 26  1  0  0  0  0
 23 27  1  0  0  0  0
 24 23  2  0  0  0  0
 25 24  1  0  0  0  0
 25 22  2  0  0  0  0
 26 27  2  0  0  0  0
M  END
>  <MODEL>
8

>  <REMARK>
 VINA RESULT:      -5.8      0.978      5.259
  Name = 
  1 active torsions:
  status: ('A' for Active; 'I' for Inactive)
    1  A    between atoms: C_9  and  C_15
                            x       y       z     vdW  Elec       q    Type
                         _______ _______ _______ _____ _____    ______ ____

>  <TORSDO>
F 1

$$$$
=
 OpenBabel11052423173D

 27 31  0  0  1  0  0  0  0  0999 V2000
  161.0610  210.2150  152.3860 O   0  0  0  0  0  0  0  0  0  0  0  0
  159.5300  211.4610  153.7350 C   0  0  0  0  0  0  0  0  0  0  0  0
  159.7860  212.8390  151.6720 N   0  0  0  0  0  2  0  0  0  0  0  0
  155.7400  213.0160  154.3460 N   0  0  0  0  0  0  0  0  0  0  0  0
  155.1990  213.9440  153.5120 C   0  0  0  0  0  0  0  0  0  0  0  0
  158.7600  211.0700  154.7920 N   0  0  0  0  0  0  0  0  0  0  0  0
  157.1980  213.8910  152.1660 C   0  0  0  0  0  3  0  0  0  0  0  0
  161.8430  212.0370  148.6890 C   0  0  0  0  0  0  0  0  0  0  0  0
  155.9210  214.3980  152.4060 C   0  0  0  0  0  3  0  0  0  0  0  0
  162.1710  212.6780  147.3890 C   0  0  0  0  0  1  0  0  0  0  0  0
  157.7490  212.9370  153.0320 C   0  0  0  0  0  0  0  0  0  0  0  0
  160.9290  210.9470  153.5910 C   0  0  1  0  0  3  0  0  0  0  0  0
  153.8960  214.4530  153.7660 N   0  0  0  0  0  1  0  0  0  0  0  0
  156.9830  212.5080  154.1340 C   0  0  0  0  0  0  0  0  0  0  0  0
  161.2380  210.8400  151.1530 C   0  0  0  0  0  0  0  0  0  0  0  0
  159.0280  212.3940  152.8100 C   0  0  0  0  0  0  0  0  0  0  0  0
  161.0510  212.7120  149.6200 C   0  0  0  0  0  3  0  0  0  0  0  0
  157.5120  211.5610  155.0050 C   0  0  0  0  0  3  0  0  0  0  0  0
  162.3010  210.7510  148.9690 C   0  0  0  0  0  3  0  0  0  0  0  0
  161.9980  210.1580  150.1960 C   0  0  0  0  0  3  0  0  0  0  0  0
  160.7250  212.1270  150.8490 C   0  0  0  0  0  0  0  0  0  0  0  0
  162.2520  208.6400  156.9710 C   0  0  0  0  0  3  0  0  0  0  0  0
  161.3960  210.1260  154.7570 C   0  0  0  0  0  0  0  0  0  0  0  0
  162.2160  210.7160  155.7260 C   0  0  0  0  0  3  0  0  0  0  0  0
  162.6450  209.9740  156.8300 C   0  0  0  0  0  3  0  0  0  0  0  0
  161.4280  208.0470  156.0090 C   0  0  0  0  0  3  0  0  0  0  0  0
  160.9990  208.7890  154.9050 C   0  0  0  0  0  3  0  0  0  0  0  0
  1 12  1  0  0  0  0
  2  6  1  0  0  0  0
  3 16  1  0  0  0  0
  5 13  1  0  0  0  0
  5  4  2  0  0  0  0
  6 18  2  0  0  0  0
  7  9  2  0  0  0  0
  7 11  1  0  0  0  0
  8 19  2  0  0  0  0
  8 17  1  0  0  0  0
  9  5  1  0  0  0  0
 10  8  1  0  0  0  0
 11 14  2  0  0  0  0
 12  2  1  0  0  0  0
 12 23  1  1  0  0  0
 14  4  1  0  0  0  0
 14 18  1  0  0  0  0
 15  1  1  0  0  0  0
 16 11  1  0  0  0  0
 16  2  2  0  0  0  0
 17 21  2  0  0  0  0
 19 20  1  0  0  0  0
 20 15  2  0  0  0  0
 21 15  1  0  0  0  0
 21  3  1  0  0  0  0
 23 27  2  0  0  0  0
 23 24  1  0  0  0  0
 24 25  2  0  0  0  0
 25 22  1  0  0  0  0
 26 22  2  0  0  0  0
 27 26  1  0  0  0  0
M  END
>  <MODEL>
9

>  <REMARK>
 VINA RESULT:      -5.4      4.239      7.231
  Name = 
  1 active torsions:
  status: ('A' for Active; 'I' for Inactive)
    1  A    between atoms: C_9  and  C_15
                            x       y       z     vdW  Elec       q    Type
                         _______ _______ _______ _____ _____    ______ ____

>  <TORSDO>
F 1

$$$$
