=
 OpenBabel11052422203D

 25 27  0  0  1  0  0  0  0  0999 V2000
  160.8440  204.2140  147.9620 C   0  0  0  0  0  0  0  0  0  0  0  0
  161.1320  204.2890  149.3390 C   0  0  0  0  0  0  0  0  0  0  0  0
  160.8050  201.7960  148.0880 C   0  0  0  0  0  3  0  0  0  0  0  0
  160.7850  205.4760  147.1530 C   0  0  0  0  0  2  0  0  0  0  0  0
  162.0080  205.8300  151.1160 C   0  0  2  0  0  3  0  0  0  0  0  0
  164.3960  204.8100  146.2160 N   0  0  0  0  0  1  0  0  0  0  0  0
  161.0570  201.8610  149.4550 C   0  0  0  0  0  3  0  0  0  0  0  0
  161.0720  203.7540  144.9020 C   0  0  0  0  0  2  0  0  0  0  0  0
  162.4900  203.8850  145.2160 N   0  0  0  0  0  0  0  0  0  0  0  0
  161.4500  203.1110  151.6020 C   0  0  2  0  0  3  0  0  0  0  0  0
  161.2440  201.8020  152.2050 N   0  0  0  0  0  1  0  0  0  0  0  0
  161.3220  205.5680  149.8950 O   0  0  0  0  0  0  0  0  0  0  0  0
  162.9900  204.7930  146.0030 C   0  0  0  0  0  0  0  0  0  0  0  0
  160.7010  202.9580  147.3280 C   0  0  0  0  0  0  0  0  0  0  0  0
  160.3710  202.7880  145.8640 C   0  0  0  0  0  2  0  0  0  0  0  0
  160.5250  204.1150  152.2740 C   0  0  0  0  0  2  0  0  0  0  0  0
  162.1680  205.8930  146.6360 C   0  0  0  0  0  2  0  0  0  0  0  0
  161.1590  205.4990  152.3440 C   0  0  0  0  0  2  0  0  0  0  0  0
  161.2080  203.0930  150.1070 C   0  0  0  0  0  0  0  0  0  0  0  0
  162.5270  207.2720  151.1750 C   0  0  0  0  0  2  0  0  0  0  0  0
  161.0600  209.1530  152.0450 C   0  0  0  0  0  1  0  0  0  0  0  0
  161.5240  208.3800  150.8220 C   0  0  1  0  0  3  0  0  0  0  0  0
  161.9770  209.2830  149.7180 C   0  0  0  0  0  0  0  0  0  0  0  0
  162.0860  210.6540  149.9220 O   0  0  0  0  0  1  0  0  0  0  0  0
  162.2970  208.7920  148.6050 O   0  0  0  0  0  0  0  0  0  0  0  0
  1  2  1  0  0  0  0
  2 12  1  0  0  0  0
  2 19  2  0  0  0  0
  3  7  2  0  0  0  0
  4  1  1  0  0  0  0
  5 20  1  1  0  0  0
  5 18  1  0  0  0  0
  7 19  1  0  0  0  0
  8  9  1  0  0  0  0
  8 15  1  0  0  0  0
  9 13  2  0  0  0  0
 10 11  1  1  0  0  0
 10 16  1  0  0  0  0
 12  5  1  0  0  0  0
 13  6  1  0  0  0  0
 13 17  1  0  0  0  0
 14  1  2  0  0  0  0
 14  3  1  0  0  0  0
 15 14  1  0  0  0  0
 16 18  1  0  0  0  0
 17  4  1  0  0  0  0
 19 10  1  0  0  0  0
 22 20  1  0  0  0  0
 22 21  1  1  0  0  0
 23 24  1  0  0  0  0
 23 22  1  0  0  0  0
 25 23  2  0  0  0  0
M  END
>  <MODEL>
1

>  <REMARK>
 VINA RESULT:      -6.7      0.000      0.000
  Name = 
  3 active torsions:
  status: ('A' for Active; 'I' for Inactive)
    1  A    between atoms: C_2  and  C_25
    2  A    between atoms: C_6  and  C_15
    3  A    between atoms: C_15  and  C_25
                            x       y       z     vdW  Elec       q    Type
                         _______ _______ _______ _____ _____    ______ ____

>  <TORSDO>
F 3

$$$$
=
 OpenBabel11052422203D

 25 27  0  0  1  0  0  0  0  0999 V2000
  160.8390  205.4470  148.8890 C   0  0  0  0  0  0  0  0  0  0  0  0
  161.2410  206.5480  149.6720 C   0  0  0  0  0  0  0  0  0  0  0  0
  161.3360  203.9440  150.7220 C   0  0  0  0  0  3  0  0  0  0  0  0
  160.4280  205.6700  147.4640 C   0  0  0  0  0  2  0  0  0  0  0  0
  161.9380  208.9550  149.5280 C   0  0  2  0  0  3  0  0  0  0  0  0
  163.9840  204.7790  146.5060 N   0  0  0  0  0  1  0  0  0  0  0  0
  161.7040  205.0280  151.5130 C   0  0  0  0  0  3  0  0  0  0  0  0
  160.8510  202.8690  147.1630 C   0  0  0  0  0  2  0  0  0  0  0  0
  162.2320  203.2880  146.9510 N   0  0  0  0  0  0  0  0  0  0  0  0
  162.0320  207.4870  151.9310 C   0  0  2  0  0  3  0  0  0  0  0  0
  162.1750  207.0600  153.3160 N   0  0  0  0  0  1  0  0  0  0  0  0
  161.2050  207.8200  149.0730 O   0  0  0  0  0  0  0  0  0  0  0  0
  162.6010  204.5110  146.7000 C   0  0  0  0  0  0  0  0  0  0  0  0
  160.9070  204.1340  149.4110 C   0  0  0  0  0  0  0  0  0  0  0  0
  160.4760  202.9040  148.6490 C   0  0  0  0  0  2  0  0  0  0  0  0
  160.9850  208.5870  151.8590 C   0  0  0  0  0  2  0  0  0  0  0  0
  161.6280  205.6530  146.5100 C   0  0  0  0  0  2  0  0  0  0  0  0
  161.3090  209.5960  150.7640 C   0  0  0  0  0  2  0  0  0  0  0  0
  161.6510  206.3390  151.0190 C   0  0  0  0  0  0  0  0  0  0  0  0
  162.1370  209.9850  148.4100 C   0  0  0  0  0  2  0  0  0  0  0  0
  163.5100  212.1140  148.2290 C   0  0  0  0  0  1  0  0  0  0  0  0
  162.2890  211.4510  148.8440 C   0  0  1  0  0  3  0  0  0  0  0  0
  161.0500  212.2710  148.6670 C   0  0  0  0  0  0  0  0  0  0  0  0
  160.5540  213.0420  149.7120 O   0  0  0  0  0  1  0  0  0  0  0  0
  160.4700  212.2890  147.5500 O   0  0  0  0  0  0  0  0  0  0  0  0
  1 14  2  0  0  0  0
  1  2  1  0  0  0  0
  2 19  2  0  0  0  0
  3  7  2  0  0  0  0
  4  1  1  0  0  0  0
  5 20  1  6  0  0  0
  5 18  1  0  0  0  0
  6 13  1  0  0  0  0
  8 15  1  0  0  0  0
  9  8  1  0  0  0  0
 10 11  1  1  0  0  0
 12  5  1  0  0  0  0
 12  2  1  0  0  0  0
 13  9  2  0  0  0  0
 14  3  1  0  0  0  0
 15 14  1  0  0  0  0
 16 10  1  0  0  0  0
 17 13  1  0  0  0  0
 17  4  1  0  0  0  0
 18 16  1  0  0  0  0
 19  7  1  0  0  0  0
 19 10  1  0  0  0  0
 20 22  1  0  0  0  0
 22 21  1  6  0  0  0
 23 22  1  0  0  0  0
 23 24  1  0  0  0  0
 25 23  2  0  0  0  0
M  END
>  <MODEL>
2

>  <REMARK>
 VINA RESULT:      -6.4      1.993      3.295
  Name = 
  3 active torsions:
  status: ('A' for Active; 'I' for Inactive)
    1  A    between atoms: C_2  and  C_25
    2  A    between atoms: C_6  and  C_15
    3  A    between atoms: C_15  and  C_25
                            x       y       z     vdW  Elec       q    Type
                         _______ _______ _______ _____ _____    ______ ____

>  <TORSDO>
F 3

$$$$
=
 OpenBabel11052422203D

 25 27  0  0  1  0  0  0  0  0999 V2000
  161.6210  209.0270  153.2450 C   0  0  0  0  0  0  0  0  0  0  0  0
  161.5680  208.8800  151.8440 C   0  0  0  0  0  0  0  0  0  0  0  0
  160.8130  206.7610  153.5270 C   0  0  0  0  0  3  0  0  0  0  0  0
  162.0140  210.3500  153.8310 C   0  0  0  0  0  2  0  0  0  0  0  0
  161.5470  210.1800  149.6970 C   0  0  2  0  0  3  0  0  0  0  0  0
  158.3120  211.1080  154.1050 N   0  0  0  0  0  1  0  0  0  0  0  0
  160.7890  206.5950  152.1460 C   0  0  0  0  0  3  0  0  0  0  0  0
  160.8320  209.3630  156.2260 C   0  0  0  0  0  2  0  0  0  0  0  0
  159.6090  209.8690  155.6120 N   0  0  0  0  0  0  0  0  0  0  0  0
  161.1610  207.3900  149.7880 C   0  0  2  0  0  3  0  0  0  0  0  0
  160.9680  205.9840  149.4630 N   0  0  0  0  0  1  0  0  0  0  0  0
  161.9220  209.9920  151.0590 O   0  0  0  0  0  0  0  0  0  0  0  0
  159.5770  210.6880  154.6010 C   0  0  0  0  0  0  0  0  0  0  0  0
  161.2200  207.9680  154.0920 C   0  0  0  0  0  0  0  0  0  0  0  0
  161.2660  208.0330  155.5990 C   0  0  0  0  0  2  0  0  0  0  0  0
  162.4640  207.8660  149.1650 C   0  0  0  0  0  2  0  0  0  0  0  0
  160.8140  211.2940  153.9790 C   0  0  0  0  0  2  0  0  0  0  0  0
  162.3800  209.3280  148.7410 C   0  0  0  0  0  2  0  0  0  0  0  0
  161.1750  207.6320  151.2840 C   0  0  0  0  0  0  0  0  0  0  0  0
  161.5880  211.6600  149.2980 C   0  0  0  0  0  2  0  0  0  0  0  0
  160.2100  212.6530  147.4110 C   0  0  0  0  0  1  0  0  0  0  0  0
  161.5110  211.9710  147.7950 C   0  0  1  0  0  3  0  0  0  0  0  0
  162.7090  212.6900  147.2600 C   0  0  0  0  0  0  0  0  0  0  0  0
  162.6260  213.4330  146.0880 O   0  0  0  0  0  0  0  0  0  0  0  0
  163.7940  212.6490  147.8960 O   0  0  0  0  0  1  0  0  0  0  0  0
  1  4  1  0  0  0  0
  1 14  1  0  0  0  0
  2  1  2  0  0  0  0
  3 14  2  0  0  0  0
  4 17  1  0  0  0  0
  5 20  1  6  0  0  0
  5 12  1  0  0  0  0
  6 13  1  0  0  0  0
  7  3  1  0  0  0  0
  9  8  1  0  0  0  0
 10 11  1  1  0  0  0
 10 19  1  0  0  0  0
 12  2  1  0  0  0  0
 13  9  2  0  0  0  0
 14 15  1  0  0  0  0
 15  8  1  0  0  0  0
 16 10  1  0  0  0  0
 17 13  1  0  0  0  0
 18 16  1  0  0  0  0
 18  5  1  0  0  0  0
 19  2  1  0  0  0  0
 19  7  2  0  0  0  0
 22 21  1  1  0  0  0
 22 20  1  0  0  0  0
 23 22  1  0  0  0  0
 23 25  1  0  0  0  0
 24 23  2  0  0  0  0
M  END
>  <MODEL>
3

>  <REMARK>
 VINA RESULT:      -6.0      3.883      7.456
  Name = 
  3 active torsions:
  status: ('A' for Active; 'I' for Inactive)
    1  A    between atoms: C_2  and  C_25
    2  A    between atoms: C_6  and  C_15
    3  A    between atoms: C_15  and  C_25
                            x       y       z     vdW  Elec       q    Type
                         _______ _______ _______ _____ _____    ______ ____

>  <TORSDO>
F 3

$$$$
=
 OpenBabel11052422203D

 25 27  0  0  1  0  0  0  0  0999 V2000
  161.6560  209.1150  152.8130 C   0  0  0  0  0  0  0  0  0  0  0  0
  161.6510  209.1800  151.4050 C   0  0  0  0  0  0  0  0  0  0  0  0
  160.8080  206.8480  152.7270 C   0  0  0  0  0  3  0  0  0  0  0  0
  162.0470  210.3290  153.6020 C   0  0  0  0  0  2  0  0  0  0  0  0
  161.7240  210.7850  149.4770 C   0  0  2  0  0  3  0  0  0  0  0  0
  158.3480  211.1080  153.8650 N   0  0  0  0  0  1  0  0  0  0  0  0
  160.8300  206.8910  151.3370 C   0  0  0  0  0  3  0  0  0  0  0  0
  160.7670  209.0200  155.7830 C   0  0  0  0  0  2  0  0  0  0  0  0
  159.5750  209.6340  155.2120 N   0  0  0  0  0  0  0  0  0  0  0  0
  161.2960  208.0200  149.1370 C   0  0  2  0  0  3  0  0  0  0  0  0
  161.0950  206.6820  148.6000 N   0  0  0  0  0  1  0  0  0  0  0  0
  162.0480  210.3890  150.8070 O   0  0  0  0  0  0  0  0  0  0  0  0
  159.5890  210.5950  154.3340 C   0  0  0  0  0  0  0  0  0  0  0  0
  161.2110  207.9500  153.4780 C   0  0  0  0  0  0  0  0  0  0  0  0
  161.2050  207.7900  154.9800 C   0  0  0  0  0  2  0  0  0  0  0  0
  162.6270  208.5580  148.6350 C   0  0  0  0  0  2  0  0  0  0  0  0
  160.8560  211.2630  153.8500 C   0  0  0  0  0  2  0  0  0  0  0  0
  162.5780  210.0680  148.4310 C   0  0  0  0  0  2  0  0  0  0  0  0
  161.2610  208.0360  150.6520 C   0  0  0  0  0  0  0  0  0  0  0  0
  161.7990  212.3070  149.3050 C   0  0  0  0  0  2  0  0  0  0  0  0
  160.3570  212.1900  147.2170 C   0  0  0  0  0  1  0  0  0  0  0  0
  160.6770  212.9630  148.4850 C   0  0  1  0  0  3  0  0  0  0  0  0
  159.4510  213.2840  149.2790 C   0  0  0  0  0  0  0  0  0  0  0  0
  159.4950  213.3240  150.6690 O   0  0  0  0  0  1  0  0  0  0  0  0
  158.3760  213.5530  148.6830 O   0  0  0  0  0  0  0  0  0  0  0  0
  1 14  1  0  0  0  0
  1  4  1  0  0  0  0
  2  1  2  0  0  0  0
  3 14  2  0  0  0  0
  4 17  1  0  0  0  0
  5 20  1  1  0  0  0
  5 12  1  0  0  0  0
  6 13  1  0  0  0  0
  7  3  1  0  0  0  0
  9  8  1  0  0  0  0
 10 11  1  1  0  0  0
 10 19  1  0  0  0  0
 12  2  1  0  0  0  0
 13  9  2  0  0  0  0
 14 15  1  0  0  0  0
 15  8  1  0  0  0  0
 16 10  1  0  0  0  0
 17 13  1  0  0  0  0
 18 16  1  0  0  0  0
 18  5  1  0  0  0  0
 19  7  2  0  0  0  0
 19  2  1  0  0  0  0
 22 21  1  6  0  0  0
 22 23  1  0  0  0  0
 22 20  1  0  0  0  0
 23 24  1  0  0  0  0
 25 23  2  0  0  0  0
M  END
>  <MODEL>
4

>  <REMARK>
 VINA RESULT:      -4.8      3.999      7.469
  Name = 
  3 active torsions:
  status: ('A' for Active; 'I' for Inactive)
    1  A    between atoms: C_2  and  C_25
    2  A    between atoms: C_6  and  C_15
    3  A    between atoms: C_15  and  C_25
                            x       y       z     vdW  Elec       q    Type
                         _______ _______ _______ _____ _____    ______ ____

>  <TORSDO>
F 3

$$$$
=
 OpenBabel11052422203D

 25 27  0  0  1  0  0  0  0  0999 V2000
  158.8530  211.4830  153.0500 C   0  0  0  0  0  0  0  0  0  0  0  0
  159.8490  210.5450  152.7110 C   0  0  0  0  0  0  0  0  0  0  0  0
  159.7590  213.0480  151.4390 C   0  0  0  0  0  3  0  0  0  0  0  0
  157.8840  211.1620  154.1490 C   0  0  0  0  0  2  0  0  0  0  0  0
  160.9850  208.4570  153.5180 C   0  0  2  0  0  3  0  0  0  0  0  0
  160.1820  213.0830  156.4690 N   0  0  0  0  0  1  0  0  0  0  0  0
  160.7260  212.1160  151.0750 C   0  0  0  0  0  3  0  0  0  0  0  0
  157.3740  213.9630  154.1830 C   0  0  0  0  0  2  0  0  0  0  0  0
  158.5390  213.9780  155.0590 N   0  0  0  0  0  0  0  0  0  0  0  0
  161.8350  209.8630  151.2280 C   0  0  2  0  0  3  0  0  0  0  0  0
  162.5070  210.2990  150.0120 N   0  0  0  0  0  1  0  0  0  0  0  0
  159.8600  209.3260  153.4140 O   0  0  0  0  0  0  0  0  0  0  0  0
  159.0440  212.9240  155.6320 C   0  0  0  0  0  0  0  0  0  0  0  0
  158.8210  212.7510  152.4250 C   0  0  0  0  0  0  0  0  0  0  0  0
  157.7780  213.8040  152.7130 C   0  0  0  0  0  2  0  0  0  0  0  0
  161.2050  208.5010  150.9820 C   0  0  0  0  0  2  0  0  0  0  0  0
  158.4310  211.5450  155.5290 C   0  0  0  0  0  2  0  0  0  0  0  0
  161.2140  207.6450  152.2430 C   0  0  0  0  0  2  0  0  0  0  0  0
  160.7830  210.8540  151.6830 C   0  0  0  0  0  0  0  0  0  0  0  0
  160.8830  207.5440  154.7450 C   0  0  0  0  0  2  0  0  0  0  0  0
  160.4590  207.2500  157.2320 C   0  0  0  0  0  1  0  0  0  0  0  0
  160.7250  208.2370  156.1080 C   0  0  1  0  0  3  0  0  0  0  0  0
  161.8290  209.1900  156.4380 C   0  0  0  0  0  0  0  0  0  0  0  0
  161.8600  210.4630  155.8800 O   0  0  0  0  0  0  0  0  0  0  0  0
  162.7210  208.8480  157.2570 O   0  0  0  0  0  1  0  0  0  0  0  0
  1  4  1  0  0  0  0
  2  1  1  0  0  0  0
  2 12  1  0  0  0  0
  3 14  1  0  0  0  0
  4 17  1  0  0  0  0
  5 20  1  1  0  0  0
  7  3  2  0  0  0  0
  7 19  1  0  0  0  0
  8  9  1  0  0  0  0
  9 13  2  0  0  0  0
 10 11  1  6  0  0  0
 10 19  1  0  0  0  0
 12  5  1  0  0  0  0
 13  6  1  0  0  0  0
 14 15  1  0  0  0  0
 14  1  2  0  0  0  0
 15  8  1  0  0  0  0
 16 10  1  0  0  0  0
 16 18  1  0  0  0  0
 17 13  1  0  0  0  0
 18  5  1  0  0  0  0
 19  2  2  0  0  0  0
 20 22  1  0  0  0  0
 22 23  1  0  0  0  0
 22 21  1  1  0  0  0
 23 25  1  0  0  0  0
 24 23  2  0  0  0  0
M  END
>  <MODEL>
5

>  <REMARK>
 VINA RESULT:      -4.8      5.528      9.311
  Name = 
  3 active torsions:
  status: ('A' for Active; 'I' for Inactive)
    1  A    between atoms: C_2  and  C_25
    2  A    between atoms: C_6  and  C_15
    3  A    between atoms: C_15  and  C_25
                            x       y       z     vdW  Elec       q    Type
                         _______ _______ _______ _____ _____    ______ ____

>  <TORSDO>
F 3

$$$$
=
 OpenBabel11052422203D

 25 27  0  0  1  0  0  0  0  0999 V2000
  160.1600  210.5370  152.4820 C   0  0  0  0  0  0  0  0  0  0  0  0
  160.9570  210.0290  151.4360 C   0  0  0  0  0  0  0  0  0  0  0  0
  160.4560  212.7860  151.6330 C   0  0  0  0  0  3  0  0  0  0  0  0
  159.6410  209.6010  153.5320 C   0  0  0  0  0  2  0  0  0  0  0  0
  162.2770  208.0150  150.7270 C   0  0  2  0  0  3  0  0  0  0  0  0
  162.6410  210.5960  155.6220 N   0  0  0  0  0  1  0  0  0  0  0  0
  161.2170  212.2900  150.5790 C   0  0  0  0  0  3  0  0  0  0  0  0
  159.2160  211.9590  155.0730 C   0  0  0  0  0  2  0  0  0  0  0  0
  160.6170  211.7590  155.4240 N   0  0  0  0  0  0  0  0  0  0  0  0
  162.2760  210.4240  149.2650 C   0  0  2  0  0  3  0  0  0  0  0  0
  162.4780  211.4670  148.2690 N   0  0  0  0  0  1  0  0  0  0  0  0
  161.2010  208.6430  151.4180 O   0  0  0  0  0  0  0  0  0  0  0  0
  161.2780  210.6560  155.2230 C   0  0  0  0  0  0  0  0  0  0  0  0
  159.9270  211.9270  152.5930 C   0  0  0  0  0  0  0  0  0  0  0  0
  159.0690  212.5520  153.6670 C   0  0  0  0  0  2  0  0  0  0  0  0
  161.5810  209.2420  148.6080 C   0  0  0  0  0  2  0  0  0  0  0  0
  160.6490  209.3960  154.6700 C   0  0  0  0  0  2  0  0  0  0  0  0
  162.0260  207.9200  149.2220 C   0  0  0  0  0  2  0  0  0  0  0  0
  161.4690  210.9170  150.4490 C   0  0  0  0  0  0  0  0  0  0  0  0
  162.6050  206.6400  151.3210 C   0  0  0  0  0  2  0  0  0  0  0  0
  161.5810  204.5310  150.3460 C   0  0  0  0  0  1  0  0  0  0  0  0
  161.4530  205.6270  151.3910 C   0  0  1  0  0  3  0  0  0  0  0  0
  161.2060  205.0780  152.7610 C   0  0  0  0  0  0  0  0  0  0  0  0
  161.3490  205.8840  153.8850 O   0  0  0  0  0  1  0  0  0  0  0  0
  160.8310  203.8840  152.8940 O   0  0  0  0  0  0  0  0  0  0  0  0
  1 14  1  0  0  0  0
  1  4  1  0  0  0  0
  2  1  2  0  0  0  0
  3 14  2  0  0  0  0
  4 17  1  0  0  0  0
  5 20  1  1  0  0  0
  5 12  1  0  0  0  0
  7  3  1  0  0  0  0
  8  9  1  0  0  0  0
 10 11  1  6  0  0  0
 10 19  1  0  0  0  0
 12  2  1  0  0  0  0
 13  9  2  0  0  0  0
 13  6  1  0  0  0  0
 14 15  1  0  0  0  0
 15  8  1  0  0  0  0
 16 18  1  0  0  0  0
 16 10  1  0  0  0  0
 17 13  1  0  0  0  0
 18  5  1  0  0  0  0
 19  7  2  0  0  0  0
 19  2  1  0  0  0  0
 20 22  1  0  0  0  0
 22 21  1  6  0  0  0
 22 23  1  0  0  0  0
 23 25  2  0  0  0  0
 23 24  1  0  0  0  0
M  END
>  <MODEL>
6

>  <REMARK>
 VINA RESULT:      -4.7      4.000      8.455
  Name = 
  3 active torsions:
  status: ('A' for Active; 'I' for Inactive)
    1  A    between atoms: C_2  and  C_25
    2  A    between atoms: C_6  and  C_15
    3  A    between atoms: C_15  and  C_25
                            x       y       z     vdW  Elec       q    Type
                         _______ _______ _______ _____ _____    ______ ____

>  <TORSDO>
F 3

$$$$
=
 OpenBabel11052422203D

 25 27  0  0  1  0  0  0  0  0999 V2000
  161.0030  212.1050  139.4240 C   0  0  0  0  0  0  0  0  0  0  0  0
  160.4410  210.8880  138.9880 C   0  0  0  0  0  0  0  0  0  0  0  0
  162.8950  210.9140  140.3550 C   0  0  0  0  0  3  0  0  0  0  0  0
  160.2440  213.3820  139.2160 C   0  0  0  0  0  2  0  0  0  0  0  0
  158.2950  209.8420  138.2120 C   0  0  2  0  0  3  0  0  0  0  0  0
  158.9510  212.9580  142.7520 N   0  0  0  0  0  1  0  0  0  0  0  0
  162.3640  209.7110  139.9000 C   0  0  0  0  0  3  0  0  0  0  0  0
  161.9890  214.4530  141.1950 C   0  0  0  0  0  2  0  0  0  0  0  0
  161.0050  213.8820  142.1070 N   0  0  0  0  0  0  0  0  0  0  0  0
  160.6290  208.3400  138.6990 C   0  0  2  0  0  3  0  0  0  0  0  0
  161.6270  207.2860  138.8140 N   0  0  0  0  0  1  0  0  0  0  0  0
  159.1910  210.9420  138.3440 O   0  0  0  0  0  0  0  0  0  0  0  0
  159.8140  213.4920  141.7560 C   0  0  0  0  0  0  0  0  0  0  0  0
  162.2270  212.1160  140.1310 C   0  0  0  0  0  0  0  0  0  0  0  0
  162.9090  213.3740  140.6140 C   0  0  0  0  0  2  0  0  0  0  0  0
  160.1990  208.4570  137.2450 C   0  0  0  0  0  2  0  0  0  0  0  0
  159.2600  213.6590  140.3590 C   0  0  0  0  0  2  0  0  0  0  0  0
  158.7340  208.8600  137.1260 C   0  0  0  0  0  2  0  0  0  0  0  0
  161.1490  209.6720  139.2010 C   0  0  0  0  0  0  0  0  0  0  0  0
  156.8530  210.3110  137.9850 C   0  0  0  0  0  2  0  0  0  0  0  0
  155.0960  211.4540  139.4180 C   0  0  0  0  0  1  0  0  0  0  0  0
  155.8910  210.1830  139.1760 C   0  0  1  0  0  3  0  0  0  0  0  0
  155.0180  208.9680  139.1250 C   0  0  0  0  0  0  0  0  0  0  0  0
  155.2380  207.9750  138.1770 O   0  0  0  0  0  0  0  0  0  0  0  0
  154.0980  208.8280  139.9720 O   0  0  0  0  0  1  0  0  0  0  0  0
  1 14  1  0  0  0  0
  2 19  1  0  0  0  0
  2  1  2  0  0  0  0
  4  1  1  0  0  0  0
  4 17  1  0  0  0  0
  5 20  1  6  0  0  0
  5 12  1  0  0  0  0
  7  3  1  0  0  0  0
  8  9  1  0  0  0  0
 10 11  1  6  0  0  0
 10 19  1  0  0  0  0
 12  2  1  0  0  0  0
 13  9  2  0  0  0  0
 13  6  1  0  0  0  0
 14  3  2  0  0  0  0
 14 15  1  0  0  0  0
 15  8  1  0  0  0  0
 16 10  1  0  0  0  0
 17 13  1  0  0  0  0
 18 16  1  0  0  0  0
 18  5  1  0  0  0  0
 19  7  2  0  0  0  0
 20 22  1  0  0  0  0
 22 21  1  6  0  0  0
 23 22  1  0  0  0  0
 23 25  1  0  0  0  0
 24 23  2  0  0  0  0
M  END
>  <MODEL>
7

>  <REMARK>
 VINA RESULT:      -4.6     10.928     12.748
  Name = 
  3 active torsions:
  status: ('A' for Active; 'I' for Inactive)
    1  A    between atoms: C_2  and  C_25
    2  A    between atoms: C_6  and  C_15
    3  A    between atoms: C_15  and  C_25
                            x       y       z     vdW  Elec       q    Type
                         _______ _______ _______ _____ _____    ______ ____

>  <TORSDO>
F 3

$$$$
=
 OpenBabel11052422203D

 25 27  0  0  1  0  0  0  0  0999 V2000
  158.6450  212.7480  139.4890 C   0  0  0  0  0  0  0  0  0  0  0  0
  159.7600  212.2730  140.2090 C   0  0  0  0  0  0  0  0  0  0  0  0
  157.7900  213.8160  141.4870 C   0  0  0  0  0  3  0  0  0  0  0  0
  158.4810  212.3610  138.0490 C   0  0  0  0  0  2  0  0  0  0  0  0
  161.6150  210.5850  140.1350 C   0  0  2  0  0  3  0  0  0  0  0  0
  156.2360  209.5610  139.2600 N   0  0  0  0  0  1  0  0  0  0  0  0
  158.9030  213.3790  142.1990 C   0  0  0  0  0  3  0  0  0  0  0  0
  155.7690  213.1570  138.3990 C   0  0  0  0  0  2  0  0  0  0  0  0
  155.6280  211.7950  138.9000 N   0  0  0  0  0  0  0  0  0  0  0  0
  161.1160  212.1970  142.3920 C   0  0  2  0  0  3  0  0  0  0  0  0
  161.1700  212.8680  143.6830 N   0  0  0  0  0  1  0  0  0  0  0  0
  160.6890  211.4740  139.5180 O   0  0  0  0  0  0  0  0  0  0  0  0
  156.5040  210.8490  138.7220 C   0  0  0  0  0  0  0  0  0  0  0  0
  157.6430  213.5060  140.1370 C   0  0  0  0  0  0  0  0  0  0  0  0
  156.4300  214.0710  139.4370 C   0  0  0  0  0  2  0  0  0  0  0  0
  162.3960  212.4940  141.6270 C   0  0  0  0  0  2  0  0  0  0  0  0
  157.7570  211.0190  137.8920 C   0  0  0  0  0  2  0  0  0  0  0  0
  162.8070  211.3190  140.7480 C   0  0  0  0  0  2  0  0  0  0  0  0
  159.9080  212.6210  141.5810 C   0  0  0  0  0  0  0  0  0  0  0  0
  162.0770  209.4880  139.1680 C   0  0  0  0  0  2  0  0  0  0  0  0
  160.4540  208.1280  137.7670 C   0  0  0  0  0  1  0  0  0  0  0  0
  161.2020  208.2280  139.0860 C   0  0  1  0  0  3  0  0  0  0  0  0
  161.9220  206.9630  139.4280 C   0  0  0  0  0  0  0  0  0  0  0  0
  162.1010  206.5840  140.7540 O   0  0  0  0  0  1  0  0  0  0  0  0
  162.3400  206.2160  138.5050 O   0  0  0  0  0  0  0  0  0  0  0  0
  1 14  2  0  0  0  0
  1  2  1  0  0  0  0
  2 19  2  0  0  0  0
  3  7  2  0  0  0  0
  4  1  1  0  0  0  0
  5 20  1  6  0  0  0
  5 18  1  0  0  0  0
  8  9  1  0  0  0  0
  8 15  1  0  0  0  0
 10 11  1  1  0  0  0
 12  5  1  0  0  0  0
 12  2  1  0  0  0  0
 13  9  2  0  0  0  0
 13  6  1  0  0  0  0
 14  3  1  0  0  0  0
 15 14  1  0  0  0  0
 16 10  1  0  0  0  0
 17  4  1  0  0  0  0
 17 13  1  0  0  0  0
 18 16  1  0  0  0  0
 19  7  1  0  0  0  0
 19 10  1  0  0  0  0
 22 21  1  6  0  0  0
 22 20  1  0  0  0  0
 22 23  1  0  0  0  0
 23 24  1  0  0  0  0
 25 23  2  0  0  0  0
M  END
>  <MODEL>
8

>  <REMARK>
 VINA RESULT:      -4.6      9.902     12.430
  Name = 
  3 active torsions:
  status: ('A' for Active; 'I' for Inactive)
    1  A    between atoms: C_2  and  C_25
    2  A    between atoms: C_6  and  C_15
    3  A    between atoms: C_15  and  C_25
                            x       y       z     vdW  Elec       q    Type
                         _______ _______ _______ _____ _____    ______ ____

>  <TORSDO>
F 3

$$$$
=
 OpenBabel11052422203D

 25 27  0  0  1  0  0  0  0  0999 V2000
  161.0340  206.2630  149.3140 C   0  0  0  0  0  0  0  0  0  0  0  0
  161.3670  205.3000  148.3400 C   0  0  0  0  0  0  0  0  0  0  0  0
  162.3170  207.9350  148.1210 C   0  0  0  0  0  3  0  0  0  0  0  0
  160.2270  205.8500  150.5090 C   0  0  0  0  0  2  0  0  0  0  0  0
  161.4420  202.8270  147.9170 C   0  0  2  0  0  3  0  0  0  0  0  0
  163.5170  205.4430  152.3440 N   0  0  0  0  0  1  0  0  0  0  0  0
  162.6240  207.0010  147.1380 C   0  0  0  0  0  3  0  0  0  0  0  0
  161.1770  208.2670  151.6770 C   0  0  0  0  0  2  0  0  0  0  0  0
  162.3240  207.4340  152.0200 N   0  0  0  0  0  0  0  0  0  0  0  0
  162.4870  204.7120  146.1010 C   0  0  2  0  0  3  0  0  0  0  0  0
  163.0780  205.3830  144.9520 N   0  0  0  0  0  1  0  0  0  0  0  0
  160.8910  203.9900  148.5300 O   0  0  0  0  0  0  0  0  0  0  0  0
  162.3290  206.1330  151.9750 C   0  0  0  0  0  0  0  0  0  0  0  0
  161.5300  207.5830  149.2160 C   0  0  0  0  0  0  0  0  0  0  0  0
  161.2040  208.6790  150.2010 C   0  0  0  0  0  2  0  0  0  0  0  0
  161.2370  203.9710  145.6520 C   0  0  0  0  0  2  0  0  0  0  0  0
  161.1090  205.3050  151.6390 C   0  0  0  0  0  2  0  0  0  0  0  0
  161.0280  202.6910  146.4510 C   0  0  0  0  0  2  0  0  0  0  0  0
  162.1500  205.6830  147.2140 C   0  0  0  0  0  0  0  0  0  0  0  0
  161.1050  201.5570  148.7070 C   0  0  0  0  0  2  0  0  0  0  0  0
  159.2340  200.6320  150.1530 C   0  0  0  0  0  1  0  0  0  0  0  0
  160.2570  201.7400  149.9760 C   0  0  1  0  0  3  0  0  0  0  0  0
  161.0600  201.9760  151.2160 C   0  0  0  0  0  0  0  0  0  0  0  0
  160.4550  202.4550  152.3730 O   0  0  0  0  0  1  0  0  0  0  0  0
  162.2880  201.7040  151.2230 O   0  0  0  0  0  0  0  0  0  0  0  0
  1  4  1  0  0  0  0
  2 12  1  0  0  0  0
  2  1  2  0  0  0  0
  3 14  2  0  0  0  0
  4 17  1  0  0  0  0
  5 12  1  0  0  0  0
  5 20  1  1  0  0  0
  7 19  2  0  0  0  0
  7  3  1  0  0  0  0
  8  9  1  0  0  0  0
 10 11  1  6  0  0  0
 10 19  1  0  0  0  0
 13  9  2  0  0  0  0
 13  6  1  0  0  0  0
 14  1  1  0  0  0  0
 14 15  1  0  0  0  0
 15  8  1  0  0  0  0
 16 10  1  0  0  0  0
 16 18  1  0  0  0  0
 17 13  1  0  0  0  0
 18  5  1  0  0  0  0
 19  2  1  0  0  0  0
 20 22  1  0  0  0  0
 22 21  1  1  0  0  0
 22 23  1  0  0  0  0
 23 25  2  0  0  0  0
 23 24  1  0  0  0  0
M  END
>  <MODEL>
9

>  <REMARK>
 VINA RESULT:      -4.5      2.240      6.287
  Name = 
  3 active torsions:
  status: ('A' for Active; 'I' for Inactive)
    1  A    between atoms: C_2  and  C_25
    2  A    between atoms: C_6  and  C_15
    3  A    between atoms: C_15  and  C_25
                            x       y       z     vdW  Elec       q    Type
                         _______ _______ _______ _____ _____    ______ ____

>  <TORSDO>
F 3

$$$$
