=
 OpenBabel11052422323D

 31 36  0  0  0  0  0  0  0  0999 V2000
  161.7610  210.8550  149.7600 C   0  0  0  0  0  0  0  0  0  0  0  0
  161.3890  208.2620  152.4420 C   0  0  0  0  0  0  0  0  0  0  0  0
  161.2050  209.0340  153.7190 C   0  0  0  0  0  0  0  0  0  0  0  0
  160.8800  211.4460  154.1780 C   0  0  0  0  0  3  0  0  0  0  0  0
  161.5840  208.8790  151.1770 C   0  0  0  0  0  0  0  0  0  0  0  0
  161.9560  210.0460  148.6390 C   0  0  0  0  0  3  0  0  0  0  0  0
  161.8690  210.3700  153.8840 C   0  0  0  0  0  2  0  0  0  0  0  0
  161.5300  206.0590  151.3610 C   0  0  0  0  0  0  0  0  0  0  0  0
  161.7520  212.2700  149.6230 N   0  0  0  0  0  1  0  0  0  0  0  0
  160.1490  207.0120  154.6780 C   0  0  0  0  0  2  0  0  0  0  0  0
  160.1490  211.4610  155.2900 C   0  0  0  0  0  3  0  0  0  0  0  0
  161.7440  206.6850  150.1310 C   0  0  0  0  0  3  0  0  0  0  0  0
  161.3330  206.8480  152.5080 C   0  0  0  0  0  0  0  0  0  0  0  0
  161.5720  210.2740  151.0160 C   0  0  0  0  0  3  0  0  0  0  0  0
  160.1600  210.3960  156.3090 C   0  0  0  0  0  3  0  0  0  0  0  0
  161.7670  208.0710  150.0270 C   0  0  0  0  0  0  0  0  0  0  0  0
  161.9570  208.6580  148.7730 C   0  0  0  0  0  3  0  0  0  0  0  0
  161.1140  206.1850  153.8380 C   0  0  0  0  0  2  0  0  0  0  0  0
  160.6230  208.4330  154.7850 C   0  0  0  0  0  0  0  0  0  0  0  0
  160.3740  209.0930  156.0880 C   0  0  0  0  0  3  0  0  0  0  0  0
  161.4940  204.6250  151.4770 N   0  0  0  0  0  2  0  0  0  0  0  0
  160.8310  201.2780  146.0110 C   0  0  0  0  0  3  0  0  0  0  0  0
  161.2040  203.1310  148.0760 C   0  0  0  0  0  0  0  0  0  0  0  0
  160.8310  201.3700  149.7090 C   0  0  0  0  0  3  0  0  0  0  0  0
  161.0170  202.2980  150.7380 C   0  0  0  0  0  3  0  0  0  0  0  0
  161.1090  202.6160  145.7120 C   0  0  0  0  0  3  0  0  0  0  0  0
  161.2990  203.6430  150.4470 C   0  0  0  0  0  0  0  0  0  0  0  0
  161.2960  203.5430  146.7430 C   0  0  0  0  0  3  0  0  0  0  0  0
  160.9220  201.7800  148.3770 C   0  0  0  0  0  0  0  0  0  0  0  0
  161.3900  204.0510  149.1110 C   0  0  0  0  0  3  0  0  0  0  0  0
  160.7370  200.8600  147.3420 C   0  0  0  0  0  3  0  0  0  0  0  0
  1 14  1  0  0  0  0
  2 13  2  0  0  0  0
  2  3  1  0  0  0  0
  3  7  1  0  0  0  0
  3 19  2  0  0  0  0
  4 11  2  0  0  0  0
  5  2  1  0  0  0  0
  6 17  1  0  0  0  0
  6  1  2  0  0  0  0
  7  4  1  0  0  0  0
  8 21  1  0  0  0  0
  8 13  1  0  0  0  0
  9  1  1  0  0  0  0
 10 19  1  0  0  0  0
 11 15  1  0  0  0  0
 12  8  2  0  0  0  0
 13 18  1  0  0  0  0
 14  5  2  0  0  0  0
 16 12  1  0  0  0  0
 16  5  1  0  0  0  0
 17 16  2  0  0  0  0
 18 10  1  0  0  0  0
 19 20  1  0  0  0  0
 20 15  2  0  0  0  0
 22 31  1  0  0  0  0
 23 29  1  0  0  0  0
 23 30  1  0  0  0  0
 24 25  2  0  0  0  0
 26 22  2  0  0  0  0
 26 28  1  0  0  0  0
 27 25  1  0  0  0  0
 27 21  1  0  0  0  0
 28 23  2  0  0  0  0
 29 24  1  0  0  0  0
 30 27  2  0  0  0  0
 31 29  2  0  0  0  0
M  END
>  <MODEL>
1

>  <REMARK>
 VINA RESULT:     -11.6      0.000      0.000
  Name = 
  2 active torsions:
  status: ('A' for Active; 'I' for Inactive)
    1  A    between atoms: C_9  and  N_23
    2  A    between atoms: C_15  and  N_23
                            x       y       z     vdW  Elec       q    Type
                         _______ _______ _______ _____ _____    ______ ____

>  <TORSDO>
F 2

$$$$
=
 OpenBabel11052422323D

 31 36  0  0  0  0  0  0  0  0999 V2000
  160.8990  201.9470  150.5120 C   0  0  0  0  0  0  0  0  0  0  0  0
  161.3110  205.3220  148.9310 C   0  0  0  0  0  0  0  0  0  0  0  0
  161.4390  205.0570  147.4570 C   0  0  0  0  0  0  0  0  0  0  0  0
  161.1710  203.0020  146.1000 C   0  0  0  0  0  3  0  0  0  0  0  0
  161.1530  204.2930  149.8990 C   0  0  0  0  0  0  0  0  0  0  0  0
  160.8230  202.2970  151.8610 C   0  0  0  0  0  3  0  0  0  0  0  0
  162.0820  203.7880  146.9810 C   0  0  0  0  0  2  0  0  0  0  0  0
  161.2330  206.9920  150.7320 C   0  0  0  0  0  0  0  0  0  0  0  0
  160.8130  200.5810  150.1250 N   0  0  0  0  0  1  0  0  0  0  0  0
  160.7270  207.3960  147.0720 C   0  0  0  0  0  2  0  0  0  0  0  0
  160.7510  203.4540  144.9210 C   0  0  0  0  0  3  0  0  0  0  0  0
  161.1040  205.9650  151.6690 C   0  0  0  0  0  3  0  0  0  0  0  0
  161.3150  206.6700  149.3660 C   0  0  0  0  0  0  0  0  0  0  0  0
  161.0590  202.9380  149.5400 C   0  0  0  0  0  3  0  0  0  0  0  0
  161.0570  204.7920  144.3850 C   0  0  0  0  0  3  0  0  0  0  0  0
  161.0580  204.6340  151.2710 C   0  0  0  0  0  0  0  0  0  0  0  0
  160.9000  203.6370  152.2390 C   0  0  0  0  0  3  0  0  0  0  0  0
  161.4670  207.7660  148.3510 C   0  0  0  0  0  2  0  0  0  0  0  0
  161.1690  206.0500  146.5740 C   0  0  0  0  0  0  0  0  0  0  0  0
  161.2460  205.9070  145.1020 C   0  0  0  0  0  3  0  0  0  0  0  0
  161.2720  208.3730  151.1350 N   0  0  0  0  0  2  0  0  0  0  0  0
  159.9180  209.8480  157.2590 C   0  0  0  0  0  3  0  0  0  0  0  0
  160.6960  208.7730  154.7940 C   0  0  0  0  0  0  0  0  0  0  0  0
  159.8540  210.7600  153.6750 C   0  0  0  0  0  3  0  0  0  0  0  0
  160.2440  210.2200  152.4450 C   0  0  0  0  0  3  0  0  0  0  0  0
  160.5300  208.5910  157.2020 C   0  0  0  0  0  3  0  0  0  0  0  0
  160.8610  208.9610  152.3790 C   0  0  0  0  0  0  0  0  0  0  0  0
  160.9190  208.0530  155.9710 C   0  0  0  0  0  3  0  0  0  0  0  0
  160.0770  210.0420  154.8510 C   0  0  0  0  0  0  0  0  0  0  0  0
  161.0820  208.2430  153.5600 C   0  0  0  0  0  3  0  0  0  0  0  0
  159.6910  210.5730  156.0850 C   0  0  0  0  0  3  0  0  0  0  0  0
  1  6  1  0  0  0  0
  2 13  2  0  0  0  0
  2  5  1  0  0  0  0
  3  2  1  0  0  0  0
  4  7  1  0  0  0  0
  5 16  2  0  0  0  0
  6 17  2  0  0  0  0
  7  3  1  0  0  0  0
  8 21  1  0  0  0  0
  8 12  2  0  0  0  0
  9  1  1  0  0  0  0
 10 18  1  0  0  0  0
 11  4  2  0  0  0  0
 13  8  1  0  0  0  0
 14  5  1  0  0  0  0
 14  1  2  0  0  0  0
 15 11  1  0  0  0  0
 15 20  2  0  0  0  0
 16 12  1  0  0  0  0
 16 17  1  0  0  0  0
 18 13  1  0  0  0  0
 19 10  1  0  0  0  0
 19  3  2  0  0  0  0
 20 19  1  0  0  0  0
 21 27  1  0  0  0  0
 23 29  1  0  0  0  0
 23 28  1  0  0  0  0
 24 29  2  0  0  0  0
 25 24  1  0  0  0  0
 26 22  1  0  0  0  0
 27 25  2  0  0  0  0
 27 30  1  0  0  0  0
 28 26  2  0  0  0  0
 29 31  1  0  0  0  0
 30 23  2  0  0  0  0
 31 22  2  0  0  0  0
M  END
>  <MODEL>
2

>  <REMARK>
 VINA RESULT:     -11.6      1.754      8.929
  Name = 
  2 active torsions:
  status: ('A' for Active; 'I' for Inactive)
    1  A    between atoms: C_9  and  N_23
    2  A    between atoms: C_15  and  N_23
                            x       y       z     vdW  Elec       q    Type
                         _______ _______ _______ _____ _____    ______ ____

>  <TORSDO>
F 2

$$$$
=
 OpenBabel11052422323D

 31 36  0  0  0  0  0  0  0  0999 V2000
  160.8510  201.9990  150.5300 C   0  0  0  0  0  0  0  0  0  0  0  0
  161.4000  205.3870  149.0190 C   0  0  0  0  0  0  0  0  0  0  0  0
  161.5270  205.1470  147.5410 C   0  0  0  0  0  0  0  0  0  0  0  0
  161.1890  203.1310  146.1420 C   0  0  0  0  0  3  0  0  0  0  0  0
  161.1980  204.3460  149.9650 C   0  0  0  0  0  0  0  0  0  0  0  0
  160.7810  202.3250  151.8860 C   0  0  0  0  0  3  0  0  0  0  0  0
  162.1250  203.8640  147.0430 C   0  0  0  0  0  2  0  0  0  0  0  0
  161.3760  207.0230  150.8530 C   0  0  0  0  0  0  0  0  0  0  0  0
  160.7160  200.6460  150.1160 N   0  0  0  0  0  1  0  0  0  0  0  0
  160.9070  207.5180  147.1990 C   0  0  0  0  0  2  0  0  0  0  0  0
  160.7940  203.6220  144.9700 C   0  0  0  0  0  3  0  0  0  0  0  0
  161.2020  205.9830  151.7690 C   0  0  0  0  0  3  0  0  0  0  0  0
  161.4540  206.7250  149.4810 C   0  0  0  0  0  0  0  0  0  0  0  0
  161.0550  203.0030  149.5790 C   0  0  0  0  0  3  0  0  0  0  0  0
  161.1540  204.9570  144.4620 C   0  0  0  0  0  3  0  0  0  0  0  0
  161.1080  204.6630  151.3430 C   0  0  0  0  0  0  0  0  0  0  0  0
  160.9070  203.6540  152.2910 C   0  0  0  0  0  3  0  0  0  0  0  0
  161.6530  207.8340  148.4890 C   0  0  0  0  0  2  0  0  0  0  0  0
  161.3010  206.1660  146.6760 C   0  0  0  0  0  0  0  0  0  0  0  0
  161.3810  206.0490  145.2020 C   0  0  0  0  0  3  0  0  0  0  0  0
  161.4640  208.3940  151.2830 N   0  0  0  0  0  2  0  0  0  0  0  0
  158.4360  212.0710  155.6220 C   0  0  0  0  0  3  0  0  0  0  0  0
  159.5680  210.8070  153.3950 C   0  0  0  0  0  0  0  0  0  0  0  0
  160.5280  209.1180  154.8550 C   0  0  0  0  0  3  0  0  0  0  0  0
  161.0920  208.4890  153.7400 C   0  0  0  0  0  3  0  0  0  0  0  0
  158.2400  212.5970  154.3410 C   0  0  0  0  0  3  0  0  0  0  0  0
  160.8990  209.0090  152.4500 C   0  0  0  0  0  0  0  0  0  0  0  0
  158.8060  211.9670  153.2270 C   0  0  0  0  0  3  0  0  0  0  0  0
  159.7660  210.2760  154.6890 C   0  0  0  0  0  0  0  0  0  0  0  0
  160.1350  210.1710  152.2870 C   0  0  0  0  0  3  0  0  0  0  0  0
  159.1980  210.9110  155.7970 C   0  0  0  0  0  3  0  0  0  0  0  0
  1  6  1  0  0  0  0
  2 13  2  0  0  0  0
  2  5  1  0  0  0  0
  3  2  1  0  0  0  0
  4  7  1  0  0  0  0
  5 16  2  0  0  0  0
  6 17  2  0  0  0  0
  7  3  1  0  0  0  0
  8 21  1  0  0  0  0
  8 12  2  0  0  0  0
  9  1  1  0  0  0  0
 10 18  1  0  0  0  0
 11  4  2  0  0  0  0
 13  8  1  0  0  0  0
 14  5  1  0  0  0  0
 14  1  2  0  0  0  0
 15 11  1  0  0  0  0
 15 20  2  0  0  0  0
 16 12  1  0  0  0  0
 16 17  1  0  0  0  0
 18 13  1  0  0  0  0
 19 10  1  0  0  0  0
 19  3  2  0  0  0  0
 20 19  1  0  0  0  0
 21 27  1  0  0  0  0
 22 31  1  0  0  0  0
 23 29  1  0  0  0  0
 25 24  2  0  0  0  0
 26 22  2  0  0  0  0
 27 25  1  0  0  0  0
 28 23  2  0  0  0  0
 28 26  1  0  0  0  0
 29 24  1  0  0  0  0
 29 31  2  0  0  0  0
 30 27  2  0  0  0  0
 30 23  1  0  0  0  0
M  END
>  <MODEL>
3

>  <REMARK>
 VINA RESULT:     -11.4      1.845      8.944
  Name = 
  2 active torsions:
  status: ('A' for Active; 'I' for Inactive)
    1  A    between atoms: C_9  and  N_23
    2  A    between atoms: C_15  and  N_23
                            x       y       z     vdW  Elec       q    Type
                         _______ _______ _______ _____ _____    ______ ____

>  <TORSDO>
F 2

$$$$
=
 OpenBabel11052422323D

 31 36  0  0  0  0  0  0  0  0999 V2000
  161.8370  206.7150  147.2560 C   0  0  0  0  0  0  0  0  0  0  0  0
  161.1640  204.5840  150.2670 C   0  0  0  0  0  0  0  0  0  0  0  0
  160.9440  203.1970  149.7300 C   0  0  0  0  0  0  0  0  0  0  0  0
  161.2060  202.2210  147.4690 C   0  0  0  0  0  3  0  0  0  0  0  0
  161.4350  205.7080  149.4390 C   0  0  0  0  0  0  0  0  0  0  0  0
  161.9930  207.9680  147.8520 C   0  0  0  0  0  3  0  0  0  0  0  0
  160.3250  203.0110  148.3760 C   0  0  0  0  0  2  0  0  0  0  0  0
  161.2950  206.0400  152.2430 C   0  0  0  0  0  0  0  0  0  0  0  0
  161.9560  206.5780  145.8460 N   0  0  0  0  0  1  0  0  0  0  0  0
  161.5220  202.3390  151.9780 C   0  0  0  0  0  2  0  0  0  0  0  0
  161.5200  200.9500  147.7090 C   0  0  0  0  0  3  0  0  0  0  0  0
  161.5360  207.1350  151.4110 C   0  0  0  0  0  3  0  0  0  0  0  0
  161.1300  204.7660  151.6710 C   0  0  0  0  0  0  0  0  0  0  0  0
  161.5640  205.5950  148.0450 C   0  0  0  0  0  3  0  0  0  0  0  0
  161.1180  200.2040  148.9140 C   0  0  0  0  0  3  0  0  0  0  0  0
  161.6130  206.9830  150.0310 C   0  0  0  0  0  0  0  0  0  0  0  0
  161.8830  208.1010  149.2360 C   0  0  0  0  0  3  0  0  0  0  0  0
  160.8580  203.5830  152.5560 C   0  0  0  0  0  2  0  0  0  0  0  0
  161.1050  202.1300  150.5510 C   0  0  0  0  0  0  0  0  0  0  0  0
  160.9310  200.7190  150.1360 C   0  0  0  0  0  3  0  0  0  0  0  0
  161.2230  206.1860  153.6730 N   0  0  0  0  0  2  0  0  0  0  0  0
  159.7080  212.0150  155.9620 C   0  0  0  0  0  3  0  0  0  0  0  0
  160.4560  209.7300  154.5280 C   0  0  0  0  0  0  0  0  0  0  0  0
  160.0810  208.3760  156.5110 C   0  0  0  0  0  3  0  0  0  0  0  0
  160.4550  207.2370  155.7920 C   0  0  0  0  0  3  0  0  0  0  0  0
  160.0810  212.1200  154.6180 C   0  0  0  0  0  3  0  0  0  0  0  0
  160.8300  207.3320  154.4420 C   0  0  0  0  0  0  0  0  0  0  0  0
  160.4560  210.9790  153.9010 C   0  0  0  0  0  3  0  0  0  0  0  0
  160.0800  209.6240  155.8860 C   0  0  0  0  0  0  0  0  0  0  0  0
  160.8280  208.5860  153.8180 C   0  0  0  0  0  3  0  0  0  0  0  0
  159.7070  210.7680  156.5960 C   0  0  0  0  0  3  0  0  0  0  0  0
  1  6  2  0  0  0  0
  1 14  1  0  0  0  0
  2 13  2  0  0  0  0
  3  2  1  0  0  0  0
  3 19  2  0  0  0  0
  4 11  2  0  0  0  0
  4  7  1  0  0  0  0
  5 16  1  0  0  0  0
  5  2  1  0  0  0  0
  6 17  1  0  0  0  0
  7  3  1  0  0  0  0
  8 21  1  0  0  0  0
  9  1  1  0  0  0  0
 10 18  1  0  0  0  0
 11 15  1  0  0  0  0
 12  8  2  0  0  0  0
 13  8  1  0  0  0  0
 13 18  1  0  0  0  0
 14  5  2  0  0  0  0
 15 20  2  0  0  0  0
 16 12  1  0  0  0  0
 17 16  2  0  0  0  0
 19 10  1  0  0  0  0
 20 19  1  0  0  0  0
 21 27  1  0  0  0  0
 22 31  1  0  0  0  0
 23 29  1  0  0  0  0
 25 24  2  0  0  0  0
 26 22  2  0  0  0  0
 27 25  1  0  0  0  0
 28 23  2  0  0  0  0
 28 26  1  0  0  0  0
 29 24  1  0  0  0  0
 29 31  2  0  0  0  0
 30 27  2  0  0  0  0
 30 23  1  0  0  0  0
M  END
>  <MODEL>
4

>  <REMARK>
 VINA RESULT:     -10.4      1.839      8.143
  Name = 
  2 active torsions:
  status: ('A' for Active; 'I' for Inactive)
    1  A    between atoms: C_9  and  N_23
    2  A    between atoms: C_15  and  N_23
                            x       y       z     vdW  Elec       q    Type
                         _______ _______ _______ _____ _____    ______ ____

>  <TORSDO>
F 2

$$$$
=
 OpenBabel11052422323D

 31 36  0  0  0  0  0  0  0  0999 V2000
  160.4360  201.9610  150.4510 C   0  0  0  0  0  0  0  0  0  0  0  0
  161.6170  205.1680  148.9080 C   0  0  0  0  0  0  0  0  0  0  0  0
  161.6300  204.9140  147.4270 C   0  0  0  0  0  0  0  0  0  0  0  0
  160.8230  203.0210  146.0500 C   0  0  0  0  0  3  0  0  0  0  0  0
  161.2410  204.1860  149.8650 C   0  0  0  0  0  0  0  0  0  0  0  0
  160.4900  202.2870  151.8080 C   0  0  0  0  0  3  0  0  0  0  0  0
  161.9260  203.5380  146.9090 C   0  0  0  0  0  2  0  0  0  0  0  0
  162.0080  206.7630  150.7370 C   0  0  0  0  0  0  0  0  0  0  0  0
  160.0050  200.6680  150.0470 N   0  0  0  0  0  1  0  0  0  0  0  0
  161.5040  207.3650  147.1030 C   0  0  0  0  0  2  0  0  0  0  0  0
  160.4910  203.5890  144.8940 C   0  0  0  0  0  3  0  0  0  0  0  0
  161.6590  205.7780  151.6620 C   0  0  0  0  0  3  0  0  0  0  0  0
  161.9660  206.4630  149.3630 C   0  0  0  0  0  0  0  0  0  0  0  0
  160.8050  202.9050  149.4900 C   0  0  0  0  0  3  0  0  0  0  0  0
  161.1000  204.8240  144.3670 C   0  0  0  0  0  3  0  0  0  0  0  0
  161.2750  204.5080  151.2450 C   0  0  0  0  0  0  0  0  0  0  0  0
  160.9070  203.5580  152.2030 C   0  0  0  0  0  3  0  0  0  0  0  0
  162.3520  207.5120  148.3600 C   0  0  0  0  0  2  0  0  0  0  0  0
  161.5860  205.9640  146.5690 C   0  0  0  0  0  0  0  0  0  0  0  0
  161.5790  205.8410  145.0930 C   0  0  0  0  0  3  0  0  0  0  0  0
  162.3980  208.0830  151.1580 N   0  0  0  0  0  2  0  0  0  0  0  0
  159.1670  213.5940  151.9970 C   0  0  0  0  0  3  0  0  0  0  0  0
  160.7540  211.4260  151.2110 C   0  0  0  0  0  0  0  0  0  0  0  0
  159.9970  210.1810  153.1560 C   0  0  0  0  0  3  0  0  0  0  0  0
  160.7910  209.1000  152.7610 C   0  0  0  0  0  3  0  0  0  0  0  0
  159.9400  213.6740  150.8340 C   0  0  0  0  0  3  0  0  0  0  0  0
  161.5690  209.1710  151.5940 C   0  0  0  0  0  0  0  0  0  0  0  0
  160.7340  212.5920  150.4400 C   0  0  0  0  0  3  0  0  0  0  0  0
  159.9750  211.3450  152.3870 C   0  0  0  0  0  0  0  0  0  0  0  0
  161.5450  210.3410  150.8250 C   0  0  0  0  0  3  0  0  0  0  0  0
  159.1840  212.4310  152.7740 C   0  0  0  0  0  3  0  0  0  0  0  0
  1  6  1  0  0  0  0
  2 13  2  0  0  0  0
  2  5  1  0  0  0  0
  3  2  1  0  0  0  0
  4  7  1  0  0  0  0
  5 16  2  0  0  0  0
  6 17  2  0  0  0  0
  7  3  1  0  0  0  0
  8 21  1  0  0  0  0
  8 12  2  0  0  0  0
  9  1  1  0  0  0  0
 10 18  1  0  0  0  0
 11  4  2  0  0  0  0
 13  8  1  0  0  0  0
 14  5  1  0  0  0  0
 14  1  2  0  0  0  0
 15 11  1  0  0  0  0
 15 20  2  0  0  0  0
 16 12  1  0  0  0  0
 16 17  1  0  0  0  0
 18 13  1  0  0  0  0
 19 10  1  0  0  0  0
 19  3  2  0  0  0  0
 20 19  1  0  0  0  0
 21 27  1  0  0  0  0
 22 31  1  0  0  0  0
 23 29  1  0  0  0  0
 25 24  2  0  0  0  0
 26 22  2  0  0  0  0
 27 25  1  0  0  0  0
 28 26  1  0  0  0  0
 28 23  2  0  0  0  0
 29 31  2  0  0  0  0
 29 24  1  0  0  0  0
 30 23  1  0  0  0  0
 30 27  2  0  0  0  0
M  END
>  <MODEL>
5

>  <REMARK>
 VINA RESULT:     -10.0      1.986      8.824
  Name = 
  2 active torsions:
  status: ('A' for Active; 'I' for Inactive)
    1  A    between atoms: C_9  and  N_23
    2  A    between atoms: C_15  and  N_23
                            x       y       z     vdW  Elec       q    Type
                         _______ _______ _______ _____ _____    ______ ____

>  <TORSDO>
F 2

$$$$
=
 OpenBabel11052422323D

 31 36  0  0  0  0  0  0  0  0999 V2000
  159.3080  210.4410  156.2740 C   0  0  0  0  0  0  0  0  0  0  0  0
  160.5290  209.8430  152.7800 C   0  0  0  0  0  0  0  0  0  0  0  0
  160.1670  211.0850  152.0140 C   0  0  0  0  0  0  0  0  0  0  0  0
  159.2510  213.2740  152.7220 C   0  0  0  0  0  3  0  0  0  0  0  0
  160.2230  209.6560  154.1550 C   0  0  0  0  0  0  0  0  0  0  0  0
  159.6580  209.2360  156.8840 C   0  0  0  0  0  3  0  0  0  0  0  0
  158.9350  211.8570  152.3860 C   0  0  0  0  0  2  0  0  0  0  0  0
  161.5840  207.6230  152.7390 C   0  0  0  0  0  0  0  0  0  0  0  0
  158.6610  211.4590  157.0280 N   0  0  0  0  0  1  0  0  0  0  0  0
  161.9280  210.4790  150.3840 C   0  0  0  0  0  2  0  0  0  0  0  0
  159.7440  214.1270  151.8280 C   0  0  0  0  0  3  0  0  0  0  0  0
  161.2530  207.4490  154.0840 C   0  0  0  0  0  3  0  0  0  0  0  0
  161.2410  208.8260  152.0970 C   0  0  0  0  0  0  0  0  0  0  0  0
  159.5920  210.6490  154.9220 C   0  0  0  0  0  3  0  0  0  0  0  0
  160.1130  213.7670  150.4470 C   0  0  0  0  0  3  0  0  0  0  0  0
  160.5880  208.4450  154.7930 C   0  0  0  0  0  0  0  0  0  0  0  0
  160.2990  208.2410  156.1450 C   0  0  0  0  0  3  0  0  0  0  0  0
  161.5810  209.0190  150.6470 C   0  0  0  0  0  2  0  0  0  0  0  0
  160.8280  211.3800  150.8680 C   0  0  0  0  0  0  0  0  0  0  0  0
  160.5710  212.5780  150.0370 C   0  0  0  0  0  3  0  0  0  0  0  0
  162.2800  206.6030  152.0000 N   0  0  0  0  0  2  0  0  0  0  0  0
  160.3570  201.4680  148.6180 C   0  0  0  0  0  3  0  0  0  0  0  0
  161.3090  203.8980  149.6300 C   0  0  0  0  0  0  0  0  0  0  0  0
  160.8310  203.1330  151.8870 C   0  0  0  0  0  3  0  0  0  0  0  0
  161.3070  204.3480  152.3890 C   0  0  0  0  0  3  0  0  0  0  0  0
  160.8310  202.4540  147.7470 C   0  0  0  0  0  3  0  0  0  0  0  0
  161.7870  205.3430  151.5220 C   0  0  0  0  0  0  0  0  0  0  0  0
  161.3070  203.6690  148.2510 C   0  0  0  0  0  3  0  0  0  0  0  0
  160.8290  202.9020  150.5100 C   0  0  0  0  0  0  0  0  0  0  0  0
  161.7830  205.1090  150.1420 C   0  0  0  0  0  3  0  0  0  0  0  0
  160.3550  201.6910  149.9990 C   0  0  0  0  0  3  0  0  0  0  0  0
  1  6  1  0  0  0  0
  1  9  1  0  0  0  0
  2  5  1  0  0  0  0
  3  7  1  0  0  0  0
  3  2  1  0  0  0  0
  5 16  2  0  0  0  0
  5 14  1  0  0  0  0
  7  4  1  0  0  0  0
  8 12  2  0  0  0  0
 10 18  1  0  0  0  0
 10 19  1  0  0  0  0
 11  4  2  0  0  0  0
 12 16  1  0  0  0  0
 13  8  1  0  0  0  0
 13  2  2  0  0  0  0
 14  1  2  0  0  0  0
 15 11  1  0  0  0  0
 16 17  1  0  0  0  0
 17  6  2  0  0  0  0
 18 13  1  0  0  0  0
 19  3  2  0  0  0  0
 20 15  2  0  0  0  0
 20 19  1  0  0  0  0
 21  8  1  0  0  0  0
 22 31  1  0  0  0  0
 23 30  1  0  0  0  0
 23 29  1  0  0  0  0
 24 25  2  0  0  0  0
 26 28  1  0  0  0  0
 26 22  2  0  0  0  0
 27 21  1  0  0  0  0
 27 25  1  0  0  0  0
 28 23  2  0  0  0  0
 29 24  1  0  0  0  0
 30 27  2  0  0  0  0
 31 29  2  0  0  0  0
M  END
>  <MODEL>
6

>  <REMARK>
 VINA RESULT:     -10.0      2.149      4.414
  Name = 
  2 active torsions:
  status: ('A' for Active; 'I' for Inactive)
    1  A    between atoms: C_9  and  N_23
    2  A    between atoms: C_15  and  N_23
                            x       y       z     vdW  Elec       q    Type
                         _______ _______ _______ _____ _____    ______ ____

>  <TORSDO>
F 2

$$$$
=
 OpenBabel11052422323D

 31 36  0  0  0  0  0  0  0  0999 V2000
  160.8060  212.5960  150.2890 C   0  0  0  0  0  0  0  0  0  0  0  0
  161.6810  209.0780  151.2460 C   0  0  0  0  0  0  0  0  0  0  0  0
  161.3690  208.9760  152.7130 C   0  0  0  0  0  0  0  0  0  0  0  0
  160.2490  210.5200  154.2930 C   0  0  0  0  0  3  0  0  0  0  0  0
  161.5040  210.2690  150.4910 C   0  0  0  0  0  0  0  0  0  0  0  0
  161.1580  212.5960  148.9390 C   0  0  0  0  0  3  0  0  0  0  0  0
  161.5210  210.1810  153.5930 C   0  0  0  0  0  2  0  0  0  0  0  0
  162.4880  207.9430  149.2210 C   0  0  0  0  0  0  0  0  0  0  0  0
  160.2740  213.7720  150.8850 N   0  0  0  0  0  1  0  0  0  0  0  0
  161.2190  206.5240  152.4130 C   0  0  0  0  0  2  0  0  0  0  0  0
  159.6850  209.7080  155.1830 C   0  0  0  0  0  3  0  0  0  0  0  0
  162.3300  209.1300  148.5020 C   0  0  0  0  0  3  0  0  0  0  0  0
  162.1440  207.9150  150.5840 C   0  0  0  0  0  0  0  0  0  0  0  0
  160.9750  211.4400  151.0560 C   0  0  0  0  0  3  0  0  0  0  0  0
  160.1870  208.3640  155.5210 C   0  0  0  0  0  3  0  0  0  0  0  0
  161.8420  210.2790  149.1150 C   0  0  0  0  0  0  0  0  0  0  0  0
  161.6730  211.4390  148.3530 C   0  0  0  0  0  3  0  0  0  0  0  0
  162.3220  206.6470  151.3690 C   0  0  0  0  0  2  0  0  0  0  0  0
  161.1590  207.7570  153.2680 C   0  0  0  0  0  0  0  0  0  0  0  0
  160.8300  207.5300  154.6940 C   0  0  0  0  0  3  0  0  0  0  0  0
  162.9830  206.7470  148.5930 N   0  0  0  0  0  2  0  0  0  0  0  0
  160.2040  201.9950  145.2440 C   0  0  0  0  0  3  0  0  0  0  0  0
  161.4570  203.7080  147.0690 C   0  0  0  0  0  0  0  0  0  0  0  0
  161.3310  205.5120  145.4450 C   0  0  0  0  0  3  0  0  0  0  0  0
  161.9570  206.3650  146.3590 C   0  0  0  0  0  3  0  0  0  0  0  0
  160.5790  201.5240  146.5070 C   0  0  0  0  0  3  0  0  0  0  0  0
  162.3360  205.9020  147.6300 C   0  0  0  0  0  0  0  0  0  0  0  0
  161.2060  202.3790  147.4190 C   0  0  0  0  0  3  0  0  0  0  0  0
  161.0790  204.1840  145.7940 C   0  0  0  0  0  0  0  0  0  0  0  0
  162.0820  204.5690  147.9760 C   0  0  0  0  0  3  0  0  0  0  0  0
  160.4540  203.3240  144.8870 C   0  0  0  0  0  3  0  0  0  0  0  0
  1  9  1  0  0  0  0
  1 14  1  0  0  0  0
  2  3  1  0  0  0  0
  3 19  2  0  0  0  0
  3  7  1  0  0  0  0
  4 11  2  0  0  0  0
  5 14  2  0  0  0  0
  5  2  1  0  0  0  0
  6  1  2  0  0  0  0
  7  4  1  0  0  0  0
  8 13  1  0  0  0  0
 10 19  1  0  0  0  0
 11 15  1  0  0  0  0
 12 16  1  0  0  0  0
 12  8  2  0  0  0  0
 13  2  2  0  0  0  0
 13 18  1  0  0  0  0
 16  5  1  0  0  0  0
 17  6  1  0  0  0  0
 17 16  2  0  0  0  0
 18 10  1  0  0  0  0
 19 20  1  0  0  0  0
 20 15  2  0  0  0  0
 21  8  1  0  0  0  0
 22 26  1  0  0  0  0
 23 28  1  0  0  0  0
 23 30  1  0  0  0  0
 24 29  1  0  0  0  0
 24 25  2  0  0  0  0
 25 27  1  0  0  0  0
 26 28  2  0  0  0  0
 27 30  2  0  0  0  0
 27 21  1  0  0  0  0
 29 23  2  0  0  0  0
 31 22  2  0  0  0  0
 31 29  1  0  0  0  0
M  END
>  <MODEL>
7

>  <REMARK>
 VINA RESULT:      -9.4      1.520      2.714
  Name = 
  2 active torsions:
  status: ('A' for Active; 'I' for Inactive)
    1  A    between atoms: C_9  and  N_23
    2  A    between atoms: C_15  and  N_23
                            x       y       z     vdW  Elec       q    Type
                         _______ _______ _______ _____ _____    ______ ____

>  <TORSDO>
F 2

$$$$
=
 OpenBabel11052422323D

 31 36  0  0  0  0  0  0  0  0999 V2000
  161.3800  203.8730  145.9900 C   0  0  0  0  0  0  0  0  0  0  0  0
  161.3160  205.8280  149.1880 C   0  0  0  0  0  0  0  0  0  0  0  0
  161.0050  204.8230  150.2620 C   0  0  0  0  0  0  0  0  0  0  0  0
  160.8320  202.3530  150.2370 C   0  0  0  0  0  3  0  0  0  0  0  0
  161.4150  205.4940  147.8100 C   0  0  0  0  0  0  0  0  0  0  0  0
  161.6400  204.8870  145.0670 C   0  0  0  0  0  3  0  0  0  0  0  0
  160.1380  203.6400  149.9470 C   0  0  0  0  0  2  0  0  0  0  0  0
  161.8170  208.1690  148.6290 C   0  0  0  0  0  0  0  0  0  0  0  0
  161.2250  202.5300  145.5470 N   0  0  0  0  0  1  0  0  0  0  0  0
  162.0120  206.3930  151.8890 C   0  0  0  0  0  2  0  0  0  0  0  0
  161.1940  201.9980  151.4670 C   0  0  0  0  0  3  0  0  0  0  0  0
  161.8850  207.8240  147.2780 C   0  0  0  0  0  3  0  0  0  0  0  0
  161.5530  207.1680  149.5820 C   0  0  0  0  0  0  0  0  0  0  0  0
  161.2730  204.1750  147.3500 C   0  0  0  0  0  3  0  0  0  0  0  0
  161.0370  202.8480  152.6600 C   0  0  0  0  0  3  0  0  0  0  0  0
  161.6950  206.5100  146.8640 C   0  0  0  0  0  0  0  0  0  0  0  0
  161.7990  206.2020  145.5040 C   0  0  0  0  0  3  0  0  0  0  0  0
  161.4640  207.5310  151.0360 C   0  0  0  0  0  2  0  0  0  0  0  0
  161.3290  205.1000  151.5490 C   0  0  0  0  0  0  0  0  0  0  0  0
  161.0870  204.1860  152.6890 C   0  0  0  0  0  3  0  0  0  0  0  0
  162.0220  209.5240  149.0690 N   0  0  0  0  0  2  0  0  0  0  0  0
  160.5220  214.4530  145.1990 C   0  0  0  0  0  3  0  0  0  0  0  0
  160.7280  212.1130  146.7220 C   0  0  0  0  0  0  0  0  0  0  0  0
  162.8640  212.8810  147.5930 C   0  0  0  0  0  3  0  0  0  0  0  0
  162.9640  211.7120  148.3520 C   0  0  0  0  0  3  0  0  0  0  0  0
  159.5110  213.4870  145.1440 C   0  0  0  0  0  3  0  0  0  0  0  0
  161.9530  210.7380  148.3060 C   0  0  0  0  0  0  0  0  0  0  0  0
  159.6130  212.3180  145.9050 C   0  0  0  0  0  3  0  0  0  0  0  0
  161.7500  213.0870  146.7760 C   0  0  0  0  0  0  0  0  0  0  0  0
  160.8370  210.9470  147.4850 C   0  0  0  0  0  3  0  0  0  0  0  0
  161.6410  214.2530  146.0130 C   0  0  0  0  0  3  0  0  0  0  0  0
  1 14  1  0  0  0  0
  2 13  2  0  0  0  0
  2  3  1  0  0  0  0
  3 19  2  0  0  0  0
  4 11  2  0  0  0  0
  5  2  1  0  0  0  0
  6 17  1  0  0  0  0
  6  1  2  0  0  0  0
  7  4  1  0  0  0  0
  7  3  1  0  0  0  0
  8 21  1  0  0  0  0
  8 13  1  0  0  0  0
  9  1  1  0  0  0  0
 11 15  1  0  0  0  0
 12  8  2  0  0  0  0
 13 18  1  0  0  0  0
 14  5  2  0  0  0  0
 15 20  2  0  0  0  0
 16 12  1  0  0  0  0
 16  5  1  0  0  0  0
 17 16  2  0  0  0  0
 18 10  1  0  0  0  0
 19 10  1  0  0  0  0
 19 20  1  0  0  0  0
 22 31  1  0  0  0  0
 23 29  1  0  0  0  0
 23 30  1  0  0  0  0
 24 25  2  0  0  0  0
 26 22  2  0  0  0  0
 26 28  1  0  0  0  0
 27 25  1  0  0  0  0
 27 21  1  0  0  0  0
 28 23  2  0  0  0  0
 29 24  1  0  0  0  0
 30 27  2  0  0  0  0
 31 29  2  0  0  0  0
M  END
>  <MODEL>
8

>  <REMARK>
 VINA RESULT:      -9.2      2.949      7.948
  Name = 
  2 active torsions:
  status: ('A' for Active; 'I' for Inactive)
    1  A    between atoms: C_9  and  N_23
    2  A    between atoms: C_15  and  N_23
                            x       y       z     vdW  Elec       q    Type
                         _______ _______ _______ _____ _____    ______ ____

>  <TORSDO>
F 2

$$$$
=
 OpenBabel11052422323D

 31 36  0  0  0  0  0  0  0  0999 V2000
  160.5540  213.0050  150.6520 C   0  0  0  0  0  0  0  0  0  0  0  0
  160.8600  210.0670  152.9610 C   0  0  0  0  0  0  0  0  0  0  0  0
  160.3080  210.5370  154.2780 C   0  0  0  0  0  0  0  0  0  0  0  0
  159.1330  212.6110  154.9500 C   0  0  0  0  0  3  0  0  0  0  0  0
  160.9420  210.8940  151.8080 C   0  0  0  0  0  0  0  0  0  0  0  0
  161.1150  212.4820  149.4860 C   0  0  0  0  0  3  0  0  0  0  0  0
  160.4540  211.9760  154.6760 C   0  0  0  0  0  2  0  0  0  0  0  0
  161.8450  208.2190  151.6730 C   0  0  0  0  0  0  0  0  0  0  0  0
  160.0710  214.3430  150.6720 N   0  0  0  0  0  1  0  0  0  0  0  0
  159.9300  208.1610  154.8590 C   0  0  0  0  0  2  0  0  0  0  0  0
  158.3460  212.2190  155.9490 C   0  0  0  0  0  3  0  0  0  0  0  0
  161.9400  209.0560  150.5590 C   0  0  0  0  0  3  0  0  0  0  0  0
  161.2870  208.7200  152.8630 C   0  0  0  0  0  0  0  0  0  0  0  0
  160.4660  212.2150  151.8010 C   0  0  0  0  0  3  0  0  0  0  0  0
  158.6320  211.0780  156.8370 C   0  0  0  0  0  3  0  0  0  0  0  0
  161.4930  210.3720  150.6120 C   0  0  0  0  0  0  0  0  0  0  0  0
  161.5820  211.1680  149.4660 C   0  0  0  0  0  3  0  0  0  0  0  0
  161.1930  207.8320  154.0710 C   0  0  0  0  0  2  0  0  0  0  0  0
  159.8750  209.6260  155.1840 C   0  0  0  0  0  0  0  0  0  0  0  0
  159.3000  209.9670  156.5060 C   0  0  0  0  0  3  0  0  0  0  0  0
  162.2950  206.8530  151.6250 N   0  0  0  0  0  2  0  0  0  0  0  0
  160.5270  201.3320  148.8120 C   0  0  0  0  0  3  0  0  0  0  0  0
  161.3370  203.4470  150.4590 C   0  0  0  0  0  0  0  0  0  0  0  0
  161.1950  204.9620  148.5640 C   0  0  0  0  0  3  0  0  0  0  0  0
  161.6000  206.0160  149.3890 C   0  0  0  0  0  3  0  0  0  0  0  0
  160.8000  201.1050  150.1650 C   0  0  0  0  0  3  0  0  0  0  0  0
  161.8740  205.7970  150.7490 C   0  0  0  0  0  0  0  0  0  0  0  0
  161.2050  202.1600  150.9890 C   0  0  0  0  0  3  0  0  0  0  0  0
  161.0620  203.6770  149.0920 C   0  0  0  0  0  0  0  0  0  0  0  0
  161.7410  204.5070  151.2750 C   0  0  0  0  0  3  0  0  0  0  0  0
  160.6580  202.6170  148.2750 C   0  0  0  0  0  3  0  0  0  0  0  0
  1  9  1  0  0  0  0
  1 14  1  0  0  0  0
  2  3  1  0  0  0  0
  3  7  1  0  0  0  0
  3 19  2  0  0  0  0
  4 11  2  0  0  0  0
  5  2  1  0  0  0  0
  6  1  2  0  0  0  0
  7  4  1  0  0  0  0
  8 13  1  0  0  0  0
 10 19  1  0  0  0  0
 11 15  1  0  0  0  0
 12 16  1  0  0  0  0
 12  8  2  0  0  0  0
 13  2  2  0  0  0  0
 13 18  1  0  0  0  0
 14  5  2  0  0  0  0
 16  5  1  0  0  0  0
 17  6  1  0  0  0  0
 17 16  2  0  0  0  0
 18 10  1  0  0  0  0
 19 20  1  0  0  0  0
 20 15  2  0  0  0  0
 21  8  1  0  0  0  0
 22 26  1  0  0  0  0
 23 28  1  0  0  0  0
 23 30  1  0  0  0  0
 24 29  1  0  0  0  0
 24 25  2  0  0  0  0
 25 27  1  0  0  0  0
 26 28  2  0  0  0  0
 27 30  2  0  0  0  0
 27 21  1  0  0  0  0
 29 23  2  0  0  0  0
 31 22  2  0  0  0  0
 31 29  1  0  0  0  0
M  END
>  <MODEL>
9

>  <REMARK>
 VINA RESULT:      -9.1      1.382      2.559
  Name = 
  2 active torsions:
  status: ('A' for Active; 'I' for Inactive)
    1  A    between atoms: C_9  and  N_23
    2  A    between atoms: C_15  and  N_23
                            x       y       z     vdW  Elec       q    Type
                         _______ _______ _______ _____ _____    ______ ____

>  <TORSDO>
F 2

$$$$
