=
 OpenBabel11062410023D

 43 48  0  0  1  0  0  0  0  0999 V2000
  158.4190  214.4530  142.8580 C   0  0  0  0  0  2  0  0  0  0  0  0
  158.7770  213.8480  148.0200 C   0  0  0  0  0  0  0  0  0  0  0  0
  161.5170  213.7550  148.8840 C   0  0  1  0  0  3  0  0  0  0  0  0
  158.1020  213.8890  145.2820 C   0  0  0  0  0  0  0  0  0  0  0  0
  160.5100  213.1910  143.6150 C   0  0  0  0  0  2  0  0  0  0  0  0
  159.5830  213.5490  142.4540 C   0  0  0  0  0  2  0  0  0  0  0  0
  159.4520  214.0850  145.6790 C   0  0  0  0  0  0  0  0  0  0  0  0
  157.6760  213.9040  143.9430 O   0  0  0  0  0  0  0  0  0  0  0  0
  160.5510  214.2880  144.6710 C   0  0  0  0  0  2  0  0  0  0  0  0
  161.2080  214.3180  147.4940 C   0  0  0  0  0  2  0  0  0  0  0  0
  159.7830  214.0630  147.0520 C   0  0  0  0  0  0  0  0  0  0  0  0
  157.4590  213.6310  147.6060 C   0  0  0  0  0  3  0  0  0  0  0  0
  159.1160  213.8050  149.4180 N   0  0  0  0  0  0  0  0  0  0  0  0
  160.4420  214.2360  149.8580 C   0  0  0  0  0  2  0  0  0  0  0  0
  157.1280  213.6520  146.2540 C   0  0  0  0  0  3  0  0  0  0  0  0
  161.6630  212.2220  148.8610 C   0  0  1  0  0  3  0  0  0  0  0  0
  162.7640  211.7960  147.9030 C   0  0  0  0  0  1  0  0  0  0  0  0
  161.9040  211.6070  150.2440 C   0  0  0  0  0  2  0  0  0  0  0  0
  161.5450  210.1290  150.2940 C   0  0  0  0  0  2  0  0  0  0  0  0
  162.2970  209.4800  151.4370 C   0  0  0  0  0  2  0  0  0  0  0  0
  162.4370  207.9960  151.1770 C   0  0  0  0  0  2  0  0  0  0  0  0
  161.0790  207.3180  151.3250 C   0  0  1  0  0  3  0  0  0  0  0  0
  161.4670  204.5640  151.9400 C   0  0  0  0  0  2  0  0  0  0  0  0
  160.8250  206.2690  150.2260 C   0  0  2  0  0  3  0  0  0  0  0  0
  160.9830  206.6390  152.6950 C   0  0  0  0  0  2  0  0  0  0  0  0
  161.6310  204.9870  150.4780 C   0  0  2  0  0  3  0  0  0  0  0  0
  161.1020  206.7880  148.9580 O   0  0  0  0  0  1  0  0  0  0  0  0
  161.9150  205.5880  152.7930 O   0  0  0  0  0  0  0  0  0  0  0  0
  161.2040  203.8800  149.5600 C   0  0  0  0  0  0  0  0  0  0  0  0
  161.2090  202.8920  147.2620 C   0  0  0  0  0  2  0  0  0  0  0  0
  159.9760  201.7140  149.0550 C   0  0  0  0  0  2  0  0  0  0  0  0
  160.9840  201.5400  147.9300 C   0  0  0  0  0  2  0  0  0  0  0  0
  160.5530  202.6360  150.1310 C   0  0  0  0  0  2  0  0  0  0  0  0
  161.5720  203.9510  148.2700 C   0  0  0  0  0  3  0  0  0  0  0  0
  158.2120  213.1820  150.3870 C   0  0  0  0  0  2  0  0  0  0  0  0
  159.4140  211.7560  153.8060 C   0  0  0  0  0  2  0  0  0  0  0  0
  159.1360  213.0230  154.6360 C   0  0  1  0  0  3  0  0  0  0  0  0
  158.1320  214.2470  152.6820 C   0  0  0  0  0  2  0  0  0  0  0  0
  158.7430  211.7690  152.4280 C   0  0  0  0  0  2  0  0  0  0  0  0
  158.7870  213.1670  151.8040 C   0  0  1  0  0  3  0  0  0  0  0  0
  157.9250  213.8110  154.1340 C   0  0  0  0  0  2  0  0  0  0  0  0
  159.0270  212.7090  156.1250 C   0  0  0  0  0  2  0  0  0  0  0  0
  157.9240  211.7060  156.4280 C   0  0  0  0  0  1  0  0  0  0  0  0
  1  8  1  0  0  0  0
  2 13  1  0  0  0  0
  3 16  1  6  0  0  0
  3 14  1  0  0  0  0
  4  7  2  0  0  0  0
  4 15  1  0  0  0  0
  5  9  1  0  0  0  0
  6  1  1  0  0  0  0
  6  5  1  0  0  0  0
  7 11  1  0  0  0  0
  8  4  1  0  0  0  0
  9  7  1  0  0  0  0
 10  3  1  0  0  0  0
 11 10  1  0  0  0  0
 11  2  2  0  0  0  0
 12  2  1  0  0  0  0
 13 14  1  0  0  0  0
 13 35  1  0  0  0  0
 15 12  2  0  0  0  0
 16 17  1  6  0  0  0
 16 18  1  0  0  0  0
 18 19  1  0  0  0  0
 19 20  1  0  0  0  0
 21 20  1  0  0  0  0
 22 21  1  6  0  0  0
 22 25  1  0  0  0  0
 23 28  1  0  0  0  0
 24 27  1  6  0  0  0
 24 26  1  0  0  0  0
 24 22  1  0  0  0  0
 25 28  1  0  0  0  0
 26 29  1  6  0  0  0
 26 23  1  0  0  0  0
 29 33  1  0  0  0  0
 30 32  1  0  0  0  0
 30 34  1  0  0  0  0
 31 33  1  0  0  0  0
 32 31  1  0  0  0  0
 34 29  2  0  0  0  0
 36 37  1  0  0  0  0
 37 42  1  1  0  0  0
 38 41  1  0  0  0  0
 39 36  1  0  0  0  0
 40 35  1  6  0  0  0
 40 39  1  0  0  0  0
 40 38  1  0  0  0  0
 41 37  1  0  0  0  0
 42 43  1  0  0  0  0
M  END
>  <MODEL>
1

>  <REMARK>
 VINA RESULT:      -7.8      0.000      0.000
  Name = 
  10 active torsions:
  status: ('A' for Active; 'I' for Inactive)
    1  A    between atoms: C_1  and  N_34
    2  A    between atoms: C_1  and  C_35
    3  A    between atoms: C_2  and  C_6
    4  A    between atoms: C_2  and  C_13
    5  A    between atoms: C_3  and  C_4
    6  A    between atoms: C_3  and  C_12
    7  A    between atoms: C_6  and  C_17
    8  A    between atoms: C_11  and  C_22
    9  A    between atoms: C_12  and  C_17
   10  A    between atoms: C_19  and  C_25
                            x       y       z     vdW  Elec       q    Type
                         _______ _______ _______ _____ _____    ______ ____

>  <TORSDO>
F 10

$$$$
=
 OpenBabel11062410023D

 43 48  0  0  1  0  0  0  0  0999 V2000
  159.1550  213.7510  143.6970 C   0  0  0  0  0  2  0  0  0  0  0  0
  158.3660  213.7030  148.8460 C   0  0  0  0  0  0  0  0  0  0  0  0
  160.8410  213.4790  150.2900 C   0  0  1  0  0  3  0  0  0  0  0  0
  158.2830  213.4920  146.0350 C   0  0  0  0  0  0  0  0  0  0  0  0
  160.8980  212.4120  145.0030 C   0  0  0  0  0  2  0  0  0  0  0  0
  160.2750  212.7140  143.6400 C   0  0  0  0  0  2  0  0  0  0  0  0
  159.5340  213.6180  146.6970 C   0  0  0  0  0  0  0  0  0  0  0  0
  158.1490  213.3910  144.6400 O   0  0  0  0  0  0  0  0  0  0  0  0
  160.8330  213.6130  145.9380 C   0  0  0  0  0  2  0  0  0  0  0  0
  160.8900  213.9050  148.8200 C   0  0  0  0  0  2  0  0  0  0  0  0
  159.5690  213.7230  148.1040 C   0  0  0  0  0  0  0  0  0  0  0  0
  157.1480  213.5520  148.1770 C   0  0  0  0  0  3  0  0  0  0  0  0
  158.4020  213.7880  150.2830 N   0  0  0  0  0  0  0  0  0  0  0  0
  159.6450  214.1540  150.9590 C   0  0  0  0  0  2  0  0  0  0  0  0
  157.1090  213.4470  146.7900 C   0  0  0  0  0  3  0  0  0  0  0  0
  160.8270  211.9460  150.4410 C   0  0  1  0  0  3  0  0  0  0  0  0
  161.9310  211.3090  149.6130 C   0  0  0  0  0  1  0  0  0  0  0  0
  160.9200  211.4710  151.8950 C   0  0  0  0  0  2  0  0  0  0  0  0
  160.3430  210.0760  152.0890 C   0  0  0  0  0  2  0  0  0  0  0  0
  161.4800  209.1010  152.3100 C   0  0  0  0  0  2  0  0  0  0  0  0
  161.0540  207.7140  151.8780 C   0  0  0  0  0  2  0  0  0  0  0  0
  162.1800  207.0540  151.0890 C   0  0  1  0  0  3  0  0  0  0  0  0
  161.1850  206.2150  148.5550 C   0  0  0  0  0  2  0  0  0  0  0  0
  161.9270  205.5540  150.8510 C   0  0  2  0  0  3  0  0  0  0  0  0
  162.3470  207.7530  149.7360 C   0  0  0  0  0  2  0  0  0  0  0  0
  160.8670  205.3300  149.7630 C   0  0  2  0  0  3  0  0  0  0  0  0
  161.5650  204.9080  152.0360 O   0  0  0  0  0  1  0  0  0  0  0  0
  161.2020  207.5690  148.9390 O   0  0  0  0  0  0  0  0  0  0  0  0
  160.7960  203.8890  149.3530 C   0  0  0  0  0  0  0  0  0  0  0  0
  161.1890  202.1470  147.6010 C   0  0  0  0  0  2  0  0  0  0  0  0
  160.2020  201.4530  149.7630 C   0  0  0  0  0  2  0  0  0  0  0  0
  161.2830  201.1380  148.7400 C   0  0  0  0  0  2  0  0  0  0  0  0
  160.4570  202.8280  150.3820 C   0  0  0  0  0  2  0  0  0  0  0  0
  161.2060  203.5620  148.1160 C   0  0  0  0  0  3  0  0  0  0  0  0
  157.2550  213.3560  151.0850 C   0  0  0  0  0  2  0  0  0  0  0  0
  158.0710  212.6010  154.8170 C   0  0  0  0  0  2  0  0  0  0  0  0
  157.1730  213.6960  155.4210 C   0  0  1  0  0  3  0  0  0  0  0  0
  156.2720  214.3860  153.1780 C   0  0  0  0  0  2  0  0  0  0  0  0
  157.7750  212.3150  153.3410 C   0  0  0  0  0  2  0  0  0  0  0  0
  157.4550  213.6050  152.5800 C   0  0  1  0  0  3  0  0  0  0  0  0
  155.9090  213.9520  154.6000 C   0  0  0  0  0  2  0  0  0  0  0  0
  156.8460  213.4120  156.8850 C   0  0  0  0  0  2  0  0  0  0  0  0
  155.7450  212.3740  157.0440 C   0  0  0  0  0  1  0  0  0  0  0  0
  1  8  1  0  0  0  0
  2 13  1  0  0  0  0
  3 16  1  6  0  0  0
  3 14  1  0  0  0  0
  4  7  2  0  0  0  0
  4 15  1  0  0  0  0
  5  9  1  0  0  0  0
  6  1  1  0  0  0  0
  6  5  1  0  0  0  0
  7 11  1  0  0  0  0
  8  4  1  0  0  0  0
  9  7  1  0  0  0  0
 10  3  1  0  0  0  0
 11 10  1  0  0  0  0
 11  2  2  0  0  0  0
 12  2  1  0  0  0  0
 13 14  1  0  0  0  0
 13 35  1  0  0  0  0
 15 12  2  0  0  0  0
 16 17  1  6  0  0  0
 16 18  1  0  0  0  0
 18 19  1  0  0  0  0
 19 20  1  0  0  0  0
 21 20  1  0  0  0  0
 22 21  1  6  0  0  0
 23 28  1  0  0  0  0
 23 26  1  0  0  0  0
 24 22  1  0  0  0  0
 24 27  1  1  0  0  0
 25 22  1  0  0  0  0
 26 29  1  6  0  0  0
 26 24  1  0  0  0  0
 28 25  1  0  0  0  0
 29 33  1  0  0  0  0
 30 34  1  0  0  0  0
 30 32  1  0  0  0  0
 31 33  1  0  0  0  0
 32 31  1  0  0  0  0
 34 29  2  0  0  0  0
 36 37  1  0  0  0  0
 37 42  1  1  0  0  0
 38 41  1  0  0  0  0
 39 36  1  0  0  0  0
 40 35  1  6  0  0  0
 40 38  1  0  0  0  0
 40 39  1  0  0  0  0
 41 37  1  0  0  0  0
 42 43  1  0  0  0  0
M  END
>  <MODEL>
2

>  <REMARK>
 VINA RESULT:      -7.3      1.237      1.819
  Name = 
  10 active torsions:
  status: ('A' for Active; 'I' for Inactive)
    1  A    between atoms: C_1  and  N_34
    2  A    between atoms: C_1  and  C_35
    3  A    between atoms: C_2  and  C_6
    4  A    between atoms: C_2  and  C_13
    5  A    between atoms: C_3  and  C_4
    6  A    between atoms: C_3  and  C_12
    7  A    between atoms: C_6  and  C_17
    8  A    between atoms: C_11  and  C_22
    9  A    between atoms: C_12  and  C_17
   10  A    between atoms: C_19  and  C_25
                            x       y       z     vdW  Elec       q    Type
                         _______ _______ _______ _____ _____    ______ ____

>  <TORSDO>
F 10

$$$$
=
 OpenBabel11062410023D

 43 48  0  0  1  0  0  0  0  0999 V2000
  160.6810  200.9280  148.5340 C   0  0  0  0  0  2  0  0  0  0  0  0
  161.0310  205.2420  151.4330 C   0  0  0  0  0  0  0  0  0  0  0  0
  160.7970  207.6140  149.8260 C   0  0  1  0  0  3  0  0  0  0  0  0
  161.1750  202.6820  150.2580 C   0  0  0  0  0  0  0  0  0  0  0  0
  161.6810  202.9310  147.3000 C   0  0  0  0  0  2  0  0  0  0  0  0
  161.4710  201.4170  147.3220 C   0  0  0  0  0  2  0  0  0  0  0  0
  160.8210  203.8050  149.4630 C   0  0  0  0  0  0  0  0  0  0  0  0
  161.2610  201.3720  149.7570 O   0  0  0  0  0  0  0  0  0  0  0  0
  160.5440  203.6740  147.9890 C   0  0  0  0  0  2  0  0  0  0  0  0
  160.3280  206.2820  149.2340 C   0  0  0  0  0  2  0  0  0  0  0  0
  160.7500  205.0840  150.0570 C   0  0  0  0  0  0  0  0  0  0  0  0
  161.4040  204.1280  152.1910 C   0  0  0  0  0  3  0  0  0  0  0  0
  160.9810  206.5490  152.0350 N   0  0  0  0  0  0  0  0  0  0  0  0
  160.3930  207.6670  151.2990 C   0  0  0  0  0  2  0  0  0  0  0  0
  161.4740  202.8660  151.6090 C   0  0  0  0  0  3  0  0  0  0  0  0
  162.3050  207.8370  149.6090 C   0  0  1  0  0  3  0  0  0  0  0  0
  162.7640  207.2100  148.3030 C   0  0  0  0  0  1  0  0  0  0  0  0
  162.7220  209.3110  149.6580 C   0  0  0  0  0  2  0  0  0  0  0  0
  161.9250  210.1730  148.6900 C   0  0  0  0  0  2  0  0  0  0  0  0
  162.2730  211.6280  148.9270 C   0  0  0  0  0  2  0  0  0  0  0  0
  162.9040  212.2110  147.6820 C   0  0  0  0  0  2  0  0  0  0  0  0
  162.2040  213.5150  147.3130 C   0  0  1  0  0  3  0  0  0  0  0  0
  159.5570  212.9400  146.4300 C   0  0  0  0  0  2  0  0  0  0  0  0
  161.8880  213.6040  145.8090 C   0  0  2  0  0  3  0  0  0  0  0  0
  160.9000  213.6460  148.1060 C   0  0  0  0  0  2  0  0  0  0  0  0
  160.6960  212.7130  145.4320 C   0  0  2  0  0  3  0  0  0  0  0  0
  163.0090  213.2860  145.0370 O   0  0  0  0  0  1  0  0  0  0  0  0
  159.9890  212.6380  147.7340 O   0  0  0  0  0  0  0  0  0  0  0  0
  160.2290  212.9830  144.0320 C   0  0  0  0  0  0  0  0  0  0  0  0
  160.0110  212.1980  141.6670 C   0  0  0  0  0  2  0  0  0  0  0  0
  159.1680  214.4510  142.2510 C   0  0  0  0  0  2  0  0  0  0  0  0
  158.8250  213.1470  141.5460 C   0  0  0  0  0  2  0  0  0  0  0  0
  159.3660  214.1960  143.7450 C   0  0  0  0  0  2  0  0  0  0  0  0
  160.4460  212.0400  143.1000 C   0  0  0  0  0  3  0  0  0  0  0  0
  161.6560  206.8100  153.3080 C   0  0  0  0  0  2  0  0  0  0  0  0
  160.5940  210.3470  154.5460 C   0  0  0  0  0  2  0  0  0  0  0  0
  160.3080  209.9460  156.0050 C   0  0  1  0  0  3  0  0  0  0  0  0
  161.0680  207.5770  155.6480 C   0  0  0  0  0  2  0  0  0  0  0  0
  161.3900  209.2920  153.7690 C   0  0  0  0  0  2  0  0  0  0  0  0
  160.9450  207.8760  154.1440 C   0  0  1  0  0  3  0  0  0  0  0  0
  161.2240  208.8320  156.5090 C   0  0  0  0  0  2  0  0  0  0  0  0
  160.3260  211.1560  156.9340 C   0  0  0  0  0  2  0  0  0  0  0  0
  160.0000  212.4530  156.2070 C   0  0  0  0  0  1  0  0  0  0  0  0
  1  8  1  0  0  0  0
  2 13  1  0  0  0  0
  2 12  1  0  0  0  0
  3 16  1  1  0  0  0
  3 14  1  0  0  0  0
  4 15  1  0  0  0  0
  5  6  1  0  0  0  0
  5  9  1  0  0  0  0
  6  1  1  0  0  0  0
  7 11  1  0  0  0  0
  7  4  2  0  0  0  0
  8  4  1  0  0  0  0
  9  7  1  0  0  0  0
 10  3  1  0  0  0  0
 10 11  1  0  0  0  0
 11  2  2  0  0  0  0
 13 35  1  0  0  0  0
 14 13  1  0  0  0  0
 15 12  2  0  0  0  0
 16 17  1  6  0  0  0
 16 18  1  0  0  0  0
 19 20  1  0  0  0  0
 19 18  1  0  0  0  0
 21 20  1  0  0  0  0
 22 21  1  6  0  0  0
 22 25  1  0  0  0  0
 23 28  1  0  0  0  0
 24 27  1  6  0  0  0
 24 22  1  0  0  0  0
 26 29  1  6  0  0  0
 26 24  1  0  0  0  0
 26 23  1  0  0  0  0
 28 25  1  0  0  0  0
 30 34  1  0  0  0  0
 31 33  1  0  0  0  0
 32 30  1  0  0  0  0
 32 31  1  0  0  0  0
 33 29  1  0  0  0  0
 34 29  2  0  0  0  0
 36 37  1  0  0  0  0
 37 41  1  0  0  0  0
 37 42  1  1  0  0  0
 38 41  1  0  0  0  0
 39 40  1  0  0  0  0
 39 36  1  0  0  0  0
 40 35  1  6  0  0  0
 40 38  1  0  0  0  0
 43 42  1  0  0  0  0
M  END
>  <MODEL>
3

>  <REMARK>
 VINA RESULT:      -6.8      2.547      9.112
  Name = 
  10 active torsions:
  status: ('A' for Active; 'I' for Inactive)
    1  A    between atoms: C_1  and  N_34
    2  A    between atoms: C_1  and  C_35
    3  A    between atoms: C_2  and  C_6
    4  A    between atoms: C_2  and  C_13
    5  A    between atoms: C_3  and  C_4
    6  A    between atoms: C_3  and  C_12
    7  A    between atoms: C_6  and  C_17
    8  A    between atoms: C_11  and  C_22
    9  A    between atoms: C_12  and  C_17
   10  A    between atoms: C_19  and  C_25
                            x       y       z     vdW  Elec       q    Type
                         _______ _______ _______ _____ _____    ______ ____

>  <TORSDO>
F 10

$$$$
=
 OpenBabel11062410023D

 43 48  0  0  1  0  0  0  0  0999 V2000
  161.8370  208.9590  157.2610 C   0  0  0  0  0  2  0  0  0  0  0  0
  161.3610  208.0450  152.1550 C   0  0  0  0  0  0  0  0  0  0  0  0
  162.3210  210.2590  150.5930 C   0  0  1  0  0  3  0  0  0  0  0  0
  161.1680  208.2050  154.9640 C   0  0  0  0  0  0  0  0  0  0  0  0
  161.4690  211.0640  155.8570 C   0  0  0  0  0  2  0  0  0  0  0  0
  161.4550  210.4380  157.2520 C   0  0  0  0  0  2  0  0  0  0  0  0
  161.8640  209.2140  154.2450 C   0  0  0  0  0  0  0  0  0  0  0  0
  161.0320  208.2010  156.3620 O   0  0  0  0  0  0  0  0  0  0  0  0
  162.4850  210.3940  154.9420 C   0  0  0  0  0  2  0  0  0  0  0  0
  162.7360  210.1690  152.0640 C   0  0  0  0  0  2  0  0  0  0  0  0
  161.9570  209.1280  152.8390 C   0  0  0  0  0  0  0  0  0  0  0  0
  160.6580  207.0770  152.8780 C   0  0  0  0  0  3  0  0  0  0  0  0
  161.4370  207.9670  150.7190 N   0  0  0  0  0  0  0  0  0  0  0  0
  162.3410  208.8550  149.9890 C   0  0  0  0  0  2  0  0  0  0  0  0
  160.5640  207.1580  154.2640 C   0  0  0  0  0  3  0  0  0  0  0  0
  160.9630  210.9660  150.4240 C   0  0  1  0  0  3  0  0  0  0  0  0
  160.4350  211.4540  151.7630 C   0  0  0  0  0  1  0  0  0  0  0  0
  160.9920  212.1210  149.4180 C   0  0  0  0  0  2  0  0  0  0  0  0
  161.8760  211.8250  148.2160 C   0  0  0  0  0  2  0  0  0  0  0  0
  162.3650  213.1330  147.6310 C   0  0  0  0  0  2  0  0  0  0  0  0
  162.6660  212.9530  146.1590 C   0  0  0  0  0  2  0  0  0  0  0  0
  161.7710  213.8740  145.3360 C   0  0  1  0  0  3  0  0  0  0  0  0
  160.0870  212.2960  143.6650 C   0  0  0  0  0  2  0  0  0  0  0  0
  162.0800  213.7980  143.8300 C   0  0  2  0  0  3  0  0  0  0  0  0
  160.3000  213.5070  145.5620 C   0  0  0  0  0  2  0  0  0  0  0  0
  161.5330  212.5050  143.2090 C   0  0  2  0  0  3  0  0  0  0  0  0
  163.4520  213.9220  143.5880 O   0  0  0  0  0  1  0  0  0  0  0  0
  160.0300  212.2160  145.0680 O   0  0  0  0  0  0  0  0  0  0  0  0
  161.6110  212.5390  141.7110 C   0  0  0  0  0  0  0  0  0  0  0  0
  161.1720  213.7710  139.5790 C   0  0  0  0  0  2  0  0  0  0  0  0
  162.1750  211.5110  139.4570 C   0  0  0  0  0  2  0  0  0  0  0  0
  162.2970  212.9450  138.9640 C   0  0  0  0  0  2  0  0  0  0  0  0
  162.3830  211.4630  140.9710 C   0  0  0  0  0  2  0  0  0  0  0  0
  161.1370  213.6240  141.0770 C   0  0  0  0  0  3  0  0  0  0  0  0
  160.5030  207.1270  149.9660 C   0  0  0  0  0  2  0  0  0  0  0  0
  161.5780  204.2120  147.6170 C   0  0  0  0  0  2  0  0  0  0  0  0
  161.5610  203.1050  148.6870 C   0  0  1  0  0  3  0  0  0  0  0  0
  160.7070  204.6550  150.4730 C   0  0  0  0  0  2  0  0  0  0  0  0
  160.8620  205.4950  148.0550 C   0  0  0  0  0  2  0  0  0  0  0  0
  161.1250  205.7980  149.5330 C   0  0  1  0  0  3  0  0  0  0  0  0
  160.4880  203.3220  149.7540 C   0  0  0  0  0  2  0  0  0  0  0  0
  161.4610  201.7180  148.0600 C   0  0  0  0  0  2  0  0  0  0  0  0
  160.5650  201.6990  146.8300 C   0  0  0  0  0  1  0  0  0  0  0  0
  2 11  2  0  0  0  0
  2 12  1  0  0  0  0
  3 16  1  1  0  0  0
  3 10  1  0  0  0  0
  4  8  1  0  0  0  0
  5  6  1  0  0  0  0
  6  1  1  0  0  0  0
  7  9  1  0  0  0  0
  7  4  2  0  0  0  0
  8  1  1  0  0  0  0
  9  5  1  0  0  0  0
 10 11  1  0  0  0  0
 11  7  1  0  0  0  0
 12 15  2  0  0  0  0
 13  2  1  0  0  0  0
 14  3  1  0  0  0  0
 14 13  1  0  0  0  0
 15  4  1  0  0  0  0
 16 17  1  1  0  0  0
 18 16  1  0  0  0  0
 19 18  1  0  0  0  0
 20 19  1  0  0  0  0
 21 20  1  0  0  0  0
 22 25  1  0  0  0  0
 22 21  1  1  0  0  0
 23 28  1  0  0  0  0
 24 27  1  1  0  0  0
 24 22  1  0  0  0  0
 26 29  1  6  0  0  0
 26 23  1  0  0  0  0
 26 24  1  0  0  0  0
 28 25  1  0  0  0  0
 30 34  1  0  0  0  0
 31 33  1  0  0  0  0
 32 31  1  0  0  0  0
 32 30  1  0  0  0  0
 33 29  1  0  0  0  0
 34 29  2  0  0  0  0
 35 13  1  0  0  0  0
 36 39  1  0  0  0  0
 36 37  1  0  0  0  0
 37 42  1  6  0  0  0
 37 41  1  0  0  0  0
 39 40  1  0  0  0  0
 40 35  1  1  0  0  0
 40 38  1  0  0  0  0
 41 38  1  0  0  0  0
 43 42  1  0  0  0  0
M  END
>  <MODEL>
4

>  <REMARK>
 VINA RESULT:      -6.3      2.605     10.272
  Name = 
  10 active torsions:
  status: ('A' for Active; 'I' for Inactive)
    1  A    between atoms: C_1  and  N_34
    2  A    between atoms: C_1  and  C_35
    3  A    between atoms: C_2  and  C_6
    4  A    between atoms: C_2  and  C_13
    5  A    between atoms: C_3  and  C_4
    6  A    between atoms: C_3  and  C_12
    7  A    between atoms: C_6  and  C_17
    8  A    between atoms: C_11  and  C_22
    9  A    between atoms: C_12  and  C_17
   10  A    between atoms: C_19  and  C_25
                            x       y       z     vdW  Elec       q    Type
                         _______ _______ _______ _____ _____    ______ ____

>  <TORSDO>
F 10

$$$$
=
 OpenBabel11062410023D

 43 48  0  0  1  0  0  0  0  0999 V2000
  160.8460  213.7590  147.4470 C   0  0  0  0  0  2  0  0  0  0  0  0
  160.5610  211.8280  152.2770 C   0  0  0  0  0  0  0  0  0  0  0  0
  162.1210  209.4300  152.5480 C   0  0  1  0  0  3  0  0  0  0  0  0
  160.1980  213.0670  149.7700 C   0  0  0  0  0  0  0  0  0  0  0  0
  161.0820  211.2160  147.5660 C   0  0  0  0  0  2  0  0  0  0  0  0
  160.8180  212.4360  146.6840 C   0  0  0  0  0  2  0  0  0  0  0  0
  161.1600  212.0320  149.9130 C   0  0  0  0  0  0  0  0  0  0  0  0
  159.9590  213.7440  148.5620 O   0  0  0  0  0  0  0  0  0  0  0  0
  161.9820  211.5510  148.7480 C   0  0  0  0  0  2  0  0  0  0  0  0
  162.3920  210.3450  151.3510 C   0  0  0  0  0  2  0  0  0  0  0  0
  161.3370  211.4160  151.1710 C   0  0  0  0  0  0  0  0  0  0  0  0
  159.6000  212.8300  152.1080 C   0  0  0  0  0  3  0  0  0  0  0  0
  160.7250  211.1860  153.5550 N   0  0  0  0  0  0  0  0  0  0  0  0
  161.8620  210.2950  153.7800 C   0  0  0  0  0  2  0  0  0  0  0  0
  159.4230  213.4400  150.8700 C   0  0  0  0  0  3  0  0  0  0  0  0
  160.9800  208.4360  152.2620 C   0  0  1  0  0  3  0  0  0  0  0  0
  161.1150  207.8410  150.8690 C   0  0  0  0  0  1  0  0  0  0  0  0
  160.8650  207.3160  153.3010 C   0  0  0  0  0  2  0  0  0  0  0  0
  161.9010  206.2220  153.0950 C   0  0  0  0  0  2  0  0  0  0  0  0
  161.1910  204.8900  152.9710 C   0  0  0  0  0  2  0  0  0  0  0  0
  161.6470  204.1830  151.7130 C   0  0  0  0  0  2  0  0  0  0  0  0
  160.4520  203.9410  150.7980 C   0  0  1  0  0  3  0  0  0  0  0  0
  161.1970  202.1130  148.7450 C   0  0  0  0  0  2  0  0  0  0  0  0
  160.6860  204.4780  149.3740 C   0  0  2  0  0  3  0  0  0  0  0  0
  160.1510  202.4400  150.7220 C   0  0  0  0  0  2  0  0  0  0  0  0
  161.6350  203.5710  148.5800 C   0  0  2  0  0  3  0  0  0  0  0  0
  161.1640  205.7920  149.4020 O   0  0  0  0  0  1  0  0  0  0  0  0
  161.2140  201.7530  150.1050 O   0  0  0  0  0  0  0  0  0  0  0  0
  161.6700  203.9470  147.1290 C   0  0  0  0  0  0  0  0  0  0  0  0
  160.8460  203.5500  144.8000 C   0  0  0  0  0  2  0  0  0  0  0  0
  162.5410  205.3150  145.1730 C   0  0  0  0  0  2  0  0  0  0  0  0
  161.2070  205.0020  144.5110 C   0  0  0  0  0  2  0  0  0  0  0  0
  162.4060  205.1990  146.6920 C   0  0  0  0  0  2  0  0  0  0  0  0
  160.8980  203.2530  146.2760 C   0  0  0  0  0  3  0  0  0  0  0  0
  159.6820  211.2830  154.5790 C   0  0  0  0  0  2  0  0  0  0  0  0
  157.2300  214.3070  154.6400 C   0  0  0  0  0  2  0  0  0  0  0  0
  156.0400  213.5850  153.9810 C   0  0  1  0  0  3  0  0  0  0  0  0
  157.2450  211.3800  153.9030 C   0  0  0  0  0  2  0  0  0  0  0  0
  158.3250  213.3550  155.1330 C   0  0  0  0  0  2  0  0  0  0  0  0
  158.5270  212.1920  154.1580 C   0  0  1  0  0  3  0  0  0  0  0  0
  155.9680  212.1010  154.3420 C   0  0  0  0  0  2  0  0  0  0  0  0
  154.7210  214.2990  154.2660 C   0  0  0  0  0  2  0  0  0  0  0  0
  154.4530  214.4520  155.7560 C   0  0  0  0  0  1  0  0  0  0  0  0
  1  8  1  0  0  0  0
  2 13  1  0  0  0  0
  3 16  1  6  0  0  0
  3 14  1  0  0  0  0
  4  7  2  0  0  0  0
  4 15  1  0  0  0  0
  5  9  1  0  0  0  0
  6  1  1  0  0  0  0
  6  5  1  0  0  0  0
  7 11  1  0  0  0  0
  8  4  1  0  0  0  0
  9  7  1  0  0  0  0
 10  3  1  0  0  0  0
 11 10  1  0  0  0  0
 11  2  2  0  0  0  0
 12  2  1  0  0  0  0
 13 14  1  0  0  0  0
 13 35  1  0  0  0  0
 15 12  2  0  0  0  0
 16 17  1  6  0  0  0
 16 18  1  0  0  0  0
 19 18  1  0  0  0  0
 20 19  1  0  0  0  0
 21 20  1  0  0  0  0
 22 21  1  1  0  0  0
 23 28  1  0  0  0  0
 24 27  1  1  0  0  0
 24 22  1  0  0  0  0
 25 22  1  0  0  0  0
 26 29  1  6  0  0  0
 26 23  1  0  0  0  0
 26 24  1  0  0  0  0
 28 25  1  0  0  0  0
 30 34  1  0  0  0  0
 31 33  1  0  0  0  0
 32 30  1  0  0  0  0
 32 31  1  0  0  0  0
 33 29  1  0  0  0  0
 34 29  2  0  0  0  0
 36 39  1  0  0  0  0
 37 42  1  1  0  0  0
 37 41  1  0  0  0  0
 37 36  1  0  0  0  0
 38 40  1  0  0  0  0
 38 41  1  0  0  0  0
 40 35  1  1  0  0  0
 40 39  1  0  0  0  0
 42 43  1  0  0  0  0
M  END
>  <MODEL>
5

>  <REMARK>
 VINA RESULT:      -6.1      2.266      4.447
  Name = 
  10 active torsions:
  status: ('A' for Active; 'I' for Inactive)
    1  A    between atoms: C_1  and  N_34
    2  A    between atoms: C_1  and  C_35
    3  A    between atoms: C_2  and  C_6
    4  A    between atoms: C_2  and  C_13
    5  A    between atoms: C_3  and  C_4
    6  A    between atoms: C_3  and  C_12
    7  A    between atoms: C_6  and  C_17
    8  A    between atoms: C_11  and  C_22
    9  A    between atoms: C_12  and  C_17
   10  A    between atoms: C_19  and  C_25
                            x       y       z     vdW  Elec       q    Type
                         _______ _______ _______ _____ _____    ______ ____

>  <TORSDO>
F 10

$$$$
=
 OpenBabel11062410023D

 43 48  0  0  1  0  0  0  0  0999 V2000
  158.6930  214.3240  144.5350 C   0  0  0  0  0  2  0  0  0  0  0  0
  158.2520  213.5840  149.6720 C   0  0  0  0  0  0  0  0  0  0  0  0
  160.8200  213.2170  150.9100 C   0  0  1  0  0  3  0  0  0  0  0  0
  157.9830  213.7430  146.8690 C   0  0  0  0  0  0  0  0  0  0  0  0
  160.5320  212.8570  145.5360 C   0  0  0  0  0  2  0  0  0  0  0  0
  159.8170  213.3240  144.2680 C   0  0  0  0  0  2  0  0  0  0  0  0
  159.2740  213.8040  147.4590 C   0  0  0  0  0  0  0  0  0  0  0  0
  157.7560  213.8240  145.4850 O   0  0  0  0  0  0  0  0  0  0  0  0
  160.5190  213.9230  146.6230 C   0  0  0  0  0  2  0  0  0  0  0  0
  160.7660  213.8340  149.5090 C   0  0  0  0  0  2  0  0  0  0  0  0
  159.4020  213.7230  148.8630 C   0  0  0  0  0  0  0  0  0  0  0  0
  156.9930  213.4990  149.0700 C   0  0  0  0  0  3  0  0  0  0  0  0
  158.3830  213.4800  151.1020 N   0  0  0  0  0  0  0  0  0  0  0  0
  159.6650  213.7770  151.7390 C   0  0  0  0  0  2  0  0  0  0  0  0
  156.8620  213.5780  147.6870 C   0  0  0  0  0  3  0  0  0  0  0  0
  160.8310  211.6780  150.8570 C   0  0  1  0  0  3  0  0  0  0  0  0
  161.7930  211.1780  149.7920 C   0  0  0  0  0  1  0  0  0  0  0  0
  161.1490  211.0190  152.2030 C   0  0  0  0  0  2  0  0  0  0  0  0
  160.3060  209.7780  152.4570 C   0  0  0  0  0  2  0  0  0  0  0  0
  161.1640  208.7320  153.1360 C   0  0  0  0  0  2  0  0  0  0  0  0
  160.8180  207.3600  152.5980 C   0  0  0  0  0  2  0  0  0  0  0  0
  162.0130  206.7890  151.8430 C   0  0  1  0  0  3  0  0  0  0  0  0
  161.3140  206.4450  149.1030 C   0  0  0  0  0  2  0  0  0  0  0  0
  161.7470  205.3660  151.3170 C   0  0  2  0  0  3  0  0  0  0  0  0
  162.3660  207.6990  150.6620 C   0  0  0  0  0  2  0  0  0  0  0  0
  160.8240  205.3840  150.0910 C   0  0  2  0  0  3  0  0  0  0  0  0
  161.2240  204.5460  152.3200 O   0  0  0  0  0  1  0  0  0  0  0  0
  161.3220  207.7110  149.7160 O   0  0  0  0  0  0  0  0  0  0  0  0
  160.7620  204.0390  149.4290 C   0  0  0  0  0  0  0  0  0  0  0  0
  161.3260  202.6020  147.4610 C   0  0  0  0  0  2  0  0  0  0  0  0
  160.0440  201.6040  149.3290 C   0  0  0  0  0  2  0  0  0  0  0  0
  161.2390  201.4100  148.4090 C   0  0  0  0  0  2  0  0  0  0  0  0
  160.2590  202.8380  150.2060 C   0  0  0  0  0  2  0  0  0  0  0  0
  161.3200  203.9060  148.2140 C   0  0  0  0  0  3  0  0  0  0  0  0
  157.2970  212.9250  151.9130 C   0  0  0  0  0  2  0  0  0  0  0  0
  159.1510  213.8030  155.2230 C   0  0  0  0  0  2  0  0  0  0  0  0
  158.7170  212.5520  156.0080 C   0  0  1  0  0  3  0  0  0  0  0  0
  157.5250  211.5570  154.0310 C   0  0  0  0  0  2  0  0  0  0  0  0
  158.9160  213.6880  153.7130 C   0  0  0  0  0  2  0  0  0  0  0  0
  157.6020  212.9630  153.4110 C   0  0  1  0  0  3  0  0  0  0  0  0
  158.5690  211.3140  155.1230 C   0  0  0  0  0  2  0  0  0  0  0  0
  159.6350  212.2880  157.1980 C   0  0  0  0  0  2  0  0  0  0  0  0
  160.5920  211.1310  156.9490 C   0  0  0  0  0  1  0  0  0  0  0  0
  1  8  1  0  0  0  0
  2 13  1  0  0  0  0
  3 16  1  6  0  0  0
  3 14  1  0  0  0  0
  4  7  2  0  0  0  0
  4 15  1  0  0  0  0
  5  9  1  0  0  0  0
  6  1  1  0  0  0  0
  6  5  1  0  0  0  0
  7 11  1  0  0  0  0
  8  4  1  0  0  0  0
  9  7  1  0  0  0  0
 10  3  1  0  0  0  0
 11 10  1  0  0  0  0
 11  2  2  0  0  0  0
 12  2  1  0  0  0  0
 13 14  1  0  0  0  0
 13 35  1  0  0  0  0
 15 12  2  0  0  0  0
 16 17  1  6  0  0  0
 16 18  1  0  0  0  0
 18 19  1  0  0  0  0
 19 20  1  0  0  0  0
 21 20  1  0  0  0  0
 22 21  1  6  0  0  0
 23 28  1  0  0  0  0
 23 26  1  0  0  0  0
 24 22  1  0  0  0  0
 24 27  1  1  0  0  0
 25 22  1  0  0  0  0
 26 29  1  6  0  0  0
 26 24  1  0  0  0  0
 28 25  1  0  0  0  0
 29 33  1  0  0  0  0
 30 34  1  0  0  0  0
 30 32  1  0  0  0  0
 31 33  1  0  0  0  0
 32 31  1  0  0  0  0
 34 29  2  0  0  0  0
 36 37  1  0  0  0  0
 37 42  1  1  0  0  0
 38 41  1  0  0  0  0
 39 36  1  0  0  0  0
 40 35  1  6  0  0  0
 40 39  1  0  0  0  0
 40 38  1  0  0  0  0
 41 37  1  0  0  0  0
 43 42  1  0  0  0  0
M  END
>  <MODEL>
6

>  <REMARK>
 VINA RESULT:      -6.1      1.237      2.072
  Name = 
  10 active torsions:
  status: ('A' for Active; 'I' for Inactive)
    1  A    between atoms: C_1  and  N_34
    2  A    between atoms: C_1  and  C_35
    3  A    between atoms: C_2  and  C_6
    4  A    between atoms: C_2  and  C_13
    5  A    between atoms: C_3  and  C_4
    6  A    between atoms: C_3  and  C_12
    7  A    between atoms: C_6  and  C_17
    8  A    between atoms: C_11  and  C_22
    9  A    between atoms: C_12  and  C_17
   10  A    between atoms: C_19  and  C_25
                            x       y       z     vdW  Elec       q    Type
                         _______ _______ _______ _____ _____    ______ ____

>  <TORSDO>
F 10

$$$$
=
 OpenBabel11062410023D

 43 48  0  0  1  0  0  0  0  0999 V2000
  156.9210  214.3960  152.3290 C   0  0  0  0  0  2  0  0  0  0  0  0
  160.3550  210.5310  152.9650 C   0  0  0  0  0  0  0  0  0  0  0  0
  162.3760  210.5680  150.9210 C   0  0  1  0  0  3  0  0  0  0  0  0
  158.1350  212.2680  152.8660 C   0  0  0  0  0  0  0  0  0  0  0  0
  157.9460  213.5460  150.1470 C   0  0  0  0  0  2  0  0  0  0  0  0
  156.8260  214.3520  150.8050 C   0  0  0  0  0  2  0  0  0  0  0  0
  159.2300  212.4700  151.9830 C   0  0  0  0  0  0  0  0  0  0  0  0
  156.9950  213.0890  152.8910 O   0  0  0  0  0  0  0  0  0  0  0  0
  159.2290  213.5790  150.9650 C   0  0  0  0  0  2  0  0  0  0  0  0
  161.5330  211.8280  151.1370 C   0  0  0  0  0  2  0  0  0  0  0  0
  160.3380  211.5970  152.0380 C   0  0  0  0  0  0  0  0  0  0  0  0
  159.2560  210.3330  153.8060 C   0  0  0  0  0  3  0  0  0  0  0  0
  161.4750  209.6270  153.0070 N   0  0  0  0  0  0  0  0  0  0  0  0
  162.7020  209.9550  152.2820 C   0  0  0  0  0  2  0  0  0  0  0  0
  158.1610  211.1910  153.7550 C   0  0  0  0  0  3  0  0  0  0  0  0
  161.6870  209.5760  149.9650 C   0  0  1  0  0  3  0  0  0  0  0  0
  161.4350  210.2150  148.6090 C   0  0  0  0  0  1  0  0  0  0  0  0
  162.4510  208.2600  149.7910 C   0  0  0  0  0  2  0  0  0  0  0  0
  162.6200  207.8740  148.3290 C   0  0  0  0  0  2  0  0  0  0  0  0
  161.8600  206.5890  148.0700 C   0  0  0  0  0  2  0  0  0  0  0  0
  161.2950  206.6050  146.6660 C   0  0  0  0  0  2  0  0  0  0  0  0
  162.1190  205.6860  145.7700 C   0  0  1  0  0  3  0  0  0  0  0  0
  160.3880  203.8080  144.5090 C   0  0  0  0  0  2  0  0  0  0  0  0
  162.1170  204.2290  146.2670 C   0  0  2  0  0  3  0  0  0  0  0  0
  161.5710  205.7270  144.3400 C   0  0  0  0  0  2  0  0  0  0  0  0
  160.7820  203.5340  145.9630 C   0  0  2  0  0  3  0  0  0  0  0  0
  162.4120  204.1590  147.6310 O   0  0  0  0  0  1  0  0  0  0  0  0
  160.2690  205.1930  144.2930 O   0  0  0  0  0  0  0  0  0  0  0  0
  160.8600  202.0580  146.2160 C   0  0  0  0  0  0  0  0  0  0  0  0
  160.4970  199.7280  145.3820 C   0  0  0  0  0  2  0  0  0  0  0  0
  161.3570  200.0420  147.6810 C   0  0  0  0  0  2  0  0  0  0  0  0
  161.5670  199.2910  146.3750 C   0  0  0  0  0  2  0  0  0  0  0  0
  161.5640  201.5410  147.4560 C   0  0  0  0  0  2  0  0  0  0  0  0
  160.4540  201.2260  145.2420 C   0  0  0  0  0  3  0  0  0  0  0  0
  161.3470  208.3080  153.6310 C   0  0  0  0  0  2  0  0  0  0  0  0
  160.5050  205.9600  150.6400 C   0  0  0  0  0  2  0  0  0  0  0  0
  161.2430  204.7190  151.1740 C   0  0  1  0  0  3  0  0  0  0  0  0
  161.8600  205.8470  153.3350 C   0  0  0  0  0  2  0  0  0  0  0  0
  160.2870  207.0450  151.7010 C   0  0  0  0  0  2  0  0  0  0  0  0
  161.5010  207.1650  152.6270 C   0  0  1  0  0  3  0  0  0  0  0  0
  161.2110  204.6160  152.6990 C   0  0  0  0  0  2  0  0  0  0  0  0
  160.7440  203.4390  150.5110 C   0  0  0  0  0  2  0  0  0  0  0  0
  161.2290  202.1860  151.2270 C   0  0  0  0  0  1  0  0  0  0  0  0
  1  8  1  0  0  0  0
  2 13  1  0  0  0  0
  2 12  1  0  0  0  0
  3 16  1  6  0  0  0
  3 10  1  0  0  0  0
  3 14  1  0  0  0  0
  4  8  1  0  0  0  0
  4 15  1  0  0  0  0
  5  6  1  0  0  0  0
  5  9  1  0  0  0  0
  6  1  1  0  0  0  0
  7 11  1  0  0  0  0
  7  4  2  0  0  0  0
  9  7  1  0  0  0  0
 10 11  1  0  0  0  0
 11  2  2  0  0  0  0
 13 35  1  0  0  0  0
 14 13  1  0  0  0  0
 15 12  2  0  0  0  0
 16 17  1  6  0  0  0
 18 16  1  0  0  0  0
 19 18  1  0  0  0  0
 20 19  1  0  0  0  0
 21 20  1  0  0  0  0
 22 24  1  0  0  0  0
 22 21  1  1  0  0  0
 23 26  1  0  0  0  0
 24 27  1  1  0  0  0
 25 22  1  0  0  0  0
 26 29  1  6  0  0  0
 26 24  1  0  0  0  0
 28 25  1  0  0  0  0
 28 23  1  0  0  0  0
 29 33  1  0  0  0  0
 30 32  1  0  0  0  0
 32 31  1  0  0  0  0
 33 31  1  0  0  0  0
 34 30  1  0  0  0  0
 34 29  2  0  0  0  0
 36 37  1  0  0  0  0
 36 39  1  0  0  0  0
 37 42  1  6  0  0  0
 37 41  1  0  0  0  0
 39 40  1  0  0  0  0
 40 38  1  0  0  0  0
 40 35  1  1  0  0  0
 41 38  1  0  0  0  0
 42 43  1  0  0  0  0
M  END
>  <MODEL>
7

>  <REMARK>
 VINA RESULT:      -4.8      3.434      6.552
  Name = 
  10 active torsions:
  status: ('A' for Active; 'I' for Inactive)
    1  A    between atoms: C_1  and  N_34
    2  A    between atoms: C_1  and  C_35
    3  A    between atoms: C_2  and  C_6
    4  A    between atoms: C_2  and  C_13
    5  A    between atoms: C_3  and  C_4
    6  A    between atoms: C_3  and  C_12
    7  A    between atoms: C_6  and  C_17
    8  A    between atoms: C_11  and  C_22
    9  A    between atoms: C_12  and  C_17
   10  A    between atoms: C_19  and  C_25
                            x       y       z     vdW  Elec       q    Type
                         _______ _______ _______ _____ _____    ______ ____

>  <TORSDO>
F 10

$$$$
=
 OpenBabel11062410023D

 43 48  0  0  1  0  0  0  0  0999 V2000
  156.0690  214.3300  146.9430 C   0  0  0  0  0  2  0  0  0  0  0  0
  157.0880  214.3070  152.0510 C   0  0  0  0  0  0  0  0  0  0  0  0
  159.8090  213.5450  152.5810 C   0  0  1  0  0  3  0  0  0  0  0  0
  156.0120  214.1920  149.4470 C   0  0  0  0  0  0  0  0  0  0  0  0
  157.8460  212.6290  147.6410 C   0  0  0  0  0  2  0  0  0  0  0  0
  156.8700  213.0870  146.5570 C   0  0  0  0  0  2  0  0  0  0  0  0
  157.4120  214.0420  149.6400 C   0  0  0  0  0  0  0  0  0  0  0  0
  155.3940  214.1570  148.1850 O   0  0  0  0  0  0  0  0  0  0  0  0
  158.3460  213.7930  148.4870 C   0  0  0  0  0  2  0  0  0  0  0  0
  159.4380  213.9910  151.1640 C   0  0  0  0  0  2  0  0  0  0  0  0
  157.9440  214.1010  150.9460 C   0  0  0  0  0  0  0  0  0  0  0  0
  155.7110  214.4250  151.8420 C   0  0  0  0  0  3  0  0  0  0  0  0
  157.6270  214.3460  153.3860 N   0  0  0  0  0  0  0  0  0  0  0  0
  159.0730  214.4320  153.5840 C   0  0  0  0  0  2  0  0  0  0  0  0
  155.1820  214.3680  150.5560 C   0  0  0  0  0  3  0  0  0  0  0  0
  159.5390  212.0440  152.7970 C   0  0  1  0  0  3  0  0  0  0  0  0
  158.7730  211.4550  151.6230 C   0  0  0  0  0  1  0  0  0  0  0  0
  160.8060  211.2230  153.0600 C   0  0  0  0  0  2  0  0  0  0  0  0
  160.6410  209.7600  152.6780 C   0  0  0  0  0  2  0  0  0  0  0  0
  161.7320  209.3820  151.6980 C   0  0  0  0  0  2  0  0  0  0  0  0
  161.1360  208.6010  150.5470 C   0  0  0  0  0  2  0  0  0  0  0  0
  162.2100  207.7230  149.9120 C   0  0  1  0  0  3  0  0  0  0  0  0
  161.0300  206.1300  147.8660 C   0  0  0  0  0  2  0  0  0  0  0  0
  161.9750  206.2250  150.1800 C   0  0  2  0  0  3  0  0  0  0  0  0
  162.2470  207.9600  148.3990 C   0  0  0  0  0  2  0  0  0  0  0  0
  160.8360  205.6720  149.3140 C   0  0  2  0  0  3  0  0  0  0  0  0
  161.7290  205.9860  151.5350 O   0  0  0  0  0  1  0  0  0  0  0  0
  161.0440  207.5350  147.8020 O   0  0  0  0  0  0  0  0  0  0  0  0
  160.7670  204.1750  149.3850 C   0  0  0  0  0  0  0  0  0  0  0  0
  161.3090  201.9620  148.3520 C   0  0  0  0  0  2  0  0  0  0  0  0
  160.0500  201.9980  150.4830 C   0  0  0  0  0  2  0  0  0  0  0  0
  161.2350  201.3780  149.7580 C   0  0  0  0  0  2  0  0  0  0  0  0
  160.2750  203.5020  150.6520 C   0  0  0  0  0  2  0  0  0  0  0  0
  161.3110  203.4680  148.3810 C   0  0  0  0  0  3  0  0  0  0  0  0
  156.7600  214.1350  154.5470 C   0  0  0  0  0  2  0  0  0  0  0  0
  159.3150  212.5450  157.0200 C   0  0  0  0  0  2  0  0  0  0  0  0
  158.8710  211.0840  156.8200 C   0  0  1  0  0  3  0  0  0  0  0  0
  157.1990  211.6910  155.0440 C   0  0  0  0  0  2  0  0  0  0  0  0
  158.7820  213.4980  155.9430 C   0  0  0  0  0  2  0  0  0  0  0  0
  157.3480  213.1380  155.5470 C   0  0  1  0  0  3  0  0  0  0  0  0
  158.3880  210.7960  155.3990 C   0  0  0  0  0  2  0  0  0  0  0  0
  159.9540  210.1020  157.2580 C   0  0  0  0  0  2  0  0  0  0  0  0
  159.8370  208.7570  156.5560 C   0  0  0  0  0  1  0  0  0  0  0  0
  1  8  1  0  0  0  0
  2 13  1  0  0  0  0
  3 16  1  1  0  0  0
  3 14  1  0  0  0  0
  4  7  2  0  0  0  0
  4 15  1  0  0  0  0
  5  9  1  0  0  0  0
  6  1  1  0  0  0  0
  6  5  1  0  0  0  0
  7 11  1  0  0  0  0
  8  4  1  0  0  0  0
  9  7  1  0  0  0  0
 10  3  1  0  0  0  0
 11 10  1  0  0  0  0
 11  2  2  0  0  0  0
 12  2  1  0  0  0  0
 13 14  1  0  0  0  0
 13 35  1  0  0  0  0
 15 12  2  0  0  0  0
 16 17  1  6  0  0  0
 16 18  1  0  0  0  0
 19 18  1  0  0  0  0
 20 19  1  0  0  0  0
 21 20  1  0  0  0  0
 22 24  1  0  0  0  0
 22 21  1  1  0  0  0
 23 26  1  0  0  0  0
 24 27  1  1  0  0  0
 25 22  1  0  0  0  0
 26 29  1  6  0  0  0
 26 24  1  0  0  0  0
 28 23  1  0  0  0  0
 28 25  1  0  0  0  0
 29 33  1  0  0  0  0
 30 34  1  0  0  0  0
 30 32  1  0  0  0  0
 31 33  1  0  0  0  0
 32 31  1  0  0  0  0
 34 29  2  0  0  0  0
 37 36  1  0  0  0  0
 37 42  1  6  0  0  0
 38 41  1  0  0  0  0
 38 40  1  0  0  0  0
 39 36  1  0  0  0  0
 40 35  1  6  0  0  0
 40 39  1  0  0  0  0
 41 37  1  0  0  0  0
 43 42  1  0  0  0  0
M  END
>  <MODEL>
8

>  <REMARK>
 VINA RESULT:      -4.8      2.377      3.687
  Name = 
  10 active torsions:
  status: ('A' for Active; 'I' for Inactive)
    1  A    between atoms: C_1  and  N_34
    2  A    between atoms: C_1  and  C_35
    3  A    between atoms: C_2  and  C_6
    4  A    between atoms: C_2  and  C_13
    5  A    between atoms: C_3  and  C_4
    6  A    between atoms: C_3  and  C_12
    7  A    between atoms: C_6  and  C_17
    8  A    between atoms: C_11  and  C_22
    9  A    between atoms: C_12  and  C_17
   10  A    between atoms: C_19  and  C_25
                            x       y       z     vdW  Elec       q    Type
                         _______ _______ _______ _____ _____    ______ ____

>  <TORSDO>
F 10

$$$$
