=
 OpenBabel11052422213D

 25 28  0  0  1  0  0  0  0  0999 V2000
  161.1230  205.7470  149.9950 C   0  0  0  0  0  0  0  0  0  0  0  0
  161.1880  206.7890  150.9480 C   0  0  0  0  0  0  0  0  0  0  0  0
  161.2540  204.0870  151.7020 C   0  0  0  0  0  3  0  0  0  0  0  0
  161.0740  205.9120  148.5820 N   0  0  0  0  0  0  0  0  0  0  0  0
  161.5680  209.2510  151.1620 N   0  0  0  0  0  0  0  0  0  0  0  0
  161.8600  203.8540  145.8530 O   0  0  0  0  0  0  0  0  0  0  0  0
  161.2670  205.0750  152.6330 N   0  0  0  0  0  0  0  0  0  0  0  0
  160.7830  204.6710  147.8760 C   0  0  1  0  0  3  0  0  0  0  0  0
  161.7330  204.7370  146.7410 C   0  0  0  0  0  0  0  0  0  0  0  0
  161.0590  207.2580  153.3840 C   0  0  0  0  0  0  0  0  0  0  0  0
  161.0990  206.7160  154.7790 C   0  0  0  0  0  1  0  0  0  0  0  0
  161.3470  208.0260  150.4540 C   0  0  0  0  0  3  0  0  0  0  0  0
  162.4740  205.9870  146.7730 C   0  0  0  0  0  3  0  0  0  0  0  0
  161.1510  204.4300  150.3700 C   0  0  0  0  0  0  0  0  0  0  0  0
  161.1580  203.2730  149.0100 S   0  0  0  0  0  0  0  0  0  0  0  0
  160.6430  208.6630  153.3300 C   0  0  0  0  0  3  0  0  0  0  0  0
  162.0750  206.6360  147.8580 C   0  0  0  0  0  3  0  0  0  0  0  0
  160.8560  209.5380  152.3620 C   0  0  0  0  0  3  0  0  0  0  0  0
  161.1960  206.4120  152.3320 C   0  0  0  0  0  0  0  0  0  0  0  0
  161.2920  211.6750  150.7090 C   0  0  0  0  0  1  0  0  0  0  0  0
  162.0630  210.3990  150.3820 C   0  0  2  0  0  3  0  0  0  0  0  0
  161.9590  210.1430  148.8780 C   0  0  0  0  0  2  0  0  0  0  0  0
  162.0400  211.4210  148.1160 C   0  0  0  0  0  0  0  0  0  0  0  0
  160.9340  211.8840  147.4160 O   0  0  0  0  0  0  0  0  0  0  0  0
  163.1190  212.0680  148.0860 O   0  0  0  0  0  1  0  0  0  0  0  0
  1 14  2  0  0  0  0
  1  2  1  0  0  0  0
  2 19  1  0  0  0  0
  3  7  2  0  0  0  0
  4  1  1  0  0  0  0
  5 18  1  0  0  0  0
  6  9  2  0  0  0  0
  8  9  1  6  0  0  0
  8  4  1  0  0  0  0
  8 15  1  0  0  0  0
  9 13  1  0  0  0  0
 10 11  1  0  0  0  0
 12  2  2  0  0  0  0
 12  5  1  0  0  0  0
 13 17  2  0  0  0  0
 14  3  1  0  0  0  0
 15 14  1  0  0  0  0
 16 10  1  0  0  0  0
 17  4  1  0  0  0  0
 18 16  2  0  0  0  0
 19  7  1  0  0  0  0
 19 10  2  0  0  0  0
 21 20  1  6  0  0  0
 21  5  1  0  0  0  0
 22 21  1  0  0  0  0
 23 22  1  0  0  0  0
 24 23  2  0  0  0  0
 25 23  1  0  0  0  0
M  END
>  <MODEL>
1

>  <REMARK>
 VINA RESULT:      -7.9      0.000      0.000
  Name = 
  3 active torsions:
  status: ('A' for Active; 'I' for Inactive)
    1  A    between atoms: C_2  and  C_15
    2  A    between atoms: N_6  and  C_25
    3  A    between atoms: C_15  and  C_25
                            x       y       z     vdW  Elec       q    Type
                         _______ _______ _______ _____ _____    ______ ____

>  <TORSDO>
F 3

$$$$
=
 OpenBabel11052422213D

 25 28  0  0  1  0  0  0  0  0999 V2000
  160.8440  204.4440  150.3440 C   0  0  0  0  0  0  0  0  0  0  0  0
  161.0030  205.7340  150.8980 C   0  0  0  0  0  0  0  0  0  0  0  0
  161.1800  203.4150  152.4690 C   0  0  0  0  0  3  0  0  0  0  0  0
  160.6360  204.1480  148.9660 N   0  0  0  0  0  0  0  0  0  0  0  0
  161.3800  208.1240  150.2680 N   0  0  0  0  0  0  0  0  0  0  0  0
  161.1360  201.3050  146.9750 O   0  0  0  0  0  0  0  0  0  0  0  0
  161.2860  204.6480  153.0260 N   0  0  0  0  0  0  0  0  0  0  0  0
  160.2820  202.7550  148.7320 C   0  0  1  0  0  3  0  0  0  0  0  0
  161.1000  202.4280  147.5400 C   0  0  0  0  0  0  0  0  0  0  0  0
  161.1410  206.9610  153.0540 C   0  0  0  0  0  0  0  0  0  0  0  0
  161.3410  206.8940  154.5360 C   0  0  0  0  0  1  0  0  0  0  0  0
  161.0940  206.7430  150.0190 C   0  0  0  0  0  3  0  0  0  0  0  0
  161.8270  203.6030  147.0890 C   0  0  0  0  0  3  0  0  0  0  0  0
  160.9270  203.3160  151.1160 C   0  0  0  0  0  0  0  0  0  0  0  0
  160.7940  201.7840  150.2070 S   0  0  0  0  0  0  0  0  0  0  0  0
  160.7070  208.2850  152.5960 C   0  0  0  0  0  3  0  0  0  0  0  0
  161.5430  204.5760  147.9450 C   0  0  0  0  0  3  0  0  0  0  0  0
  160.8020  208.7980  151.3820 C   0  0  0  0  0  3  0  0  0  0  0  0
  161.1690  205.8200  152.3210 C   0  0  0  0  0  0  0  0  0  0  0  0
  162.8370  208.2550  148.2640 C   0  0  0  0  0  1  0  0  0  0  0  0
  161.7740  208.9480  149.1110 C   0  0  2  0  0  3  0  0  0  0  0  0
  162.3160  210.3090  149.5500 C   0  0  0  0  0  2  0  0  0  0  0  0
  162.1840  211.3090  148.4530 C   0  0  0  0  0  0  0  0  0  0  0  0
  163.2400  212.1640  148.1620 O   0  0  0  0  0  1  0  0  0  0  0  0
  161.1080  211.3970  147.8060 O   0  0  0  0  0  0  0  0  0  0  0  0
  1  2  1  0  0  0  0
  1 14  2  0  0  0  0
  2 19  1  0  0  0  0
  3  7  2  0  0  0  0
  4  1  1  0  0  0  0
  5 18  1  0  0  0  0
  6  9  2  0  0  0  0
  8  9  1  6  0  0  0
  8  4  1  0  0  0  0
  8 15  1  0  0  0  0
 10 11  1  0  0  0  0
 12  5  1  0  0  0  0
 12  2  2  0  0  0  0
 13  9  1  0  0  0  0
 13 17  2  0  0  0  0
 14  3  1  0  0  0  0
 15 14  1  0  0  0  0
 16 10  1  0  0  0  0
 17  4  1  0  0  0  0
 18 16  2  0  0  0  0
 19  7  1  0  0  0  0
 19 10  2  0  0  0  0
 21 20  1  1  0  0  0
 21 22  1  0  0  0  0
 21  5  1  0  0  0  0
 23 22  1  0  0  0  0
 24 23  1  0  0  0  0
 25 23  2  0  0  0  0
M  END
>  <MODEL>
2

>  <REMARK>
 VINA RESULT:      -7.8      1.308      1.850
  Name = 
  3 active torsions:
  status: ('A' for Active; 'I' for Inactive)
    1  A    between atoms: C_2  and  C_15
    2  A    between atoms: N_6  and  C_25
    3  A    between atoms: C_15  and  C_25
                            x       y       z     vdW  Elec       q    Type
                         _______ _______ _______ _____ _____    ______ ____

>  <TORSDO>
F 3

$$$$
=
 OpenBabel11052422213D

 25 28  0  0  1  0  0  0  0  0999 V2000
  161.4200  205.5390  151.3600 C   0  0  0  0  0  0  0  0  0  0  0  0
  161.3290  204.8430  150.1330 C   0  0  0  0  0  0  0  0  0  0  0  0
  160.5540  203.6710  152.5620 C   0  0  0  0  0  3  0  0  0  0  0  0
  161.8440  206.8890  151.5230 N   0  0  0  0  0  0  0  0  0  0  0  0
  161.3970  205.1830  147.6570 N   0  0  0  0  0  0  0  0  0  0  0  0
  161.3630  209.3190  154.0050 O   0  0  0  0  0  0  0  0  0  0  0  0
  160.5080  202.9710  151.4000 N   0  0  0  0  0  0  0  0  0  0  0  0
  162.0510  207.2540  152.9180 C   0  0  1  0  0  3  0  0  0  0  0  0
  161.4380  208.6020  152.9730 C   0  0  0  0  0  0  0  0  0  0  0  0
  160.9480  202.5910  149.1560 C   0  0  0  0  0  0  0  0  0  0  0  0
  160.4630  201.1890  149.3630 C   0  0  0  0  0  1  0  0  0  0  0  0
  161.5410  205.5730  149.0280 C   0  0  0  0  0  3  0  0  0  0  0  0
  160.9710  209.0000  151.6560 C   0  0  0  0  0  3  0  0  0  0  0  0
  161.0450  204.9610  152.5430 C   0  0  0  0  0  0  0  0  0  0  0  0
  161.1450  206.0410  153.9610 S   0  0  0  0  0  0  0  0  0  0  0  0
  161.6310  202.7750  147.8720 C   0  0  0  0  0  3  0  0  0  0  0  0
  161.2120  207.9790  150.8440 C   0  0  0  0  0  3  0  0  0  0  0  0
  161.8360  203.9020  147.2140 C   0  0  0  0  0  3  0  0  0  0  0  0
  160.9100  203.4720  150.1870 C   0  0  0  0  0  0  0  0  0  0  0  0
  161.1660  207.6280  147.3080 C   0  0  0  0  0  1  0  0  0  0  0  0
  161.3420  206.2610  146.6540 C   0  0  2  0  0  3  0  0  0  0  0  0
  160.1970  206.0480  145.6620 C   0  0  0  0  0  2  0  0  0  0  0  0
  160.6440  205.2150  144.5100 C   0  0  0  0  0  0  0  0  0  0  0  0
  160.1270  203.9380  144.3340 O   0  0  0  0  0  1  0  0  0  0  0  0
  161.5090  205.6580  143.7110 O   0  0  0  0  0  0  0  0  0  0  0  0
  1  4  1  0  0  0  0
  1 14  2  0  0  0  0
  2 19  1  0  0  0  0
  2  1  1  0  0  0  0
  4  8  1  0  0  0  0
  5 12  1  0  0  0  0
  7  3  2  0  0  0  0
  8  9  1  6  0  0  0
  8 15  1  0  0  0  0
  9  6  2  0  0  0  0
 10 11  1  0  0  0  0
 10 19  2  0  0  0  0
 12  2  2  0  0  0  0
 13  9  1  0  0  0  0
 14  3  1  0  0  0  0
 14 15  1  0  0  0  0
 16 10  1  0  0  0  0
 17  4  1  0  0  0  0
 17 13  2  0  0  0  0
 18  5  1  0  0  0  0
 18 16  2  0  0  0  0
 19  7  1  0  0  0  0
 21 20  1  1  0  0  0
 21  5  1  0  0  0  0
 22 21  1  0  0  0  0
 23 22  1  0  0  0  0
 24 23  1  0  0  0  0
 25 23  2  0  0  0  0
M  END
>  <MODEL>
3

>  <REMARK>
 VINA RESULT:      -7.7      2.851      5.820
  Name = 
  3 active torsions:
  status: ('A' for Active; 'I' for Inactive)
    1  A    between atoms: C_2  and  C_15
    2  A    between atoms: N_6  and  C_25
    3  A    between atoms: C_15  and  C_25
                            x       y       z     vdW  Elec       q    Type
                         _______ _______ _______ _____ _____    ______ ____

>  <TORSDO>
F 3

$$$$
=
 OpenBabel11052422213D

 25 28  0  0  1  0  0  0  0  0999 V2000
  161.6250  205.2600  150.1370 C   0  0  0  0  0  0  0  0  0  0  0  0
  161.2790  204.0460  149.5030 C   0  0  0  0  0  0  0  0  0  0  0  0
  160.9980  204.4030  152.2720 C   0  0  0  0  0  3  0  0  0  0  0  0
  162.0900  206.4380  149.4850 N   0  0  0  0  0  0  0  0  0  0  0  0
  160.8470  203.0420  147.2540 N   0  0  0  0  0  0  0  0  0  0  0  0
  162.1510  209.8390  150.3360 O   0  0  0  0  0  0  0  0  0  0  0  0
  160.7090  203.2130  151.6860 N   0  0  0  0  0  0  0  0  0  0  0  0
  162.5790  207.4450  150.4160 C   0  0  1  0  0  3  0  0  0  0  0  0
  162.0080  208.6890  149.8470 C   0  0  0  0  0  0  0  0  0  0  0  0
  160.6790  201.6770  149.9510 C   0  0  0  0  0  0  0  0  0  0  0  0
  160.2290  200.6540  150.9480 C   0  0  0  0  0  1  0  0  0  0  0  0
  161.2700  204.0660  148.1620 C   0  0  0  0  0  3  0  0  0  0  0  0
  161.2880  208.3980  148.6180 C   0  0  0  0  0  3  0  0  0  0  0  0
  161.4900  205.4280  151.4890 C   0  0  0  0  0  0  0  0  0  0  0  0
  161.8890  207.0660  152.0770 S   0  0  0  0  0  0  0  0  0  0  0  0
  161.0900  201.0860  148.6730 C   0  0  0  0  0  3  0  0  0  0  0  0
  161.3470  207.0840  148.4460 C   0  0  0  0  0  3  0  0  0  0  0  0
  161.1710  201.6760  147.4930 C   0  0  0  0  0  3  0  0  0  0  0  0
  160.8620  202.9620  150.3460 C   0  0  0  0  0  0  0  0  0  0  0  0
  160.3990  202.2290  144.9530 C   0  0  0  0  0  1  0  0  0  0  0  0
  160.6020  203.4420  145.8570 C   0  0  2  0  0  3  0  0  0  0  0  0
  161.7590  204.2720  145.3000 C   0  0  0  0  0  2  0  0  0  0  0  0
  161.2490  205.4490  144.5400 C   0  0  0  0  0  0  0  0  0  0  0  0
  160.3090  206.2940  145.1170 O   0  0  0  0  0  1  0  0  0  0  0  0
  161.6490  205.6630  143.3670 O   0  0  0  0  0  0  0  0  0  0  0  0
  1 14  2  0  0  0  0
  2  1  1  0  0  0  0
  2 19  1  0  0  0  0
  4  1  1  0  0  0  0
  4  8  1  0  0  0  0
  5 18  1  0  0  0  0
  5 12  1  0  0  0  0
  7  3  2  0  0  0  0
  8  9  1  6  0  0  0
  8 15  1  0  0  0  0
  9  6  2  0  0  0  0
 10 19  2  0  0  0  0
 10 11  1  0  0  0  0
 12  2  2  0  0  0  0
 13  9  1  0  0  0  0
 14 15  1  0  0  0  0
 14  3  1  0  0  0  0
 16 10  1  0  0  0  0
 17 13  2  0  0  0  0
 17  4  1  0  0  0  0
 18 16  2  0  0  0  0
 19  7  1  0  0  0  0
 21 20  1  6  0  0  0
 21  5  1  0  0  0  0
 22 21  1  0  0  0  0
 23 24  1  0  0  0  0
 23 22  1  0  0  0  0
 25 23  2  0  0  0  0
M  END
>  <MODEL>
4

>  <REMARK>
 VINA RESULT:      -7.6      2.529      5.996
  Name = 
  3 active torsions:
  status: ('A' for Active; 'I' for Inactive)
    1  A    between atoms: C_2  and  C_15
    2  A    between atoms: N_6  and  C_25
    3  A    between atoms: C_15  and  C_25
                            x       y       z     vdW  Elec       q    Type
                         _______ _______ _______ _____ _____    ______ ____

>  <TORSDO>
F 3

$$$$
=
 OpenBabel11052422213D

 25 28  0  0  1  0  0  0  0  0999 V2000
  161.2070  207.7040  150.6690 C   0  0  0  0  0  0  0  0  0  0  0  0
  161.2980  206.5690  149.8330 C   0  0  0  0  0  0  0  0  0  0  0  0
  162.4050  209.0410  149.0990 C   0  0  0  0  0  3  0  0  0  0  0  0
  160.6190  207.7400  151.9660 N   0  0  0  0  0  0  0  0  0  0  0  0
  160.9980  204.0870  149.8290 N   0  0  0  0  0  0  0  0  0  0  0  0
  160.9560  209.8510  154.7450 O   0  0  0  0  0  0  0  0  0  0  0  0
  162.4570  207.9740  148.2620 N   0  0  0  0  0  0  0  0  0  0  0  0
  160.4720  209.0930  152.4840 C   0  0  1  0  0  3  0  0  0  0  0  0
  160.8990  208.9260  153.8940 C   0  0  0  0  0  0  0  0  0  0  0  0
  161.9040  205.8440  147.5350 C   0  0  0  0  0  0  0  0  0  0  0  0
  162.5870  206.1740  146.2440 C   0  0  0  0  0  1  0  0  0  0  0  0
  160.9070  205.4070  150.3770 C   0  0  0  0  0  3  0  0  0  0  0  0
  161.2070  207.5330  154.1670 C   0  0  0  0  0  3  0  0  0  0  0  0
  161.7450  208.9090  150.3040 C   0  0  0  0  0  0  0  0  0  0  0  0
  161.6090  210.1890  151.5430 S   0  0  0  0  0  0  0  0  0  0  0  0
  161.1060  204.6150  147.4600 C   0  0  0  0  0  3  0  0  0  0  0  0
  161.0450  206.8780  153.0250 C   0  0  0  0  0  3  0  0  0  0  0  0
  160.7020  203.8460  148.4560 C   0  0  0  0  0  3  0  0  0  0  0  0
  161.9010  206.7510  148.5430 C   0  0  0  0  0  0  0  0  0  0  0  0
  161.2950  203.3210  152.1700 C   0  0  0  0  0  1  0  0  0  0  0  0
  160.8310  202.9590  150.7620 C   0  0  2  0  0  3  0  0  0  0  0  0
  161.6090  201.7260  150.2980 C   0  0  0  0  0  2  0  0  0  0  0  0
  160.8310  200.9610  149.2830 C   0  0  0  0  0  0  0  0  0  0  0  0
  161.4920  200.2890  148.2630 O   0  0  0  0  0  0  0  0  0  0  0  0
  159.5740  200.9440  149.3350 O   0  0  0  0  0  1  0  0  0  0  0  0
  1  4  1  0  0  0  0
  2 12  2  0  0  0  0
  2  1  1  0  0  0  0
  3 14  1  0  0  0  0
  4  8  1  0  0  0  0
  4 17  1  0  0  0  0
  5 12  1  0  0  0  0
  5 21  1  0  0  0  0
  7 19  1  0  0  0  0
  7  3  2  0  0  0  0
  8 15  1  6  0  0  0
  8  9  1  0  0  0  0
  9 13  1  0  0  0  0
  9  6  2  0  0  0  0
 10 19  2  0  0  0  0
 11 10  1  0  0  0  0
 14  1  2  0  0  0  0
 14 15  1  0  0  0  0
 16 10  1  0  0  0  0
 16 18  2  0  0  0  0
 17 13  2  0  0  0  0
 18  5  1  0  0  0  0
 19  2  1  0  0  0  0
 21 20  1  1  0  0  0
 22 21  1  0  0  0  0
 23 25  1  0  0  0  0
 23 22  1  0  0  0  0
 24 23  2  0  0  0  0
M  END
>  <MODEL>
5

>  <REMARK>
 VINA RESULT:      -7.5      3.022      7.263
  Name = 
  3 active torsions:
  status: ('A' for Active; 'I' for Inactive)
    1  A    between atoms: C_2  and  C_15
    2  A    between atoms: N_6  and  C_25
    3  A    between atoms: C_15  and  C_25
                            x       y       z     vdW  Elec       q    Type
                         _______ _______ _______ _____ _____    ______ ____

>  <TORSDO>
F 3

$$$$
=
 OpenBabel11052422213D

 25 28  0  0  1  0  0  0  0  0999 V2000
  161.0430  208.3980  152.6440 C   0  0  0  0  0  0  0  0  0  0  0  0
  161.1440  207.6350  151.4580 C   0  0  0  0  0  0  0  0  0  0  0  0
  162.3310  210.1670  151.6960 C   0  0  0  0  0  3  0  0  0  0  0  0
  160.4030  207.9870  153.8480 N   0  0  0  0  0  0  0  0  0  0  0  0
  160.7940  205.3310  150.5540 N   0  0  0  0  0  0  0  0  0  0  0  0
  160.6690  208.9510  157.2090 O   0  0  0  0  0  0  0  0  0  0  0  0
  162.3950  209.4690  150.5330 N   0  0  0  0  0  0  0  0  0  0  0  0
  160.2620  209.0690  154.8130 C   0  0  1  0  0  3  0  0  0  0  0  0
  160.6280  208.3950  156.0810 C   0  0  0  0  0  0  0  0  0  0  0  0
  161.8290  207.7600  149.0730 C   0  0  0  0  0  0  0  0  0  0  0  0
  162.5700  208.5070  148.0090 C   0  0  0  0  0  1  0  0  0  0  0  0
  160.7070  206.3690  151.5370 C   0  0  0  0  0  3  0  0  0  0  0  0
  160.8960  206.9860  155.8450 C   0  0  0  0  0  3  0  0  0  0  0  0
  161.6200  209.6350  152.7520 C   0  0  0  0  0  0  0  0  0  0  0  0
  161.4590  210.3900  154.3630 S   0  0  0  0  0  0  0  0  0  0  0  0
  161.0100  206.6680  148.5380 C   0  0  0  0  0  3  0  0  0  0  0  0
  160.7680  206.7890  154.5400 C   0  0  0  0  0  3  0  0  0  0  0  0
  160.5500  205.6070  149.1780 C   0  0  0  0  0  3  0  0  0  0  0  0
  161.8030  208.2470  150.3400 C   0  0  0  0  0  0  0  0  0  0  0  0
  160.8730  203.7950  152.5020 C   0  0  0  0  0  1  0  0  0  0  0  0
  160.5660  203.9490  151.0150 C   0  0  2  0  0  3  0  0  0  0  0  0
  161.4220  202.9490  150.2370 C   0  0  0  0  0  2  0  0  0  0  0  0
  160.5910  202.1900  149.2590 C   0  0  0  0  0  0  0  0  0  0  0  0
  160.8570  202.2870  147.8990 O   0  0  0  0  0  0  0  0  0  0  0  0
  159.6330  201.4820  149.6630 O   0  0  0  0  0  1  0  0  0  0  0  0
  1 14  2  0  0  0  0
  1  4  1  0  0  0  0
  2 12  2  0  0  0  0
  2  1  1  0  0  0  0
  3 14  1  0  0  0  0
  4 17  1  0  0  0  0
  4  8  1  0  0  0  0
  5 21  1  0  0  0  0
  5 12  1  0  0  0  0
  7  3  2  0  0  0  0
  8 15  1  6  0  0  0
  8  9  1  0  0  0  0
  9  6  2  0  0  0  0
 10 19  2  0  0  0  0
 11 10  1  0  0  0  0
 13  9  1  0  0  0  0
 14 15  1  0  0  0  0
 16 10  1  0  0  0  0
 16 18  2  0  0  0  0
 17 13  2  0  0  0  0
 18  5  1  0  0  0  0
 19  7  1  0  0  0  0
 19  2  1  0  0  0  0
 21 20  1  1  0  0  0
 22 21  1  0  0  0  0
 23 25  1  0  0  0  0
 23 22  1  0  0  0  0
 24 23  2  0  0  0  0
M  END
>  <MODEL>
6

>  <REMARK>
 VINA RESULT:      -7.3      3.647      7.222
  Name = 
  3 active torsions:
  status: ('A' for Active; 'I' for Inactive)
    1  A    between atoms: C_2  and  C_15
    2  A    between atoms: N_6  and  C_25
    3  A    between atoms: C_15  and  C_25
                            x       y       z     vdW  Elec       q    Type
                         _______ _______ _______ _____ _____    ______ ____

>  <TORSDO>
F 3

$$$$
=
 OpenBabel11052422213D

 25 28  0  0  1  0  0  0  0  0999 V2000
  161.4030  206.5200  149.7130 C   0  0  0  0  0  0  0  0  0  0  0  0
  161.4970  205.5400  148.6990 C   0  0  0  0  0  0  0  0  0  0  0  0
  162.2810  208.1990  148.2640 C   0  0  0  0  0  3  0  0  0  0  0  0
  160.9700  206.2980  151.0510 N   0  0  0  0  0  0  0  0  0  0  0  0
  161.4260  203.0690  148.3270 N   0  0  0  0  0  0  0  0  0  0  0  0
  161.4390  207.9930  154.0850 O   0  0  0  0  0  0  0  0  0  0  0  0
  162.3310  207.2810  147.2650 N   0  0  0  0  0  0  0  0  0  0  0  0
  160.7630  207.5330  151.7930 C   0  0  1  0  0  3  0  0  0  0  0  0
  161.3670  207.2050  153.1060 C   0  0  0  0  0  0  0  0  0  0  0  0
  161.8920  205.2370  146.2650 C   0  0  0  0  0  0  0  0  0  0  0  0
  162.3860  205.8280  144.9820 C   0  0  0  0  0  1  0  0  0  0  0  0
  161.2800  204.2740  149.0860 C   0  0  0  0  0  3  0  0  0  0  0  0
  161.8300  205.8280  153.1190 C   0  0  0  0  0  3  0  0  0  0  0  0
  161.7830  207.8180  149.4930 C   0  0  0  0  0  0  0  0  0  0  0  0
  161.6770  208.8740  150.9290 S   0  0  0  0  0  0  0  0  0  0  0  0
  161.2060  203.9540  146.0760 C   0  0  0  0  0  3  0  0  0  0  0  0
  161.5950  205.3370  151.9090 C   0  0  0  0  0  3  0  0  0  0  0  0
  160.9940  203.0050  146.9710 C   0  0  0  0  0  3  0  0  0  0  0  0
  161.9250  205.9770  147.4010 C   0  0  0  0  0  0  0  0  0  0  0  0
  161.2060  200.6020  148.1750 C   0  0  0  0  0  1  0  0  0  0  0  0
  161.4730  201.8020  149.0790 C   0  0  2  0  0  3  0  0  0  0  0  0
  160.4540  201.7860  150.2180 C   0  0  0  0  0  2  0  0  0  0  0  0
  161.1080  202.1050  151.5190 C   0  0  0  0  0  0  0  0  0  0  0  0
  160.3760  202.7000  152.5380 O   0  0  0  0  0  1  0  0  0  0  0  0
  162.3310  201.8590  151.6850 O   0  0  0  0  0  0  0  0  0  0  0  0
  1  4  1  0  0  0  0
  2 12  2  0  0  0  0
  2  1  1  0  0  0  0
  3 14  1  0  0  0  0
  4  8  1  0  0  0  0
  4 17  1  0  0  0  0
  5 21  1  0  0  0  0
  5 12  1  0  0  0  0
  7 19  1  0  0  0  0
  7  3  2  0  0  0  0
  8 15  1  6  0  0  0
  8  9  1  0  0  0  0
  9 13  1  0  0  0  0
  9  6  2  0  0  0  0
 10 19  2  0  0  0  0
 11 10  1  0  0  0  0
 14  1  2  0  0  0  0
 14 15  1  0  0  0  0
 16 10  1  0  0  0  0
 16 18  2  0  0  0  0
 17 13  2  0  0  0  0
 18  5  1  0  0  0  0
 19  2  1  0  0  0  0
 21 20  1  6  0  0  0
 21 22  1  0  0  0  0
 22 23  1  0  0  0  0
 23 25  2  0  0  0  0
 23 24  1  0  0  0  0
M  END
>  <MODEL>
7

>  <REMARK>
 VINA RESULT:      -7.2      3.275      7.309
  Name = 
  3 active torsions:
  status: ('A' for Active; 'I' for Inactive)
    1  A    between atoms: C_2  and  C_15
    2  A    between atoms: N_6  and  C_25
    3  A    between atoms: C_15  and  C_25
                            x       y       z     vdW  Elec       q    Type
                         _______ _______ _______ _____ _____    ______ ____

>  <TORSDO>
F 3

$$$$
=
 OpenBabel11052422213D

 25 28  0  0  1  0  0  0  0  0999 V2000
  161.4290  205.6540  149.3220 C   0  0  0  0  0  0  0  0  0  0  0  0
  161.4600  204.8710  148.1470 C   0  0  0  0  0  0  0  0  0  0  0  0
  162.6790  207.3950  148.2770 C   0  0  0  0  0  3  0  0  0  0  0  0
  160.8510  205.2700  150.5660 N   0  0  0  0  0  0  0  0  0  0  0  0
  161.0420  202.5550  147.3020 N   0  0  0  0  0  0  0  0  0  0  0  0
  161.3050  206.2870  153.8910 O   0  0  0  0  0  0  0  0  0  0  0  0
  162.6750  206.6780  147.1240 N   0  0  0  0  0  0  0  0  0  0  0  0
  160.7710  206.3680  151.5180 C   0  0  1  0  0  3  0  0  0  0  0  0
  161.1990  205.7120  152.7760 C   0  0  0  0  0  0  0  0  0  0  0  0
  162.0160  204.9500  145.7270 C   0  0  0  0  0  0  0  0  0  0  0  0
  162.7060  205.6730  144.6110 C   0  0  0  0  0  1  0  0  0  0  0  0
  161.0180  203.6110  148.2700 C   0  0  0  0  0  3  0  0  0  0  0  0
  161.4430  204.2970  152.5510 C   0  0  0  0  0  3  0  0  0  0  0  0
  162.0210  206.8880  149.3790 C   0  0  0  0  0  0  0  0  0  0  0  0
  161.9530  207.6710  150.9820 S   0  0  0  0  0  0  0  0  0  0  0  0
  161.1610  203.8560  145.2550 C   0  0  0  0  0  3  0  0  0  0  0  0
  161.2420  204.0790  151.2580 C   0  0  0  0  0  3  0  0  0  0  0  0
  160.7270  202.8110  145.9370 C   0  0  0  0  0  3  0  0  0  0  0  0
  162.0630  205.4580  146.9840 C   0  0  0  0  0  0  0  0  0  0  0  0
  160.9630  201.1080  149.3160 C   0  0  0  0  0  1  0  0  0  0  0  0
  160.8280  201.1840  147.7980 C   0  0  2  0  0  3  0  0  0  0  0  0
  161.8190  200.2000  147.1740 C   0  0  0  0  0  2  0  0  0  0  0  0
  161.2060  199.4990  146.0100 C   0  0  0  0  0  0  0  0  0  0  0  0
  160.2190  200.1270  145.2620 O   0  0  0  0  0  0  0  0  0  0  0  0
  161.5650  198.3280  145.7210 O   0  0  0  0  0  1  0  0  0  0  0  0
  1 14  2  0  0  0  0
  1  4  1  0  0  0  0
  2 12  2  0  0  0  0
  2  1  1  0  0  0  0
  3 14  1  0  0  0  0
  4 17  1  0  0  0  0
  4  8  1  0  0  0  0
  5 21  1  0  0  0  0
  5 12  1  0  0  0  0
  7  3  2  0  0  0  0
  8 15  1  6  0  0  0
  8  9  1  0  0  0  0
  9  6  2  0  0  0  0
 10 19  2  0  0  0  0
 11 10  1  0  0  0  0
 13  9  1  0  0  0  0
 14 15  1  0  0  0  0
 16 10  1  0  0  0  0
 16 18  2  0  0  0  0
 17 13  2  0  0  0  0
 18  5  1  0  0  0  0
 19  7  1  0  0  0  0
 19  2  1  0  0  0  0
 21 20  1  1  0  0  0
 22 21  1  0  0  0  0
 23 22  1  0  0  0  0
 24 23  2  0  0  0  0
 25 23  1  0  0  0  0
M  END
>  <MODEL>
8

>  <REMARK>
 VINA RESULT:      -7.0      3.520      7.865
  Name = 
  3 active torsions:
  status: ('A' for Active; 'I' for Inactive)
    1  A    between atoms: C_2  and  C_15
    2  A    between atoms: N_6  and  C_25
    3  A    between atoms: C_15  and  C_25
                            x       y       z     vdW  Elec       q    Type
                         _______ _______ _______ _____ _____    ______ ____

>  <TORSDO>
F 3

$$$$
=
 OpenBabel11052422213D

 25 28  0  0  1  0  0  0  0  0999 V2000
  160.7020  209.6300  154.2070 C   0  0  0  0  0  0  0  0  0  0  0  0
  161.0710  208.7120  153.1980 C   0  0  0  0  0  0  0  0  0  0  0  0
  160.0020  207.8650  155.6510 C   0  0  0  0  0  3  0  0  0  0  0  0
  160.7640  211.0490  154.1070 N   0  0  0  0  0  0  0  0  0  0  0  0
  161.6690  208.5720  150.7750 N   0  0  0  0  0  0  0  0  0  0  0  0
  159.1620  213.6890  155.7680 O   0  0  0  0  0  0  0  0  0  0  0  0
  160.3990  206.9680  154.7130 N   0  0  0  0  0  0  0  0  0  0  0  0
  160.5350  211.7180  155.3800 C   0  0  1  0  0  3  0  0  0  0  0  0
  159.6450  212.8340  154.9810 C   0  0  0  0  0  0  0  0  0  0  0  0
  161.4490  206.2960  152.7590 C   0  0  0  0  0  0  0  0  0  0  0  0
  161.2510  204.8830  153.2130 C   0  0  0  0  0  1  0  0  0  0  0  0
  161.3820  209.2430  152.0070 C   0  0  0  0  0  3  0  0  0  0  0  0
  159.4400  212.8280  153.5430 C   0  0  0  0  0  3  0  0  0  0  0  0
  160.1850  209.2110  155.4040 C   0  0  0  0  0  0  0  0  0  0  0  0
  159.6920  210.5300  156.5020 S   0  0  0  0  0  0  0  0  0  0  0  0
  162.3690  206.4060  151.6230 C   0  0  0  0  0  3  0  0  0  0  0  0
  160.0930  211.7740  153.0710 C   0  0  0  0  0  3  0  0  0  0  0  0
  162.4750  207.3980  150.7550 C   0  0  0  0  0  3  0  0  0  0  0  0
  160.9650  207.3150  153.5120 C   0  0  0  0  0  0  0  0  0  0  0  0
  162.3470  208.6870  148.3910 C   0  0  0  0  0  1  0  0  0  0  0  0
  161.6250  209.3800  149.5430 C   0  0  2  0  0  3  0  0  0  0  0  0
  162.2560  210.7570  149.7520 C   0  0  0  0  0  2  0  0  0  0  0  0
  162.1610  211.5760  148.5110 C   0  0  0  0  0  0  0  0  0  0  0  0
  163.2980  212.1760  147.9850 O   0  0  0  0  0  1  0  0  0  0  0  0
  161.0460  211.7460  147.9520 O   0  0  0  0  0  0  0  0  0  0  0  0
  1 14  2  0  0  0  0
  2 19  1  0  0  0  0
  2  1  1  0  0  0  0
  4  1  1  0  0  0  0
  4  8  1  0  0  0  0
  5 12  1  0  0  0  0
  7  3  2  0  0  0  0
  8  9  1  6  0  0  0
  8 15  1  0  0  0  0
  9  6  2  0  0  0  0
 10 11  1  0  0  0  0
 10 19  2  0  0  0  0
 12  2  2  0  0  0  0
 13  9  1  0  0  0  0
 14  3  1  0  0  0  0
 14 15  1  0  0  0  0
 16 10  1  0  0  0  0
 17 13  2  0  0  0  0
 17  4  1  0  0  0  0
 18  5  1  0  0  0  0
 18 16  2  0  0  0  0
 19  7  1  0  0  0  0
 21 20  1  6  0  0  0
 21 22  1  0  0  0  0
 21  5  1  0  0  0  0
 23 22  1  0  0  0  0
 24 23  1  0  0  0  0
 25 23  2  0  0  0  0
M  END
>  <MODEL>
9

>  <REMARK>
 VINA RESULT:      -6.9      3.363      6.224
  Name = 
  3 active torsions:
  status: ('A' for Active; 'I' for Inactive)
    1  A    between atoms: C_2  and  C_15
    2  A    between atoms: N_6  and  C_25
    3  A    between atoms: C_15  and  C_25
                            x       y       z     vdW  Elec       q    Type
                         _______ _______ _______ _____ _____    ______ ____

>  <TORSDO>
F 3

$$$$
