=
 OpenBabel11052422253D

 31 35  0  0  1  0  0  0  0  0999 V2000
  161.8650  210.4730  149.3220 C   0  0  2  0  0  3  0  0  0  0  0  0
  161.0850  208.2330  152.3240 N   0  0  0  0  0  0  0  0  0  0  0  0
  160.5700  209.1130  153.3570 C   0  0  0  0  0  0  0  0  0  0  0  0
  159.2360  211.2540  153.7710 C   0  0  0  0  0  3  0  0  0  0  0  0
  161.1750  208.6730  150.9130 C   0  0  1  0  0  3  0  0  0  0  0  0
  162.4700  209.4240  148.3860 C   0  0  0  0  0  2  0  0  0  0  0  0
  159.8820  210.1990  152.9830 C   0  0  0  0  0  3  0  0  0  0  0  0
  161.6280  205.8020  151.6380 C   0  0  1  0  0  3  0  0  0  0  0  0
  162.5650  211.6710  149.1930 O   0  0  0  0  0  1  0  0  0  0  0  0
  161.2100  207.4590  155.0020 C   0  0  0  0  0  3  0  0  0  0  0  0
  159.2940  211.4740  155.0780 C   0  0  0  0  0  3  0  0  0  0  0  0
  161.2610  206.2870  150.2410 C   0  0  0  0  0  2  0  0  0  0  0  0
  161.3530  206.8560  152.6880 C   0  0  0  0  0  0  0  0  0  0  0  0
  161.9250  210.0010  150.7750 C   0  0  0  0  0  2  0  0  0  0  0  0
  160.0120  210.7080  156.0950 C   0  0  0  0  0  3  0  0  0  0  0  0
  161.8800  207.6460  150.0250 C   0  0  1  0  0  3  0  0  0  0  0  0
  161.7770  208.0740  148.5670 C   0  0  0  0  0  2  0  0  0  0  0  0
  161.4430  206.5260  153.9420 N   0  0  0  0  0  0  0  0  0  0  0  0
  160.7760  208.6980  154.7690 C   0  0  0  0  0  0  0  0  0  0  0  0
  160.6280  209.5390  155.9630 C   0  0  0  0  0  3  0  0  0  0  0  0
  160.8730  204.5150  151.9490 C   0  0  0  0  0  2  0  0  0  0  0  0
  161.7350  202.3050  152.0900 O   0  0  0  0  0  1  0  0  0  0  0  0
  161.4650  203.3370  151.1920 C   0  0  1  0  0  3  0  0  0  0  0  0
  160.5230  202.8700  150.1830 N   0  0  0  0  0  2  0  0  0  0  0  0
  161.6480  203.9340  146.7740 C   0  0  0  0  0  0  0  0  0  0  0  0
  160.7850  201.6760  146.6630 C   0  0  0  0  0  3  0  0  0  0  0  0
  162.2110  205.0390  146.1470 O   0  0  0  0  0  1  0  0  0  0  0  0
  161.3800  203.9700  148.1440 C   0  0  0  0  0  3  0  0  0  0  0  0
  160.5160  201.7110  148.0350 C   0  0  0  0  0  3  0  0  0  0  0  0
  160.8130  202.8560  148.7820 C   0  0  0  0  0  0  0  0  0  0  0  0
  161.3520  202.7870  146.0330 C   0  0  0  0  0  3  0  0  0  0  0  0
  1  9  1  1  0  0  0
  1 14  1  0  0  0  0
  2 13  1  0  0  0  0
  2  3  1  0  0  0  0
  3 19  1  0  0  0  0
  4 11  2  0  0  0  0
  5 14  1  1  0  0  0
  5  2  1  0  0  0  0
  6 17  1  0  0  0  0
  6  1  1  0  0  0  0
  7  3  2  0  0  0  0
  7  4  1  0  0  0  0
  8 21  1  1  0  0  0
  8 13  1  0  0  0  0
 11 15  1  0  0  0  0
 12  8  1  0  0  0  0
 13 18  2  0  0  0  0
 16 17  1  6  0  0  0
 16 12  1  0  0  0  0
 16  5  1  0  0  0  0
 18 10  1  0  0  0  0
 19 10  2  0  0  0  0
 19 20  1  0  0  0  0
 20 15  2  0  0  0  0
 23 21  1  0  0  0  0
 23 22  1  1  0  0  0
 24 23  1  0  0  0  0
 25 28  1  0  0  0  0
 26 29  2  0  0  0  0
 27 25  1  0  0  0  0
 28 30  2  0  0  0  0
 29 30  1  0  0  0  0
 30 24  1  0  0  0  0
 31 26  1  0  0  0  0
 31 25  2  0  0  0  0
M  END
>  <MODEL>
1

>  <REMARK>
 VINA RESULT:      -9.5      0.000      0.000
  Name = 
  4 active torsions:
  status: ('A' for Active; 'I' for Inactive)
    1  A    between atoms: N_3  and  C_9
    2  A    between atoms: N_3  and  C_22
    3  A    between atoms: C_9  and  C_23
    4  A    between atoms: C_15  and  C_23
                            x       y       z     vdW  Elec       q    Type
                         _______ _______ _______ _____ _____    ______ ____

>  <TORSDO>
F 4

$$$$
=
 OpenBabel11052422253D

 31 35  0  0  1  0  0  0  0  0999 V2000
  161.8930  210.0980  149.3730 C   0  0  2  0  0  3  0  0  0  0  0  0
  161.1430  207.5390  152.1170 N   0  0  0  0  0  0  0  0  0  0  0  0
  160.8290  208.3080  153.3070 C   0  0  0  0  0  0  0  0  0  0  0  0
  159.7930  210.4910  154.1430 C   0  0  0  0  0  3  0  0  0  0  0  0
  161.1510  208.1660  150.7750 C   0  0  1  0  0  3  0  0  0  0  0  0
  162.2850  209.1390  148.2460 C   0  0  0  0  0  2  0  0  0  0  0  0
  160.2380  209.5010  153.1560 C   0  0  0  0  0  3  0  0  0  0  0  0
  161.3380  205.1900  151.0590 C   0  0  1  0  0  3  0  0  0  0  0  0
  162.7110  211.2260  149.3300 O   0  0  0  0  0  1  0  0  0  0  0  0
  161.4240  206.3800  154.6380 C   0  0  0  0  0  3  0  0  0  0  0  0
  159.9960  210.5140  155.4530 C   0  0  0  0  0  3  0  0  0  0  0  0
  160.9010  205.9050  149.7870 C   0  0  0  0  0  2  0  0  0  0  0  0
  161.2830  206.1040  152.2630 C   0  0  0  0  0  0  0  0  0  0  0  0
  162.0330  209.4180  150.7350 C   0  0  0  0  0  2  0  0  0  0  0  0
  160.7130  209.5420  156.2760 C   0  0  0  0  0  3  0  0  0  0  0  0
  161.6490  207.2120  149.6880 C   0  0  1  0  0  3  0  0  0  0  0  0
  161.4620  207.8530  148.3190 C   0  0  0  0  0  2  0  0  0  0  0  0
  161.4500  205.5900  153.4450 N   0  0  0  0  0  0  0  0  0  0  0  0
  161.1160  207.6770  154.6210 C   0  0  0  0  0  0  0  0  0  0  0  0
  161.1760  208.3480  155.9240 C   0  0  0  0  0  3  0  0  0  0  0  0
  160.4720  203.9540  151.2760 C   0  0  0  0  0  2  0  0  0  0  0  0
  160.1600  201.6770  150.6720 O   0  0  0  0  0  1  0  0  0  0  0  0
  161.0240  202.7590  150.5150 C   0  0  1  0  0  3  0  0  0  0  0  0
  161.1460  203.0830  149.0990 N   0  0  0  0  0  2  0  0  0  0  0  0
  160.4820  201.4220  145.8100 C   0  0  0  0  0  0  0  0  0  0  0  0
  161.5440  199.8430  147.3050 C   0  0  0  0  0  3  0  0  0  0  0  0
  159.9290  201.7220  144.5710 O   0  0  0  0  0  1  0  0  0  0  0  0
  160.5310  202.3990  146.8070 C   0  0  0  0  0  3  0  0  0  0  0  0
  161.5940  200.8200  148.3030 C   0  0  0  0  0  3  0  0  0  0  0  0
  161.0890  202.1030  148.0600 C   0  0  0  0  0  0  0  0  0  0  0  0
  160.9890  200.1440  146.0580 C   0  0  0  0  0  3  0  0  0  0  0  0
  1  9  1  1  0  0  0
  1 14  1  0  0  0  0
  2 13  1  0  0  0  0
  2  3  1  0  0  0  0
  3 19  1  0  0  0  0
  4 11  2  0  0  0  0
  5 14  1  1  0  0  0
  5  2  1  0  0  0  0
  6 17  1  0  0  0  0
  6  1  1  0  0  0  0
  7  3  2  0  0  0  0
  7  4  1  0  0  0  0
  8 21  1  1  0  0  0
  8 13  1  0  0  0  0
 11 15  1  0  0  0  0
 12  8  1  0  0  0  0
 13 18  2  0  0  0  0
 16 17  1  6  0  0  0
 16 12  1  0  0  0  0
 16  5  1  0  0  0  0
 18 10  1  0  0  0  0
 19 10  2  0  0  0  0
 19 20  1  0  0  0  0
 20 15  2  0  0  0  0
 23 22  1  6  0  0  0
 23 21  1  0  0  0  0
 24 23  1  0  0  0  0
 25 31  2  0  0  0  0
 25 28  1  0  0  0  0
 26 29  2  0  0  0  0
 27 25  1  0  0  0  0
 28 30  2  0  0  0  0
 30 29  1  0  0  0  0
 30 24  1  0  0  0  0
 31 26  1  0  0  0  0
M  END
>  <MODEL>
2

>  <REMARK>
 VINA RESULT:      -7.9      1.260      1.511
  Name = 
  4 active torsions:
  status: ('A' for Active; 'I' for Inactive)
    1  A    between atoms: N_3  and  C_9
    2  A    between atoms: N_3  and  C_22
    3  A    between atoms: C_9  and  C_23
    4  A    between atoms: C_15  and  C_23
                            x       y       z     vdW  Elec       q    Type
                         _______ _______ _______ _____ _____    ______ ____

>  <TORSDO>
F 4

$$$$
=
 OpenBabel11052422253D

 31 35  0  0  1  0  0  0  0  0999 V2000
  160.9770  207.4600  154.0710 C   0  0  2  0  0  3  0  0  0  0  0  0
  161.5260  207.6820  150.2910 N   0  0  0  0  0  0  0  0  0  0  0  0
  161.3130  206.3420  149.7760 C   0  0  0  0  0  0  0  0  0  0  0  0
  159.9930  204.1800  150.1220 C   0  0  0  0  0  3  0  0  0  0  0  0
  161.0730  208.0660  151.6480 C   0  0  1  0  0  3  0  0  0  0  0  0
  161.3240  208.9010  154.4520 C   0  0  0  0  0  2  0  0  0  0  0  0
  160.4300  205.5520  150.4010 C   0  0  0  0  0  3  0  0  0  0  0  0
  162.0440  210.1490  149.7280 C   0  0  1  0  0  3  0  0  0  0  0  0
  161.4610  206.5910  155.0470 O   0  0  0  0  0  1  0  0  0  0  0  0
  162.6520  206.9330  147.8510 C   0  0  0  0  0  3  0  0  0  0  0  0
  160.4790  203.3110  149.2460 C   0  0  0  0  0  3  0  0  0  0  0  0
  161.1660  210.4410  150.9380 C   0  0  0  0  0  2  0  0  0  0  0  0
  162.0440  208.6790  149.3750 C   0  0  0  0  0  0  0  0  0  0  0  0
  161.5870  207.0970  152.7170 C   0  0  0  0  0  2  0  0  0  0  0  0
  161.5810  203.4930  148.3040 C   0  0  0  0  0  3  0  0  0  0  0  0
  161.5270  209.4730  152.0390 C   0  0  1  0  0  3  0  0  0  0  0  0
  160.8810  209.8720  153.3580 C   0  0  0  0  0  2  0  0  0  0  0  0
  162.5970  208.3040  148.2610 N   0  0  0  0  0  0  0  0  0  0  0  0
  162.0390  205.9670  148.5350 C   0  0  0  0  0  0  0  0  0  0  0  0
  162.2290  204.6120  148.0030 C   0  0  0  0  0  3  0  0  0  0  0  0
  161.5810  210.9920  148.5440 C   0  0  0  0  0  2  0  0  0  0  0  0
  163.4210  212.3530  147.9030 O   0  0  0  0  0  1  0  0  0  0  0  0
  162.2040  212.3780  148.5830 C   0  0  1  0  0  3  0  0  0  0  0  0
  161.3130  213.3420  147.9500 N   0  0  0  0  0  2  0  0  0  0  0  0
  157.7290  212.7140  147.0680 C   0  0  0  0  0  0  0  0  0  0  0  0
  157.8530  213.6520  149.2950 C   0  0  0  0  0  3  0  0  0  0  0  0
  156.9750  212.2200  146.0110 O   0  0  0  0  0  1  0  0  0  0  0  0
  159.1210  212.7710  146.9660 C   0  0  0  0  0  3  0  0  0  0  0  0
  159.2460  213.7090  149.1950 C   0  0  0  0  0  3  0  0  0  0  0  0
  159.8870  213.2680  148.0310 C   0  0  0  0  0  0  0  0  0  0  0  0
  157.0940  213.1540  148.2320 C   0  0  0  0  0  3  0  0  0  0  0  0
  1  6  1  0  0  0  0
  1  9  1  1  0  0  0
  2  5  1  0  0  0  0
  3  2  1  0  0  0  0
  3  7  2  0  0  0  0
  4  7  1  0  0  0  0
  5 16  1  0  0  0  0
  5 14  1  1  0  0  0
  8 21  1  6  0  0  0
  8 12  1  0  0  0  0
 10 18  1  0  0  0  0
 10 19  2  0  0  0  0
 11  4  2  0  0  0  0
 13  8  1  0  0  0  0
 13  2  1  0  0  0  0
 14  1  1  0  0  0  0
 15 11  1  0  0  0  0
 16 12  1  6  0  0  0
 16 17  1  0  0  0  0
 17  6  1  0  0  0  0
 18 13  2  0  0  0  0
 19  3  1  0  0  0  0
 20 15  2  0  0  0  0
 20 19  1  0  0  0  0
 21 23  1  0  0  0  0
 23 22  1  6  0  0  0
 24 30  1  0  0  0  0
 24 23  1  0  0  0  0
 25 31  1  0  0  0  0
 27 25  1  0  0  0  0
 28 25  2  0  0  0  0
 28 30  1  0  0  0  0
 29 26  1  0  0  0  0
 30 29  2  0  0  0  0
 31 26  2  0  0  0  0
M  END
>  <MODEL>
3

>  <REMARK>
 VINA RESULT:      -7.5      3.113      7.993
  Name = 
  4 active torsions:
  status: ('A' for Active; 'I' for Inactive)
    1  A    between atoms: N_3  and  C_9
    2  A    between atoms: N_3  and  C_22
    3  A    between atoms: C_9  and  C_23
    4  A    between atoms: C_15  and  C_23
                            x       y       z     vdW  Elec       q    Type
                         _______ _______ _______ _____ _____    ______ ____

>  <TORSDO>
F 4

$$$$
=
 OpenBabel11052422253D

 31 35  0  0  1  0  0  0  0  0999 V2000
  160.3960  209.4700  154.9420 C   0  0  2  0  0  3  0  0  0  0  0  0
  161.3840  207.7010  151.6960 N   0  0  0  0  0  0  0  0  0  0  0  0
  161.7570  208.7500  150.7660 C   0  0  0  0  0  0  0  0  0  0  0  0
  162.7940  211.0800  150.5860 C   0  0  0  0  0  3  0  0  0  0  0  0
  161.2730  207.9650  153.1490 C   0  0  1  0  0  3  0  0  0  0  0  0
  159.9540  208.2530  155.7580 C   0  0  0  0  0  2  0  0  0  0  0  0
  162.3080  209.8690  151.2550 C   0  0  0  0  0  3  0  0  0  0  0  0
  161.1750  205.1590  152.1060 C   0  0  1  0  0  3  0  0  0  0  0  0
  159.5510  210.5450  155.2140 O   0  0  0  0  0  1  0  0  0  0  0  0
  161.2950  207.2220  148.9490 C   0  0  0  0  0  3  0  0  0  0  0  0
  162.6760  211.4360  149.3130 C   0  0  0  0  0  3  0  0  0  0  0  0
  161.5110  205.5280  153.5450 C   0  0  0  0  0  2  0  0  0  0  0  0
  161.2870  206.3500  151.1810 C   0  0  0  0  0  0  0  0  0  0  0  0
  160.3620  209.1600  153.4450 C   0  0  0  0  0  2  0  0  0  0  0  0
  162.0370  210.7020  148.2220 C   0  0  0  0  0  3  0  0  0  0  0  0
  160.7270  206.7620  153.9210 C   0  0  1  0  0  3  0  0  0  0  0  0
  160.8100  207.0340  155.4170 C   0  0  0  0  0  2  0  0  0  0  0  0
  161.2090  206.1540  149.8980 N   0  0  0  0  0  0  0  0  0  0  0  0
  161.5710  208.4730  149.3180 C   0  0  0  0  0  0  0  0  0  0  0  0
  161.5800  209.4550  148.2260 C   0  0  0  0  0  3  0  0  0  0  0  0
  162.0820  204.0240  151.6430 C   0  0  0  0  0  2  0  0  0  0  0  0
  160.4490  202.4890  152.4330 O   0  0  0  0  0  1  0  0  0  0  0  0
  161.2780  202.7680  151.3480 C   0  0  1  0  0  3  0  0  0  0  0  0
  160.4670  202.9640  150.1530 N   0  0  0  0  0  2  0  0  0  0  0  0
  161.1140  202.4570  146.5000 C   0  0  0  0  0  0  0  0  0  0  0  0
  161.2060  200.3210  147.6330 C   0  0  0  0  0  3  0  0  0  0  0  0
  161.2040  203.2050  145.3320 O   0  0  0  0  0  1  0  0  0  0  0  0
  160.8410  203.0910  147.7150 C   0  0  0  0  0  3  0  0  0  0  0  0
  160.9330  200.9540  148.8500 C   0  0  0  0  0  3  0  0  0  0  0  0
  160.7510  202.3400  148.8970 C   0  0  0  0  0  0  0  0  0  0  0  0
  161.2970  201.0730  146.4590 C   0  0  0  0  0  3  0  0  0  0  0  0
  1  9  1  6  0  0  0
  1  6  1  0  0  0  0
  2  5  1  0  0  0  0
  3  7  2  0  0  0  0
  3  2  1  0  0  0  0
  4  7  1  0  0  0  0
  5 14  1  6  0  0  0
  5 16  1  0  0  0  0
  8 21  1  6  0  0  0
  8 12  1  0  0  0  0
 10 19  2  0  0  0  0
 10 18  1  0  0  0  0
 11  4  2  0  0  0  0
 13  2  1  0  0  0  0
 13  8  1  0  0  0  0
 14  1  1  0  0  0  0
 15 20  2  0  0  0  0
 15 11  1  0  0  0  0
 16 12  1  1  0  0  0
 16 17  1  0  0  0  0
 17  6  1  0  0  0  0
 18 13  2  0  0  0  0
 19  3  1  0  0  0  0
 20 19  1  0  0  0  0
 23 21  1  0  0  0  0
 23 22  1  1  0  0  0
 24 23  1  0  0  0  0
 25 28  1  0  0  0  0
 26 29  2  0  0  0  0
 27 25  1  0  0  0  0
 28 30  2  0  0  0  0
 29 30  1  0  0  0  0
 30 24  1  0  0  0  0
 31 25  2  0  0  0  0
 31 26  1  0  0  0  0
M  END
>  <MODEL>
4

>  <REMARK>
 VINA RESULT:      -7.4      1.736      4.239
  Name = 
  4 active torsions:
  status: ('A' for Active; 'I' for Inactive)
    1  A    between atoms: N_3  and  C_9
    2  A    between atoms: N_3  and  C_22
    3  A    between atoms: C_9  and  C_23
    4  A    between atoms: C_15  and  C_23
                            x       y       z     vdW  Elec       q    Type
                         _______ _______ _______ _____ _____    ______ ____

>  <TORSDO>
F 4

$$$$
=
 OpenBabel11052422253D

 31 35  0  0  1  0  0  0  0  0999 V2000
  161.0530  207.4660  154.1510 C   0  0  2  0  0  3  0  0  0  0  0  0
  161.5020  207.8060  150.3660 N   0  0  0  0  0  0  0  0  0  0  0  0
  161.3000  206.4770  149.8180 C   0  0  0  0  0  0  0  0  0  0  0  0
  160.0280  204.2830  150.1340 C   0  0  0  0  0  3  0  0  0  0  0  0
  161.0770  208.1430  151.7440 C   0  0  1  0  0  3  0  0  0  0  0  0
  161.3840  208.9020  154.5650 C   0  0  0  0  0  2  0  0  0  0  0  0
  160.4470  205.6540  150.4420 C   0  0  0  0  0  3  0  0  0  0  0  0
  161.9620  210.2980  149.8620 C   0  0  1  0  0  3  0  0  0  0  0  0
  161.5770  206.5790  155.0890 O   0  0  0  0  0  1  0  0  0  0  0  0
  162.5800  207.1480  147.8790 C   0  0  0  0  0  3  0  0  0  0  0  0
  160.5060  203.4480  149.2220 C   0  0  0  0  0  3  0  0  0  0  0  0
  161.1100  210.5380  151.1020 C   0  0  0  0  0  2  0  0  0  0  0  0
  161.9790  208.8380  149.4670 C   0  0  0  0  0  0  0  0  0  0  0  0
  161.6350  207.1540  152.7720 C   0  0  0  0  0  2  0  0  0  0  0  0
  161.5810  203.6770  148.2580 C   0  0  0  0  0  3  0  0  0  0  0  0
  161.5160  209.5470  152.1650 C   0  0  1  0  0  3  0  0  0  0  0  0
  160.8960  209.8950  153.5110 C   0  0  0  0  0  2  0  0  0  0  0  0
  162.5110  208.5050  148.3290 N   0  0  0  0  0  0  0  0  0  0  0  0
  162.0010  206.1510  148.5490 C   0  0  0  0  0  0  0  0  0  0  0  0
  162.2020  204.8160  147.9740 C   0  0  0  0  0  3  0  0  0  0  0  0
  161.4540  211.1650  148.7150 C   0  0  0  0  0  2  0  0  0  0  0  0
  163.5370  211.9030  147.8390 O   0  0  0  0  0  1  0  0  0  0  0  0
  162.3780  212.3480  148.4740 C   0  0  1  0  0  3  0  0  0  0  0  0
  161.7130  213.3360  147.6340 N   0  0  0  0  0  2  0  0  0  0  0  0
  160.2050  212.7720  144.2540 C   0  0  0  0  0  0  0  0  0  0  0  0
  162.5750  213.2000  144.0130 C   0  0  0  0  0  3  0  0  0  0  0  0
  158.9690  212.4900  143.6860 O   0  0  0  0  0  1  0  0  0  0  0  0
  160.3210  212.9100  145.6400 C   0  0  0  0  0  3  0  0  0  0  0  0
  162.6910  213.3390  145.3990 C   0  0  0  0  0  3  0  0  0  0  0  0
  161.5660  213.1960  146.2190 C   0  0  0  0  0  0  0  0  0  0  0  0
  161.3310  212.9180  143.4410 C   0  0  0  0  0  3  0  0  0  0  0  0
  1  6  1  0  0  0  0
  1  9  1  1  0  0  0
  2  5  1  0  0  0  0
  3  2  1  0  0  0  0
  3  7  2  0  0  0  0
  4  7  1  0  0  0  0
  5 16  1  0  0  0  0
  5 14  1  1  0  0  0
  8 21  1  6  0  0  0
  8 12  1  0  0  0  0
 10 18  1  0  0  0  0
 10 19  2  0  0  0  0
 11  4  2  0  0  0  0
 13  8  1  0  0  0  0
 13  2  1  0  0  0  0
 14  1  1  0  0  0  0
 15 11  1  0  0  0  0
 16 12  1  6  0  0  0
 16 17  1  0  0  0  0
 17  6  1  0  0  0  0
 18 13  2  0  0  0  0
 19  3  1  0  0  0  0
 20 15  2  0  0  0  0
 20 19  1  0  0  0  0
 23 22  1  6  0  0  0
 23 21  1  0  0  0  0
 24 23  1  0  0  0  0
 25 28  1  0  0  0  0
 26 29  2  0  0  0  0
 27 25  1  0  0  0  0
 28 30  2  0  0  0  0
 29 30  1  0  0  0  0
 30 24  1  0  0  0  0
 31 26  1  0  0  0  0
 31 25  2  0  0  0  0
M  END
>  <MODEL>
5

>  <REMARK>
 VINA RESULT:      -7.0      3.310      7.886
  Name = 
  4 active torsions:
  status: ('A' for Active; 'I' for Inactive)
    1  A    between atoms: N_3  and  C_9
    2  A    between atoms: N_3  and  C_22
    3  A    between atoms: C_9  and  C_23
    4  A    between atoms: C_15  and  C_23
                            x       y       z     vdW  Elec       q    Type
                         _______ _______ _______ _____ _____    ______ ____

>  <TORSDO>
F 4

$$$$
=
 OpenBabel11052422253D

 31 35  0  0  1  0  0  0  0  0999 V2000
  161.0770  204.8570  149.7280 C   0  0  2  0  0  3  0  0  0  0  0  0
  161.3140  208.4060  151.1380 N   0  0  0  0  0  0  0  0  0  0  0  0
  161.1420  208.2790  152.5730 C   0  0  0  0  0  0  0  0  0  0  0  0
  161.5580  206.7470  154.5770 C   0  0  0  0  0  3  0  0  0  0  0  0
  161.6240  207.2300  150.2930 C   0  0  1  0  0  3  0  0  0  0  0  0
  161.1840  205.1800  148.2360 C   0  0  0  0  0  2  0  0  0  0  0  0
  161.5760  207.1610  153.1700 C   0  0  0  0  0  3  0  0  0  0  0  0
  161.7800  209.9970  149.1570 C   0  0  1  0  0  3  0  0  0  0  0  0
  160.1610  203.8240  149.9160 O   0  0  0  0  0  1  0  0  0  0  0  0
  160.4480  210.5950  152.6350 C   0  0  0  0  0  3  0  0  0  0  0  0
  160.9670  207.3290  155.6120 C   0  0  0  0  0  3  0  0  0  0  0  0
  162.4770  208.7820  148.5560 C   0  0  0  0  0  2  0  0  0  0  0  0
  161.3390  209.7430  150.5810 C   0  0  0  0  0  0  0  0  0  0  0  0
  160.6290  206.0870  150.5170 C   0  0  0  0  0  2  0  0  0  0  0  0
  160.1780  208.5590  155.6310 C   0  0  0  0  0  3  0  0  0  0  0  0
  161.6180  207.5650  148.8000 C   0  0  1  0  0  3  0  0  0  0  0  0
  162.1190  206.3670  148.0040 C   0  0  0  0  0  2  0  0  0  0  0  0
  160.8960  210.7430  151.2840 N   0  0  0  0  0  0  0  0  0  0  0  0
  160.5620  209.4420  153.2950 C   0  0  0  0  0  0  0  0  0  0  0  0
  160.0160  209.4480  154.6570 C   0  0  0  0  0  3  0  0  0  0  0  0
  162.7050  211.2070  149.0810 C   0  0  0  0  0  2  0  0  0  0  0  0
  163.0250  213.2350  147.8840 O   0  0  0  0  0  1  0  0  0  0  0  0
  162.0420  212.3550  148.3370 C   0  0  1  0  0  3  0  0  0  0  0  0
  161.2870  211.8430  147.2010 N   0  0  0  0  0  2  0  0  0  0  0  0
  157.9310  213.5040  147.1860 C   0  0  0  0  0  0  0  0  0  0  0  0
  158.5810  212.9900  144.9120 C   0  0  0  0  0  3  0  0  0  0  0  0
  157.0140  214.0330  148.0850 O   0  0  0  0  0  1  0  0  0  0  0  0
  159.1270  212.9530  147.6520 C   0  0  0  0  0  3  0  0  0  0  0  0
  159.7780  212.4390  145.3780 C   0  0  0  0  0  3  0  0  0  0  0  0
  160.0580  212.4180  146.7480 C   0  0  0  0  0  0  0  0  0  0  0  0
  157.6580  213.5230  145.8160 C   0  0  0  0  0  3  0  0  0  0  0  0
  1  9  1  6  0  0  0
  1 14  1  0  0  0  0
  2  3  1  0  0  0  0
  3  7  2  0  0  0  0
  3 19  1  0  0  0  0
  4 11  2  0  0  0  0
  5 14  1  6  0  0  0
  5  2  1  0  0  0  0
  6  1  1  0  0  0  0
  7  4  1  0  0  0  0
  8 21  1  1  0  0  0
  8 13  1  0  0  0  0
 10 19  2  0  0  0  0
 11 15  1  0  0  0  0
 12 16  1  0  0  0  0
 12  8  1  0  0  0  0
 13  2  1  0  0  0  0
 13 18  2  0  0  0  0
 16 17  1  6  0  0  0
 16  5  1  0  0  0  0
 17  6  1  0  0  0  0
 18 10  1  0  0  0  0
 19 20  1  0  0  0  0
 20 15  2  0  0  0  0
 23 22  1  6  0  0  0
 23 21  1  0  0  0  0
 24 23  1  0  0  0  0
 25 28  1  0  0  0  0
 25 27  1  0  0  0  0
 26 29  2  0  0  0  0
 26 31  1  0  0  0  0
 29 30  1  0  0  0  0
 30 24  1  0  0  0  0
 30 28  2  0  0  0  0
 31 25  2  0  0  0  0
M  END
>  <MODEL>
6

>  <REMARK>
 VINA RESULT:      -6.9      3.007      6.878
  Name = 
  4 active torsions:
  status: ('A' for Active; 'I' for Inactive)
    1  A    between atoms: N_3  and  C_9
    2  A    between atoms: N_3  and  C_22
    3  A    between atoms: C_9  and  C_23
    4  A    between atoms: C_15  and  C_23
                            x       y       z     vdW  Elec       q    Type
                         _______ _______ _______ _____ _____    ______ ____

>  <TORSDO>
F 4

$$$$
=
 OpenBabel11052422253D

 31 35  0  0  1  0  0  0  0  0999 V2000
  160.9660  201.7900  150.5050 C   0  0  2  0  0  3  0  0  0  0  0  0
  161.3700  205.3360  149.1260 N   0  0  0  0  0  0  0  0  0  0  0  0
  161.3070  205.2130  147.6810 C   0  0  0  0  0  0  0  0  0  0  0  0
  160.2700  203.8780  145.7640 C   0  0  0  0  0  3  0  0  0  0  0  0
  160.9150  204.2400  150.0120 C   0  0  1  0  0  3  0  0  0  0  0  0
  161.1460  202.0860  151.9950 C   0  0  0  0  0  2  0  0  0  0  0  0
  160.5450  204.2440  147.1570 C   0  0  0  0  0  3  0  0  0  0  0  0
  161.5680  206.9340  151.1460 C   0  0  1  0  0  3  0  0  0  0  0  0
  161.5810  200.5780  150.1930 O   0  0  0  0  0  1  0  0  0  0  0  0
  162.5060  207.3070  147.5110 C   0  0  0  0  0  3  0  0  0  0  0  0
  160.8310  204.3360  144.6530 C   0  0  0  0  0  3  0  0  0  0  0  0
  160.6980  205.8970  151.8450 C   0  0  0  0  0  2  0  0  0  0  0  0
  161.7360  206.6260  149.6750 C   0  0  0  0  0  0  0  0  0  0  0  0
  161.5750  202.9050  149.6540 C   0  0  0  0  0  2  0  0  0  0  0  0
  161.8750  205.3510  144.5170 C   0  0  0  0  0  3  0  0  0  0  0  0
  161.2070  204.5220  151.4870 C   0  0  1  0  0  3  0  0  0  0  0  0
  160.5560  203.4500  152.3510 C   0  0  0  0  0  2  0  0  0  0  0  0
  162.2980  207.5160  148.9110 N   0  0  0  0  0  0  0  0  0  0  0  0
  162.0360  206.2310  146.8800 C   0  0  0  0  0  0  0  0  0  0  0  0
  162.3730  206.1490  145.4530 C   0  0  0  0  0  3  0  0  0  0  0  0
  160.9720  208.3230  151.3460 C   0  0  0  0  0  2  0  0  0  0  0  0
  162.4610  210.1620  151.1250 O   0  0  0  0  0  1  0  0  0  0  0  0
  161.9560  209.2450  152.0470 C   0  0  1  0  0  3  0  0  0  0  0  0
  161.2870  209.9590  153.1270 N   0  0  0  0  0  2  0  0  0  0  0  0
  160.7630  208.0720  156.3180 C   0  0  0  0  0  0  0  0  0  0  0  0
  162.2200  209.9590  156.7340 C   0  0  0  0  0  3  0  0  0  0  0  0
  160.0810  206.9530  156.7800 O   0  0  0  0  0  1  0  0  0  0  0  0
  160.6760  208.4350  154.9720 C   0  0  0  0  0  3  0  0  0  0  0  0
  162.1340  210.3230  155.3860 C   0  0  0  0  0  3  0  0  0  0  0  0
  161.3640  209.5630  154.4990 C   0  0  0  0  0  0  0  0  0  0  0  0
  161.5350  208.8330  157.1990 C   0  0  0  0  0  3  0  0  0  0  0  0
  1  9  1  6  0  0  0
  1  6  1  0  0  0  0
  2 13  1  0  0  0  0
  2  5  1  0  0  0  0
  3  2  1  0  0  0  0
  4  7  1  0  0  0  0
  5 14  1  6  0  0  0
  5 16  1  0  0  0  0
  6 17  1  0  0  0  0
  7  3  2  0  0  0  0
  8 21  1  6  0  0  0
  8 12  1  0  0  0  0
 10 18  1  0  0  0  0
 11  4  2  0  0  0  0
 13  8  1  0  0  0  0
 14  1  1  0  0  0  0
 15 11  1  0  0  0  0
 15 20  2  0  0  0  0
 16 12  1  1  0  0  0
 16 17  1  0  0  0  0
 18 13  2  0  0  0  0
 19 10  2  0  0  0  0
 19  3  1  0  0  0  0
 20 19  1  0  0  0  0
 21 23  1  0  0  0  0
 23 22  1  6  0  0  0
 23 24  1  0  0  0  0
 24 30  1  0  0  0  0
 25 27  1  0  0  0  0
 25 31  1  0  0  0  0
 26 31  2  0  0  0  0
 28 25  2  0  0  0  0
 29 26  1  0  0  0  0
 30 28  1  0  0  0  0
 30 29  2  0  0  0  0
M  END
>  <MODEL>
7

>  <REMARK>
 VINA RESULT:      -6.9      2.193      8.583
  Name = 
  4 active torsions:
  status: ('A' for Active; 'I' for Inactive)
    1  A    between atoms: N_3  and  C_9
    2  A    between atoms: N_3  and  C_22
    3  A    between atoms: C_9  and  C_23
    4  A    between atoms: C_15  and  C_23
                            x       y       z     vdW  Elec       q    Type
                         _______ _______ _______ _____ _____    ______ ____

>  <TORSDO>
F 4

$$$$
=
 OpenBabel11052422253D

 31 35  0  0  1  0  0  0  0  0999 V2000
  160.9560  201.8330  150.4910 C   0  0  2  0  0  3  0  0  0  0  0  0
  161.4350  205.3520  149.0680 N   0  0  0  0  0  0  0  0  0  0  0  0
  161.3530  205.2150  147.6250 C   0  0  0  0  0  0  0  0  0  0  0  0
  160.2630  203.8850  145.7340 C   0  0  0  0  0  3  0  0  0  0  0  0
  160.9620  204.2780  149.9710 C   0  0  1  0  0  3  0  0  0  0  0  0
  161.1600  202.1410  151.9760 C   0  0  0  0  0  2  0  0  0  0  0  0
  160.5620  204.2600  147.1200 C   0  0  0  0  0  3  0  0  0  0  0  0
  161.6940  206.9670  151.0670 C   0  0  1  0  0  3  0  0  0  0  0  0
  161.5370  200.6030  150.1870 O   0  0  0  0  0  1  0  0  0  0  0  0
  162.6030  207.2750  147.4180 C   0  0  0  0  0  3  0  0  0  0  0  0
  160.8230  204.3160  144.6130 C   0  0  0  0  0  3  0  0  0  0  0  0
  160.8060  205.9600  151.7870 C   0  0  0  0  0  2  0  0  0  0  0  0
  161.8390  206.6390  149.5980 C   0  0  0  0  0  0  0  0  0  0  0  0
  161.5830  202.9230  149.6220 C   0  0  0  0  0  2  0  0  0  0  0  0
  161.8900  205.3030  144.4540 C   0  0  0  0  0  3  0  0  0  0  0  0
  161.2760  204.5690  151.4390 C   0  0  1  0  0  3  0  0  0  0  0  0
  160.6080  203.5240  152.3230 C   0  0  0  0  0  2  0  0  0  0  0  0
  162.4150  207.5050  148.8190 N   0  0  0  0  0  0  0  0  0  0  0  0
  162.0990  206.2040  146.8040 C   0  0  0  0  0  0  0  0  0  0  0  0
  162.4190  206.0990  145.3760 C   0  0  0  0  0  3  0  0  0  0  0  0
  161.1350  208.3730  151.2580 C   0  0  0  0  0  2  0  0  0  0  0  0
  161.9560  210.4310  150.4000 O   0  0  0  0  0  1  0  0  0  0  0  0
  162.2510  209.4050  151.2960 C   0  0  1  0  0  3  0  0  0  0  0  0
  162.3760  209.9530  152.6400 N   0  0  0  0  0  2  0  0  0  0  0  0
  159.3180  211.1540  154.4380 C   0  0  0  0  0  0  0  0  0  0  0  0
  160.0830  209.0910  155.4470 C   0  0  0  0  0  3  0  0  0  0  0  0
  158.4150  212.2080  154.3910 O   0  0  0  0  0  1  0  0  0  0  0  0
  160.3710  211.0960  153.5210 C   0  0  0  0  0  3  0  0  0  0  0  0
  161.1370  209.0330  154.5300 C   0  0  0  0  0  3  0  0  0  0  0  0
  161.2860  210.0320  153.5630 C   0  0  0  0  0  0  0  0  0  0  0  0
  159.1730  210.1510  155.4000 C   0  0  0  0  0  3  0  0  0  0  0  0
  1  9  1  6  0  0  0
  1  6  1  0  0  0  0
  2 13  1  0  0  0  0
  2  5  1  0  0  0  0
  3  2  1  0  0  0  0
  4  7  1  0  0  0  0
  5 14  1  6  0  0  0
  5 16  1  0  0  0  0
  6 17  1  0  0  0  0
  7  3  2  0  0  0  0
  8 21  1  6  0  0  0
  8 12  1  0  0  0  0
 10 18  1  0  0  0  0
 11  4  2  0  0  0  0
 13  8  1  0  0  0  0
 14  1  1  0  0  0  0
 15 11  1  0  0  0  0
 15 20  2  0  0  0  0
 16 12  1  1  0  0  0
 16 17  1  0  0  0  0
 18 13  2  0  0  0  0
 19 10  2  0  0  0  0
 19  3  1  0  0  0  0
 20 19  1  0  0  0  0
 21 23  1  0  0  0  0
 23 22  1  6  0  0  0
 23 24  1  0  0  0  0
 24 30  1  0  0  0  0
 25 31  1  0  0  0  0
 27 25  1  0  0  0  0
 28 30  1  0  0  0  0
 28 25  2  0  0  0  0
 29 26  1  0  0  0  0
 30 29  2  0  0  0  0
 31 26  2  0  0  0  0
M  END
>  <MODEL>
8

>  <REMARK>
 VINA RESULT:      -6.7      2.088      8.502
  Name = 
  4 active torsions:
  status: ('A' for Active; 'I' for Inactive)
    1  A    between atoms: N_3  and  C_9
    2  A    between atoms: N_3  and  C_22
    3  A    between atoms: C_9  and  C_23
    4  A    between atoms: C_15  and  C_23
                            x       y       z     vdW  Elec       q    Type
                         _______ _______ _______ _____ _____    ______ ____

>  <TORSDO>
F 4

$$$$
