=
 OpenBabel11052422533D

 28 32  0  0  1  0  0  0  0  0999 V2000
  161.1970  203.6620  148.0870 C   0  0  0  0  0  0  0  0  0  0  0  0
  160.6780  202.9070  149.1970 N   0  0  0  0  0  0  0  0  0  0  0  0
  161.2190  204.8060  150.7060 C   0  0  0  0  0  0  0  0  0  0  0  0
  162.3150  208.9400  151.3020 C   0  0  0  0  0  2  0  0  0  0  0  0
  162.2410  206.0420  144.8720 O   0  0  0  0  0  0  0  0  0  0  0  0
  160.9860  203.3260  150.5770 C   0  0  0  0  0  2  0  0  0  0  0  0
  161.3380  207.2850  153.5340 C   0  0  0  0  0  3  0  0  0  0  0  0
  161.8990  206.9650  149.7880 C   0  0  0  0  0  0  0  0  0  0  0  0
  160.1940  209.3420  152.7260 C   0  0  1  0  0  3  0  0  0  0  0  0
  161.8440  207.5290  151.0750 C   0  0  0  0  0  0  0  0  0  0  0  0
  161.1690  205.3750  151.9800 C   0  0  0  0  0  3  0  0  0  0  0  0
  160.8140  208.4870  153.7920 C   0  0  0  0  0  3  0  0  0  0  0  0
  161.9940  205.8700  147.2270 C   0  0  0  0  0  0  0  0  0  0  0  0
  161.5790  205.6010  149.6020 C   0  0  0  0  0  0  0  0  0  0  0  0
  161.4490  206.7310  152.1700 C   0  0  0  0  0  0  0  0  0  0  0  0
  161.8020  203.8330  145.6530 C   0  0  0  0  0  2  0  0  0  0  0  0
  162.3170  207.2110  147.4580 C   0  0  0  0  0  3  0  0  0  0  0  0
  162.0100  205.3050  145.8670 C   0  0  0  0  0  0  0  0  0  0  0  0
  159.4350  210.4860  153.3640 C   0  0  0  0  0  1  0  0  0  0  0  0
  161.1930  209.9010  151.7070 C   0  0  0  0  0  2  0  0  0  0  0  0
  162.2650  207.7230  148.7160 N   0  0  0  0  0  0  0  0  0  0  0  0
  161.2400  203.1240  146.8580 C   0  0  0  0  0  3  0  0  0  0  0  0
  161.6240  205.0590  148.3100 C   0  0  0  0  0  0  0  0  0  0  0  0
  158.8660  201.5990  149.8400 C   0  0  0  0  0  1  0  0  0  0  0  0
  160.0190  201.6810  148.9510 N   0  0  0  0  0  0  0  0  0  0  0  0
  160.9260  200.5750  149.2590 C   0  0  0  0  0  3  0  0  0  0  0  0
  161.7780  200.3490  148.1900 F   0  0  0  0  0  0  0  0  0  0  0  0
  161.6880  200.8810  150.3730 F   0  0  0  0  0  0  0  0  0  0  0  0
  1 23  1  0  0  0  0
  1  2  1  0  0  0  0
  2  6  1  0  0  0  0
  3 11  1  0  0  0  0
  4 20  1  0  0  0  0
  5 18  2  0  0  0  0
  6  3  1  0  0  0  0
  7 12  2  0  0  0  0
  8 10  2  0  0  0  0
  9 19  1  1  0  0  0
  9 12  1  0  0  0  0
 10  4  1  0  0  0  0
 10 15  1  0  0  0  0
 11 15  2  0  0  0  0
 13 17  1  0  0  0  0
 13 23  2  0  0  0  0
 14  8  1  0  0  0  0
 14  3  2  0  0  0  0
 15  7  1  0  0  0  0
 16 18  1  0  0  0  0
 16 22  1  0  0  0  0
 17 21  2  0  0  0  0
 18 13  1  0  0  0  0
 20  9  1  0  0  0  0
 21  8  1  0  0  0  0
 22  1  2  0  0  0  0
 23 14  1  0  0  0  0
 25  2  1  0  0  0  0
 25 26  1  0  0  0  0
 25 24  1  0  0  0  0
 26 28  1  0  0  0  0
 27 26  1  0  0  0  0
M  END
>  <MODEL>
1

>  <REMARK>
 VINA RESULT:     -10.2      0.000      0.000
  Name = 
  2 active torsions:
  status: ('A' for Active; 'I' for Inactive)
    1  A    between atoms: N_2  and  N_11
    2  A    between atoms: C_6  and  N_11
                            x       y       z     vdW  Elec       q    Type
                         _______ _______ _______ _____ _____    ______ ____

>  <TORSDO>
F 2

$$$$
=
 OpenBabel11052422533D

 28 32  0  0  1  0  0  0  0  0999 V2000
  161.2170  204.1010  149.3140 C   0  0  0  0  0  0  0  0  0  0  0  0
  160.8500  203.4480  150.5440 N   0  0  0  0  0  0  0  0  0  0  0  0
  161.2070  205.5880  151.7550 C   0  0  0  0  0  0  0  0  0  0  0  0
  161.7820  209.8680  151.7370 C   0  0  0  0  0  2  0  0  0  0  0  0
  161.7970  206.1260  145.7570 O   0  0  0  0  0  0  0  0  0  0  0  0
  161.1620  204.0870  151.8350 C   0  0  0  0  0  2  0  0  0  0  0  0
  161.1300  208.4280  154.2220 C   0  0  0  0  0  3  0  0  0  0  0  0
  161.5600  207.6670  150.5220 C   0  0  0  0  0  0  0  0  0  0  0  0
  159.6930  210.1990  153.2240 C   0  0  1  0  0  3  0  0  0  0  0  0
  161.4890  208.3920  151.7250 C   0  0  0  0  0  0  0  0  0  0  0  0
  161.1410  206.3170  152.9440 C   0  0  0  0  0  3  0  0  0  0  0  0
  160.4660  209.5810  154.3530 C   0  0  0  0  0  3  0  0  0  0  0  0
  161.6800  206.2510  148.1260 C   0  0  0  0  0  0  0  0  0  0  0  0
  161.4110  206.2620  150.5360 C   0  0  0  0  0  0  0  0  0  0  0  0
  161.2510  207.7090  152.9380 C   0  0  0  0  0  0  0  0  0  0  0  0
  161.6840  204.0080  146.8460 C   0  0  0  0  0  2  0  0  0  0  0  0
  161.8370  207.6400  148.1590 C   0  0  0  0  0  3  0  0  0  0  0  0
  161.7090  205.5100  146.8530 C   0  0  0  0  0  0  0  0  0  0  0  0
  158.8210  211.3170  153.7530 C   0  0  0  0  0  1  0  0  0  0  0  0
  160.5650  210.7300  152.0810 C   0  0  0  0  0  2  0  0  0  0  0  0
  161.7760  208.3100  149.3400 N   0  0  0  0  0  0  0  0  0  0  0  0
  161.2740  203.4090  148.1660 C   0  0  0  0  0  3  0  0  0  0  0  0
  161.4690  205.5570  149.3260 C   0  0  0  0  0  0  0  0  0  0  0  0
  161.3920  201.2260  150.9670 C   0  0  0  0  0  1  0  0  0  0  0  0
  160.3450  202.1280  150.5010 N   0  0  0  0  0  0  0  0  0  0  0  0
  160.0130  201.7830  149.1170 C   0  0  0  0  0  3  0  0  0  0  0  0
  160.7340  200.6700  148.7200 F   0  0  0  0  0  0  0  0  0  0  0  0
  158.6630  201.4960  149.0100 F   0  0  0  0  0  0  0  0  0  0  0  0
  1 23  1  0  0  0  0
  1  2  1  0  0  0  0
  2  6  1  0  0  0  0
  3  6  1  0  0  0  0
  3 11  1  0  0  0  0
  4 20  1  0  0  0  0
  5 18  2  0  0  0  0
  7 12  2  0  0  0  0
  8 14  1  0  0  0  0
  8 10  2  0  0  0  0
  9 19  1  1  0  0  0
  9 12  1  0  0  0  0
 10  4  1  0  0  0  0
 10 15  1  0  0  0  0
 13 17  1  0  0  0  0
 13 23  2  0  0  0  0
 14  3  2  0  0  0  0
 15 11  2  0  0  0  0
 15  7  1  0  0  0  0
 16 18  1  0  0  0  0
 16 22  1  0  0  0  0
 17 21  2  0  0  0  0
 18 13  1  0  0  0  0
 20  9  1  0  0  0  0
 21  8  1  0  0  0  0
 22  1  2  0  0  0  0
 23 14  1  0  0  0  0
 25  2  1  0  0  0  0
 25 24  1  0  0  0  0
 26 25  1  0  0  0  0
 27 26  1  0  0  0  0
 28 26  1  0  0  0  0
M  END
>  <MODEL>
2

>  <REMARK>
 VINA RESULT:      -9.6      1.208      1.447
  Name = 
  2 active torsions:
  status: ('A' for Active; 'I' for Inactive)
    1  A    between atoms: N_2  and  N_11
    2  A    between atoms: C_6  and  N_11
                            x       y       z     vdW  Elec       q    Type
                         _______ _______ _______ _____ _____    ______ ____

>  <TORSDO>
F 2

$$$$
=
 OpenBabel11052422533D

 28 32  0  0  1  0  0  0  0  0999 V2000
  161.3140  206.2670  150.6780 C   0  0  0  0  0  0  0  0  0  0  0  0
  160.9150  205.2210  151.5830 N   0  0  0  0  0  0  0  0  0  0  0  0
  161.1500  206.8100  153.4800 C   0  0  0  0  0  0  0  0  0  0  0  0
  161.5880  210.8360  154.9790 C   0  0  0  0  0  2  0  0  0  0  0  0
  161.9830  209.4130  148.0810 O   0  0  0  0  0  0  0  0  0  0  0  0
  161.1500  205.3750  153.0300 C   0  0  0  0  0  2  0  0  0  0  0  0
  160.8750  208.6110  156.7710 C   0  0  0  0  0  3  0  0  0  0  0  0
  161.4890  209.1940  153.0650 C   0  0  0  0  0  0  0  0  0  0  0  0
  159.4270  210.5970  156.3780 C   0  0  1  0  0  3  0  0  0  0  0  0
  161.3430  209.4530  154.4400 C   0  0  0  0  0  0  0  0  0  0  0  0
  161.0090  207.0780  154.8420 C   0  0  0  0  0  3  0  0  0  0  0  0
  160.1690  209.6360  157.2600 C   0  0  0  0  0  3  0  0  0  0  0  0
  161.7590  208.7030  150.3360 C   0  0  0  0  0  0  0  0  0  0  0  0
  161.3850  207.8690  152.5830 C   0  0  0  0  0  0  0  0  0  0  0  0
  161.0750  208.3870  155.3260 C   0  0  0  0  0  0  0  0  0  0  0  0
  161.8900  207.0470  148.3590 C   0  0  0  0  0  2  0  0  0  0  0  0
  161.8690  209.9960  150.8580 C   0  0  0  0  0  3  0  0  0  0  0  0
  161.8670  208.4530  148.8880 C   0  0  0  0  0  0  0  0  0  0  0  0
  158.4970  211.4480  157.2160 C   0  0  0  0  0  1  0  0  0  0  0  0
  160.3300  211.5060  155.5370 C   0  0  0  0  0  2  0  0  0  0  0  0
  161.7360  210.2110  152.1930 N   0  0  0  0  0  0  0  0  0  0  0  0
  161.4430  206.0190  149.3660 C   0  0  0  0  0  3  0  0  0  0  0  0
  161.5180  207.6310  151.2080 C   0  0  0  0  0  0  0  0  0  0  0  0
  160.0140  203.1600  152.1720 C   0  0  0  0  0  1  0  0  0  0  0  0
  160.4550  203.9920  151.0590 N   0  0  0  0  0  0  0  0  0  0  0  0
  161.5600  203.3140  150.3780 C   0  0  0  0  0  3  0  0  0  0  0  0
  161.8920  202.1520  151.0540 F   0  0  0  0  0  0  0  0  0  0  0  0
  161.1900  202.9820  149.0860 F   0  0  0  0  0  0  0  0  0  0  0  0
  1 23  1  0  0  0  0
  1  2  1  0  0  0  0
  2  6  1  0  0  0  0
  3 11  1  0  0  0  0
  4 20  1  0  0  0  0
  5 18  2  0  0  0  0
  6  3  1  0  0  0  0
  7 12  2  0  0  0  0
  8 10  2  0  0  0  0
  9 19  1  1  0  0  0
  9 12  1  0  0  0  0
 10  4  1  0  0  0  0
 10 15  1  0  0  0  0
 11 15  2  0  0  0  0
 13 17  1  0  0  0  0
 13 23  2  0  0  0  0
 14  8  1  0  0  0  0
 14  3  2  0  0  0  0
 15  7  1  0  0  0  0
 16 18  1  0  0  0  0
 16 22  1  0  0  0  0
 17 21  2  0  0  0  0
 18 13  1  0  0  0  0
 20  9  1  0  0  0  0
 21  8  1  0  0  0  0
 22  1  2  0  0  0  0
 23 14  1  0  0  0  0
 25  2  1  0  0  0  0
 25 24  1  0  0  0  0
 26 27  1  0  0  0  0
 26 25  1  0  0  0  0
 28 26  1  0  0  0  0
M  END
>  <MODEL>
3

>  <REMARK>
 VINA RESULT:      -8.0      2.320      3.779
  Name = 
  2 active torsions:
  status: ('A' for Active; 'I' for Inactive)
    1  A    between atoms: N_2  and  N_11
    2  A    between atoms: C_6  and  N_11
                            x       y       z     vdW  Elec       q    Type
                         _______ _______ _______ _____ _____    ______ ____

>  <TORSDO>
F 2

$$$$
=
 OpenBabel11052422533D

 28 32  0  0  1  0  0  0  0  0999 V2000
  161.3880  204.9670  148.8150 C   0  0  0  0  0  0  0  0  0  0  0  0
  161.6090  206.1410  148.0110 N   0  0  0  0  0  0  0  0  0  0  0  0
  161.0900  207.5580  149.9850 C   0  0  0  0  0  0  0  0  0  0  0  0
  160.4850  208.0050  154.2380 C   0  0  0  0  0  2  0  0  0  0  0  0
  161.2250  201.6470  151.2720 O   0  0  0  0  0  0  0  0  0  0  0  0
  161.1380  207.4550  148.4860 C   0  0  0  0  0  2  0  0  0  0  0  0
  160.8450  210.3510  152.4940 C   0  0  0  0  0  3  0  0  0  0  0  0
  160.8720  206.5610  152.2050 C   0  0  0  0  0  0  0  0  0  0  0  0
  162.3760  209.7640  154.3660 C   0  0  1  0  0  3  0  0  0  0  0  0
  160.7900  207.8440  152.7730 C   0  0  0  0  0  0  0  0  0  0  0  0
  161.0060  208.8280  150.5590 C   0  0  0  0  0  3  0  0  0  0  0  0
  161.4780  210.7040  153.6170 C   0  0  0  0  0  3  0  0  0  0  0  0
  161.0540  204.0100  151.0990 C   0  0  0  0  0  0  0  0  0  0  0  0
  161.0290  206.4170  150.8070 C   0  0  0  0  0  0  0  0  0  0  0  0
  160.8850  208.9830  151.9420 C   0  0  0  0  0  0  0  0  0  0  0  0
  161.2230  202.4690  149.0340 C   0  0  0  0  0  2  0  0  0  0  0  0
  160.8830  204.1970  152.4750 C   0  0  0  0  0  3  0  0  0  0  0  0
  161.1850  202.6600  150.5240 C   0  0  0  0  0  0  0  0  0  0  0  0
  163.1680  210.5290  155.4040 C   0  0  0  0  0  1  0  0  0  0  0  0
  161.6450  208.5990  155.0420 C   0  0  0  0  0  2  0  0  0  0  0  0
  160.7950  205.4510  152.9910 N   0  0  0  0  0  0  0  0  0  0  0  0
  161.4760  203.7440  148.2720 C   0  0  0  0  0  3  0  0  0  0  0  0
  161.1240  205.1300  150.2590 C   0  0  0  0  0  0  0  0  0  0  0  0
  161.0150  206.0830  145.7630 C   0  0  0  0  0  1  0  0  0  0  0  0
  162.1260  205.9950  146.7030 N   0  0  0  0  0  0  0  0  0  0  0  0
  162.7450  204.6750  146.5740 C   0  0  0  0  0  3  0  0  0  0  0  0
  162.3520  204.0820  145.3860 F   0  0  0  0  0  0  0  0  0  0  0  0
  164.1250  204.7940  146.5730 F   0  0  0  0  0  0  0  0  0  0  0  0
  1 23  1  0  0  0  0
  2  6  1  0  0  0  0
  2  1  1  0  0  0  0
  3 11  2  0  0  0  0
  3 14  1  0  0  0  0
  4 20  1  0  0  0  0
  6  3  1  0  0  0  0
  7 12  2  0  0  0  0
  8 10  1  0  0  0  0
  8 21  1  0  0  0  0
  9 20  1  0  0  0  0
  9 19  1  1  0  0  0
 10  4  1  0  0  0  0
 11 15  1  0  0  0  0
 12  9  1  0  0  0  0
 13 17  1  0  0  0  0
 14  8  2  0  0  0  0
 15  7  1  0  0  0  0
 15 10  2  0  0  0  0
 16 18  1  0  0  0  0
 17 21  2  0  0  0  0
 18 13  1  0  0  0  0
 18  5  2  0  0  0  0
 22  1  2  0  0  0  0
 22 16  1  0  0  0  0
 23 14  1  0  0  0  0
 23 13  2  0  0  0  0
 24 25  1  0  0  0  0
 25  2  1  0  0  0  0
 26 25  1  0  0  0  0
 27 26  1  0  0  0  0
 28 26  1  0  0  0  0
M  END
>  <MODEL>
4

>  <REMARK>
 VINA RESULT:      -7.8      2.647      4.191
  Name = 
  2 active torsions:
  status: ('A' for Active; 'I' for Inactive)
    1  A    between atoms: N_2  and  N_11
    2  A    between atoms: C_6  and  N_11
                            x       y       z     vdW  Elec       q    Type
                         _______ _______ _______ _____ _____    ______ ____

>  <TORSDO>
F 2

$$$$
=
 OpenBabel11052422533D

 28 32  0  0  1  0  0  0  0  0999 V2000
  161.5300  207.2770  151.2260 C   0  0  0  0  0  0  0  0  0  0  0  0
  161.6620  208.4360  150.3810 N   0  0  0  0  0  0  0  0  0  0  0  0
  161.9070  206.9390  148.4120 C   0  0  0  0  0  0  0  0  0  0  0  0
  161.5810  203.0360  146.5940 C   0  0  0  0  0  2  0  0  0  0  0  0
  160.6710  203.9540  153.5290 O   0  0  0  0  0  0  0  0  0  0  0  0
  162.1880  208.2890  149.0120 C   0  0  0  0  0  2  0  0  0  0  0  0
  161.9540  205.4550  144.9560 C   0  0  0  0  0  3  0  0  0  0  0  0
  161.4740  204.5430  148.6150 C   0  0  0  0  0  0  0  0  0  0  0  0
  159.9710  203.9600  144.7950 C   0  0  1  0  0  3  0  0  0  0  0  0
  161.5990  204.4040  147.2220 C   0  0  0  0  0  0  0  0  0  0  0  0
  162.0310  206.7890  147.0300 C   0  0  0  0  0  3  0  0  0  0  0  0
  161.1360  204.7040  144.2110 C   0  0  0  0  0  3  0  0  0  0  0  0
  161.2000  204.8040  151.3760 C   0  0  0  0  0  0  0  0  0  0  0  0
  161.6210  205.8160  149.2120 C   0  0  0  0  0  0  0  0  0  0  0  0
  161.8530  205.5420  146.4260 C   0  0  0  0  0  0  0  0  0  0  0  0
  161.2960  206.2540  153.5090 C   0  0  0  0  0  2  0  0  0  0  0  0
  161.0770  203.5620  150.7460 C   0  0  0  0  0  3  0  0  0  0  0  0
  161.0190  204.9430  152.8310 C   0  0  0  0  0  0  0  0  0  0  0  0
  159.0750  203.4580  143.6820 C   0  0  0  0  0  1  0  0  0  0  0  0
  160.3610  202.7890  145.7020 C   0  0  0  0  0  2  0  0  0  0  0  0
  161.2160  203.4590  149.3980 N   0  0  0  0  0  0  0  0  0  0  0  0
  161.4010  207.4150  152.5540 C   0  0  0  0  0  3  0  0  0  0  0  0
  161.4770  205.9400  150.6010 C   0  0  0  0  0  0  0  0  0  0  0  0
  161.9540  210.7100  149.9910 C   0  0  0  0  0  1  0  0  0  0  0  0
  161.4410  209.7200  150.9300 N   0  0  0  0  0  0  0  0  0  0  0  0
  162.1820  209.8410  152.1870 C   0  0  0  0  0  3  0  0  0  0  0  0
  163.4540  210.3290  151.9420 F   0  0  0  0  0  0  0  0  0  0  0  0
  161.5300  210.7150  153.0410 F   0  0  0  0  0  0  0  0  0  0  0  0
  1 22  2  0  0  0  0
  2 25  1  0  0  0  0
  2  1  1  0  0  0  0
  3  6  1  0  0  0  0
  3 14  1  0  0  0  0
  4 10  1  0  0  0  0
  6  2  1  0  0  0  0
  7 15  1  0  0  0  0
  8 14  2  0  0  0  0
  8 21  1  0  0  0  0
  9 19  1  6  0  0  0
  9 20  1  0  0  0  0
 10  8  1  0  0  0  0
 11  3  2  0  0  0  0
 12  9  1  0  0  0  0
 12  7  2  0  0  0  0
 13 18  1  0  0  0  0
 14 23  1  0  0  0  0
 15 11  1  0  0  0  0
 15 10  2  0  0  0  0
 17 13  1  0  0  0  0
 18 16  1  0  0  0  0
 18  5  2  0  0  0  0
 20  4  1  0  0  0  0
 21 17  2  0  0  0  0
 22 16  1  0  0  0  0
 23  1  1  0  0  0  0
 23 13  2  0  0  0  0
 24 25  1  0  0  0  0
 25 26  1  0  0  0  0
 26 28  1  0  0  0  0
 27 26  1  0  0  0  0
M  END
>  <MODEL>
5

>  <REMARK>
 VINA RESULT:      -7.6      3.548      7.446
  Name = 
  2 active torsions:
  status: ('A' for Active; 'I' for Inactive)
    1  A    between atoms: N_2  and  N_11
    2  A    between atoms: C_6  and  N_11
                            x       y       z     vdW  Elec       q    Type
                         _______ _______ _______ _____ _____    ______ ____

>  <TORSDO>
F 2

$$$$
=
 OpenBabel11052422533D

 28 32  0  0  1  0  0  0  0  0999 V2000
  160.4640  210.9480  153.4680 C   0  0  0  0  0  0  0  0  0  0  0  0
  160.3990  211.4430  152.1180 N   0  0  0  0  0  0  0  0  0  0  0  0
  161.2760  209.2650  151.3050 C   0  0  0  0  0  0  0  0  0  0  0  0
  162.2130  205.1030  151.9750 C   0  0  0  0  0  2  0  0  0  0  0  0
  160.2060  209.3230  157.2600 O   0  0  0  0  0  0  0  0  0  0  0  0
  161.1180  210.7370  151.0420 C   0  0  0  0  0  2  0  0  0  0  0  0
  162.1540  206.2340  149.2570 C   0  0  0  0  0  3  0  0  0  0  0  0
  161.4580  207.3580  152.8210 C   0  0  0  0  0  0  0  0  0  0  0  0
  160.6650  204.3960  150.0290 C   0  0  1  0  0  3  0  0  0  0  0  0
  161.7940  206.5290  151.7360 C   0  0  0  0  0  0  0  0  0  0  0  0
  161.6130  208.4340  150.2350 C   0  0  0  0  0  3  0  0  0  0  0  0
  161.6630  205.0020  149.0860 C   0  0  0  0  0  3  0  0  0  0  0  0
  160.7710  208.9800  154.9790 C   0  0  0  0  0  0  0  0  0  0  0  0
  161.1910  208.7290  152.6030 C   0  0  0  0  0  0  0  0  0  0  0  0
  161.8440  207.0700  150.4330 C   0  0  0  0  0  0  0  0  0  0  0  0
  160.2090  211.3090  155.9420 C   0  0  0  0  0  2  0  0  0  0  0  0
  161.0570  207.6220  155.1510 C   0  0  0  0  0  3  0  0  0  0  0  0
  160.3730  209.8260  156.1180 C   0  0  0  0  0  0  0  0  0  0  0  0
  160.0820  203.1390  149.4190 C   0  0  0  0  0  1  0  0  0  0  0  0
  161.2250  204.0740  151.4180 C   0  0  0  0  0  2  0  0  0  0  0  0
  161.3910  206.8510  154.0830 N   0  0  0  0  0  0  0  0  0  0  0  0
  160.1330  211.7390  154.5000 C   0  0  0  0  0  3  0  0  0  0  0  0
  160.8410  209.5380  153.6940 C   0  0  0  0  0  0  0  0  0  0  0  0
  158.3420  212.5230  152.0100 C   0  0  0  0  0  1  0  0  0  0  0  0
  159.7830  212.6920  151.8690 N   0  0  0  0  0  0  0  0  0  0  0  0
  160.0730  213.1070  150.4960 C   0  0  0  0  0  3  0  0  0  0  0  0
  158.8910  213.3460  149.8140 F   0  0  0  0  0  0  0  0  0  0  0  0
  160.8240  214.2700  150.4990 F   0  0  0  0  0  0  0  0  0  0  0  0
  1 23  1  0  0  0  0
  1 22  2  0  0  0  0
  2  1  1  0  0  0  0
  3 14  1  0  0  0  0
  6  3  1  0  0  0  0
  6  2  1  0  0  0  0
  7 15  1  0  0  0  0
  8 21  1  0  0  0  0
  9 19  1  6  0  0  0
  9 20  1  0  0  0  0
 10  4  1  0  0  0  0
 10  8  1  0  0  0  0
 11 15  1  0  0  0  0
 11  3  2  0  0  0  0
 12  7  2  0  0  0  0
 12  9  1  0  0  0  0
 13 17  1  0  0  0  0
 13 18  1  0  0  0  0
 14  8  2  0  0  0  0
 14 23  1  0  0  0  0
 15 10  2  0  0  0  0
 16 18  1  0  0  0  0
 18  5  2  0  0  0  0
 20  4  1  0  0  0  0
 21 17  2  0  0  0  0
 22 16  1  0  0  0  0
 23 13  2  0  0  0  0
 25 24  1  0  0  0  0
 25  2  1  0  0  0  0
 26 28  1  0  0  0  0
 26 25  1  0  0  0  0
 27 26  1  0  0  0  0
M  END
>  <MODEL>
6

>  <REMARK>
 VINA RESULT:      -7.5      5.008      8.602
  Name = 
  2 active torsions:
  status: ('A' for Active; 'I' for Inactive)
    1  A    between atoms: N_2  and  N_11
    2  A    between atoms: C_6  and  N_11
                            x       y       z     vdW  Elec       q    Type
                         _______ _______ _______ _____ _____    ______ ____

>  <TORSDO>
F 2

$$$$
=
 OpenBabel11052422533D

 28 32  0  0  1  0  0  0  0  0999 V2000
  161.4160  205.7270  150.0690 C   0  0  0  0  0  0  0  0  0  0  0  0
  161.6800  206.9540  149.3640 N   0  0  0  0  0  0  0  0  0  0  0  0
  161.1680  208.2260  151.4360 C   0  0  0  0  0  0  0  0  0  0  0  0
  160.5060  208.3540  155.7010 C   0  0  0  0  0  2  0  0  0  0  0  0
  161.1250  202.2310  152.2540 O   0  0  0  0  0  0  0  0  0  0  0  0
  161.2370  208.2390  149.9340 C   0  0  0  0  0  2  0  0  0  0  0  0
  160.9560  210.8190  154.1540 C   0  0  0  0  0  3  0  0  0  0  0  0
  160.8870  207.0630  153.5660 C   0  0  0  0  0  0  0  0  0  0  0  0
  162.4410  210.0440  155.9950 C   0  0  1  0  0  3  0  0  0  0  0  0
  160.8300  208.3000  154.2330 C   0  0  0  0  0  0  0  0  0  0  0  0
  161.1080  209.4480  152.1070 C   0  0  0  0  0  3  0  0  0  0  0  0
  161.5800  211.0650  155.3100 C   0  0  0  0  0  3  0  0  0  0  0  0
  161.0190  204.6030  152.2660 C   0  0  0  0  0  0  0  0  0  0  0  0
  161.0630  207.0260  152.1650 C   0  0  0  0  0  0  0  0  0  0  0  0
  160.9700  209.4970  153.4960 C   0  0  0  0  0  0  0  0  0  0  0  0
  161.1820  203.2250  150.0890 C   0  0  0  0  0  2  0  0  0  0  0  0
  160.8310  204.6860  153.6490 C   0  0  0  0  0  3  0  0  0  0  0  0
  161.1250  203.2990  151.5870 C   0  0  0  0  0  0  0  0  0  0  0  0
  163.2360  210.7040  157.1010 C   0  0  0  0  0  1  0  0  0  0  0  0
  161.6680  208.8500  156.5660 C   0  0  0  0  0  2  0  0  0  0  0  0
  160.7680  205.8980  154.2620 N   0  0  0  0  0  0  0  0  0  0  0  0
  161.4800  204.5480  149.4330 C   0  0  0  0  0  3  0  0  0  0  0  0
  161.1330  205.7840  151.5180 C   0  0  0  0  0  0  0  0  0  0  0  0
  163.0680  208.0640  147.8630 C   0  0  0  0  0  1  0  0  0  0  0  0
  162.2150  206.8970  148.0560 N   0  0  0  0  0  0  0  0  0  0  0  0
  161.1210  206.9530  147.0850 C   0  0  0  0  0  3  0  0  0  0  0  0
  161.4940  206.3120  145.9140 F   0  0  0  0  0  0  0  0  0  0  0  0
  160.0000  206.3230  147.5950 F   0  0  0  0  0  0  0  0  0  0  0  0
  1 23  1  0  0  0  0
  2  6  1  0  0  0  0
  2  1  1  0  0  0  0
  3 11  2  0  0  0  0
  3 14  1  0  0  0  0
  4 20  1  0  0  0  0
  6  3  1  0  0  0  0
  7 12  2  0  0  0  0
  8 10  1  0  0  0  0
  8 21  1  0  0  0  0
  9 20  1  0  0  0  0
  9 19  1  1  0  0  0
 10  4  1  0  0  0  0
 11 15  1  0  0  0  0
 12  9  1  0  0  0  0
 13 17  1  0  0  0  0
 14  8  2  0  0  0  0
 15  7  1  0  0  0  0
 15 10  2  0  0  0  0
 16 18  1  0  0  0  0
 17 21  2  0  0  0  0
 18  5  2  0  0  0  0
 18 13  1  0  0  0  0
 22  1  2  0  0  0  0
 22 16  1  0  0  0  0
 23 14  1  0  0  0  0
 23 13  2  0  0  0  0
 24 25  1  0  0  0  0
 25  2  1  0  0  0  0
 26 28  1  0  0  0  0
 26 25  1  0  0  0  0
 27 26  1  0  0  0  0
M  END
>  <MODEL>
7

>  <REMARK>
 VINA RESULT:      -7.5      3.051      5.076
  Name = 
  2 active torsions:
  status: ('A' for Active; 'I' for Inactive)
    1  A    between atoms: N_2  and  N_11
    2  A    between atoms: C_6  and  N_11
                            x       y       z     vdW  Elec       q    Type
                         _______ _______ _______ _____ _____    ______ ____

>  <TORSDO>
F 2

$$$$
=
 OpenBabel11052422533D

 28 32  0  0  1  0  0  0  0  0999 V2000
  161.2070  204.0400  148.5630 C   0  0  0  0  0  0  0  0  0  0  0  0
  161.3760  205.1140  147.6200 N   0  0  0  0  0  0  0  0  0  0  0  0
  160.9470  206.7480  149.4420 C   0  0  0  0  0  0  0  0  0  0  0  0
  160.5580  207.6790  153.6410 C   0  0  0  0  0  2  0  0  0  0  0  0
  161.1990  201.0240  151.3900 O   0  0  0  0  0  0  0  0  0  0  0  0
  160.9180  206.4720  147.9640 C   0  0  0  0  0  2  0  0  0  0  0  0
  160.8070  209.8100  151.6240 C   0  0  0  0  0  3  0  0  0  0  0  0
  160.8520  206.0110  151.7700 C   0  0  0  0  0  0  0  0  0  0  0  0
  162.4370  209.4460  153.4680 C   0  0  1  0  0  3  0  0  0  0  0  0
  160.7880  207.3520  152.1900 C   0  0  0  0  0  0  0  0  0  0  0  0
  160.8820  208.0750  149.8710 C   0  0  0  0  0  3  0  0  0  0  0  0
  161.4940  210.2920  152.6640 C   0  0  0  0  0  3  0  0  0  0  0  0
  160.9990  203.3510  150.9570 C   0  0  0  0  0  0  0  0  0  0  0  0
  160.9380  205.7090  150.3920 C   0  0  0  0  0  0  0  0  0  0  0  0
  160.8310  208.3870  151.2310 C   0  0  0  0  0  0  0  0  0  0  0  0
  161.0750  201.5830  149.0760 C   0  0  0  0  0  2  0  0  0  0  0  0
  160.8970  203.6940  152.3080 C   0  0  0  0  0  3  0  0  0  0  0  0
  161.1120  201.9440  150.5340 C   0  0  0  0  0  0  0  0  0  0  0  0
  163.2760  210.3280  154.3690 C   0  0  0  0  0  1  0  0  0  0  0  0
  161.7520  208.3640  154.3110 C   0  0  0  0  0  2  0  0  0  0  0  0
  160.8250  204.9990  152.6810 N   0  0  0  0  0  0  0  0  0  0  0  0
  161.2770  202.7620  148.1600 C   0  0  0  0  0  3  0  0  0  0  0  0
  161.0160  204.3680  149.9910 C   0  0  0  0  0  0  0  0  0  0  0  0
  163.2610  205.0770  146.2580 C   0  0  0  0  0  1  0  0  0  0  0  0
  161.8270  204.8200  146.3120 N   0  0  0  0  0  0  0  0  0  0  0  0
  161.1570  205.7080  145.3600 C   0  0  0  0  0  3  0  0  0  0  0  0
  161.9620  205.9070  144.2510 F   0  0  0  0  0  0  0  0  0  0  0  0
  159.9630  205.1450  144.9430 F   0  0  0  0  0  0  0  0  0  0  0  0
  1 23  1  0  0  0  0
  2  6  1  0  0  0  0
  2  1  1  0  0  0  0
  3 11  2  0  0  0  0
  3 14  1  0  0  0  0
  4 20  1  0  0  0  0
  6  3  1  0  0  0  0
  7 12  2  0  0  0  0
  8 10  1  0  0  0  0
  8 21  1  0  0  0  0
  9 20  1  0  0  0  0
  9 19  1  1  0  0  0
 10  4  1  0  0  0  0
 11 15  1  0  0  0  0
 12  9  1  0  0  0  0
 13 17  1  0  0  0  0
 14  8  2  0  0  0  0
 15  7  1  0  0  0  0
 15 10  2  0  0  0  0
 16 18  1  0  0  0  0
 17 21  2  0  0  0  0
 18 13  1  0  0  0  0
 18  5  2  0  0  0  0
 22  1  2  0  0  0  0
 22 16  1  0  0  0  0
 23 14  1  0  0  0  0
 23 13  2  0  0  0  0
 24 25  1  0  0  0  0
 25  2  1  0  0  0  0
 26 25  1  0  0  0  0
 27 26  1  0  0  0  0
 28 26  1  0  0  0  0
M  END
>  <MODEL>
8

>  <REMARK>
 VINA RESULT:      -7.5      2.847      4.329
  Name = 
  2 active torsions:
  status: ('A' for Active; 'I' for Inactive)
    1  A    between atoms: N_2  and  N_11
    2  A    between atoms: C_6  and  N_11
                            x       y       z     vdW  Elec       q    Type
                         _______ _______ _______ _____ _____    ______ ____

>  <TORSDO>
F 2

$$$$
