=
 OpenBabel11062407583D

 34 38  0  0  1  0  0  0  0  0999 V2000
  161.6650  210.0010  154.4150 C   0  0  2  0  0  3  0  0  0  0  0  0
  160.0570  208.2020  154.1520 C   0  0  0  0  0  2  0  0  0  0  0  0
  161.2110  208.9480  152.2340 C   0  0  1  0  0  3  0  0  0  0  0  0
  162.2170  208.1400  150.0730 N   0  0  0  0  0  0  0  0  0  0  0  0
  161.9510  208.5200  156.4720 C   0  0  0  0  0  2  0  0  0  0  0  0
  160.7090  207.6370  156.5250 C   0  0  0  0  0  2  0  0  0  0  0  0
  162.2330  206.7870  151.9880 O   0  0  0  0  0  0  0  0  0  0  0  0
  161.3300  208.7500  153.6900 N   0  0  1  0  0  0  0  0  0  0  0  0
  161.5760  209.8980  155.9430 C   0  0  0  0  0  2  0  0  0  0  0  0
  161.6580  210.3480  151.7820 C   0  0  1  0  0  3  0  0  0  0  0  0
  160.8730  211.2240  153.9100 C   0  0  0  0  0  2  0  0  0  0  0  0
  160.3270  207.0880  155.1530 C   0  0  0  0  0  2  0  0  0  0  0  0
  161.9740  209.4360  149.5090 C   0  0  0  0  0  3  0  0  0  0  0  0
  161.6530  210.4980  150.2690 C   0  0  0  0  0  0  0  0  0  0  0  0
  161.9390  207.8940  151.4590 C   0  0  0  0  0  0  0  0  0  0  0  0
  160.7960  211.3280  152.4420 N   0  0  0  0  0  2  0  0  0  0  0  0
  162.1670  213.3960  147.8670 C   0  0  0  0  0  0  0  0  0  0  0  0
  161.2350  214.3200  148.3450 C   0  0  0  0  0  3  0  0  0  0  0  0
  161.5200  211.8240  149.6110 C   0  0  0  0  0  0  0  0  0  0  0  0
  160.4420  214.0020  149.4500 C   0  0  0  0  0  3  0  0  0  0  0  0
  162.3060  212.1540  148.4950 C   0  0  0  0  0  3  0  0  0  0  0  0
  160.5820  212.7610  150.0770 C   0  0  0  0  0  3  0  0  0  0  0  0
  162.9360  213.7020  146.7950 F   0  0  0  0  0  0  0  0  0  0  0  0
  162.7790  207.0980  149.2260 C   0  0  0  0  0  2  0  0  0  0  0  0
  162.0810  207.1010  147.8790 C   0  0  0  0  0  2  0  0  0  0  0  0
  161.0020  206.0350  147.8650 C   0  0  0  0  0  2  0  0  0  0  0  0
  161.6010  204.6810  147.5150 C   0  0  0  0  0  2  0  0  0  0  0  0
  161.0290  201.9660  146.8760 O   0  0  0  0  0  0  0  0  0  0  0  0
  161.1860  203.6720  148.4820 N   0  0  0  0  0  0  0  0  0  0  0  0
  160.8840  202.3260  148.0740 C   0  0  0  0  0  0  0  0  0  0  0  0
  160.9370  201.6480  150.4550 C   0  0  0  0  0  2  0  0  0  0  0  0
  160.8790  203.1100  150.8010 C   0  0  0  0  0  3  0  0  0  0  0  0
  161.0430  204.0420  149.8600 C   0  0  0  0  0  3  0  0  0  0  0  0
  160.3290  201.3660  149.0800 C   0  0  0  0  0  2  0  0  0  0  0  0
  1 11  1  6  0  0  0
  1  9  1  0  0  0  0
  2 12  1  0  0  0  0
  3 15  1  6  0  0  0
  3  8  1  0  0  0  0
  4 15  1  0  0  0  0
  5  6  1  0  0  0  0
  8  2  1  1  0  0  0
  8  1  1  0  0  0  0
  9  5  1  0  0  0  0
 10 14  1  6  0  0  0
 10  3  1  0  0  0  0
 10 16  1  0  0  0  0
 12  6  1  0  0  0  0
 13  4  1  0  0  0  0
 13 14  2  0  0  0  0
 15  7  2  0  0  0  0
 16 11  1  0  0  0  0
 17 18  2  0  0  0  0
 17 21  1  0  0  0  0
 18 20  1  0  0  0  0
 19 22  1  0  0  0  0
 19 14  1  0  0  0  0
 20 22  2  0  0  0  0
 21 19  2  0  0  0  0
 23 17  1  0  0  0  0
 24  4  1  0  0  0  0
 25 24  1  0  0  0  0
 26 25  1  0  0  0  0
 27 26  1  0  0  0  0
 27 29  1  0  0  0  0
 28 30  2  0  0  0  0
 29 33  1  0  0  0  0
 30 29  1  0  0  0  0
 30 34  1  0  0  0  0
 31 32  1  0  0  0  0
 33 32  2  0  0  0  0
 34 31  1  0  0  0  0
M  END
>  <MODEL>
1

>  <REMARK>
 VINA RESULT:      -8.4      0.000      0.000
  Name = 
  6 active torsions:
  status: ('A' for Active; 'I' for Inactive)
    1  A    between atoms: C_3  and  N_13
    2  A    between atoms: C_3  and  C_17
    3  A    between atoms: N_5  and  C_18
    4  A    between atoms: C_12  and  C_28
    5  A    between atoms: C_17  and  C_29
    6  A    between atoms: C_18  and  C_29
                            x       y       z     vdW  Elec       q    Type
                         _______ _______ _______ _____ _____    ______ ____

>  <TORSDO>
F 6

$$$$
=
 OpenBabel11062407583D

 34 38  0  0  1  0  0  0  0  0999 V2000
  161.6660  205.0470  149.1500 C   0  0  2  0  0  3  0  0  0  0  0  0
  160.2850  206.2770  147.5790 C   0  0  0  0  0  2  0  0  0  0  0  0
  161.1800  207.4480  149.4200 C   0  0  1  0  0  3  0  0  0  0  0  0
  162.1080  209.6870  150.0980 N   0  0  0  0  0  0  0  0  0  0  0  0
  162.2990  204.1610  146.8440 C   0  0  0  0  0  2  0  0  0  0  0  0
  161.1870  204.6150  145.9050 C   0  0  0  0  0  2  0  0  0  0  0  0
  162.4460  208.8490  147.9350 O   0  0  0  0  0  0  0  0  0  0  0  0
  161.4370  206.3480  148.4730 N   0  0  1  0  0  0  0  0  0  0  0  0
  161.7110  203.8350  148.2110 C   0  0  0  0  0  2  0  0  0  0  0  0
  161.4090  207.0410  150.8860 C   0  0  1  0  0  3  0  0  0  0  0  0
  160.6880  204.7910  150.3150 C   0  0  0  0  0  2  0  0  0  0  0  0
  160.7720  206.0630  146.1530 C   0  0  0  0  0  2  0  0  0  0  0  0
  161.6600  209.4350  151.4370 C   0  0  0  0  0  3  0  0  0  0  0  0
  161.2660  208.2150  151.8420 C   0  0  0  0  0  0  0  0  0  0  0  0
  161.9740  208.6740  149.0910 C   0  0  0  0  0  0  0  0  0  0  0  0
  160.4840  205.9520  151.1980 N   0  0  0  0  0  2  0  0  0  0  0  0
  160.1760  208.9290  155.4100 C   0  0  0  0  0  0  0  0  0  0  0  0
  160.2120  207.6510  155.9720 C   0  0  0  0  0  3  0  0  0  0  0  0
  160.9150  208.0240  153.2740 C   0  0  0  0  0  0  0  0  0  0  0  0
  160.5930  206.5570  155.1910 C   0  0  0  0  0  3  0  0  0  0  0  0
  160.5220  209.1140  154.0680 C   0  0  0  0  0  3  0  0  0  0  0  0
  160.9400  206.7420  153.8500 C   0  0  0  0  0  3  0  0  0  0  0  0
  159.8040  209.9900  156.1650 F   0  0  0  0  0  0  0  0  0  0  0  0
  162.7300  210.9670  149.7940 C   0  0  0  0  0  2  0  0  0  0  0  0
  161.8620  211.7420  148.8220 C   0  0  0  0  0  2  0  0  0  0  0  0
  162.7400  212.5770  147.9110 C   0  0  0  0  0  2  0  0  0  0  0  0
  161.9050  213.6130  147.1750 C   0  0  0  0  0  2  0  0  0  0  0  0
  159.3480  212.6820  146.3380 O   0  0  0  0  0  0  0  0  0  0  0  0
  161.5900  213.1540  145.8270 N   0  0  0  0  0  0  0  0  0  0  0  0
  160.2800  212.6680  145.4910 C   0  0  0  0  0  0  0  0  0  0  0  0
  160.8960  212.8130  143.0970 C   0  0  0  0  0  2  0  0  0  0  0  0
  162.3250  212.9520  143.5450 C   0  0  0  0  0  3  0  0  0  0  0  0
  162.6210  213.1550  144.8300 C   0  0  0  0  0  3  0  0  0  0  0  0
  160.0450  212.0780  144.1350 C   0  0  0  0  0  2  0  0  0  0  0  0
  1  9  1  6  0  0  0
  1 11  1  0  0  0  0
  3 15  1  6  0  0  0
  3 10  1  0  0  0  0
  4 13  1  0  0  0  0
  5  9  1  0  0  0  0
  6 12  1  0  0  0  0
  6  5  1  0  0  0  0
  7 15  2  0  0  0  0
  8  2  1  6  0  0  0
  8  1  1  0  0  0  0
  8  3  1  0  0  0  0
 10 16  1  1  0  0  0
 10 14  1  0  0  0  0
 11 16  1  0  0  0  0
 12  2  1  0  0  0  0
 13 14  2  0  0  0  0
 14 19  1  0  0  0  0
 15  4  1  0  0  0  0
 17 18  1  0  0  0  0
 17 23  1  0  0  0  0
 19 22  2  0  0  0  0
 19 21  1  0  0  0  0
 20 18  2  0  0  0  0
 21 17  2  0  0  0  0
 22 20  1  0  0  0  0
 24  4  1  0  0  0  0
 25 24  1  0  0  0  0
 26 25  1  0  0  0  0
 27 26  1  0  0  0  0
 29 27  1  0  0  0  0
 30 29  1  0  0  0  0
 30 28  2  0  0  0  0
 31 32  1  0  0  0  0
 31 34  1  0  0  0  0
 32 33  2  0  0  0  0
 33 29  1  0  0  0  0
 34 30  1  0  0  0  0
M  END
>  <MODEL>
2

>  <REMARK>
 VINA RESULT:      -7.9      3.347      8.176
  Name = 
  6 active torsions:
  status: ('A' for Active; 'I' for Inactive)
    1  A    between atoms: C_3  and  N_13
    2  A    between atoms: C_3  and  C_17
    3  A    between atoms: N_5  and  C_18
    4  A    between atoms: C_12  and  C_28
    5  A    between atoms: C_17  and  C_29
    6  A    between atoms: C_18  and  C_29
                            x       y       z     vdW  Elec       q    Type
                         _______ _______ _______ _____ _____    ______ ____

>  <TORSDO>
F 6

$$$$
=
 OpenBabel11062407583D

 34 38  0  0  1  0  0  0  0  0999 V2000
  161.6770  205.0370  149.1560 C   0  0  2  0  0  3  0  0  0  0  0  0
  160.2750  206.2530  147.5910 C   0  0  0  0  0  2  0  0  0  0  0  0
  161.1740  207.4350  149.4240 C   0  0  1  0  0  3  0  0  0  0  0  0
  162.0900  209.6820  150.0900 N   0  0  0  0  0  0  0  0  0  0  0  0
  162.3000  204.1500  146.8470 C   0  0  0  0  0  2  0  0  0  0  0  0
  161.1780  204.5940  145.9150 C   0  0  0  0  0  2  0  0  0  0  0  0
  162.4190  208.8420  147.9260 O   0  0  0  0  0  0  0  0  0  0  0  0
  161.4330  206.3350  148.4770 N   0  0  1  0  0  0  0  0  0  0  0  0
  161.7240  203.8240  148.2190 C   0  0  0  0  0  2  0  0  0  0  0  0
  161.4170  207.0330  150.8890 C   0  0  1  0  0  3  0  0  0  0  0  0
  160.7090  204.7760  150.3280 C   0  0  0  0  0  2  0  0  0  0  0  0
  160.7540  206.0390  146.1620 C   0  0  0  0  0  2  0  0  0  0  0  0
  161.6530  209.4310  151.4320 C   0  0  0  0  0  3  0  0  0  0  0  0
  161.2720  208.2090  151.8430 C   0  0  0  0  0  0  0  0  0  0  0  0
  161.9560  208.6670  149.0860 C   0  0  0  0  0  0  0  0  0  0  0  0
  160.5020  205.9380  151.2100 N   0  0  0  0  0  2  0  0  0  0  0  0
  160.1920  208.9200  155.4150 C   0  0  0  0  0  0  0  0  0  0  0  0
  160.2510  207.6460  155.9810 C   0  0  0  0  0  3  0  0  0  0  0  0
  160.9320  208.0190  153.2770 C   0  0  0  0  0  0  0  0  0  0  0  0
  160.6460  206.5550  155.2030 C   0  0  0  0  0  3  0  0  0  0  0  0
  160.5270  209.1050  154.0700 C   0  0  0  0  0  3  0  0  0  0  0  0
  160.9810  206.7400  153.8590 C   0  0  0  0  0  3  0  0  0  0  0  0
  159.8070  209.9790  156.1670 F   0  0  0  0  0  0  0  0  0  0  0  0
  162.7000  210.9670  149.7790 C   0  0  0  0  0  2  0  0  0  0  0  0
  161.6340  211.9450  149.3260 C   0  0  0  0  0  2  0  0  0  0  0  0
  162.0490  212.5750  148.0100 C   0  0  0  0  0  2  0  0  0  0  0  0
  161.1460  213.7530  147.6790 C   0  0  0  0  0  2  0  0  0  0  0  0
  158.7050  213.9720  149.1280 O   0  0  0  0  0  0  0  0  0  0  0  0
  159.8510  213.2870  147.1970 N   0  0  0  0  0  0  0  0  0  0  0  0
  158.6670  213.4050  148.0040 C   0  0  0  0  0  0  0  0  0  0  0  0
  157.3110  212.8850  145.9980 C   0  0  0  0  0  2  0  0  0  0  0  0
  158.5840  212.4260  145.3420 C   0  0  0  0  0  3  0  0  0  0  0  0
  159.7690  212.6670  145.9070 C   0  0  0  0  0  3  0  0  0  0  0  0
  157.3910  212.7860  147.5220 C   0  0  0  0  0  2  0  0  0  0  0  0
  1  9  1  6  0  0  0
  1 11  1  0  0  0  0
  3 15  1  6  0  0  0
  3 10  1  0  0  0  0
  4 13  1  0  0  0  0
  5  9  1  0  0  0  0
  6 12  1  0  0  0  0
  6  5  1  0  0  0  0
  7 15  2  0  0  0  0
  8  2  1  6  0  0  0
  8  1  1  0  0  0  0
  8  3  1  0  0  0  0
 10 16  1  1  0  0  0
 10 14  1  0  0  0  0
 11 16  1  0  0  0  0
 12  2  1  0  0  0  0
 13 14  2  0  0  0  0
 14 19  1  0  0  0  0
 15  4  1  0  0  0  0
 17 18  1  0  0  0  0
 17 23  1  0  0  0  0
 19 22  2  0  0  0  0
 19 21  1  0  0  0  0
 20 18  2  0  0  0  0
 21 17  2  0  0  0  0
 22 20  1  0  0  0  0
 24  4  1  0  0  0  0
 25 24  1  0  0  0  0
 26 25  1  0  0  0  0
 27 26  1  0  0  0  0
 29 27  1  0  0  0  0
 29 30  1  0  0  0  0
 30 28  2  0  0  0  0
 31 34  1  0  0  0  0
 32 33  2  0  0  0  0
 32 31  1  0  0  0  0
 33 29  1  0  0  0  0
 34 30  1  0  0  0  0
M  END
>  <MODEL>
3

>  <REMARK>
 VINA RESULT:      -7.9      3.237      8.153
  Name = 
  6 active torsions:
  status: ('A' for Active; 'I' for Inactive)
    1  A    between atoms: C_3  and  N_13
    2  A    between atoms: C_3  and  C_17
    3  A    between atoms: N_5  and  C_18
    4  A    between atoms: C_12  and  C_28
    5  A    between atoms: C_17  and  C_29
    6  A    between atoms: C_18  and  C_29
                            x       y       z     vdW  Elec       q    Type
                         _______ _______ _______ _____ _____    ______ ____

>  <TORSDO>
F 6

$$$$
=
 OpenBabel11062407583D

 34 38  0  0  1  0  0  0  0  0999 V2000
  159.8910  208.5970  155.2780 C   0  0  2  0  0  3  0  0  0  0  0  0
  162.0690  209.6080  155.6280 C   0  0  0  0  0  2  0  0  0  0  0  0
  161.6050  208.6780  153.5100 C   0  0  1  0  0  3  0  0  0  0  0  0
  162.0340  209.0080  151.0520 N   0  0  0  0  0  0  0  0  0  0  0  0
  159.4600  210.6790  156.6860 C   0  0  0  0  0  2  0  0  0  0  0  0
  160.8180  211.0930  157.2430 C   0  0  0  0  0  2  0  0  0  0  0  0
  161.8230  210.8450  152.4930 O   0  0  0  0  0  0  0  0  0  0  0  0
  160.9990  209.3690  154.6630 N   0  0  1  0  0  0  0  0  0  0  0  0
  159.3810  209.1600  156.6100 C   0  0  0  0  0  2  0  0  0  0  0  0
  160.8240  207.4230  153.0860 C   0  0  1  0  0  3  0  0  0  0  0  0
  160.2030  207.0930  155.4120 C   0  0  0  0  0  2  0  0  0  0  0  0
  161.9250  211.0130  156.1950 C   0  0  0  0  0  2  0  0  0  0  0  0
  161.8970  207.5920  150.8680 C   0  0  0  0  0  3  0  0  0  0  0  0
  161.3830  206.7930  151.8190 C   0  0  0  0  0  0  0  0  0  0  0  0
  161.7960  209.5930  152.3390 C   0  0  0  0  0  0  0  0  0  0  0  0
  160.8210  206.4950  154.2160 N   0  0  0  0  0  2  0  0  0  0  0  0
  160.8300  203.5730  149.8820 C   0  0  0  0  0  0  0  0  0  0  0  0
  160.8490  202.6260  150.9080 C   0  0  0  0  0  3  0  0  0  0  0  0
  161.1840  205.3550  151.5040 C   0  0  0  0  0  0  0  0  0  0  0  0
  161.0380  203.0340  152.2310 C   0  0  0  0  0  3  0  0  0  0  0  0
  161.0000  204.9290  150.1780 C   0  0  0  0  0  3  0  0  0  0  0  0
  161.2070  204.3900  152.5260 C   0  0  0  0  0  3  0  0  0  0  0  0
  160.6490  203.1780  148.5990 F   0  0  0  0  0  0  0  0  0  0  0  0
  162.3820  209.8350  149.9060 C   0  0  0  0  0  2  0  0  0  0  0  0
  161.5810  209.3970  148.6950 C   0  0  0  0  0  2  0  0  0  0  0  0
  162.0890  208.0530  148.2100 C   0  0  0  0  0  2  0  0  0  0  0  0
  160.9530  207.2470  147.5980 C   0  0  0  0  0  2  0  0  0  0  0  0
  159.7060  206.2020  145.2620 O   0  0  0  0  0  0  0  0  0  0  0  0
  161.4780  206.1450  146.8010 N   0  0  0  0  0  0  0  0  0  0  0  0
  160.7710  205.6520  145.6500 C   0  0  0  0  0  0  0  0  0  0  0  0
  162.8070  204.4030  144.9970 C   0  0  0  0  0  2  0  0  0  0  0  0
  163.3250  204.6610  146.3850 C   0  0  0  0  0  3  0  0  0  0  0  0
  162.7050  205.5180  147.1990 C   0  0  0  0  0  3  0  0  0  0  0  0
  161.2780  204.4310  144.9490 C   0  0  0  0  0  2  0  0  0  0  0  0
  1 11  1  1  0  0  0
  1  9  1  0  0  0  0
  2 12  1  0  0  0  0
  3 15  1  6  0  0  0
  3  8  1  0  0  0  0
  4 15  1  0  0  0  0
  5  6  1  0  0  0  0
  8  1  1  0  0  0  0
  8  2  1  1  0  0  0
  9  5  1  0  0  0  0
 10 14  1  6  0  0  0
 10  3  1  0  0  0  0
 10 16  1  0  0  0  0
 12  6  1  0  0  0  0
 13  4  1  0  0  0  0
 13 14  2  0  0  0  0
 15  7  2  0  0  0  0
 16 11  1  0  0  0  0
 17 21  2  0  0  0  0
 17 18  1  0  0  0  0
 18 20  2  0  0  0  0
 19 14  1  0  0  0  0
 19 22  2  0  0  0  0
 20 22  1  0  0  0  0
 21 19  1  0  0  0  0
 23 17  1  0  0  0  0
 24  4  1  0  0  0  0
 25 24  1  0  0  0  0
 26 25  1  0  0  0  0
 27 26  1  0  0  0  0
 28 30  2  0  0  0  0
 29 33  1  0  0  0  0
 29 27  1  0  0  0  0
 30 29  1  0  0  0  0
 31 32  1  0  0  0  0
 32 33  2  0  0  0  0
 34 31  1  0  0  0  0
 34 30  1  0  0  0  0
M  END
>  <MODEL>
4

>  <REMARK>
 VINA RESULT:      -7.9      2.977      5.482
  Name = 
  6 active torsions:
  status: ('A' for Active; 'I' for Inactive)
    1  A    between atoms: C_3  and  N_13
    2  A    between atoms: C_3  and  C_17
    3  A    between atoms: N_5  and  C_18
    4  A    between atoms: C_12  and  C_28
    5  A    between atoms: C_17  and  C_29
    6  A    between atoms: C_18  and  C_29
                            x       y       z     vdW  Elec       q    Type
                         _______ _______ _______ _____ _____    ______ ____

>  <TORSDO>
F 6

$$$$
=
 OpenBabel11062407583D

 34 38  0  0  1  0  0  0  0  0999 V2000
  162.3890  209.0330  151.2510 C   0  0  2  0  0  3  0  0  0  0  0  0
  160.2710  208.8690  152.4240 C   0  0  0  0  0  2  0  0  0  0  0  0
  160.9730  207.0190  151.1390 C   0  0  1  0  0  3  0  0  0  0  0  0
  160.9480  204.5030  151.0880 N   0  0  0  0  0  0  0  0  0  0  0  0
  162.7680  210.1600  153.5070 C   0  0  0  0  0  2  0  0  0  0  0  0
  161.3780  210.4210  154.0800 C   0  0  0  0  0  2  0  0  0  0  0  0
  161.0850  205.6640  153.1200 O   0  0  0  0  0  0  0  0  0  0  0  0
  161.4520  208.1370  151.9730 N   0  0  1  0  0  0  0  0  0  0  0  0
  162.7360  210.3290  151.9940 C   0  0  0  0  0  2  0  0  0  0  0  0
  161.7070  206.9220  149.7910 C   0  0  1  0  0  3  0  0  0  0  0  0
  161.9420  209.3410  149.8080 C   0  0  0  0  0  2  0  0  0  0  0  0
  160.4400  209.2320  153.8920 C   0  0  0  0  0  2  0  0  0  0  0  0
  160.9970  204.5610  149.6560 C   0  0  0  0  0  3  0  0  0  0  0  0
  161.2960  205.6920  148.9950 C   0  0  0  0  0  0  0  0  0  0  0  0
  161.0350  205.7090  151.8610 C   0  0  0  0  0  0  0  0  0  0  0  0
  161.4650  208.1650  149.0590 N   0  0  0  0  0  2  0  0  0  0  0  0
  162.6280  204.9240  145.5220 C   0  0  0  0  0  0  0  0  0  0  0  0
  161.6420  205.4940  144.7140 C   0  0  0  0  0  3  0  0  0  0  0  0
  161.4250  205.6350  147.5160 C   0  0  0  0  0  0  0  0  0  0  0  0
  160.5450  206.1310  145.2990 C   0  0  0  0  0  3  0  0  0  0  0  0
  162.5180  204.9910  146.9140 C   0  0  0  0  0  3  0  0  0  0  0  0
  160.4360  206.1990  146.6910 C   0  0  0  0  0  3  0  0  0  0  0  0
  163.6910  204.3040  144.9560 F   0  0  0  0  0  0  0  0  0  0  0  0
  160.8440  203.2040  151.7360 C   0  0  0  0  0  2  0  0  0  0  0  0
  161.6320  202.1740  150.9500 C   0  0  0  0  0  2  0  0  0  0  0  0
  160.7080  201.4570  149.9850 C   0  0  0  0  0  2  0  0  0  0  0  0
  161.5110  200.5780  149.0380 C   0  0  0  0  0  2  0  0  0  0  0  0
  161.6180  198.6550  146.9420 O   0  0  0  0  0  0  0  0  0  0  0  0
  161.1370  200.8390  147.6540 N   0  0  0  0  0  0  0  0  0  0  0  0
  161.2490  199.8220  146.6440 C   0  0  0  0  0  0  0  0  0  0  0  0
  159.8820  201.2350  145.1400 C   0  0  0  0  0  2  0  0  0  0  0  0
  160.1300  202.3700  146.0940 C   0  0  0  0  0  3  0  0  0  0  0  0
  160.6830  202.1500  147.2890 C   0  0  0  0  0  3  0  0  0  0  0  0
  160.9870  200.1790  145.2150 C   0  0  0  0  0  2  0  0  0  0  0  0
  1 11  1  6  0  0  0
  1  8  1  0  0  0  0
  1  9  1  0  0  0  0
  2 12  1  0  0  0  0
  3 15  1  1  0  0  0
  3  8  1  0  0  0  0
  4 24  1  0  0  0  0
  4 15  1  0  0  0  0
  5  6  1  0  0  0  0
  8  2  1  6  0  0  0
  9  5  1  0  0  0  0
 10 14  1  6  0  0  0
 10  3  1  0  0  0  0
 12  6  1  0  0  0  0
 13  4  1  0  0  0  0
 14 13  2  0  0  0  0
 15  7  2  0  0  0  0
 16 10  1  0  0  0  0
 16 11  1  0  0  0  0
 17 21  1  0  0  0  0
 18 20  1  0  0  0  0
 18 17  2  0  0  0  0
 19 14  1  0  0  0  0
 20 22  2  0  0  0  0
 21 19  2  0  0  0  0
 22 19  1  0  0  0  0
 23 17  1  0  0  0  0
 25 24  1  0  0  0  0
 26 25  1  0  0  0  0
 27 26  1  0  0  0  0
 29 27  1  0  0  0  0
 30 28  2  0  0  0  0
 30 29  1  0  0  0  0
 31 34  1  0  0  0  0
 31 32  1  0  0  0  0
 32 33  2  0  0  0  0
 33 29  1  0  0  0  0
 34 30  1  0  0  0  0
M  END
>  <MODEL>
5

>  <REMARK>
 VINA RESULT:      -7.7      2.860      5.175
  Name = 
  6 active torsions:
  status: ('A' for Active; 'I' for Inactive)
    1  A    between atoms: C_3  and  N_13
    2  A    between atoms: C_3  and  C_17
    3  A    between atoms: N_5  and  C_18
    4  A    between atoms: C_12  and  C_28
    5  A    between atoms: C_17  and  C_29
    6  A    between atoms: C_18  and  C_29
                            x       y       z     vdW  Elec       q    Type
                         _______ _______ _______ _____ _____    ______ ____

>  <TORSDO>
F 6

$$$$
=
 OpenBabel11062407583D

 34 38  0  0  1  0  0  0  0  0999 V2000
  161.6660  204.9990  149.1400 C   0  0  2  0  0  3  0  0  0  0  0  0
  160.2990  206.2030  147.5370 C   0  0  0  0  0  2  0  0  0  0  0  0
  161.1680  207.4010  149.3740 C   0  0  1  0  0  3  0  0  0  0  0  0
  162.0790  209.6520  150.0340 N   0  0  0  0  0  0  0  0  0  0  0  0
  162.3300  204.0860  146.8530 C   0  0  0  0  0  2  0  0  0  0  0  0
  161.2280  204.5250  145.8950 C   0  0  0  0  0  2  0  0  0  0  0  0
  162.4460  208.7890  147.8860 O   0  0  0  0  0  0  0  0  0  0  0  0
  161.4400  206.2900  148.4440 N   0  0  1  0  0  0  0  0  0  0  0  0
  161.7270  203.7760  148.2170 C   0  0  0  0  0  2  0  0  0  0  0  0
  161.3810  207.0130  150.8470 C   0  0  1  0  0  3  0  0  0  0  0  0
  160.6760  204.7540  150.2960 C   0  0  0  0  0  2  0  0  0  0  0  0
  160.8040  205.9740  146.1190 C   0  0  0  0  0  2  0  0  0  0  0  0
  161.6160  209.4150  151.3710 C   0  0  0  0  0  3  0  0  0  0  0  0
  161.2220  208.1990  151.7870 C   0  0  0  0  0  0  0  0  0  0  0  0
  161.9600  208.6260  149.0390 C   0  0  0  0  0  0  0  0  0  0  0  0
  160.4560  205.9250  151.1620 N   0  0  0  0  0  2  0  0  0  0  0  0
  160.1020  208.9560  155.3370 C   0  0  0  0  0  0  0  0  0  0  0  0
  160.1200  207.6830  155.9100 C   0  0  0  0  0  3  0  0  0  0  0  0
  160.8550  208.0250  153.2160 C   0  0  0  0  0  0  0  0  0  0  0  0
  160.5000  206.5780  155.1440 C   0  0  0  0  0  3  0  0  0  0  0  0
  160.4640  209.1250  153.9970 C   0  0  0  0  0  3  0  0  0  0  0  0
  160.8620  206.7480  153.8050 C   0  0  0  0  0  3  0  0  0  0  0  0
  159.7320  210.0270  156.0780 F   0  0  0  0  0  0  0  0  0  0  0  0
  162.7000  210.9310  149.7220 C   0  0  0  0  0  2  0  0  0  0  0  0
  161.6840  211.8480  149.0690 C   0  0  0  0  0  2  0  0  0  0  0  0
  162.2410  212.3710  147.7590 C   0  0  0  0  0  2  0  0  0  0  0  0
  161.5610  213.6780  147.3800 C   0  0  0  0  0  2  0  0  0  0  0  0
  160.5020  212.4210  145.0560 O   0  0  0  0  0  0  0  0  0  0  0  0
  160.1410  213.4630  147.1280 N   0  0  0  0  0  0  0  0  0  0  0  0
  159.6830  212.8480  145.9120 C   0  0  0  0  0  0  0  0  0  0  0  0
  157.4510  212.5770  146.9500 C   0  0  0  0  0  2  0  0  0  0  0  0
  157.9040  213.5430  148.0100 C   0  0  0  0  0  3  0  0  0  0  0  0
  159.1850  213.9100  148.0980 C   0  0  0  0  0  3  0  0  0  0  0  0
  158.2130  212.7770  145.6380 C   0  0  0  0  0  2  0  0  0  0  0  0
  1  9  1  6  0  0  0
  1 11  1  0  0  0  0
  3 15  1  6  0  0  0
  3 10  1  0  0  0  0
  4 13  1  0  0  0  0
  5  9  1  0  0  0  0
  6 12  1  0  0  0  0
  6  5  1  0  0  0  0
  7 15  2  0  0  0  0
  8  2  1  6  0  0  0
  8  1  1  0  0  0  0
  8  3  1  0  0  0  0
 10 16  1  1  0  0  0
 10 14  1  0  0  0  0
 11 16  1  0  0  0  0
 12  2  1  0  0  0  0
 13 14  2  0  0  0  0
 14 19  1  0  0  0  0
 15  4  1  0  0  0  0
 17 18  1  0  0  0  0
 17 23  1  0  0  0  0
 19 22  2  0  0  0  0
 19 21  1  0  0  0  0
 20 18  2  0  0  0  0
 21 17  2  0  0  0  0
 22 20  1  0  0  0  0
 24  4  1  0  0  0  0
 25 24  1  0  0  0  0
 26 25  1  0  0  0  0
 27 26  1  0  0  0  0
 28 30  2  0  0  0  0
 29 27  1  0  0  0  0
 29 33  1  0  0  0  0
 30 29  1  0  0  0  0
 31 32  1  0  0  0  0
 32 33  2  0  0  0  0
 34 30  1  0  0  0  0
 34 31  1  0  0  0  0
M  END
>  <MODEL>
6

>  <REMARK>
 VINA RESULT:      -7.7      3.223      8.062
  Name = 
  6 active torsions:
  status: ('A' for Active; 'I' for Inactive)
    1  A    between atoms: C_3  and  N_13
    2  A    between atoms: C_3  and  C_17
    3  A    between atoms: N_5  and  C_18
    4  A    between atoms: C_12  and  C_28
    5  A    between atoms: C_17  and  C_29
    6  A    between atoms: C_18  and  C_29
                            x       y       z     vdW  Elec       q    Type
                         _______ _______ _______ _____ _____    ______ ____

>  <TORSDO>
F 6

$$$$
=
 OpenBabel11062407583D

 34 38  0  0  1  0  0  0  0  0999 V2000
  160.3950  207.5170  154.0490 C   0  0  2  0  0  3  0  0  0  0  0  0
  162.3200  208.8580  154.6730 C   0  0  0  0  0  2  0  0  0  0  0  0
  161.7170  208.7760  152.3940 C   0  0  1  0  0  3  0  0  0  0  0  0
  161.6300  210.1760  150.3040 N   0  0  0  0  0  0  0  0  0  0  0  0
  159.7600  208.6440  156.2470 C   0  0  0  0  0  2  0  0  0  0  0  0
  161.0670  209.1540  156.8460 C   0  0  0  0  0  2  0  0  0  0  0  0
  161.2670  211.1360  152.4120 O   0  0  0  0  0  0  0  0  0  0  0  0
  161.1800  208.7440  153.7670 N   0  0  1  0  0  0  0  0  0  0  0  0
  160.0100  207.3280  155.5220 C   0  0  0  0  0  2  0  0  0  0  0  0
  161.1740  207.6380  151.5130 C   0  0  1  0  0  3  0  0  0  0  0  0
  161.0540  206.2370  153.4960 C   0  0  0  0  0  2  0  0  0  0  0  0
  161.9660  209.8140  155.8030 C   0  0  0  0  0  2  0  0  0  0  0  0
  161.7840  208.9780  149.5310 C   0  0  0  0  0  3  0  0  0  0  0  0
  161.6330  207.7550  150.0680 C   0  0  0  0  0  0  0  0  0  0  0  0
  161.4930  210.0990  151.7300 C   0  0  0  0  0  0  0  0  0  0  0  0
  161.5730  206.3700  152.1240 N   0  0  0  0  0  2  0  0  0  0  0  0
  161.2060  204.2380  148.6970 C   0  0  0  0  0  0  0  0  0  0  0  0
  161.8200  204.3510  147.4480 C   0  0  0  0  0  3  0  0  0  0  0  0
  161.7090  206.5730  149.1700 C   0  0  0  0  0  0  0  0  0  0  0  0
  162.3770  205.5700  147.0530 C   0  0  0  0  0  3  0  0  0  0  0  0
  161.1480  205.3440  149.5510 C   0  0  0  0  0  3  0  0  0  0  0  0
  162.3190  206.6750  147.9070 C   0  0  0  0  0  3  0  0  0  0  0  0
  160.6640  203.0580  149.0800 F   0  0  0  0  0  0  0  0  0  0  0  0
  161.5810  211.4570  149.6140 C   0  0  0  0  0  2  0  0  0  0  0  0
  162.2540  211.3360  148.2610 C   0  0  0  0  0  2  0  0  0  0  0  0
  162.9590  212.6370  147.9270 C   0  0  0  0  0  2  0  0  0  0  0  0
  161.9830  213.6240  147.3060 C   0  0  0  0  0  2  0  0  0  0  0  0
  159.4120  212.7110  146.4920 O   0  0  0  0  0  0  0  0  0  0  0  0
  161.6390  213.2190  145.9480 N   0  0  0  0  0  0  0  0  0  0  0  0
  160.3230  212.7380  145.6230 C   0  0  0  0  0  0  0  0  0  0  0  0
  160.8820  212.9860  143.2230 C   0  0  0  0  0  2  0  0  0  0  0  0
  162.3200  213.1160  143.6430 C   0  0  0  0  0  3  0  0  0  0  0  0
  162.6460  213.2680  144.9290 C   0  0  0  0  0  3  0  0  0  0  0  0
  160.0610  212.2040  144.2490 C   0  0  0  0  0  2  0  0  0  0  0  0
  1 11  1  1  0  0  0
  1  9  1  0  0  0  0
  2 12  1  0  0  0  0
  3 15  1  6  0  0  0
  3  8  1  0  0  0  0
  4 15  1  0  0  0  0
  5  6  1  0  0  0  0
  8  1  1  0  0  0  0
  8  2  1  1  0  0  0
  9  5  1  0  0  0  0
 10 14  1  6  0  0  0
 10 16  1  0  0  0  0
 10  3  1  0  0  0  0
 12  6  1  0  0  0  0
 13 14  2  0  0  0  0
 13  4  1  0  0  0  0
 15  7  2  0  0  0  0
 16 11  1  0  0  0  0
 17 23  1  0  0  0  0
 17 21  1  0  0  0  0
 18 17  2  0  0  0  0
 19 21  2  0  0  0  0
 19 14  1  0  0  0  0
 20 18  1  0  0  0  0
 20 22  2  0  0  0  0
 22 19  1  0  0  0  0
 24  4  1  0  0  0  0
 25 24  1  0  0  0  0
 26 25  1  0  0  0  0
 27 26  1  0  0  0  0
 29 27  1  0  0  0  0
 30 29  1  0  0  0  0
 30 28  2  0  0  0  0
 31 32  1  0  0  0  0
 31 34  1  0  0  0  0
 32 33  2  0  0  0  0
 33 29  1  0  0  0  0
 34 30  1  0  0  0  0
M  END
>  <MODEL>
7

>  <REMARK>
 VINA RESULT:      -7.6      3.312      7.139
  Name = 
  6 active torsions:
  status: ('A' for Active; 'I' for Inactive)
    1  A    between atoms: C_3  and  N_13
    2  A    between atoms: C_3  and  C_17
    3  A    between atoms: N_5  and  C_18
    4  A    between atoms: C_12  and  C_28
    5  A    between atoms: C_17  and  C_29
    6  A    between atoms: C_18  and  C_29
                            x       y       z     vdW  Elec       q    Type
                         _______ _______ _______ _____ _____    ______ ____

>  <TORSDO>
F 6

$$$$
=
 OpenBabel11062407583D

 34 38  0  0  1  0  0  0  0  0999 V2000
  160.0490  208.4340  154.7010 C   0  0  2  0  0  3  0  0  0  0  0  0
  162.1910  209.5710  154.8120 C   0  0  0  0  0  2  0  0  0  0  0  0
  161.5850  208.5430  152.7770 C   0  0  1  0  0  3  0  0  0  0  0  0
  161.7640  208.8060  150.2800 N   0  0  0  0  0  0  0  0  0  0  0  0
  159.6350  210.5390  156.0790 C   0  0  0  0  0  2  0  0  0  0  0  0
  161.0140  211.0440  156.4920 C   0  0  0  0  0  2  0  0  0  0  0  0
  161.5850  210.6800  151.6780 O   0  0  0  0  0  0  0  0  0  0  0  0
  161.0510  209.2410  153.9600 N   0  0  1  0  0  0  0  0  0  0  0  0
  159.6350  209.0160  156.0580 C   0  0  0  0  0  2  0  0  0  0  0  0
  160.8390  207.2340  152.4670 C   0  0  1  0  0  3  0  0  0  0  0  0
  160.4560  206.9540  154.8510 C   0  0  0  0  0  2  0  0  0  0  0  0
  162.0210  210.9860  155.3460 C   0  0  0  0  0  2  0  0  0  0  0  0
  161.6900  207.3790  150.1540 C   0  0  0  0  0  3  0  0  0  0  0  0
  161.3130  206.5890  151.1740 C   0  0  0  0  0  0  0  0  0  0  0  0
  161.6140  209.4240  151.5660 C   0  0  0  0  0  0  0  0  0  0  0  0
  160.9930  206.3470  153.6200 N   0  0  0  0  0  2  0  0  0  0  0  0
  160.8320  203.2710  149.3870 C   0  0  0  0  0  0  0  0  0  0  0  0
  160.9310  202.3690  150.4480 C   0  0  0  0  0  3  0  0  0  0  0  0
  161.1670  205.1320  150.9220 C   0  0  0  0  0  0  0  0  0  0  0  0
  161.1510  202.8390  151.7450 C   0  0  0  0  0  3  0  0  0  0  0  0
  160.9530  204.6440  149.6230 C   0  0  0  0  0  3  0  0  0  0  0  0
  161.2710  204.2110  151.9800 C   0  0  0  0  0  3  0  0  0  0  0  0
  160.6210  202.8170  148.1290 F   0  0  0  0  0  0  0  0  0  0  0  0
  161.9570  209.6090  149.0810 C   0  0  0  0  0  2  0  0  0  0  0  0
  161.9420  211.0820  149.4420 C   0  0  0  0  0  2  0  0  0  0  0  0
  162.4140  211.8990  148.2560 C   0  0  0  0  0  2  0  0  0  0  0  0
  161.6590  213.2180  148.1880 C   0  0  0  0  0  2  0  0  0  0  0  0
  159.1280  213.7740  149.3660 O   0  0  0  0  0  0  0  0  0  0  0  0
  160.3770  213.0410  147.5180 N   0  0  0  0  0  0  0  0  0  0  0  0
  159.1370  213.3140  148.1930 C   0  0  0  0  0  0  0  0  0  0  0  0
  157.9820  213.2130  146.0050 C   0  0  0  0  0  2  0  0  0  0  0  0
  159.2290  212.5780  145.4550 C   0  0  0  0  0  3  0  0  0  0  0  0
  160.3550  212.5490  146.1710 C   0  0  0  0  0  3  0  0  0  0  0  0
  157.8460  212.9830  147.5110 C   0  0  0  0  0  2  0  0  0  0  0  0
  1 11  1  1  0  0  0
  1  9  1  0  0  0  0
  2 12  1  0  0  0  0
  3 15  1  6  0  0  0
  3  8  1  0  0  0  0
  4 15  1  0  0  0  0
  5  6  1  0  0  0  0
  8  1  1  0  0  0  0
  8  2  1  1  0  0  0
  9  5  1  0  0  0  0
 10 14  1  6  0  0  0
 10  3  1  0  0  0  0
 10 16  1  0  0  0  0
 12  6  1  0  0  0  0
 13  4  1  0  0  0  0
 13 14  2  0  0  0  0
 15  7  2  0  0  0  0
 16 11  1  0  0  0  0
 17 21  2  0  0  0  0
 17 18  1  0  0  0  0
 18 20  2  0  0  0  0
 19 14  1  0  0  0  0
 19 22  2  0  0  0  0
 20 22  1  0  0  0  0
 21 19  1  0  0  0  0
 23 17  1  0  0  0  0
 24 25  1  0  0  0  0
 24  4  1  0  0  0  0
 26 25  1  0  0  0  0
 27 26  1  0  0  0  0
 29 27  1  0  0  0  0
 29 30  1  0  0  0  0
 30 28  2  0  0  0  0
 31 34  1  0  0  0  0
 32 31  1  0  0  0  0
 32 33  2  0  0  0  0
 33 29  1  0  0  0  0
 34 30  1  0  0  0  0
M  END
>  <MODEL>
8

>  <REMARK>
 VINA RESULT:      -7.5      3.129      7.391
  Name = 
  6 active torsions:
  status: ('A' for Active; 'I' for Inactive)
    1  A    between atoms: C_3  and  N_13
    2  A    between atoms: C_3  and  C_17
    3  A    between atoms: N_5  and  C_18
    4  A    between atoms: C_12  and  C_28
    5  A    between atoms: C_17  and  C_29
    6  A    between atoms: C_18  and  C_29
                            x       y       z     vdW  Elec       q    Type
                         _______ _______ _______ _____ _____    ______ ____

>  <TORSDO>
F 6

$$$$
=
 OpenBabel11062407583D

 34 38  0  0  1  0  0  0  0  0999 V2000
  161.0980  206.2830  149.3440 C   0  0  2  0  0  3  0  0  0  0  0  0
  162.5290  205.9080  151.2690 C   0  0  0  0  0  2  0  0  0  0  0  0
  161.6750  208.0810  150.9280 C   0  0  1  0  0  3  0  0  0  0  0  0
  160.8310  210.1070  152.1600 N   0  0  0  0  0  0  0  0  0  0  0  0
  160.4360  203.9940  150.2530 C   0  0  0  0  0  2  0  0  0  0  0  0
  161.5670  203.5750  151.1870 C   0  0  0  0  0  2  0  0  0  0  0  0
  160.4660  207.9490  153.0010 O   0  0  0  0  0  0  0  0  0  0  0  0
  161.3780  206.6470  150.7560 N   0  0  1  0  0  0  0  0  0  0  0  0
  161.0090  204.7750  149.0780 C   0  0  0  0  0  2  0  0  0  0  0  0
  161.4280  208.9000  149.6500 C   0  0  1  0  0  3  0  0  0  0  0  0
  162.0630  206.9510  148.3440 C   0  0  0  0  0  2  0  0  0  0  0  0
  162.0360  204.7190  152.0810 C   0  0  0  0  0  2  0  0  0  0  0  0
  161.2680  210.9200  151.0620 C   0  0  0  0  0  3  0  0  0  0  0  0
  161.6130  210.3930  149.8750 C   0  0  0  0  0  0  0  0  0  0  0  0
  160.9300  208.6780  152.0810 C   0  0  0  0  0  0  0  0  0  0  0  0
  162.3110  208.3800  148.6070 N   0  0  0  0  0  2  0  0  0  0  0  0
  161.2980  212.6040  146.8020 C   0  0  0  0  0  0  0  0  0  0  0  0
  162.5970  213.1020  146.6850 C   0  0  0  0  0  3  0  0  0  0  0  0
  161.9550  211.3190  148.7630 C   0  0  0  0  0  0  0  0  0  0  0  0
  163.5770  212.7170  147.6030 C   0  0  0  0  0  3  0  0  0  0  0  0
  160.9780  211.7200  147.8370 C   0  0  0  0  0  3  0  0  0  0  0  0
  163.2570  211.8330  148.6370 C   0  0  0  0  0  3  0  0  0  0  0  0
  160.3470  212.9780  145.9130 F   0  0  0  0  0  0  0  0  0  0  0  0
  160.2600  210.7550  153.3310 C   0  0  0  0  0  2  0  0  0  0  0  0
  160.0820  212.2360  153.0620 C   0  0  0  0  0  2  0  0  0  0  0  0
  158.6080  212.5490  152.8950 C   0  0  0  0  0  2  0  0  0  0  0  0
  158.4210  213.9810  152.4180 C   0  0  0  0  0  2  0  0  0  0  0  0
  160.2600  214.2320  150.2590 O   0  0  0  0  0  0  0  0  0  0  0  0
  158.0470  214.0070  151.0090 N   0  0  0  0  0  0  0  0  0  0  0  0
  159.0340  214.1690  149.9760 C   0  0  0  0  0  0  0  0  0  0  0  0
  157.3310  213.4910  148.3120 C   0  0  0  0  0  2  0  0  0  0  0  0
  156.2980  213.7080  149.3830 C   0  0  0  0  0  3  0  0  0  0  0  0
  156.6610  213.9050  150.6530 C   0  0  0  0  0  3  0  0  0  0  0  0
  158.5860  214.3300  148.5570 C   0  0  0  0  0  2  0  0  0  0  0  0
  1 11  1  6  0  0  0
  1  8  1  0  0  0  0
  2 12  1  0  0  0  0
  3 15  1  1  0  0  0
  4 24  1  0  0  0  0
  5  6  1  0  0  0  0
  6 12  1  0  0  0  0
  8  3  1  0  0  0  0
  8  2  1  6  0  0  0
  9  1  1  0  0  0  0
  9  5  1  0  0  0  0
 10 16  1  6  0  0  0
 10 14  1  0  0  0  0
 10  3  1  0  0  0  0
 11 16  1  0  0  0  0
 13  4  1  0  0  0  0
 14 13  2  0  0  0  0
 15  4  1  0  0  0  0
 15  7  2  0  0  0  0
 17 21  1  0  0  0  0
 18 17  2  0  0  0  0
 18 20  1  0  0  0  0
 19 14  1  0  0  0  0
 20 22  2  0  0  0  0
 21 19  2  0  0  0  0
 22 19  1  0  0  0  0
 23 17  1  0  0  0  0
 25 24  1  0  0  0  0
 26 25  1  0  0  0  0
 27 26  1  0  0  0  0
 29 27  1  0  0  0  0
 30 28  2  0  0  0  0
 30 29  1  0  0  0  0
 31 34  1  0  0  0  0
 31 32  1  0  0  0  0
 32 33  2  0  0  0  0
 33 29  1  0  0  0  0
 34 30  1  0  0  0  0
M  END
>  <MODEL>
9

>  <REMARK>
 VINA RESULT:      -7.5      2.571      7.128
  Name = 
  6 active torsions:
  status: ('A' for Active; 'I' for Inactive)
    1  A    between atoms: C_3  and  N_13
    2  A    between atoms: C_3  and  C_17
    3  A    between atoms: N_5  and  C_18
    4  A    between atoms: C_12  and  C_28
    5  A    between atoms: C_17  and  C_29
    6  A    between atoms: C_18  and  C_29
                            x       y       z     vdW  Elec       q    Type
                         _______ _______ _______ _____ _____    ______ ____

>  <TORSDO>
F 6

$$$$
