=
 OpenBabel11052423133D

 27 31  0  0  1  0  0  0  0  0999 V2000
  162.6230  207.3790  151.7190 C   0  0  0  0  0  2  0  0  0  0  0  0
  161.2120  205.3430  151.5490 C   0  0  0  0  0  0  0  0  0  0  0  0
  161.5600  206.2030  149.1980 N   0  0  0  0  0  2  0  0  0  0  0  0
  160.6200  201.3600  149.7110 S   0  0  0  0  0  0  0  0  0  0  0  0
  160.9640  201.2520  146.9200 C   0  0  0  0  0  1  0  0  0  0  0  0
  160.8630  204.2530  152.3740 C   0  0  0  0  0  3  0  0  0  0  0  0
  161.2290  203.3830  148.3260 C   0  0  0  0  0  0  0  0  0  0  0  0
  161.6650  209.8220  148.3430 C   0  0  0  0  0  3  0  0  0  0  0  0
  161.5560  204.2150  147.2150 N   0  0  0  0  0  1  0  0  0  0  0  0
  162.1340  210.3960  149.5250 C   0  0  0  0  0  0  0  0  0  0  0  0
  161.1530  203.8340  149.6560 C   0  0  0  0  0  0  0  0  0  0  0  0
  161.4710  206.6180  152.1550 N   0  0  0  0  0  0  0  0  0  0  0  0
  160.9600  202.0210  148.1940 C   0  0  0  0  0  0  0  0  0  0  0  0
  160.8220  202.8110  150.5300 C   0  0  0  0  0  0  0  0  0  0  0  0
  162.2490  208.2000  150.5450 C   0  0  0  0  0  0  0  0  0  0  0  0
  161.3500  205.1390  150.1470 C   0  0  0  0  0  0  0  0  0  0  0  0
  161.4820  208.4390  148.2640 C   0  0  0  0  0  3  0  0  0  0  0  0
  160.6700  203.0100  151.8590 N   0  0  0  0  0  0  0  0  0  0  0  0
  162.3110  211.7360  149.6050 F   0  0  0  0  0  0  0  0  0  0  0  0
  162.4310  209.5840  150.6210 C   0  0  0  0  0  3  0  0  0  0  0  0
  161.7550  207.6160  149.3630 C   0  0  0  0  0  0  0  0  0  0  0  0
  160.1520  208.5770  155.6240 C   0  0  0  0  0  3  0  0  0  0  0  0
  160.6600  207.1600  153.2440 C   0  0  1  0  0  3  0  0  0  0  0  0
  161.0270  206.5180  154.5890 C   0  0  0  0  0  2  0  0  0  0  0  0
  160.3650  207.2620  155.7140 C   0  0  0  0  0  3  0  0  0  0  0  0
  160.4930  209.2880  154.3790 C   0  0  0  0  0  3  0  0  0  0  0  0
  160.7640  208.6220  153.2950 N   0  0  0  0  0  0  0  0  0  0  0  0
  1 12  1  0  0  0  0
  2 12  1  0  0  0  0
  2  6  1  0  0  0  0
  3 21  1  0  0  0  0
  3 16  1  0  0  0  0
  4 14  1  0  0  0  0
  5 13  1  0  0  0  0
  7 11  1  0  0  0  0
  8 10  1  0  0  0  0
  9  7  1  0  0  0  0
 10 19  1  0  0  0  0
 10 20  2  0  0  0  0
 11 16  1  0  0  0  0
 11 14  2  0  0  0  0
 13  7  2  0  0  0  0
 13  4  1  0  0  0  0
 14 18  1  0  0  0  0
 15 20  1  0  0  0  0
 15  1  1  0  0  0  0
 16  2  2  0  0  0  0
 17  8  2  0  0  0  0
 17 21  1  0  0  0  0
 18  6  2  0  0  0  0
 21 15  2  0  0  0  0
 22 25  2  0  0  0  0
 23 12  1  6  0  0  0
 23 27  1  0  0  0  0
 23 24  1  0  0  0  0
 24 25  1  0  0  0  0
 26 22  1  0  0  0  0
 27 26  2  0  0  0  0
M  END
>  <MODEL>
1

>  <REMARK>
 VINA RESULT:      -9.2      0.000      0.000
  Name = 
  1 active torsions:
  status: ('A' for Active; 'I' for Inactive)
    1  A    between atoms: C_9  and  N_15
                            x       y       z     vdW  Elec       q    Type
                         _______ _______ _______ _____ _____    ______ ____

>  <TORSDO>
F 1

$$$$
=
 OpenBabel11052423133D

 27 31  0  0  1  0  0  0  0  0999 V2000
  162.7690  204.8720  148.2200 C   0  0  0  0  0  2  0  0  0  0  0  0
  161.8870  207.0740  148.9510 C   0  0  0  0  0  0  0  0  0  0  0  0
  161.0880  205.3620  150.6290 N   0  0  0  0  0  2  0  0  0  0  0  0
  161.5100  210.0420  152.2140 S   0  0  0  0  0  0  0  0  0  0  0  0
  160.7460  209.0010  154.7140 C   0  0  0  0  0  1  0  0  0  0  0  0
  162.1370  208.4340  148.6720 C   0  0  0  0  0  3  0  0  0  0  0  0
  161.0680  207.5850  152.5980 C   0  0  0  0  0  0  0  0  0  0  0  0
  160.0540  201.9130  149.6910 C   0  0  0  0  0  3  0  0  0  0  0  0
  160.7420  206.3510  153.2330 N   0  0  0  0  0  1  0  0  0  0  0  0
  160.8110  201.6750  148.5440 C   0  0  0  0  0  0  0  0  0  0  0  0
  161.4230  207.7060  151.2420 C   0  0  0  0  0  0  0  0  0  0  0  0
  162.0780  206.1050  147.9100 N   0  0  0  0  0  0  0  0  0  0  0  0
  161.0740  208.8030  153.2760 C   0  0  0  0  0  0  0  0  0  0  0  0
  161.6930  209.0200  150.8950 C   0  0  0  0  0  0  0  0  0  0  0  0
  161.7950  203.8820  148.7340 C   0  0  0  0  0  0  0  0  0  0  0  0
  161.5050  206.6930  150.2690 C   0  0  0  0  0  0  0  0  0  0  0  0
  160.1630  203.1370  150.3560 C   0  0  0  0  0  3  0  0  0  0  0  0
  162.0350  209.3850  149.6390 N   0  0  0  0  0  0  0  0  0  0  0  0
  160.7080  200.4900  147.8960 F   0  0  0  0  0  0  0  0  0  0  0  0
  161.6850  202.6560  148.0710 C   0  0  0  0  0  3  0  0  0  0  0  0
  161.0180  204.1380  149.8800 C   0  0  0  0  0  0  0  0  0  0  0  0
  160.5660  205.6630  144.0200 C   0  0  0  0  0  3  0  0  0  0  0  0
  161.6610  206.3320  146.5280 C   0  0  1  0  0  3  0  0  0  0  0  0
  162.4930  205.4940  145.5480 C   0  0  0  0  0  2  0  0  0  0  0  0
  161.8870  205.5530  144.1730 C   0  0  0  0  0  3  0  0  0  0  0  0
  159.7040  205.8140  145.2060 C   0  0  0  0  0  3  0  0  0  0  0  0
  160.2240  206.0830  146.3670 N   0  0  0  0  0  0  0  0  0  0  0  0
  1 15  1  0  0  0  0
  2 16  1  0  0  0  0
  4 13  1  0  0  0  0
  6  2  2  0  0  0  0
  6 18  1  0  0  0  0
  7  9  1  0  0  0  0
  7 13  2  0  0  0  0
  8 17  1  0  0  0  0
 10  8  2  0  0  0  0
 11  7  1  0  0  0  0
 12  1  1  0  0  0  0
 12  2  1  0  0  0  0
 13  5  1  0  0  0  0
 14 11  1  0  0  0  0
 14  4  1  0  0  0  0
 15 21  1  0  0  0  0
 16  3  1  0  0  0  0
 16 11  2  0  0  0  0
 18 14  2  0  0  0  0
 19 10  1  0  0  0  0
 20 10  1  0  0  0  0
 20 15  2  0  0  0  0
 21 17  2  0  0  0  0
 21  3  1  0  0  0  0
 22 25  2  0  0  0  0
 22 26  1  0  0  0  0
 23 24  1  6  0  0  0
 23 12  1  0  0  0  0
 25 24  1  0  0  0  0
 26 27  2  0  0  0  0
 27 23  1  0  0  0  0
M  END
>  <MODEL>
2

>  <REMARK>
 VINA RESULT:      -8.2      3.552      7.478
  Name = 
  1 active torsions:
  status: ('A' for Active; 'I' for Inactive)
    1  A    between atoms: C_9  and  N_15
                            x       y       z     vdW  Elec       q    Type
                         _______ _______ _______ _____ _____    ______ ____

>  <TORSDO>
F 1

$$$$
=
 OpenBabel11052423133D

 27 31  0  0  1  0  0  0  0  0999 V2000
  162.6840  209.4170  151.6480 C   0  0  0  0  0  2  0  0  0  0  0  0
  161.3500  207.3480  151.9710 C   0  0  0  0  0  0  0  0  0  0  0  0
  161.5620  207.7120  149.4780 N   0  0  0  0  0  2  0  0  0  0  0  0
  160.8390  203.0550  151.0220 S   0  0  0  0  0  0  0  0  0  0  0  0
  161.0670  202.3810  148.2990 C   0  0  0  0  0  1  0  0  0  0  0  0
  161.0800  206.4430  153.0180 C   0  0  0  0  0  3  0  0  0  0  0  0
  161.3070  204.7640  149.2220 C   0  0  0  0  0  0  0  0  0  0  0  0
  161.4860  211.0780  147.8940 C   0  0  0  0  0  3  0  0  0  0  0  0
  161.5520  205.3580  147.9500 N   0  0  0  0  0  1  0  0  0  0  0  0
  161.9820  211.8980  148.9070 C   0  0  0  0  0  0  0  0  0  0  0  0
  161.2700  205.4790  150.4340 C   0  0  0  0  0  0  0  0  0  0  0  0
  161.5830  208.7280  152.2880 N   0  0  0  0  0  0  0  0  0  0  0  0
  161.0870  203.3980  149.3860 C   0  0  0  0  0  0  0  0  0  0  0  0
  161.0170  204.6500  151.5140 C   0  0  0  0  0  0  0  0  0  0  0  0
  162.2280  209.9650  150.3500 C   0  0  0  0  0  0  0  0  0  0  0  0
  161.4350  206.8620  150.6350 C   0  0  0  0  0  0  0  0  0  0  0  0
  161.3550  209.7030  148.1100 C   0  0  0  0  0  3  0  0  0  0  0  0
  160.9140  205.1140  152.7800 N   0  0  0  0  0  0  0  0  0  0  0  0
  162.1100  213.2300  148.7010 F   0  0  0  0  0  0  0  0  0  0  0  0
  162.3580  211.3400  150.1300 C   0  0  0  0  0  3  0  0  0  0  0  0
  161.7080  209.1350  149.3390 C   0  0  0  0  0  0  0  0  0  0  0  0
  159.6860  211.7250  154.5320 C   0  0  0  0  0  3  0  0  0  0  0  0
  160.7990  209.4590  153.2810 C   0  0  1  0  0  3  0  0  0  0  0  0
  161.6930  210.3420  154.1620 C   0  0  0  0  0  2  0  0  0  0  0  0
  160.8490  211.2630  154.9970 C   0  0  0  0  0  3  0  0  0  0  0  0
  159.1880  211.2620  153.2240 C   0  0  0  0  0  3  0  0  0  0  0  0
  159.7360  210.2390  152.6370 N   0  0  0  0  0  0  0  0  0  0  0  0
  1 12  1  0  0  0  0
  2 12  1  0  0  0  0
  2  6  1  0  0  0  0
  3 16  1  0  0  0  0
  4 14  1  0  0  0  0
  5 13  1  0  0  0  0
  7 13  2  0  0  0  0
  7 11  1  0  0  0  0
  8 17  2  0  0  0  0
  8 10  1  0  0  0  0
  9  7  1  0  0  0  0
 10 20  2  0  0  0  0
 11 16  1  0  0  0  0
 11 14  2  0  0  0  0
 13  4  1  0  0  0  0
 14 18  1  0  0  0  0
 15  1  1  0  0  0  0
 16  2  2  0  0  0  0
 17 21  1  0  0  0  0
 18  6  2  0  0  0  0
 19 10  1  0  0  0  0
 20 15  1  0  0  0  0
 21  3  1  0  0  0  0
 21 15  2  0  0  0  0
 22 25  2  0  0  0  0
 23 12  1  6  0  0  0
 23 24  1  0  0  0  0
 24 25  1  0  0  0  0
 26 22  1  0  0  0  0
 27 26  2  0  0  0  0
 27 23  1  0  0  0  0
M  END
>  <MODEL>
3

>  <REMARK>
 VINA RESULT:      -7.6      1.477      2.195
  Name = 
  1 active torsions:
  status: ('A' for Active; 'I' for Inactive)
    1  A    between atoms: C_9  and  N_15
                            x       y       z     vdW  Elec       q    Type
                         _______ _______ _______ _____ _____    ______ ____

>  <TORSDO>
F 1

$$$$
=
 OpenBabel11052423133D

 27 31  0  0  1  0  0  0  0  0999 V2000
  162.7760  206.3950  151.1060 C   0  0  0  0  0  2  0  0  0  0  0  0
  161.4780  208.4480  151.6220 C   0  0  0  0  0  0  0  0  0  0  0  0
  160.9090  206.7450  153.4010 N   0  0  0  0  0  2  0  0  0  0  0  0
  160.4070  211.5260  154.6170 S   0  0  0  0  0  0  0  0  0  0  0  0
  159.7100  210.5480  157.1620 C   0  0  0  0  0  1  0  0  0  0  0  0
  161.4970  209.8070  151.2440 C   0  0  0  0  0  3  0  0  0  0  0  0
  160.3900  209.0650  155.1810 C   0  0  0  0  0  0  0  0  0  0  0  0
  160.5570  203.1070  152.7050 C   0  0  0  0  0  3  0  0  0  0  0  0
  160.2560  207.8410  155.9010 N   0  0  0  0  0  1  0  0  0  0  0  0
  161.4040  202.9280  151.6110 C   0  0  0  0  0  0  0  0  0  0  0  0
  160.7890  209.1500  153.8350 C   0  0  0  0  0  0  0  0  0  0  0  0
  161.8930  207.4570  150.6710 N   0  0  0  0  0  0  0  0  0  0  0  0
  160.1430  210.3090  155.7580 C   0  0  0  0  0  0  0  0  0  0  0  0
  160.8390  210.4620  153.3940 C   0  0  0  0  0  0  0  0  0  0  0  0
  161.9670  205.2850  151.6600 C   0  0  0  0  0  0  0  0  0  0  0  0
  161.1020  208.1000  152.9500 C   0  0  0  0  0  0  0  0  0  0  0  0
  160.4110  204.3750  153.2730 C   0  0  0  0  0  3  0  0  0  0  0  0
  161.1760  210.7910  152.1260 N   0  0  0  0  0  0  0  0  0  0  0  0
  161.5480  201.7000  151.0570 F   0  0  0  0  0  0  0  0  0  0  0  0
  162.1130  204.0150  151.0950 C   0  0  0  0  0  3  0  0  0  0  0  0
  161.0980  205.4780  152.7510 C   0  0  0  0  0  0  0  0  0  0  0  0
  161.0140  206.4700  146.6870 C   0  0  0  0  0  3  0  0  0  0  0  0
  161.5160  207.5030  149.2600 C   0  0  1  0  0  3  0  0  0  0  0  0
  162.7020  207.1490  148.3520 C   0  0  0  0  0  2  0  0  0  0  0  0
  162.2310  206.9610  146.9370 C   0  0  0  0  0  3  0  0  0  0  0  0
  160.0970  206.1920  147.8060 C   0  0  0  0  0  3  0  0  0  0  0  0
  160.3580  206.6400  148.9990 N   0  0  0  0  0  0  0  0  0  0  0  0
  1 15  1  0  0  0  0
  2 16  1  0  0  0  0
  4 13  1  0  0  0  0
  6  2  2  0  0  0  0
  6 18  1  0  0  0  0
  7 13  2  0  0  0  0
  7  9  1  0  0  0  0
  8 17  1  0  0  0  0
 10  8  2  0  0  0  0
 11  7  1  0  0  0  0
 12  1  1  0  0  0  0
 12  2  1  0  0  0  0
 13  5  1  0  0  0  0
 14 11  1  0  0  0  0
 14  4  1  0  0  0  0
 15 21  1  0  0  0  0
 16  3  1  0  0  0  0
 16 11  2  0  0  0  0
 18 14  2  0  0  0  0
 19 10  1  0  0  0  0
 20 10  1  0  0  0  0
 20 15  2  0  0  0  0
 21 17  2  0  0  0  0
 21  3  1  0  0  0  0
 22 25  2  0  0  0  0
 22 26  1  0  0  0  0
 23 24  1  6  0  0  0
 23 12  1  0  0  0  0
 25 24  1  0  0  0  0
 26 27  2  0  0  0  0
 27 23  1  0  0  0  0
M  END
>  <MODEL>
4

>  <REMARK>
 VINA RESULT:      -7.1      3.584      7.459
  Name = 
  1 active torsions:
  status: ('A' for Active; 'I' for Inactive)
    1  A    between atoms: C_9  and  N_15
                            x       y       z     vdW  Elec       q    Type
                         _______ _______ _______ _____ _____    ______ ____

>  <TORSDO>
F 1

$$$$
=
 OpenBabel11052423133D

 27 31  0  0  1  0  0  0  0  0999 V2000
  162.2600  206.7500  152.7110 C   0  0  0  0  0  2  0  0  0  0  0  0
  161.6220  207.7330  150.5220 C   0  0  0  0  0  0  0  0  0  0  0  0
  161.0470  209.4390  152.2960 N   0  0  0  0  0  2  0  0  0  0  0  0
  161.9560  211.1530  147.7320 S   0  0  0  0  0  0  0  0  0  0  0  0
  161.5900  213.6950  148.8830 C   0  0  0  0  0  1  0  0  0  0  0  0
  161.8840  207.4810  149.1590 C   0  0  0  0  0  3  0  0  0  0  0  0
  161.4730  211.4870  150.1880 C   0  0  0  0  0  0  0  0  0  0  0  0
  159.7060  208.5280  155.6450 C   0  0  0  0  0  3  0  0  0  0  0  0
  161.2050  212.1090  151.4430 N   0  0  0  0  0  1  0  0  0  0  0  0
  160.2400  207.2550  155.8460 C   0  0  0  0  0  0  0  0  0  0  0  0
  161.5930  210.0980  150.0040 C   0  0  0  0  0  0  0  0  0  0  0  0
  161.5830  206.6280  151.4370 N   0  0  0  0  0  0  0  0  0  0  0  0
  161.6540  212.2130  149.0120 C   0  0  0  0  0  0  0  0  0  0  0  0
  161.8600  209.7740  148.6840 C   0  0  0  0  0  0  0  0  0  0  0  0
  161.3440  207.3780  153.6910 C   0  0  0  0  0  0  0  0  0  0  0  0
  161.4570  209.0760  150.9630 C   0  0  0  0  0  0  0  0  0  0  0  0
  159.9850  209.2230  154.4650 C   0  0  0  0  0  3  0  0  0  0  0  0
  161.9950  208.4970  148.2610 N   0  0  0  0  0  0  0  0  0  0  0  0
  159.9710  206.5780  156.9870 F   0  0  0  0  0  0  0  0  0  0  0  0
  161.0640  206.6860  154.8720 C   0  0  0  0  0  3  0  0  0  0  0  0
  160.7910  208.6540  153.4720 C   0  0  0  0  0  0  0  0  0  0  0  0
  160.8310  202.6100  150.4860 C   0  0  0  0  0  3  0  0  0  0  0  0
  160.9440  205.3530  151.1170 C   0  0  1  0  0  3  0  0  0  0  0  0
  161.2840  204.8990  149.6910 C   0  0  0  0  0  2  0  0  0  0  0  0
  160.8270  203.4830  149.4760 C   0  0  0  0  0  3  0  0  0  0  0  0
  161.2060  203.0600  151.8380 C   0  0  0  0  0  3  0  0  0  0  0  0
  161.2940  204.3300  152.1080 N   0  0  0  0  0  0  0  0  0  0  0  0
  1 15  1  0  0  0  0
  2 16  1  0  0  0  0
  2 12  1  0  0  0  0
  3 21  1  0  0  0  0
  4 14  1  0  0  0  0
  4 13  1  0  0  0  0
  5 13  1  0  0  0  0
  6  2  2  0  0  0  0
  7  9  1  0  0  0  0
  8 10  1  0  0  0  0
 10 19  1  0  0  0  0
 11  7  1  0  0  0  0
 11 16  2  0  0  0  0
 12  1  1  0  0  0  0
 13  7  2  0  0  0  0
 14 11  1  0  0  0  0
 15 20  1  0  0  0  0
 16  3  1  0  0  0  0
 17  8  2  0  0  0  0
 18 14  2  0  0  0  0
 18  6  1  0  0  0  0
 20 10  2  0  0  0  0
 21 15  2  0  0  0  0
 21 17  1  0  0  0  0
 22 26  1  0  0  0  0
 23 24  1  6  0  0  0
 23 12  1  0  0  0  0
 23 27  1  0  0  0  0
 25 24  1  0  0  0  0
 25 22  2  0  0  0  0
 26 27  2  0  0  0  0
M  END
>  <MODEL>
5

>  <REMARK>
 VINA RESULT:      -6.2      3.009      6.763
  Name = 
  1 active torsions:
  status: ('A' for Active; 'I' for Inactive)
    1  A    between atoms: C_9  and  N_15
                            x       y       z     vdW  Elec       q    Type
                         _______ _______ _______ _____ _____    ______ ____

>  <TORSDO>
F 1

$$$$
