=
 OpenBabel11052422503D

 28 30  0  0  1  0  0  0  0  0999 V2000
  162.7370  206.0560  150.9570 C   0  0  0  0  0  1  0  0  0  0  0  0
  161.2170  206.1730  150.8850 C   0  0  2  0  0  0  0  0  0  0  0  0
  161.3880  207.6040  152.9830 C   0  0  2  0  0  3  0  0  0  0  0  0
  160.6780  206.4300  152.3200 C   0  0  2  0  0  3  0  0  0  0  0  0
  161.6590  206.1900  153.4570 C   0  0  0  0  0  2  0  0  0  0  0  0
  160.5160  208.2330  153.8770 O   0  0  0  0  0  0  0  0  0  0  0  0
  161.3040  209.1700  154.5560 C   0  0  2  0  0  3  0  0  0  0  0  0
  162.0730  211.0080  156.5950 C   0  0  0  0  0  2  0  0  0  0  0  0
  161.5900  208.6810  155.9550 C   0  0  0  0  0  3  0  0  0  0  0  0
  159.8480  210.8500  153.7140 O   0  0  0  0  0  0  0  0  0  0  0  0
  160.6180  210.5180  154.6030 C   0  0  0  0  0  0  0  0  0  0  0  0
  160.8980  211.4790  155.7330 C   0  0  0  0  0  2  0  0  0  0  0  0
  161.9510  209.5440  156.9130 C   0  0  0  0  0  3  0  0  0  0  0  0
  160.6340  204.8450  150.3710 C   0  0  0  0  0  2  0  0  0  0  0  0
  160.8570  203.0020  151.9260 O   0  0  0  0  0  1  0  0  0  0  0  0
  161.4050  203.5780  150.7790 C   0  0  1  0  0  3  0  0  0  0  0  0
  161.4610  202.5440  149.6460 C   0  0  1  0  0  3  0  0  0  0  0  0
  160.6710  201.2900  150.0140 C   0  0  0  0  0  1  0  0  0  0  0  0
  161.6300  204.4000  146.2910 C   0  0  0  0  0  3  0  0  0  0  0  0
  160.9960  203.1260  148.3020 C   0  0  1  0  0  3  0  0  0  0  0  0
  160.9450  202.1520  145.9020 C   0  0  1  0  0  3  0  0  0  0  0  0
  162.0960  203.9750  147.6490 C   0  0  0  0  0  2  0  0  0  0  0  0
  160.4690  202.0190  147.3590 C   0  0  0  0  0  2  0  0  0  0  0  0
  159.9800  201.4450  144.9750 C   0  0  0  0  0  1  0  0  0  0  0  0
  161.0810  203.5390  145.5050 N   0  0  0  0  0  0  0  0  0  0  0  0
  160.8270  207.2360  149.8320 C   0  0  0  0  0  2  0  0  0  0  0  0
  161.9090  207.5680  148.8060 C   0  0  0  0  0  2  0  0  0  0  0  0
  162.1220  208.9460  148.7540 O   0  0  0  0  0  1  0  0  0  0  0  0
  2  1  1  1  0  0  0
  3  5  1  0  0  0  0
  3  6  1  1  0  0  0
  4  2  1  6  0  0  0
  4  3  1  0  0  0  0
  4  5  1  0  0  0  0
  7  6  1  1  0  0  0
  7 11  1  0  0  0  0
  7  9  1  0  0  0  0
  8 13  1  0  0  0  0
  9 13  2  0  0  0  0
 10 11  2  0  0  0  0
 11 12  1  0  0  0  0
 12  8  1  0  0  0  0
 14 16  1  0  0  0  0
 14  2  1  0  0  0  0
 16 15  1  1  0  0  0
 17 18  1  1  0  0  0
 17 16  1  0  0  0  0
 19 22  1  0  0  0  0
 20 17  1  1  0  0  0
 21 24  1  6  0  0  0
 21 23  1  0  0  0  0
 22 20  1  0  0  0  0
 23 20  1  0  0  0  0
 25 21  1  0  0  0  0
 25 19  2  0  0  0  0
 26  2  1  0  0  0  0
 27 26  1  0  0  0  0
 28 27  1  0  0  0  0
M  END
>  <MODEL>
1

>  <REMARK>
 VINA RESULT:      -7.3      0.000      0.000
  Name = 
  9 active torsions:
  status: ('A' for Active; 'I' for Inactive)
    1  A    between atoms: C_1  and  O_2
    2  A    between atoms: O_2  and  C_3
    3  A    between atoms: C_9  and  C_14
    4  A    between atoms: C_10  and  C_25
    5  A    between atoms: C_10  and  C_27
    6  A    between atoms: C_14  and  C_25
    7  A    between atoms: C_16  and  C_21
    8  A    between atoms: C_17  and  C_27
    9  A    between atoms: C_21  and  C_27
                            x       y       z     vdW  Elec       q    Type
                         _______ _______ _______ _____ _____    ______ ____

>  <TORSDO>
F 9

$$$$
=
 OpenBabel11052422503D

 28 30  0  0  1  0  0  0  0  0999 V2000
  162.9330  207.1640  150.9400 C   0  0  0  0  0  1  0  0  0  0  0  0
  161.4410  207.2830  150.6400 C   0  0  2  0  0  0  0  0  0  0  0  0
  161.9170  206.6880  148.2110 C   0  0  2  0  0  3  0  0  0  0  0  0
  161.2730  207.6990  149.1520 C   0  0  2  0  0  3  0  0  0  0  0  0
  162.5510  208.0510  148.4070 C   0  0  0  0  0  2  0  0  0  0  0  0
  161.2220  206.6700  146.9980 O   0  0  0  0  0  0  0  0  0  0  0  0
  160.8000  205.3450  146.8400 C   0  0  2  0  0  3  0  0  0  0  0  0
  160.9950  202.5290  146.4370 C   0  0  0  0  0  2  0  0  0  0  0  0
  161.4570  204.4700  147.8790 C   0  0  0  0  0  3  0  0  0  0  0  0
  161.1750  205.6150  144.5070 O   0  0  0  0  0  0  0  0  0  0  0  0
  161.1240  204.8390  145.4500 C   0  0  0  0  0  0  0  0  0  0  0  0
  161.3600  203.3680  145.2090 C   0  0  0  0  0  2  0  0  0  0  0  0
  161.5480  203.1480  147.6910 C   0  0  0  0  0  3  0  0  0  0  0  0
  160.8350  208.3810  151.5310 C   0  0  0  0  0  2  0  0  0  0  0  0
  161.9090  210.4470  150.8650 O   0  0  0  0  0  1  0  0  0  0  0  0
  161.7840  209.5300  151.9100 C   0  0  1  0  0  3  0  0  0  0  0  0
  161.3400  210.2490  153.1910 C   0  0  1  0  0  3  0  0  0  0  0  0
  159.8260  210.4480  153.2070 C   0  0  0  0  0  1  0  0  0  0  0  0
  162.5160  209.7690  156.8120 C   0  0  0  0  0  3  0  0  0  0  0  0
  161.8250  209.5310  154.4600 C   0  0  1  0  0  3  0  0  0  0  0  0
  160.5600  208.4580  156.4510 C   0  0  1  0  0  3  0  0  0  0  0  0
  162.1800  210.5310  155.5680 C   0  0  0  0  0  2  0  0  0  0  0  0
  160.8060  208.4680  154.9320 C   0  0  0  0  0  2  0  0  0  0  0  0
  160.0550  207.1010  156.8860 C   0  0  0  0  0  1  0  0  0  0  0  0
  161.7590  208.7980  157.1910 N   0  0  0  0  0  0  0  0  0  0  0  0
  160.7250  205.9730  151.0450 C   0  0  0  0  0  2  0  0  0  0  0  0
  161.5690  204.9880  151.8520 C   0  0  0  0  0  2  0  0  0  0  0  0
  161.2580  205.0820  153.2090 O   0  0  0  0  0  1  0  0  0  0  0  0
  2  1  1  1  0  0  0
  2 26  1  0  0  0  0
  2 14  1  0  0  0  0
  3  6  1  6  0  0  0
  3  5  1  0  0  0  0
  3  4  1  0  0  0  0
  4  2  1  1  0  0  0
  5  4  1  0  0  0  0
  7  6  1  6  0  0  0
  7  9  1  0  0  0  0
  8 13  1  0  0  0  0
 10 11  2  0  0  0  0
 11  7  1  0  0  0  0
 12 11  1  0  0  0  0
 12  8  1  0  0  0  0
 13  9  2  0  0  0  0
 14 16  1  0  0  0  0
 16 15  1  6  0  0  0
 16 17  1  0  0  0  0
 17 18  1  1  0  0  0
 19 25  2  0  0  0  0
 20 17  1  6  0  0  0
 20 23  1  0  0  0  0
 20 22  1  0  0  0  0
 21 24  1  1  0  0  0
 21 25  1  0  0  0  0
 22 19  1  0  0  0  0
 23 21  1  0  0  0  0
 26 27  1  0  0  0  0
 27 28  1  0  0  0  0
M  END
>  <MODEL>
2

>  <REMARK>
 VINA RESULT:      -7.2      3.014      8.923
  Name = 
  9 active torsions:
  status: ('A' for Active; 'I' for Inactive)
    1  A    between atoms: C_1  and  O_2
    2  A    between atoms: O_2  and  C_3
    3  A    between atoms: C_9  and  C_14
    4  A    between atoms: C_10  and  C_25
    5  A    between atoms: C_10  and  C_27
    6  A    between atoms: C_14  and  C_25
    7  A    between atoms: C_16  and  C_21
    8  A    between atoms: C_17  and  C_27
    9  A    between atoms: C_21  and  C_27
                            x       y       z     vdW  Elec       q    Type
                         _______ _______ _______ _____ _____    ______ ____

>  <TORSDO>
F 9

$$$$
=
 OpenBabel11052422503D

 28 30  0  0  1  0  0  0  0  0999 V2000
  160.4500  207.3480  151.2180 C   0  0  0  0  0  1  0  0  0  0  0  0
  161.9710  207.2860  151.1150 C   0  0  2  0  0  0  0  0  0  0  0  0
  161.5660  209.5420  152.2220 C   0  0  2  0  0  3  0  0  0  0  0  0
  162.5390  208.7040  151.4010 C   0  0  2  0  0  3  0  0  0  0  0  0
  161.7950  209.8650  150.7590 C   0  0  0  0  0  2  0  0  0  0  0  0
  162.2810  210.4460  153.0130 O   0  0  0  0  0  0  0  0  0  0  0  0
  161.5200  210.5910  154.1800 C   0  0  2  0  0  3  0  0  0  0  0  0
  159.3040  210.3170  155.9520 C   0  0  0  0  0  2  0  0  0  0  0  0
  161.1320  209.2320  154.7100 C   0  0  0  0  0  3  0  0  0  0  0  0
  160.2900  212.2770  153.0420 O   0  0  0  0  0  0  0  0  0  0  0  0
  160.2840  211.4230  153.9160 C   0  0  0  0  0  0  0  0  0  0  0  0
  159.0400  211.2270  154.7480 C   0  0  0  0  0  2  0  0  0  0  0  0
  160.0910  209.1030  155.5420 C   0  0  0  0  0  3  0  0  0  0  0  0
  162.3620  206.8780  149.6840 C   0  0  0  0  0  2  0  0  0  0  0  0
  161.2030  207.9760  147.8630 O   0  0  0  0  0  1  0  0  0  0  0  0
  161.2100  206.8350  148.6670 C   0  0  1  0  0  3  0  0  0  0  0  0
  161.2570  205.5750  147.7920 C   0  0  1  0  0  3  0  0  0  0  0  0
  162.3040  205.7170  146.6890 C   0  0  0  0  0  1  0  0  0  0  0  0
  160.6190  202.8330  150.4000 C   0  0  0  0  0  3  0  0  0  0  0  0
  161.4810  204.2990  148.6180 C   0  0  1  0  0  3  0  0  0  0  0  0
  160.7820  201.8320  148.2450 C   0  0  1  0  0  3  0  0  0  0  0  0
  160.4250  204.1540  149.7210 C   0  0  0  0  0  2  0  0  0  0  0  0
  161.5620  203.0470  147.7130 C   0  0  0  0  0  2  0  0  0  0  0  0
  161.3560  200.5560  147.6690 C   0  0  0  0  0  1  0  0  0  0  0  0
  160.8020  201.7720  149.6920 N   0  0  0  0  0  0  0  0  0  0  0  0
  162.5090  206.1620  152.0320 C   0  0  0  0  0  2  0  0  0  0  0  0
  161.6590  205.8620  153.2650 C   0  0  0  0  0  2  0  0  0  0  0  0
  161.1230  204.5760  153.1830 O   0  0  0  0  0  1  0  0  0  0  0  0
  2  1  1  1  0  0  0
  2 26  1  0  0  0  0
  3  6  1  1  0  0  0
  4  2  1  6  0  0  0
  4  3  1  0  0  0  0
  5  4  1  0  0  0  0
  5  3  1  0  0  0  0
  7  6  1  6  0  0  0
  7  9  1  0  0  0  0
  9 13  2  0  0  0  0
 10 11  2  0  0  0  0
 11  7  1  0  0  0  0
 11 12  1  0  0  0  0
 12  8  1  0  0  0  0
 13  8  1  0  0  0  0
 14  2  1  0  0  0  0
 16 15  1  6  0  0  0
 16 14  1  0  0  0  0
 17 18  1  6  0  0  0
 17 16  1  0  0  0  0
 20 17  1  6  0  0  0
 20 22  1  0  0  0  0
 21 24  1  6  0  0  0
 21 25  1  0  0  0  0
 22 19  1  0  0  0  0
 23 21  1  0  0  0  0
 23 20  1  0  0  0  0
 25 19  2  0  0  0  0
 26 27  1  0  0  0  0
 28 27  1  0  0  0  0
M  END
>  <MODEL>
3

>  <REMARK>
 VINA RESULT:      -7.0      1.835      3.425
  Name = 
  9 active torsions:
  status: ('A' for Active; 'I' for Inactive)
    1  A    between atoms: C_1  and  O_2
    2  A    between atoms: O_2  and  C_3
    3  A    between atoms: C_9  and  C_14
    4  A    between atoms: C_10  and  C_25
    5  A    between atoms: C_10  and  C_27
    6  A    between atoms: C_14  and  C_25
    7  A    between atoms: C_16  and  C_21
    8  A    between atoms: C_17  and  C_27
    9  A    between atoms: C_21  and  C_27
                            x       y       z     vdW  Elec       q    Type
                         _______ _______ _______ _____ _____    ______ ____

>  <TORSDO>
F 9

$$$$
=
 OpenBabel11052422503D

 28 30  0  0  1  0  0  0  0  0999 V2000
  162.8220  207.1630  150.9320 C   0  0  0  0  0  1  0  0  0  0  0  0
  161.3030  207.3050  150.9950 C   0  0  2  0  0  0  0  0  0  0  0  0
  161.5080  205.6500  149.0720 C   0  0  2  0  0  3  0  0  0  0  0  0
  160.7090  206.8140  149.6450 C   0  0  2  0  0  3  0  0  0  0  0  0
  161.5840  207.0150  148.4170 C   0  0  0  0  0  2  0  0  0  0  0  0
  160.6600  204.8250  148.3260 O   0  0  0  0  0  0  0  0  0  0  0  0
  161.2360  203.5510  148.3980 C   0  0  2  0  0  3  0  0  0  0  0  0
  161.4070  200.7070  148.2910 C   0  0  0  0  0  2  0  0  0  0  0  0
  161.0380  202.8240  147.0910 C   0  0  0  0  0  3  0  0  0  0  0  0
  160.2070  203.3210  150.5290 O   0  0  0  0  0  0  0  0  0  0  0  0
  160.6370  202.7520  149.5360 C   0  0  0  0  0  0  0  0  0  0  0  0
  160.5900  201.2450  149.4700 C   0  0  0  0  0  2  0  0  0  0  0  0
  161.1180  201.4890  147.0390 C   0  0  0  0  0  3  0  0  0  0  0  0
  160.9440  208.7890  151.1810 C   0  0  0  0  0  2  0  0  0  0  0  0
  162.5490  210.5980  151.0370 O   0  0  0  0  0  1  0  0  0  0  0  0
  162.0020  209.6450  151.8980 C   0  0  1  0  0  3  0  0  0  0  0  0
  161.4410  210.3280  153.1520 C   0  0  1  0  0  3  0  0  0  0  0  0
  159.9170  210.4100  153.0920 C   0  0  0  0  0  1  0  0  0  0  0  0
  162.6180  209.9690  156.7870 C   0  0  0  0  0  3  0  0  0  0  0  0
  161.9170  209.6520  154.4470 C   0  0  1  0  0  3  0  0  0  0  0  0
  160.6390  208.6790  156.4800 C   0  0  1  0  0  3  0  0  0  0  0  0
  162.2920  210.6880  155.5150 C   0  0  0  0  0  2  0  0  0  0  0  0
  160.8810  208.6260  154.9610 C   0  0  0  0  0  2  0  0  0  0  0  0
  160.1110  207.3480  156.9680 C   0  0  0  0  0  1  0  0  0  0  0  0
  161.8450  209.0270  157.2040 N   0  0  0  0  0  0  0  0  0  0  0  0
  160.7670  206.5840  152.2530 C   0  0  0  0  0  2  0  0  0  0  0  0
  161.7560  205.6440  152.9400 C   0  0  0  0  0  2  0  0  0  0  0  0
  161.2010  204.3700  153.0740 O   0  0  0  0  0  1  0  0  0  0  0  0
  2  1  1  6  0  0  0
  2 14  1  0  0  0  0
  2 26  1  0  0  0  0
  3  6  1  6  0  0  0
  3  4  1  0  0  0  0
  4  2  1  1  0  0  0
  5  3  1  0  0  0  0
  5  4  1  0  0  0  0
  7  6  1  6  0  0  0
  7 11  1  0  0  0  0
  8 12  1  0  0  0  0
  9  7  1  0  0  0  0
 11 10  2  0  0  0  0
 12 11  1  0  0  0  0
 13  9  2  0  0  0  0
 13  8  1  0  0  0  0
 14 16  1  0  0  0  0
 16 15  1  6  0  0  0
 16 17  1  0  0  0  0
 17 18  1  6  0  0  0
 19 25  2  0  0  0  0
 20 17  1  6  0  0  0
 20 23  1  0  0  0  0
 20 22  1  0  0  0  0
 21 24  1  1  0  0  0
 21 25  1  0  0  0  0
 22 19  1  0  0  0  0
 23 21  1  0  0  0  0
 26 27  1  0  0  0  0
 27 28  1  0  0  0  0
M  END
>  <MODEL>
4

>  <REMARK>
 VINA RESULT:      -6.9      2.950      8.861
  Name = 
  9 active torsions:
  status: ('A' for Active; 'I' for Inactive)
    1  A    between atoms: C_1  and  O_2
    2  A    between atoms: O_2  and  C_3
    3  A    between atoms: C_9  and  C_14
    4  A    between atoms: C_10  and  C_25
    5  A    between atoms: C_10  and  C_27
    6  A    between atoms: C_14  and  C_25
    7  A    between atoms: C_16  and  C_21
    8  A    between atoms: C_17  and  C_27
    9  A    between atoms: C_21  and  C_27
                            x       y       z     vdW  Elec       q    Type
                         _______ _______ _______ _____ _____    ______ ____

>  <TORSDO>
F 9

$$$$
=
 OpenBabel11052422503D

 28 30  0  0  1  0  0  0  0  0999 V2000
  163.1130  205.9750  151.6820 C   0  0  0  0  0  1  0  0  0  0  0  0
  161.6310  206.1220  152.0150 C   0  0  2  0  0  0  0  0  0  0  0  0
  161.3720  205.0270  149.7320 C   0  0  2  0  0  3  0  0  0  0  0  0
  160.8330  205.1030  151.1550 C   0  0  2  0  0  3  0  0  0  0  0  0
  160.0330  205.6840  149.9990 C   0  0  0  0  0  2  0  0  0  0  0  0
  161.1640  203.7430  149.2210 O   0  0  0  0  0  0  0  0  0  0  0  0
  161.7800  203.7460  147.9640 C   0  0  2  0  0  3  0  0  0  0  0  0
  162.0620  204.1050  145.1500 C   0  0  0  0  0  2  0  0  0  0  0  0
  161.7050  205.1270  147.3600 C   0  0  0  0  0  3  0  0  0  0  0  0
  160.6070  201.7310  147.5000 O   0  0  0  0  0  0  0  0  0  0  0  0
  161.1290  202.7370  147.0430 C   0  0  0  0  0  0  0  0  0  0  0  0
  161.1430  202.9460  145.5480 C   0  0  0  0  0  2  0  0  0  0  0  0
  161.8380  205.2960  146.0390 C   0  0  0  0  0  3  0  0  0  0  0  0
  161.1720  207.5440  151.6480 C   0  0  0  0  0  2  0  0  0  0  0  0
  161.9470  208.4200  149.5270 O   0  0  0  0  0  1  0  0  0  0  0  0
  162.2040  208.4030  150.8990 C   0  0  1  0  0  3  0  0  0  0  0  0
  162.2650  209.8380  151.4410 C   0  0  1  0  0  3  0  0  0  0  0  0
  161.9970  210.8510  150.3300 C   0  0  0  0  0  1  0  0  0  0  0  0
  161.1150  210.7640  154.9840 C   0  0  0  0  0  3  0  0  0  0  0  0
  161.3210  210.0500  152.6350 C   0  0  1  0  0  3  0  0  0  0  0  0
  159.9130  212.0840  153.4070 C   0  0  1  0  0  3  0  0  0  0  0  0
  162.0960  210.4440  153.8990 C   0  0  0  0  0  2  0  0  0  0  0  0
  160.1990  211.0600  152.2950 C   0  0  0  0  0  2  0  0  0  0  0  0
  158.5030  212.6160  153.2710 C   0  0  0  0  0  1  0  0  0  0  0  0
  160.0990  211.5120  154.7250 N   0  0  0  0  0  0  0  0  0  0  0  0
  161.4270  205.9980  153.5430 C   0  0  0  0  0  2  0  0  0  0  0  0
  160.5580  207.0830  154.1770 C   0  0  0  0  0  2  0  0  0  0  0  0
  160.9170  207.2740  155.5120 O   0  0  0  0  0  1  0  0  0  0  0  0
  2  1  1  6  0  0  0
  2 26  1  0  0  0  0
  3  6  1  6  0  0  0
  3  5  1  0  0  0  0
  3  4  1  0  0  0  0
  4  2  1  1  0  0  0
  5  4  1  0  0  0  0
  7  6  1  1  0  0  0
  8 12  1  0  0  0  0
  8 13  1  0  0  0  0
  9  7  1  0  0  0  0
 11 10  2  0  0  0  0
 11  7  1  0  0  0  0
 12 11  1  0  0  0  0
 13  9  2  0  0  0  0
 14  2  1  0  0  0  0
 16 15  1  6  0  0  0
 16 17  1  0  0  0  0
 16 14  1  0  0  0  0
 17 18  1  6  0  0  0
 20 17  1  6  0  0  0
 20 22  1  0  0  0  0
 21 24  1  1  0  0  0
 21 25  1  0  0  0  0
 22 19  1  0  0  0  0
 23 20  1  0  0  0  0
 23 21  1  0  0  0  0
 25 19  2  0  0  0  0
 26 27  1  0  0  0  0
 27 28  1  0  0  0  0
M  END
>  <MODEL>
5

>  <REMARK>
 VINA RESULT:      -6.8      3.004      8.781
  Name = 
  9 active torsions:
  status: ('A' for Active; 'I' for Inactive)
    1  A    between atoms: C_1  and  O_2
    2  A    between atoms: O_2  and  C_3
    3  A    between atoms: C_9  and  C_14
    4  A    between atoms: C_10  and  C_25
    5  A    between atoms: C_10  and  C_27
    6  A    between atoms: C_14  and  C_25
    7  A    between atoms: C_16  and  C_21
    8  A    between atoms: C_17  and  C_27
    9  A    between atoms: C_21  and  C_27
                            x       y       z     vdW  Elec       q    Type
                         _______ _______ _______ _____ _____    ______ ____

>  <TORSDO>
F 9

$$$$
=
 OpenBabel11052422503D

 28 30  0  0  1  0  0  0  0  0999 V2000
  160.2960  206.6050  150.8650 C   0  0  0  0  0  1  0  0  0  0  0  0
  161.7320  206.2720  151.2580 C   0  0  2  0  0  0  0  0  0  0  0  0
  160.9740  204.1730  150.0340 C   0  0  2  0  0  3  0  0  0  0  0  0
  161.9570  204.7490  151.0460 C   0  0  2  0  0  3  0  0  0  0  0  0
  160.8310  203.8350  151.5050 C   0  0  0  0  0  2  0  0  0  0  0  0
  161.5660  203.0970  149.3670 O   0  0  0  0  0  0  0  0  0  0  0  0
  160.9260  203.0420  148.1230 C   0  0  2  0  0  3  0  0  0  0  0  0
  160.5540  202.4710  145.3550 C   0  0  0  0  0  2  0  0  0  0  0  0
  160.8650  201.6130  147.6410 C   0  0  0  0  0  3  0  0  0  0  0  0
  162.2660  204.8950  147.4710 O   0  0  0  0  0  0  0  0  0  0  0  0
  161.6460  203.9050  147.1090 C   0  0  0  0  0  0  0  0  0  0  0  0
  161.5820  203.5710  145.6390 C   0  0  0  0  0  2  0  0  0  0  0  0
  160.6900  201.3440  146.3410 C   0  0  0  0  0  3  0  0  0  0  0  0
  161.9340  206.5970  152.7480 C   0  0  0  0  0  2  0  0  0  0  0  0
  160.4990  206.9560  154.6660 O   0  0  0  0  0  1  0  0  0  0  0  0
  160.8280  207.4430  153.4000 C   0  0  1  0  0  3  0  0  0  0  0  0
  161.2110  208.9260  153.4900 C   0  0  1  0  0  3  0  0  0  0  0  0
  160.4770  209.7440  152.4290 C   0  0  0  0  0  1  0  0  0  0  0  0
  161.8660  210.9540  156.6830 C   0  0  0  0  0  3  0  0  0  0  0  0
  160.9870  209.5020  154.8970 C   0  0  1  0  0  3  0  0  0  0  0  0
  159.7890  211.6400  155.7390 C   0  0  1  0  0  3  0  0  0  0  0  0
  162.1990  210.3160  155.3690 C   0  0  0  0  0  2  0  0  0  0  0  0
  159.6700  210.3100  154.9730 C   0  0  0  0  0  2  0  0  0  0  0  0
  158.4330  212.0590  156.2620 C   0  0  0  0  0  1  0  0  0  0  0  0
  160.7320  211.5470  156.8350 N   0  0  0  0  0  0  0  0  0  0  0  0
  162.7080  207.1960  150.4930 C   0  0  0  0  0  2  0  0  0  0  0  0
  162.0560  208.1490  149.4920 C   0  0  0  0  0  2  0  0  0  0  0  0
  162.7090  208.0790  148.2600 O   0  0  0  0  0  1  0  0  0  0  0  0
  2  1  1  6  0  0  0
  2 14  1  0  0  0  0
  3  6  1  6  0  0  0
  3  4  1  0  0  0  0
  3  5  1  0  0  0  0
  4  2  1  1  0  0  0
  4  5  1  0  0  0  0
  7  6  1  1  0  0  0
  8 12  1  0  0  0  0
  8 13  1  0  0  0  0
  9  7  1  0  0  0  0
 11 10  2  0  0  0  0
 11  7  1  0  0  0  0
 12 11  1  0  0  0  0
 13  9  2  0  0  0  0
 14 16  1  0  0  0  0
 16 17  1  0  0  0  0
 16 15  1  1  0  0  0
 17 18  1  6  0  0  0
 19 25  2  0  0  0  0
 20 17  1  6  0  0  0
 20 23  1  0  0  0  0
 20 22  1  0  0  0  0
 21 24  1  1  0  0  0
 21 25  1  0  0  0  0
 22 19  1  0  0  0  0
 23 21  1  0  0  0  0
 26  2  1  0  0  0  0
 27 26  1  0  0  0  0
 28 27  1  0  0  0  0
M  END
>  <MODEL>
6

>  <REMARK>
 VINA RESULT:      -6.7      2.995      9.060
  Name = 
  9 active torsions:
  status: ('A' for Active; 'I' for Inactive)
    1  A    between atoms: C_1  and  O_2
    2  A    between atoms: O_2  and  C_3
    3  A    between atoms: C_9  and  C_14
    4  A    between atoms: C_10  and  C_25
    5  A    between atoms: C_10  and  C_27
    6  A    between atoms: C_14  and  C_25
    7  A    between atoms: C_16  and  C_21
    8  A    between atoms: C_17  and  C_27
    9  A    between atoms: C_21  and  C_27
                            x       y       z     vdW  Elec       q    Type
                         _______ _______ _______ _____ _____    ______ ____

>  <TORSDO>
F 9

$$$$
=
 OpenBabel11052422503D

 28 30  0  0  1  0  0  0  0  0999 V2000
  162.7590  206.9420  151.1600 C   0  0  0  0  0  1  0  0  0  0  0  0
  161.2980  207.0450  150.7280 C   0  0  2  0  0  0  0  0  0  0  0  0
  161.9600  206.5780  148.3150 C   0  0  2  0  0  3  0  0  0  0  0  0
  161.2560  207.5460  149.2580 C   0  0  2  0  0  3  0  0  0  0  0  0
  162.5950  207.9160  148.6380 C   0  0  0  0  0  2  0  0  0  0  0  0
  161.3650  206.6410  147.0520 O   0  0  0  0  0  0  0  0  0  0  0  0
  160.8600  205.3550  146.8220 C   0  0  2  0  0  3  0  0  0  0  0  0
  160.8640  202.5850  146.1480 C   0  0  0  0  0  2  0  0  0  0  0  0
  161.5780  204.3590  147.6980 C   0  0  0  0  0  3  0  0  0  0  0  0
  160.9950  205.8310  144.4970 O   0  0  0  0  0  0  0  0  0  0  0  0
  161.0060  204.9720  145.3650 C   0  0  0  0  0  0  0  0  0  0  0  0
  161.1380  203.5220  144.9670 C   0  0  0  0  0  2  0  0  0  0  0  0
  161.5800  203.0580  147.3830 C   0  0  0  0  0  3  0  0  0  0  0  0
  160.5810  208.0730  151.6210 C   0  0  0  0  0  2  0  0  0  0  0  0
  162.0580  209.8060  152.4470 O   0  0  0  0  0  1  0  0  0  0  0  0
  161.4060  208.6220  152.7970 C   0  0  1  0  0  3  0  0  0  0  0  0
  160.5490  208.8440  154.0510 C   0  0  1  0  0  3  0  0  0  0  0  0
  161.1880  208.1830  155.2710 C   0  0  0  0  0  1  0  0  0  0  0  0
  158.9380  212.3040  153.6490 C   0  0  0  0  0  3  0  0  0  0  0  0
  160.2610  210.3310  154.3040 C   0  0  1  0  0  3  0  0  0  0  0  0
  158.6020  211.5450  155.8820 C   0  0  1  0  0  3  0  0  0  0  0  0
  159.2770  210.8960  153.2700 C   0  0  0  0  0  2  0  0  0  0  0  0
  159.7910  210.5760  155.7570 C   0  0  0  0  0  2  0  0  0  0  0  0
  158.5830  212.1670  157.2610 C   0  0  0  0  0  1  0  0  0  0  0  0
  158.6460  212.5830  154.8730 N   0  0  0  0  0  0  0  0  0  0  0  0
  160.5850  205.6970  150.9870 C   0  0  0  0  0  2  0  0  0  0  0  0
  161.4910  204.5540  151.4430 C   0  0  0  0  0  2  0  0  0  0  0  0
  160.8350  203.7630  152.3870 O   0  0  0  0  0  1  0  0  0  0  0  0
  2 26  1  0  0  0  0
  2  1  1  1  0  0  0
  2 14  1  0  0  0  0
  3  6  1  6  0  0  0
  3  5  1  0  0  0  0
  3  4  1  0  0  0  0
  4  2  1  1  0  0  0
  5  4  1  0  0  0  0
  7  6  1  6  0  0  0
  7  9  1  0  0  0  0
  8 13  1  0  0  0  0
 10 11  2  0  0  0  0
 11  7  1  0  0  0  0
 12 11  1  0  0  0  0
 12  8  1  0  0  0  0
 13  9  2  0  0  0  0
 14 16  1  0  0  0  0
 16 15  1  6  0  0  0
 16 17  1  0  0  0  0
 17 18  1  1  0  0  0
 19 25  2  0  0  0  0
 20 17  1  6  0  0  0
 20 23  1  0  0  0  0
 21 24  1  1  0  0  0
 22 19  1  0  0  0  0
 22 20  1  0  0  0  0
 23 21  1  0  0  0  0
 25 21  1  0  0  0  0
 26 27  1  0  0  0  0
 27 28  1  0  0  0  0
M  END
>  <MODEL>
7

>  <REMARK>
 VINA RESULT:      -6.5      3.089      9.186
  Name = 
  9 active torsions:
  status: ('A' for Active; 'I' for Inactive)
    1  A    between atoms: C_1  and  O_2
    2  A    between atoms: O_2  and  C_3
    3  A    between atoms: C_9  and  C_14
    4  A    between atoms: C_10  and  C_25
    5  A    between atoms: C_10  and  C_27
    6  A    between atoms: C_14  and  C_25
    7  A    between atoms: C_16  and  C_21
    8  A    between atoms: C_17  and  C_27
    9  A    between atoms: C_21  and  C_27
                            x       y       z     vdW  Elec       q    Type
                         _______ _______ _______ _____ _____    ______ ____

>  <TORSDO>
F 9

$$$$
=
 OpenBabel11052422503D

 28 30  0  0  1  0  0  0  0  0999 V2000
  162.9840  206.8500  150.6420 C   0  0  0  0  0  1  0  0  0  0  0  0
  161.4770  207.0850  150.6790 C   0  0  2  0  0  0  0  0  0  0  0  0
  161.6500  205.4460  148.7390 C   0  0  2  0  0  3  0  0  0  0  0  0
  160.8750  206.6210  149.3230 C   0  0  2  0  0  3  0  0  0  0  0  0
  161.7560  206.8160  148.0990 C   0  0  0  0  0  2  0  0  0  0  0  0
  160.7870  204.6480  147.9830 O   0  0  0  0  0  0  0  0  0  0  0  0
  161.3720  203.3760  147.9850 C   0  0  2  0  0  3  0  0  0  0  0  0
  161.5510  200.5390  147.7700 C   0  0  0  0  0  2  0  0  0  0  0  0
  161.1210  202.6940  146.6620 C   0  0  0  0  0  3  0  0  0  0  0  0
  160.4350  203.0640  150.1480 O   0  0  0  0  0  0  0  0  0  0  0  0
  160.8260  202.5340  149.1190 C   0  0  0  0  0  0  0  0  0  0  0  0
  160.7840  201.0300  149.0010 C   0  0  0  0  0  2  0  0  0  0  0  0
  161.2060  201.3620  146.5610 C   0  0  0  0  0  3  0  0  0  0  0  0
  161.2070  208.5900  150.8500 C   0  0  0  0  0  2  0  0  0  0  0  0
  162.5190  210.3280  151.9090 O   0  0  0  0  0  1  0  0  0  0  0  0
  161.7180  209.2130  152.1600 C   0  0  1  0  0  3  0  0  0  0  0  0
  160.5720  209.5900  153.1080 C   0  0  1  0  0  3  0  0  0  0  0  0
  160.8040  209.0100  154.5020 C   0  0  0  0  0  1  0  0  0  0  0  0
  158.8060  212.9660  152.6410 C   0  0  0  0  0  3  0  0  0  0  0  0
  160.3370  211.1070  153.1630 C   0  0  1  0  0  3  0  0  0  0  0  0
  159.2690  212.6450  154.9550 C   0  0  1  0  0  3  0  0  0  0  0  0
  159.0440  211.5010  152.4370 C   0  0  0  0  0  2  0  0  0  0  0  0
  160.3780  211.6320  154.6180 C   0  0  0  0  0  2  0  0  0  0  0  0
  159.6970  213.5130  156.1180 C   0  0  0  0  0  1  0  0  0  0  0  0
  158.9360  213.4760  153.8170 N   0  0  0  0  0  0  0  0  0  0  0  0
  160.8770  206.4070  151.9340 C   0  0  0  0  0  2  0  0  0  0  0  0
  161.8020  205.4280  152.6540 C   0  0  0  0  0  2  0  0  0  0  0  0
  161.1670  204.1970  152.8240 O   0  0  0  0  0  1  0  0  0  0  0  0
  2  1  1  6  0  0  0
  2 14  1  0  0  0  0
  2 26  1  0  0  0  0
  3  6  1  6  0  0  0
  3  4  1  0  0  0  0
  4  2  1  1  0  0  0
  5  3  1  0  0  0  0
  5  4  1  0  0  0  0
  7  6  1  6  0  0  0
  7 11  1  0  0  0  0
  8 12  1  0  0  0  0
  9  7  1  0  0  0  0
 11 10  2  0  0  0  0
 12 11  1  0  0  0  0
 13  9  2  0  0  0  0
 13  8  1  0  0  0  0
 14 16  1  0  0  0  0
 16 15  1  6  0  0  0
 16 17  1  0  0  0  0
 17 18  1  1  0  0  0
 19 25  2  0  0  0  0
 20 17  1  1  0  0  0
 20 23  1  0  0  0  0
 21 24  1  1  0  0  0
 22 19  1  0  0  0  0
 22 20  1  0  0  0  0
 23 21  1  0  0  0  0
 25 21  1  0  0  0  0
 26 27  1  0  0  0  0
 27 28  1  0  0  0  0
M  END
>  <MODEL>
8

>  <REMARK>
 VINA RESULT:      -6.3      3.094      9.231
  Name = 
  9 active torsions:
  status: ('A' for Active; 'I' for Inactive)
    1  A    between atoms: C_1  and  O_2
    2  A    between atoms: O_2  and  C_3
    3  A    between atoms: C_9  and  C_14
    4  A    between atoms: C_10  and  C_25
    5  A    between atoms: C_10  and  C_27
    6  A    between atoms: C_14  and  C_25
    7  A    between atoms: C_16  and  C_21
    8  A    between atoms: C_17  and  C_27
    9  A    between atoms: C_21  and  C_27
                            x       y       z     vdW  Elec       q    Type
                         _______ _______ _______ _____ _____    ______ ____

>  <TORSDO>
F 9

$$$$
=
 OpenBabel11052422503D

 28 30  0  0  1  0  0  0  0  0999 V2000
  162.5770  205.4340  150.5310 C   0  0  0  0  0  1  0  0  0  0  0  0
  161.1090  205.4170  150.9460 C   0  0  2  0  0  0  0  0  0  0  0  0
  161.1660  206.8500  153.0490 C   0  0  2  0  0  3  0  0  0  0  0  0
  161.0380  205.4350  152.4980 C   0  0  2  0  0  3  0  0  0  0  0  0
  162.3050  205.8640  153.2210 C   0  0  0  0  0  2  0  0  0  0  0  0
  160.4560  206.9510  154.2480 O   0  0  0  0  0  0  0  0  0  0  0  0
  160.4560  208.3160  154.5580 C   0  0  2  0  0  3  0  0  0  0  0  0
  161.4750  210.9540  154.9140 C   0  0  0  0  0  2  0  0  0  0  0  0
  160.9450  209.1110  153.3720 C   0  0  0  0  0  3  0  0  0  0  0  0
  161.4760  207.7380  156.6270 O   0  0  0  0  0  0  0  0  0  0  0  0
  161.3240  208.5930  155.7670 C   0  0  0  0  0  0  0  0  0  0  0  0
  161.9900  209.9370  155.9380 C   0  0  0  0  0  2  0  0  0  0  0  0
  161.4230  210.3500  153.5390 C   0  0  0  0  0  3  0  0  0  0  0  0
  160.4580  204.1180  150.4370 C   0  0  0  0  0  2  0  0  0  0  0  0
  161.5940  202.3470  151.6360 O   0  0  0  0  0  1  0  0  0  0  0  0
  161.3840  202.8930  150.3680 C   0  0  1  0  0  3  0  0  0  0  0  0
  160.8500  201.8170  149.4130 C   0  0  1  0  0  3  0  0  0  0  0  0
  159.3260  201.7450  149.4710 C   0  0  0  0  0  1  0  0  0  0  0  0
  160.7540  202.0450  145.5830 C   0  0  0  0  0  3  0  0  0  0  0  0
  161.3490  202.0160  147.9740 C   0  0  1  0  0  3  0  0  0  0  0  0
  161.5370  204.1140  146.4650 C   0  0  1  0  0  3  0  0  0  0  0  0
  160.2470  201.7070  146.9510 C   0  0  0  0  0  2  0  0  0  0  0  0
  161.9550  203.4250  147.7760 C   0  0  0  0  0  2  0  0  0  0  0  0
  162.5660  205.1530  146.0750 C   0  0  0  0  0  1  0  0  0  0  0  0
  161.3660  203.1620  145.3880 N   0  0  0  0  0  0  0  0  0  0  0  0
  160.3560  206.5670  150.2370 C   0  0  0  0  0  2  0  0  0  0  0  0
  160.4600  206.5750  148.7130 C   0  0  0  0  0  2  0  0  0  0  0  0
  161.2960  207.6090  148.2900 O   0  0  0  0  0  1  0  0  0  0  0  0
  2  1  1  6  0  0  0
  3  5  1  0  0  0  0
  3  6  1  1  0  0  0
  4  2  1  6  0  0  0
  4  3  1  0  0  0  0
  4  5  1  0  0  0  0
  7  6  1  6  0  0  0
  7 11  1  0  0  0  0
  8 12  1  0  0  0  0
  9 13  2  0  0  0  0
  9  7  1  0  0  0  0
 11 12  1  0  0  0  0
 11 10  2  0  0  0  0
 13  8  1  0  0  0  0
 14  2  1  0  0  0  0
 16 14  1  0  0  0  0
 16 15  1  1  0  0  0
 17 18  1  6  0  0  0
 17 16  1  0  0  0  0
 19 22  1  0  0  0  0
 20 17  1  1  0  0  0
 21 24  1  6  0  0  0
 21 23  1  0  0  0  0
 22 20  1  0  0  0  0
 23 20  1  0  0  0  0
 25 19  2  0  0  0  0
 25 21  1  0  0  0  0
 26  2  1  0  0  0  0
 27 26  1  0  0  0  0
 28 27  1  0  0  0  0
M  END
>  <MODEL>
9

>  <REMARK>
 VINA RESULT:      -6.3      1.217      2.068
  Name = 
  9 active torsions:
  status: ('A' for Active; 'I' for Inactive)
    1  A    between atoms: C_1  and  O_2
    2  A    between atoms: O_2  and  C_3
    3  A    between atoms: C_9  and  C_14
    4  A    between atoms: C_10  and  C_25
    5  A    between atoms: C_10  and  C_27
    6  A    between atoms: C_14  and  C_25
    7  A    between atoms: C_16  and  C_21
    8  A    between atoms: C_17  and  C_27
    9  A    between atoms: C_21  and  C_27
                            x       y       z     vdW  Elec       q    Type
                         _______ _______ _______ _____ _____    ______ ____

>  <TORSDO>
F 9

$$$$
