=
 OpenBabel11052423073D

 27 31  0  0  1  0  0  0  0  0999 V2000
  160.0340  211.1270  152.2680 O   0  0  0  0  0  0  0  0  0  0  0  0
  161.3380  209.3540  151.4120 C   0  0  0  0  0  0  0  0  0  0  0  0
  161.1940  208.6530  153.8460 N   0  0  0  0  0  2  0  0  0  0  0  0
  161.3000  205.0080  149.9620 C   0  0  0  0  0  3  0  0  0  0  0  0
  161.0690  203.4630  151.9160 C   0  0  0  0  0  1  0  0  0  0  0  0
  161.3600  208.7420  150.2020 N   0  0  0  0  0  0  0  0  0  0  0  0
  161.1920  205.9420  152.3360 C   0  0  0  0  0  0  0  0  0  0  0  0
  160.7710  209.4910  156.9710 C   0  0  0  0  0  2  0  0  0  0  0  0
  161.1180  205.7150  153.8140 C   0  0  0  0  0  1  0  0  0  0  0  0
  159.4260  209.3390  156.2480 C   0  0  0  0  0  2  0  0  0  0  0  0
  161.2660  207.1780  151.8230 C   0  0  0  0  0  0  0  0  0  0  0  0
  161.2240  210.8350  151.5950 C   0  0  1  0  0  3  0  0  0  0  0  0
  161.1760  204.8240  151.4190 N   0  0  0  0  0  0  0  0  0  0  0  0
  161.3330  206.4610  149.5500 C   0  0  0  0  0  3  0  0  0  0  0  0
  160.4340  211.8380  153.4000 C   0  0  0  0  0  2  0  0  0  0  0  0
  161.2850  208.4150  152.4350 C   0  0  0  0  0  0  0  0  0  0  0  0
  161.9710  209.4300  156.0020 C   0  0  0  0  0  2  0  0  0  0  0  0
  161.3280  207.4220  150.4720 C   0  0  0  0  0  0  0  0  0  0  0  0
  159.2180  210.4320  155.1860 C   0  0  0  0  0  2  0  0  0  0  0  0
  160.5510  210.9320  154.6200 C   0  0  1  0  0  3  0  0  0  0  0  0
  161.6380  209.8470  154.5620 C   0  0  2  0  0  3  0  0  0  0  0  0
  161.4710  213.0670  147.9250 C   0  0  0  0  0  3  0  0  0  0  0  0
  161.3100  211.5960  150.3030 C   0  0  0  0  0  0  0  0  0  0  0  0
  160.4750  212.7000  150.1020 C   0  0  0  0  0  3  0  0  0  0  0  0
  160.5550  213.4340  148.9150 C   0  0  0  0  0  3  0  0  0  0  0  0
  162.3110  211.9680  148.1230 C   0  0  0  0  0  3  0  0  0  0  0  0
  162.2320  211.2330  149.3100 C   0  0  0  0  0  3  0  0  0  0  0  0
  1 15  1  0  0  0  0
  2 12  1  0  0  0  0
  2 16  2  0  0  0  0
  3 21  1  0  0  0  0
  4 13  1  0  0  0  0
  6 18  2  0  0  0  0
  6  2  1  0  0  0  0
  7  9  1  0  0  0  0
 10  8  1  0  0  0  0
 11  7  2  0  0  0  0
 11 16  1  0  0  0  0
 12 23  1  6  0  0  0
 12  1  1  0  0  0  0
 13  5  1  0  0  0  0
 13  7  1  0  0  0  0
 14  4  2  0  0  0  0
 14 18  1  0  0  0  0
 16  3  1  0  0  0  0
 17  8  1  0  0  0  0
 18 11  1  0  0  0  0
 19 10  1  0  0  0  0
 20 15  1  6  0  0  0
 20 19  1  0  0  0  0
 21 20  1  0  0  0  0
 21 17  1  1  0  0  0
 22 26  2  0  0  0  0
 22 25  1  0  0  0  0
 24 23  1  0  0  0  0
 25 24  2  0  0  0  0
 26 27  1  0  0  0  0
 27 23  2  0  0  0  0
M  END
>  <MODEL>
1

>  <REMARK>
 VINA RESULT:      -7.0      0.000      0.000
  Name = 
  1 active torsions:
  status: ('A' for Active; 'I' for Inactive)
    1  A    between atoms: C_9  and  C_15
                            x       y       z     vdW  Elec       q    Type
                         _______ _______ _______ _____ _____    ______ ____

>  <TORSDO>
F 1

$$$$
=
 OpenBabel11052423073D

 27 31  0  0  1  0  0  0  0  0999 V2000
  160.3540  211.6090  150.5860 O   0  0  0  0  0  0  0  0  0  0  0  0
  161.6560  209.7300  149.9910 C   0  0  0  0  0  0  0  0  0  0  0  0
  161.2580  209.2240  152.4450 N   0  0  0  0  0  2  0  0  0  0  0  0
  161.5700  205.2890  148.8690 C   0  0  0  0  0  3  0  0  0  0  0  0
  161.0940  203.9080  150.9000 C   0  0  0  0  0  1  0  0  0  0  0  0
  161.7640  209.0260  148.8380 N   0  0  0  0  0  0  0  0  0  0  0  0
  161.2820  206.4070  151.1460 C   0  0  0  0  0  0  0  0  0  0  0  0
  160.5830  210.3150  155.4460 C   0  0  0  0  0  2  0  0  0  0  0  0
  161.0620  206.2970  152.6230 C   0  0  0  0  0  1  0  0  0  0  0  0
  159.3060  210.1560  154.6110 C   0  0  0  0  0  2  0  0  0  0  0  0
  161.4550  207.5960  150.5530 C   0  0  0  0  0  0  0  0  0  0  0  0
  161.5880  211.2240  150.0530 C   0  0  1  0  0  3  0  0  0  0  0  0
  161.3030  205.2230  150.3170 N   0  0  0  0  0  0  0  0  0  0  0  0
  161.7020  206.7040  148.3560 C   0  0  0  0  0  3  0  0  0  0  0  0
  160.6760  212.3900  151.6960 C   0  0  0  0  0  2  0  0  0  0  0  0
  161.4690  208.8760  151.0710 C   0  0  0  0  0  0  0  0  0  0  0  0
  161.8640  210.1380  154.6030 C   0  0  0  0  0  2  0  0  0  0  0  0
  161.6510  207.7330  149.1990 C   0  0  0  0  0  0  0  0  0  0  0  0
  159.2420  211.1690  153.4570 C   0  0  0  0  0  2  0  0  0  0  0  0
  160.6420  211.5770  152.9850 C   0  0  1  0  0  3  0  0  0  0  0  0
  161.6840  210.4550  153.1110 C   0  0  2  0  0  3  0  0  0  0  0  0
  162.2220  213.1420  146.2550 C   0  0  0  0  0  3  0  0  0  0  0  0
  161.8240  211.8790  148.7230 C   0  0  0  0  0  0  0  0  0  0  0  0
  160.7300  212.1900  147.9090 C   0  0  0  0  0  3  0  0  0  0  0  0
  160.9280  212.8190  146.6760 C   0  0  0  0  0  3  0  0  0  0  0  0
  163.3180  212.8380  147.0670 C   0  0  0  0  0  3  0  0  0  0  0  0
  163.1210  212.2090  148.3000 C   0  0  0  0  0  3  0  0  0  0  0  0
  1 15  1  0  0  0  0
  2 12  1  0  0  0  0
  2 16  2  0  0  0  0
  3 21  1  0  0  0  0
  4 13  1  0  0  0  0
  6 18  2  0  0  0  0
  6  2  1  0  0  0  0
  7  9  1  0  0  0  0
 10  8  1  0  0  0  0
 11 16  1  0  0  0  0
 11  7  2  0  0  0  0
 12 23  1  6  0  0  0
 12  1  1  0  0  0  0
 13  5  1  0  0  0  0
 13  7  1  0  0  0  0
 14  4  2  0  0  0  0
 14 18  1  0  0  0  0
 16  3  1  0  0  0  0
 17  8  1  0  0  0  0
 18 11  1  0  0  0  0
 19 10  1  0  0  0  0
 20 15  1  6  0  0  0
 20 21  1  0  0  0  0
 20 19  1  0  0  0  0
 21 17  1  1  0  0  0
 22 25  2  0  0  0  0
 22 26  1  0  0  0  0
 24 23  2  0  0  0  0
 25 24  1  0  0  0  0
 26 27  2  0  0  0  0
 27 23  1  0  0  0  0
M  END
>  <MODEL>
2

>  <REMARK>
 VINA RESULT:      -6.5      1.219      1.621
  Name = 
  1 active torsions:
  status: ('A' for Active; 'I' for Inactive)
    1  A    between atoms: C_9  and  C_15
                            x       y       z     vdW  Elec       q    Type
                         _______ _______ _______ _____ _____    ______ ____

>  <TORSDO>
F 1

$$$$
=
 OpenBabel11052423073D

 27 31  0  0  1  0  0  0  0  0999 V2000
  160.2840  211.4600  151.2220 O   0  0  0  0  0  0  0  0  0  0  0  0
  161.5630  209.5610  150.6380 C   0  0  0  0  0  0  0  0  0  0  0  0
  161.2460  209.1270  153.1170 N   0  0  0  0  0  2  0  0  0  0  0  0
  161.4300  205.0900  149.6460 C   0  0  0  0  0  3  0  0  0  0  0  0
  161.0200  203.7700  151.7300 C   0  0  0  0  0  1  0  0  0  0  0  0
  161.6300  208.8240  149.5020 N   0  0  0  0  0  0  0  0  0  0  0  0
  161.2210  206.2740  151.8990 C   0  0  0  0  0  0  0  0  0  0  0  0
  160.6740  210.3050  156.1060 C   0  0  0  0  0  2  0  0  0  0  0  0
  161.0500  206.2070  153.3850 C   0  0  0  0  0  1  0  0  0  0  0  0
  159.3690  210.1250  155.3190 C   0  0  0  0  0  2  0  0  0  0  0  0
  161.3760  207.4450  151.2660 C   0  0  0  0  0  0  0  0  0  0  0  0
  161.4990  211.0570  150.6590 C   0  0  1  0  0  3  0  0  0  0  0  0
  161.2120  205.0670  151.1030 N   0  0  0  0  0  0  0  0  0  0  0  0
  161.5470  206.4900  149.0890 C   0  0  0  0  0  3  0  0  0  0  0  0
  160.6460  212.2720  152.2980 C   0  0  0  0  0  2  0  0  0  0  0  0
  161.4100  208.7390  151.7470 C   0  0  0  0  0  0  0  0  0  0  0  0
  161.9260  210.1000  155.2270 C   0  0  0  0  0  2  0  0  0  0  0  0
  161.5270  207.5430  149.9040 C   0  0  0  0  0  0  0  0  0  0  0  0
  159.2690  211.1050  154.1400 C   0  0  0  0  0  2  0  0  0  0  0  0
  160.6530  211.4960  153.6100 C   0  0  1  0  0  3  0  0  0  0  0  0
  161.6960  210.3740  153.7330 C   0  0  2  0  0  3  0  0  0  0  0  0
  162.0990  212.7850  146.7660 C   0  0  0  0  0  3  0  0  0  0  0  0
  161.6920  211.6730  149.3040 C   0  0  0  0  0  0  0  0  0  0  0  0
  162.9780  212.0500  148.9000 C   0  0  0  0  0  3  0  0  0  0  0  0
  163.1810  212.6060  147.6330 C   0  0  0  0  0  3  0  0  0  0  0  0
  160.8140  212.4050  147.1630 C   0  0  0  0  0  3  0  0  0  0  0  0
  160.6100  211.8490  148.4290 C   0  0  0  0  0  3  0  0  0  0  0  0
  1 15  1  0  0  0  0
  2 12  1  0  0  0  0
  2 16  2  0  0  0  0
  3 21  1  0  0  0  0
  4 13  1  0  0  0  0
  6 18  2  0  0  0  0
  6  2  1  0  0  0  0
  7  9  1  0  0  0  0
 10  8  1  0  0  0  0
 11 16  1  0  0  0  0
 11  7  2  0  0  0  0
 12 23  1  6  0  0  0
 12  1  1  0  0  0  0
 13  5  1  0  0  0  0
 13  7  1  0  0  0  0
 14  4  2  0  0  0  0
 14 18  1  0  0  0  0
 16  3  1  0  0  0  0
 17  8  1  0  0  0  0
 18 11  1  0  0  0  0
 19 10  1  0  0  0  0
 20 15  1  6  0  0  0
 20 21  1  0  0  0  0
 20 19  1  0  0  0  0
 21 17  1  1  0  0  0
 22 26  2  0  0  0  0
 22 25  1  0  0  0  0
 24 23  1  0  0  0  0
 25 24  2  0  0  0  0
 26 27  1  0  0  0  0
 27 23  2  0  0  0  0
M  END
>  <MODEL>
3

>  <REMARK>
 VINA RESULT:      -6.1      0.912      1.274
  Name = 
  1 active torsions:
  status: ('A' for Active; 'I' for Inactive)
    1  A    between atoms: C_9  and  C_15
                            x       y       z     vdW  Elec       q    Type
                         _______ _______ _______ _____ _____    ______ ____

>  <TORSDO>
F 1

$$$$
=
 OpenBabel11052423073D

 27 31  0  0  1  0  0  0  0  0999 V2000
  159.3660  212.1920  151.7300 O   0  0  0  0  0  0  0  0  0  0  0  0
  161.0010  210.5020  151.4910 C   0  0  0  0  0  0  0  0  0  0  0  0
  160.4200  210.2040  153.9430 N   0  0  0  0  0  2  0  0  0  0  0  0
  161.7240  206.0150  150.9220 C   0  0  0  0  0  3  0  0  0  0  0  0
  161.2490  204.8000  153.0560 C   0  0  0  0  0  1  0  0  0  0  0  0
  161.3400  209.7070  150.4470 N   0  0  0  0  0  0  0  0  0  0  0  0
  161.0210  207.3070  153.0080 C   0  0  0  0  0  0  0  0  0  0  0  0
  159.2620  211.4830  156.7130 C   0  0  0  0  0  2  0  0  0  0  0  0
  160.6610  207.3210  154.4620 C   0  0  0  0  0  1  0  0  0  0  0  0
  158.1240  211.0250  155.7920 C   0  0  0  0  0  2  0  0  0  0  0  0
  161.0710  208.4370  152.2910 C   0  0  0  0  0  0  0  0  0  0  0  0
  160.6960  211.9630  151.3620 C   0  0  1  0  0  3  0  0  0  0  0  0
  161.3150  206.0610  152.3370 N   0  0  0  0  0  0  0  0  0  0  0  0
  161.6910  207.3690  150.2520 C   0  0  0  0  0  3  0  0  0  0  0  0
  159.4420  213.1300  152.7600 C   0  0  0  0  0  2  0  0  0  0  0  0
  160.8320  209.7500  152.6470 C   0  0  0  0  0  0  0  0  0  0  0  0
  160.6390  211.4310  156.0170 C   0  0  0  0  0  2  0  0  0  0  0  0
  161.3900  208.4590  150.9540 C   0  0  0  0  0  0  0  0  0  0  0  0
  158.0310  211.8840  154.5210 C   0  0  0  0  0  2  0  0  0  0  0  0
  159.3930  212.4660  154.1300 C   0  0  1  0  0  3  0  0  0  0  0  0
  160.5760  211.5520  154.4870 C   0  0  2  0  0  3  0  0  0  0  0  0
  161.4840  213.5640  147.4480 C   0  0  0  0  0  3  0  0  0  0  0  0
  160.9720  212.5020  149.9880 C   0  0  0  0  0  0  0  0  0  0  0  0
  160.1820  213.5440  149.4900 C   0  0  0  0  0  3  0  0  0  0  0  0
  160.4370  214.0730  148.2210 C   0  0  0  0  0  3  0  0  0  0  0  0
  162.2790  212.5270  147.9430 C   0  0  0  0  0  3  0  0  0  0  0  0
  162.0250  211.9970  149.2110 C   0  0  0  0  0  3  0  0  0  0  0  0
  1 15  1  0  0  0  0
  2 16  2  0  0  0  0
  3 21  1  0  0  0  0
  4 13  1  0  0  0  0
  6 18  2  0  0  0  0
  6  2  1  0  0  0  0
  7  9  1  0  0  0  0
 10  8  1  0  0  0  0
 11 16  1  0  0  0  0
 11  7  2  0  0  0  0
 12 23  1  6  0  0  0
 12  2  1  0  0  0  0
 12  1  1  0  0  0  0
 13  7  1  0  0  0  0
 13  5  1  0  0  0  0
 14  4  2  0  0  0  0
 14 18  1  0  0  0  0
 16  3  1  0  0  0  0
 17  8  1  0  0  0  0
 18 11  1  0  0  0  0
 19 10  1  0  0  0  0
 20 15  1  6  0  0  0
 20 21  1  0  0  0  0
 20 19  1  0  0  0  0
 21 17  1  1  0  0  0
 22 26  2  0  0  0  0
 22 25  1  0  0  0  0
 24 23  1  0  0  0  0
 25 24  2  0  0  0  0
 26 27  1  0  0  0  0
 27 23  2  0  0  0  0
M  END
>  <MODEL>
4

>  <REMARK>
 VINA RESULT:      -5.8      1.323      1.553
  Name = 
  1 active torsions:
  status: ('A' for Active; 'I' for Inactive)
    1  A    between atoms: C_9  and  C_15
                            x       y       z     vdW  Elec       q    Type
                         _______ _______ _______ _____ _____    ______ ____

>  <TORSDO>
F 1

$$$$
=
 OpenBabel11052423073D

 27 31  0  0  1  0  0  0  0  0999 V2000
  162.4530  207.5670  149.0490 O   0  0  0  0  0  0  0  0  0  0  0  0
  161.0590  206.0520  150.2090 C   0  0  0  0  0  0  0  0  0  0  0  0
  160.8680  205.1090  147.8620 N   0  0  0  0  0  2  0  0  0  0  0  0
  160.7730  201.8920  152.1060 C   0  0  0  0  0  3  0  0  0  0  0  0
  160.6260  200.1510  150.3170 C   0  0  0  0  0  1  0  0  0  0  0  0
  161.0990  205.5660  151.4740 N   0  0  0  0  0  0  0  0  0  0  0  0
  160.7310  202.5750  149.6460 C   0  0  0  0  0  0  0  0  0  0  0  0
  161.0480  205.5880  144.6390 C   0  0  0  0  0  2  0  0  0  0  0  0
  160.6230  202.2010  148.2010 C   0  0  0  0  0  1  0  0  0  0  0  0
  162.4360  205.3460  145.2450 C   0  0  0  0  0  2  0  0  0  0  0  0
  160.8480  203.8540  150.0290 C   0  0  0  0  0  0  0  0  0  0  0  0
  161.3150  207.4850  149.8590 C   0  0  1  0  0  3  0  0  0  0  0  0
  160.7220  201.5570  150.6720 N   0  0  0  0  0  0  0  0  0  0  0  0
  160.9430  203.3710  152.3620 C   0  0  0  0  0  3  0  0  0  0  0  0
  162.0160  208.2080  147.8900 C   0  0  0  0  0  2  0  0  0  0  0  0
  160.9000  205.0210  149.2920 C   0  0  0  0  0  0  0  0  0  0  0  0
  159.9570  205.7640  145.7170 C   0  0  0  0  0  2  0  0  0  0  0  0
  160.9570  204.2320  151.3460 C   0  0  0  0  0  0  0  0  0  0  0  0
  162.8740  206.5020  146.1580 C   0  0  0  0  0  2  0  0  0  0  0  0
  161.6720  207.2100  146.7910 C   0  0  1  0  0  3  0  0  0  0  0  0
  160.4840  206.2750  147.0670 C   0  0  2  0  0  3  0  0  0  0  0  0
  161.6980  210.0710  153.2750 C   0  0  0  0  0  3  0  0  0  0  0  0
  161.4510  208.3700  151.0630 C   0  0  0  0  0  0  0  0  0  0  0  0
  162.3410  209.4490  151.0240 C   0  0  0  0  0  3  0  0  0  0  0  0
  162.4660  210.2970  152.1280 C   0  0  0  0  0  3  0  0  0  0  0  0
  160.8040  208.9990  153.3170 C   0  0  0  0  0  3  0  0  0  0  0  0
  160.6780  208.1500  152.2130 C   0  0  0  0  0  3  0  0  0  0  0  0
  1 12  1  0  0  0  0
  2  6  1  0  0  0  0
  3 16  1  0  0  0  0
  4 14  2  0  0  0  0
  5 13  1  0  0  0  0
  7 11  2  0  0  0  0
  7 13  1  0  0  0  0
  8 10  1  0  0  0  0
  8 17  1  0  0  0  0
  9  7  1  0  0  0  0
 10 19  1  0  0  0  0
 11 18  1  0  0  0  0
 12  2  1  0  0  0  0
 12 23  1  1  0  0  0
 13  4  1  0  0  0  0
 15  1  1  0  0  0  0
 16 11  1  0  0  0  0
 16  2  2  0  0  0  0
 18  6  2  0  0  0  0
 18 14  1  0  0  0  0
 20 19  1  1  0  0  0
 20 21  1  0  0  0  0
 20 15  1  0  0  0  0
 21 17  1  6  0  0  0
 21  3  1  0  0  0  0
 22 26  1  0  0  0  0
 23 27  1  0  0  0  0
 24 23  2  0  0  0  0
 24 25  1  0  0  0  0
 25 22  2  0  0  0  0
 27 26  2  0  0  0  0
M  END
>  <MODEL>
5

>  <REMARK>
 VINA RESULT:      -5.4      2.808      6.579
  Name = 
  1 active torsions:
  status: ('A' for Active; 'I' for Inactive)
    1  A    between atoms: C_9  and  C_15
                            x       y       z     vdW  Elec       q    Type
                         _______ _______ _______ _____ _____    ______ ____

>  <TORSDO>
F 1

$$$$
=
 OpenBabel11052423073D

 27 31  0  0  1  0  0  0  0  0999 V2000
  160.4000  207.1520  152.3390 O   0  0  0  0  0  0  0  0  0  0  0  0
  161.0770  209.4120  152.4600 C   0  0  0  0  0  0  0  0  0  0  0  0
  161.6490  208.9150  150.0390 N   0  0  0  0  0  2  0  0  0  0  0  0
  159.9360  213.7440  151.4990 C   0  0  0  0  0  3  0  0  0  0  0  0
  160.1470  214.1520  149.0400 C   0  0  0  0  0  1  0  0  0  0  0  0
  160.6070  210.4650  153.1740 N   0  0  0  0  0  0  0  0  0  0  0  0
  160.7570  211.8860  149.9520 C   0  0  0  0  0  0  0  0  0  0  0  0
  162.4120  206.7240  147.7450 C   0  0  0  0  0  2  0  0  0  0  0  0
  161.1460  211.4180  148.5840 C   0  0  0  0  0  1  0  0  0  0  0  0
  160.8970  206.7820  147.9780 C   0  0  0  0  0  2  0  0  0  0  0  0
  160.8330  211.0730  151.0150 C   0  0  0  0  0  0  0  0  0  0  0  0
  161.2440  208.0340  153.0210 C   0  0  1  0  0  3  0  0  0  0  0  0
  160.2770  213.2330  150.1590 N   0  0  0  0  0  0  0  0  0  0  0  0
  160.0390  212.6890  152.5760 C   0  0  0  0  0  3  0  0  0  0  0  0
  161.2500  206.1690  151.8330 C   0  0  0  0  0  2  0  0  0  0  0  0
  161.2320  209.7550  151.1240 C   0  0  0  0  0  0  0  0  0  0  0  0
  163.2010  207.5390  148.7920 C   0  0  0  0  0  2  0  0  0  0  0  0
  160.4770  211.4670  152.2820 C   0  0  0  0  0  0  0  0  0  0  0  0
  160.5070  206.2490  149.3650 C   0  0  0  0  0  2  0  0  0  0  0  0
  161.6340  206.4480  150.3850 C   0  0  1  0  0  3  0  0  0  0  0  0
  162.4730  207.7110  150.1330 C   0  0  2  0  0  3  0  0  0  0  0  0
  160.5610  207.7830  157.2600 C   0  0  0  0  0  3  0  0  0  0  0  0
  161.0040  207.9680  154.5010 C   0  0  0  0  0  0  0  0  0  0  0  0
  160.0620  207.0630  155.0030 C   0  0  0  0  0  3  0  0  0  0  0  0
  159.8400  206.9720  156.3800 C   0  0  0  0  0  3  0  0  0  0  0  0
  161.5080  208.6840  156.7650 C   0  0  0  0  0  3  0  0  0  0  0  0
  161.7310  208.7760  155.3880 C   0  0  0  0  0  3  0  0  0  0  0  0
  1 12  1  0  0  0  0
  2 12  1  0  0  0  0
  2  6  1  0  0  0  0
  3 21  1  0  0  0  0
  3 16  1  0  0  0  0
  4 14  2  0  0  0  0
  5 13  1  0  0  0  0
  7 13  1  0  0  0  0
  7 11  2  0  0  0  0
  8 10  1  0  0  0  0
  8 17  1  0  0  0  0
  9  7  1  0  0  0  0
 10 19  1  0  0  0  0
 11 16  1  0  0  0  0
 11 18  1  0  0  0  0
 12 23  1  1  0  0  0
 13  4  1  0  0  0  0
 15  1  1  0  0  0  0
 16  2  2  0  0  0  0
 18 14  1  0  0  0  0
 18  6  2  0  0  0  0
 20 19  1  6  0  0  0
 20 15  1  0  0  0  0
 21 17  1  6  0  0  0
 21 20  1  0  0  0  0
 23 24  2  0  0  0  0
 23 27  1  0  0  0  0
 24 25  1  0  0  0  0
 25 22  2  0  0  0  0
 26 22  1  0  0  0  0
 27 26  2  0  0  0  0
M  END
>  <MODEL>
6

>  <REMARK>
 VINA RESULT:      -5.4      1.837      7.029
  Name = 
  1 active torsions:
  status: ('A' for Active; 'I' for Inactive)
    1  A    between atoms: C_9  and  C_15
                            x       y       z     vdW  Elec       q    Type
                         _______ _______ _______ _____ _____    ______ ____

>  <TORSDO>
F 1

$$$$
=
 OpenBabel11052423073D

 27 31  0  0  1  0  0  0  0  0999 V2000
  161.7940  206.1470  153.4700 O   0  0  0  0  0  0  0  0  0  0  0  0
  161.0410  207.2540  151.5240 C   0  0  0  0  0  0  0  0  0  0  0  0
  160.7190  209.1040  153.2300 N   0  0  0  0  0  2  0  0  0  0  0  0
  162.1380  210.2330  148.2210 C   0  0  0  0  0  3  0  0  0  0  0  0
  162.1530  212.5580  149.1440 C   0  0  0  0  0  1  0  0  0  0  0  0
  161.4070  207.1570  150.2230 N   0  0  0  0  0  0  0  0  0  0  0  0
  161.5260  210.6510  150.6650 C   0  0  0  0  0  0  0  0  0  0  0  0
  160.2470  209.9850  156.3360 C   0  0  0  0  0  2  0  0  0  0  0  0
  161.2850  211.6050  151.7930 C   0  0  0  0  0  1  0  0  0  0  0  0
  161.7300  209.7140  156.0540 C   0  0  0  0  0  2  0  0  0  0  0  0
  161.3720  209.3290  150.8230 C   0  0  0  0  0  0  0  0  0  0  0  0
  160.8620  206.0760  152.4300 C   0  0  1  0  0  3  0  0  0  0  0  0
  161.9430  211.1370  149.3690 N   0  0  0  0  0  0  0  0  0  0  0  0
  161.9640  208.7760  148.5810 C   0  0  0  0  0  3  0  0  0  0  0  0
  161.0260  206.1290  154.6350 C   0  0  0  0  0  2  0  0  0  0  0  0
  161.0040  208.5830  151.9250 C   0  0  0  0  0  0  0  0  0  0  0  0
  159.3360  209.5640  155.1630 C   0  0  0  0  0  2  0  0  0  0  0  0
  161.5930  208.4260  149.8110 C   0  0  0  0  0  0  0  0  0  0  0  0
  162.0000  208.2280  155.7710 C   0  0  0  0  0  2  0  0  0  0  0  0
  160.7750  207.5350  155.1650 C   0  0  1  0  0  3  0  0  0  0  0  0
  159.9270  208.4580  154.2750 C   0  0  2  0  0  3  0  0  0  0  0  0
  161.1050  202.2840  150.4140 C   0  0  0  0  0  3  0  0  0  0  0  0
  160.9600  204.7610  151.7120 C   0  0  0  0  0  0  0  0  0  0  0  0
  161.2160  203.5970  152.4460 C   0  0  0  0  0  3  0  0  0  0  0  0
  161.2900  202.3610  151.7980 C   0  0  0  0  0  3  0  0  0  0  0  0
  160.8430  203.4420  149.6780 C   0  0  0  0  0  3  0  0  0  0  0  0
  160.7690  204.6790  150.3250 C   0  0  0  0  0  3  0  0  0  0  0  0
  1 15  1  0  0  0  0
  2 16  2  0  0  0  0
  2 12  1  0  0  0  0
  3 21  1  0  0  0  0
  4 14  2  0  0  0  0
  4 13  1  0  0  0  0
  5 13  1  0  0  0  0
  6  2  1  0  0  0  0
  7 11  2  0  0  0  0
  7  9  1  0  0  0  0
 10  8  1  0  0  0  0
 11 16  1  0  0  0  0
 12 23  1  6  0  0  0
 12  1  1  0  0  0  0
 13  7  1  0  0  0  0
 14 18  1  0  0  0  0
 16  3  1  0  0  0  0
 17  8  1  0  0  0  0
 18  6  2  0  0  0  0
 18 11  1  0  0  0  0
 19 10  1  0  0  0  0
 20 15  1  6  0  0  0
 20 19  1  0  0  0  0
 21 17  1  1  0  0  0
 21 20  1  0  0  0  0
 22 25  1  0  0  0  0
 23 24  1  0  0  0  0
 25 24  2  0  0  0  0
 26 27  1  0  0  0  0
 26 22  2  0  0  0  0
 27 23  2  0  0  0  0
M  END
>  <MODEL>
7

>  <REMARK>
 VINA RESULT:      -5.3      1.695      5.772
  Name = 
  1 active torsions:
  status: ('A' for Active; 'I' for Inactive)
    1  A    between atoms: C_9  and  C_15
                            x       y       z     vdW  Elec       q    Type
                         _______ _______ _______ _____ _____    ______ ____

>  <TORSDO>
F 1

$$$$
=
 OpenBabel11052423073D

 27 31  0  0  1  0  0  0  0  0999 V2000
  161.2180  209.3510  154.1620 O   0  0  0  0  0  0  0  0  0  0  0  0
  160.8310  209.7370  151.8640 C   0  0  0  0  0  0  0  0  0  0  0  0
  159.6750  211.7700  152.8470 N   0  0  0  0  0  2  0  0  0  0  0  0
  162.1800  212.0630  148.1550 C   0  0  0  0  0  3  0  0  0  0  0  0
  161.4630  214.4520  148.3430 C   0  0  0  0  0  1  0  0  0  0  0  0
  161.5600  209.4470  150.7570 N   0  0  0  0  0  0  0  0  0  0  0  0
  160.8370  212.8480  150.1790 C   0  0  0  0  0  0  0  0  0  0  0  0
  158.1830  213.1770  155.3850 C   0  0  0  0  0  2  0  0  0  0  0  0
  160.1000  213.9320  150.9020 C   0  0  0  0  0  1  0  0  0  0  0  0
  159.7090  213.2610  155.5190 C   0  0  0  0  0  2  0  0  0  0  0  0
  160.9170  211.6070  150.6780 C   0  0  0  0  0  0  0  0  0  0  0  0
  160.6490  208.7940  153.0120 C   0  0  1  0  0  3  0  0  0  0  0  0
  161.4920  213.1180  148.9190 N   0  0  0  0  0  0  0  0  0  0  0  0
  162.2130  210.7360  148.8760 C   0  0  0  0  0  3  0  0  0  0  0  0
  160.1750  209.3930  155.0880 C   0  0  0  0  0  2  0  0  0  0  0  0
  160.4150  211.0620  151.8430 C   0  0  0  0  0  0  0  0  0  0  0  0
  157.7430  212.2680  154.2170 C   0  0  0  0  0  2  0  0  0  0  0  0
  161.5910  210.5900  150.0440 C   0  0  0  0  0  0  0  0  0  0  0  0
  160.3440  211.8800  155.7470 C   0  0  0  0  0  2  0  0  0  0  0  0
  159.5050  210.7610  155.1180 C   0  0  1  0  0  3  0  0  0  0  0  0
  158.7710  211.1900  153.8380 C   0  0  2  0  0  3  0  0  0  0  0  0
  162.1990  204.8550  152.2460 C   0  0  0  0  0  3  0  0  0  0  0  0
  161.2100  207.4280  152.7460 C   0  0  0  0  0  0  0  0  0  0  0  0
  160.7100  206.3320  153.4590 C   0  0  0  0  0  3  0  0  0  0  0  0
  161.2050  205.0480  153.2100 C   0  0  0  0  0  3  0  0  0  0  0  0
  162.6970  205.9450  151.5280 C   0  0  0  0  0  3  0  0  0  0  0  0
  162.2030  207.2300  151.7760 C   0  0  0  0  0  3  0  0  0  0  0  0
  1 15  1  0  0  0  0
  2 12  1  0  0  0  0
  3 21  1  0  0  0  0
  4 14  2  0  0  0  0
  4 13  1  0  0  0  0
  5 13  1  0  0  0  0
  6  2  1  0  0  0  0
  7 11  2  0  0  0  0
  7  9  1  0  0  0  0
  8 10  1  0  0  0  0
 10 19  1  0  0  0  0
 11 16  1  0  0  0  0
 12 23  1  6  0  0  0
 12  1  1  0  0  0  0
 13  7  1  0  0  0  0
 14 18  1  0  0  0  0
 16  2  2  0  0  0  0
 16  3  1  0  0  0  0
 17  8  1  0  0  0  0
 18 11  1  0  0  0  0
 18  6  2  0  0  0  0
 20 15  1  6  0  0  0
 20 19  1  0  0  0  0
 21 17  1  1  0  0  0
 21 20  1  0  0  0  0
 22 25  1  0  0  0  0
 23 24  1  0  0  0  0
 25 24  2  0  0  0  0
 26 27  1  0  0  0  0
 26 22  2  0  0  0  0
 27 23  2  0  0  0  0
M  END
>  <MODEL>
8

>  <REMARK>
 VINA RESULT:      -5.1      1.815      5.754
  Name = 
  1 active torsions:
  status: ('A' for Active; 'I' for Inactive)
    1  A    between atoms: C_9  and  C_15
                            x       y       z     vdW  Elec       q    Type
                         _______ _______ _______ _____ _____    ______ ____

>  <TORSDO>
F 1

$$$$
=
 OpenBabel11052423073D

 27 31  0  0  1  0  0  0  0  0999 V2000
  157.1030  213.2390  152.0670 O   0  0  0  0  0  0  0  0  0  0  0  0
  159.2400  212.3430  152.5250 C   0  0  0  0  0  0  0  0  0  0  0  0
  158.3340  212.5360  154.8870 N   0  0  0  0  0  2  0  0  0  0  0  0
  161.5950  208.5450  153.5370 C   0  0  0  0  0  3  0  0  0  0  0  0
  161.1690  207.8900  155.9130 C   0  0  0  0  0  1  0  0  0  0  0  0
  160.0360  211.4900  151.8340 N   0  0  0  0  0  0  0  0  0  0  0  0
  160.0870  209.9790  155.0170 C   0  0  0  0  0  0  0  0  0  0  0  0
  156.2810  213.9690  156.9800 C   0  0  0  0  0  2  0  0  0  0  0  0
  159.4680  210.2550  156.3520 C   0  0  0  0  0  1  0  0  0  0  0  0
  155.5810  212.8600  156.1840 C   0  0  0  0  0  2  0  0  0  0  0  0
  159.8760  210.7880  153.9700 C   0  0  0  0  0  0  0  0  0  0  0  0
  158.4730  213.4630  151.8950 C   0  0  1  0  0  3  0  0  0  0  0  0
  160.9270  208.8190  154.8220 N   0  0  0  0  0  0  0  0  0  0  0  0
  161.2180  209.5290  152.4540 C   0  0  0  0  0  3  0  0  0  0  0  0
  156.6400  214.3770  152.7280 C   0  0  0  0  0  2  0  0  0  0  0  0
  159.1240  211.9400  153.8490 C   0  0  0  0  0  0  0  0  0  0  0  0
  157.6960  214.2760  156.4440 C   0  0  0  0  0  2  0  0  0  0  0  0
  160.4220  210.5600  152.7290 C   0  0  0  0  0  0  0  0  0  0  0  0
  155.4420  213.2200  154.6960 C   0  0  0  0  0  2  0  0  0  0  0  0
  156.5610  214.1600  154.2340 C   0  0  1  0  0  3  0  0  0  0  0  0
  157.8950  213.9290  154.9610 C   0  0  2  0  0  3  0  0  0  0  0  0
  159.3840  214.0750  147.7360 C   0  0  0  0  0  3  0  0  0  0  0  0
  158.8040  213.6600  150.4440 C   0  0  0  0  0  0  0  0  0  0  0  0
  157.7660  213.8140  149.5190 C   0  0  0  0  0  3  0  0  0  0  0  0
  158.0550  214.0200  148.1660 C   0  0  0  0  0  3  0  0  0  0  0  0
  160.4240  213.9280  148.6560 C   0  0  0  0  0  3  0  0  0  0  0  0
  160.1360  213.7220  150.0090 C   0  0  0  0  0  3  0  0  0  0  0  0
  1 15  1  0  0  0  0
  2 16  2  0  0  0  0
  3 21  1  0  0  0  0
  4 13  1  0  0  0  0
  6  2  1  0  0  0  0
  6 18  2  0  0  0  0
  7  9  1  0  0  0  0
 10  8  1  0  0  0  0
 11  7  2  0  0  0  0
 12 23  1  6  0  0  0
 12  1  1  0  0  0  0
 12  2  1  0  0  0  0
 13  7  1  0  0  0  0
 13  5  1  0  0  0  0
 14 18  1  0  0  0  0
 14  4  2  0  0  0  0
 16 11  1  0  0  0  0
 16  3  1  0  0  0  0
 17  8  1  0  0  0  0
 18 11  1  0  0  0  0
 19 10  1  0  0  0  0
 20 15  1  6  0  0  0
 20 19  1  0  0  0  0
 20 21  1  0  0  0  0
 21 17  1  1  0  0  0
 22 25  2  0  0  0  0
 22 26  1  0  0  0  0
 24 23  2  0  0  0  0
 25 24  1  0  0  0  0
 26 27  2  0  0  0  0
 27 23  1  0  0  0  0
M  END
>  <MODEL>
9

>  <REMARK>
 VINA RESULT:      -4.8      2.968      4.533
  Name = 
  1 active torsions:
  status: ('A' for Active; 'I' for Inactive)
    1  A    between atoms: C_9  and  C_15
                            x       y       z     vdW  Elec       q    Type
                         _______ _______ _______ _____ _____    ______ ____

>  <TORSDO>
F 1

$$$$
