=
 OpenBabel11052423193D

 27 30  0  0  1  0  0  0  0  0999 V2000
  161.3530  203.3830  148.9840 C   0  0  2  0  0  3  0  0  0  0  0  0
  161.1910  204.0090  150.3160 C   0  0  0  0  0  0  0  0  0  0  0  0
  161.6680  205.7260  148.8030 C   0  0  2  0  0  3  0  0  0  0  0  0
  161.1390  206.7360  153.7800 S   0  0  0  0  0  0  0  0  0  0  0  0
  161.6150  209.3980  153.0100 C   0  0  0  0  0  1  0  0  0  0  0  0
  160.9750  203.3820  151.5570 C   0  0  0  0  0  3  0  0  0  0  0  0
  161.5450  207.5000  151.3870 N   0  0  0  0  0  0  0  0  0  0  0  0
  161.3550  206.1560  151.3570 C   0  0  0  0  0  0  0  0  0  0  0  0
  161.4530  207.9650  152.6560 C   0  0  0  0  0  0  0  0  0  0  0  0
  161.1190  205.5570  152.5870 C   0  0  0  0  0  0  0  0  0  0  0  0
  161.4680  204.4920  148.0160 N   0  0  0  0  0  0  0  0  0  0  0  0
  161.3790  205.3600  150.2120 C   0  0  0  0  0  0  0  0  0  0  0  0
  160.9280  204.1750  152.7220 C   0  0  0  0  0  3  0  0  0  0  0  0
  160.0930  206.5720  146.9880 C   0  0  0  0  0  1  0  0  0  0  0  0
  161.5940  208.1550  148.1750 C   0  0  0  0  0  1  0  0  0  0  0  0
  160.7860  206.8790  148.3040 C   0  0  0  0  0  3  0  0  0  0  0  0
  160.2130  202.4220  148.6230 C   0  0  0  0  0  2  0  0  0  0  0  0
  161.2350  199.5330  145.6160 C   0  0  0  0  0  3  0  0  0  0  0  0
  160.5720  201.4220  147.5710 C   0  0  0  0  0  0  0  0  0  0  0  0
  160.0600  201.5450  146.2740 C   0  0  0  0  0  3  0  0  0  0  0  0
  160.3930  200.6020  145.2970 C   0  0  0  0  0  3  0  0  0  0  0  0
  161.7460  199.4070  146.9120 C   0  0  0  0  0  3  0  0  0  0  0  0
  161.4140  200.3510  147.8890 C   0  0  0  0  0  3  0  0  0  0  0  0
  162.6820  204.2710  147.2470 C   0  0  0  0  0  2  0  0  0  0  0  0
  162.4380  204.5950  145.8140 C   0  0  0  0  0  0  0  0  0  0  0  0
  161.9710  203.7190  145.0420 O   0  0  0  0  0  0  0  0  0  0  0  0
  162.7660  205.8510  145.3210 O   0  0  0  0  0  1  0  0  0  0  0  0
  1 17  1  6  0  0  0
  1  2  1  0  0  0  0
  2  6  1  0  0  0  0
  3 16  1  6  0  0  0
  3 12  1  0  0  0  0
  6 13  2  0  0  0  0
  7  9  2  0  0  0  0
  8  7  1  0  0  0  0
  8 10  2  0  0  0  0
  9  5  1  0  0  0  0
  9  4  1  0  0  0  0
 10 13  1  0  0  0  0
 10  4  1  0  0  0  0
 11  3  1  0  0  0  0
 11  1  1  0  0  0  0
 12  2  2  0  0  0  0
 12  8  1  0  0  0  0
 14 16  1  0  0  0  0
 15 16  1  0  0  0  0
 18 22  1  0  0  0  0
 19 23  1  0  0  0  0
 19 17  1  0  0  0  0
 20 19  2  0  0  0  0
 21 18  2  0  0  0  0
 21 20  1  0  0  0  0
 22 23  2  0  0  0  0
 24 11  1  0  0  0  0
 25 24  1  0  0  0  0
 26 25  2  0  0  0  0
 27 25  1  0  0  0  0
M  END
>  <MODEL>
1

>  <REMARK>
 VINA RESULT:      -7.5      0.000      0.000
  Name = 
  5 active torsions:
  status: ('A' for Active; 'I' for Inactive)
    1  A    between atoms: C_1  and  C_15
    2  A    between atoms: C_3  and  C_26
    3  A    between atoms: C_9  and  C_15
    4  A    between atoms: C_10  and  C_24
    5  A    between atoms: N_18  and  C_24
                            x       y       z     vdW  Elec       q    Type
                         _______ _______ _______ _____ _____    ______ ____

>  <TORSDO>
F 5

$$$$
=
 OpenBabel11052423193D

 27 30  0  0  1  0  0  0  0  0999 V2000
  161.3580  206.9640  149.3000 C   0  0  2  0  0  3  0  0  0  0  0  0
  161.4200  208.1710  150.1570 C   0  0  0  0  0  0  0  0  0  0  0  0
  160.9910  206.3520  151.5620 C   0  0  2  0  0  3  0  0  0  0  0  0
  161.1800  211.0910  153.4510 S   0  0  0  0  0  0  0  0  0  0  0  0
  160.6810  209.8340  155.9160 C   0  0  0  0  0  1  0  0  0  0  0  0
  161.5750  209.5140  149.7670 C   0  0  0  0  0  3  0  0  0  0  0  0
  160.9050  208.5810  153.7660 N   0  0  0  0  0  0  0  0  0  0  0  0
  161.1320  208.8010  152.4470 C   0  0  0  0  0  0  0  0  0  0  0  0
  160.9040  209.7500  154.4500 C   0  0  0  0  0  0  0  0  0  0  0  0
  161.3070  210.1310  152.0820 C   0  0  0  0  0  0  0  0  0  0  0  0
  161.2740  205.8090  150.2170 N   0  0  0  0  0  0  0  0  0  0  0  0
  161.2020  207.8170  151.4610 C   0  0  0  0  0  0  0  0  0  0  0  0
  161.5270  210.5190  150.7540 C   0  0  0  0  0  3  0  0  0  0  0  0
  163.2110  205.2290  152.1100 C   0  0  0  0  0  1  0  0  0  0  0  0
  161.1430  204.5570  153.3100 C   0  0  0  0  0  1  0  0  0  0  0  0
  161.8700  205.7060  152.6420 C   0  0  0  0  0  3  0  0  0  0  0  0
  162.5440  206.8450  148.3350 C   0  0  0  0  0  2  0  0  0  0  0  0
  161.6190  204.7730  144.6910 C   0  0  0  0  0  3  0  0  0  0  0  0
  162.2210  206.1310  147.0620 C   0  0  0  0  0  0  0  0  0  0  0  0
  161.0300  206.4050  146.3790 C   0  0  0  0  0  3  0  0  0  0  0  0
  160.7300  205.7280  145.1940 C   0  0  0  0  0  3  0  0  0  0  0  0
  162.8080  204.4950  145.3730 C   0  0  0  0  0  3  0  0  0  0  0  0
  163.1080  205.1740  146.5580 C   0  0  0  0  0  3  0  0  0  0  0  0
  160.1160  205.0240  149.8180 C   0  0  0  0  0  2  0  0  0  0  0  0
  160.5270  203.6160  149.5600 C   0  0  0  0  0  0  0  0  0  0  0  0
  160.5380  202.7820  150.5010 O   0  0  0  0  0  1  0  0  0  0  0  0
  160.9390  203.2350  148.2900 O   0  0  0  0  0  0  0  0  0  0  0  0
  1 17  1  1  0  0  0
  1  2  1  0  0  0  0
  1 11  1  0  0  0  0
  2 12  1  0  0  0  0
  3 16  1  1  0  0  0
  4  9  1  0  0  0  0
  6  2  2  0  0  0  0
  6 13  1  0  0  0  0
  7  9  2  0  0  0  0
  8  7  1  0  0  0  0
  9  5  1  0  0  0  0
 10  8  1  0  0  0  0
 10  4  1  0  0  0  0
 11  3  1  0  0  0  0
 12  3  1  0  0  0  0
 12  8  2  0  0  0  0
 13 10  2  0  0  0  0
 14 16  1  0  0  0  0
 16 15  1  0  0  0  0
 18 21  2  0  0  0  0
 18 22  1  0  0  0  0
 19 17  1  0  0  0  0
 20 19  2  0  0  0  0
 21 20  1  0  0  0  0
 22 23  2  0  0  0  0
 23 19  1  0  0  0  0
 24 11  1  0  0  0  0
 25 24  1  0  0  0  0
 25 26  1  0  0  0  0
 27 25  2  0  0  0  0
M  END
>  <MODEL>
2

>  <REMARK>
 VINA RESULT:      -6.9      2.684      4.636
  Name = 
  5 active torsions:
  status: ('A' for Active; 'I' for Inactive)
    1  A    between atoms: C_1  and  C_15
    2  A    between atoms: C_3  and  C_26
    3  A    between atoms: C_9  and  C_15
    4  A    between atoms: C_10  and  C_24
    5  A    between atoms: N_18  and  C_24
                            x       y       z     vdW  Elec       q    Type
                         _______ _______ _______ _____ _____    ______ ____

>  <TORSDO>
F 5

$$$$
=
 OpenBabel11052423193D

 27 30  0  0  1  0  0  0  0  0999 V2000
  161.3410  207.1830  151.5490 C   0  0  2  0  0  3  0  0  0  0  0  0
  161.1950  207.3660  153.0120 C   0  0  0  0  0  0  0  0  0  0  0  0
  161.7720  209.4450  152.1130 C   0  0  2  0  0  3  0  0  0  0  0  0
  161.2430  208.8650  157.1570 S   0  0  0  0  0  0  0  0  0  0  0  0
  161.8570  211.6070  157.2610 C   0  0  0  0  0  1  0  0  0  0  0  0
  160.9360  206.3920  153.9940 C   0  0  0  0  0  3  0  0  0  0  0  0
  161.7100  210.3210  155.1240 N   0  0  0  0  0  0  0  0  0  0  0  0
  161.4540  209.0670  154.6740 C   0  0  0  0  0  0  0  0  0  0  0  0
  161.6280  210.3680  156.4750 C   0  0  0  0  0  0  0  0  0  0  0  0
  161.1770  208.1230  155.6550 C   0  0  0  0  0  0  0  0  0  0  0  0
  161.5200  208.5330  150.9790 N   0  0  0  0  0  0  0  0  0  0  0  0
  161.4510  208.6700  153.3370 C   0  0  0  0  0  0  0  0  0  0  0  0
  160.9160  206.7810  155.3500 C   0  0  0  0  0  3  0  0  0  0  0  0
  159.4890  210.5480  152.3640 C   0  0  0  0  0  1  0  0  0  0  0  0
  161.0720  211.3370  150.6190 C   0  0  0  0  0  1  0  0  0  0  0  0
  160.9530  210.7400  152.0070 C   0  0  0  0  0  3  0  0  0  0  0  0
  160.1590  206.4420  150.9120 C   0  0  0  0  0  2  0  0  0  0  0  0
  161.2110  202.6310  149.2390 C   0  0  0  0  0  3  0  0  0  0  0  0
  160.5180  205.1120  150.3320 C   0  0  0  0  0  0  0  0  0  0  0  0
  160.5110  203.9640  151.1340 C   0  0  0  0  0  3  0  0  0  0  0  0
  160.8560  202.7250  150.5880 C   0  0  0  0  0  3  0  0  0  0  0  0
  161.2210  203.7760  148.4350 C   0  0  0  0  0  3  0  0  0  0  0  0
  160.8750  205.0150  148.9820 C   0  0  0  0  0  3  0  0  0  0  0  0
  162.7290  208.5040  150.1720 C   0  0  0  0  0  2  0  0  0  0  0  0
  162.3710  208.4220  148.7290 C   0  0  0  0  0  0  0  0  0  0  0  0
  161.6580  209.3160  148.2060 O   0  0  0  0  0  1  0  0  0  0  0  0
  162.7870  207.3350  147.9720 O   0  0  0  0  0  0  0  0  0  0  0  0
  1 17  1  6  0  0  0
  1  2  1  0  0  0  0
  2 12  2  0  0  0  0
  2  6  1  0  0  0  0
  3 16  1  6  0  0  0
  3 12  1  0  0  0  0
  6 13  2  0  0  0  0
  7  9  2  0  0  0  0
  8  7  1  0  0  0  0
  8 10  2  0  0  0  0
  9  4  1  0  0  0  0
  9  5  1  0  0  0  0
 10  4  1  0  0  0  0
 11  1  1  0  0  0  0
 11  3  1  0  0  0  0
 12  8  1  0  0  0  0
 13 10  1  0  0  0  0
 15 16  1  0  0  0  0
 16 14  1  0  0  0  0
 18 21  1  0  0  0  0
 19 17  1  0  0  0  0
 19 20  1  0  0  0  0
 21 20  2  0  0  0  0
 22 23  1  0  0  0  0
 22 18  2  0  0  0  0
 23 19  2  0  0  0  0
 24 11  1  0  0  0  0
 25 24  1  0  0  0  0
 26 25  1  0  0  0  0
 27 25  2  0  0  0  0
M  END
>  <MODEL>
3

>  <REMARK>
 VINA RESULT:      -6.5      2.680      4.787
  Name = 
  5 active torsions:
  status: ('A' for Active; 'I' for Inactive)
    1  A    between atoms: C_1  and  C_15
    2  A    between atoms: C_3  and  C_26
    3  A    between atoms: C_9  and  C_15
    4  A    between atoms: C_10  and  C_24
    5  A    between atoms: N_18  and  C_24
                            x       y       z     vdW  Elec       q    Type
                         _______ _______ _______ _____ _____    ______ ____

>  <TORSDO>
F 5

$$$$
=
 OpenBabel11052423193D

 27 30  0  0  1  0  0  0  0  0999 V2000
  160.9690  204.6860  148.5580 C   0  0  2  0  0  3  0  0  0  0  0  0
  161.3100  206.1100  148.7800 C   0  0  0  0  0  0  0  0  0  0  0  0
  160.9160  205.1610  150.8810 C   0  0  2  0  0  3  0  0  0  0  0  0
  161.9560  210.1400  150.4450 S   0  0  0  0  0  0  0  0  0  0  0  0
  161.7340  210.1510  153.2490 C   0  0  0  0  0  1  0  0  0  0  0  0
  161.5500  207.1120  147.8230 C   0  0  0  0  0  3  0  0  0  0  0  0
  161.4530  208.0900  151.8650 N   0  0  0  0  0  0  0  0  0  0  0  0
  161.4810  207.6880  150.5690 C   0  0  0  0  0  0  0  0  0  0  0  0
  161.6990  209.4190  151.9570 C   0  0  0  0  0  0  0  0  0  0  0  0
  161.7440  208.6860  149.6380 C   0  0  0  0  0  0  0  0  0  0  0  0
  160.9080  204.0600  149.8950 N   0  0  0  0  0  0  0  0  0  0  0  0
  161.2730  206.3850  150.1200 C   0  0  0  0  0  0  0  0  0  0  0  0
  161.7820  208.4320  148.2610 C   0  0  0  0  0  3  0  0  0  0  0  0
  162.4700  203.4880  152.0110 C   0  0  0  0  0  1  0  0  0  0  0  0
  161.2060  205.1350  153.3740 C   0  0  0  0  0  1  0  0  0  0  0  0
  161.8840  204.8890  152.0410 C   0  0  0  0  0  3  0  0  0  0  0  0
  161.9570  203.9640  147.6320 C   0  0  0  0  0  2  0  0  0  0  0  0
  160.0810  201.2500  144.8860 C   0  0  0  0  0  3  0  0  0  0  0  0
  161.3080  203.0220  146.6700 C   0  0  0  0  0  0  0  0  0  0  0  0
  160.6930  203.5070  145.5090 C   0  0  0  0  0  3  0  0  0  0  0  0
  160.0820  202.6220  144.6170 C   0  0  0  0  0  3  0  0  0  0  0  0
  160.6920  200.7620  146.0460 C   0  0  0  0  0  3  0  0  0  0  0  0
  161.3050  201.6480  146.9370 C   0  0  0  0  0  3  0  0  0  0  0  0
  159.6180  203.3970  150.0020 C   0  0  0  0  0  2  0  0  0  0  0  0
  159.7890  201.9300  149.8090 C   0  0  0  0  0  0  0  0  0  0  0  0
  158.8890  201.2620  149.2380 O   0  0  0  0  0  0  0  0  0  0  0  0
  160.9200  201.2930  150.2990 O   0  0  0  0  0  1  0  0  0  0  0  0
  1 17  1  6  0  0  0
  1  2  1  0  0  0  0
  1 11  1  0  0  0  0
  2 12  1  0  0  0  0
  3 16  1  1  0  0  0
  4  9  1  0  0  0  0
  6 13  1  0  0  0  0
  6  2  2  0  0  0  0
  7  9  2  0  0  0  0
  8  7  1  0  0  0  0
  9  5  1  0  0  0  0
 10  4  1  0  0  0  0
 10  8  1  0  0  0  0
 11 24  1  0  0  0  0
 11  3  1  0  0  0  0
 12  8  2  0  0  0  0
 12  3  1  0  0  0  0
 13 10  2  0  0  0  0
 14 16  1  0  0  0  0
 16 15  1  0  0  0  0
 18 22  1  0  0  0  0
 19 23  1  0  0  0  0
 19 17  1  0  0  0  0
 20 19  2  0  0  0  0
 21 18  2  0  0  0  0
 21 20  1  0  0  0  0
 22 23  2  0  0  0  0
 25 24  1  0  0  0  0
 25 27  1  0  0  0  0
 26 25  2  0  0  0  0
M  END
>  <MODEL>
4

>  <REMARK>
 VINA RESULT:      -6.2      2.324      3.809
  Name = 
  5 active torsions:
  status: ('A' for Active; 'I' for Inactive)
    1  A    between atoms: C_1  and  C_15
    2  A    between atoms: C_3  and  C_26
    3  A    between atoms: C_9  and  C_15
    4  A    between atoms: C_10  and  C_24
    5  A    between atoms: N_18  and  C_24
                            x       y       z     vdW  Elec       q    Type
                         _______ _______ _______ _____ _____    ______ ____

>  <TORSDO>
F 5

$$$$
=
 OpenBabel11052423193D

 27 30  0  0  1  0  0  0  0  0999 V2000
  161.4130  206.3660  150.0940 C   0  0  2  0  0  3  0  0  0  0  0  0
  161.1830  204.9250  149.8420 C   0  0  0  0  0  0  0  0  0  0  0  0
  161.5410  205.9360  147.7650 C   0  0  2  0  0  3  0  0  0  0  0  0
  160.4090  200.9670  148.0620 S   0  0  0  0  0  0  0  0  0  0  0  0
  160.6470  201.0270  145.2600 C   0  0  0  0  0  1  0  0  0  0  0  0
  160.8450  203.9190  150.7660 C   0  0  0  0  0  3  0  0  0  0  0  0
  161.0030  203.0350  146.7030 N   0  0  0  0  0  0  0  0  0  0  0  0
  160.9860  203.4000  148.0100 C   0  0  0  0  0  0  0  0  0  0  0  0
  160.7050  201.7200  146.5720 C   0  0  0  0  0  0  0  0  0  0  0  0
  160.6740  202.3890  148.9110 C   0  0  0  0  0  0  0  0  0  0  0  0
  161.8200  206.9530  148.8010 N   0  0  0  0  0  0  0  0  0  0  0  0
  161.2510  204.6790  148.4980 C   0  0  0  0  0  0  0  0  0  0  0  0
  160.5940  202.6150  150.2910 C   0  0  0  0  0  3  0  0  0  0  0  0
  162.2550  205.7400  145.3270 C   0  0  0  0  0  1  0  0  0  0  0  0
  163.5250  204.5500  147.1000 C   0  0  0  0  0  1  0  0  0  0  0  0
  162.7060  205.7840  146.7770 C   0  0  0  0  0  3  0  0  0  0  0  0
  162.4480  206.6310  151.1950 C   0  0  0  0  0  2  0  0  0  0  0  0
  160.7230  207.9520  154.8980 C   0  0  0  0  0  3  0  0  0  0  0  0
  161.8530  207.0880  152.4880 C   0  0  0  0  0  0  0  0  0  0  0  0
  161.5740  206.1650  153.5040 C   0  0  0  0  0  3  0  0  0  0  0  0
  161.0110  206.5970  154.7080 C   0  0  0  0  0  3  0  0  0  0  0  0
  160.9980  208.8750  153.8840 C   0  0  0  0  0  3  0  0  0  0  0  0
  161.5630  208.4430  152.6800 C   0  0  0  0  0  3  0  0  0  0  0  0
  160.9410  208.0820  148.5430 C   0  0  0  0  0  2  0  0  0  0  0  0
  161.6690  209.3560  148.7970 C   0  0  0  0  0  0  0  0  0  0  0  0
  162.3330  209.5010  149.8550 O   0  0  0  0  0  1  0  0  0  0  0  0
  161.5790  210.4000  147.8860 O   0  0  0  0  0  0  0  0  0  0  0  0
  1 17  1  1  0  0  0
  2  1  1  0  0  0  0
  2  6  1  0  0  0  0
  3 16  1  6  0  0  0
  3 12  1  0  0  0  0
  3 11  1  0  0  0  0
  4 10  1  0  0  0  0
  5  9  1  0  0  0  0
  7  8  1  0  0  0  0
  8 12  1  0  0  0  0
  8 10  2  0  0  0  0
  9  7  2  0  0  0  0
  9  4  1  0  0  0  0
 10 13  1  0  0  0  0
 11  1  1  0  0  0  0
 12  2  2  0  0  0  0
 13  6  2  0  0  0  0
 14 16  1  0  0  0  0
 16 15  1  0  0  0  0
 17 19  1  0  0  0  0
 19 23  2  0  0  0  0
 19 20  1  0  0  0  0
 20 21  2  0  0  0  0
 21 18  1  0  0  0  0
 22 18  2  0  0  0  0
 23 22  1  0  0  0  0
 24 25  1  0  0  0  0
 24 11  1  0  0  0  0
 25 26  1  0  0  0  0
 27 25  2  0  0  0  0
M  END
>  <MODEL>
5

>  <REMARK>
 VINA RESULT:      -6.2      2.682      6.759
  Name = 
  5 active torsions:
  status: ('A' for Active; 'I' for Inactive)
    1  A    between atoms: C_1  and  C_15
    2  A    between atoms: C_3  and  C_26
    3  A    between atoms: C_9  and  C_15
    4  A    between atoms: C_10  and  C_24
    5  A    between atoms: N_18  and  C_24
                            x       y       z     vdW  Elec       q    Type
                         _______ _______ _______ _____ _____    ______ ____

>  <TORSDO>
F 5

$$$$
=
 OpenBabel11052423193D

 27 30  0  0  1  0  0  0  0  0999 V2000
  161.0980  206.4200  152.0980 C   0  0  2  0  0  3  0  0  0  0  0  0
  161.0390  205.0190  151.6210 C   0  0  0  0  0  0  0  0  0  0  0  0
  161.2630  206.3780  149.7330 C   0  0  2  0  0  3  0  0  0  0  0  0
  160.7270  201.3260  149.2340 S   0  0  0  0  0  0  0  0  0  0  0  0
  160.9410  201.8520  146.4790 C   0  0  0  0  0  1  0  0  0  0  0  0
  160.8280  203.8470  152.3720 C   0  0  0  0  0  3  0  0  0  0  0  0
  161.0650  203.6370  148.2230 N   0  0  0  0  0  0  0  0  0  0  0  0
  161.0120  203.7870  149.5710 C   0  0  0  0  0  0  0  0  0  0  0  0
  160.9240  202.3330  147.8840 C   0  0  0  0  0  0  0  0  0  0  0  0
  160.8280  202.6180  150.2980 C   0  0  0  0  0  0  0  0  0  0  0  0
  161.4260  207.2450  150.9180 N   0  0  0  0  0  0  0  0  0  0  0  0
  161.1270  204.9960  150.2560 C   0  0  0  0  0  0  0  0  0  0  0  0
  160.7290  202.6140  151.6950 C   0  0  0  0  0  3  0  0  0  0  0  0
  163.0810  207.8940  148.7890 C   0  0  0  0  0  1  0  0  0  0  0  0
  161.9860  206.2030  147.3360 C   0  0  0  0  0  1  0  0  0  0  0  0
  162.4320  206.5210  148.7480 C   0  0  0  0  0  3  0  0  0  0  0  0
  162.1000  206.6280  153.2400 C   0  0  0  0  0  2  0  0  0  0  0  0
  160.4020  208.4010  156.7620 C   0  0  0  0  0  3  0  0  0  0  0  0
  161.5070  207.2530  154.4620 C   0  0  0  0  0  0  0  0  0  0  0  0
  161.9580  208.5000  154.9100 C   0  0  0  0  0  3  0  0  0  0  0  0
  161.4040  209.0740  156.0580 C   0  0  0  0  0  3  0  0  0  0  0  0
  159.9510  207.1530  156.3180 C   0  0  0  0  0  3  0  0  0  0  0  0
  160.5040  206.5800  155.1690 C   0  0  0  0  0  3  0  0  0  0  0  0
  160.4170  208.2900  150.8290 C   0  0  0  0  0  2  0  0  0  0  0  0
  160.8470  209.4740  151.6230 C   0  0  0  0  0  0  0  0  0  0  0  0
  160.0470  210.0140  152.4300 O   0  0  0  0  0  1  0  0  0  0  0  0
  162.1150  210.0090  151.4400 O   0  0  0  0  0  0  0  0  0  0  0  0
  1 17  1  1  0  0  0
  2  1  1  0  0  0  0
  2  6  1  0  0  0  0
  3 16  1  6  0  0  0
  3 12  1  0  0  0  0
  3 11  1  0  0  0  0
  4 10  1  0  0  0  0
  5  9  1  0  0  0  0
  7  8  1  0  0  0  0
  8 12  1  0  0  0  0
  8 10  2  0  0  0  0
  9  7  2  0  0  0  0
  9  4  1  0  0  0  0
 10 13  1  0  0  0  0
 11  1  1  0  0  0  0
 12  2  2  0  0  0  0
 13  6  2  0  0  0  0
 15 16  1  0  0  0  0
 16 14  1  0  0  0  0
 17 19  1  0  0  0  0
 19 20  2  0  0  0  0
 19 23  1  0  0  0  0
 20 21  1  0  0  0  0
 21 18  2  0  0  0  0
 22 18  1  0  0  0  0
 23 22  2  0  0  0  0
 24 11  1  0  0  0  0
 24 25  1  0  0  0  0
 25 26  1  0  0  0  0
 27 25  2  0  0  0  0
M  END
>  <MODEL>
6

>  <REMARK>
 VINA RESULT:      -5.9      3.135      7.338
  Name = 
  5 active torsions:
  status: ('A' for Active; 'I' for Inactive)
    1  A    between atoms: C_1  and  C_15
    2  A    between atoms: C_3  and  C_26
    3  A    between atoms: C_9  and  C_15
    4  A    between atoms: C_10  and  C_24
    5  A    between atoms: N_18  and  C_24
                            x       y       z     vdW  Elec       q    Type
                         _______ _______ _______ _____ _____    ______ ____

>  <TORSDO>
F 5

$$$$
=
 OpenBabel11052423193D

 27 30  0  0  1  0  0  0  0  0999 V2000
  161.3020  208.6250  149.9430 C   0  0  2  0  0  3  0  0  0  0  0  0
  161.1880  209.1090  151.3380 C   0  0  0  0  0  0  0  0  0  0  0  0
  160.9970  206.7790  151.4000 C   0  0  2  0  0  3  0  0  0  0  0  0
  160.5130  209.5290  155.6740 S   0  0  0  0  0  0  0  0  0  0  0  0
  160.1630  207.0300  156.9160 C   0  0  0  0  0  1  0  0  0  0  0  0
  161.1620  210.4350  151.8050 C   0  0  0  0  0  3  0  0  0  0  0  0
  160.5810  207.2910  154.4660 N   0  0  0  0  0  0  0  0  0  0  0  0
  160.7910  208.2580  153.5380 C   0  0  0  0  0  0  0  0  0  0  0  0
  160.4120  207.8380  155.6940 C   0  0  0  0  0  0  0  0  0  0  0  0
  160.7860  209.5620  154.0200 C   0  0  0  0  0  0  0  0  0  0  0  0
  161.3670  207.1510  150.0190 N   0  0  0  0  0  0  0  0  0  0  0  0
  161.0060  208.0430  152.1770 C   0  0  0  0  0  0  0  0  0  0  0  0
  160.9660  210.6700  153.1810 C   0  0  0  0  0  3  0  0  0  0  0  0
  163.3860  205.9070  151.5450 C   0  0  0  0  0  1  0  0  0  0  0  0
  161.4730  204.3260  151.6390 C   0  0  0  0  0  1  0  0  0  0  0  0
  161.9450  205.7230  151.9870 C   0  0  0  0  0  3  0  0  0  0  0  0
  162.5040  209.2140  149.1940 C   0  0  0  0  0  2  0  0  0  0  0  0
  161.7570  213.0370  147.3900 C   0  0  0  0  0  3  0  0  0  0  0  0
  162.2370  210.5460  148.5710 C   0  0  0  0  0  0  0  0  0  0  0  0
  161.0060  210.8060  147.9550 C   0  0  0  0  0  3  0  0  0  0  0  0
  160.7660  212.0510  147.3670 C   0  0  0  0  0  3  0  0  0  0  0  0
  162.9880  212.7800  148.0020 C   0  0  0  0  0  3  0  0  0  0  0  0
  163.2270  211.5350  148.5910 C   0  0  0  0  0  3  0  0  0  0  0  0
  160.3330  206.6270  149.1410 C   0  0  0  0  0  2  0  0  0  0  0  0
  160.9590  205.9690  147.9610 C   0  0  0  0  0  0  0  0  0  0  0  0
  160.9820  206.5590  146.8500 O   0  0  0  0  0  0  0  0  0  0  0  0
  161.4790  204.6870  148.0760 O   0  0  0  0  0  1  0  0  0  0  0  0
  1 17  1  1  0  0  0
  1 11  1  0  0  0  0
  1  2  1  0  0  0  0
  2  6  2  0  0  0  0
  2 12  1  0  0  0  0
  3 16  1  1  0  0  0
  3 12  1  0  0  0  0
  4  9  1  0  0  0  0
  6 13  1  0  0  0  0
  7  9  2  0  0  0  0
  8 10  1  0  0  0  0
  8  7  1  0  0  0  0
  9  5  1  0  0  0  0
 10  4  1  0  0  0  0
 11  3  1  0  0  0  0
 12  8  2  0  0  0  0
 13 10  2  0  0  0  0
 14 16  1  0  0  0  0
 15 16  1  0  0  0  0
 18 22  1  0  0  0  0
 19 23  1  0  0  0  0
 19 17  1  0  0  0  0
 20 19  2  0  0  0  0
 21 18  2  0  0  0  0
 21 20  1  0  0  0  0
 22 23  2  0  0  0  0
 24 11  1  0  0  0  0
 25 27  1  0  0  0  0
 25 24  1  0  0  0  0
 26 25  2  0  0  0  0
M  END
>  <MODEL>
7

>  <REMARK>
 VINA RESULT:      -5.9      3.326      6.784
  Name = 
  5 active torsions:
  status: ('A' for Active; 'I' for Inactive)
    1  A    between atoms: C_1  and  C_15
    2  A    between atoms: C_3  and  C_26
    3  A    between atoms: C_9  and  C_15
    4  A    between atoms: C_10  and  C_24
    5  A    between atoms: N_18  and  C_24
                            x       y       z     vdW  Elec       q    Type
                         _______ _______ _______ _____ _____    ______ ____

>  <TORSDO>
F 5

$$$$
=
 OpenBabel11052423193D

 27 30  0  0  1  0  0  0  0  0999 V2000
  161.3830  207.1770  148.2110 C   0  0  2  0  0  3  0  0  0  0  0  0
  161.3160  206.2380  149.3550 C   0  0  0  0  0  0  0  0  0  0  0  0
  161.2200  204.9530  147.4040 C   0  0  2  0  0  3  0  0  0  0  0  0
  160.8310  202.7350  151.9860 S   0  0  0  0  0  0  0  0  0  0  0  0
  160.6390  200.3490  150.5110 C   0  0  0  0  0  1  0  0  0  0  0  0
  161.2600  206.5360  150.7280 C   0  0  0  0  0  3  0  0  0  0  0  0
  160.9300  202.5920  149.4480 N   0  0  0  0  0  0  0  0  0  0  0  0
  161.0580  203.9000  149.7850 C   0  0  0  0  0  0  0  0  0  0  0  0
  160.7980  201.8250  150.5570 C   0  0  0  0  0  0  0  0  0  0  0  0
  161.0240  204.1740  151.1470 C   0  0  0  0  0  0  0  0  0  0  0  0
  161.5090  206.3440  146.9980 N   0  0  0  0  0  0  0  0  0  0  0  0
  161.2160  204.9560  148.8880 C   0  0  0  0  0  0  0  0  0  0  0  0
  161.1200  205.4780  151.6500 C   0  0  0  0  0  3  0  0  0  0  0  0
  163.3670  204.6360  146.0690 C   0  0  0  0  0  1  0  0  0  0  0  0
  161.5460  202.9530  145.9230 C   0  0  0  0  0  1  0  0  0  0  0  0
  162.2350  203.9580  146.8230 C   0  0  0  0  0  3  0  0  0  0  0  0
  162.5240  208.1950  148.3280 C   0  0  0  0  0  2  0  0  0  0  0  0
  161.4200  211.8520  150.2870 C   0  0  0  0  0  3  0  0  0  0  0  0
  162.1330  209.4690  149.0060 C   0  0  0  0  0  0  0  0  0  0  0  0
  161.9550  210.6420  148.2610 C   0  0  0  0  0  3  0  0  0  0  0  0
  161.5980  211.8310  148.9010 C   0  0  0  0  0  3  0  0  0  0  0  0
  161.6000  210.6830  151.0340 C   0  0  0  0  0  3  0  0  0  0  0  0
  161.9560  209.4930  150.3930 C   0  0  0  0  0  3  0  0  0  0  0  0
  160.4560  206.7510  146.0820 C   0  0  0  0  0  2  0  0  0  0  0  0
  160.4560  205.8630  144.8860 C   0  0  0  0  0  0  0  0  0  0  0  0
  161.3470  205.9910  144.0080 O   0  0  0  0  0  0  0  0  0  0  0  0
  159.4480  204.9230  144.7200 O   0  0  0  0  0  1  0  0  0  0  0  0
  1 17  1  1  0  0  0
  1  2  1  0  0  0  0
  2  6  1  0  0  0  0
  3 16  1  1  0  0  0
  3 12  1  0  0  0  0
  5  9  1  0  0  0  0
  6 13  2  0  0  0  0
  7  8  1  0  0  0  0
  7  9  2  0  0  0  0
  8 10  2  0  0  0  0
  9  4  1  0  0  0  0
 10 13  1  0  0  0  0
 10  4  1  0  0  0  0
 11  3  1  0  0  0  0
 11  1  1  0  0  0  0
 12  2  2  0  0  0  0
 12  8  1  0  0  0  0
 14 16  1  0  0  0  0
 15 16  1  0  0  0  0
 17 19  1  0  0  0  0
 18 22  1  0  0  0  0
 19 23  1  0  0  0  0
 20 21  1  0  0  0  0
 20 19  2  0  0  0  0
 21 18  2  0  0  0  0
 23 22  2  0  0  0  0
 24 11  1  0  0  0  0
 25 24  1  0  0  0  0
 26 25  2  0  0  0  0
 27 25  1  0  0  0  0
M  END
>  <MODEL>
8

>  <REMARK>
 VINA RESULT:      -5.7      2.218      6.322
  Name = 
  5 active torsions:
  status: ('A' for Active; 'I' for Inactive)
    1  A    between atoms: C_1  and  C_15
    2  A    between atoms: C_3  and  C_26
    3  A    between atoms: C_9  and  C_15
    4  A    between atoms: C_10  and  C_24
    5  A    between atoms: N_18  and  C_24
                            x       y       z     vdW  Elec       q    Type
                         _______ _______ _______ _____ _____    ______ ____

>  <TORSDO>
F 5

$$$$
=
 OpenBabel11052423193D

 27 30  0  0  1  0  0  0  0  0999 V2000
  161.5430  208.2130  150.4320 C   0  0  2  0  0  3  0  0  0  0  0  0
  161.3780  207.9010  151.8710 C   0  0  0  0  0  0  0  0  0  0  0  0
  161.6200  210.2200  151.6940 C   0  0  2  0  0  3  0  0  0  0  0  0
  161.2120  208.0020  156.2750 S   0  0  0  0  0  0  0  0  0  0  0  0
  161.3910  210.6310  157.2580 C   0  0  0  0  0  1  0  0  0  0  0  0
  161.2780  206.6400  152.4860 C   0  0  0  0  0  3  0  0  0  0  0  0
  161.4360  210.0790  154.8220 N   0  0  0  0  0  0  0  0  0  0  0  0
  161.3770  209.0080  153.9910 C   0  0  0  0  0  0  0  0  0  0  0  0
  161.3550  209.6840  156.1150 C   0  0  0  0  0  0  0  0  0  0  0  0
  161.2540  207.7720  154.6140 C   0  0  0  0  0  0  0  0  0  0  0  0
  161.5060  209.6860  150.3210 N   0  0  0  0  0  0  0  0  0  0  0  0
  161.4290  209.0580  152.5990 C   0  0  0  0  0  0  0  0  0  0  0  0
  161.2050  206.5720  153.8930 C   0  0  0  0  0  3  0  0  0  0  0  0
  159.2450  210.8280  152.3900 C   0  0  0  0  0  1  0  0  0  0  0  0
  160.4630  212.2350  150.7450 C   0  0  0  0  0  1  0  0  0  0  0  0
  160.6080  211.3430  151.9620 C   0  0  0  0  0  3  0  0  0  0  0  0
  160.4870  207.5440  149.5430 C   0  0  0  0  0  2  0  0  0  0  0  0
  161.9590  204.1340  147.3900 C   0  0  0  0  0  3  0  0  0  0  0  0
  160.9920  206.3540  148.7930 C   0  0  0  0  0  0  0  0  0  0  0  0
  160.8300  205.0660  149.3180 C   0  0  0  0  0  3  0  0  0  0  0  0
  161.3120  203.9570  148.6160 C   0  0  0  0  0  3  0  0  0  0  0  0
  162.1240  205.4200  146.8640 C   0  0  0  0  0  3  0  0  0  0  0  0
  161.6410  206.5280  147.5660 C   0  0  0  0  0  3  0  0  0  0  0  0
  162.7020  210.0940  149.6010 C   0  0  0  0  0  2  0  0  0  0  0  0
  162.3360  211.0500  148.5190 C   0  0  0  0  0  0  0  0  0  0  0  0
  163.0490  212.0640  148.3080 O   0  0  0  0  0  1  0  0  0  0  0  0
  161.1850  210.8430  147.7710 O   0  0  0  0  0  0  0  0  0  0  0  0
  1 17  1  6  0  0  0
  1  2  1  0  0  0  0
  2  6  2  0  0  0  0
  2 12  1  0  0  0  0
  3 16  1  1  0  0  0
  3 12  1  0  0  0  0
  6 13  1  0  0  0  0
  7  9  2  0  0  0  0
  8 10  1  0  0  0  0
  8  7  1  0  0  0  0
  9  4  1  0  0  0  0
  9  5  1  0  0  0  0
 10  4  1  0  0  0  0
 11  1  1  0  0  0  0
 11  3  1  0  0  0  0
 12  8  2  0  0  0  0
 13 10  2  0  0  0  0
 15 16  1  0  0  0  0
 16 14  1  0  0  0  0
 18 21  1  0  0  0  0
 19 20  1  0  0  0  0
 19 17  1  0  0  0  0
 21 20  2  0  0  0  0
 22 18  2  0  0  0  0
 22 23  1  0  0  0  0
 23 19  2  0  0  0  0
 24 11  1  0  0  0  0
 25 24  1  0  0  0  0
 26 25  1  0  0  0  0
 27 25  2  0  0  0  0
M  END
>  <MODEL>
9

>  <REMARK>
 VINA RESULT:      -5.7      3.180      5.215
  Name = 
  5 active torsions:
  status: ('A' for Active; 'I' for Inactive)
    1  A    between atoms: C_1  and  C_15
    2  A    between atoms: C_3  and  C_26
    3  A    between atoms: C_9  and  C_15
    4  A    between atoms: C_10  and  C_24
    5  A    between atoms: N_18  and  C_24
                            x       y       z     vdW  Elec       q    Type
                         _______ _______ _______ _____ _____    ______ ____

>  <TORSDO>
F 5

$$$$
