=
 OpenBabel11062409263D

 34 39  0  0  0  0  0  0  0  0999 V2000
  161.4280  205.4460  149.6630 C   0  0  0  0  0  0  0  0  0  0  0  0
  161.4970  204.5020  146.0020 C   0  0  0  0  0  3  0  0  0  0  0  0
  161.8220  206.5650  147.0860 C   0  0  0  0  0  3  0  0  0  0  0  0
  161.3840  206.1710  152.1360 C   0  0  0  0  0  0  0  0  0  0  0  0
  161.2410  205.0240  151.1160 C   0  0  0  0  0  2  0  0  0  0  0  0
  161.8190  207.7380  150.3500 C   0  0  0  0  0  0  0  0  0  0  0  0
  162.0830  208.9050  149.7170 N   0  0  0  0  0  0  0  0  0  0  0  0
  161.6510  207.4480  151.7740 C   0  0  0  0  0  3  0  0  0  0  0  0
  161.8920  207.3300  148.2410 C   0  0  0  0  0  0  0  0  0  0  0  0
  161.7020  206.7660  149.4370 C   0  0  0  0  0  0  0  0  0  0  0  0
  162.1280  208.6500  148.4020 N   0  0  0  0  0  0  0  0  0  0  0  0
  161.2590  203.1690  145.7080 C   0  0  0  0  0  3  0  0  0  0  0  0
  160.9920  202.0990  146.5520 C   0  0  0  0  0  0  0  0  0  0  0  0
  160.9090  202.1730  147.9370 C   0  0  0  0  0  3  0  0  0  0  0  0
  161.5440  205.1770  147.2160 C   0  0  0  0  0  0  0  0  0  0  0  0
  161.0620  203.2580  148.7860 C   0  0  0  0  0  3  0  0  0  0  0  0
  161.3420  204.5980  148.5250 C   0  0  0  0  0  0  0  0  0  0  0  0
  160.7790  200.7820  145.9220 C   0  0  0  0  0  0  0  0  0  0  0  0
  161.3760  199.6430  146.4520 O   0  0  0  0  0  1  0  0  0  0  0  0
  160.0530  200.6690  144.8970 O   0  0  0  0  0  0  0  0  0  0  0  0
  161.1840  205.8660  153.5820 C   0  0  0  0  0  2  0  0  0  0  0  0
  159.8770  208.1350  156.3230 C   0  0  0  0  0  3  0  0  0  0  0  0
  160.9010  208.3500  153.7200 C   0  0  0  0  0  3  0  0  0  0  0  0
  159.7120  211.8020  155.8100 C   0  0  0  0  0  0  0  0  0  0  0  0
  159.5980  210.5400  156.4120 C   0  0  0  0  0  3  0  0  0  0  0  0
  159.9930  209.3910  155.7220 C   0  0  0  0  0  0  0  0  0  0  0  0
  160.6200  210.7550  153.8100 C   0  0  0  0  0  3  0  0  0  0  0  0
  160.5080  209.5000  154.4110 C   0  0  0  0  0  0  0  0  0  0  0  0
  160.2250  211.9010  154.5070 C   0  0  0  0  0  3  0  0  0  0  0  0
  160.7880  207.0950  154.3290 C   0  0  0  0  0  0  0  0  0  0  0  0
  160.2720  206.9890  155.6270 C   0  0  0  0  0  3  0  0  0  0  0  0
  159.2960  213.0080  156.5420 C   0  0  0  0  0  0  0  0  0  0  0  0
  160.0910  213.9750  156.6830 O   0  0  0  0  0  0  0  0  0  0  0  0
  158.0190  213.0920  157.0850 O   0  0  0  0  0  1  0  0  0  0  0  0
  1  5  1  0  0  0  0
  2 15  1  0  0  0  0
  3 15  2  0  0  0  0
  3  9  1  0  0  0  0
  4 21  1  0  0  0  0
  5  4  1  0  0  0  0
  6  8  1  0  0  0  0
  7  6  2  0  0  0  0
  8  4  2  0  0  0  0
  9 11  2  0  0  0  0
  9 10  1  0  0  0  0
 10  1  2  0  0  0  0
 10  6  1  0  0  0  0
 11  7  1  0  0  0  0
 12  2  2  0  0  0  0
 12 13  1  0  0  0  0
 13 14  2  0  0  0  0
 14 16  1  0  0  0  0
 15 17  1  0  0  0  0
 17 16  2  0  0  0  0
 17  1  1  0  0  0  0
 18 19  1  0  0  0  0
 18 13  1  0  0  0  0
 20 18  2  0  0  0  0
 21 30  1  0  0  0  0
 23 30  2  0  0  0  0
 23 28  1  0  0  0  0
 24 25  1  0  0  0  0
 24 32  1  0  0  0  0
 26 22  1  0  0  0  0
 26 25  2  0  0  0  0
 27 28  2  0  0  0  0
 27 29  1  0  0  0  0
 28 26  1  0  0  0  0
 29 24  2  0  0  0  0
 30 31  1  0  0  0  0
 31 22  2  0  0  0  0
 32 33  2  0  0  0  0
 32 34  1  0  0  0  0
M  END
>  <MODEL>
1

>  <REMARK>
 VINA RESULT:     -12.3      0.000      0.000
  Name = 
  4 active torsions:
  status: ('A' for Active; 'I' for Inactive)
    1  A    between atoms: C_3  and  C_25
    2  A    between atoms: C_7  and  C_11
    3  A    between atoms: C_8  and  C_18
    4  A    between atoms: C_18  and  C_30
                            x       y       z     vdW  Elec       q    Type
                         _______ _______ _______ _____ _____    ______ ____

>  <TORSDO>
F 4

$$$$
=
 OpenBabel11062409263D

 34 39  0  0  0  0  0  0  0  0999 V2000
  160.8170  209.6080  152.6070 C   0  0  0  0  0  0  0  0  0  0  0  0
  160.3530  213.0570  151.1260 C   0  0  0  0  0  3  0  0  0  0  0  0
  159.7140  212.1540  153.2030 C   0  0  0  0  0  3  0  0  0  0  0  0
  161.0810  207.2810  153.6800 C   0  0  0  0  0  0  0  0  0  0  0  0
  161.3430  208.1850  152.4600 C   0  0  0  0  0  3  0  0  0  0  0  0
  159.9800  209.1000  154.8250 C   0  0  0  0  0  0  0  0  0  0  0  0
  159.3170  209.7820  155.7870 N   0  0  0  0  0  2  0  0  0  0  0  0
  160.4350  207.7100  154.7890 C   0  0  0  0  0  3  0  0  0  0  0  0
  159.6580  211.0980  154.1000 C   0  0  0  0  0  0  0  0  0  0  0  0
  160.1900  209.9140  153.7830 C   0  0  0  0  0  0  0  0  0  0  0  0
  159.1160  211.0270  155.3350 N   0  0  0  0  0  0  0  0  0  0  0  0
  160.8620  213.2500  149.8510 C   0  0  0  0  0  3  0  0  0  0  0  0
  161.5270  212.3700  149.0090 C   0  0  0  0  0  0  0  0  0  0  0  0
  161.8250  211.0460  149.3090 C   0  0  0  0  0  3  0  0  0  0  0  0
  160.3490  211.9380  151.9490 C   0  0  0  0  0  0  0  0  0  0  0  0
  161.5570  210.3040  150.4480 C   0  0  0  0  0  3  0  0  0  0  0  0
  160.9130  210.6440  151.6370 C   0  0  0  0  0  0  0  0  0  0  0  0
  161.9490  212.8860  147.6920 C   0  0  0  0  0  0  0  0  0  0  0  0
  161.2260  212.5680  146.5480 O   0  0  0  0  0  0  0  0  0  0  0  0
  162.9670  213.6220  147.5870 O   0  0  0  0  0  1  0  0  0  0  0  0
  161.5270  205.8590  153.6190 C   0  0  0  0  0  2  0  0  0  0  0  0
  161.0290  203.4760  150.7130 C   0  0  0  0  0  3  0  0  0  0  0  0
  161.6460  206.1790  151.1380 C   0  0  0  0  0  3  0  0  0  0  0  0
  161.3990  204.6640  147.2220 C   0  0  0  0  0  0  0  0  0  0  0  0
  161.1730  203.8190  148.3190 C   0  0  0  0  0  3  0  0  0  0  0  0
  161.2530  204.3180  149.6210 C   0  0  0  0  0  0  0  0  0  0  0  0
  161.7910  206.5210  148.7440 C   0  0  0  0  0  3  0  0  0  0  0  0
  161.5640  205.6800  149.8350 C   0  0  0  0  0  0  0  0  0  0  0  0
  161.7080  206.0150  147.4430 C   0  0  0  0  0  3  0  0  0  0  0  0
  161.4150  205.3320  152.2280 C   0  0  0  0  0  0  0  0  0  0  0  0
  161.1120  203.9810  152.0140 C   0  0  0  0  0  3  0  0  0  0  0  0
  161.3130  204.1320  145.8530 C   0  0  0  0  0  0  0  0  0  0  0  0
  161.2640  202.8900  145.6530 O   0  0  0  0  0  1  0  0  0  0  0  0
  161.2860  204.9990  144.7660 O   0  0  0  0  0  0  0  0  0  0  0  0
  1 10  1  0  0  0  0
  2 15  1  0  0  0  0
  3  9  1  0  0  0  0
  4  8  2  0  0  0  0
  5  1  2  0  0  0  0
  5  4  1  0  0  0  0
  6  7  1  0  0  0  0
  8  6  1  0  0  0  0
  9 11  2  0  0  0  0
 10  9  1  0  0  0  0
 10  6  2  0  0  0  0
 11  7  1  0  0  0  0
 12  2  2  0  0  0  0
 13 14  2  0  0  0  0
 13 12  1  0  0  0  0
 14 16  1  0  0  0  0
 15  3  2  0  0  0  0
 16 17  2  0  0  0  0
 17 15  1  0  0  0  0
 17  1  1  0  0  0  0
 18 13  1  0  0  0  0
 19 18  2  0  0  0  0
 20 18  1  0  0  0  0
 21  4  1  0  0  0  0
 22 31  1  0  0  0  0
 23 30  1  0  0  0  0
 24 29  1  0  0  0  0
 24 25  2  0  0  0  0
 25 26  1  0  0  0  0
 26 28  1  0  0  0  0
 26 22  2  0  0  0  0
 27 28  1  0  0  0  0
 28 23  2  0  0  0  0
 29 27  2  0  0  0  0
 30 21  1  0  0  0  0
 31 30  2  0  0  0  0
 32 24  1  0  0  0  0
 33 32  1  0  0  0  0
 34 32  2  0  0  0  0
M  END
>  <MODEL>
2

>  <REMARK>
 VINA RESULT:     -11.3      3.644      8.859
  Name = 
  4 active torsions:
  status: ('A' for Active; 'I' for Inactive)
    1  A    between atoms: C_3  and  C_25
    2  A    between atoms: C_7  and  C_11
    3  A    between atoms: C_8  and  C_18
    4  A    between atoms: C_18  and  C_30
                            x       y       z     vdW  Elec       q    Type
                         _______ _______ _______ _____ _____    ______ ____

>  <TORSDO>
F 4

$$$$
=
 OpenBabel11062409263D

 34 39  0  0  0  0  0  0  0  0999 V2000
  161.2600  206.9250  150.7710 C   0  0  0  0  0  0  0  0  0  0  0  0
  161.1780  203.5040  149.1630 C   0  0  0  0  0  3  0  0  0  0  0  0
  161.1530  204.1660  151.4210 C   0  0  0  0  0  3  0  0  0  0  0  0
  161.3270  209.2200  151.9420 C   0  0  0  0  0  0  0  0  0  0  0  0
  161.3200  208.4400  150.6120 C   0  0  0  0  0  3  0  0  0  0  0  0
  161.2220  207.1510  153.1850 C   0  0  0  0  0  0  0  0  0  0  0  0
  161.1770  206.2980  154.2340 N   0  0  0  0  0  2  0  0  0  0  0  0
  161.2860  208.6120  153.1510 C   0  0  0  0  0  3  0  0  0  0  0  0
  161.1640  205.1530  152.3950 C   0  0  0  0  0  0  0  0  0  0  0  0
  161.2140  206.4430  152.0490 C   0  0  0  0  0  0  0  0  0  0  0  0
  161.1410  205.0530  153.7420 N   0  0  0  0  0  0  0  0  0  0  0  0
  161.2070  203.4760  147.7780 C   0  0  0  0  0  3  0  0  0  0  0  0
  161.2630  204.5170  146.8630 C   0  0  0  0  0  0  0  0  0  0  0  0
  161.3030  205.8680  147.1880 C   0  0  0  0  0  3  0  0  0  0  0  0
  161.1950  204.5660  150.0580 C   0  0  0  0  0  0  0  0  0  0  0  0
  161.2970  206.4910  148.4250 C   0  0  0  0  0  3  0  0  0  0  0  0
  161.2500  205.9700  149.7170 C   0  0  0  0  0  0  0  0  0  0  0  0
  161.2820  204.1560  145.4320 C   0  0  0  0  0  0  0  0  0  0  0  0
  160.9450  202.8690  145.0260 O   0  0  0  0  0  1  0  0  0  0  0  0
  161.6040  205.0070  144.5590 O   0  0  0  0  0  0  0  0  0  0  0  0
  161.4190  210.7080  151.8930 C   0  0  0  0  0  2  0  0  0  0  0  0
  158.4580  212.9990  152.4870 C   0  0  0  0  0  3  0  0  0  0  0  0
  159.7620  210.8690  153.7640 C   0  0  0  0  0  3  0  0  0  0  0  0
  156.4210  212.6800  155.5660 C   0  0  0  0  0  0  0  0  0  0  0  0
  156.8860  213.1390  154.3260 C   0  0  0  0  0  3  0  0  0  0  0  0
  157.9950  212.5400  153.7220 C   0  0  0  0  0  0  0  0  0  0  0  0
  158.1910  211.0100  155.6030 C   0  0  0  0  0  3  0  0  0  0  0  0
  158.6510  211.4670  154.3660 C   0  0  0  0  0  0  0  0  0  0  0  0
  157.0800  211.6140  156.1990 C   0  0  0  0  0  3  0  0  0  0  0  0
  160.2180  211.3300  152.5240 C   0  0  0  0  0  0  0  0  0  0  0  0
  159.5690  212.3970  151.8900 C   0  0  0  0  0  3  0  0  0  0  0  0
  155.2530  213.3150  156.1960 C   0  0  0  0  0  0  0  0  0  0  0  0
  154.8260  214.4230  155.7780 O   0  0  0  0  0  0  0  0  0  0  0  0
  154.6080  212.6950  157.2610 O   0  0  0  0  0  1  0  0  0  0  0  0
  1 10  1  0  0  0  0
  2 15  1  0  0  0  0
  3  9  1  0  0  0  0
  4  8  2  0  0  0  0
  5  1  2  0  0  0  0
  5  4  1  0  0  0  0
  6  7  1  0  0  0  0
  8  6  1  0  0  0  0
  9 11  2  0  0  0  0
 10  9  1  0  0  0  0
 10  6  2  0  0  0  0
 11  7  1  0  0  0  0
 12  2  2  0  0  0  0
 13 14  2  0  0  0  0
 13 12  1  0  0  0  0
 14 16  1  0  0  0  0
 15  3  2  0  0  0  0
 16 17  2  0  0  0  0
 17 15  1  0  0  0  0
 17  1  1  0  0  0  0
 18 13  1  0  0  0  0
 19 18  1  0  0  0  0
 20 18  2  0  0  0  0
 21  4  1  0  0  0  0
 21 30  1  0  0  0  0
 22 26  1  0  0  0  0
 23 28  1  0  0  0  0
 24 32  1  0  0  0  0
 24 29  1  0  0  0  0
 25 24  2  0  0  0  0
 26 25  1  0  0  0  0
 26 28  2  0  0  0  0
 27 29  2  0  0  0  0
 28 27  1  0  0  0  0
 30 23  2  0  0  0  0
 31 22  2  0  0  0  0
 31 30  1  0  0  0  0
 32 34  1  0  0  0  0
 33 32  2  0  0  0  0
M  END
>  <MODEL>
3

>  <REMARK>
 VINA RESULT:     -11.3      2.458      3.986
  Name = 
  4 active torsions:
  status: ('A' for Active; 'I' for Inactive)
    1  A    between atoms: C_3  and  C_25
    2  A    between atoms: C_7  and  C_11
    3  A    between atoms: C_8  and  C_18
    4  A    between atoms: C_18  and  C_30
                            x       y       z     vdW  Elec       q    Type
                         _______ _______ _______ _____ _____    ______ ____

>  <TORSDO>
F 4

$$$$
=
 OpenBabel11062409263D

 34 39  0  0  1  0  0  0  0  0999 V2000
  160.4600  209.3130  153.0980 C   0  0  0  0  0  0  0  0  0  0  0  0
  159.3170  212.8900  153.5460 C   0  0  0  0  0  3  0  0  0  0  0  0
  160.6110  211.8660  151.8680 C   0  0  0  0  0  3  0  0  0  0  0  0
  161.2890  206.9020  152.7300 C   0  0  0  0  0  0  0  0  0  0  0  0
  160.4910  207.8790  153.6150 C   0  0  0  0  0  3  0  0  0  0  0  0
  161.8110  208.6840  151.1860 C   0  0  0  0  0  0  0  0  0  0  0  0
  162.3290  209.3290  150.1160 N   0  0  0  0  0  0  0  0  0  0  0  0
  161.9140  207.2820  151.5910 C   0  0  0  0  0  3  0  0  0  0  0  0
  161.2210  210.7460  151.3220 C   0  0  0  0  0  0  0  0  0  0  0  0
  161.1260  209.5610  151.9300 C   0  0  2  0  0  3  0  0  0  0  0  0
  161.9620  210.6140  150.2000 N   0  0  0  0  0  0  0  0  0  0  0  0
  158.5530  213.1530  154.6720 C   0  0  0  0  0  3  0  0  0  0  0  0
  158.1280  212.3050  155.6850 C   0  0  0  0  0  0  0  0  0  0  0  0
  158.4100  210.9470  155.7620 C   0  0  0  0  0  3  0  0  0  0  0  0
  159.8900  211.7120  153.0840 C   0  0  0  0  0  0  0  0  0  0  0  0
  159.1380  210.1330  154.9070 C   0  0  0  0  0  3  0  0  0  0  0  0
  159.8080  210.4150  153.7190 C   0  0  0  0  0  0  0  0  0  0  0  0
  157.3140  212.8980  156.7630 C   0  0  0  0  0  0  0  0  0  0  0  0
  156.2050  212.2220  157.2610 O   0  0  0  0  0  1  0  0  0  0  0  0
  157.6120  214.0230  157.2490 O   0  0  0  0  0  0  0  0  0  0  0  0
  161.4070  205.4810  153.1690 C   0  0  0  0  0  2  0  0  0  0  0  0
  160.8530  202.3220  151.1490 C   0  0  0  0  0  3  0  0  0  0  0  0
  161.3710  205.0430  150.7040 C   0  0  0  0  0  3  0  0  0  0  0  0
  160.9720  202.4130  147.4460 C   0  0  0  0  0  0  0  0  0  0  0  0
  160.8460  201.9320  148.7570 C   0  0  0  0  0  3  0  0  0  0  0  0
  160.9770  202.8020  149.8430 C   0  0  0  0  0  0  0  0  0  0  0  0
  161.3660  204.6520  148.3130 C   0  0  0  0  0  3  0  0  0  0  0  0
  161.2380  204.1720  149.6180 C   0  0  0  0  0  0  0  0  0  0  0  0
  161.2330  203.7750  147.2310 C   0  0  0  0  0  3  0  0  0  0  0  0
  161.2410  204.5570  152.0100 C   0  0  0  0  0  0  0  0  0  0  0  0
  160.9860  203.1970  152.2300 C   0  0  0  0  0  3  0  0  0  0  0  0
  160.8330  201.4910  146.3070 C   0  0  0  0  0  0  0  0  0  0  0  0
  160.3360  201.8910  145.2200 O   0  0  0  0  0  0  0  0  0  0  0  0
  161.2490  200.1700  146.4200 O   0  0  0  0  0  1  0  0  0  0  0  0
  1  5  1  0  0  0  0
  1 17  2  0  0  0  0
  2 12  1  0  0  0  0
  3 15  1  0  0  0  0
  4 21  1  0  0  0  0
  4  5  2  0  0  0  0
  6  8  2  0  0  0  0
  7 11  2  0  0  0  0
  7  6  1  0  0  0  0
  8  4  1  0  0  0  0
  9  3  2  0  0  0  0
  9 10  1  0  0  0  0
 10  6  1  1  0  0  0
 10  1  1  0  0  0  0
 11  9  1  0  0  0  0
 12 13  2  0  0  0  0
 13 14  1  0  0  0  0
 13 18  1  0  0  0  0
 15  2  2  0  0  0  0
 15 17  1  0  0  0  0
 16 14  2  0  0  0  0
 17 16  1  0  0  0  0
 18 20  2  0  0  0  0
 18 19  1  0  0  0  0
 22 31  1  0  0  0  0
 23 30  1  0  0  0  0
 24 25  2  0  0  0  0
 25 26  1  0  0  0  0
 26 22  2  0  0  0  0
 27 28  1  0  0  0  0
 28 26  1  0  0  0  0
 28 23  2  0  0  0  0
 29 24  1  0  0  0  0
 29 27  2  0  0  0  0
 30 31  2  0  0  0  0
 30 21  1  0  0  0  0
 32 34  1  0  0  0  0
 32 24  1  0  0  0  0
 33 32  2  0  0  0  0
M  END
>  <MODEL>
4

>  <REMARK>
 VINA RESULT:     -11.2      1.446     10.130
  Name = 
  4 active torsions:
  status: ('A' for Active; 'I' for Inactive)
    1  A    between atoms: C_3  and  C_25
    2  A    between atoms: C_7  and  C_11
    3  A    between atoms: C_8  and  C_18
    4  A    between atoms: C_18  and  C_30
                            x       y       z     vdW  Elec       q    Type
                         _______ _______ _______ _____ _____    ______ ____

>  <TORSDO>
F 4

$$$$
=
 OpenBabel11062409263D

 34 39  0  0  0  0  0  0  0  0999 V2000
  161.4560  207.2970  150.8050 C   0  0  0  0  0  0  0  0  0  0  0  0
  161.3880  205.0500  147.7640 C   0  0  0  0  0  3  0  0  0  0  0  0
  161.8000  207.3560  147.9890 C   0  0  0  0  0  3  0  0  0  0  0  0
  161.5070  208.8940  152.8250 C   0  0  0  0  0  0  0  0  0  0  0  0
  161.3020  207.4550  152.3130 C   0  0  0  0  0  2  0  0  0  0  0  0
  161.9280  209.6630  150.5750 C   0  0  0  0  0  0  0  0  0  0  0  0
  162.2030  210.4980  149.5460 N   0  0  0  0  0  0  0  0  0  0  0  0
  161.7960  209.9330  152.0070 C   0  0  0  0  0  3  0  0  0  0  0  0
  161.9260  208.4940  148.7710 C   0  0  0  0  0  0  0  0  0  0  0  0
  161.7570  208.4260  150.0950 C   0  0  0  0  0  0  0  0  0  0  0  0
  162.2020  209.7690  148.4220 N   0  0  0  0  0  0  0  0  0  0  0  0
  161.1050  203.7130  147.9950 C   0  0  0  0  0  3  0  0  0  0  0  0
  160.8360  203.0470  149.1820 C   0  0  0  0  0  0  0  0  0  0  0  0
  160.7980  203.6360  150.4400 C   0  0  0  0  0  3  0  0  0  0  0  0
  161.4900  206.1270  148.6340 C   0  0  0  0  0  0  0  0  0  0  0  0
  161.0060  204.9530  150.8180 C   0  0  0  0  0  3  0  0  0  0  0  0
  161.3120  206.0880  150.0690 C   0  0  0  0  0  0  0  0  0  0  0  0
  160.5690  201.5980  149.0960 C   0  0  0  0  0  0  0  0  0  0  0  0
  161.4440  200.7610  148.4130 O   0  0  0  0  0  0  0  0  0  0  0  0
  159.5470  201.1000  149.6400 O   0  0  0  0  0  1  0  0  0  0  0  0
  161.3430  209.1590  154.2840 C   0  0  0  0  0  2  0  0  0  0  0  0
  159.6720  212.5590  154.4250 C   0  0  0  0  0  3  0  0  0  0  0  0
  159.0860  209.8950  155.0820 C   0  0  0  0  0  3  0  0  0  0  0  0
  156.2450  212.9140  155.7930 C   0  0  0  0  0  0  0  0  0  0  0  0
  157.4870  213.2360  155.2270 C   0  0  0  0  0  3  0  0  0  0  0  0
  158.4340  212.2370  154.9880 C   0  0  0  0  0  0  0  0  0  0  0  0
  156.9030  210.5740  155.8850 C   0  0  0  0  0  3  0  0  0  0  0  0
  158.1390  210.8950  155.3190 C   0  0  0  0  0  0  0  0  0  0  0  0
  155.9600  211.5790  156.1190 C   0  0  0  0  0  3  0  0  0  0  0  0
  160.3220  210.2230  154.5140 C   0  0  0  0  0  0  0  0  0  0  0  0
  160.6150  211.5540  154.1910 C   0  0  0  0  0  3  0  0  0  0  0  0
  155.2520  213.9720  156.0410 C   0  0  0  0  0  0  0  0  0  0  0  0
  155.1050  214.4490  157.1970 O   0  0  0  0  0  1  0  0  0  0  0  0
  154.4670  214.4530  155.0000 O   0  0  0  0  0  0  0  0  0  0  0  0
  1  5  1  0  0  0  0
  2 12  2  0  0  0  0
  2 15  1  0  0  0  0
  3 15  2  0  0  0  0
  3  9  1  0  0  0  0
  4 21  1  0  0  0  0
  5  4  1  0  0  0  0
  6  8  1  0  0  0  0
  7  6  2  0  0  0  0
  8  4  2  0  0  0  0
  9 10  1  0  0  0  0
 10  6  1  0  0  0  0
 10  1  2  0  0  0  0
 11  9  2  0  0  0  0
 11  7  1  0  0  0  0
 12 13  1  0  0  0  0
 13 14  2  0  0  0  0
 14 16  1  0  0  0  0
 15 17  1  0  0  0  0
 17  1  1  0  0  0  0
 17 16  2  0  0  0  0
 18 13  1  0  0  0  0
 18 20  1  0  0  0  0
 19 18  2  0  0  0  0
 21 30  1  0  0  0  0
 22 26  1  0  0  0  0
 23 28  1  0  0  0  0
 24 32  1  0  0  0  0
 24 29  1  0  0  0  0
 25 24  2  0  0  0  0
 26 25  1  0  0  0  0
 26 28  2  0  0  0  0
 27 29  2  0  0  0  0
 28 27  1  0  0  0  0
 30 23  2  0  0  0  0
 31 22  2  0  0  0  0
 31 30  1  0  0  0  0
 32 33  1  0  0  0  0
 34 32  2  0  0  0  0
M  END
>  <MODEL>
5

>  <REMARK>
 VINA RESULT:     -11.2      2.018      3.164
  Name = 
  4 active torsions:
  status: ('A' for Active; 'I' for Inactive)
    1  A    between atoms: C_3  and  C_25
    2  A    between atoms: C_7  and  C_11
    3  A    between atoms: C_8  and  C_18
    4  A    between atoms: C_18  and  C_30
                            x       y       z     vdW  Elec       q    Type
                         _______ _______ _______ _____ _____    ______ ____

>  <TORSDO>
F 4

$$$$
=
 OpenBabel11062409263D

 34 39  0  0  0  0  0  0  0  0999 V2000
  161.0520  208.5520  152.3850 C   0  0  0  0  0  0  0  0  0  0  0  0
  159.9170  209.7660  155.7820 C   0  0  0  0  0  3  0  0  0  0  0  0
  160.5300  207.6270  155.0160 C   0  0  0  0  0  3  0  0  0  0  0  0
  161.8180  207.6450  150.0980 C   0  0  0  0  0  0  0  0  0  0  0  0
  161.3740  208.8650  150.9290 C   0  0  0  0  0  2  0  0  0  0  0  0
  161.5880  206.2140  152.0310 C   0  0  0  0  0  0  0  0  0  0  0  0
  161.5930  205.0980  152.7950 N   0  0  0  0  0  0  0  0  0  0  0  0
  161.9140  206.3980  150.6160 C   0  0  0  0  0  3  0  0  0  0  0  0
  160.9620  206.7780  154.0080 C   0  0  0  0  0  0  0  0  0  0  0  0
  161.1980  207.2520  152.7810 C   0  0  0  0  0  0  0  0  0  0  0  0
  161.2030  205.4490  154.0270 N   0  0  0  0  0  0  0  0  0  0  0  0
  159.6300  211.1170  155.8860 C   0  0  0  0  0  3  0  0  0  0  0  0
  159.6890  212.1220  154.9300 C   0  0  0  0  0  0  0  0  0  0  0  0
  160.0730  211.9450  153.6070 C   0  0  0  0  0  3  0  0  0  0  0  0
  160.3490  209.0020  154.7050 C   0  0  0  0  0  0  0  0  0  0  0  0
  160.4720  210.8000  152.9350 C   0  0  0  0  0  3  0  0  0  0  0  0
  160.6120  209.4820  153.3670 C   0  0  0  0  0  0  0  0  0  0  0  0
  159.3130  213.4830  155.3590 C   0  0  0  0  0  0  0  0  0  0  0  0
  159.9820  214.0990  156.4110 O   0  0  0  0  0  1  0  0  0  0  0  0
  158.3840  214.1050  154.7780 O   0  0  0  0  0  0  0  0  0  0  0  0
  162.1220  207.8430  148.6520 C   0  0  0  0  0  2  0  0  0  0  0  0
  161.7510  205.4060  145.7710 C   0  0  0  0  0  3  0  0  0  0  0  0
  161.5760  205.4000  148.5710 C   0  0  0  0  0  3  0  0  0  0  0  0
  160.8790  201.8610  146.4080 C   0  0  0  0  0  0  0  0  0  0  0  0
  161.1990  203.0470  145.7320 C   0  0  0  0  0  3  0  0  0  0  0  0
  161.4330  204.2250  146.4460 C   0  0  0  0  0  0  0  0  0  0  0  0
  161.0240  203.0420  148.5310 C   0  0  0  0  0  3  0  0  0  0  0  0
  161.3450  204.2210  147.8570 C   0  0  0  0  0  0  0  0  0  0  0  0
  160.7930  201.8660  147.8090 C   0  0  0  0  0  3  0  0  0  0  0  0
  161.8990  206.5790  147.8900 C   0  0  0  0  0  0  0  0  0  0  0  0
  161.9820  206.5810  146.4920 C   0  0  0  0  0  3  0  0  0  0  0  0
  160.6350  200.6230  145.6500 C   0  0  0  0  0  0  0  0  0  0  0  0
  159.8930  200.6350  144.6320 O   0  0  0  0  0  0  0  0  0  0  0  0
  161.2210  199.4290  146.0530 O   0  0  0  0  0  1  0  0  0  0  0  0
  1 10  1  0  0  0  0
  1 17  2  0  0  0  0
  2 12  1  0  0  0  0
  4  8  2  0  0  0  0
  4  5  1  0  0  0  0
  5  1  1  0  0  0  0
  6 10  2  0  0  0  0
  6  7  1  0  0  0  0
  7 11  2  0  0  0  0
  8  6  1  0  0  0  0
  9 11  1  0  0  0  0
  9  3  2  0  0  0  0
 10  9  1  0  0  0  0
 13 18  1  0  0  0  0
 13 12  2  0  0  0  0
 14 13  1  0  0  0  0
 15  3  1  0  0  0  0
 15  2  2  0  0  0  0
 16 17  1  0  0  0  0
 16 14  2  0  0  0  0
 17 15  1  0  0  0  0
 18 19  1  0  0  0  0
 20 18  2  0  0  0  0
 21  4  1  0  0  0  0
 22 26  2  0  0  0  0
 22 31  1  0  0  0  0
 24 29  1  0  0  0  0
 25 24  2  0  0  0  0
 25 26  1  0  0  0  0
 26 28  1  0  0  0  0
 28 27  1  0  0  0  0
 28 23  2  0  0  0  0
 29 27  2  0  0  0  0
 30 23  1  0  0  0  0
 30 21  1  0  0  0  0
 31 30  2  0  0  0  0
 32 34  1  0  0  0  0
 32 24  1  0  0  0  0
 33 32  2  0  0  0  0
M  END
>  <MODEL>
6

>  <REMARK>
 VINA RESULT:     -11.2      1.557     10.672
  Name = 
  4 active torsions:
  status: ('A' for Active; 'I' for Inactive)
    1  A    between atoms: C_3  and  C_25
    2  A    between atoms: C_7  and  C_11
    3  A    between atoms: C_8  and  C_18
    4  A    between atoms: C_18  and  C_30
                            x       y       z     vdW  Elec       q    Type
                         _______ _______ _______ _____ _____    ______ ____

>  <TORSDO>
F 4

$$$$
=
 OpenBabel11062409263D

 34 39  0  0  0  0  0  0  0  0999 V2000
  160.8570  209.4200  152.5640 C   0  0  0  0  0  0  0  0  0  0  0  0
  160.4370  212.8980  151.1400 C   0  0  0  0  0  3  0  0  0  0  0  0
  159.8010  211.9730  153.2090 C   0  0  0  0  0  3  0  0  0  0  0  0
  161.0920  207.0710  153.5970 C   0  0  0  0  0  0  0  0  0  0  0  0
  161.3590  207.9910  152.3900 C   0  0  0  0  0  3  0  0  0  0  0  0
  160.0300  208.8900  154.7800 C   0  0  0  0  0  0  0  0  0  0  0  0
  159.3870  209.5680  155.7590 N   0  0  0  0  0  2  0  0  0  0  0  0
  160.4620  207.4940  154.7190 C   0  0  0  0  0  3  0  0  0  0  0  0
  159.7360  210.9040  154.0900 C   0  0  0  0  0  0  0  0  0  0  0  0
  160.2450  209.7160  153.7500 C   0  0  0  0  0  0  0  0  0  0  0  0
  159.2030  210.8230  155.3280 N   0  0  0  0  0  0  0  0  0  0  0  0
  160.9390  213.1030  149.8650 C   0  0  0  0  0  3  0  0  0  0  0  0
  161.5820  212.2260  149.0030 C   0  0  0  0  0  0  0  0  0  0  0  0
  161.8610  210.8930  149.2800 C   0  0  0  0  0  3  0  0  0  0  0  0
  160.4220  211.7660  151.9460 C   0  0  0  0  0  0  0  0  0  0  0  0
  161.5900  210.1370  150.4090 C   0  0  0  0  0  3  0  0  0  0  0  0
  160.9620  210.4690  151.6090 C   0  0  0  0  0  0  0  0  0  0  0  0
  162.0010  212.7560  147.6910 C   0  0  0  0  0  0  0  0  0  0  0  0
  161.1930  212.5850  146.5730 O   0  0  0  0  0  0  0  0  0  0  0  0
  163.0950  213.3700  147.5660 O   0  0  0  0  0  1  0  0  0  0  0  0
  161.5150  205.6430  153.5100 C   0  0  0  0  0  2  0  0  0  0  0  0
  161.4940  205.6270  149.7190 C   0  0  0  0  0  3  0  0  0  0  0  0
  161.2210  203.8050  151.8350 C   0  0  0  0  0  3  0  0  0  0  0  0
  160.9610  202.4680  147.8560 C   0  0  0  0  0  0  0  0  0  0  0  0
  161.1850  203.8250  148.1280 C   0  0  0  0  0  3  0  0  0  0  0  0
  161.2730  204.2740  149.4490 C   0  0  0  0  0  0  0  0  0  0  0  0
  160.9100  202.0050  150.2440 C   0  0  0  0  0  3  0  0  0  0  0  0
  161.1350  203.3560  150.5140 C   0  0  0  0  0  0  0  0  0  0  0  0
  160.8250  201.5630  148.9200 C   0  0  0  0  0  3  0  0  0  0  0  0
  161.4480  205.1600  152.1000 C   0  0  0  0  0  0  0  0  0  0  0  0
  161.5790  206.0690  151.0430 C   0  0  0  0  0  3  0  0  0  0  0  0
  160.8700  202.0010  146.4630 C   0  0  0  0  0  0  0  0  0  0  0  0
  160.8300  200.7690  146.2040 O   0  0  0  0  0  1  0  0  0  0  0  0
  160.8280  202.9180  145.4190 O   0  0  0  0  0  0  0  0  0  0  0  0
  1 10  1  0  0  0  0
  2 15  1  0  0  0  0
  3  9  1  0  0  0  0
  4  8  2  0  0  0  0
  5  1  2  0  0  0  0
  5  4  1  0  0  0  0
  6  7  1  0  0  0  0
  8  6  1  0  0  0  0
  9 11  2  0  0  0  0
 10  9  1  0  0  0  0
 10  6  2  0  0  0  0
 11  7  1  0  0  0  0
 12  2  2  0  0  0  0
 13 14  2  0  0  0  0
 13 12  1  0  0  0  0
 14 16  1  0  0  0  0
 15  3  2  0  0  0  0
 16 17  2  0  0  0  0
 17 15  1  0  0  0  0
 17  1  1  0  0  0  0
 18 13  1  0  0  0  0
 19 18  2  0  0  0  0
 20 18  1  0  0  0  0
 21  4  1  0  0  0  0
 22 31  1  0  0  0  0
 23 30  1  0  0  0  0
 24 25  2  0  0  0  0
 24 29  1  0  0  0  0
 25 26  1  0  0  0  0
 26 22  2  0  0  0  0
 26 28  1  0  0  0  0
 27 28  1  0  0  0  0
 28 23  2  0  0  0  0
 29 27  2  0  0  0  0
 30 21  1  0  0  0  0
 31 30  2  0  0  0  0
 32 24  1  0  0  0  0
 33 32  1  0  0  0  0
 34 32  2  0  0  0  0
M  END
>  <MODEL>
7

>  <REMARK>
 VINA RESULT:     -11.2      3.544      9.187
  Name = 
  4 active torsions:
  status: ('A' for Active; 'I' for Inactive)
    1  A    between atoms: C_3  and  C_25
    2  A    between atoms: C_7  and  C_11
    3  A    between atoms: C_8  and  C_18
    4  A    between atoms: C_18  and  C_30
                            x       y       z     vdW  Elec       q    Type
                         _______ _______ _______ _____ _____    ______ ____

>  <TORSDO>
F 4

$$$$
=
 OpenBabel11062409263D

 34 39  0  0  0  0  0  0  0  0999 V2000
  161.7640  208.4170  149.4230 C   0  0  0  0  0  0  0  0  0  0  0  0
  161.1690  204.6840  149.5230 C   0  0  0  0  0  3  0  0  0  0  0  0
  161.1420  206.3130  151.2210 C   0  0  0  0  0  3  0  0  0  0  0  0
  162.1710  210.9620  149.4380 C   0  0  0  0  0  0  0  0  0  0  0  0
  162.0970  209.6640  148.6100 C   0  0  0  0  0  3  0  0  0  0  0  0
  161.6400  209.7370  151.4520 C   0  0  0  0  0  0  0  0  0  0  0  0
  161.3920  209.4820  152.7570 N   0  0  0  0  0  2  0  0  0  0  0  0
  161.9610  210.9940  150.7760 C   0  0  0  0  0  3  0  0  0  0  0  0
  161.2750  207.6280  151.6420 C   0  0  0  0  0  0  0  0  0  0  0  0
  161.5680  208.5920  150.7640 C   0  0  0  0  0  0  0  0  0  0  0  0
  161.1640  208.1670  152.8760 N   0  0  0  0  0  0  0  0  0  0  0  0
  161.2650  204.0150  148.3130 C   0  0  0  0  0  3  0  0  0  0  0  0
  161.5510  204.4970  147.0430 C   0  0  0  0  0  0  0  0  0  0  0  0
  161.8100  205.8260  146.7310 C   0  0  0  0  0  3  0  0  0  0  0  0
  161.3250  206.0280  149.8400 C   0  0  0  0  0  0  0  0  0  0  0  0
  161.8480  206.9460  147.5460 C   0  0  0  0  0  3  0  0  0  0  0  0
  161.6430  207.0930  148.9170 C   0  0  0  0  0  0  0  0  0  0  0  0
  161.5810  203.5150  145.9420 C   0  0  0  0  0  0  0  0  0  0  0  0
  160.9090  202.3040  146.0600 O   0  0  0  0  0  1  0  0  0  0  0  0
  162.2150  203.7610  144.8800 O   0  0  0  0  0  0  0  0  0  0  0  0
  162.5240  212.2310  148.7400 C   0  0  0  0  0  2  0  0  0  0  0  0
  159.4700  212.3790  146.4990 C   0  0  0  0  0  3  0  0  0  0  0  0
  162.2390  212.7870  146.3140 C   0  0  0  0  0  3  0  0  0  0  0  0
  159.8070  213.2650  142.9160 C   0  0  0  0  0  0  0  0  0  0  0  0
  159.2360  212.9020  144.1440 C   0  0  0  0  0  3  0  0  0  0  0  0
  160.0400  212.7420  145.2760 C   0  0  0  0  0  0  0  0  0  0  0  0
  162.0050  213.3080  143.9600 C   0  0  0  0  0  3  0  0  0  0  0  0
  161.4350  212.9480  145.1830 C   0  0  0  0  0  0  0  0  0  0  0  0
  161.1940  213.4670  142.8320 C   0  0  0  0  0  3  0  0  0  0  0  0
  161.6620  212.4270  147.5380 C   0  0  0  0  0  0  0  0  0  0  0  0
  160.2800  212.2200  147.6270 C   0  0  0  0  0  3  0  0  0  0  0  0
  158.9550  213.4320  141.7280 C   0  0  0  0  0  0  0  0  0  0  0  0
  158.0850  214.3410  141.6900 O   0  0  0  0  0  1  0  0  0  0  0  0
  159.1040  212.5850  140.6360 O   0  0  0  0  0  0  0  0  0  0  0  0
  1 10  1  0  0  0  0
  2 15  1  0  0  0  0
  3  9  1  0  0  0  0
  4  8  2  0  0  0  0
  5  1  2  0  0  0  0
  5  4  1  0  0  0  0
  6  7  1  0  0  0  0
  7 11  1  0  0  0  0
  8  6  1  0  0  0  0
  9 11  2  0  0  0  0
 10  6  2  0  0  0  0
 10  9  1  0  0  0  0
 12  2  2  0  0  0  0
 13 12  1  0  0  0  0
 14 13  2  0  0  0  0
 14 16  1  0  0  0  0
 15  3  2  0  0  0  0
 16 17  2  0  0  0  0
 17  1  1  0  0  0  0
 17 15  1  0  0  0  0
 18 19  1  0  0  0  0
 18 13  1  0  0  0  0
 20 18  2  0  0  0  0
 21  4  1  0  0  0  0
 22 31  1  0  0  0  0
 23 30  1  0  0  0  0
 24 25  2  0  0  0  0
 25 26  1  0  0  0  0
 26 22  2  0  0  0  0
 27 28  1  0  0  0  0
 28 26  1  0  0  0  0
 28 23  2  0  0  0  0
 29 24  1  0  0  0  0
 29 27  2  0  0  0  0
 30 31  2  0  0  0  0
 30 21  1  0  0  0  0
 32 24  1  0  0  0  0
 33 32  1  0  0  0  0
 34 32  2  0  0  0  0
M  END
>  <MODEL>
8

>  <REMARK>
 VINA RESULT:     -10.7      5.411      8.020
  Name = 
  4 active torsions:
  status: ('A' for Active; 'I' for Inactive)
    1  A    between atoms: C_3  and  C_25
    2  A    between atoms: C_7  and  C_11
    3  A    between atoms: C_8  and  C_18
    4  A    between atoms: C_18  and  C_30
                            x       y       z     vdW  Elec       q    Type
                         _______ _______ _______ _____ _____    ______ ____

>  <TORSDO>
F 4

$$$$
=
 OpenBabel11062409263D

 34 39  0  0  0  0  0  0  0  0999 V2000
  160.6080  210.5830  152.4100 C   0  0  0  0  0  0  0  0  0  0  0  0
  160.2000  213.7270  150.3500 C   0  0  0  0  0  3  0  0  0  0  0  0
  159.4020  213.1490  152.4870 C   0  0  0  0  0  3  0  0  0  0  0  0
  160.8300  208.4700  153.8680 C   0  0  0  0  0  0  0  0  0  0  0  0
  161.1770  209.1750  152.5430 C   0  0  0  0  0  3  0  0  0  0  0  0
  159.5920  210.4090  154.6040 C   0  0  0  0  0  0  0  0  0  0  0  0
  158.8320  211.2130  155.3830 N   0  0  0  0  0  2  0  0  0  0  0  0
  160.0790  209.0490  154.8350 C   0  0  0  0  0  3  0  0  0  0  0  0
  159.2910  212.2510  153.5370 C   0  0  0  0  0  0  0  0  0  0  0  0
  159.8750  211.0510  153.4640 C   0  0  0  0  0  0  0  0  0  0  0  0
  158.6440  212.3610  154.7180 N   0  0  0  0  0  0  0  0  0  0  0  0
  160.8140  213.7310  149.1070 C   0  0  0  0  0  3  0  0  0  0  0  0
  161.5700  212.7510  148.4790 C   0  0  0  0  0  0  0  0  0  0  0  0
  161.8690  211.5050  149.0160 C   0  0  0  0  0  3  0  0  0  0  0  0
  160.1480  212.7570  151.3420 C   0  0  0  0  0  0  0  0  0  0  0  0
  161.5190  210.9470  150.2350 C   0  0  0  0  0  3  0  0  0  0  0  0
  160.7660  211.4510  151.2940 C   0  0  0  0  0  0  0  0  0  0  0  0
  162.0940  213.0630  147.1350 C   0  0  0  0  0  0  0  0  0  0  0  0
  163.4520  212.9390  146.8630 O   0  0  0  0  0  1  0  0  0  0  0  0
  161.3190  213.4440  146.2170 O   0  0  0  0  0  0  0  0  0  0  0  0
  161.3110  207.0740  154.0790 C   0  0  0  0  0  2  0  0  0  0  0  0
  161.2370  206.2860  150.3710 C   0  0  0  0  0  3  0  0  0  0  0  0
  161.2300  204.9120  152.8170 C   0  0  0  0  0  3  0  0  0  0  0  0
  161.0850  202.7730  149.1980 C   0  0  0  0  0  0  0  0  0  0  0  0
  161.1370  204.1750  149.1860 C   0  0  0  0  0  3  0  0  0  0  0  0
  161.1860  204.8900  150.3850 C   0  0  0  0  0  0  0  0  0  0  0  0
  161.1290  202.8020  151.6310 C   0  0  0  0  0  3  0  0  0  0  0  0
  161.1830  204.1970  151.6170 C   0  0  0  0  0  0  0  0  0  0  0  0
  161.0810  202.0940  150.4260 C   0  0  0  0  0  3  0  0  0  0  0  0
  161.2860  206.3100  152.7970 C   0  0  0  0  0  0  0  0  0  0  0  0
  161.2850  206.9950  151.5750 C   0  0  0  0  0  3  0  0  0  0  0  0
  161.0340  202.0260  147.9320 C   0  0  0  0  0  0  0  0  0  0  0  0
  160.8380  200.7820  147.9320 O   0  0  0  0  0  1  0  0  0  0  0  0
  161.2020  202.6880  146.7210 O   0  0  0  0  0  0  0  0  0  0  0  0
  1  5  2  0  0  0  0
  1 10  1  0  0  0  0
  2 15  1  0  0  0  0
  3  9  1  0  0  0  0
  4 21  1  0  0  0  0
  4  8  2  0  0  0  0
  5  4  1  0  0  0  0
  6  8  1  0  0  0  0
  6  7  1  0  0  0  0
  9 11  2  0  0  0  0
 10  9  1  0  0  0  0
 10  6  2  0  0  0  0
 11  7  1  0  0  0  0
 12  2  2  0  0  0  0
 13 14  2  0  0  0  0
 13 12  1  0  0  0  0
 14 16  1  0  0  0  0
 15  3  2  0  0  0  0
 16 17  2  0  0  0  0
 17 15  1  0  0  0  0
 17  1  1  0  0  0  0
 18 13  1  0  0  0  0
 19 18  1  0  0  0  0
 20 18  2  0  0  0  0
 22 26  2  0  0  0  0
 22 31  1  0  0  0  0
 24 29  1  0  0  0  0
 25 24  2  0  0  0  0
 25 26  1  0  0  0  0
 26 28  1  0  0  0  0
 28 27  1  0  0  0  0
 28 23  2  0  0  0  0
 29 27  2  0  0  0  0
 30 23  1  0  0  0  0
 30 21  1  0  0  0  0
 31 30  2  0  0  0  0
 32 24  1  0  0  0  0
 33 32  1  0  0  0  0
 34 32  2  0  0  0  0
M  END
>  <MODEL>
9

>  <REMARK>
 VINA RESULT:     -10.6      3.906      9.022
  Name = 
  4 active torsions:
  status: ('A' for Active; 'I' for Inactive)
    1  A    between atoms: C_3  and  C_25
    2  A    between atoms: C_7  and  C_11
    3  A    between atoms: C_8  and  C_18
    4  A    between atoms: C_18  and  C_30
                            x       y       z     vdW  Elec       q    Type
                         _______ _______ _______ _____ _____    ______ ____

>  <TORSDO>
F 4

$$$$
