=
 OpenBabel11052421483D

 30 32  0  0  1  0  0  0  0  0999 V2000
  160.8740  202.4820  150.8440 C   0  0  0  0  0  0  0  0  0  0  0  0
  160.9450  201.1800  150.4670 N   0  0  0  0  0  0  0  0  0  0  0  0
  160.6000  202.7930  152.5540 Cl  0  0  0  0  0  0  0  0  0  0  0  0
  161.1800  203.1040  148.5200 C   0  0  0  0  0  0  0  0  0  0  0  0
  161.1170  200.8250  149.1730 C   0  0  0  0  0  3  0  0  0  0  0  0
  160.9870  203.5060  149.8670 C   0  0  0  0  0  0  0  0  0  0  0  0
  161.2300  201.7770  148.2180 N   0  0  0  0  0  0  0  0  0  0  0  0
  160.7500  205.4110  144.7320 C   0  0  0  0  0  3  0  0  0  0  0  0
  160.4020  206.3600  145.6000 C   0  0  0  0  0  3  0  0  0  0  0  0
  161.8590  204.4500  144.9940 C   0  0  0  0  0  2  0  0  0  0  0  0
  161.3740  205.5260  147.7250 C   0  0  0  0  0  3  0  0  0  0  0  0
  161.5590  203.5960  146.1800 C   0  0  0  0  0  3  0  0  0  0  0  0
  161.0000  206.5490  146.9420 C   0  0  0  0  0  0  0  0  0  0  0  0
  161.3400  204.0750  147.4100 C   0  0  0  0  0  0  0  0  0  0  0  0
  163.2250  207.6390  148.6640 O   0  0  0  0  0  0  0  0  0  0  0  0
  162.1160  208.4020  148.3190 C   0  0  0  0  0  0  0  0  0  0  0  0
  161.0550  207.8580  147.5250 N   0  0  0  0  0  2  0  0  0  0  0  0
  162.0380  209.5900  148.7220 O   0  0  0  0  0  1  0  0  0  0  0  0
  161.3900  205.5920  151.1940 C   0  0  0  0  0  3  0  0  0  0  0  0
  160.8480  204.9530  150.1680 C   0  0  0  0  0  3  0  0  0  0  0  0
  161.1560  207.0510  151.3530 C   0  0  0  0  0  2  0  0  0  0  0  0
  161.3600  207.4720  152.8130 C   0  0  2  0  0  3  0  0  0  0  0  0
  161.1450  206.2980  153.7570 C   0  0  0  0  0  1  0  0  0  0  0  0
  160.8300  211.0010  153.1040 C   0  0  0  0  0  2  0  0  0  0  0  0
  160.5310  208.6180  153.2160 N   0  0  0  0  0  0  0  0  0  0  0  0
  161.3970  210.5260  154.4130 C   0  0  2  0  0  0  0  0  0  0  0  0
  160.9680  209.0800  154.5330 C   0  0  0  0  0  2  0  0  0  0  0  0
  160.6750  209.7410  152.2860 C   0  0  0  0  0  2  0  0  0  0  0  0
  160.8450  211.3440  155.5610 C   0  0  0  0  0  1  0  0  0  0  0  0
  162.7770  210.6090  154.3900 F   0  0  0  0  0  0  0  0  0  0  0  0
  1  3  1  0  0  0  0
  2  1  1  0  0  0  0
  4  6  1  0  0  0  0
  5  2  2  0  0  0  0
  6 20  1  0  0  0  0
  6  1  2  0  0  0  0
  7  4  2  0  0  0  0
  7  5  1  0  0  0  0
  8 10  1  0  0  0  0
  8  9  2  0  0  0  0
  9 13  1  0  0  0  0
 10 12  1  0  0  0  0
 12 14  2  0  0  0  0
 13 17  1  0  0  0  0
 13 11  2  0  0  0  0
 14 11  1  0  0  0  0
 14  4  1  0  0  0  0
 16 15  2  0  0  0  0
 16 18  1  0  0  0  0
 17 16  1  0  0  0  0
 19 21  1  0  0  0  0
 20 19  2  0  0  0  0
 21 22  1  0  0  0  0
 22 25  1  0  0  0  0
 22 23  1  1  0  0  0
 24 26  1  0  0  0  0
 25 27  1  0  0  0  0
 26 27  1  0  0  0  0
 26 29  1  1  0  0  0
 28 24  1  0  0  0  0
 28 25  1  0  0  0  0
 30 26  1  0  0  0  0
M  END
>  <MODEL>
1

>  <REMARK>
 VINA RESULT:      -9.4      0.000      0.000
  Name = 
  6 active torsions:
  status: ('A' for Active; 'I' for Inactive)
    1  A    between atoms: C_1  and  C_4
    2  A    between atoms: C_4  and  C_27
    3  A    between atoms: C_5  and  C_22
    4  A    between atoms: N_8  and  C_27
    5  A    between atoms: N_16  and  C_25
    6  A    between atoms: C_19  and  C_29
                            x       y       z     vdW  Elec       q    Type
                         _______ _______ _______ _____ _____    ______ ____

>  <TORSDO>
F 6

$$$$
=
 OpenBabel11052421483D

 30 32  0  0  1  0  0  0  0  0999 V2000
  161.2220  206.0530  152.1350 C   0  0  0  0  0  0  0  0  0  0  0  0
  161.1940  204.8230  152.7070 N   0  0  0  0  0  0  0  0  0  0  0  0
  161.2520  207.4300  153.2300 Cl  0  0  0  0  0  0  0  0  0  0  0  0
  161.1410  204.9740  149.9650 C   0  0  0  0  0  0  0  0  0  0  0  0
  161.1330  203.6950  151.9620 C   0  0  0  0  0  3  0  0  0  0  0  0
  161.1910  206.1730  150.7210 C   0  0  0  0  0  0  0  0  0  0  0  0
  161.1060  203.7760  150.6120 N   0  0  0  0  0  0  0  0  0  0  0  0
  162.1460  205.5150  145.6580 C   0  0  0  0  0  3  0  0  0  0  0  0
  162.2380  204.1880  145.7320 C   0  0  0  0  0  3  0  0  0  0  0  0
  161.0840  206.2870  146.3630 C   0  0  0  0  0  2  0  0  0  0  0  0
  160.9260  203.6730  147.7740 C   0  0  0  0  0  3  0  0  0  0  0  0
  161.2050  206.1360  147.8420 C   0  0  0  0  0  3  0  0  0  0  0  0
  161.3700  203.3180  146.5590 C   0  0  0  0  0  0  0  0  0  0  0  0
  161.1340  204.9630  148.4810 C   0  0  0  0  0  0  0  0  0  0  0  0
  159.3940  202.4740  144.4400 O   0  0  0  0  0  0  0  0  0  0  0  0
  160.1860  201.5560  145.1200 C   0  0  0  0  0  0  0  0  0  0  0  0
  161.0970  201.9730  146.1440 N   0  0  0  0  0  2  0  0  0  0  0  0
  160.0930  200.3350  144.8370 O   0  0  0  0  0  1  0  0  0  0  0  0
  162.0940  208.3940  149.9940 C   0  0  0  0  0  3  0  0  0  0  0  0
  161.1430  207.4730  150.0040 C   0  0  0  0  0  3  0  0  0  0  0  0
  161.8910  209.6480  149.2210 C   0  0  0  0  0  2  0  0  0  0  0  0
  162.0910  210.8730  150.1200 C   0  0  2  0  0  3  0  0  0  0  0  0
  161.0550  210.9090  151.2340 C   0  0  0  0  0  1  0  0  0  0  0  0
  160.4290  213.3710  148.1660 C   0  0  0  0  0  2  0  0  0  0  0  0
  162.1020  212.1460  149.3840 N   0  0  0  0  0  0  0  0  0  0  0  0
  161.1000  212.4280  147.2070 C   0  0  2  0  0  0  0  0  0  0  0  0
  162.2870  211.8690  147.9600 C   0  0  0  0  0  2  0  0  0  0  0  0
  160.8330  212.8640  149.5310 C   0  0  0  0  0  2  0  0  0  0  0  0
  161.5540  213.1660  145.9650 C   0  0  0  0  0  1  0  0  0  0  0  0
  160.2350  211.4050  146.8630 F   0  0  0  0  0  0  0  0  0  0  0  0
  1  2  1  0  0  0  0
  1  3  1  0  0  0  0
  4  7  2  0  0  0  0
  4  6  1  0  0  0  0
  5  2  2  0  0  0  0
  6  1  2  0  0  0  0
  7  5  1  0  0  0  0
  8  9  2  0  0  0  0
  8 10  1  0  0  0  0
  9 13  1  0  0  0  0
 10 12  1  0  0  0  0
 11 14  1  0  0  0  0
 12 14  2  0  0  0  0
 13 11  2  0  0  0  0
 14  4  1  0  0  0  0
 15 16  2  0  0  0  0
 16 17  1  0  0  0  0
 17 13  1  0  0  0  0
 18 16  1  0  0  0  0
 19 20  2  0  0  0  0
 20  6  1  0  0  0  0
 21 19  1  0  0  0  0
 21 22  1  0  0  0  0
 22 23  1  1  0  0  0
 24 28  1  0  0  0  0
 25 28  1  0  0  0  0
 25 22  1  0  0  0  0
 26 29  1  6  0  0  0
 26 27  1  0  0  0  0
 26 24  1  0  0  0  0
 27 25  1  0  0  0  0
 30 26  1  0  0  0  0
M  END
>  <MODEL>
2

>  <REMARK>
 VINA RESULT:      -8.7      3.696      5.223
  Name = 
  6 active torsions:
  status: ('A' for Active; 'I' for Inactive)
    1  A    between atoms: C_1  and  C_4
    2  A    between atoms: C_4  and  C_27
    3  A    between atoms: C_5  and  C_22
    4  A    between atoms: N_8  and  C_27
    5  A    between atoms: N_16  and  C_25
    6  A    between atoms: C_19  and  C_29
                            x       y       z     vdW  Elec       q    Type
                         _______ _______ _______ _____ _____    ______ ____

>  <TORSDO>
F 6

$$$$
=
 OpenBabel11052421483D

 30 32  0  0  1  0  0  0  0  0999 V2000
  161.1400  205.2450  152.5710 C   0  0  0  0  0  0  0  0  0  0  0  0
  161.0680  203.9410  152.9400 N   0  0  0  0  0  0  0  0  0  0  0  0
  161.1700  206.4310  153.8720 Cl  0  0  0  0  0  0  0  0  0  0  0  0
  161.1000  204.5240  150.2560 C   0  0  0  0  0  0  0  0  0  0  0  0
  161.0040  202.9470  152.0250 C   0  0  0  0  0  3  0  0  0  0  0  0
  161.1550  205.5870  151.1940 C   0  0  0  0  0  0  0  0  0  0  0  0
  161.0180  203.2410  150.7040 N   0  0  0  0  0  0  0  0  0  0  0  0
  162.2540  205.6930  146.1140 C   0  0  0  0  0  3  0  0  0  0  0  0
  162.2900  204.3680  145.9790 C   0  0  0  0  0  3  0  0  0  0  0  0
  161.2040  206.3910  146.9090 C   0  0  0  0  0  2  0  0  0  0  0  0
  160.8970  203.5970  147.8820 C   0  0  0  0  0  3  0  0  0  0  0  0
  161.2740  206.0020  148.3470 C   0  0  0  0  0  3  0  0  0  0  0  0
  161.3620  203.4180  146.6370 C   0  0  0  0  0  0  0  0  0  0  0  0
  161.1360  204.7480  148.7900 C   0  0  0  0  0  0  0  0  0  0  0  0
  159.3370  202.9910  144.4410 O   0  0  0  0  0  0  0  0  0  0  0  0
  160.1130  201.9530  144.9430 C   0  0  0  0  0  0  0  0  0  0  0  0
  161.0480  202.1690  146.0060 N   0  0  0  0  0  2  0  0  0  0  0  0
  159.9820  200.7990  144.4620 O   0  0  0  0  0  1  0  0  0  0  0  0
  161.9410  207.9650  151.1140 C   0  0  0  0  0  3  0  0  0  0  0  0
  161.1570  206.9850  150.6910 C   0  0  0  0  0  3  0  0  0  0  0  0
  161.8200  209.3150  150.5020 C   0  0  0  0  0  2  0  0  0  0  0  0
  161.7030  210.3890  151.5890 C   0  0  2  0  0  3  0  0  0  0  0  0
  162.5110  210.0100  152.8230 C   0  0  0  0  0  1  0  0  0  0  0  0
  159.2840  212.5380  153.1220 C   0  0  0  0  0  2  0  0  0  0  0  0
  160.3150  210.7030  151.9590 N   0  0  0  0  0  0  0  0  0  0  0  0
  159.6730  211.5050  154.1430 C   0  0  2  0  0  0  0  0  0  0  0  0
  160.0870  210.2890  153.3430 C   0  0  0  0  0  2  0  0  0  0  0  0
  160.0490  212.1430  151.8810 C   0  0  0  0  0  2  0  0  0  0  0  0
  158.5000  211.1780  155.0430 C   0  0  0  0  0  1  0  0  0  0  0  0
  160.7390  211.9600  154.8960 F   0  0  0  0  0  0  0  0  0  0  0  0
  1  2  1  0  0  0  0
  1  3  1  0  0  0  0
  4  7  2  0  0  0  0
  4  6  1  0  0  0  0
  5  2  2  0  0  0  0
  6  1  2  0  0  0  0
  7  5  1  0  0  0  0
  8 10  1  0  0  0  0
  9  8  2  0  0  0  0
  9 13  1  0  0  0  0
 10 12  1  0  0  0  0
 11 14  1  0  0  0  0
 12 14  2  0  0  0  0
 13 11  2  0  0  0  0
 14  4  1  0  0  0  0
 15 16  2  0  0  0  0
 16 17  1  0  0  0  0
 17 13  1  0  0  0  0
 18 16  1  0  0  0  0
 20 19  2  0  0  0  0
 20  6  1  0  0  0  0
 21 19  1  0  0  0  0
 21 22  1  0  0  0  0
 22 25  1  0  0  0  0
 22 23  1  1  0  0  0
 24 26  1  0  0  0  0
 25 27  1  0  0  0  0
 26 30  1  0  0  0  0
 26 29  1  1  0  0  0
 27 26  1  0  0  0  0
 28 25  1  0  0  0  0
 28 24  1  0  0  0  0
M  END
>  <MODEL>
3

>  <REMARK>
 VINA RESULT:      -8.7      2.808      3.850
  Name = 
  6 active torsions:
  status: ('A' for Active; 'I' for Inactive)
    1  A    between atoms: C_1  and  C_4
    2  A    between atoms: C_4  and  C_27
    3  A    between atoms: C_5  and  C_22
    4  A    between atoms: N_8  and  C_27
    5  A    between atoms: N_16  and  C_25
    6  A    between atoms: C_19  and  C_29
                            x       y       z     vdW  Elec       q    Type
                         _______ _______ _______ _____ _____    ______ ____

>  <TORSDO>
F 6

$$$$
=
 OpenBabel11052421483D

 30 32  0  0  1  0  0  0  0  0999 V2000
  162.1070  208.7210  149.1890 C   0  0  0  0  0  0  0  0  0  0  0  0
  162.2980  209.8750  148.5000 N   0  0  0  0  0  0  0  0  0  0  0  0
  162.3960  207.2230  148.3110 Cl  0  0  0  0  0  0  0  0  0  0  0  0
  161.4480  210.0510  151.1060 C   0  0  0  0  0  0  0  0  0  0  0  0
  162.0710  211.0830  149.0640 C   0  0  0  0  0  3  0  0  0  0  0  0
  161.6640  208.7700  150.5360 C   0  0  0  0  0  0  0  0  0  0  0  0
  161.6510  211.1630  150.3480 N   0  0  0  0  0  0  0  0  0  0  0  0
  161.1870  211.1610  155.4130 C   0  0  0  0  0  3  0  0  0  0  0  0
  160.2030  211.9230  154.9380 C   0  0  0  0  0  3  0  0  0  0  0  0
  161.4330  209.7730  154.9300 C   0  0  0  0  0  2  0  0  0  0  0  0
  159.6730  210.8270  152.7760 C   0  0  0  0  0  3  0  0  0  0  0  0
  161.7990  209.7670  153.4840 C   0  0  0  0  0  3  0  0  0  0  0  0
  159.2820  211.5410  153.8420 C   0  0  0  0  0  0  0  0  0  0  0  0
  161.0110  210.2390  152.5120 C   0  0  0  0  0  0  0  0  0  0  0  0
  156.9580  210.6120  155.5280 O   0  0  0  0  0  1  0  0  0  0  0  0
  156.8420  211.6590  154.6220 C   0  0  0  0  0  0  0  0  0  0  0  0
  157.9480  212.0670  153.8080 N   0  0  0  0  0  2  0  0  0  0  0  0
  155.7400  212.2530  154.5060 O   0  0  0  0  0  0  0  0  0  0  0  0
  162.1510  206.5220  151.5300 C   0  0  0  0  0  3  0  0  0  0  0  0
  161.3560  207.5650  151.3480 C   0  0  0  0  0  3  0  0  0  0  0  0
  161.6930  205.3910  152.3780 C   0  0  0  0  0  2  0  0  0  0  0  0
  160.8390  204.4160  151.5590 C   0  0  2  0  0  3  0  0  0  0  0  0
  160.2590  203.3200  152.4420 C   0  0  0  0  0  1  0  0  0  0  0  0
  160.8640  203.1450  148.2120 C   0  0  0  0  0  2  0  0  0  0  0  0
  161.5510  203.8320  150.4120 N   0  0  0  0  0  0  0  0  0  0  0  0
  160.7020  201.9690  149.1340 C   0  0  2  0  0  0  0  0  0  0  0  0
  161.3670  202.3810  150.4290 C   0  0  0  0  0  2  0  0  0  0  0  0
  161.0180  204.3270  149.1390 C   0  0  0  0  0  2  0  0  0  0  0  0
  161.3740  200.7410  148.5550 C   0  0  0  0  0  1  0  0  0  0  0  0
  159.3600  201.7190  149.3520 F   0  0  0  0  0  0  0  0  0  0  0  0
  1  6  1  0  0  0  0
  2  5  1  0  0  0  0
  2  1  2  0  0  0  0
  3  1  1  0  0  0  0
  4 14  1  0  0  0  0
  5  7  2  0  0  0  0
  6  4  2  0  0  0  0
  6 20  1  0  0  0  0
  7  4  1  0  0  0  0
  9  8  2  0  0  0  0
 10  8  1  0  0  0  0
 11 13  2  0  0  0  0
 12 10  1  0  0  0  0
 13  9  1  0  0  0  0
 14 11  1  0  0  0  0
 14 12  2  0  0  0  0
 16 15  1  0  0  0  0
 17 13  1  0  0  0  0
 17 16  1  0  0  0  0
 18 16  2  0  0  0  0
 19 21  1  0  0  0  0
 20 19  2  0  0  0  0
 22 21  1  0  0  0  0
 22 23  1  1  0  0  0
 24 26  1  0  0  0  0
 24 28  1  0  0  0  0
 25 27  1  0  0  0  0
 25 22  1  0  0  0  0
 26 29  1  6  0  0  0
 26 30  1  0  0  0  0
 26 27  1  0  0  0  0
 28 25  1  0  0  0  0
M  END
>  <MODEL>
4

>  <REMARK>
 VINA RESULT:      -8.6      3.858      8.334
  Name = 
  6 active torsions:
  status: ('A' for Active; 'I' for Inactive)
    1  A    between atoms: C_1  and  C_4
    2  A    between atoms: C_4  and  C_27
    3  A    between atoms: C_5  and  C_22
    4  A    between atoms: N_8  and  C_27
    5  A    between atoms: N_16  and  C_25
    6  A    between atoms: C_19  and  C_29
                            x       y       z     vdW  Elec       q    Type
                         _______ _______ _______ _____ _____    ______ ____

>  <TORSDO>
F 6

$$$$
=
 OpenBabel11052421483D

 30 32  0  0  1  0  0  0  0  0999 V2000
  160.9070  209.4110  153.7750 C   0  0  0  0  0  0  0  0  0  0  0  0
  160.6840  208.9820  155.0440 N   0  0  0  0  0  0  0  0  0  0  0  0
  160.9080  211.1520  153.5220 Cl  0  0  0  0  0  0  0  0  0  0  0  0
  161.0390  207.0900  153.0850 C   0  0  0  0  0  0  0  0  0  0  0  0
  160.6260  207.6650  155.3480 C   0  0  0  0  0  3  0  0  0  0  0  0
  161.0900  208.4640  152.7340 C   0  0  0  0  0  0  0  0  0  0  0  0
  160.8000  206.7380  154.3770 N   0  0  0  0  0  0  0  0  0  0  0  0
  160.6220  203.4410  150.5620 C   0  0  0  0  0  3  0  0  0  0  0  0
  160.4970  204.3700  149.6150 C   0  0  0  0  0  3  0  0  0  0  0  0
  161.5950  203.5640  151.6840 C   0  0  0  0  0  2  0  0  0  0  0  0
  161.5190  206.3630  150.6800 C   0  0  0  0  0  3  0  0  0  0  0  0
  161.2770  204.7430  152.5410 C   0  0  0  0  0  3  0  0  0  0  0  0
  161.2340  205.6550  149.5780 C   0  0  0  0  0  0  0  0  0  0  0  0
  161.2420  206.0030  152.0950 C   0  0  0  0  0  0  0  0  0  0  0  0
  162.3780  204.2830  147.1470 O   0  0  0  0  0  1  0  0  0  0  0  0
  162.0490  205.6330  147.1470 C   0  0  0  0  0  0  0  0  0  0  0  0
  161.5340  206.2740  148.3200 N   0  0  0  0  0  2  0  0  0  0  0  0
  162.2170  206.3080  146.1000 O   0  0  0  0  0  0  0  0  0  0  0  0
  161.9970  209.8330  150.8420 C   0  0  0  0  0  3  0  0  0  0  0  0
  161.2660  208.8310  151.3060 C   0  0  0  0  0  3  0  0  0  0  0  0
  162.0710  210.0680  149.3760 C   0  0  0  0  0  2  0  0  0  0  0  0
  162.1080  211.5700  149.0730 C   0  0  2  0  0  3  0  0  0  0  0  0
  161.0040  212.3060  149.8210 C   0  0  0  0  0  1  0  0  0  0  0  0
  162.0300  213.9360  146.3880 C   0  0  0  0  0  2  0  0  0  0  0  0
  162.0550  211.8820  147.6370 N   0  0  0  0  0  0  0  0  0  0  0  0
  160.6050  213.5690  146.6990 C   0  0  2  0  0  0  0  0  0  0  0  0
  160.6690  212.1670  147.2640 C   0  0  0  0  0  2  0  0  0  0  0  0
  162.8500  213.0700  147.3150 C   0  0  0  0  0  2  0  0  0  0  0  0
  159.7600  213.6000  145.4430 C   0  0  0  0  0  1  0  0  0  0  0  0
  160.0880  214.4350  147.6430 F   0  0  0  0  0  0  0  0  0  0  0  0
  1  2  1  0  0  0  0
  2  5  2  0  0  0  0
  3  1  1  0  0  0  0
  4  7  2  0  0  0  0
  6  4  1  0  0  0  0
  6  1  2  0  0  0  0
  7  5  1  0  0  0  0
  8 10  1  0  0  0  0
  9  8  2  0  0  0  0
 10 12  1  0  0  0  0
 11 14  1  0  0  0  0
 13  9  1  0  0  0  0
 13 11  2  0  0  0  0
 14 12  2  0  0  0  0
 14  4  1  0  0  0  0
 16 15  1  0  0  0  0
 16 17  1  0  0  0  0
 17 13  1  0  0  0  0
 18 16  2  0  0  0  0
 19 20  2  0  0  0  0
 20  6  1  0  0  0  0
 21 19  1  0  0  0  0
 22 21  1  0  0  0  0
 22 23  1  1  0  0  0
 24 26  1  0  0  0  0
 24 28  1  0  0  0  0
 25 22  1  0  0  0  0
 26 29  1  6  0  0  0
 26 27  1  0  0  0  0
 26 30  1  0  0  0  0
 27 25  1  0  0  0  0
 28 25  1  0  0  0  0
M  END
>  <MODEL>
5

>  <REMARK>
 VINA RESULT:      -8.5      3.589      6.427
  Name = 
  6 active torsions:
  status: ('A' for Active; 'I' for Inactive)
    1  A    between atoms: C_1  and  C_4
    2  A    between atoms: C_4  and  C_27
    3  A    between atoms: C_5  and  C_22
    4  A    between atoms: N_8  and  C_27
    5  A    between atoms: N_16  and  C_25
    6  A    between atoms: C_19  and  C_29
                            x       y       z     vdW  Elec       q    Type
                         _______ _______ _______ _____ _____    ______ ____

>  <TORSDO>
F 6

$$$$
=
 OpenBabel11052421483D

 30 32  0  0  1  0  0  0  0  0999 V2000
  161.8760  208.5940  150.1980 C   0  0  0  0  0  0  0  0  0  0  0  0
  161.9870  208.9510  148.8930 N   0  0  0  0  0  0  0  0  0  0  0  0
  161.9530  209.8960  151.3790 Cl  0  0  0  0  0  0  0  0  0  0  0  0
  161.7180  206.2810  149.4840 C   0  0  0  0  0  0  0  0  0  0  0  0
  161.9770  208.0290  147.9020 C   0  0  0  0  0  3  0  0  0  0  0  0
  161.7400  207.2240  150.5440 C   0  0  0  0  0  0  0  0  0  0  0  0
  161.8460  206.7150  148.2000 N   0  0  0  0  0  0  0  0  0  0  0  0
  160.3280  202.2760  150.8520 C   0  0  0  0  0  3  0  0  0  0  0  0
  160.0300  202.1730  149.5580 C   0  0  0  0  0  3  0  0  0  0  0  0
  161.5750  202.9300  151.3410 C   0  0  0  0  0  2  0  0  0  0  0  0
  161.4670  203.9190  148.5370 C   0  0  0  0  0  3  0  0  0  0  0  0
  161.6020  204.3740  150.9710 C   0  0  0  0  0  3  0  0  0  0  0  0
  160.8350  202.7400  148.4500 C   0  0  0  0  0  0  0  0  0  0  0  0
  161.5540  204.8250  149.7120 C   0  0  0  0  0  0  0  0  0  0  0  0
  161.6170  199.8820  147.8770 O   0  0  0  0  0  1  0  0  0  0  0  0
  161.1740  200.7420  146.8790 C   0  0  0  0  0  0  0  0  0  0  0  0
  160.8360  202.1040  147.1650 N   0  0  0  0  0  2  0  0  0  0  0  0
  161.0800  200.3170  145.7000 O   0  0  0  0  0  0  0  0  0  0  0  0
  160.8990  207.1870  152.9040 C   0  0  0  0  0  3  0  0  0  0  0  0
  161.6860  206.7280  151.9430 C   0  0  0  0  0  3  0  0  0  0  0  0
  160.9650  206.5770  154.2580 C   0  0  0  0  0  2  0  0  0  0  0  0
  160.9040  207.6620  155.3400 C   0  0  2  0  0  3  0  0  0  0  0  0
  159.7070  207.4530  156.2570 C   0  0  0  0  0  1  0  0  0  0  0  0
  161.3010  211.1930  155.7750 C   0  0  0  0  0  2  0  0  0  0  0  0
  160.9080  209.0300  154.8010 N   0  0  0  0  0  0  0  0  0  0  0  0
  159.8330  210.8910  155.8990 C   0  0  2  0  0  0  0  0  0  0  0  0
  159.6090  209.6480  155.0660 C   0  0  0  0  0  2  0  0  0  0  0  0
  161.9300  209.8600  155.4470 C   0  0  0  0  0  2  0  0  0  0  0  0
  159.0060  212.0440  155.3720 C   0  0  0  0  0  1  0  0  0  0  0  0
  159.5110  210.6380  157.2200 F   0  0  0  0  0  0  0  0  0  0  0  0
  1  6  1  0  0  0  0
  1  3  1  0  0  0  0
  2  1  2  0  0  0  0
  4 14  1  0  0  0  0
  4  6  2  0  0  0  0
  5  7  2  0  0  0  0
  5  2  1  0  0  0  0
  6 20  1  0  0  0  0
  7  4  1  0  0  0  0
  8 10  1  0  0  0  0
  9  8  2  0  0  0  0
 11 14  1  0  0  0  0
 12 10  1  0  0  0  0
 13 11  2  0  0  0  0
 13  9  1  0  0  0  0
 14 12  2  0  0  0  0
 16 17  1  0  0  0  0
 16 15  1  0  0  0  0
 17 13  1  0  0  0  0
 18 16  2  0  0  0  0
 19 21  1  0  0  0  0
 20 19  2  0  0  0  0
 21 22  1  0  0  0  0
 22 23  1  6  0  0  0
 24 26  1  0  0  0  0
 25 27  1  0  0  0  0
 25 22  1  0  0  0  0
 25 28  1  0  0  0  0
 26 29  1  6  0  0  0
 26 30  1  0  0  0  0
 27 26  1  0  0  0  0
 28 24  1  0  0  0  0
M  END
>  <MODEL>
6

>  <REMARK>
 VINA RESULT:      -8.4      3.330      5.093
  Name = 
  6 active torsions:
  status: ('A' for Active; 'I' for Inactive)
    1  A    between atoms: C_1  and  C_4
    2  A    between atoms: C_4  and  C_27
    3  A    between atoms: C_5  and  C_22
    4  A    between atoms: N_8  and  C_27
    5  A    between atoms: N_16  and  C_25
    6  A    between atoms: C_19  and  C_29
                            x       y       z     vdW  Elec       q    Type
                         _______ _______ _______ _____ _____    ______ ____

>  <TORSDO>
F 6

$$$$
=
 OpenBabel11052421483D

 30 32  0  0  1  0  0  0  0  0999 V2000
  161.3380  207.3460  152.4220 C   0  0  0  0  0  0  0  0  0  0  0  0
  161.3220  206.2810  153.2630 N   0  0  0  0  0  0  0  0  0  0  0  0
  161.4300  208.9370  153.1680 Cl  0  0  0  0  0  0  0  0  0  0  0  0
  161.1540  205.7980  150.5630 C   0  0  0  0  0  0  0  0  0  0  0  0
  161.2180  205.0130  152.8000 C   0  0  0  0  0  3  0  0  0  0  0  0
  161.2480  207.1380  151.0200 C   0  0  0  0  0  0  0  0  0  0  0  0
  161.1330  204.7830  151.4690 N   0  0  0  0  0  0  0  0  0  0  0  0
  161.8270  205.5290  146.1670 C   0  0  0  0  0  3  0  0  0  0  0  0
  162.2030  204.2990  146.5160 C   0  0  0  0  0  3  0  0  0  0  0  0
  160.6570  206.2160  146.7840 C   0  0  0  0  0  2  0  0  0  0  0  0
  161.1230  204.0150  148.7310 C   0  0  0  0  0  3  0  0  0  0  0  0
  160.8730  206.4330  148.2440 C   0  0  0  0  0  3  0  0  0  0  0  0
  161.5780  203.4870  147.5850 C   0  0  0  0  0  0  0  0  0  0  0  0
  161.0820  205.4470  149.1240 C   0  0  0  0  0  0  0  0  0  0  0  0
  160.3960  201.8420  145.3490 O   0  0  0  0  0  0  0  0  0  0  0  0
  161.0520  201.2610  146.4270 C   0  0  0  0  0  0  0  0  0  0  0  0
  161.5800  202.0550  147.4940 N   0  0  0  0  0  2  0  0  0  0  0  0
  161.1730  200.0100  146.4710 O   0  0  0  0  0  1  0  0  0  0  0  0
  162.1890  209.0160  149.6540 C   0  0  0  0  0  3  0  0  0  0  0  0
  161.1830  208.2390  150.0260 C   0  0  0  0  0  3  0  0  0  0  0  0
  161.9580  210.0780  148.6390 C   0  0  0  0  0  2  0  0  0  0  0  0
  162.1930  211.4640  149.2480 C   0  0  2  0  0  3  0  0  0  0  0  0
  161.2110  211.7390  150.3790 C   0  0  0  0  0  1  0  0  0  0  0  0
  160.6080  214.3310  147.8040 C   0  0  0  0  0  2  0  0  0  0  0  0
  162.1610  212.5530  148.2610 N   0  0  0  0  0  0  0  0  0  0  0  0
  160.1920  213.1360  146.9930 C   0  0  2  0  0  0  0  0  0  0  0  0
  161.3270  212.1450  147.1310 C   0  0  0  0  0  2  0  0  0  0  0  0
  161.5730  213.7730  148.8230 C   0  0  0  0  0  2  0  0  0  0  0  0
  159.9930  213.5210  145.5420 C   0  0  0  0  0  1  0  0  0  0  0  0
  159.0280  212.5950  147.5060 F   0  0  0  0  0  0  0  0  0  0  0  0
  1  3  1  0  0  0  0
  1  2  1  0  0  0  0
  4  6  1  0  0  0  0
  4  7  2  0  0  0  0
  5  2  2  0  0  0  0
  6  1  2  0  0  0  0
  7  5  1  0  0  0  0
  8  9  2  0  0  0  0
  8 10  1  0  0  0  0
  9 13  1  0  0  0  0
 10 12  1  0  0  0  0
 11 14  1  0  0  0  0
 12 14  2  0  0  0  0
 13 11  2  0  0  0  0
 14  4  1  0  0  0  0
 15 16  2  0  0  0  0
 16 18  1  0  0  0  0
 16 17  1  0  0  0  0
 17 13  1  0  0  0  0
 19 20  2  0  0  0  0
 20  6  1  0  0  0  0
 21 22  1  0  0  0  0
 21 19  1  0  0  0  0
 22 23  1  1  0  0  0
 24 28  1  0  0  0  0
 25 28  1  0  0  0  0
 25 22  1  0  0  0  0
 26 29  1  6  0  0  0
 26 27  1  0  0  0  0
 26 30  1  0  0  0  0
 26 24  1  0  0  0  0
 27 25  1  0  0  0  0
M  END
>  <MODEL>
7

>  <REMARK>
 VINA RESULT:      -8.3      3.909      5.741
  Name = 
  6 active torsions:
  status: ('A' for Active; 'I' for Inactive)
    1  A    between atoms: C_1  and  C_4
    2  A    between atoms: C_4  and  C_27
    3  A    between atoms: C_5  and  C_22
    4  A    between atoms: N_8  and  C_27
    5  A    between atoms: N_16  and  C_25
    6  A    between atoms: C_19  and  C_29
                            x       y       z     vdW  Elec       q    Type
                         _______ _______ _______ _____ _____    ______ ____

>  <TORSDO>
F 6

$$$$
=
 OpenBabel11052421483D

 30 32  0  0  1  0  0  0  0  0999 V2000
  161.0100  209.4250  154.7860 C   0  0  0  0  0  0  0  0  0  0  0  0
  161.1240  210.2400  155.8660 N   0  0  0  0  0  0  0  0  0  0  0  0
  161.4940  207.7480  155.0100 Cl  0  0  0  0  0  0  0  0  0  0  0  0
  160.2200  211.3330  153.5130 C   0  0  0  0  0  0  0  0  0  0  0  0
  160.8140  211.5550  155.7980 C   0  0  0  0  0  3  0  0  0  0  0  0
  160.5500  209.9530  153.5510 C   0  0  0  0  0  0  0  0  0  0  0  0
  160.3710  212.0880  154.6360 N   0  0  0  0  0  0  0  0  0  0  0  0
  158.4510  214.2140  150.6110 C   0  0  0  0  0  3  0  0  0  0  0  0
  159.6990  214.1800  150.1440 C   0  0  0  0  0  3  0  0  0  0  0  0
  157.7450  212.9980  151.1040 C   0  0  0  0  0  2  0  0  0  0  0  0
  160.5660  212.0550  151.0850 C   0  0  0  0  0  3  0  0  0  0  0  0
  158.4350  212.4250  152.2960 C   0  0  0  0  0  3  0  0  0  0  0  0
  160.5650  212.9790  150.1130 C   0  0  0  0  0  0  0  0  0  0  0  0
  159.7030  211.9980  152.2920 C   0  0  0  0  0  0  0  0  0  0  0  0
  160.0670  212.4710  147.1810 O   0  0  0  0  0  1  0  0  0  0  0  0
  161.3480  212.6310  147.6960 C   0  0  0  0  0  0  0  0  0  0  0  0
  161.5670  212.8420  149.0950 N   0  0  0  0  0  2  0  0  0  0  0  0
  162.3340  212.5790  146.9190 O   0  0  0  0  0  0  0  0  0  0  0  0
  161.4660  208.5520  151.6870 C   0  0  0  0  0  3  0  0  0  0  0  0
  160.4620  209.1620  152.2980 C   0  0  0  0  0  3  0  0  0  0  0  0
  161.2100  207.7950  150.4340 C   0  0  0  0  0  2  0  0  0  0  0  0
  160.8290  206.3440  150.7500 C   0  0  2  0  0  3  0  0  0  0  0  0
  161.9670  205.6200  151.4550 C   0  0  0  0  0  1  0  0  0  0  0  0
  161.5390  204.3070  147.8930 C   0  0  0  0  0  2  0  0  0  0  0  0
  160.3850  205.5830  149.5720 N   0  0  0  0  0  0  0  0  0  0  0  0
  161.4590  205.7300  147.4160 C   0  0  2  0  0  0  0  0  0  0  0  0
  160.5250  206.4240  148.3840 C   0  0  0  0  0  2  0  0  0  0  0  0
  161.2050  204.3870  149.3640 C   0  0  0  0  0  2  0  0  0  0  0  0
  160.9090  205.7900  146.0070 C   0  0  0  0  0  1  0  0  0  0  0  0
  162.7100  206.3180  147.4650 F   0  0  0  0  0  0  0  0  0  0  0  0
  1  3  1  0  0  0  0
  1  2  1  0  0  0  0
  4  6  1  0  0  0  0
  4  7  2  0  0  0  0
  5  2  2  0  0  0  0
  6  1  2  0  0  0  0
  7  5  1  0  0  0  0
  8 10  1  0  0  0  0
  9  8  2  0  0  0  0
 10 12  1  0  0  0  0
 11 14  1  0  0  0  0
 13  9  1  0  0  0  0
 13 11  2  0  0  0  0
 14 12  2  0  0  0  0
 14  4  1  0  0  0  0
 15 16  1  0  0  0  0
 16 17  1  0  0  0  0
 17 13  1  0  0  0  0
 18 16  2  0  0  0  0
 19 20  2  0  0  0  0
 20  6  1  0  0  0  0
 21 22  1  0  0  0  0
 21 19  1  0  0  0  0
 22 23  1  6  0  0  0
 24 28  1  0  0  0  0
 25 22  1  0  0  0  0
 26 29  1  6  0  0  0
 26 30  1  0  0  0  0
 26 24  1  0  0  0  0
 26 27  1  0  0  0  0
 27 25  1  0  0  0  0
 28 25  1  0  0  0  0
M  END
>  <MODEL>
8

>  <REMARK>
 VINA RESULT:      -8.2      3.196      7.932
  Name = 
  6 active torsions:
  status: ('A' for Active; 'I' for Inactive)
    1  A    between atoms: C_1  and  C_4
    2  A    between atoms: C_4  and  C_27
    3  A    between atoms: C_5  and  C_22
    4  A    between atoms: N_8  and  C_27
    5  A    between atoms: N_16  and  C_25
    6  A    between atoms: C_19  and  C_29
                            x       y       z     vdW  Elec       q    Type
                         _______ _______ _______ _____ _____    ______ ____

>  <TORSDO>
F 6

$$$$
=
 OpenBabel11052421483D

 30 32  0  0  1  0  0  0  0  0999 V2000
  161.5310  207.4350  148.1020 C   0  0  0  0  0  0  0  0  0  0  0  0
  161.3850  207.3080  146.7590 N   0  0  0  0  0  0  0  0  0  0  0  0
  161.7960  209.0630  148.7150 Cl  0  0  0  0  0  0  0  0  0  0  0  0
  161.3030  205.0280  148.2880 C   0  0  0  0  0  0  0  0  0  0  0  0
  161.2120  206.1000  146.1750 C   0  0  0  0  0  3  0  0  0  0  0  0
  161.5000  206.2800  148.9260 C   0  0  0  0  0  0  0  0  0  0  0  0
  161.1750  204.9800  146.9340 N   0  0  0  0  0  0  0  0  0  0  0  0
  160.0010  201.6240  150.8520 C   0  0  0  0  0  3  0  0  0  0  0  0
  160.0250  201.0050  149.6730 C   0  0  0  0  0  3  0  0  0  0  0  0
  161.0350  202.6180  151.2580 C   0  0  0  0  0  2  0  0  0  0  0  0
  161.4950  202.4780  148.3230 C   0  0  0  0  0  3  0  0  0  0  0  0
  161.0170  203.8080  150.3590 C   0  0  0  0  0  3  0  0  0  0  0  0
  161.0110  201.2580  148.5960 C   0  0  0  0  0  0  0  0  0  0  0  0
  161.2230  203.7510  149.0390 C   0  0  0  0  0  0  0  0  0  0  0  0
  160.3560  201.1450  145.6530 O   0  0  0  0  0  1  0  0  0  0  0  0
  161.0930  200.1500  146.2850 C   0  0  0  0  0  0  0  0  0  0  0  0
  161.3690  200.2060  147.6890 N   0  0  0  0  0  2  0  0  0  0  0  0
  161.5170  199.1770  145.6120 O   0  0  0  0  0  0  0  0  0  0  0  0
  161.3520  207.2700  151.2230 C   0  0  0  0  0  3  0  0  0  0  0  0
  161.7240  206.3070  150.3930 C   0  0  0  0  0  3  0  0  0  0  0  0
  161.6510  207.1440  152.6730 C   0  0  0  0  0  2  0  0  0  0  0  0
  160.7670  208.0940  153.4900 C   0  0  2  0  0  3  0  0  0  0  0  0
  160.5640  209.4150  152.7610 C   0  0  0  0  0  1  0  0  0  0  0  0
  160.1930  208.9510  156.9180 C   0  0  0  0  0  2  0  0  0  0  0  0
  161.2610  208.3280  154.8550 N   0  0  0  0  0  0  0  0  0  0  0  0
  160.5870  210.2130  156.2030 C   0  0  2  0  0  0  0  0  0  0  0  0
  161.4560  209.7640  155.0490 C   0  0  0  0  0  2  0  0  0  0  0  0
  160.2950  207.8760  155.8610 C   0  0  0  0  0  2  0  0  0  0  0  0
  161.3590  211.1310  157.1280 C   0  0  0  0  0  1  0  0  0  0  0  0
  159.4620  210.8570  155.7230 F   0  0  0  0  0  0  0  0  0  0  0  0
  1  3  1  0  0  0  0
  1  6  1  0  0  0  0
  2  1  2  0  0  0  0
  4  6  2  0  0  0  0
  4 14  1  0  0  0  0
  5  2  1  0  0  0  0
  5  7  2  0  0  0  0
  6 20  1  0  0  0  0
  7  4  1  0  0  0  0
  8 10  1  0  0  0  0
  9  8  2  0  0  0  0
 11 13  2  0  0  0  0
 11 14  1  0  0  0  0
 12 10  1  0  0  0  0
 13  9  1  0  0  0  0
 14 12  2  0  0  0  0
 15 16  1  0  0  0  0
 16 17  1  0  0  0  0
 17 13  1  0  0  0  0
 18 16  2  0  0  0  0
 19 21  1  0  0  0  0
 20 19  2  0  0  0  0
 21 22  1  0  0  0  0
 22 23  1  6  0  0  0
 22 25  1  0  0  0  0
 25 27  1  0  0  0  0
 25 28  1  0  0  0  0
 26 24  1  0  0  0  0
 26 29  1  1  0  0  0
 27 26  1  0  0  0  0
 28 24  1  0  0  0  0
 30 26  1  0  0  0  0
M  END
>  <MODEL>
9

>  <REMARK>
 VINA RESULT:      -8.0      2.971      5.137
  Name = 
  6 active torsions:
  status: ('A' for Active; 'I' for Inactive)
    1  A    between atoms: C_1  and  C_4
    2  A    between atoms: C_4  and  C_27
    3  A    between atoms: C_5  and  C_22
    4  A    between atoms: N_8  and  C_27
    5  A    between atoms: N_16  and  C_25
    6  A    between atoms: C_19  and  C_29
                            x       y       z     vdW  Elec       q    Type
                         _______ _______ _______ _____ _____    ______ ____

>  <TORSDO>
F 6

$$$$
