=
 OpenBabel11062409153D

 37 40  0  0  1  0  0  0  0  0999 V2000
  158.6440  210.5310  155.3480 C   0  0  0  0  0  2  0  0  0  0  0  0
  162.7910  210.3810  155.2660 C   0  0  0  0  0  2  0  0  0  0  0  0
  158.0910  213.4530  152.3530 C   0  0  0  0  0  3  0  0  0  0  0  0
  159.9230  210.9540  154.6010 C   0  0  1  0  0  0  0  0  0  0  0  0
  158.3850  212.5880  153.4100 C   0  0  0  0  0  0  0  0  0  0  0  0
  160.6630  209.7080  154.2520 N   0  0  0  0  0  0  0  0  0  0  0  0
  157.4980  212.5220  154.5300 N   0  0  0  0  0  0  0  0  0  0  0  0
  159.5670  211.8190  153.3890 C   0  0  0  0  0  0  0  0  0  0  0  0
  160.1540  212.8350  151.2560 C   0  0  0  0  0  3  0  0  0  0  0  0
  157.6120  211.6270  155.4650 C   0  0  0  0  0  0  0  0  0  0  0  0
  160.4580  211.9760  152.3140 C   0  0  0  0  0  3  0  0  0  0  0  0
  162.0700  209.9840  153.9770 C   0  0  0  0  0  2  0  0  0  0  0  0
  160.7520  211.8380  155.5630 C   0  0  0  0  0  2  0  0  0  0  0  0
  158.9690  213.5740  151.2660 C   0  0  0  0  0  0  0  0  0  0  0  0
  161.8880  211.1020  156.2980 C   0  0  1  0  0  0  0  0  0  0  0  0
  158.6920  214.4230  150.1900 O   0  0  0  0  0  0  0  0  0  0  0  0
  157.4410  214.4260  149.5170 C   0  0  0  0  0  1  0  0  0  0  0  0
  156.4500  212.8580  157.2570 C   0  0  0  0  0  1  0  0  0  0  0  0
  156.7270  211.6630  156.5420 O   0  0  0  0  0  0  0  0  0  0  0  0
  161.2770  210.0630  157.2590 C   0  0  0  0  0  2  0  0  0  0  0  0
  161.7770  208.7280  156.9720 N   0  0  0  0  0  2  0  0  0  0  0  0
  160.1220  206.7260  156.7770 C   0  0  0  0  0  3  0  0  0  0  0  0
  160.8890  207.6520  156.8670 C   0  0  0  0  0  0  0  0  0  0  0  0
  162.6270  212.0870  157.0050 O   0  0  0  0  0  0  0  0  0  0  0  0
  163.9420  211.6400  157.2380 C   0  0  0  0  0  2  0  0  0  0  0  0
  164.8810  212.8270  157.2610 C   0  0  0  0  0  2  0  0  0  0  0  0
  166.3340  212.6420  155.6140 C   0  0  0  0  0  1  0  0  0  0  0  0
  166.1770  212.3990  156.9780 O   0  0  0  0  0  0  0  0  0  0  0  0
  160.0960  209.0180  153.0940 C   0  0  0  0  0  2  0  0  0  0  0  0
  160.8930  207.7610  152.7990 C   0  0  0  0  0  2  0  0  0  0  0  0
  161.7170  208.8430  150.6990 C   0  0  0  0  0  3  0  0  0  0  0  0
  161.2280  207.7050  151.3510 C   0  0  0  0  0  0  0  0  0  0  0  0
  161.0230  206.5230  150.6310 C   0  0  0  0  0  3  0  0  0  0  0  0
  161.0600  204.9960  148.3660 Cl  0  0  0  0  0  0  0  0  0  0  0  0
  161.8100  207.6120  148.6150 C   0  0  0  0  0  3  0  0  0  0  0  0
  161.3170  206.4760  149.2650 C   0  0  0  0  0  0  0  0  0  0  0  0
  162.0110  208.7960  149.3320 C   0  0  0  0  0  3  0  0  0  0  0  0
  1 10  1  0  0  0  0
  2 15  1  0  0  0  0
  3  5  1  0  0  0  0
  4  1  1  1  0  0  0
  4 13  1  0  0  0  0
  5  7  1  0  0  0  0
  6  4  1  0  0  0  0
  7 10  2  0  0  0  0
  8  5  2  0  0  0  0
  8  4  1  0  0  0  0
  9 14  1  0  0  0  0
  9 11  2  0  0  0  0
 10 19  1  0  0  0  0
 11  8  1  0  0  0  0
 12  6  1  0  0  0  0
 12  2  1  0  0  0  0
 13 15  1  0  0  0  0
 14  3  2  0  0  0  0
 15 24  1  0  0  0  0
 15 20  1  1  0  0  0
 16 14  1  0  0  0  0
 17 16  1  0  0  0  0
 19 18  1  0  0  0  0
 21 20  1  0  0  0  0
 22 23  3  0  0  0  0
 23 21  1  0  0  0  0
 24 25  1  0  0  0  0
 25 26  1  0  0  0  0
 27 28  1  0  0  0  0
 28 26  1  0  0  0  0
 29  6  1  0  0  0  0
 30 29  1  0  0  0  0
 31 32  1  0  0  0  0
 32 30  1  0  0  0  0
 33 32  2  0  0  0  0
 34 36  1  0  0  0  0
 35 36  2  0  0  0  0
 35 37  1  0  0  0  0
 36 33  1  0  0  0  0
 37 31  2  0  0  0  0
M  END
>  <MODEL>
1

>  <REMARK>
 VINA RESULT:      -4.6      0.000      0.000
  Name = 
  12 active torsions:
  status: ('A' for Active; 'I' for Inactive)
    1  A    between atoms: C_1  and  N_5
    2  A    between atoms: C_1  and  C_36
    3  A    between atoms: O_3  and  C_32
    4  A    between atoms: N_5  and  C_23
    5  A    between atoms: C_6  and  C_31
    6  A    between atoms: N_14  and  C_37
    7  A    between atoms: C_17  and  C_26
    8  A    between atoms: C_17  and  O_33
    9  A    between atoms: C_24  and  O_28
   10  A    between atoms: C_26  and  O_34
   11  A    between atoms: C_31  and  C_37
   12  A    between atoms: O_33  and  C_36
                            x       y       z     vdW  Elec       q    Type
                         _______ _______ _______ _____ _____    ______ ____

>  <TORSDO>
F 12

$$$$
=
 OpenBabel11062409153D

 37 40  0  0  1  0  0  0  0  0999 V2000
  162.4630  210.5230  150.8580 C   0  0  0  0  0  2  0  0  0  0  0  0
  161.1480  207.0450  152.7020 C   0  0  0  0  0  2  0  0  0  0  0  0
  158.9800  212.8440  151.4050 C   0  0  0  0  0  3  0  0  0  0  0  0
  161.3730  209.8750  151.7330 C   0  0  1  0  0  0  0  0  0  0  0  0
  160.0330  211.9570  151.1690 C   0  0  0  0  0  0  0  0  0  0  0  0
  162.0500  209.3120  152.9370 N   0  0  0  0  0  0  0  0  0  0  0  0
  160.8310  212.1130  149.9900 N   0  0  0  0  0  0  0  0  0  0  0  0
  160.2800  210.8940  152.0620 C   0  0  0  0  0  0  0  0  0  0  0  0
  158.3770  211.6160  153.3970 C   0  0  0  0  0  3  0  0  0  0  0  0
  161.9230  211.4390  149.7880 C   0  0  0  0  0  0  0  0  0  0  0  0
  159.4230  210.7210  153.1610 C   0  0  0  0  0  3  0  0  0  0  0  0
  161.2280  208.2930  153.5830 C   0  0  0  0  0  2  0  0  0  0  0  0
  160.7120  208.7530  150.8960 C   0  0  0  0  0  2  0  0  0  0  0  0
  158.1530  212.6840  152.5260 C   0  0  0  0  0  0  0  0  0  0  0  0
  161.2420  207.3360  151.1840 C   0  0  1  0  0  0  0  0  0  0  0  0
  157.1000  213.5640  152.7920 O   0  0  0  0  0  0  0  0  0  0  0  0
  156.4370  213.6100  154.0490 C   0  0  0  0  0  1  0  0  0  0  0  0
  162.9010  212.9170  148.0730 C   0  0  0  0  0  1  0  0  0  0  0  0
  162.6150  211.6260  148.5910 O   0  0  0  0  0  0  0  0  0  0  0  0
  162.7150  207.2480  150.7360 C   0  0  0  0  0  2  0  0  0  0  0  0
  162.8890  207.7940  149.4000 N   0  0  0  0  0  2  0  0  0  0  0  0
  162.2480  206.3720  147.3130 C   0  0  0  0  0  3  0  0  0  0  0  0
  162.5450  207.0310  148.2790 C   0  0  0  0  0  0  0  0  0  0  0  0
  160.4260  206.4340  150.4510 O   0  0  0  0  0  0  0  0  0  0  0  0
  160.5160  205.1390  150.9950 C   0  0  0  0  0  2  0  0  0  0  0  0
  161.0010  204.1780  149.9300 C   0  0  0  0  0  2  0  0  0  0  0  0
  161.0570  203.0740  151.8360 C   0  0  0  0  0  1  0  0  0  0  0  0
  161.0470  202.8880  150.4550 O   0  0  0  0  0  0  0  0  0  0  0  0
  162.3800  210.3330  153.9300 C   0  0  0  0  0  2  0  0  0  0  0  0
  162.1760  209.7800  155.3290 C   0  0  0  0  0  2  0  0  0  0  0  0
  160.0430  209.8450  156.6360 C   0  0  0  0  0  3  0  0  0  0  0  0
  161.0920  210.5330  156.0150 C   0  0  0  0  0  0  0  0  0  0  0  0
  161.1020  211.9320  156.0110 C   0  0  0  0  0  3  0  0  0  0  0  0
  160.0880  214.3920  156.6300 Cl  0  0  0  0  0  0  0  0  0  0  0  0
  159.0270  211.9530  157.2610 C   0  0  0  0  0  3  0  0  0  0  0  0
  160.0730  212.6420  156.6360 C   0  0  0  0  0  0  0  0  0  0  0  0
  159.0120  210.5550  157.2610 C   0  0  0  0  0  3  0  0  0  0  0  0
  2 12  1  0  0  0  0
  3 14  1  0  0  0  0
  4  1  1  6  0  0  0
  4  8  1  0  0  0  0
  4  6  1  0  0  0  0
  5  3  2  0  0  0  0
  5  8  1  0  0  0  0
  6 12  1  0  0  0  0
  6 29  1  0  0  0  0
  7  5  1  0  0  0  0
  8 11  2  0  0  0  0
 10  7  2  0  0  0  0
 10  1  1  0  0  0  0
 11  9  1  0  0  0  0
 13 15  1  0  0  0  0
 13  4  1  0  0  0  0
 14 16  1  0  0  0  0
 14  9  2  0  0  0  0
 15 20  1  6  0  0  0
 15  2  1  0  0  0  0
 16 17  1  0  0  0  0
 18 19  1  0  0  0  0
 19 10  1  0  0  0  0
 21 20  1  0  0  0  0
 22 23  3  0  0  0  0
 23 21  1  0  0  0  0
 24 25  1  0  0  0  0
 24 15  1  0  0  0  0
 26 28  1  0  0  0  0
 26 25  1  0  0  0  0
 28 27  1  0  0  0  0
 29 30  1  0  0  0  0
 30 32  1  0  0  0  0
 31 37  1  0  0  0  0
 32 31  2  0  0  0  0
 33 32  1  0  0  0  0
 33 36  2  0  0  0  0
 34 36  1  0  0  0  0
 35 37  2  0  0  0  0
 36 35  1  0  0  0  0
M  END
>  <MODEL>
2

>  <REMARK>
 VINA RESULT:      -3.9      3.815      7.317
  Name = 
  12 active torsions:
  status: ('A' for Active; 'I' for Inactive)
    1  A    between atoms: C_1  and  N_5
    2  A    between atoms: C_1  and  C_36
    3  A    between atoms: O_3  and  C_32
    4  A    between atoms: N_5  and  C_23
    5  A    between atoms: C_6  and  C_31
    6  A    between atoms: N_14  and  C_37
    7  A    between atoms: C_17  and  C_26
    8  A    between atoms: C_17  and  O_33
    9  A    between atoms: C_24  and  O_28
   10  A    between atoms: C_26  and  O_34
   11  A    between atoms: C_31  and  C_37
   12  A    between atoms: O_33  and  C_36
                            x       y       z     vdW  Elec       q    Type
                         _______ _______ _______ _____ _____    ______ ____

>  <TORSDO>
F 12

$$$$
=
 OpenBabel11062409153D

 37 40  0  0  1  0  0  0  0  0999 V2000
  158.8220  210.4870  153.3640 C   0  0  0  0  0  2  0  0  0  0  0  0
  162.6260  209.6800  154.8150 C   0  0  0  0  0  2  0  0  0  0  0  0
  159.9370  212.7820  150.0020 C   0  0  0  0  0  3  0  0  0  0  0  0
  160.3350  210.5430  153.0820 C   0  0  1  0  0  0  0  0  0  0  0  0
  159.6710  212.1170  151.2010 C   0  0  0  0  0  0  0  0  0  0  0  0
  160.8590  209.1520  153.1990 N   0  0  0  0  0  0  0  0  0  0  0  0
  158.4720  212.4210  151.9210 N   0  0  0  0  0  0  0  0  0  0  0  0
  160.5960  211.1860  151.7170 C   0  0  0  0  0  0  0  0  0  0  0  0
  162.0590  211.6380  149.8250 C   0  0  0  0  0  3  0  0  0  0  0  0
  158.0750  211.7300  152.9470 C   0  0  0  0  0  0  0  0  0  0  0  0
  161.8030  210.9780  151.0270 C   0  0  0  0  0  3  0  0  0  0  0  0
  162.3020  209.1440  153.4190 C   0  0  0  0  0  2  0  0  0  0  0  0
  160.9730  211.4660  154.1480 C   0  0  0  0  0  2  0  0  0  0  0  0
  161.1280  212.5390  149.3020 C   0  0  0  0  0  0  0  0  0  0  0  0
  161.6150  210.7290  155.3390 C   0  0  1  0  0  0  0  0  0  0  0  0
  161.4130  213.1810  148.0940 O   0  0  0  0  0  0  0  0  0  0  0  0
  162.7390  213.3520  147.6100 C   0  0  0  0  0  1  0  0  0  0  0  0
  156.7900  212.0520  155.0270 C   0  0  0  0  0  1  0  0  0  0  0  0
  156.9140  212.1240  153.6140 O   0  0  0  0  0  0  0  0  0  0  0  0
  160.5100  210.0170  156.1450 C   0  0  0  0  0  2  0  0  0  0  0  0
  160.9540  208.7090  156.5990 N   0  0  0  0  0  2  0  0  0  0  0  0
  159.3210  206.6810  156.5420 C   0  0  0  0  0  3  0  0  0  0  0  0
  160.0770  207.6200  156.5690 C   0  0  0  0  0  0  0  0  0  0  0  0
  162.2740  211.7100  156.1240 O   0  0  0  0  0  0  0  0  0  0  0  0
  163.4130  211.1590  156.7420 C   0  0  0  0  0  2  0  0  0  0  0  0
  164.3020  212.2760  157.2470 C   0  0  0  0  0  2  0  0  0  0  0  0
  166.3750  213.0230  157.1850 C   0  0  0  0  0  1  0  0  0  0  0  0
  165.6280  211.8470  157.2510 O   0  0  0  0  0  0  0  0  0  0  0  0
  160.5680  208.3360  152.0220 C   0  0  0  0  0  2  0  0  0  0  0  0
  160.8560  206.8760  152.3190 C   0  0  0  0  0  2  0  0  0  0  0  0
  161.0630  204.7160  151.0740 C   0  0  0  0  0  3  0  0  0  0  0  0
  160.9460  206.1100  151.0470 C   0  0  0  0  0  0  0  0  0  0  0  0
  160.9470  206.7870  149.8230 C   0  0  0  0  0  3  0  0  0  0  0  0
  161.0540  206.9200  147.0970 Cl  0  0  0  0  0  0  0  0  0  0  0  0
  161.1650  204.6770  148.6540 C   0  0  0  0  0  3  0  0  0  0  0  0
  161.0530  206.0710  148.6270 C   0  0  0  0  0  0  0  0  0  0  0  0
  161.1700  203.9990  149.8780 C   0  0  0  0  0  3  0  0  0  0  0  0
  2 15  1  0  0  0  0
  3  5  1  0  0  0  0
  4  6  1  0  0  0  0
  4  1  1  1  0  0  0
  4 13  1  0  0  0  0
  5  8  2  0  0  0  0
  5  7  1  0  0  0  0
  6 12  1  0  0  0  0
  7 10  2  0  0  0  0
  8  4  1  0  0  0  0
  9 11  2  0  0  0  0
 10  1  1  0  0  0  0
 10 19  1  0  0  0  0
 11  8  1  0  0  0  0
 12  2  1  0  0  0  0
 13 15  1  0  0  0  0
 14  9  1  0  0  0  0
 14  3  2  0  0  0  0
 15 24  1  0  0  0  0
 15 20  1  1  0  0  0
 16 14  1  0  0  0  0
 17 16  1  0  0  0  0
 19 18  1  0  0  0  0
 20 21  1  0  0  0  0
 22 23  3  0  0  0  0
 23 21  1  0  0  0  0
 24 25  1  0  0  0  0
 25 26  1  0  0  0  0
 26 28  1  0  0  0  0
 27 28  1  0  0  0  0
 29 30  1  0  0  0  0
 29  6  1  0  0  0  0
 32 31  1  0  0  0  0
 32 30  1  0  0  0  0
 33 32  2  0  0  0  0
 34 36  1  0  0  0  0
 35 37  1  0  0  0  0
 36 35  2  0  0  0  0
 36 33  1  0  0  0  0
 37 31  2  0  0  0  0
M  END
>  <MODEL>
3

>  <REMARK>
 VINA RESULT:      -3.0      1.760      2.340
  Name = 
  12 active torsions:
  status: ('A' for Active; 'I' for Inactive)
    1  A    between atoms: C_1  and  N_5
    2  A    between atoms: C_1  and  C_36
    3  A    between atoms: O_3  and  C_32
    4  A    between atoms: N_5  and  C_23
    5  A    between atoms: C_6  and  C_31
    6  A    between atoms: N_14  and  C_37
    7  A    between atoms: C_17  and  C_26
    8  A    between atoms: C_17  and  O_33
    9  A    between atoms: C_24  and  O_28
   10  A    between atoms: C_26  and  O_34
   11  A    between atoms: C_31  and  C_37
   12  A    between atoms: O_33  and  C_36
                            x       y       z     vdW  Elec       q    Type
                         _______ _______ _______ _____ _____    ______ ____

>  <TORSDO>
F 12

$$$$
=
 OpenBabel11062409153D

 37 40  0  0  1  0  0  0  0  0999 V2000
  160.8590  211.8510  152.5300 C   0  0  0  0  0  2  0  0  0  0  0  0
  161.5820  207.9200  153.6490 C   0  0  0  0  0  2  0  0  0  0  0  0
  157.0720  212.3020  154.3410 C   0  0  0  0  0  3  0  0  0  0  0  0
  160.4080  210.6700  153.4110 C   0  0  1  0  0  0  0  0  0  0  0  0
  158.2680  212.0120  153.6790 C   0  0  0  0  0  0  0  0  0  0  0  0
  161.5670  210.2920  154.2690 N   0  0  0  0  0  0  0  0  0  0  0  0
  158.5650  212.6720  152.4440 N   0  0  0  0  0  0  0  0  0  0  0  0
  159.1530  211.0470  154.2020 C   0  0  0  0  0  0  0  0  0  0  0  0
  157.5960  210.6560  156.0320 C   0  0  0  0  0  3  0  0  0  0  0  0
  159.7220  212.5830  151.8610 C   0  0  0  0  0  0  0  0  0  0  0  0
  158.7870  210.3560  155.3700 C   0  0  0  0  0  3  0  0  0  0  0  0
  161.4270  208.9330  154.7850 C   0  0  0  0  0  2  0  0  0  0  0  0
  160.0180  209.5080  152.4660 C   0  0  0  0  0  2  0  0  0  0  0  0
  156.7350  211.6330  155.5270 C   0  0  0  0  0  0  0  0  0  0  0  0
  161.1110  208.4410  152.2690 C   0  0  1  0  0  0  0  0  0  0  0  0
  155.5510  211.9120  156.2150 O   0  0  0  0  0  0  0  0  0  0  0  0
  155.2000  213.2230  156.6380 C   0  0  0  0  0  1  0  0  0  0  0  0
  159.0350  214.2480  150.1760 C   0  0  0  0  0  1  0  0  0  0  0  0
  159.9090  213.2280  150.6380 O   0  0  0  0  0  0  0  0  0  0  0  0
  162.3060  209.0760  151.5270 C   0  0  0  0  0  2  0  0  0  0  0  0
  161.9580  209.3930  150.1510 N   0  0  0  0  0  2  0  0  0  0  0  0
  162.3440  207.6370  148.2670 C   0  0  0  0  0  3  0  0  0  0  0  0
  162.1660  208.4500  149.1390 C   0  0  0  0  0  0  0  0  0  0  0  0
  160.5310  207.3920  151.5090 O   0  0  0  0  0  0  0  0  0  0  0  0
  161.2000  206.1780  151.7590 C   0  0  0  0  0  2  0  0  0  0  0  0
  160.4830  205.0520  151.0450 C   0  0  0  0  0  2  0  0  0  0  0  0
  160.8650  202.9340  150.5690 C   0  0  0  0  0  1  0  0  0  0  0  0
  160.8290  203.8360  151.6310 O   0  0  0  0  0  0  0  0  0  0  0  0
  161.7510  211.1960  155.4030 C   0  0  0  0  0  2  0  0  0  0  0  0
  162.7500  210.6040  156.3810 C   0  0  0  0  0  2  0  0  0  0  0  0
  164.4870  212.1760  157.2610 C   0  0  0  0  0  3  0  0  0  0  0  0
  164.0560  211.3060  156.2530 C   0  0  0  0  0  0  0  0  0  0  0  0
  164.8390  211.1220  155.1080 C   0  0  0  0  0  3  0  0  0  0  0  0
  167.0330  211.5670  153.5430 Cl  0  0  0  0  0  0  0  0  0  0  0  0
  166.4880  212.6640  155.9860 C   0  0  0  0  0  3  0  0  0  0  0  0
  166.0550  211.7980  154.9760 C   0  0  0  0  0  0  0  0  0  0  0  0
  165.7040  212.8530  157.1290 C   0  0  0  0  0  3  0  0  0  0  0  0
  1  4  1  0  0  0  0
  2 12  1  0  0  0  0
  3 14  1  0  0  0  0
  4 13  1  6  0  0  0
  4  8  1  0  0  0  0
  4  6  1  0  0  0  0
  5  8  1  0  0  0  0
  5  3  2  0  0  0  0
  6 12  1  0  0  0  0
  6 29  1  0  0  0  0
  7  5  1  0  0  0  0
  8 11  2  0  0  0  0
 10  7  2  0  0  0  0
 10  1  1  0  0  0  0
 11  9  1  0  0  0  0
 14  9  2  0  0  0  0
 14 16  1  0  0  0  0
 15 20  1  6  0  0  0
 15 13  1  0  0  0  0
 15  2  1  0  0  0  0
 16 17  1  0  0  0  0
 18 19  1  0  0  0  0
 19 10  1  0  0  0  0
 21 20  1  0  0  0  0
 22 23  3  0  0  0  0
 23 21  1  0  0  0  0
 24 25  1  0  0  0  0
 24 15  1  0  0  0  0
 26 28  1  0  0  0  0
 26 25  1  0  0  0  0
 27 28  1  0  0  0  0
 29 30  1  0  0  0  0
 32 30  1  0  0  0  0
 32 31  2  0  0  0  0
 33 32  1  0  0  0  0
 34 36  1  0  0  0  0
 35 37  2  0  0  0  0
 36 33  2  0  0  0  0
 36 35  1  0  0  0  0
 37 31  1  0  0  0  0
M  END
>  <MODEL>
4

>  <REMARK>
 VINA RESULT:      -2.6      3.012      6.816
  Name = 
  12 active torsions:
  status: ('A' for Active; 'I' for Inactive)
    1  A    between atoms: C_1  and  N_5
    2  A    between atoms: C_1  and  C_36
    3  A    between atoms: O_3  and  C_32
    4  A    between atoms: N_5  and  C_23
    5  A    between atoms: C_6  and  C_31
    6  A    between atoms: N_14  and  C_37
    7  A    between atoms: C_17  and  C_26
    8  A    between atoms: C_17  and  O_33
    9  A    between atoms: C_24  and  O_28
   10  A    between atoms: C_26  and  O_34
   11  A    between atoms: C_31  and  C_37
   12  A    between atoms: O_33  and  C_36
                            x       y       z     vdW  Elec       q    Type
                         _______ _______ _______ _____ _____    ______ ____

>  <TORSDO>
F 12

$$$$
=
 OpenBabel11062409153D

 37 40  0  0  1  0  0  0  0  0999 V2000
  161.7880  210.7980  154.5760 C   0  0  0  0  0  2  0  0  0  0  0  0
  158.6720  211.8270  152.0350 C   0  0  0  0  0  2  0  0  0  0  0  0
  161.5460  206.6050  154.1530 C   0  0  0  0  0  3  0  0  0  0  0  0
  160.7940  210.3020  153.5090 C   0  0  1  0  0  0  0  0  0  0  0  0
  161.4640  207.9900  154.3180 C   0  0  0  0  0  0  0  0  0  0  0  0
  161.0090  211.1300  152.2870 N   0  0  0  0  0  0  0  0  0  0  0  0
  161.8420  208.5710  155.5690 N   0  0  0  0  0  0  0  0  0  0  0  0
  160.9720  208.8010  153.2740 C   0  0  0  0  0  0  0  0  0  0  0  0
  160.6210  206.8020  151.9290 C   0  0  0  0  0  3  0  0  0  0  0  0
  161.9540  209.8540  155.7420 C   0  0  0  0  0  0  0  0  0  0  0  0
  160.5270  208.1850  152.0910 C   0  0  0  0  0  3  0  0  0  0  0  0
  159.8490  211.0830  151.4010 C   0  0  0  0  0  2  0  0  0  0  0  0
  159.3670  210.5090  154.0720 C   0  0  0  0  0  2  0  0  0  0  0  0
  161.1340  206.0050  152.9540 C   0  0  0  0  0  0  0  0  0  0  0  0
  158.6590  211.7860  153.5830 C   0  0  1  0  0  0  0  0  0  0  0  0
  161.2180  204.6230  152.7590 O   0  0  0  0  0  0  0  0  0  0  0  0
  161.3510  204.0360  151.4710 C   0  0  0  0  0  1  0  0  0  0  0  0
  163.4620  211.1000  157.2440 C   0  0  0  0  0  1  0  0  0  0  0  0
  162.2890  210.3350  157.0090 O   0  0  0  0  0  0  0  0  0  0  0  0
  159.4060  213.0180  154.1340 C   0  0  0  0  0  2  0  0  0  0  0  0
  159.0530  213.2670  155.5220 N   0  0  0  0  0  2  0  0  0  0  0  0
  160.9020  213.8680  157.2550 C   0  0  0  0  0  3  0  0  0  0  0  0
  160.0460  213.5900  156.4530 C   0  0  0  0  0  0  0  0  0  0  0  0
  157.3270  211.7310  154.0700 O   0  0  0  0  0  0  0  0  0  0  0  0
  157.2260  210.7940  155.1160 C   0  0  0  0  0  2  0  0  0  0  0  0
  156.1170  211.2100  156.0600 C   0  0  0  0  0  2  0  0  0  0  0  0
  155.5860  213.2010  156.8400 C   0  0  0  0  0  1  0  0  0  0  0  0
  155.6140  212.4490  155.6670 O   0  0  0  0  0  0  0  0  0  0  0  0
  162.1860  210.7180  151.5250 C   0  0  0  0  0  2  0  0  0  0  0  0
  161.7740  210.2830  150.1300 C   0  0  0  0  0  2  0  0  0  0  0  0
  163.4370  211.5800  148.7830 C   0  0  0  0  0  3  0  0  0  0  0  0
  162.1050  211.3520  149.1500 C   0  0  0  0  0  0  0  0  0  0  0  0
  161.0890  212.1530  148.6190 C   0  0  0  0  0  3  0  0  0  0  0  0
  160.1280  214.1740  147.0530 Cl  0  0  0  0  0  0  0  0  0  0  0  0
  162.7310  213.3970  147.3450 C   0  0  0  0  0  3  0  0  0  0  0  0
  161.4010  213.1730  147.7160 C   0  0  0  0  0  0  0  0  0  0  0  0
  163.7490  212.6000  147.8790 C   0  0  0  0  0  3  0  0  0  0  0  0
  1 10  1  0  0  0  0
  2 15  1  0  0  0  0
  3  5  1  0  0  0  0
  4 13  1  1  0  0  0
  4  1  1  0  0  0  0
  5  7  1  0  0  0  0
  6  4  1  0  0  0  0
  7 10  2  0  0  0  0
  8  4  1  0  0  0  0
  8  5  2  0  0  0  0
  9 11  2  0  0  0  0
  9 14  1  0  0  0  0
 10 19  1  0  0  0  0
 11  8  1  0  0  0  0
 12  2  1  0  0  0  0
 12  6  1  0  0  0  0
 14  3  2  0  0  0  0
 15 24  1  0  0  0  0
 15 13  1  0  0  0  0
 15 20  1  1  0  0  0
 16 14  1  0  0  0  0
 17 16  1  0  0  0  0
 19 18  1  0  0  0  0
 20 21  1  0  0  0  0
 21 23  1  0  0  0  0
 23 22  3  0  0  0  0
 24 25  1  0  0  0  0
 25 26  1  0  0  0  0
 28 26  1  0  0  0  0
 28 27  1  0  0  0  0
 29  6  1  0  0  0  0
 30 29  1  0  0  0  0
 31 32  1  0  0  0  0
 32 30  1  0  0  0  0
 33 32  2  0  0  0  0
 34 36  1  0  0  0  0
 35 36  2  0  0  0  0
 35 37  1  0  0  0  0
 36 33  1  0  0  0  0
 37 31  2  0  0  0  0
M  END
>  <MODEL>
5

>  <REMARK>
 VINA RESULT:      -2.5      2.955      6.381
  Name = 
  12 active torsions:
  status: ('A' for Active; 'I' for Inactive)
    1  A    between atoms: C_1  and  N_5
    2  A    between atoms: C_1  and  C_36
    3  A    between atoms: O_3  and  C_32
    4  A    between atoms: N_5  and  C_23
    5  A    between atoms: C_6  and  C_31
    6  A    between atoms: N_14  and  C_37
    7  A    between atoms: C_17  and  C_26
    8  A    between atoms: C_17  and  O_33
    9  A    between atoms: C_24  and  O_28
   10  A    between atoms: C_26  and  O_34
   11  A    between atoms: C_31  and  C_37
   12  A    between atoms: O_33  and  C_36
                            x       y       z     vdW  Elec       q    Type
                         _______ _______ _______ _____ _____    ______ ____

>  <TORSDO>
F 12

$$$$
