=
 OpenBabel11062410223D

 43 47  0  0  1  0  0  0  0  0999 V2000
  161.2320  208.7330  148.8230 C   0  0  0  0  0  2  0  0  0  0  0  0
  162.5900  209.8390  150.5600 C   0  0  0  0  0  2  0  0  0  0  0  0
  162.0950  208.9260  151.5820 N   0  0  0  0  0  0  0  0  0  0  0  0
  160.8810  207.0060  152.1060 O   0  0  0  0  0  0  0  0  0  0  0  0
  161.5070  210.0610  149.5200 C   0  0  1  0  0  3  0  0  0  0  0  0
  160.7280  207.6630  149.8100 C   0  0  2  0  0  3  0  0  0  0  0  0
  161.2590  207.8130  151.2190 C   0  0  0  0  0  0  0  0  0  0  0  0
  161.3550  201.3680  148.3490 C   0  0  0  0  0  0  0  0  0  0  0  0
  160.9850  206.2900  149.2720 C   0  0  0  0  0  0  0  0  0  0  0  0
  161.4390  203.7790  148.1770 C   0  0  0  0  0  0  0  0  0  0  0  0
  160.8160  201.4740  149.6360 C   0  0  0  0  0  3  0  0  0  0  0  0
  161.5710  200.1500  147.8040 F   0  0  0  0  0  0  0  0  0  0  0  0
  160.8940  203.8840  149.4760 C   0  0  0  0  0  0  0  0  0  0  0  0
  161.6660  202.5200  147.6180 C   0  0  0  0  0  3  0  0  0  0  0  0
  160.5850  202.7320  150.2000 C   0  0  0  0  0  3  0  0  0  0  0  0
  160.6640  205.1460  150.0150 C   0  0  0  0  0  3  0  0  0  0  0  0
  161.5250  206.1420  147.9910 C   0  0  0  0  0  3  0  0  0  0  0  0
  161.7430  204.9020  147.4760 N   0  0  0  0  0  0  0  0  0  0  0  0
  163.5430  212.6380  147.5840 C   0  0  0  0  0  3  0  0  0  0  0  0
  161.2610  212.6600  146.7810 C   0  0  0  0  0  3  0  0  0  0  0  0
  162.5700  213.1470  146.7220 C   0  0  0  0  0  0  0  0  0  0  0  0
  163.2110  211.6330  148.5000 C   0  0  0  0  0  3  0  0  0  0  0  0
  161.9010  211.1300  148.5500 C   0  0  0  0  0  0  0  0  0  0  0  0
  162.8990  214.1420  145.8100 O   0  0  0  0  0  1  0  0  0  0  0  0
  160.9290  211.6530  147.6930 C   0  0  0  0  0  3  0  0  0  0  0  0
  162.2650  209.2570  152.8860 O   0  0  0  0  0  0  0  0  0  0  0  0
  160.9800  209.4920  153.3940 C   0  0  0  0  0  2  0  0  0  0  0  0
  160.7180  210.9840  153.6080 C   0  0  1  0  0  3  0  0  0  0  0  0
  159.6570  211.5010  152.6420 C   0  0  0  0  0  2  0  0  0  0  0  0
  159.8280  212.9960  152.3830 C   0  0  0  0  0  3  0  0  0  0  0  0
  157.3790  213.6170  152.5490 C   0  0  0  0  0  2  0  0  0  0  0  0
  158.3820  213.1310  150.3120 C   0  0  0  0  0  2  0  0  0  0  0  0
  157.3780  213.9920  151.0730 C   0  0  0  0  0  2  0  0  0  0  0  0
  159.7860  213.3250  150.8850 C   0  0  0  0  0  2  0  0  0  0  0  0
  158.7740  213.8050  153.1450 C   0  0  0  0  0  2  0  0  0  0  0  0
  160.3570  211.3100  155.0660 C   0  0  1  0  0  3  0  0  0  0  0  0
  159.0850  210.6140  155.5750 C   0  0  0  0  0  2  0  0  0  0  0  0
  158.0250  211.5830  155.9930 C   0  0  0  0  0  3  0  0  0  0  0  0
  156.8590  211.5190  155.4730 N   0  0  0  0  0  0  0  0  0  0  0  0
  155.8490  212.4610  155.8670 C   0  0  0  0  0  1  0  0  0  0  0  0
  161.5560  211.1490  156.0000 C   0  0  0  0  0  2  0  0  0  0  0  0
  162.1520  208.9030  156.9170 C   0  0  0  0  0  1  0  0  0  0  0  0
  161.2650  210.1240  157.0860 C   0  0  0  0  0  2  0  0  0  0  0  0
  1  5  1  0  0  0  0
  1  6  1  0  0  0  0
  2  3  1  0  0  0  0
  3 26  1  0  0  0  0
  5 23  1  6  0  0  0
  5  2  1  0  0  0  0
  6  9  1  6  0  0  0
  6  7  1  0  0  0  0
  7  3  1  0  0  0  0
  7  4  2  0  0  0  0
  8 11  1  0  0  0  0
  9 16  1  0  0  0  0
 10 13  1  0  0  0  0
 11 15  2  0  0  0  0
 12  8  1  0  0  0  0
 13 16  2  0  0  0  0
 13 15  1  0  0  0  0
 14 10  1  0  0  0  0
 14  8  2  0  0  0  0
 17  9  2  0  0  0  0
 18 17  1  0  0  0  0
 18 10  2  0  0  0  0
 19 22  1  0  0  0  0
 20 25  2  0  0  0  0
 21 20  1  0  0  0  0
 21 19  2  0  0  0  0
 22 23  2  0  0  0  0
 24 21  1  0  0  0  0
 25 23  1  0  0  0  0
 26 27  1  0  0  0  0
 27 28  1  0  0  0  0
 28 29  1  6  0  0  0
 28 36  1  0  0  0  0
 30 29  1  0  0  0  0
 30 35  1  0  0  0  0
 31 35  1  0  0  0  0
 32 34  1  0  0  0  0
 32 33  1  0  0  0  0
 33 31  1  0  0  0  0
 34 30  1  0  0  0  0
 36 37  1  1  0  0  0
 36 41  1  0  0  0  0
 37 38  1  0  0  0  0
 39 40  1  0  0  0  0
 39 38  2  0  0  0  0
 41 43  1  0  0  0  0
 42 43  1  0  0  0  0
M  END
>  <MODEL>
1

>  <REMARK>
 VINA RESULT:      -6.9      0.000      0.000
  Name = 
  12 active torsions:
  status: ('A' for Active; 'I' for Inactive)
    1  A    between atoms: O_2  and  C_6
    2  A    between atoms: O_2  and  N_13
    3  A    between atoms: C_3  and  C_4
    4  A    between atoms: C_4  and  C_22
    5  A    between atoms: C_6  and  C_41
    6  A    between atoms: C_8  and  C_34
    7  A    between atoms: C_11  and  C_14
    8  A    between atoms: C_14  and  C_41
    9  A    between atoms: C_15  and  C_22
   10  A    between atoms: C_15  and  C_42
   11  A    between atoms: C_22  and  C_41
   12  A    between atoms: C_28  and  C_35
                            x       y       z     vdW  Elec       q    Type
                         _______ _______ _______ _____ _____    ______ ____

>  <TORSDO>
F 12

$$$$
=
 OpenBabel11062410223D

 43 47  0  0  1  0  0  0  0  0999 V2000
  161.2240  208.7650  148.8440 C   0  0  0  0  0  2  0  0  0  0  0  0
  162.6230  209.8640  150.5520 C   0  0  0  0  0  2  0  0  0  0  0  0
  162.1570  208.9430  151.5810 N   0  0  0  0  0  0  0  0  0  0  0  0
  160.9630  207.0150  152.1230 O   0  0  0  0  0  0  0  0  0  0  0  0
  161.5130  210.0890  149.5420 C   0  0  1  0  0  3  0  0  0  0  0  0
  160.7490  207.6870  149.8370 C   0  0  2  0  0  3  0  0  0  0  0  0
  161.3160  207.8290  151.2320 C   0  0  0  0  0  0  0  0  0  0  0  0
  161.3220  201.4040  148.2990 C   0  0  0  0  0  0  0  0  0  0  0  0
  160.9970  206.3180  149.2830 C   0  0  0  0  0  0  0  0  0  0  0  0
  161.4360  203.8170  148.1610 C   0  0  0  0  0  0  0  0  0  0  0  0
  160.7690  201.4990  149.5810 C   0  0  0  0  0  3  0  0  0  0  0  0
  161.5310  200.1920  147.7400 F   0  0  0  0  0  0  0  0  0  0  0  0
  160.8760  203.9100  149.4540 C   0  0  0  0  0  0  0  0  0  0  0  0
  161.6550  202.5620  147.5880 C   0  0  0  0  0  3  0  0  0  0  0  0
  160.5460  202.7520  150.1590 C   0  0  0  0  0  3  0  0  0  0  0  0
  160.6550  205.1680  150.0070 C   0  0  0  0  0  3  0  0  0  0  0  0
  161.5510  206.1800  148.0070 C   0  0  0  0  0  3  0  0  0  0  0  0
  161.7610  204.9450  147.4780 N   0  0  0  0  0  0  0  0  0  0  0  0
  163.4250  212.8280  147.7050 C   0  0  0  0  0  3  0  0  0  0  0  0
  161.2520  212.5480  146.6790 C   0  0  0  0  0  3  0  0  0  0  0  0
  162.4940  213.1870  146.7280 C   0  0  0  0  0  0  0  0  0  0  0  0
  163.1190  211.8210  148.6280 C   0  0  0  0  0  3  0  0  0  0  0  0
  161.8790  211.1650  148.5690 C   0  0  0  0  0  0  0  0  0  0  0  0
  162.7980  214.1840  145.8100 O   0  0  0  0  0  1  0  0  0  0  0  0
  160.9470  211.5390  147.5970 C   0  0  0  0  0  3  0  0  0  0  0  0
  162.3580  209.2670  152.8830 O   0  0  0  0  0  0  0  0  0  0  0  0
  161.1260  209.7320  153.3590 C   0  0  0  0  0  2  0  0  0  0  0  0
  161.2880  210.9730  154.2380 C   0  0  1  0  0  3  0  0  0  0  0  0
  160.4340  212.1280  153.7240 C   0  0  0  0  0  2  0  0  0  0  0  0
  159.5320  211.6780  152.5770 C   0  0  0  0  0  3  0  0  0  0  0  0
  159.1240  213.9750  151.5910 C   0  0  0  0  0  2  0  0  0  0  0  0
  157.4910  213.0240  153.2270 C   0  0  0  0  0  2  0  0  0  0  0  0
  157.6530  213.8700  151.9670 C   0  0  0  0  0  2  0  0  0  0  0  0
  158.0580  211.6230  152.9970 C   0  0  0  0  0  2  0  0  0  0  0  0
  159.7130  212.5840  151.3540 C   0  0  0  0  0  2  0  0  0  0  0  0
  161.0040  210.6810  155.7190 C   0  0  1  0  0  3  0  0  0  0  0  0
  162.1620  209.9990  156.4650 C   0  0  0  0  0  2  0  0  0  0  0  0
  161.7900  208.6540  157.0030 C   0  0  0  0  0  3  0  0  0  0  0  0
  160.6530  208.1430  156.7190 N   0  0  0  0  0  0  0  0  0  0  0  0
  160.2950  206.8570  157.2500 C   0  0  0  0  0  1  0  0  0  0  0  0
  160.4480  211.9050  156.4460 C   0  0  0  0  0  2  0  0  0  0  0  0
  157.9950  212.2760  156.7360 C   0  0  0  0  0  1  0  0  0  0  0  0
  159.2160  211.5410  157.2600 C   0  0  0  0  0  2  0  0  0  0  0  0
  1  5  1  0  0  0  0
  1  6  1  0  0  0  0
  2  3  1  0  0  0  0
  3 26  1  0  0  0  0
  5 23  1  6  0  0  0
  5  2  1  0  0  0  0
  6  9  1  6  0  0  0
  6  7  1  0  0  0  0
  7  3  1  0  0  0  0
  7  4  2  0  0  0  0
  8 11  1  0  0  0  0
  9 16  1  0  0  0  0
 10 13  1  0  0  0  0
 11 15  2  0  0  0  0
 12  8  1  0  0  0  0
 13 16  2  0  0  0  0
 13 15  1  0  0  0  0
 14 10  1  0  0  0  0
 14  8  2  0  0  0  0
 17  9  2  0  0  0  0
 18 17  1  0  0  0  0
 18 10  2  0  0  0  0
 19 22  1  0  0  0  0
 20 21  1  0  0  0  0
 20 25  2  0  0  0  0
 21 19  2  0  0  0  0
 23 22  2  0  0  0  0
 24 21  1  0  0  0  0
 25 23  1  0  0  0  0
 26 27  1  0  0  0  0
 28 27  1  6  0  0  0
 28 36  1  0  0  0  0
 29 28  1  0  0  0  0
 30 34  1  0  0  0  0
 30 29  1  0  0  0  0
 31 33  1  0  0  0  0
 33 32  1  0  0  0  0
 34 32  1  0  0  0  0
 35 31  1  0  0  0  0
 35 30  1  0  0  0  0
 36 41  1  1  0  0  0
 36 37  1  0  0  0  0
 37 38  1  0  0  0  0
 39 38  2  0  0  0  0
 39 40  1  0  0  0  0
 41 43  1  0  0  0  0
 42 43  1  0  0  0  0
M  END
>  <MODEL>
2

>  <REMARK>
 VINA RESULT:      -6.8      1.098      2.093
  Name = 
  12 active torsions:
  status: ('A' for Active; 'I' for Inactive)
    1  A    between atoms: O_2  and  C_6
    2  A    between atoms: O_2  and  N_13
    3  A    between atoms: C_3  and  C_4
    4  A    between atoms: C_4  and  C_22
    5  A    between atoms: C_6  and  C_41
    6  A    between atoms: C_8  and  C_34
    7  A    between atoms: C_11  and  C_14
    8  A    between atoms: C_14  and  C_41
    9  A    between atoms: C_15  and  C_22
   10  A    between atoms: C_15  and  C_42
   11  A    between atoms: C_22  and  C_41
   12  A    between atoms: C_28  and  C_35
                            x       y       z     vdW  Elec       q    Type
                         _______ _______ _______ _____ _____    ______ ____

>  <TORSDO>
F 12

$$$$
=
 OpenBabel11062410223D

 43 47  0  0  1  0  0  0  0  0999 V2000
  161.1900  208.8200  149.4420 C   0  0  0  0  0  2  0  0  0  0  0  0
  162.5660  209.7900  151.2440 C   0  0  0  0  0  2  0  0  0  0  0  0
  162.0650  208.8150  152.2040 N   0  0  0  0  0  0  0  0  0  0  0  0
  160.8320  206.8760  152.6000 O   0  0  0  0  0  0  0  0  0  0  0  0
  161.4810  210.0950  150.2260 C   0  0  1  0  0  3  0  0  0  0  0  0
  160.6780  207.6900  150.3550 C   0  0  2  0  0  3  0  0  0  0  0  0
  161.2160  207.7380  151.7690 C   0  0  0  0  0  0  0  0  0  0  0  0
  161.2870  201.5010  148.4900 C   0  0  0  0  0  0  0  0  0  0  0  0
  160.9190  206.3550  149.7230 C   0  0  0  0  0  0  0  0  0  0  0  0
  161.3390  203.9190  148.4590 C   0  0  0  0  0  0  0  0  0  0  0  0
  160.8160  201.5230  149.8080 C   0  0  0  0  0  3  0  0  0  0  0  0
  161.4850  200.3200  147.8630 F   0  0  0  0  0  0  0  0  0  0  0  0
  160.8620  203.9400  149.7880 C   0  0  0  0  0  0  0  0  0  0  0  0
  161.5480  202.6970  147.8140 C   0  0  0  0  0  3  0  0  0  0  0  0
  160.6030  202.7430  150.4570 C   0  0  0  0  0  3  0  0  0  0  0  0
  160.6500  205.1650  150.4130 C   0  0  0  0  0  3  0  0  0  0  0  0
  161.3930  206.2890  148.4100 C   0  0  0  0  0  3  0  0  0  0  0  0
  161.5950  205.0850  147.8100 N   0  0  0  0  0  0  0  0  0  0  0  0
  163.3220  212.1910  147.6300 C   0  0  0  0  0  3  0  0  0  0  0  0
  161.5250  213.5010  148.5820 C   0  0  0  0  0  3  0  0  0  0  0  0
  162.5970  213.3830  147.6920 C   0  0  0  0  0  0  0  0  0  0  0  0
  162.9700  211.1120  148.4480 C   0  0  0  0  0  3  0  0  0  0  0  0
  161.8830  211.2230  149.3300 C   0  0  0  0  0  0  0  0  0  0  0  0
  162.9430  214.4530  146.8780 O   0  0  0  0  0  1  0  0  0  0  0  0
  161.1700  212.4230  149.3970 C   0  0  0  0  0  3  0  0  0  0  0  0
  162.2420  209.0550  153.5270 O   0  0  0  0  0  0  0  0  0  0  0  0
  162.1390  210.4430  153.6830 C   0  0  0  0  0  2  0  0  0  0  0  0
  161.0090  210.8240  154.6420 C   0  0  1  0  0  3  0  0  0  0  0  0
  159.6880  210.9910  153.8980 C   0  0  0  0  0  2  0  0  0  0  0  0
  159.2880  212.4610  153.8080 C   0  0  0  0  0  3  0  0  0  0  0  0
  158.3710  212.6720  156.1590 C   0  0  0  0  0  2  0  0  0  0  0  0
  156.8200  212.1510  154.2690 C   0  0  0  0  0  2  0  0  0  0  0  0
  156.9770  212.8990  155.5900 C   0  0  0  0  0  2  0  0  0  0  0  0
  157.8640  212.6340  153.2630 C   0  0  0  0  0  2  0  0  0  0  0  0
  159.4340  213.1500  155.1690 C   0  0  0  0  0  2  0  0  0  0  0  0
  160.8740  209.8340  155.8090 C   0  0  1  0  0  3  0  0  0  0  0  0
  161.0980  210.4550  157.1970 C   0  0  0  0  0  2  0  0  0  0  0  0
  162.3280  211.3040  157.2580 C   0  0  0  0  0  3  0  0  0  0  0  0
  163.4840  210.7630  157.1850 N   0  0  0  0  0  0  0  0  0  0  0  0
  164.6620  211.5810  157.2600 C   0  0  0  0  0  1  0  0  0  0  0  0
  159.5930  209.0080  155.7110 C   0  0  0  0  0  2  0  0  0  0  0  0
  160.9010  206.8910  155.9420 C   0  0  0  0  0  1  0  0  0  0  0  0
  159.7300  207.6990  156.4740 C   0  0  0  0  0  2  0  0  0  0  0  0
  1  5  1  0  0  0  0
  1  6  1  0  0  0  0
  2  3  1  0  0  0  0
  3 26  1  0  0  0  0
  5 23  1  6  0  0  0
  5  2  1  0  0  0  0
  6  9  1  6  0  0  0
  6  7  1  0  0  0  0
  7  3  1  0  0  0  0
  7  4  2  0  0  0  0
  8 11  1  0  0  0  0
  9 16  1  0  0  0  0
 10 13  1  0  0  0  0
 11 15  2  0  0  0  0
 12  8  1  0  0  0  0
 13 16  2  0  0  0  0
 13 15  1  0  0  0  0
 14 10  1  0  0  0  0
 14  8  2  0  0  0  0
 17  9  2  0  0  0  0
 18 17  1  0  0  0  0
 18 10  2  0  0  0  0
 19 21  2  0  0  0  0
 19 22  1  0  0  0  0
 20 25  2  0  0  0  0
 21 20  1  0  0  0  0
 22 23  2  0  0  0  0
 23 25  1  0  0  0  0
 24 21  1  0  0  0  0
 26 27  1  0  0  0  0
 28 27  1  6  0  0  0
 28 36  1  0  0  0  0
 29 28  1  0  0  0  0
 30 29  1  0  0  0  0
 30 35  1  0  0  0  0
 32 33  1  0  0  0  0
 33 31  1  0  0  0  0
 34 30  1  0  0  0  0
 34 32  1  0  0  0  0
 35 31  1  0  0  0  0
 36 41  1  1  0  0  0
 36 37  1  0  0  0  0
 37 38  1  0  0  0  0
 39 38  2  0  0  0  0
 39 40  1  0  0  0  0
 41 43  1  0  0  0  0
 42 43  1  0  0  0  0
M  END
>  <MODEL>
3

>  <REMARK>
 VINA RESULT:      -6.7      1.561      2.530
  Name = 
  12 active torsions:
  status: ('A' for Active; 'I' for Inactive)
    1  A    between atoms: O_2  and  C_6
    2  A    between atoms: O_2  and  N_13
    3  A    between atoms: C_3  and  C_4
    4  A    between atoms: C_4  and  C_22
    5  A    between atoms: C_6  and  C_41
    6  A    between atoms: C_8  and  C_34
    7  A    between atoms: C_11  and  C_14
    8  A    between atoms: C_14  and  C_41
    9  A    between atoms: C_15  and  C_22
   10  A    between atoms: C_15  and  C_42
   11  A    between atoms: C_22  and  C_41
   12  A    between atoms: C_28  and  C_35
                            x       y       z     vdW  Elec       q    Type
                         _______ _______ _______ _____ _____    ______ ____

>  <TORSDO>
F 12

$$$$
=
 OpenBabel11062410223D

 43 47  0  0  1  0  0  0  0  0999 V2000
  161.7480  207.9970  151.7340 C   0  0  0  0  0  2  0  0  0  0  0  0
  161.0940  210.2500  150.9710 C   0  0  0  0  0  2  0  0  0  0  0  0
  161.8420  210.0880  149.7310 N   0  0  0  0  0  0  0  0  0  0  0  0
  163.0480  208.6870  148.3110 O   0  0  0  0  0  0  0  0  0  0  0  0
  161.7910  209.4810  152.0800 C   0  0  1  0  0  3  0  0  0  0  0  0
  162.4840  207.6960  150.4140 C   0  0  2  0  0  3  0  0  0  0  0  0
  162.4490  208.8250  149.4080 C   0  0  0  0  0  0  0  0  0  0  0  0
  160.7970  202.4780  146.9370 C   0  0  0  0  0  0  0  0  0  0  0  0
  161.9870  206.4160  149.8170 C   0  0  0  0  0  0  0  0  0  0  0  0
  161.0900  203.9930  148.8000 C   0  0  0  0  0  0  0  0  0  0  0  0
  161.4040  203.4050  146.0810 C   0  0  0  0  0  3  0  0  0  0  0  0
  160.3660  201.2920  146.4530 F   0  0  0  0  0  0  0  0  0  0  0  0
  161.7040  204.9260  147.9350 C   0  0  0  0  0  0  0  0  0  0  0  0
  160.6410  202.7710  148.2960 C   0  0  0  0  0  3  0  0  0  0  0  0
  161.8570  204.6300  146.5800 C   0  0  0  0  0  3  0  0  0  0  0  0
  162.1550  206.1360  148.4540 C   0  0  0  0  0  3  0  0  0  0  0  0
  161.3730  205.4650  150.6370 C   0  0  0  0  0  3  0  0  0  0  0  0
  160.9370  204.2860  150.1170 N   0  0  0  0  0  0  0  0  0  0  0  0
  160.1870  209.0310  155.5080 C   0  0  0  0  0  3  0  0  0  0  0  0
  160.3460  211.3920  155.0080 C   0  0  0  0  0  3  0  0  0  0  0  0
  159.9770  210.3610  155.8760 C   0  0  0  0  0  0  0  0  0  0  0  0
  160.7760  208.7290  154.2750 C   0  0  0  0  0  3  0  0  0  0  0  0
  161.1650  209.7640  153.4090 C   0  0  0  0  0  0  0  0  0  0  0  0
  159.3940  210.6610  157.1010 O   0  0  0  0  0  1  0  0  0  0  0  0
  160.9400  211.0930  153.7780 C   0  0  0  0  0  3  0  0  0  0  0  0
  162.1250  211.1920  148.9950 O   0  0  0  0  0  0  0  0  0  0  0  0
  160.9020  211.6290  148.4710 C   0  0  0  0  0  2  0  0  0  0  0  0
  160.7500  213.1480  148.5720 C   0  0  1  0  0  3  0  0  0  0  0  0
  160.6290  213.7820  147.1890 C   0  0  0  0  0  2  0  0  0  0  0  0
  160.6610  212.7220  146.0920 C   0  0  0  0  0  3  0  0  0  0  0  0
  161.0560  214.3010  144.1530 C   0  0  0  0  0  2  0  0  0  0  0  0
  158.7250  213.6110  144.7290 C   0  0  0  0  0  2  0  0  0  0  0  0
  159.6850  213.9500  143.5920 C   0  0  0  0  0  2  0  0  0  0  0  0
  159.2610  212.4300  145.5380 C   0  0  0  0  0  2  0  0  0  0  0  0
  161.6150  213.1320  144.9650 C   0  0  0  0  0  2  0  0  0  0  0  0
  159.5840  213.5600  149.4820 C   0  0  1  0  0  3  0  0  0  0  0  0
  159.9990  214.3770  150.7150 C   0  0  0  0  0  2  0  0  0  0  0  0
  158.9210  214.4530  151.7490 C   0  0  0  0  0  3  0  0  0  0  0  0
  158.5620  213.4000  152.3790 N   0  0  0  0  0  0  0  0  0  0  0  0
  157.5160  213.4750  153.3590 C   0  0  0  0  0  1  0  0  0  0  0  0
  158.4380  214.1900  148.6920 C   0  0  0  0  0  2  0  0  0  0  0  0
  156.1050  213.7840  149.4900 C   0  0  0  0  0  1  0  0  0  0  0  0
  157.2400  213.2540  148.6310 C   0  0  0  0  0  2  0  0  0  0  0  0
  1  5  1  0  0  0  0
  2  5  1  0  0  0  0
  3  2  1  0  0  0  0
  4  7  2  0  0  0  0
  5 23  1  1  0  0  0
  6  9  1  6  0  0  0
  6  1  1  0  0  0  0
  7  3  1  0  0  0  0
  7  6  1  0  0  0  0
  8 14  1  0  0  0  0
  9 17  1  0  0  0  0
 10 18  1  0  0  0  0
 11 15  1  0  0  0  0
 11  8  2  0  0  0  0
 12  8  1  0  0  0  0
 13 16  1  0  0  0  0
 13 10  1  0  0  0  0
 14 10  2  0  0  0  0
 15 13  2  0  0  0  0
 16  9  2  0  0  0  0
 18 17  2  0  0  0  0
 19 21  1  0  0  0  0
 20 21  2  0  0  0  0
 21 24  1  0  0  0  0
 22 19  2  0  0  0  0
 23 25  2  0  0  0  0
 23 22  1  0  0  0  0
 25 20  1  0  0  0  0
 26  3  1  0  0  0  0
 27 28  1  0  0  0  0
 27 26  1  0  0  0  0
 28 29  1  6  0  0  0
 28 36  1  0  0  0  0
 30 29  1  0  0  0  0
 31 35  1  0  0  0  0
 32 34  1  0  0  0  0
 33 31  1  0  0  0  0
 33 32  1  0  0  0  0
 34 30  1  0  0  0  0
 35 30  1  0  0  0  0
 36 41  1  6  0  0  0
 36 37  1  0  0  0  0
 37 38  1  0  0  0  0
 38 39  2  0  0  0  0
 39 40  1  0  0  0  0
 43 41  1  0  0  0  0
 43 42  1  0  0  0  0
M  END
>  <MODEL>
4

>  <REMARK>
 VINA RESULT:      -6.6      2.165      5.897
  Name = 
  12 active torsions:
  status: ('A' for Active; 'I' for Inactive)
    1  A    between atoms: O_2  and  C_6
    2  A    between atoms: O_2  and  N_13
    3  A    between atoms: C_3  and  C_4
    4  A    between atoms: C_4  and  C_22
    5  A    between atoms: C_6  and  C_41
    6  A    between atoms: C_8  and  C_34
    7  A    between atoms: C_11  and  C_14
    8  A    between atoms: C_14  and  C_41
    9  A    between atoms: C_15  and  C_22
   10  A    between atoms: C_15  and  C_42
   11  A    between atoms: C_22  and  C_41
   12  A    between atoms: C_28  and  C_35
                            x       y       z     vdW  Elec       q    Type
                         _______ _______ _______ _____ _____    ______ ____

>  <TORSDO>
F 12

$$$$
=
 OpenBabel11062410223D

 43 47  0  0  1  0  0  0  0  0999 V2000
  161.9270  207.0480  150.7600 C   0  0  0  0  0  2  0  0  0  0  0  0
  161.2050  209.3960  150.9810 C   0  0  0  0  0  2  0  0  0  0  0  0
  161.9230  209.7710  149.7700 N   0  0  0  0  0  0  0  0  0  0  0  0
  163.1210  209.0980  147.8860 O   0  0  0  0  0  0  0  0  0  0  0  0
  161.9470  208.2680  151.6740 C   0  0  1  0  0  3  0  0  0  0  0  0
  162.6340  207.3270  149.4190 C   0  0  2  0  0  3  0  0  0  0  0  0
  162.5480  208.7640  148.9550 C   0  0  0  0  0  0  0  0  0  0  0  0
  160.5230  202.5070  145.6150 C   0  0  0  0  0  0  0  0  0  0  0  0
  162.1490  206.3820  148.3640 C   0  0  0  0  0  0  0  0  0  0  0  0
  161.1900  204.7060  146.3690 C   0  0  0  0  0  0  0  0  0  0  0  0
  160.8300  201.9770  146.8740 C   0  0  0  0  0  3  0  0  0  0  0  0
  160.0470  201.7010  144.6400 F   0  0  0  0  0  0  0  0  0  0  0  0
  161.4960  204.1710  147.6390 C   0  0  0  0  0  0  0  0  0  0  0  0
  160.7020  203.8710  145.3610 C   0  0  0  0  0  3  0  0  0  0  0  0
  161.3160  202.8090  147.8860 C   0  0  0  0  0  3  0  0  0  0  0  0
  161.9720  205.0180  148.6350 C   0  0  0  0  0  3  0  0  0  0  0  0
  161.8350  206.8700  147.0920 C   0  0  0  0  0  3  0  0  0  0  0  0
  161.3700  206.0310  146.1280 N   0  0  0  0  0  0  0  0  0  0  0  0
  160.4470  208.6830  155.1540 C   0  0  0  0  0  3  0  0  0  0  0  0
  160.6200  206.3260  154.6370 C   0  0  0  0  0  3  0  0  0  0  0  0
  160.2540  207.3480  155.5170 C   0  0  0  0  0  0  0  0  0  0  0  0
  160.9980  208.9970  153.9060 C   0  0  0  0  0  3  0  0  0  0  0  0
  161.3500  207.9720  153.0140 C   0  0  0  0  0  0  0  0  0  0  0  0
  159.7050  207.0350  156.7540 O   0  0  0  0  0  1  0  0  0  0  0  0
  161.1660  206.6380  153.3890 C   0  0  0  0  0  3  0  0  0  0  0  0
  162.1630  211.0860  149.5370 O   0  0  0  0  0  0  0  0  0  0  0  0
  161.0020  211.5890  148.9370 C   0  0  0  0  0  2  0  0  0  0  0  0
  160.9220  213.1130  149.0430 C   0  0  1  0  0  3  0  0  0  0  0  0
  161.1720  213.7730  147.6900 C   0  0  0  0  0  2  0  0  0  0  0  0
  161.4060  212.7280  146.6020 C   0  0  0  0  0  3  0  0  0  0  0  0
  162.3810  214.3010  144.8740 C   0  0  0  0  0  2  0  0  0  0  0  0
  159.9380  213.7770  144.8290 C   0  0  0  0  0  2  0  0  0  0  0  0
  161.1730  214.0600  143.9790 C   0  0  0  0  0  2  0  0  0  0  0  0
  160.1720  212.5490  145.7080 C   0  0  0  0  0  2  0  0  0  0  0  0
  162.6370  213.0820  145.7620 C   0  0  0  0  0  2  0  0  0  0  0  0
  159.5980  213.5860  149.6620 C   0  0  1  0  0  3  0  0  0  0  0  0
  159.7500  214.3070  151.0110 C   0  0  0  0  0  2  0  0  0  0  0  0
  159.3320  213.4580  152.1690 C   0  0  0  0  0  3  0  0  0  0  0  0
  158.9260  212.2610  151.9730 N   0  0  0  0  0  0  0  0  0  0  0  0
  158.5120  211.4560  153.0870 C   0  0  0  0  0  1  0  0  0  0  0  0
  158.7390  214.3520  148.6560 C   0  0  0  0  0  2  0  0  0  0  0  0
  157.2130  212.5780  147.7800 C   0  0  0  0  0  1  0  0  0  0  0  0
  157.3130  213.8230  148.6440 C   0  0  0  0  0  2  0  0  0  0  0  0
  1  5  1  0  0  0  0
  2  5  1  0  0  0  0
  3  2  1  0  0  0  0
  4  7  2  0  0  0  0
  5 23  1  1  0  0  0
  6  9  1  6  0  0  0
  6  1  1  0  0  0  0
  7  6  1  0  0  0  0
  7  3  1  0  0  0  0
  8 11  1  0  0  0  0
  9 16  1  0  0  0  0
 10 13  1  0  0  0  0
 11 15  2  0  0  0  0
 12  8  1  0  0  0  0
 13 15  1  0  0  0  0
 13 16  2  0  0  0  0
 14  8  2  0  0  0  0
 14 10  1  0  0  0  0
 17  9  2  0  0  0  0
 18 10  2  0  0  0  0
 18 17  1  0  0  0  0
 19 21  1  0  0  0  0
 20 21  2  0  0  0  0
 21 24  1  0  0  0  0
 22 19  2  0  0  0  0
 23 25  2  0  0  0  0
 23 22  1  0  0  0  0
 25 20  1  0  0  0  0
 26  3  1  0  0  0  0
 27 28  1  0  0  0  0
 27 26  1  0  0  0  0
 28 29  1  6  0  0  0
 28 36  1  0  0  0  0
 30 29  1  0  0  0  0
 31 35  1  0  0  0  0
 32 34  1  0  0  0  0
 33 32  1  0  0  0  0
 33 31  1  0  0  0  0
 34 30  1  0  0  0  0
 35 30  1  0  0  0  0
 36 41  1  6  0  0  0
 36 37  1  0  0  0  0
 37 38  1  0  0  0  0
 39 38  2  0  0  0  0
 39 40  1  0  0  0  0
 42 43  1  0  0  0  0
 43 41  1  0  0  0  0
M  END
>  <MODEL>
5

>  <REMARK>
 VINA RESULT:      -6.6      2.290      6.030
  Name = 
  12 active torsions:
  status: ('A' for Active; 'I' for Inactive)
    1  A    between atoms: O_2  and  C_6
    2  A    between atoms: O_2  and  N_13
    3  A    between atoms: C_3  and  C_4
    4  A    between atoms: C_4  and  C_22
    5  A    between atoms: C_6  and  C_41
    6  A    between atoms: C_8  and  C_34
    7  A    between atoms: C_11  and  C_14
    8  A    between atoms: C_14  and  C_41
    9  A    between atoms: C_15  and  C_22
   10  A    between atoms: C_15  and  C_42
   11  A    between atoms: C_22  and  C_41
   12  A    between atoms: C_28  and  C_35
                            x       y       z     vdW  Elec       q    Type
                         _______ _______ _______ _____ _____    ______ ____

>  <TORSDO>
F 12

$$$$
=
 OpenBabel11062410223D

 43 47  0  0  1  0  0  0  0  0999 V2000
  161.2750  208.8110  148.6120 C   0  0  0  0  0  2  0  0  0  0  0  0
  162.6750  209.9140  150.3160 C   0  0  0  0  0  2  0  0  0  0  0  0
  162.2240  208.9850  151.3440 N   0  0  0  0  0  0  0  0  0  0  0  0
  161.0500  207.0450  151.8850 O   0  0  0  0  0  0  0  0  0  0  0  0
  161.5570  210.1350  149.3140 C   0  0  1  0  0  3  0  0  0  0  0  0
  160.8150  207.7250  149.6030 C   0  0  2  0  0  3  0  0  0  0  0  0
  161.3900  207.8660  150.9950 C   0  0  0  0  0  0  0  0  0  0  0  0
  161.3510  201.4600  147.9850 C   0  0  0  0  0  0  0  0  0  0  0  0
  161.0700  206.3610  149.0420 C   0  0  0  0  0  0  0  0  0  0  0  0
  161.5320  203.8700  147.9040 C   0  0  0  0  0  0  0  0  0  0  0  0
  160.7060  201.5450  149.2250 C   0  0  0  0  0  3  0  0  0  0  0  0
  161.5710  200.2520  147.4190 F   0  0  0  0  0  0  0  0  0  0  0  0
  160.8800  203.9540  149.1540 C   0  0  0  0  0  0  0  0  0  0  0  0
  161.7630  202.6210  147.3240 C   0  0  0  0  0  3  0  0  0  0  0  0
  160.4710  202.7920  149.8100 C   0  0  0  0  0  3  0  0  0  0  0  0
  160.6480  205.2060  149.7160 C   0  0  0  0  0  3  0  0  0  0  0  0
  161.7140  206.2320  147.8070 C   0  0  0  0  0  3  0  0  0  0  0  0
  161.9330  205.0020  147.2700 N   0  0  0  0  0  0  0  0  0  0  0  0
  163.4980  212.7600  147.3470 C   0  0  0  0  0  3  0  0  0  0  0  0
  161.1940  212.7550  146.6090 C   0  0  0  0  0  3  0  0  0  0  0  0
  162.4930  213.2620  146.5170 C   0  0  0  0  0  0  0  0  0  0  0  0
  163.2080  211.7420  148.2620 C   0  0  0  0  0  3  0  0  0  0  0  0
  161.9070  211.2180  148.3440 C   0  0  0  0  0  0  0  0  0  0  0  0
  162.7810  214.2710  145.6060 O   0  0  0  0  0  1  0  0  0  0  0  0
  160.9040  211.7350  147.5200 C   0  0  0  0  0  3  0  0  0  0  0  0
  162.4320  209.3050  152.6460 O   0  0  0  0  0  0  0  0  0  0  0  0
  161.9230  210.6000  152.8090 C   0  0  0  0  0  2  0  0  0  0  0  0
  160.5610  210.5910  153.5060 C   0  0  1  0  0  3  0  0  0  0  0  0
  160.7000  210.9210  154.9890 C   0  0  0  0  0  2  0  0  0  0  0  0
  159.9150  209.9350  155.8490 C   0  0  0  0  0  3  0  0  0  0  0  0
  161.8620  209.1410  157.2600 C   0  0  0  0  0  2  0  0  0  0  0  0
  161.2090  207.8550  155.2180 C   0  0  0  0  0  2  0  0  0  0  0  0
  161.7340  207.7530  156.6470 C   0  0  0  0  0  2  0  0  0  0  0  0
  159.8450  208.5440  155.2050 C   0  0  0  0  0  2  0  0  0  0  0  0
  160.5070  209.8490  157.2600 C   0  0  0  0  0  2  0  0  0  0  0  0
  159.5470  211.5180  152.8180 C   0  0  1  0  0  3  0  0  0  0  0  0
  158.6120  212.2630  153.7830 C   0  0  0  0  0  2  0  0  0  0  0  0
  157.3190  211.5450  154.0050 C   0  0  0  0  0  3  0  0  0  0  0  0
  156.8000  211.5070  155.1720 N   0  0  0  0  0  0  0  0  0  0  0  0
  155.5660  210.8030  155.3830 C   0  0  0  0  0  1  0  0  0  0  0  0
  160.2140  212.4300  151.7900 C   0  0  0  0  0  2  0  0  0  0  0  0
  158.7020  213.3970  150.0520 C   0  0  0  0  0  1  0  0  0  0  0  0
  159.3090  213.5980  151.4290 C   0  0  0  0  0  2  0  0  0  0  0  0
  1  5  1  0  0  0  0
  1  6  1  0  0  0  0
  2  3  1  0  0  0  0
  3 26  1  0  0  0  0
  5 23  1  6  0  0  0
  5  2  1  0  0  0  0
  6  9  1  6  0  0  0
  6  7  1  0  0  0  0
  7  3  1  0  0  0  0
  7  4  2  0  0  0  0
  8 11  1  0  0  0  0
  9 16  1  0  0  0  0
 10 13  1  0  0  0  0
 11 15  2  0  0  0  0
 12  8  1  0  0  0  0
 13 16  2  0  0  0  0
 13 15  1  0  0  0  0
 14 10  1  0  0  0  0
 14  8  2  0  0  0  0
 17  9  2  0  0  0  0
 18 17  1  0  0  0  0
 18 10  2  0  0  0  0
 19 22  1  0  0  0  0
 20 25  2  0  0  0  0
 21 20  1  0  0  0  0
 21 19  2  0  0  0  0
 22 23  2  0  0  0  0
 24 21  1  0  0  0  0
 25 23  1  0  0  0  0
 26 27  1  0  0  0  0
 28 27  1  6  0  0  0
 28 29  1  0  0  0  0
 29 30  1  0  0  0  0
 30 35  1  0  0  0  0
 31 35  1  0  0  0  0
 32 33  1  0  0  0  0
 33 31  1  0  0  0  0
 34 32  1  0  0  0  0
 34 30  1  0  0  0  0
 36 41  1  1  0  0  0
 36 28  1  0  0  0  0
 36 37  1  0  0  0  0
 37 38  1  0  0  0  0
 38 39  2  0  0  0  0
 39 40  1  0  0  0  0
 42 43  1  0  0  0  0
 43 41  1  0  0  0  0
M  END
>  <MODEL>
6

>  <REMARK>
 VINA RESULT:      -6.6      0.844      3.373
  Name = 
  12 active torsions:
  status: ('A' for Active; 'I' for Inactive)
    1  A    between atoms: O_2  and  C_6
    2  A    between atoms: O_2  and  N_13
    3  A    between atoms: C_3  and  C_4
    4  A    between atoms: C_4  and  C_22
    5  A    between atoms: C_6  and  C_41
    6  A    between atoms: C_8  and  C_34
    7  A    between atoms: C_11  and  C_14
    8  A    between atoms: C_14  and  C_41
    9  A    between atoms: C_15  and  C_22
   10  A    between atoms: C_15  and  C_42
   11  A    between atoms: C_22  and  C_41
   12  A    between atoms: C_28  and  C_35
                            x       y       z     vdW  Elec       q    Type
                         _______ _______ _______ _____ _____    ______ ____

>  <TORSDO>
F 12

$$$$
=
 OpenBabel11062410223D

 43 47  0  0  1  0  0  0  0  0999 V2000
  161.5270  208.4980  152.2160 C   0  0  0  0  0  2  0  0  0  0  0  0
  160.9030  210.6490  151.1830 C   0  0  0  0  0  2  0  0  0  0  0  0
  161.7050  210.3580  150.0020 N   0  0  0  0  0  0  0  0  0  0  0  0
  162.9760  208.8180  148.7980 O   0  0  0  0  0  0  0  0  0  0  0  0
  161.5510  210.0110  152.3980 C   0  0  1  0  0  3  0  0  0  0  0  0
  162.3210  208.0590  150.9700 C   0  0  2  0  0  3  0  0  0  0  0  0
  162.3280  209.0710  149.8460 C   0  0  0  0  0  0  0  0  0  0  0  0
  160.4750  201.9260  149.9030 C   0  0  0  0  0  0  0  0  0  0  0  0
  161.8530  206.7180  150.4960 C   0  0  0  0  0  0  0  0  0  0  0  0
  160.9130  204.2800  149.5580 C   0  0  0  0  0  0  0  0  0  0  0  0
  160.9920  202.0150  151.2010 C   0  0  0  0  0  3  0  0  0  0  0  0
  160.0060  200.7460  149.4410 F   0  0  0  0  0  0  0  0  0  0  0  0
  161.4330  204.3680  150.8680 C   0  0  0  0  0  0  0  0  0  0  0  0
  160.4340  203.0580  149.0820 C   0  0  0  0  0  3  0  0  0  0  0  0
  161.4720  203.2360  151.6840 C   0  0  0  0  0  3  0  0  0  0  0  0
  161.8980  205.5950  151.3330 C   0  0  0  0  0  3  0  0  0  0  0  0
  161.3330  206.5870  149.2050 C   0  0  0  0  0  3  0  0  0  0  0  0
  160.8810  205.3820  148.7650 N   0  0  0  0  0  0  0  0  0  0  0  0
  159.7640  212.1050  155.0350 C   0  0  0  0  0  3  0  0  0  0  0  0
  160.0920  209.8630  155.8850 C   0  0  0  0  0  3  0  0  0  0  0  0
  159.6080  211.1640  156.0550 C   0  0  0  0  0  0  0  0  0  0  0  0
  160.3950  211.7440  153.8390 C   0  0  0  0  0  3  0  0  0  0  0  0
  160.8660  210.4330  153.6590 C   0  0  0  0  0  0  0  0  0  0  0  0
  158.9800  211.5200  157.2420 O   0  0  0  0  0  1  0  0  0  0  0  0
  160.7180  209.5000  154.6890 C   0  0  0  0  0  3  0  0  0  0  0  0
  162.0180  211.3770  149.1620 O   0  0  0  0  0  0  0  0  0  0  0  0
  160.8180  211.7470  148.5410 C   0  0  0  0  0  2  0  0  0  0  0  0
  160.5990  213.2600  148.5840 C   0  0  1  0  0  3  0  0  0  0  0  0
  160.9010  213.8980  147.2320 C   0  0  0  0  0  2  0  0  0  0  0  0
  161.3050  212.8460  146.2030 C   0  0  0  0  0  3  0  0  0  0  0  0
  162.1260  214.4530  144.4280 C   0  0  0  0  0  2  0  0  0  0  0  0
  159.7750  213.6120  144.3410 C   0  0  0  0  0  2  0  0  0  0  0  0
  160.9910  214.0160  143.5120 C   0  0  0  0  0  2  0  0  0  0  0  0
  160.1370  212.4660  145.2850 C   0  0  0  0  0  2  0  0  0  0  0  0
  162.5080  213.3200  145.3810 C   0  0  0  0  0  2  0  0  0  0  0  0
  159.1940  213.6330  149.0800 C   0  0  1  0  0  3  0  0  0  0  0  0
  159.1760  214.4530  150.3790 C   0  0  0  0  0  2  0  0  0  0  0  0
  157.9020  214.2920  151.1470 C   0  0  0  0  0  3  0  0  0  0  0  0
  157.9230  213.8000  152.3270 N   0  0  0  0  0  0  0  0  0  0  0  0
  156.6960  213.6330  153.0530 C   0  0  0  0  0  1  0  0  0  0  0  0
  158.3380  214.2360  147.9670 C   0  0  0  0  0  2  0  0  0  0  0  0
  156.7500  213.4000  146.2280 C   0  0  0  0  0  1  0  0  0  0  0  0
  157.1060  213.3830  147.7040 C   0  0  0  0  0  2  0  0  0  0  0  0
  1  5  1  0  0  0  0
  2  5  1  0  0  0  0
  3  2  1  0  0  0  0
  4  7  2  0  0  0  0
  5 23  1  1  0  0  0
  6  9  1  6  0  0  0
  6  1  1  0  0  0  0
  7  3  1  0  0  0  0
  7  6  1  0  0  0  0
  8 11  1  0  0  0  0
  9 16  1  0  0  0  0
 10 13  1  0  0  0  0
 11 15  2  0  0  0  0
 12  8  1  0  0  0  0
 13 16  2  0  0  0  0
 13 15  1  0  0  0  0
 14 10  1  0  0  0  0
 14  8  2  0  0  0  0
 17  9  2  0  0  0  0
 18 17  1  0  0  0  0
 18 10  2  0  0  0  0
 19 21  1  0  0  0  0
 20 21  2  0  0  0  0
 21 24  1  0  0  0  0
 22 19  2  0  0  0  0
 23 22  1  0  0  0  0
 23 25  2  0  0  0  0
 25 20  1  0  0  0  0
 26  3  1  0  0  0  0
 27 28  1  0  0  0  0
 27 26  1  0  0  0  0
 28 29  1  6  0  0  0
 28 36  1  0  0  0  0
 30 29  1  0  0  0  0
 31 35  1  0  0  0  0
 32 34  1  0  0  0  0
 33 32  1  0  0  0  0
 33 31  1  0  0  0  0
 34 30  1  0  0  0  0
 35 30  1  0  0  0  0
 36 41  1  6  0  0  0
 36 37  1  0  0  0  0
 37 38  1  0  0  0  0
 38 39  2  0  0  0  0
 39 40  1  0  0  0  0
 42 43  1  0  0  0  0
 43 41  1  0  0  0  0
M  END
>  <MODEL>
7

>  <REMARK>
 VINA RESULT:      -6.5      2.210      6.074
  Name = 
  12 active torsions:
  status: ('A' for Active; 'I' for Inactive)
    1  A    between atoms: O_2  and  C_6
    2  A    between atoms: O_2  and  N_13
    3  A    between atoms: C_3  and  C_4
    4  A    between atoms: C_4  and  C_22
    5  A    between atoms: C_6  and  C_41
    6  A    between atoms: C_8  and  C_34
    7  A    between atoms: C_11  and  C_14
    8  A    between atoms: C_14  and  C_41
    9  A    between atoms: C_15  and  C_22
   10  A    between atoms: C_15  and  C_42
   11  A    between atoms: C_22  and  C_41
   12  A    between atoms: C_28  and  C_35
                            x       y       z     vdW  Elec       q    Type
                         _______ _______ _______ _____ _____    ______ ____

>  <TORSDO>
F 12

$$$$
=
 OpenBabel11062410223D

 43 47  0  0  1  0  0  0  0  0999 V2000
  161.2120  208.6200  148.5590 C   0  0  0  0  0  2  0  0  0  0  0  0
  162.6450  209.6900  150.2570 C   0  0  0  0  0  2  0  0  0  0  0  0
  162.2230  208.7340  151.2720 N   0  0  0  0  0  0  0  0  0  0  0  0
  161.0720  206.7740  151.7930 O   0  0  0  0  0  0  0  0  0  0  0  0
  161.5030  209.9280  149.2860 C   0  0  1  0  0  3  0  0  0  0  0  0
  160.7810  207.5070  149.5340 C   0  0  2  0  0  3  0  0  0  0  0  0
  161.3870  207.6190  150.9160 C   0  0  0  0  0  0  0  0  0  0  0  0
  161.3690  201.2810  147.7880 C   0  0  0  0  0  0  0  0  0  0  0  0
  161.0310  206.1580  148.9350 C   0  0  0  0  0  0  0  0  0  0  0  0
  161.4730  203.6970  147.7280 C   0  0  0  0  0  0  0  0  0  0  0  0
  160.8220  201.3320  149.0750 C   0  0  0  0  0  3  0  0  0  0  0  0
  161.5800  200.0880  147.1880 F   0  0  0  0  0  0  0  0  0  0  0  0
  160.9200  203.7460  149.0270 C   0  0  0  0  0  0  0  0  0  0  0  0
  161.6940  202.4630  147.1130 C   0  0  0  0  0  3  0  0  0  0  0  0
  160.5980  202.5640  149.6950 C   0  0  0  0  0  3  0  0  0  0  0  0
  160.6970  204.9840  149.6230 C   0  0  0  0  0  3  0  0  0  0  0  0
  161.5790  206.0650  147.6520 C   0  0  0  0  0  3  0  0  0  0  0  0
  161.7910  204.8490  147.0810 N   0  0  0  0  0  0  0  0  0  0  0  0
  161.1960  212.5990  146.5840 C   0  0  0  0  0  3  0  0  0  0  0  0
  163.4690  212.5610  147.4120 C   0  0  0  0  0  3  0  0  0  0  0  0
  162.4990  213.0990  146.5610 C   0  0  0  0  0  0  0  0  0  0  0  0
  160.8570  211.5670  147.4660 C   0  0  0  0  0  3  0  0  0  0  0  0
  161.8250  211.0360  148.3340 C   0  0  0  0  0  0  0  0  0  0  0  0
  162.8360  214.1260  145.6880 O   0  0  0  0  0  1  0  0  0  0  0  0
  163.1310  211.5330  148.2960 C   0  0  0  0  0  3  0  0  0  0  0  0
  162.4590  209.0240  152.5760 O   0  0  0  0  0  0  0  0  0  0  0  0
  161.9880  210.3290  152.7710 C   0  0  0  0  0  2  0  0  0  0  0  0
  160.4660  210.3660  152.9210 C   0  0  1  0  0  3  0  0  0  0  0  0
  160.0110  209.5410  154.1210 C   0  0  0  0  0  2  0  0  0  0  0  0
  161.2050  208.9990  154.9020 C   0  0  0  0  0  3  0  0  0  0  0  0
  160.0510  206.9490  155.8400 C   0  0  0  0  0  2  0  0  0  0  0  0
  160.1370  209.0470  157.1950 C   0  0  0  0  0  2  0  0  0  0  0  0
  160.1820  207.5230  157.2440 C   0  0  0  0  0  2  0  0  0  0  0  0
  161.2720  209.5800  156.3200 C   0  0  0  0  0  2  0  0  0  0  0  0
  161.1780  207.4670  154.9460 C   0  0  0  0  0  2  0  0  0  0  0  0
  159.9210  211.8010  152.9880 C   0  0  1  0  0  3  0  0  0  0  0  0
  159.9820  212.5660  151.6560 C   0  0  0  0  0  2  0  0  0  0  0  0
  158.7970  213.4530  151.4450 C   0  0  0  0  0  3  0  0  0  0  0  0
  158.0640  213.3050  150.4070 N   0  0  0  0  0  0  0  0  0  0  0  0
  156.9350  214.1700  150.2010 C   0  0  0  0  0  1  0  0  0  0  0  0
  158.5510  211.8600  153.6620 C   0  0  0  0  0  2  0  0  0  0  0  0
  158.5280  212.2350  156.1320 C   0  0  0  0  0  1  0  0  0  0  0  0
  158.5340  212.9040  154.7690 C   0  0  0  0  0  2  0  0  0  0  0  0
  1  5  1  0  0  0  0
  1  6  1  0  0  0  0
  2  3  1  0  0  0  0
  3 26  1  0  0  0  0
  5 23  1  6  0  0  0
  5  2  1  0  0  0  0
  6  9  1  6  0  0  0
  6  7  1  0  0  0  0
  7  3  1  0  0  0  0
  7  4  2  0  0  0  0
  8 11  1  0  0  0  0
  9 16  1  0  0  0  0
 10 13  1  0  0  0  0
 11 15  2  0  0  0  0
 12  8  1  0  0  0  0
 13 16  2  0  0  0  0
 13 15  1  0  0  0  0
 14 10  1  0  0  0  0
 14  8  2  0  0  0  0
 17  9  2  0  0  0  0
 18 17  1  0  0  0  0
 18 10  2  0  0  0  0
 19 22  1  0  0  0  0
 20 25  2  0  0  0  0
 21 19  2  0  0  0  0
 21 20  1  0  0  0  0
 22 23  2  0  0  0  0
 24 21  1  0  0  0  0
 25 23  1  0  0  0  0
 26 27  1  0  0  0  0
 28 27  1  1  0  0  0
 28 36  1  0  0  0  0
 28 29  1  0  0  0  0
 29 30  1  0  0  0  0
 30 35  1  0  0  0  0
 30 34  1  0  0  0  0
 31 33  1  0  0  0  0
 32 33  1  0  0  0  0
 34 32  1  0  0  0  0
 35 31  1  0  0  0  0
 36 37  1  6  0  0  0
 36 41  1  0  0  0  0
 38 37  1  0  0  0  0
 39 38  2  0  0  0  0
 40 39  1  0  0  0  0
 41 43  1  0  0  0  0
 43 42  1  0  0  0  0
M  END
>  <MODEL>
8

>  <REMARK>
 VINA RESULT:      -6.4      1.333      3.575
  Name = 
  12 active torsions:
  status: ('A' for Active; 'I' for Inactive)
    1  A    between atoms: O_2  and  C_6
    2  A    between atoms: O_2  and  N_13
    3  A    between atoms: C_3  and  C_4
    4  A    between atoms: C_4  and  C_22
    5  A    between atoms: C_6  and  C_41
    6  A    between atoms: C_8  and  C_34
    7  A    between atoms: C_11  and  C_14
    8  A    between atoms: C_14  and  C_41
    9  A    between atoms: C_15  and  C_22
   10  A    between atoms: C_15  and  C_42
   11  A    between atoms: C_22  and  C_41
   12  A    between atoms: C_28  and  C_35
                            x       y       z     vdW  Elec       q    Type
                         _______ _______ _______ _____ _____    ______ ____

>  <TORSDO>
F 12

$$$$
=
 OpenBabel11062410223D

 43 47  0  0  1  0  0  0  0  0999 V2000
  161.7200  207.7320  151.4990 C   0  0  0  0  0  2  0  0  0  0  0  0
  161.0900  209.9050  150.5160 C   0  0  0  0  0  2  0  0  0  0  0  0
  161.8550  209.6240  149.3080 N   0  0  0  0  0  0  0  0  0  0  0  0
  163.0750  208.0900  148.0460 O   0  0  0  0  0  0  0  0  0  0  0  0
  161.7660  209.2430  151.7030 C   0  0  1  0  0  3  0  0  0  0  0  0
  162.4740  207.3050  150.2250 C   0  0  2  0  0  3  0  0  0  0  0  0
  162.4600  208.3340  149.1160 C   0  0  0  0  0  0  0  0  0  0  0  0
  160.7430  201.8220  147.2080 C   0  0  0  0  0  0  0  0  0  0  0  0
  161.9800  205.9760  149.7440 C   0  0  0  0  0  0  0  0  0  0  0  0
  161.0930  203.4700  148.9440 C   0  0  0  0  0  0  0  0  0  0  0  0
  161.2810  202.7000  146.2590 C   0  0  0  0  0  3  0  0  0  0  0  0
  160.3170  200.5960  146.8290 F   0  0  0  0  0  0  0  0  0  0  0  0
  161.6370  204.3530  147.9860 C   0  0  0  0  0  0  0  0  0  0  0  0
  160.6490  202.2050  148.5500 C   0  0  0  0  0  3  0  0  0  0  0  0
  161.7280  203.9660  146.6480 C   0  0  0  0  0  3  0  0  0  0  0  0
  162.0840  205.6060  148.3960 C   0  0  0  0  0  3  0  0  0  0  0  0
  161.4320  205.0710  150.6590 C   0  0  0  0  0  3  0  0  0  0  0  0
  161.0010  203.8500  150.2450 N   0  0  0  0  0  0  0  0  0  0  0  0
  160.4850  209.2180  155.2930 C   0  0  0  0  0  3  0  0  0  0  0  0
  159.8760  211.3110  154.2450 C   0  0  0  0  0  3  0  0  0  0  0  0
  159.8760  210.4720  155.3630 C   0  0  0  0  0  0  0  0  0  0  0  0
  161.1040  208.8040  154.1080 C   0  0  0  0  0  3  0  0  0  0  0  0
  161.1200  209.6520  152.9890 C   0  0  0  0  0  0  0  0  0  0  0  0
  159.2640  210.8850  156.5400 O   0  0  0  0  0  1  0  0  0  0  0  0
  160.4980  210.9010  153.0620 C   0  0  0  0  0  3  0  0  0  0  0  0
  162.1550  210.6520  148.4750 O   0  0  0  0  0  0  0  0  0  0  0  0
  161.0030  210.8760  147.7100 C   0  0  0  0  0  2  0  0  0  0  0  0
  160.7870  212.3640  147.4300 C   0  0  1  0  0  3  0  0  0  0  0  0
  161.5240  213.2280  148.4490 C   0  0  0  0  0  2  0  0  0  0  0  0
  160.6680  214.4110  148.8910 C   0  0  0  0  0  3  0  0  0  0  0  0
  159.6580  213.3100  150.9350 C   0  0  0  0  0  2  0  0  0  0  0  0
  158.4240  213.2500  148.7620 C   0  0  0  0  0  2  0  0  0  0  0  0
  158.2850  213.3580  150.2780 C   0  0  0  0  0  2  0  0  0  0  0  0
  159.2840  214.3950  148.2280 C   0  0  0  0  0  2  0  0  0  0  0  0
  160.5360  214.4490  150.4180 C   0  0  0  0  0  2  0  0  0  0  0  0
  161.1620  212.7490  145.9910 C   0  0  1  0  0  3  0  0  0  0  0  0
  159.9640  213.1070  145.0970 C   0  0  0  0  0  2  0  0  0  0  0  0
  159.8850  212.2560  143.8700 C   0  0  0  0  0  3  0  0  0  0  0  0
  160.2170  212.7380  142.7330 N   0  0  0  0  0  0  0  0  0  0  0  0
  160.1240  211.9210  141.5560 C   0  0  0  0  0  1  0  0  0  0  0  0
  162.2830  213.7870  145.9530 C   0  0  0  0  0  2  0  0  0  0  0  0
  163.1910  214.2380  143.6690 C   0  0  0  0  0  1  0  0  0  0  0  0
  163.3430  213.4050  144.9300 C   0  0  0  0  0  2  0  0  0  0  0  0
  1  5  1  0  0  0  0
  2  5  1  0  0  0  0
  3  2  1  0  0  0  0
  4  7  2  0  0  0  0
  5 23  1  1  0  0  0
  6  9  1  6  0  0  0
  6  1  1  0  0  0  0
  7  3  1  0  0  0  0
  7  6  1  0  0  0  0
  8 14  1  0  0  0  0
  9 17  1  0  0  0  0
 10 18  1  0  0  0  0
 11 15  1  0  0  0  0
 11  8  2  0  0  0  0
 12  8  1  0  0  0  0
 13 16  1  0  0  0  0
 13 10  1  0  0  0  0
 14 10  2  0  0  0  0
 15 13  2  0  0  0  0
 16  9  2  0  0  0  0
 18 17  2  0  0  0  0
 19 21  1  0  0  0  0
 20 21  2  0  0  0  0
 21 24  1  0  0  0  0
 22 19  2  0  0  0  0
 23 25  2  0  0  0  0
 23 22  1  0  0  0  0
 25 20  1  0  0  0  0
 26  3  1  0  0  0  0
 27 26  1  0  0  0  0
 28 27  1  1  0  0  0
 28 29  1  0  0  0  0
 29 30  1  0  0  0  0
 30 35  1  0  0  0  0
 32 33  1  0  0  0  0
 33 31  1  0  0  0  0
 34 32  1  0  0  0  0
 34 30  1  0  0  0  0
 35 31  1  0  0  0  0
 36 37  1  1  0  0  0
 36 28  1  0  0  0  0
 38 37  1  0  0  0  0
 39 38  2  0  0  0  0
 40 39  1  0  0  0  0
 41 36  1  0  0  0  0
 42 43  1  0  0  0  0
 43 41  1  0  0  0  0
M  END
>  <MODEL>
9

>  <REMARK>
 VINA RESULT:      -5.5      2.554      6.776
  Name = 
  12 active torsions:
  status: ('A' for Active; 'I' for Inactive)
    1  A    between atoms: O_2  and  C_6
    2  A    between atoms: O_2  and  N_13
    3  A    between atoms: C_3  and  C_4
    4  A    between atoms: C_4  and  C_22
    5  A    between atoms: C_6  and  C_41
    6  A    between atoms: C_8  and  C_34
    7  A    between atoms: C_11  and  C_14
    8  A    between atoms: C_14  and  C_41
    9  A    between atoms: C_15  and  C_22
   10  A    between atoms: C_15  and  C_42
   11  A    between atoms: C_22  and  C_41
   12  A    between atoms: C_28  and  C_35
                            x       y       z     vdW  Elec       q    Type
                         _______ _______ _______ _____ _____    ______ ____

>  <TORSDO>
F 12

$$$$
