=
 OpenBabel11062407573D

 34 39  0  0  1  0  0  0  0  0999 V2000
  161.0680  205.3390  152.1490 C   0  0  0  0  0  0  0  0  0  0  0  0
  160.9660  206.2430  149.7410 C   0  0  2  0  0  3  0  0  0  0  0  0
  161.5440  207.6920  151.7140 C   0  0  0  0  0  0  0  0  0  0  0  0
  162.2870  210.0440  151.4370 C   0  0  0  0  0  0  0  0  0  0  0  0
  160.8950  203.8420  150.2700 N   0  0  0  0  0  0  0  0  0  0  0  0
  160.9530  204.7830  149.3750 C   0  0  0  0  0  3  0  0  0  0  0  0
  161.7540  209.0790  149.5160 C   0  0  0  0  0  3  0  0  0  0  0  0
  161.2320  206.4740  151.2110 C   0  0  0  0  0  0  0  0  0  0  0  0
  162.5130  210.9440  150.4200 C   0  0  0  0  0  3  0  0  0  0  0  0
  160.9040  204.1030  151.6800 C   0  0  0  0  0  3  0  0  0  0  0  0
  161.6500  207.8750  153.1520 N   0  0  0  0  0  0  0  0  0  0  0  0
  161.1670  205.5600  153.5930 C   0  0  0  0  0  3  0  0  0  0  0  0
  159.7410  206.7930  149.4080 F   0  0  0  0  0  0  0  0  0  0  0  0
  162.6190  210.1880  152.8860 C   0  0  0  0  0  2  0  0  0  0  0  0
  161.7800  209.2200  153.7450 C   0  0  1  0  0  3  0  0  0  0  0  0
  162.1600  210.3410  149.2660 N   0  0  0  0  0  0  0  0  0  0  0  0
  161.8280  208.8780  150.8810 C   0  0  0  0  0  0  0  0  0  0  0  0
  161.4430  206.7770  154.0530 C   0  0  0  0  0  3  0  0  0  0  0  0
  158.5600  211.2510  153.5610 C   0  0  0  0  0  0  0  0  0  0  0  0
  157.9340  210.8670  154.7510 C   0  0  0  0  0  3  0  0  0  0  0  0
  160.4360  209.8000  154.0780 C   0  0  0  0  0  0  0  0  0  0  0  0
  158.5580  209.9530  155.6050 C   0  0  0  0  0  3  0  0  0  0  0  0
  159.8080  210.7200  153.2250 C   0  0  0  0  0  3  0  0  0  0  0  0
  159.8070  209.4210  155.2700 C   0  0  0  0  0  3  0  0  0  0  0  0
  157.9000  212.2240  152.6530 C   0  0  0  0  0  1  0  0  0  0  0  0
  162.2720  210.9370  147.9460 C   0  0  0  0  0  2  0  0  0  0  0  0
  162.4580  212.4400  148.0680 C   0  0  0  0  0  2  0  0  0  0  0  0
  160.8310  212.5070  145.4320 F   0  0  0  0  0  0  0  0  0  0  0  0
  161.1780  213.1690  147.7010 C   0  0  1  0  0  3  0  0  0  0  0  0
  160.3370  212.3430  146.7130 C   0  0  1  0  0  3  0  0  0  0  0  0
  158.7060  214.0340  147.3050 O   0  0  0  0  0  0  0  0  0  0  0  0
  158.9380  213.8770  148.6830 C   0  0  0  0  0  2  0  0  0  0  0  0
  160.4020  213.5080  148.9770 C   0  0  0  0  0  2  0  0  0  0  0  0
  158.8590  212.7550  146.7430 C   0  0  0  0  0  2  0  0  0  0  0  0
  1 12  1  0  0  0  0
  2 13  1  1  0  0  0
  2  8  1  0  0  0  0
  3 11  1  0  0  0  0
  4 14  1  0  0  0  0
  5 10  1  0  0  0  0
  6  2  1  0  0  0  0
  6  5  2  0  0  0  0
  7 17  2  0  0  0  0
  8  3  2  0  0  0  0
  8  1  1  0  0  0  0
  9  4  2  0  0  0  0
 10  1  2  0  0  0  0
 11 15  1  0  0  0  0
 11 18  1  0  0  0  0
 12 18  2  0  0  0  0
 14 15  1  0  0  0  0
 15 21  1  6  0  0  0
 16  7  1  0  0  0  0
 16  9  1  0  0  0  0
 17  4  1  0  0  0  0
 17  3  1  0  0  0  0
 19 20  1  0  0  0  0
 20 22  2  0  0  0  0
 21 24  2  0  0  0  0
 23 19  2  0  0  0  0
 23 21  1  0  0  0  0
 24 22  1  0  0  0  0
 25 19  1  0  0  0  0
 26 27  1  0  0  0  0
 26 16  1  0  0  0  0
 29 27  1  1  0  0  0
 29 33  1  0  0  0  0
 30 28  1  6  0  0  0
 30 34  1  0  0  0  0
 30 29  1  0  0  0  0
 31 32  1  0  0  0  0
 32 33  1  0  0  0  0
 34 31  1  0  0  0  0
M  END
>  <MODEL>
1

>  <REMARK>
 VINA RESULT:      -6.6      0.000      0.000
  Name = 
  4 active torsions:
  status: ('A' for Active; 'I' for Inactive)
    1  A    between atoms: C_3  and  C_13
    2  A    between atoms: C_3  and  C_17
    3  A    between atoms: C_12  and  C_28
    4  A    between atoms: C_17  and  N_29
                            x       y       z     vdW  Elec       q    Type
                         _______ _______ _______ _____ _____    ______ ____

>  <TORSDO>
F 4

$$$$
=
 OpenBabel11062407573D

 34 39  0  0  1  0  0  0  0  0999 V2000
  159.3090  213.2360  152.9870 C   0  0  1  0  0  3  0  0  0  0  0  0
  159.7140  210.7080  153.2490 C   0  0  0  0  0  0  0  0  0  0  0  0
  160.4660  212.0030  151.2280 C   0  0  0  0  0  0  0  0  0  0  0  0
  161.8610  210.9680  149.4560 C   0  0  0  0  0  0  0  0  0  0  0  0
  158.9200  212.1310  155.0920 N   0  0  0  0  0  0  0  0  0  0  0  0
  159.3320  210.9680  154.6810 C   0  0  0  0  0  3  0  0  0  0  0  0
  161.2820  209.5330  151.0410 C   0  0  0  0  0  3  0  0  0  0  0  0
  159.8800  211.9800  152.4490 C   0  0  0  0  0  0  0  0  0  0  0  0
  162.4330  209.7490  149.1700 C   0  0  0  0  0  3  0  0  0  0  0  0
  158.8560  213.2820  154.2390 C   0  0  0  0  0  3  0  0  0  0  0  0
  160.4690  213.2300  150.4510 N   0  0  0  0  0  0  0  0  0  0  0  0
  159.3150  214.4530  152.1730 C   0  0  0  0  0  3  0  0  0  0  0  0
  158.7330  209.9270  152.6650 F   0  0  0  0  0  0  0  0  0  0  0  0
  162.0670  212.2690  148.7540 C   0  0  0  0  0  2  0  0  0  0  0  0
  160.9070  213.2440  149.0420 C   0  0  1  0  0  3  0  0  0  0  0  0
  162.0480  208.8890  150.1360 N   0  0  0  0  0  0  0  0  0  0  0  0
  161.1550  210.8440  150.6240 C   0  0  0  0  0  0  0  0  0  0  0  0
  159.8710  214.4310  150.9650 C   0  0  0  0  0  3  0  0  0  0  0  0
  158.8630  212.5480  145.9010 C   0  0  0  0  0  0  0  0  0  0  0  0
  157.5630  212.6180  146.4090 C   0  0  0  0  0  3  0  0  0  0  0  0
  159.7520  213.0180  148.1110 C   0  0  0  0  0  0  0  0  0  0  0  0
  157.3540  212.8900  147.7640 C   0  0  0  0  0  3  0  0  0  0  0  0
  159.9550  212.7480  146.7490 C   0  0  0  0  0  3  0  0  0  0  0  0
  158.4470  213.0900  148.6130 C   0  0  0  0  0  3  0  0  0  0  0  0
  159.0860  212.2620  144.4610 C   0  0  0  0  0  1  0  0  0  0  0  0
  162.4580  207.4990  150.2270 C   0  0  0  0  0  2  0  0  0  0  0  0
  161.7900  206.8370  151.4210 C   0  0  0  0  0  2  0  0  0  0  0  0
  160.1700  206.1730  148.8640 F   0  0  0  0  0  0  0  0  0  0  0  0
  161.0660  205.5710  150.9940 C   0  0  1  0  0  3  0  0  0  0  0  0
  161.1320  205.3850  149.4690 C   0  0  1  0  0  3  0  0  0  0  0  0
  160.2880  203.2040  150.0980 O   0  0  0  0  0  0  0  0  0  0  0  0
  161.2640  203.0350  151.0970 C   0  0  0  0  0  2  0  0  0  0  0  0
  161.6510  204.3730  151.7480 C   0  0  0  0  0  2  0  0  0  0  0  0
  160.9160  203.9210  149.0660 C   0  0  0  0  0  2  0  0  0  0  0  0
  1 12  1  1  0  0  0
  1 10  1  0  0  0  0
  2  6  2  0  0  0  0
  3  8  2  0  0  0  0
  4 17  1  0  0  0  0
  6  5  1  0  0  0  0
  8  1  1  0  0  0  0
  8  2  1  0  0  0  0
  9  4  2  0  0  0  0
  9 16  1  0  0  0  0
 10  5  2  0  0  0  0
 11 18  1  0  0  0  0
 11  3  1  0  0  0  0
 13  2  1  0  0  0  0
 14 15  1  0  0  0  0
 14  4  1  0  0  0  0
 15 21  1  6  0  0  0
 15 11  1  0  0  0  0
 16 26  1  0  0  0  0
 16  7  1  0  0  0  0
 17  7  2  0  0  0  0
 17  3  1  0  0  0  0
 18 12  2  0  0  0  0
 19 20  2  0  0  0  0
 19 23  1  0  0  0  0
 20 22  1  0  0  0  0
 21 24  1  0  0  0  0
 22 24  2  0  0  0  0
 23 21  2  0  0  0  0
 25 19  1  0  0  0  0
 26 27  1  0  0  0  0
 29 27  1  6  0  0  0
 29 33  1  0  0  0  0
 30 28  1  6  0  0  0
 30 29  1  0  0  0  0
 31 32  1  0  0  0  0
 32 33  1  0  0  0  0
 34 30  1  0  0  0  0
 34 31  1  0  0  0  0
M  END
>  <MODEL>
2

>  <REMARK>
 VINA RESULT:      -6.4      2.849      7.288
  Name = 
  4 active torsions:
  status: ('A' for Active; 'I' for Inactive)
    1  A    between atoms: C_3  and  C_13
    2  A    between atoms: C_3  and  C_17
    3  A    between atoms: C_12  and  C_28
    4  A    between atoms: C_17  and  N_29
                            x       y       z     vdW  Elec       q    Type
                         _______ _______ _______ _____ _____    ______ ____

>  <TORSDO>
F 4

$$$$
=
 OpenBabel11062407573D

 34 39  0  0  1  0  0  0  0  0999 V2000
  161.0180  205.5800  152.4410 C   0  0  0  0  0  0  0  0  0  0  0  0
  161.0490  206.2720  149.9620 C   0  0  2  0  0  3  0  0  0  0  0  0
  161.5030  207.8920  151.8310 C   0  0  0  0  0  0  0  0  0  0  0  0
  162.2460  210.2190  151.3930 C   0  0  0  0  0  0  0  0  0  0  0  0
  160.9630  203.9240  150.6930 N   0  0  0  0  0  0  0  0  0  0  0  0
  161.0670  204.7850  149.7240 C   0  0  0  0  0  3  0  0  0  0  0  0
  161.8310  209.0860  149.5360 C   0  0  0  0  0  3  0  0  0  0  0  0
  161.2280  206.6320  151.4190 C   0  0  0  0  0  0  0  0  0  0  0  0
  162.5240  211.0310  150.3170 C   0  0  0  0  0  3  0  0  0  0  0  0
  160.8900  204.3070  152.0730 C   0  0  0  0  0  3  0  0  0  0  0  0
  161.5250  208.2000  153.2510 N   0  0  0  0  0  0  0  0  0  0  0  0
  161.0320  205.9260  153.8640 C   0  0  0  0  0  3  0  0  0  0  0  0
  159.8420  206.7770  149.5130 F   0  0  0  0  0  0  0  0  0  0  0  0
  162.4920  210.4930  152.8410 C   0  0  0  0  0  2  0  0  0  0  0  0
  161.6120  209.5920  153.7310 C   0  0  1  0  0  3  0  0  0  0  0  0
  162.2420  210.3260  149.2010 N   0  0  0  0  0  0  0  0  0  0  0  0
  161.8270  209.0050  150.9150 C   0  0  0  0  0  0  0  0  0  0  0  0
  161.2740  207.1810  154.2320 C   0  0  0  0  0  3  0  0  0  0  0  0
  158.4130  210.8480  155.3810 C   0  0  0  0  0  0  0  0  0  0  0  0
  157.6900  211.2810  154.2650 C   0  0  0  0  0  3  0  0  0  0  0  0
  160.2470  210.1840  153.9360 C   0  0  0  0  0  0  0  0  0  0  0  0
  158.2420  211.1640  152.9860 C   0  0  0  0  0  3  0  0  0  0  0  0
  159.6880  210.3000  155.2170 C   0  0  0  0  0  3  0  0  0  0  0  0
  159.5180  210.6160  152.8220 C   0  0  0  0  0  3  0  0  0  0  0  0
  157.8270  210.9690  156.7400 C   0  0  0  0  0  1  0  0  0  0  0  0
  162.4260  210.8070  147.8420 C   0  0  0  0  0  2  0  0  0  0  0  0
  161.9490  212.2450  147.7310 C   0  0  0  0  0  2  0  0  0  0  0  0
  159.8720  213.1170  149.8590 F   0  0  0  0  0  0  0  0  0  0  0  0
  160.4320  212.3020  147.6840 C   0  0  1  0  0  3  0  0  0  0  0  0
  159.8980  213.4750  148.5240 C   0  0  1  0  0  3  0  0  0  0  0  0
  157.8650  212.8660  147.3570 O   0  0  0  0  0  0  0  0  0  0  0  0
  158.5070  212.8370  146.1060 C   0  0  0  0  0  2  0  0  0  0  0  0
  159.9700  212.3790  146.2260 C   0  0  0  0  0  2  0  0  0  0  0  0
  158.4890  213.8940  148.0830 C   0  0  0  0  0  2  0  0  0  0  0  0
  1 12  1  0  0  0  0
  2 13  1  1  0  0  0
  2  8  1  0  0  0  0
  3 11  1  0  0  0  0
  4 14  1  0  0  0  0
  5 10  1  0  0  0  0
  6  2  1  0  0  0  0
  6  5  2  0  0  0  0
  7 17  2  0  0  0  0
  8  3  2  0  0  0  0
  8  1  1  0  0  0  0
  9  4  2  0  0  0  0
 10  1  2  0  0  0  0
 11 15  1  0  0  0  0
 11 18  1  0  0  0  0
 12 18  2  0  0  0  0
 14 15  1  0  0  0  0
 15 21  1  6  0  0  0
 16  7  1  0  0  0  0
 16  9  1  0  0  0  0
 17  4  1  0  0  0  0
 17  3  1  0  0  0  0
 19 25  1  0  0  0  0
 20 19  2  0  0  0  0
 21 23  2  0  0  0  0
 22 20  1  0  0  0  0
 23 19  1  0  0  0  0
 24 22  2  0  0  0  0
 24 21  1  0  0  0  0
 26 16  1  0  0  0  0
 27 26  1  0  0  0  0
 29 27  1  6  0  0  0
 29 30  1  0  0  0  0
 30 28  1  1  0  0  0
 31 34  1  0  0  0  0
 32 33  1  0  0  0  0
 32 31  1  0  0  0  0
 33 29  1  0  0  0  0
 34 30  1  0  0  0  0
M  END
>  <MODEL>
3

>  <REMARK>
 VINA RESULT:      -6.1      0.997      1.663
  Name = 
  4 active torsions:
  status: ('A' for Active; 'I' for Inactive)
    1  A    between atoms: C_3  and  C_13
    2  A    between atoms: C_3  and  C_17
    3  A    between atoms: C_12  and  C_28
    4  A    between atoms: C_17  and  N_29
                            x       y       z     vdW  Elec       q    Type
                         _______ _______ _______ _____ _____    ______ ____

>  <TORSDO>
F 4

$$$$
=
 OpenBabel11062407573D

 34 39  0  0  1  0  0  0  0  0999 V2000
  161.3270  209.0730  155.9840 C   0  0  0  0  0  0  0  0  0  0  0  0
  160.5640  206.8930  154.8490 C   0  0  2  0  0  3  0  0  0  0  0  0
  161.2860  208.9220  153.5490 C   0  0  0  0  0  0  0  0  0  0  0  0
  161.5350  208.8730  151.0800 C   0  0  0  0  0  0  0  0  0  0  0  0
  161.0230  207.0540  157.2610 N   0  0  0  0  0  0  0  0  0  0  0  0
  160.7270  206.3180  156.2310 C   0  0  0  0  0  3  0  0  0  0  0  0
  160.7840  206.9600  151.9060 C   0  0  0  0  0  3  0  0  0  0  0  0
  161.0900  208.3060  154.7390 C   0  0  0  0  0  0  0  0  0  0  0  0
  161.3820  207.9810  150.0430 C   0  0  0  0  0  3  0  0  0  0  0  0
  161.2850  208.4600  157.1660 C   0  0  0  0  0  3  0  0  0  0  0  0
  161.6600  210.3250  153.5140 N   0  0  0  0  0  0  0  0  0  0  0  0
  161.6890  210.4910  155.9150 C   0  0  0  0  0  3  0  0  0  0  0  0
  159.2200  206.8810  154.5210 F   0  0  0  0  0  0  0  0  0  0  0  0
  162.1350  210.2400  151.0390 C   0  0  0  0  0  2  0  0  0  0  0  0
  161.6770  211.0820  152.2480 C   0  0  1  0  0  3  0  0  0  0  0  0
  160.9020  206.8340  150.5680 N   0  0  0  0  0  0  0  0  0  0  0  0
  161.1780  208.2410  152.2430 C   0  0  0  0  0  0  0  0  0  0  0  0
  161.8420  211.0720  154.7280 C   0  0  0  0  0  3  0  0  0  0  0  0
  158.9510  213.2680  150.7270 C   0  0  0  0  0  0  0  0  0  0  0  0
  157.8700  212.9640  151.5600 C   0  0  0  0  0  3  0  0  0  0  0  0
  160.3550  211.7430  151.9910 C   0  0  0  0  0  0  0  0  0  0  0  0
  158.0290  212.0530  152.6080 C   0  0  0  0  0  3  0  0  0  0  0  0
  160.1900  212.6600  150.9420 C   0  0  0  0  0  3  0  0  0  0  0  0
  159.2700  211.4450  152.8240 C   0  0  0  0  0  3  0  0  0  0  0  0
  158.7830  214.2370  149.6140 C   0  0  0  0  0  1  0  0  0  0  0  0
  160.6280  205.6230  149.8150 C   0  0  0  0  0  2  0  0  0  0  0  0
  161.4920  204.4840  150.3310 C   0  0  0  0  0  2  0  0  0  0  0  0
  160.6220  201.5260  150.6450 F   0  0  0  0  0  0  0  0  0  0  0  0
  161.4970  203.3290  149.3450 C   0  0  1  0  0  3  0  0  0  0  0  0
  160.3150  202.3790  149.6010 C   0  0  1  0  0  3  0  0  0  0  0  0
  161.0510  201.5260  147.4560 O   0  0  0  0  0  0  0  0  0  0  0  0
  161.1030  202.8100  146.8830 C   0  0  0  0  0  2  0  0  0  0  0  0
  161.4960  203.8800  147.9160 C   0  0  0  0  0  2  0  0  0  0  0  0
  159.9710  201.5520  148.3550 C   0  0  0  0  0  2  0  0  0  0  0  0
  1 10  2  0  0  0  0
  2 13  1  1  0  0  0
  2  6  1  0  0  0  0
  3  8  2  0  0  0  0
  4 17  1  0  0  0  0
  6  5  2  0  0  0  0
  7 17  2  0  0  0  0
  8  2  1  0  0  0  0
  8  1  1  0  0  0  0
  9 16  1  0  0  0  0
  9  4  2  0  0  0  0
 10  5  1  0  0  0  0
 11  3  1  0  0  0  0
 11 18  1  0  0  0  0
 12  1  1  0  0  0  0
 14  4  1  0  0  0  0
 14 15  1  0  0  0  0
 15 21  1  6  0  0  0
 15 11  1  0  0  0  0
 16  7  1  0  0  0  0
 17  3  1  0  0  0  0
 18 12  2  0  0  0  0
 19 23  2  0  0  0  0
 19 20  1  0  0  0  0
 20 22  2  0  0  0  0
 21 24  2  0  0  0  0
 22 24  1  0  0  0  0
 23 21  1  0  0  0  0
 25 19  1  0  0  0  0
 26 27  1  0  0  0  0
 26 16  1  0  0  0  0
 29 30  1  0  0  0  0
 29 27  1  1  0  0  0
 30 28  1  1  0  0  0
 31 34  1  0  0  0  0
 32 31  1  0  0  0  0
 32 33  1  0  0  0  0
 33 29  1  0  0  0  0
 34 30  1  0  0  0  0
M  END
>  <MODEL>
4

>  <REMARK>
 VINA RESULT:      -5.9      3.596      6.473
  Name = 
  4 active torsions:
  status: ('A' for Active; 'I' for Inactive)
    1  A    between atoms: C_3  and  C_13
    2  A    between atoms: C_3  and  C_17
    3  A    between atoms: C_12  and  C_28
    4  A    between atoms: C_17  and  N_29
                            x       y       z     vdW  Elec       q    Type
                         _______ _______ _______ _____ _____    ______ ____

>  <TORSDO>
F 4

$$$$
=
 OpenBabel11062407573D

 34 39  0  0  1  0  0  0  0  0999 V2000
  161.4250  209.0230  155.9910 C   0  0  0  0  0  0  0  0  0  0  0  0
  160.6250  206.8610  154.8480 C   0  0  2  0  0  3  0  0  0  0  0  0
  161.3650  208.8870  153.5560 C   0  0  0  0  0  0  0  0  0  0  0  0
  161.5980  208.8490  151.0850 C   0  0  0  0  0  0  0  0  0  0  0  0
  161.1020  207.0000  157.2580 N   0  0  0  0  0  0  0  0  0  0  0  0
  160.7890  206.2750  156.2250 C   0  0  0  0  0  3  0  0  0  0  0  0
  160.8260  206.9420  151.9050 C   0  0  0  0  0  3  0  0  0  0  0  0
  161.1690  208.2670  154.7440 C   0  0  0  0  0  0  0  0  0  0  0  0
  161.4260  207.9660  150.0440 C   0  0  0  0  0  3  0  0  0  0  0  0
  161.3820  208.4040  157.1690 C   0  0  0  0  0  3  0  0  0  0  0  0
  161.7580  210.2850  153.5270 N   0  0  0  0  0  0  0  0  0  0  0  0
  161.8050  210.4360  155.9280 C   0  0  0  0  0  3  0  0  0  0  0  0
  159.2790  206.8690  154.5300 F   0  0  0  0  0  0  0  0  0  0  0  0
  162.2160  210.2090  151.0480 C   0  0  0  0  0  2  0  0  0  0  0  0
  161.7770  211.0490  152.2650 C   0  0  1  0  0  3  0  0  0  0  0  0
  160.9350  206.8230  150.5650 N   0  0  0  0  0  0  0  0  0  0  0  0
  161.2390  208.2150  152.2460 C   0  0  0  0  0  0  0  0  0  0  0  0
  161.9580  211.0220  154.7430 C   0  0  0  0  0  3  0  0  0  0  0  0
  159.0230  213.1560  150.6830 C   0  0  0  0  0  0  0  0  0  0  0  0
  157.9940  212.9920  151.6150 C   0  0  0  0  0  3  0  0  0  0  0  0
  160.4620  211.7300  152.0200 C   0  0  0  0  0  0  0  0  0  0  0  0
  158.1970  212.2010  152.7500 C   0  0  0  0  0  3  0  0  0  0  0  0
  160.2540  212.5270  150.8850 C   0  0  0  0  0  3  0  0  0  0  0  0
  159.4290  211.5720  152.9520 C   0  0  0  0  0  3  0  0  0  0  0  0
  158.8090  213.9980  149.4780 C   0  0  0  0  0  1  0  0  0  0  0  0
  160.6390  205.6200  149.8070 C   0  0  0  0  0  2  0  0  0  0  0  0
  161.7420  205.3600  148.7940 C   0  0  0  0  0  2  0  0  0  0  0  0
  160.6750  207.0610  146.4340 F   0  0  0  0  0  0  0  0  0  0  0  0
  161.1530  204.9540  147.4540 C   0  0  1  0  0  3  0  0  0  0  0  0
  161.5220  205.9700  146.3600 C   0  0  1  0  0  3  0  0  0  0  0  0
  160.6330  204.1950  144.9710 O   0  0  0  0  0  0  0  0  0  0  0  0
  161.4000  203.2090  145.6180 C   0  0  0  0  0  2  0  0  0  0  0  0
  161.6130  203.5360  147.1050 C   0  0  0  0  0  2  0  0  0  0  0  0
  161.4310  205.3520  144.9580 C   0  0  0  0  0  2  0  0  0  0  0  0
  1 10  2  0  0  0  0
  2 13  1  1  0  0  0
  2  6  1  0  0  0  0
  3  8  2  0  0  0  0
  4 17  1  0  0  0  0
  6  5  2  0  0  0  0
  7 17  2  0  0  0  0
  8  2  1  0  0  0  0
  8  1  1  0  0  0  0
  9 16  1  0  0  0  0
  9  4  2  0  0  0  0
 10  5  1  0  0  0  0
 11  3  1  0  0  0  0
 11 18  1  0  0  0  0
 12  1  1  0  0  0  0
 14  4  1  0  0  0  0
 14 15  1  0  0  0  0
 15 21  1  6  0  0  0
 15 11  1  0  0  0  0
 16  7  1  0  0  0  0
 17  3  1  0  0  0  0
 18 12  2  0  0  0  0
 19 23  2  0  0  0  0
 19 20  1  0  0  0  0
 20 22  2  0  0  0  0
 21 24  2  0  0  0  0
 22 24  1  0  0  0  0
 23 21  1  0  0  0  0
 25 19  1  0  0  0  0
 26 16  1  0  0  0  0
 27 26  1  0  0  0  0
 29 27  1  1  0  0  0
 30 28  1  6  0  0  0
 30 29  1  0  0  0  0
 31 32  1  0  0  0  0
 32 33  1  0  0  0  0
 33 29  1  0  0  0  0
 34 31  1  0  0  0  0
 34 30  1  0  0  0  0
M  END
>  <MODEL>
5

>  <REMARK>
 VINA RESULT:      -5.9      2.895      5.623
  Name = 
  4 active torsions:
  status: ('A' for Active; 'I' for Inactive)
    1  A    between atoms: C_3  and  C_13
    2  A    between atoms: C_3  and  C_17
    3  A    between atoms: C_12  and  C_28
    4  A    between atoms: C_17  and  N_29
                            x       y       z     vdW  Elec       q    Type
                         _______ _______ _______ _____ _____    ______ ____

>  <TORSDO>
F 4

$$$$
=
 OpenBabel11062407573D

 34 39  0  0  1  0  0  0  0  0999 V2000
  160.5420  212.6890  149.1360 C   0  0  1  0  0  3  0  0  0  0  0  0
  158.8600  213.0740  151.0460 C   0  0  0  0  0  0  0  0  0  0  0  0
  160.8370  211.5340  151.2660 C   0  0  0  0  0  0  0  0  0  0  0  0
  161.4280  210.4650  153.4260 C   0  0  0  0  0  0  0  0  0  0  0  0
  158.9070  214.4530  149.0090 N   0  0  0  0  0  0  0  0  0  0  0  0
  158.4190  214.2350  150.1940 C   0  0  0  0  0  3  0  0  0  0  0  0
  159.5760  211.6740  153.5440 C   0  0  0  0  0  3  0  0  0  0  0  0
  160.1200  212.4170  150.5300 C   0  0  0  0  0  0  0  0  0  0  0  0
  160.9640  210.4250  154.7210 C   0  0  0  0  0  3  0  0  0  0  0  0
  159.9500  213.6540  148.4350 C   0  0  0  0  0  3  0  0  0  0  0  0
  161.9570  210.8330  150.6630 N   0  0  0  0  0  0  0  0  0  0  0  0
  161.6670  211.9540  148.5530 C   0  0  0  0  0  3  0  0  0  0  0  0
  157.8410  212.1400  151.0820 F   0  0  0  0  0  0  0  0  0  0  0  0
  162.7080  209.9130  152.8880 C   0  0  0  0  0  2  0  0  0  0  0  0
  162.6270  209.7180  151.3600 C   0  0  1  0  0  3  0  0  0  0  0  0
  159.8260  211.1490  154.7610 N   0  0  0  0  0  0  0  0  0  0  0  0
  160.5770  211.2500  152.6920 C   0  0  0  0  0  0  0  0  0  0  0  0
  162.3290  211.0710  149.2960 C   0  0  0  0  0  3  0  0  0  0  0  0
  161.3400  206.1370  151.5810 C   0  0  0  0  0  0  0  0  0  0  0  0
  160.8460  205.9520  150.2870 C   0  0  0  0  0  3  0  0  0  0  0  0
  162.0040  208.4000  151.0040 C   0  0  0  0  0  0  0  0  0  0  0  0
  160.9320  206.9860  149.3500 C   0  0  0  0  0  3  0  0  0  0  0  0
  161.9190  207.3580  151.9390 C   0  0  0  0  0  3  0  0  0  0  0  0
  161.5110  208.2070  149.7080 C   0  0  0  0  0  3  0  0  0  0  0  0
  161.2520  205.0390  152.5770 C   0  0  0  0  0  1  0  0  0  0  0  0
  159.0320  211.3880  155.9540 C   0  0  0  0  0  2  0  0  0  0  0  0
  157.5530  211.2770  155.6240 C   0  0  0  0  0  2  0  0  0  0  0  0
  157.3320  214.1000  154.3670 F   0  0  0  0  0  0  0  0  0  0  0  0
  156.8080  212.5200  156.0800 C   0  0  1  0  0  3  0  0  0  0  0  0
  156.3020  213.3320  154.8760 C   0  0  1  0  0  3  0  0  0  0  0  0
  155.0910  214.4530  156.6480 O   0  0  0  0  0  0  0  0  0  0  0  0
  154.6420  213.2420  157.2060 C   0  0  0  0  0  2  0  0  0  0  0  0
  155.6720  212.1140  157.0220 C   0  0  0  0  0  2  0  0  0  0  0  0
  155.1290  214.2440  155.2590 C   0  0  0  0  0  2  0  0  0  0  0  0
  1 10  1  1  0  0  0
  1  8  1  0  0  0  0
  2 13  1  0  0  0  0
  3 17  1  0  0  0  0
  4  9  2  0  0  0  0
  5  6  1  0  0  0  0
  6  2  2  0  0  0  0
  7 16  1  0  0  0  0
  8  2  1  0  0  0  0
  8  3  2  0  0  0  0
  9 16  1  0  0  0  0
 10  5  2  0  0  0  0
 11  3  1  0  0  0  0
 11 15  1  0  0  0  0
 12  1  1  0  0  0  0
 12 18  2  0  0  0  0
 14  4  1  0  0  0  0
 15 21  1  1  0  0  0
 15 14  1  0  0  0  0
 16 26  1  0  0  0  0
 17  4  1  0  0  0  0
 17  7  2  0  0  0  0
 18 11  1  0  0  0  0
 19 23  1  0  0  0  0
 19 25  1  0  0  0  0
 20 19  2  0  0  0  0
 21 23  2  0  0  0  0
 22 24  2  0  0  0  0
 22 20  1  0  0  0  0
 24 21  1  0  0  0  0
 27 26  1  0  0  0  0
 29 27  1  6  0  0  0
 29 33  1  0  0  0  0
 30 28  1  1  0  0  0
 30 34  1  0  0  0  0
 30 29  1  0  0  0  0
 31 32  1  0  0  0  0
 33 32  1  0  0  0  0
 34 31  1  0  0  0  0
M  END
>  <MODEL>
6

>  <REMARK>
 VINA RESULT:      -5.8      3.269      7.317
  Name = 
  4 active torsions:
  status: ('A' for Active; 'I' for Inactive)
    1  A    between atoms: C_3  and  C_13
    2  A    between atoms: C_3  and  C_17
    3  A    between atoms: C_12  and  C_28
    4  A    between atoms: C_17  and  N_29
                            x       y       z     vdW  Elec       q    Type
                         _______ _______ _______ _____ _____    ______ ____

>  <TORSDO>
F 4

$$$$
=
 OpenBabel11062407573D

 34 39  0  0  1  0  0  0  0  0999 V2000
  160.3960  212.7940  150.5450 C   0  0  0  0  0  0  0  0  0  0  0  0
  161.9570  210.8200  150.0050 C   0  0  2  0  0  3  0  0  0  0  0  0
  160.4510  210.8510  152.0190 C   0  0  0  0  0  0  0  0  0  0  0  0
  160.1970  208.8710  153.4930 C   0  0  0  0  0  0  0  0  0  0  0  0
  161.5170  212.6470  148.4180 N   0  0  0  0  0  0  0  0  0  0  0  0
  162.0670  211.4950  148.6640 C   0  0  0  0  0  3  0  0  0  0  0  0
  161.6740  208.5530  151.8740 C   0  0  0  0  0  3  0  0  0  0  0  0
  160.9010  211.4450  150.8880 C   0  0  0  0  0  0  0  0  0  0  0  0
  160.6790  207.5850  153.5910 C   0  0  0  0  0  3  0  0  0  0  0  0
  160.7050  213.3450  149.3720 C   0  0  0  0  0  3  0  0  0  0  0  0
  159.5390  211.5650  152.8970 N   0  0  0  0  0  0  0  0  0  0  0  0
  159.4890  213.4930  151.4580 C   0  0  0  0  0  3  0  0  0  0  0  0
  163.1840  210.8950  150.6400 F   0  0  0  0  0  0  0  0  0  0  0  0
  159.0930  209.5020  154.2770 C   0  0  0  0  0  2  0  0  0  0  0  0
  159.1930  211.0410  154.2320 C   0  0  1  0  0  3  0  0  0  0  0  0
  161.5920  207.4250  152.6100 N   0  0  0  0  0  0  0  0  0  0  0  0
  160.8010  209.4730  152.4210 C   0  0  0  0  0  0  0  0  0  0  0  0
  159.0920  212.8920  152.5760 C   0  0  0  0  0  3  0  0  0  0  0  0
  162.1800  211.4080  156.5710 C   0  0  0  0  0  0  0  0  0  0  0  0
  161.8360  212.5740  157.2610 C   0  0  0  0  0  3  0  0  0  0  0  0
  160.1290  211.5650  155.2810 C   0  0  0  0  0  0  0  0  0  0  0  0
  160.6400  213.2350  156.9650 C   0  0  0  0  0  3  0  0  0  0  0  0
  161.3280  210.9030  155.5840 C   0  0  0  0  0  3  0  0  0  0  0  0
  159.7880  212.7300  155.9780 C   0  0  0  0  0  3  0  0  0  0  0  0
  163.4490  210.7030  156.8850 C   0  0  0  0  0  1  0  0  0  0  0  0
  162.3200  206.1970  152.3410 C   0  0  0  0  0  2  0  0  0  0  0  0
  161.3450  205.0460  152.1510 C   0  0  0  0  0  2  0  0  0  0  0  0
  161.5660  202.0470  151.4060 F   0  0  0  0  0  0  0  0  0  0  0  0
  161.5800  204.3610  150.8160 C   0  0  1  0  0  3  0  0  0  0  0  0
  160.8350  203.0180  150.7470 C   0  0  1  0  0  3  0  0  0  0  0  0
  161.4670  203.2400  148.4190 O   0  0  0  0  0  0  0  0  0  0  0  0
  161.0000  204.5660  148.3450 C   0  0  0  0  0  2  0  0  0  0  0  0
  161.1730  205.3060  149.6820 C   0  0  0  0  0  2  0  0  0  0  0  0
  160.5940  202.5760  149.2970 C   0  0  0  0  0  2  0  0  0  0  0  0
  1  8  1  0  0  0  0
  1 12  1  0  0  0  0
  2 13  1  1  0  0  0
  2  8  1  0  0  0  0
  3 17  1  0  0  0  0
  3 11  1  0  0  0  0
  4  9  2  0  0  0  0
  4 14  1  0  0  0  0
  5  6  2  0  0  0  0
  5 10  1  0  0  0  0
  6  2  1  0  0  0  0
  7 17  2  0  0  0  0
  7 16  1  0  0  0  0
  8  3  2  0  0  0  0
 10  1  2  0  0  0  0
 11 15  1  0  0  0  0
 12 18  2  0  0  0  0
 15 14  1  0  0  0  0
 15 21  1  1  0  0  0
 16  9  1  0  0  0  0
 17  4  1  0  0  0  0
 18 11  1  0  0  0  0
 19 25  1  0  0  0  0
 19 20  1  0  0  0  0
 21 23  1  0  0  0  0
 21 24  2  0  0  0  0
 22 20  2  0  0  0  0
 23 19  2  0  0  0  0
 24 22  1  0  0  0  0
 26 16  1  0  0  0  0
 27 26  1  0  0  0  0
 29 27  1  1  0  0  0
 30 29  1  0  0  0  0
 30 28  1  1  0  0  0
 31 34  1  0  0  0  0
 32 31  1  0  0  0  0
 32 33  1  0  0  0  0
 33 29  1  0  0  0  0
 34 30  1  0  0  0  0
M  END
>  <MODEL>
7

>  <REMARK>
 VINA RESULT:      -5.8      3.101      6.809
  Name = 
  4 active torsions:
  status: ('A' for Active; 'I' for Inactive)
    1  A    between atoms: C_3  and  C_13
    2  A    between atoms: C_3  and  C_17
    3  A    between atoms: C_12  and  C_28
    4  A    between atoms: C_17  and  N_29
                            x       y       z     vdW  Elec       q    Type
                         _______ _______ _______ _____ _____    ______ ____

>  <TORSDO>
F 4

$$$$
=
 OpenBabel11062407573D

 34 39  0  0  1  0  0  0  0  0999 V2000
  159.6410  212.4430  154.0000 C   0  0  0  0  0  0  0  0  0  0  0  0
  160.3530  210.0580  153.3430 C   0  0  2  0  0  3  0  0  0  0  0  0
  160.4100  211.9870  151.7300 C   0  0  0  0  0  0  0  0  0  0  0  0
  161.3850  211.7640  149.4580 C   0  0  0  0  0  0  0  0  0  0  0  0
  159.9360  210.7340  155.6720 N   0  0  0  0  0  0  0  0  0  0  0  0
  160.3380  209.8280  154.8310 C   0  0  0  0  0  3  0  0  0  0  0  0
  161.3920  209.8580  150.5870 C   0  0  0  0  0  3  0  0  0  0  0  0
  160.1730  211.5140  152.9760 C   0  0  0  0  0  0  0  0  0  0  0  0
  161.9800  210.7980  148.6790 C   0  0  0  0  0  3  0  0  0  0  0  0
  159.5330  212.0500  155.2680 C   0  0  0  0  0  3  0  0  0  0  0  0
  160.0850  213.3660  151.4060 N   0  0  0  0  0  0  0  0  0  0  0  0
  159.3100  213.8230  153.6380 C   0  0  0  0  0  3  0  0  0  0  0  0
  159.3360  209.3160  152.7710 F   0  0  0  0  0  0  0  0  0  0  0  0
  161.2660  213.2270  149.1820 C   0  0  0  0  0  2  0  0  0  0  0  0
  160.1320  213.8570  150.0160 C   0  0  1  0  0  3  0  0  0  0  0  0
  161.9520  209.6450  149.3790 N   0  0  0  0  0  0  0  0  0  0  0  0
  161.0280  211.1900  150.6500 C   0  0  0  0  0  0  0  0  0  0  0  0
  159.5270  214.2450  152.3950 C   0  0  0  0  0  3  0  0  0  0  0  0
  156.3750  213.8100  149.3730 C   0  0  0  0  0  0  0  0  0  0  0  0
  156.3380  213.3930  148.0390 C   0  0  0  0  0  3  0  0  0  0  0  0
  158.8000  213.7050  149.3400 C   0  0  0  0  0  0  0  0  0  0  0  0
  157.5290  213.1300  147.3560 C   0  0  0  0  0  3  0  0  0  0  0  0
  157.6020  213.9650  150.0220 C   0  0  0  0  0  3  0  0  0  0  0  0
  158.7570  213.2850  148.0050 C   0  0  0  0  0  3  0  0  0  0  0  0
  155.1110  214.0870  150.1010 C   0  0  0  0  0  1  0  0  0  0  0  0
  162.5090  208.3820  148.9280 C   0  0  0  0  0  2  0  0  0  0  0  0
  161.4030  207.3530  148.7680 C   0  0  0  0  0  2  0  0  0  0  0  0
  162.5140  207.0250  151.6420 F   0  0  0  0  0  0  0  0  0  0  0  0
  161.7050  206.1110  149.5890 C   0  0  1  0  0  3  0  0  0  0  0  0
  161.4390  206.3590  151.0830 C   0  0  1  0  0  3  0  0  0  0  0  0
  161.7110  203.9530  151.1230 O   0  0  0  0  0  0  0  0  0  0  0  0
  160.8300  203.7640  150.0420 C   0  0  0  0  0  2  0  0  0  0  0  0
  160.8920  204.9330  149.0450 C   0  0  0  0  0  2  0  0  0  0  0  0
  161.2030  205.0470  151.8430 C   0  0  0  0  0  2  0  0  0  0  0  0
  1 10  2  0  0  0  0
  2 13  1  6  0  0  0
  2  6  1  0  0  0  0
  3  8  2  0  0  0  0
  4 17  1  0  0  0  0
  6  5  2  0  0  0  0
  7 17  2  0  0  0  0
  8  2  1  0  0  0  0
  8  1  1  0  0  0  0
  9 16  1  0  0  0  0
  9  4  2  0  0  0  0
 10  5  1  0  0  0  0
 11  3  1  0  0  0  0
 11 18  1  0  0  0  0
 12  1  1  0  0  0  0
 14  4  1  0  0  0  0
 14 15  1  0  0  0  0
 15 21  1  6  0  0  0
 15 11  1  0  0  0  0
 16  7  1  0  0  0  0
 17  3  1  0  0  0  0
 18 12  2  0  0  0  0
 19 23  1  0  0  0  0
 19 25  1  0  0  0  0
 20 19  2  0  0  0  0
 21 23  2  0  0  0  0
 22 24  2  0  0  0  0
 22 20  1  0  0  0  0
 24 21  1  0  0  0  0
 26 16  1  0  0  0  0
 27 26  1  0  0  0  0
 29 27  1  6  0  0  0
 29 30  1  0  0  0  0
 30 28  1  1  0  0  0
 30 34  1  0  0  0  0
 31 34  1  0  0  0  0
 32 31  1  0  0  0  0
 33 29  1  0  0  0  0
 33 32  1  0  0  0  0
M  END
>  <MODEL>
8

>  <REMARK>
 VINA RESULT:      -5.3      3.068      6.736
  Name = 
  4 active torsions:
  status: ('A' for Active; 'I' for Inactive)
    1  A    between atoms: C_3  and  C_13
    2  A    between atoms: C_3  and  C_17
    3  A    between atoms: C_12  and  C_28
    4  A    between atoms: C_17  and  N_29
                            x       y       z     vdW  Elec       q    Type
                         _______ _______ _______ _____ _____    ______ ____

>  <TORSDO>
F 4

$$$$
=
 OpenBabel11062407573D

 34 39  0  0  1  0  0  0  0  0999 V2000
  159.7550  213.3130  145.5740 C   0  0  1  0  0  3  0  0  0  0  0  0
  157.4700  213.5350  146.7380 C   0  0  0  0  0  0  0  0  0  0  0  0
  159.6260  213.2920  148.0100 C   0  0  0  0  0  0  0  0  0  0  0  0
  159.7140  213.4890  150.4830 C   0  0  0  0  0  0  0  0  0  0  0  0
  157.7870  213.9300  144.3300 N   0  0  0  0  0  0  0  0  0  0  0  0
  157.0060  213.9570  145.3690 C   0  0  0  0  0  3  0  0  0  0  0  0
  157.6550  213.6460  149.6820 C   0  0  0  0  0  3  0  0  0  0  0  0
  158.9730  213.4030  146.8290 C   0  0  0  0  0  0  0  0  0  0  0  0
  158.8540  213.7110  151.5340 C   0  0  0  0  0  3  0  0  0  0  0  0
  159.1700  213.5620  144.4030 C   0  0  0  0  0  3  0  0  0  0  0  0
  161.0540  213.0280  148.0250 N   0  0  0  0  0  0  0  0  0  0  0  0
  161.1910  213.0320  145.6220 C   0  0  0  0  0  3  0  0  0  0  0  0
  156.8870  212.3200  147.0470 F   0  0  0  0  0  0  0  0  0  0  0  0
  161.2070  213.4440  150.5080 C   0  0  0  0  0  2  0  0  0  0  0  0
  161.7580  212.6940  149.2780 C   0  0  1  0  0  3  0  0  0  0  0  0
  157.6070  213.7810  151.0230 N   0  0  0  0  0  0  0  0  0  0  0  0
  158.9780  213.4600  149.3270 C   0  0  0  0  0  0  0  0  0  0  0  0
  161.7940  212.8970  146.8010 C   0  0  0  0  0  3  0  0  0  0  0  0
  161.7030  209.2830  150.9780 C   0  0  0  0  0  0  0  0  0  0  0  0
  161.8750  208.4350  149.8800 C   0  0  0  0  0  3  0  0  0  0  0  0
  161.7920  211.2110  149.5050 C   0  0  0  0  0  0  0  0  0  0  0  0
  162.0070  208.9720  148.5960 C   0  0  0  0  0  3  0  0  0  0  0  0
  161.6620  210.6680  150.7920 C   0  0  0  0  0  3  0  0  0  0  0  0
  161.9670  210.3570  148.4090 C   0  0  0  0  0  3  0  0  0  0  0  0
  161.5640  208.7150  152.3430 C   0  0  0  0  0  1  0  0  0  0  0  0
  156.4030  214.0370  151.7940 C   0  0  0  0  0  2  0  0  0  0  0  0
  156.7630  214.3000  153.2470 C   0  0  0  0  0  2  0  0  0  0  0  0
  157.7080  211.3580  153.4680 F   0  0  0  0  0  0  0  0  0  0  0  0
  156.2870  213.1600  154.1300 C   0  0  1  0  0  3  0  0  0  0  0  0
  157.4540  212.2320  154.5080 C   0  0  1  0  0  3  0  0  0  0  0  0
  155.7710  211.3960  156.0370 O   0  0  0  0  0  0  0  0  0  0  0  0
  155.4310  212.6860  156.4800 C   0  0  0  0  0  2  0  0  0  0  0  0
  155.5820  213.7320  155.3630 C   0  0  0  0  0  2  0  0  0  0  0  0
  157.1530  211.4310  155.7820 C   0  0  0  0  0  2  0  0  0  0  0  0
  1 10  1  1  0  0  0
  1 12  1  0  0  0  0
  1  8  1  0  0  0  0
  2  8  1  0  0  0  0
  2 13  1  0  0  0  0
  3 11  1  0  0  0  0
  3 17  1  0  0  0  0
  4 14  1  0  0  0  0
  4  9  2  0  0  0  0
  5 10  2  0  0  0  0
  5  6  1  0  0  0  0
  6  2  2  0  0  0  0
  7 16  1  0  0  0  0
  8  3  2  0  0  0  0
 11 15  1  0  0  0  0
 12 18  2  0  0  0  0
 15 21  1  1  0  0  0
 15 14  1  0  0  0  0
 16  9  1  0  0  0  0
 16 26  1  0  0  0  0
 17  7  2  0  0  0  0
 17  4  1  0  0  0  0
 18 11  1  0  0  0  0
 19 25  1  0  0  0  0
 20 19  2  0  0  0  0
 21 23  2  0  0  0  0
 22 20  1  0  0  0  0
 23 19  1  0  0  0  0
 24 22  2  0  0  0  0
 24 21  1  0  0  0  0
 26 27  1  0  0  0  0
 29 27  1  6  0  0  0
 29 30  1  0  0  0  0
 29 33  1  0  0  0  0
 30 28  1  6  0  0  0
 30 34  1  0  0  0  0
 31 32  1  0  0  0  0
 33 32  1  0  0  0  0
 34 31  1  0  0  0  0
M  END
>  <MODEL>
9

>  <REMARK>
 VINA RESULT:      -4.7      3.593      7.867
  Name = 
  4 active torsions:
  status: ('A' for Active; 'I' for Inactive)
    1  A    between atoms: C_3  and  C_13
    2  A    between atoms: C_3  and  C_17
    3  A    between atoms: C_12  and  C_28
    4  A    between atoms: C_17  and  N_29
                            x       y       z     vdW  Elec       q    Type
                         _______ _______ _______ _____ _____    ______ ____

>  <TORSDO>
F 4

$$$$
