=
 OpenBabel11052422393D

 31 34  0  0  1  0  0  0  0  0999 V2000
  160.5060  202.9880  152.1530 C   0  0  0  0  0  0  0  0  0  0  0  0
  161.3610  206.5460  151.1710 C   0  0  0  0  0  0  0  0  0  0  0  0
  161.2480  207.2480  152.4070 C   0  0  0  0  0  0  0  0  0  0  0  0
  160.8900  207.6260  154.6320 N   0  0  0  0  0  0  0  0  0  0  0  0
  161.1130  205.1260  151.1130 C   0  0  0  0  0  0  0  0  0  0  0  0
  160.6400  202.3340  150.9320 C   0  0  0  0  0  3  0  0  0  0  0  0
  160.9140  206.7030  153.6500 C   0  0  0  0  0  3  0  0  0  0  0  0
  161.8280  206.4250  148.7570 C   0  0  0  0  0  0  0  0  0  0  0  0
  160.1510  202.2920  153.2590 F   0  0  0  0  0  0  0  0  0  0  0  0
  162.0290  209.6260  150.5460 C   0  0  0  0  0  3  0  0  0  0  0  0
  161.2070  208.7950  154.0600 C   0  0  0  0  0  0  0  0  0  0  0  0
  161.5900  205.0980  148.7660 N   0  0  0  0  0  0  0  0  0  0  0  0
  161.7260  207.1950  149.9390 C   0  0  0  0  0  0  0  0  0  0  0  0
  160.7410  204.3610  152.2370 C   0  0  0  0  0  3  0  0  0  0  0  0
  161.2860  210.0170  154.7870 N   0  0  0  0  0  1  0  0  0  0  0  0
  161.2390  204.4370  149.8830 C   0  0  0  0  0  0  0  0  0  0  0  0
  161.0050  203.0600  149.8000 C   0  0  0  0  0  3  0  0  0  0  0  0
  161.9890  208.5210  149.7700 N   0  0  0  0  0  0  0  0  0  0  0  0
  161.7830  209.7050  151.8930 C   0  0  0  0  0  3  0  0  0  0  0  0
  161.4410  208.6610  152.7130 C   0  0  0  0  0  0  0  0  0  0  0  0
  162.2340  207.0470  147.4530 C   0  0  0  0  0  2  0  0  0  0  0  0
  159.9150  206.4440  145.7310 C   0  0  0  0  0  1  0  0  0  0  0  0
  163.3680  205.3450  146.2370 O   0  0  0  0  0  0  0  0  0  0  0  0
  162.3060  206.0110  146.3740 C   0  0  0  0  0  0  0  0  0  0  0  0
  161.1900  205.7710  145.5030 N   0  0  0  0  0  0  0  0  0  0  0  0
  161.3510  205.5940  143.0650 C   0  0  0  0  0  1  0  0  0  0  0  0
  161.3320  204.8400  144.3820 C   0  0  2  0  0  3  0  0  0  0  0  0
  160.2160  203.8010  144.3740 C   0  0  0  0  0  2  0  0  0  0  0  0
  160.5620  202.6260  145.2300 C   0  0  0  0  0  0  0  0  0  0  0  0
  159.9500  201.2990  144.9460 C   0  0  0  0  0  1  0  0  0  0  0  0
  161.3190  202.7540  146.1800 O   0  0  0  0  0  0  0  0  0  0  0  0
  1 14  1  0  0  0  0
  1  9  1  0  0  0  0
  2  3  1  0  0  0  0
  3 20  1  0  0  0  0
  3  7  2  0  0  0  0
  5  2  1  0  0  0  0
  5 14  2  0  0  0  0
  6  1  2  0  0  0  0
  7  4  1  0  0  0  0
  8 12  2  0  0  0  0
  8 13  1  0  0  0  0
 10 19  1  0  0  0  0
 11  4  2  0  0  0  0
 11 15  1  0  0  0  0
 12 16  1  0  0  0  0
 13  2  2  0  0  0  0
 16  5  1  0  0  0  0
 17 16  2  0  0  0  0
 17  6  1  0  0  0  0
 18 13  1  0  0  0  0
 18 10  2  0  0  0  0
 19 20  2  0  0  0  0
 20 11  1  0  0  0  0
 21  8  1  0  0  0  0
 23 24  2  0  0  0  0
 24 21  1  0  0  0  0
 25 22  1  0  0  0  0
 25 24  1  0  0  0  0
 27 26  1  6  0  0  0
 27 25  1  0  0  0  0
 28 27  1  0  0  0  0
 28 29  1  0  0  0  0
 29 31  2  0  0  0  0
 30 29  1  0  0  0  0
M  END
>  <MODEL>
1

>  <REMARK>
 VINA RESULT:      -8.3      0.000      0.000
  Name = 
  5 active torsions:
  status: ('A' for Active; 'I' for Inactive)
    1  A    between atoms: C_1  and  C_24
    2  A    between atoms: C_9  and  C_23
    3  A    between atoms: C_15  and  C_23
    4  A    between atoms: C_19  and  N_22
    5  A    between atoms: C_19  and  C_24
                            x       y       z     vdW  Elec       q    Type
                         _______ _______ _______ _____ _____    ______ ____

>  <TORSDO>
F 5

$$$$
=
 OpenBabel11052422393D

 31 34  0  0  1  0  0  0  0  0999 V2000
  161.9160  210.9570  149.5990 C   0  0  0  0  0  0  0  0  0  0  0  0
  161.1220  208.7520  152.5750 C   0  0  0  0  0  0  0  0  0  0  0  0
  160.8280  209.7010  153.5990 C   0  0  0  0  0  0  0  0  0  0  0  0
  160.5130  211.7190  154.6250 N   0  0  0  0  0  0  0  0  0  0  0  0
  161.4770  209.1960  151.2500 C   0  0  0  0  0  0  0  0  0  0  0  0
  162.1810  210.0030  148.6230 C   0  0  0  0  0  3  0  0  0  0  0  0
  160.8350  211.0940  153.4750 C   0  0  0  0  0  3  0  0  0  0  0  0
  161.3680  206.4560  151.7270 C   0  0  0  0  0  0  0  0  0  0  0  0
  161.9930  212.2760  149.2970 F   0  0  0  0  0  0  0  0  0  0  0  0
  160.4380  207.0690  155.2250 C   0  0  0  0  0  3  0  0  0  0  0  0
  160.2880  210.7570  155.5280 C   0  0  0  0  0  0  0  0  0  0  0  0
  161.6890  206.9290  150.5050 N   0  0  0  0  0  0  0  0  0  0  0  0
  161.0750  207.3310  152.7980 C   0  0  0  0  0  0  0  0  0  0  0  0
  161.5690  210.5560  150.8900 C   0  0  0  0  0  3  0  0  0  0  0  0
  159.9190  211.0310  156.8760 N   0  0  0  0  0  1  0  0  0  0  0  0
  161.7550  208.2460  150.2380 C   0  0  0  0  0  0  0  0  0  0  0  0
  162.1010  208.6490  148.9440 C   0  0  0  0  0  3  0  0  0  0  0  0
  160.7760  206.7040  153.9700 N   0  0  0  0  0  0  0  0  0  0  0  0
  160.2860  208.3440  155.7090 C   0  0  0  0  0  3  0  0  0  0  0  0
  160.4550  209.5010  154.9950 C   0  0  0  0  0  0  0  0  0  0  0  0
  161.3040  204.9660  151.8960 C   0  0  0  0  0  2  0  0  0  0  0  0
  161.6940  202.0920  151.3520 C   0  0  0  0  0  1  0  0  0  0  0  0
  160.1500  205.0330  149.8170 O   0  0  0  0  0  0  0  0  0  0  0  0
  160.7500  204.3180  150.6650 C   0  0  0  0  0  0  0  0  0  0  0  0
  160.8930  202.9060  150.4430 N   0  0  0  0  0  0  0  0  0  0  0  0
  159.2880  201.1900  149.7510 C   0  0  0  0  0  1  0  0  0  0  0  0
  160.2360  202.2830  149.2920 C   0  0  2  0  0  3  0  0  0  0  0  0
  161.2530  201.7150  148.3090 C   0  0  0  0  0  2  0  0  0  0  0  0
  161.2480  202.4750  147.0220 C   0  0  0  0  0  0  0  0  0  0  0  0
  161.6700  203.9020  147.0040 C   0  0  0  0  0  1  0  0  0  0  0  0
  160.8690  201.9410  145.9900 O   0  0  0  0  0  0  0  0  0  0  0  0
  1 14  1  0  0  0  0
  2 13  2  0  0  0  0
  2  3  1  0  0  0  0
  3 20  1  0  0  0  0
  4 11  2  0  0  0  0
  5  2  1  0  0  0  0
  6 17  1  0  0  0  0
  6  1  2  0  0  0  0
  7  3  2  0  0  0  0
  7  4  1  0  0  0  0
  8 21  1  0  0  0  0
  8 13  1  0  0  0  0
  9  1  1  0  0  0  0
 10 19  1  0  0  0  0
 11 15  1  0  0  0  0
 12  8  2  0  0  0  0
 13 18  1  0  0  0  0
 14  5  2  0  0  0  0
 16 12  1  0  0  0  0
 16  5  1  0  0  0  0
 17 16  2  0  0  0  0
 18 10  2  0  0  0  0
 20 11  1  0  0  0  0
 20 19  2  0  0  0  0
 23 24  2  0  0  0  0
 24 21  1  0  0  0  0
 25 24  1  0  0  0  0
 25 22  1  0  0  0  0
 27 26  1  1  0  0  0
 27 25  1  0  0  0  0
 28 27  1  0  0  0  0
 29 28  1  0  0  0  0
 30 29  1  0  0  0  0
 31 29  2  0  0  0  0
M  END
>  <MODEL>
2

>  <REMARK>
 VINA RESULT:      -8.1      2.925      5.170
  Name = 
  5 active torsions:
  status: ('A' for Active; 'I' for Inactive)
    1  A    between atoms: C_1  and  C_24
    2  A    between atoms: C_9  and  C_23
    3  A    between atoms: C_15  and  C_23
    4  A    between atoms: C_19  and  N_22
    5  A    between atoms: C_19  and  C_24
                            x       y       z     vdW  Elec       q    Type
                         _______ _______ _______ _____ _____    ______ ____

>  <TORSDO>
F 5

$$$$
=
 OpenBabel11052422393D

 31 34  0  0  1  0  0  0  0  0999 V2000
  161.5450  205.3610  148.6670 C   0  0  0  0  0  0  0  0  0  0  0  0
  161.4420  208.2670  151.0960 C   0  0  0  0  0  0  0  0  0  0  0  0
  161.2100  207.6220  152.3470 C   0  0  0  0  0  0  0  0  0  0  0  0
  160.8630  205.9490  153.8630 N   0  0  0  0  0  0  0  0  0  0  0  0
  161.5540  207.4910  149.8850 C   0  0  0  0  0  0  0  0  0  0  0  0
  161.7850  206.0240  147.4680 C   0  0  0  0  0  3  0  0  0  0  0  0
  161.0750  206.2490  152.5670 C   0  0  0  0  0  3  0  0  0  0  0  0
  161.8210  210.2560  149.6960 C   0  0  0  0  0  0  0  0  0  0  0  0
  161.4210  204.0120  148.6850 F   0  0  0  0  0  0  0  0  0  0  0  0
  161.2930  210.5860  153.3150 C   0  0  0  0  0  3  0  0  0  0  0  0
  160.8540  207.1140  154.5240 C   0  0  0  0  0  0  0  0  0  0  0  0
  161.9230  209.4780  148.5990 N   0  0  0  0  0  0  0  0  0  0  0  0
  161.5810  209.6950  150.9720 C   0  0  0  0  0  0  0  0  0  0  0  0
  161.4320  206.0870  149.8540 C   0  0  0  0  0  3  0  0  0  0  0  0
  160.6560  207.2040  155.9320 N   0  0  0  0  0  1  0  0  0  0  0  0
  161.7960  208.1400  148.6510 C   0  0  0  0  0  0  0  0  0  0  0  0
  161.9100  207.4110  147.4620 C   0  0  0  0  0  3  0  0  0  0  0  0
  161.4970  210.6070  151.9800 N   0  0  0  0  0  0  0  0  0  0  0  0
  161.0920  209.4850  154.1090 C   0  0  0  0  0  3  0  0  0  0  0  0
  161.0570  208.1820  153.6850 C   0  0  0  0  0  0  0  0  0  0  0  0
  162.0040  211.7340  149.5150 C   0  0  0  0  0  2  0  0  0  0  0  0
  160.0600  212.7870  147.5600 C   0  0  0  0  0  1  0  0  0  0  0  0
  163.5810  211.8060  147.7360 O   0  0  0  0  0  0  0  0  0  0  0  0
  162.4000  212.0490  148.1060 C   0  0  0  0  0  0  0  0  0  0  0  0
  161.4600  212.6190  147.1830 N   0  0  0  0  0  0  0  0  0  0  0  0
  162.4320  214.4530  145.8810 C   0  0  0  0  0  1  0  0  0  0  0  0
  161.9100  213.0280  145.8500 C   0  0  2  0  0  3  0  0  0  0  0  0
  160.7920  212.9020  144.8210 C   0  0  0  0  0  2  0  0  0  0  0  0
  161.3140  212.4130  143.5090 C   0  0  0  0  0  0  0  0  0  0  0  0
  160.3910  211.7540  142.5450 C   0  0  0  0  0  1  0  0  0  0  0  0
  162.5000  212.5240  143.2350 O   0  0  0  0  0  0  0  0  0  0  0  0
  1  9  1  0  0  0  0
  1 14  1  0  0  0  0
  2  3  1  0  0  0  0
  3  7  2  0  0  0  0
  3 20  1  0  0  0  0
  4 11  2  0  0  0  0
  5  2  1  0  0  0  0
  6  1  2  0  0  0  0
  7  4  1  0  0  0  0
  8 13  1  0  0  0  0
 10 19  1  0  0  0  0
 11 15  1  0  0  0  0
 12 16  1  0  0  0  0
 12  8  2  0  0  0  0
 13  2  2  0  0  0  0
 13 18  1  0  0  0  0
 14  5  2  0  0  0  0
 16  5  1  0  0  0  0
 17  6  1  0  0  0  0
 17 16  2  0  0  0  0
 18 10  2  0  0  0  0
 20 19  2  0  0  0  0
 20 11  1  0  0  0  0
 21  8  1  0  0  0  0
 23 24  2  0  0  0  0
 24 21  1  0  0  0  0
 25 22  1  0  0  0  0
 25 24  1  0  0  0  0
 27 26  1  1  0  0  0
 27 25  1  0  0  0  0
 28 27  1  0  0  0  0
 29 28  1  0  0  0  0
 30 29  1  0  0  0  0
 31 29  2  0  0  0  0
M  END
>  <MODEL>
3

>  <REMARK>
 VINA RESULT:      -8.0      3.728      5.624
  Name = 
  5 active torsions:
  status: ('A' for Active; 'I' for Inactive)
    1  A    between atoms: C_1  and  C_24
    2  A    between atoms: C_9  and  C_23
    3  A    between atoms: C_15  and  C_23
    4  A    between atoms: C_19  and  N_22
    5  A    between atoms: C_19  and  C_24
                            x       y       z     vdW  Elec       q    Type
                         _______ _______ _______ _____ _____    ______ ____

>  <TORSDO>
F 5

$$$$
=
 OpenBabel11052422393D

 31 34  0  0  1  0  0  0  0  0999 V2000
  160.9750  203.6480  149.6640 C   0  0  0  0  0  0  0  0  0  0  0  0
  161.5060  206.9990  151.3490 C   0  0  0  0  0  0  0  0  0  0  0  0
  161.6570  207.8860  150.2420 C   0  0  0  0  0  0  0  0  0  0  0  0
  161.7790  208.6130  148.0800 N   0  0  0  0  0  0  0  0  0  0  0  0
  161.2760  205.5930  151.1300 C   0  0  0  0  0  0  0  0  0  0  0  0
  160.8190  202.8160  150.7680 C   0  0  0  0  0  3  0  0  0  0  0  0
  161.5990  207.5490  148.8870 C   0  0  0  0  0  3  0  0  0  0  0  0
  161.3970  206.5040  153.7580 C   0  0  0  0  0  0  0  0  0  0  0  0
  160.9080  203.1340  148.4130 F   0  0  0  0  0  0  0  0  0  0  0  0
  161.9990  209.9280  152.5750 C   0  0  0  0  0  3  0  0  0  0  0  0
  161.9570  209.6700  148.8810 C   0  0  0  0  0  0  0  0  0  0  0  0
  161.1780  205.2000  153.4910 N   0  0  0  0  0  0  0  0  0  0  0  0
  161.5680  207.4460  152.7160 C   0  0  0  0  0  0  0  0  0  0  0  0
  161.1990  205.0130  149.8480 C   0  0  0  0  0  3  0  0  0  0  0  0
  162.1780  210.9880  148.3870 N   0  0  0  0  0  1  0  0  0  0  0  0
  161.1160  204.7230  152.2350 C   0  0  0  0  0  0  0  0  0  0  0  0
  160.8900  203.3540  152.0510 C   0  0  0  0  0  3  0  0  0  0  0  0
  161.7880  208.7210  153.1430 N   0  0  0  0  0  0  0  0  0  0  0  0
  162.0510  210.2200  151.2350 C   0  0  0  0  0  3  0  0  0  0  0  0
  161.8990  209.3240  150.2090 C   0  0  0  0  0  0  0  0  0  0  0  0
  161.4220  206.9210  155.1990 C   0  0  0  0  0  2  0  0  0  0  0  0
  161.8170  209.6460  156.2620 C   0  0  0  0  0  1  0  0  0  0  0  0
  159.0930  207.3750  155.3630 O   0  0  0  0  0  0  0  0  0  0  0  0
  160.2640  207.8180  155.5100 C   0  0  0  0  0  0  0  0  0  0  0  0
  160.4720  209.1630  155.9670 N   0  0  0  0  0  0  0  0  0  0  0  0
  159.0040  210.7740  154.8480 C   0  0  0  0  0  1  0  0  0  0  0  0
  159.3230  210.0540  156.1450 C   0  0  2  0  0  3  0  0  0  0  0  0
  159.5690  211.0650  157.2590 C   0  0  0  0  0  2  0  0  0  0  0  0
  158.8140  212.3330  157.0180 C   0  0  0  0  0  0  0  0  0  0  0  0
  159.5570  213.6020  156.7880 C   0  0  0  0  0  1  0  0  0  0  0  0
  157.5930  212.3400  157.0390 O   0  0  0  0  0  0  0  0  0  0  0  0
  1 14  2  0  0  0  0
  1  6  1  0  0  0  0
  2 13  1  0  0  0  0
  3  2  1  0  0  0  0
  4 11  2  0  0  0  0
  4  7  1  0  0  0  0
  5  2  2  0  0  0  0
  5 16  1  0  0  0  0
  6 17  2  0  0  0  0
  7  3  2  0  0  0  0
  8 21  1  0  0  0  0
  9  1  1  0  0  0  0
 10 18  2  0  0  0  0
 11 20  1  0  0  0  0
 12  8  1  0  0  0  0
 13 18  1  0  0  0  0
 13  8  2  0  0  0  0
 14  5  1  0  0  0  0
 15 11  1  0  0  0  0
 16 12  2  0  0  0  0
 17 16  1  0  0  0  0
 19 10  1  0  0  0  0
 20  3  1  0  0  0  0
 20 19  2  0  0  0  0
 21 24  1  0  0  0  0
 23 24  2  0  0  0  0
 24 25  1  0  0  0  0
 25 27  1  0  0  0  0
 25 22  1  0  0  0  0
 27 26  1  6  0  0  0
 27 28  1  0  0  0  0
 29 31  2  0  0  0  0
 29 28  1  0  0  0  0
 30 29  1  0  0  0  0
M  END
>  <MODEL>
4

>  <REMARK>
 VINA RESULT:      -7.5      3.907      8.208
  Name = 
  5 active torsions:
  status: ('A' for Active; 'I' for Inactive)
    1  A    between atoms: C_1  and  C_24
    2  A    between atoms: C_9  and  C_23
    3  A    between atoms: C_15  and  C_23
    4  A    between atoms: C_19  and  N_22
    5  A    between atoms: C_19  and  C_24
                            x       y       z     vdW  Elec       q    Type
                         _______ _______ _______ _____ _____    ______ ____

>  <TORSDO>
F 5

$$$$
=
 OpenBabel11052422393D

 31 34  0  0  1  0  0  0  0  0999 V2000
  161.9530  209.6110  149.1530 C   0  0  0  0  0  0  0  0  0  0  0  0
  161.3600  206.3280  150.9480 C   0  0  0  0  0  0  0  0  0  0  0  0
  161.3090  205.3890  149.8760 C   0  0  0  0  0  0  0  0  0  0  0  0
  161.3630  204.5640  147.7460 N   0  0  0  0  0  0  0  0  0  0  0  0
  161.5790  207.7280  150.6820 C   0  0  0  0  0  0  0  0  0  0  0  0
  162.0100  210.4950  150.2260 C   0  0  0  0  0  3  0  0  0  0  0  0
  161.4620  205.6660  148.5140 C   0  0  0  0  0  3  0  0  0  0  0  0
  161.2780  206.9330  153.3320 C   0  0  0  0  0  0  0  0  0  0  0  0
  162.1040  210.0690  147.8880 F   0  0  0  0  0  0  0  0  0  0  0  0
  160.8310  203.4470  152.2690 C   0  0  0  0  0  3  0  0  0  0  0  0
  161.1450  203.5400  148.5810 C   0  0  0  0  0  0  0  0  0  0  0  0
  161.4930  208.2290  153.0230 N   0  0  0  0  0  0  0  0  0  0  0  0
  161.2040  205.9420  152.3260 C   0  0  0  0  0  0  0  0  0  0  0  0
  161.7420  208.2510  149.3830 C   0  0  0  0  0  3  0  0  0  0  0  0
  160.9860  202.1970  148.1340 N   0  0  0  0  0  1  0  0  0  0  0  0
  161.6390  208.6500  151.7540 C   0  0  0  0  0  0  0  0  0  0  0  0
  161.8530  210.0140  151.5240 C   0  0  0  0  0  3  0  0  0  0  0  0
  160.9760  204.6830  152.7940 N   0  0  0  0  0  0  0  0  0  0  0  0
  160.8850  203.0940  150.9440 C   0  0  0  0  0  3  0  0  0  0  0  0
  161.0970  203.9460  149.8920 C   0  0  0  0  0  0  0  0  0  0  0  0
  161.1530  206.5810  154.7860 C   0  0  0  0  0  2  0  0  0  0  0  0
  162.1630  208.8290  156.4100 C   0  0  0  0  0  1  0  0  0  0  0  0
  158.9810  207.3230  155.4110 O   0  0  0  0  0  0  0  0  0  0  0  0
  160.2240  207.5280  155.4800 C   0  0  0  0  0  0  0  0  0  0  0  0
  160.7270  208.6540  156.2160 N   0  0  0  0  0  0  0  0  0  0  0  0
  158.7290  209.9970  155.7600 C   0  0  0  0  0  1  0  0  0  0  0  0
  159.7900  209.6280  156.7800 C   0  0  2  0  0  3  0  0  0  0  0  0
  160.5130  210.8820  157.2610 C   0  0  0  0  0  2  0  0  0  0  0  0
  160.4110  211.9850  156.2580 C   0  0  0  0  0  0  0  0  0  0  0  0
  159.7570  213.2680  156.6330 C   0  0  0  0  0  1  0  0  0  0  0  0
  160.8350  211.8300  155.1220 O   0  0  0  0  0  0  0  0  0  0  0  0
  1 14  2  0  0  0  0
  1  6  1  0  0  0  0
  2 13  1  0  0  0  0
  3 20  1  0  0  0  0
  3  2  2  0  0  0  0
  4  7  2  0  0  0  0
  4 11  1  0  0  0  0
  5  2  1  0  0  0  0
  5 16  2  0  0  0  0
  6 17  2  0  0  0  0
  7  3  1  0  0  0  0
  8 21  1  0  0  0  0
  9  1  1  0  0  0  0
 10 18  1  0  0  0  0
 11 20  2  0  0  0  0
 12  8  2  0  0  0  0
 13 18  2  0  0  0  0
 13  8  1  0  0  0  0
 14  5  1  0  0  0  0
 15 11  1  0  0  0  0
 16 12  1  0  0  0  0
 17 16  1  0  0  0  0
 19 10  2  0  0  0  0
 20 19  1  0  0  0  0
 21 24  1  0  0  0  0
 23 24  2  0  0  0  0
 24 25  1  0  0  0  0
 25 22  1  0  0  0  0
 25 27  1  0  0  0  0
 27 26  1  6  0  0  0
 27 28  1  0  0  0  0
 29 30  1  0  0  0  0
 29 28  1  0  0  0  0
 31 29  2  0  0  0  0
M  END
>  <MODEL>
5

>  <REMARK>
 VINA RESULT:      -7.3      3.893      9.006
  Name = 
  5 active torsions:
  status: ('A' for Active; 'I' for Inactive)
    1  A    between atoms: C_1  and  C_24
    2  A    between atoms: C_9  and  C_23
    3  A    between atoms: C_15  and  C_23
    4  A    between atoms: C_19  and  N_22
    5  A    between atoms: C_19  and  C_24
                            x       y       z     vdW  Elec       q    Type
                         _______ _______ _______ _____ _____    ______ ____

>  <TORSDO>
F 5

$$$$
=
 OpenBabel11052422393D

 31 34  0  0  1  0  0  0  0  0999 V2000
  160.8960  201.3630  150.1940 C   0  0  0  0  0  0  0  0  0  0  0  0
  161.2380  204.8910  148.8580 C   0  0  0  0  0  0  0  0  0  0  0  0
  161.2990  204.6880  147.4470 C   0  0  0  0  0  0  0  0  0  0  0  0
  161.3150  203.6010  145.4380 N   0  0  0  0  0  0  0  0  0  0  0  0
  161.1000  203.7680  149.7510 C   0  0  0  0  0  0  0  0  0  0  0  0
  160.8260  201.6010  151.5630 C   0  0  0  0  0  3  0  0  0  0  0  0
  161.2300  203.4640  146.7760 C   0  0  0  0  0  3  0  0  0  0  0  0
  161.2260  206.3160  150.8640 C   0  0  0  0  0  0  0  0  0  0  0  0
  160.8330  200.0950  149.7230 F   0  0  0  0  0  0  0  0  0  0  0  0
  161.5590  207.7950  147.5200 C   0  0  0  0  0  3  0  0  0  0  0  0
  161.4410  204.9120  145.1990 C   0  0  0  0  0  0  0  0  0  0  0  0
  161.0900  205.2280  151.6500 N   0  0  0  0  0  0  0  0  0  0  0  0
  161.3040  206.1980  149.4570 C   0  0  0  0  0  0  0  0  0  0  0  0
  161.0300  202.4320  149.3070 C   0  0  0  0  0  3  0  0  0  0  0  0
  161.5580  205.4520  143.8860 N   0  0  0  0  0  1  0  0  0  0  0  0
  161.0290  203.9810  151.1490 C   0  0  0  0  0  0  0  0  0  0  0  0
  160.8930  202.9090  152.0380 C   0  0  0  0  0  3  0  0  0  0  0  0
  161.4470  207.3840  148.8020 N   0  0  0  0  0  0  0  0  0  0  0  0
  161.5570  207.0130  146.3920 C   0  0  0  0  0  3  0  0  0  0  0  0
  161.4400  205.6480  146.3590 C   0  0  0  0  0  0  0  0  0  0  0  0
  161.2590  207.6560  151.5390 C   0  0  0  0  0  2  0  0  0  0  0  0
  160.2740  209.7290  153.3950 C   0  0  0  0  0  1  0  0  0  0  0  0
  161.9500  206.4770  153.4860 O   0  0  0  0  0  0  0  0  0  0  0  0
  161.3710  207.4980  153.0240 C   0  0  0  0  0  0  0  0  0  0  0  0
  160.8320  208.4850  153.9160 N   0  0  0  0  0  0  0  0  0  0  0  0
  159.8180  207.1930  155.7350 C   0  0  0  0  0  1  0  0  0  0  0  0
  160.8490  208.2420  155.3600 C   0  0  2  0  0  3  0  0  0  0  0  0
  160.5980  209.5260  156.1440 C   0  0  0  0  0  2  0  0  0  0  0  0
  161.8420  210.0000  156.8220 C   0  0  0  0  0  0  0  0  0  0  0  0
  162.0480  211.4560  157.0560 C   0  0  0  0  0  1  0  0  0  0  0  0
  162.7060  209.2040  157.1590 O   0  0  0  0  0  0  0  0  0  0  0  0
  1  6  1  0  0  0  0
  2 13  2  0  0  0  0
  2  5  1  0  0  0  0
  3  2  1  0  0  0  0
  4  7  1  0  0  0  0
  5 16  2  0  0  0  0
  6 17  2  0  0  0  0
  7  3  2  0  0  0  0
  8 21  1  0  0  0  0
  8 12  2  0  0  0  0
  9  1  1  0  0  0  0
 10 18  2  0  0  0  0
 11  4  2  0  0  0  0
 11 20  1  0  0  0  0
 13  8  1  0  0  0  0
 14  5  1  0  0  0  0
 14  1  2  0  0  0  0
 15 11  1  0  0  0  0
 16 12  1  0  0  0  0
 16 17  1  0  0  0  0
 18 13  1  0  0  0  0
 19 10  1  0  0  0  0
 20 19  2  0  0  0  0
 20  3  1  0  0  0  0
 21 24  1  0  0  0  0
 22 25  1  0  0  0  0
 24 23  2  0  0  0  0
 24 25  1  0  0  0  0
 25 27  1  0  0  0  0
 27 26  1  6  0  0  0
 27 28  1  0  0  0  0
 28 29  1  0  0  0  0
 29 30  1  0  0  0  0
 29 31  2  0  0  0  0
M  END
>  <MODEL>
6

>  <REMARK>
 VINA RESULT:      -7.3      3.059      7.919
  Name = 
  5 active torsions:
  status: ('A' for Active; 'I' for Inactive)
    1  A    between atoms: C_1  and  C_24
    2  A    between atoms: C_9  and  C_23
    3  A    between atoms: C_15  and  C_23
    4  A    between atoms: C_19  and  N_22
    5  A    between atoms: C_19  and  C_24
                            x       y       z     vdW  Elec       q    Type
                         _______ _______ _______ _____ _____    ______ ____

>  <TORSDO>
F 5

$$$$
=
 OpenBabel11052422393D

 31 34  0  0  1  0  0  0  0  0999 V2000
  160.8200  207.7190  153.9000 C   0  0  0  0  0  0  0  0  0  0  0  0
  161.3660  206.9440  150.2320 C   0  0  0  0  0  0  0  0  0  0  0  0
  161.1260  205.5390  150.1690 C   0  0  0  0  0  0  0  0  0  0  0  0
  160.6100  203.4210  150.8520 N   0  0  0  0  0  0  0  0  0  0  0  0
  161.2540  207.6470  151.4860 C   0  0  0  0  0  0  0  0  0  0  0  0
  161.0480  209.0910  153.9200 C   0  0  0  0  0  3  0  0  0  0  0  0
  160.7660  204.7050  151.2310 C   0  0  0  0  0  3  0  0  0  0  0  0
  161.9300  209.1150  149.2190 C   0  0  0  0  0  0  0  0  0  0  0  0
  160.4990  207.0680  155.0430 F   0  0  0  0  0  0  0  0  0  0  0  0
  161.8080  206.0690  147.1720 C   0  0  0  0  0  3  0  0  0  0  0  0
  160.8610  203.3820  149.5380 C   0  0  0  0  0  0  0  0  0  0  0  0
  161.8040  209.7200  150.4180 N   0  0  0  0  0  0  0  0  0  0  0  0
  161.7200  207.7240  149.0750 C   0  0  0  0  0  0  0  0  0  0  0  0
  160.9220  207.0130  152.7000 C   0  0  0  0  0  3  0  0  0  0  0  0
  160.7940  202.1820  148.7720 N   0  0  0  0  0  1  0  0  0  0  0  0
  161.4830  209.0430  151.5350 C   0  0  0  0  0  0  0  0  0  0  0  0
  161.3790  209.7510  152.7380 C   0  0  0  0  0  3  0  0  0  0  0  0
  161.8900  207.2580  147.8060 N   0  0  0  0  0  0  0  0  0  0  0  0
  161.4840  204.8540  147.7220 C   0  0  0  0  0  3  0  0  0  0  0  0
  161.1820  204.6200  149.0380 C   0  0  0  0  0  0  0  0  0  0  0  0
  162.2710  209.9790  148.0410 C   0  0  0  0  0  2  0  0  0  0  0  0
  160.2120  211.4400  146.5130 C   0  0  0  0  0  1  0  0  0  0  0  0
  162.6180  212.0230  149.2080 O   0  0  0  0  0  0  0  0  0  0  0  0
  161.9510  211.4130  148.3280 C   0  0  0  0  0  0  0  0  0  0  0  0
  160.9040  212.0940  147.6190 N   0  0  0  0  0  0  0  0  0  0  0  0
  161.7220  214.3910  147.8610 C   0  0  0  0  0  1  0  0  0  0  0  0
  160.5340  213.4570  148.0070 C   0  0  2  0  0  3  0  0  0  0  0  0
  160.0030  213.5060  149.4350 C   0  0  0  0  0  2  0  0  0  0  0  0
  158.5460  213.8390  149.4610 C   0  0  0  0  0  0  0  0  0  0  0  0
  157.8230  214.0960  148.1860 C   0  0  0  0  0  1  0  0  0  0  0  0
  157.9520  213.9330  150.5250 O   0  0  0  0  0  0  0  0  0  0  0  0
  1  6  1  0  0  0  0
  1  9  1  0  0  0  0
  2  5  1  0  0  0  0
  3  2  1  0  0  0  0
  3  7  2  0  0  0  0
  4  7  1  0  0  0  0
  5 16  2  0  0  0  0
  5 14  1  0  0  0  0
  8 12  2  0  0  0  0
 10 19  1  0  0  0  0
 10 18  2  0  0  0  0
 11  4  2  0  0  0  0
 12 16  1  0  0  0  0
 13  8  1  0  0  0  0
 13  2  2  0  0  0  0
 14  1  2  0  0  0  0
 15 11  1  0  0  0  0
 16 17  1  0  0  0  0
 17  6  2  0  0  0  0
 18 13  1  0  0  0  0
 19 20  2  0  0  0  0
 20 11  1  0  0  0  0
 20  3  1  0  0  0  0
 21 24  1  0  0  0  0
 21  8  1  0  0  0  0
 22 25  1  0  0  0  0
 24 23  2  0  0  0  0
 25 27  1  0  0  0  0
 25 24  1  0  0  0  0
 27 26  1  1  0  0  0
 27 28  1  0  0  0  0
 28 29  1  0  0  0  0
 29 31  2  0  0  0  0
 30 29  1  0  0  0  0
M  END
>  <MODEL>
7

>  <REMARK>
 VINA RESULT:      -7.3      3.787      6.923
  Name = 
  5 active torsions:
  status: ('A' for Active; 'I' for Inactive)
    1  A    between atoms: C_1  and  C_24
    2  A    between atoms: C_9  and  C_23
    3  A    between atoms: C_15  and  C_23
    4  A    between atoms: C_19  and  N_22
    5  A    between atoms: C_19  and  C_24
                            x       y       z     vdW  Elec       q    Type
                         _______ _______ _______ _____ _____    ______ ____

>  <TORSDO>
F 5

$$$$
=
 OpenBabel11052422393D

 31 34  0  0  1  0  0  0  0  0999 V2000
  161.0550  206.0630  153.4310 C   0  0  0  0  0  0  0  0  0  0  0  0
  161.4210  206.2350  149.6640 C   0  0  0  0  0  0  0  0  0  0  0  0
  161.2390  204.8760  149.2680 C   0  0  0  0  0  0  0  0  0  0  0  0
  160.8560  202.6300  149.4330 N   0  0  0  0  0  0  0  0  0  0  0  0
  161.3510  206.6050  151.0560 C   0  0  0  0  0  0  0  0  0  0  0  0
  161.2230  207.4000  153.7760 C   0  0  0  0  0  3  0  0  0  0  0  0
  160.9780  203.7890  150.1080 C   0  0  0  0  0  3  0  0  0  0  0  0
  161.8300  208.6150  149.1900 C   0  0  0  0  0  0  0  0  0  0  0  0
  160.8290  205.1360  154.3920 F   0  0  0  0  0  0  0  0  0  0  0  0
  161.7220  206.1560  146.4660 C   0  0  0  0  0  3  0  0  0  0  0  0
  161.0320  202.9250  148.1390 C   0  0  0  0  0  0  0  0  0  0  0  0
  161.7470  208.9020  150.5060 N   0  0  0  0  0  0  0  0  0  0  0  0
  161.6720  207.2910  148.7190 C   0  0  0  0  0  0  0  0  0  0  0  0
  161.1180  205.6770  152.0910 C   0  0  0  0  0  3  0  0  0  0  0  0
  160.9730  201.9460  147.1060 N   0  0  0  0  0  1  0  0  0  0  0  0
  161.5210  207.9570  151.4360 C   0  0  0  0  0  0  0  0  0  0  0  0
  161.4560  208.3440  152.7790 C   0  0  0  0  0  3  0  0  0  0  0  0
  161.7890  207.1590  147.3680 N   0  0  0  0  0  0  0  0  0  0  0  0
  161.4830  204.8280  146.7140 C   0  0  0  0  0  3  0  0  0  0  0  0
  161.2690  204.2640  147.9450 C   0  0  0  0  0  0  0  0  0  0  0  0
  162.0630  209.7570  148.2460 C   0  0  0  0  0  2  0  0  0  0  0  0
  160.4850  211.8460  146.8850 C   0  0  0  0  0  1  0  0  0  0  0  0
  162.2220  211.2920  150.0570 O   0  0  0  0  0  0  0  0  0  0  0  0
  161.7510  211.0630  148.9100 C   0  0  0  0  0  0  0  0  0  0  0  0
  160.9300  212.0460  148.2600 N   0  0  0  0  0  0  0  0  0  0  0  0
  159.1860  213.7490  148.5100 C   0  0  0  0  0  1  0  0  0  0  0  0
  160.5430  213.2590  148.9830 C   0  0  2  0  0  3  0  0  0  0  0  0
  161.5830  214.3610  148.8200 C   0  0  0  0  0  2  0  0  0  0  0  0
  162.4530  214.1150  147.6300 C   0  0  0  0  0  0  0  0  0  0  0  0
  161.9360  214.4030  146.2640 C   0  0  0  0  0  1  0  0  0  0  0  0
  163.5750  213.6510  147.7690 O   0  0  0  0  0  0  0  0  0  0  0  0
  1  6  1  0  0  0  0
  1  9  1  0  0  0  0
  2  5  1  0  0  0  0
  3  2  1  0  0  0  0
  3  7  2  0  0  0  0
  4  7  1  0  0  0  0
  5 16  2  0  0  0  0
  5 14  1  0  0  0  0
  8 12  2  0  0  0  0
 10 19  1  0  0  0  0
 10 18  2  0  0  0  0
 11  4  2  0  0  0  0
 12 16  1  0  0  0  0
 13  8  1  0  0  0  0
 13  2  2  0  0  0  0
 14  1  2  0  0  0  0
 15 11  1  0  0  0  0
 16 17  1  0  0  0  0
 17  6  2  0  0  0  0
 18 13  1  0  0  0  0
 19 20  2  0  0  0  0
 20 11  1  0  0  0  0
 20  3  1  0  0  0  0
 21 24  1  0  0  0  0
 21  8  1  0  0  0  0
 22 25  1  0  0  0  0
 24 23  2  0  0  0  0
 25 24  1  0  0  0  0
 25 27  1  0  0  0  0
 27 26  1  6  0  0  0
 28 27  1  0  0  0  0
 29 31  2  0  0  0  0
 29 28  1  0  0  0  0
 30 29  1  0  0  0  0
M  END
>  <MODEL>
8

>  <REMARK>
 VINA RESULT:      -6.8      3.441      6.934
  Name = 
  5 active torsions:
  status: ('A' for Active; 'I' for Inactive)
    1  A    between atoms: C_1  and  C_24
    2  A    between atoms: C_9  and  C_23
    3  A    between atoms: C_15  and  C_23
    4  A    between atoms: C_19  and  N_22
    5  A    between atoms: C_19  and  C_24
                            x       y       z     vdW  Elec       q    Type
                         _______ _______ _______ _____ _____    ______ ____

>  <TORSDO>
F 5

$$$$
=
 OpenBabel11052422393D

 31 34  0  0  1  0  0  0  0  0999 V2000
  160.8070  206.7860  154.0460 C   0  0  0  0  0  0  0  0  0  0  0  0
  161.3570  208.9410  150.9800 C   0  0  0  0  0  0  0  0  0  0  0  0
  160.9730  210.2380  151.4340 C   0  0  0  0  0  0  0  0  0  0  0  0
  160.2370  211.8860  152.8340 N   0  0  0  0  0  0  0  0  0  0  0  0
  161.2970  207.8090  151.8700 C   0  0  0  0  0  0  0  0  0  0  0  0
  161.2040  205.5400  153.5710 C   0  0  0  0  0  3  0  0  0  0  0  0
  160.5230  210.5750  152.7140 C   0  0  0  0  0  3  0  0  0  0  0  0
  162.1970  207.3820  149.2710 C   0  0  0  0  0  0  0  0  0  0  0  0
  160.3750  206.9200  155.3230 F   0  0  0  0  0  0  0  0  0  0  0  0
  161.7290  210.9400  148.4910 C   0  0  0  0  0  3  0  0  0  0  0  0
  160.4910  212.4400  151.6420 C   0  0  0  0  0  0  0  0  0  0  0  0
  162.1250  206.3620  150.1500 N   0  0  0  0  0  0  0  0  0  0  0  0
  161.8230  208.6950  149.6400 C   0  0  0  0  0  0  0  0  0  0  0  0
  160.8550  207.8990  153.2060 C   0  0  0  0  0  3  0  0  0  0  0  0
  160.3080  213.8270  151.3780 N   0  0  0  0  0  1  0  0  0  0  0  0
  161.6920  206.5290  151.4130 C   0  0  0  0  0  0  0  0  0  0  0  0
  161.6450  205.4140  152.2560 C   0  0  0  0  0  3  0  0  0  0  0  0
  161.9440  209.6150  148.6420 N   0  0  0  0  0  0  0  0  0  0  0  0
  161.2730  211.8220  149.4370 C   0  0  0  0  0  3  0  0  0  0  0  0
  160.9420  211.5160  150.7310 C   0  0  0  0  0  0  0  0  0  0  0  0
  162.7170  207.0760  147.8970 C   0  0  0  0  0  2  0  0  0  0  0  0
  163.9210  204.7670  146.5080 C   0  0  0  0  0  1  0  0  0  0  0  0
  160.6210  206.1750  147.2240 O   0  0  0  0  0  0  0  0  0  0  0  0
  161.8740  206.0320  147.2330 C   0  0  0  0  0  0  0  0  0  0  0  0
  162.4700  204.8810  146.6150 N   0  0  0  0  0  0  0  0  0  0  0  0
  160.7090  204.3630  144.9930 C   0  0  0  0  0  1  0  0  0  0  0  0
  161.6140  203.8190  146.0830 C   0  0  2  0  0  3  0  0  0  0  0  0
  160.7790  203.1720  147.1820 C   0  0  0  0  0  2  0  0  0  0  0  0
  160.9280  201.6850  147.1740 C   0  0  0  0  0  0  0  0  0  0  0  0
  161.2150  200.9630  148.4440 C   0  0  0  0  0  1  0  0  0  0  0  0
  160.8470  201.0610  146.1270 O   0  0  0  0  0  0  0  0  0  0  0  0
  1  9  1  0  0  0  0
  2  3  1  0  0  0  0
  2  5  1  0  0  0  0
  3  7  2  0  0  0  0
  5 14  1  0  0  0  0
  6  1  1  0  0  0  0
  7  4  1  0  0  0  0
  8 13  1  0  0  0  0
  8 12  2  0  0  0  0
 10 18  2  0  0  0  0
 10 19  1  0  0  0  0
 11  4  2  0  0  0  0
 12 16  1  0  0  0  0
 13  2  2  0  0  0  0
 14  1  2  0  0  0  0
 15 11  1  0  0  0  0
 16  5  2  0  0  0  0
 16 17  1  0  0  0  0
 17  6  2  0  0  0  0
 18 13  1  0  0  0  0
 19 20  2  0  0  0  0
 20  3  1  0  0  0  0
 20 11  1  0  0  0  0
 21  8  1  0  0  0  0
 22 25  1  0  0  0  0
 23 24  2  0  0  0  0
 24 21  1  0  0  0  0
 25 24  1  0  0  0  0
 27 26  1  6  0  0  0
 27 25  1  0  0  0  0
 27 28  1  0  0  0  0
 29 28  1  0  0  0  0
 29 30  1  0  0  0  0
 31 29  2  0  0  0  0
M  END
>  <MODEL>
9

>  <REMARK>
 VINA RESULT:      -6.6      2.185      3.186
  Name = 
  5 active torsions:
  status: ('A' for Active; 'I' for Inactive)
    1  A    between atoms: C_1  and  C_24
    2  A    between atoms: C_9  and  C_23
    3  A    between atoms: C_15  and  C_23
    4  A    between atoms: C_19  and  N_22
    5  A    between atoms: C_19  and  C_24
                            x       y       z     vdW  Elec       q    Type
                         _______ _______ _______ _____ _____    ______ ____

>  <TORSDO>
F 5

$$$$
