=
 OpenBabel11062409193D

 37 41  0  0  1  0  0  0  0  0999 V2000
  161.7300  211.0800  154.7730 C   0  0  0  0  0  2  0  0  0  0  0  0
  162.0440  209.3330  150.6090 C   0  0  2  0  0  3  0  0  0  0  0  0
  162.0740  210.8060  156.2270 C   0  0  2  0  0  3  0  0  0  0  0  0
  160.2900  206.7580  153.0900 C   0  0  0  0  0  2  0  0  0  0  0  0
  161.5840  208.5920  151.8740 C   0  0  2  0  0  3  0  0  0  0  0  0
  161.2520  210.6230  150.5480 C   0  0  1  0  0  3  0  0  0  0  0  0
  160.6400  207.3680  151.7200 C   0  0  1  0  0  3  0  0  0  0  0  0
  162.0270  209.2950  156.4050 C   0  0  0  0  0  2  0  0  0  0  0  0
  160.9080  210.9470  151.9950 C   0  0  2  0  0  3  0  0  0  0  0  0
  162.9100  207.3430  149.2970 C   0  0  0  0  0  2  0  0  0  0  0  0
  161.3850  208.7170  155.1450 C   0  0  2  0  0  0  0  0  0  0  0  0
  161.4990  206.4810  153.9370 C   0  0  0  0  0  3  0  0  0  0  0  0
  161.9780  208.5580  149.2950 C   0  0  0  0  0  2  0  0  0  0  0  0
  160.9600  209.6410  152.7850 C   0  0  2  0  0  3  0  0  0  0  0  0
  161.0890  206.3010  150.6810 C   0  0  1  0  0  3  0  0  0  0  0  0
  161.9790  207.3520  154.8410 C   0  0  0  0  0  3  0  0  0  0  0  0
  161.7910  209.7320  154.0760 C   0  0  1  0  0  3  0  0  0  0  0  0
  162.5840  206.3280  150.3950 C   0  0  0  0  0  2  0  0  0  0  0  0
  159.9660  208.6890  155.2640 O   0  0  0  0  0  0  0  0  0  0  0  0
  159.5940  208.1000  156.4870 C   0  0  0  0  0  1  0  0  0  0  0  0
  160.1520  212.3900  156.3480 C   0  0  0  0  0  1  0  0  0  0  0  0
  161.0510  211.4600  157.1400 C   0  0  0  0  0  2  0  0  0  0  0  0
  159.5410  211.6210  152.1570 C   0  0  1  0  0  3  0  0  0  0  0  0
  158.6890  210.8760  153.1710 C   0  0  0  0  0  1  0  0  0  0  0  0
  159.6560  213.1000  152.5220 C   0  0  0  0  0  2  0  0  0  0  0  0
  159.3310  213.9850  151.3300 C   0  0  0  0  0  2  0  0  0  0  0  0
  158.5200  213.2970  150.4270 O   0  0  0  0  0  1  0  0  0  0  0  0
  160.6000  204.8770  150.9340 C   0  0  0  0  0  2  0  0  0  0  0  0
  161.0700  204.2510  148.5780 C   0  0  0  0  0  2  0  0  0  0  0  0
  160.7490  202.4890  150.1990 C   0  0  0  0  0  2  0  0  0  0  0  0
  161.4630  200.7580  148.7230 O   0  0  0  0  0  1  0  0  0  0  0  0
  161.1270  202.9380  147.8320 C   0  0  0  0  0  2  0  0  0  0  0  0
  160.6450  201.8840  148.8090 C   0  0  2  0  0  3  0  0  0  0  0  0
  161.3110  203.8880  150.0240 C   0  0  2  0  0  3  0  0  0  0  0  0
  162.0990  211.7430  149.9620 C   0  0  0  0  0  2  0  0  0  0  0  0
  161.5640  212.1630  148.6090 C   0  0  0  0  0  2  0  0  0  0  0  0
  162.7160  212.5550  147.7100 C   0  0  0  0  0  1  0  0  0  0  0  0
  1  3  1  0  0  0  0
  2 13  1  6  0  0  0
  2  5  1  0  0  0  0
  3  8  1  0  0  0  0
  3 22  1  1  0  0  0
  4 12  1  0  0  0  0
  5 14  1  0  0  0  0
  6  2  1  0  0  0  0
  6  9  1  0  0  0  0
  7  5  1  0  0  0  0
  7  4  1  0  0  0  0
  9 23  1  0  0  0  0
  9 14  1  0  0  0  0
 10 18  1  0  0  0  0
 11 19  1  0  0  0  0
 11  8  1  0  0  0  0
 12 16  2  0  0  0  0
 13 10  1  0  0  0  0
 14 17  1  0  0  0  0
 15 28  1  0  0  0  0
 15  7  1  0  0  0  0
 16 11  1  0  0  0  0
 17  1  1  0  0  0  0
 17 11  1  0  0  0  0
 18 15  1  0  0  0  0
 19 20  1  0  0  0  0
 21 22  1  0  0  0  0
 23 25  1  0  0  0  0
 23 24  1  0  0  0  0
 26 25  1  0  0  0  0
 27 26  1  0  0  0  0
 29 34  1  0  0  0  0
 31 33  1  0  0  0  0
 32 29  1  0  0  0  0
 32 33  1  0  0  0  0
 33 30  1  0  0  0  0
 34 30  1  0  0  0  0
 34 28  1  0  0  0  0
 35  6  1  0  0  0  0
 36 35  1  0  0  0  0
 37 36  1  0  0  0  0
M  END
>  <MODEL>
1

>  <REMARK>
 VINA RESULT:      -5.7      0.000      0.000
  Name = 
  9 active torsions:
  status: ('A' for Active; 'I' for Inactive)
    1  A    between atoms: C_3  and  C_32
    2  A    between atoms: C_5  and  C_23
    3  A    between atoms: C_6  and  C_31
    4  A    between atoms: C_6  and  C_35
    5  A    between atoms: C_9  and  C_13
    6  A    between atoms: C_9  and  C_16
    7  A    between atoms: O_11  and  C_26
    8  A    between atoms: C_20  and  C_21
    9  A    between atoms: C_21  and  C_32
                            x       y       z     vdW  Elec       q    Type
                         _______ _______ _______ _____ _____    ______ ____

>  <TORSDO>
F 9

$$$$
=
 OpenBabel11062409193D

 37 41  0  0  1  0  0  0  0  0999 V2000
  161.3820  210.7960  154.8660 C   0  0  0  0  0  2  0  0  0  0  0  0
  161.8160  209.9900  150.4330 C   0  0  2  0  0  3  0  0  0  0  0  0
  161.7980  210.2820  156.2340 C   0  0  2  0  0  3  0  0  0  0  0  0
  160.4890  206.7500  152.3310 C   0  0  0  0  0  2  0  0  0  0  0  0
  161.4930  208.9510  151.5190 C   0  0  2  0  0  3  0  0  0  0  0  0
  160.8570  211.1440  150.6360 C   0  0  1  0  0  3  0  0  0  0  0  0
  160.7180  207.6670  151.1160 C   0  0  1  0  0  3  0  0  0  0  0  0
  161.9580  208.7740  156.0990 C   0  0  0  0  0  2  0  0  0  0  0  0
  160.5120  211.1180  152.1180 C   0  0  2  0  0  3  0  0  0  0  0  0
  162.9050  208.4450  148.7430 C   0  0  0  0  0  2  0  0  0  0  0  0
  161.3660  208.3810  154.7460 C   0  0  2  0  0  0  0  0  0  0  0  0
  161.7470  206.4740  153.1060 C   0  0  0  0  0  3  0  0  0  0  0  0
  161.8190  209.4960  148.9880 C   0  0  0  0  0  2  0  0  0  0  0  0
  160.7590  209.6990  152.6250 C   0  0  2  0  0  3  0  0  0  0  0  0
  161.2780  206.9050  149.8820 C   0  0  1  0  0  3  0  0  0  0  0  0
  162.1290  207.2010  154.1700 C   0  0  0  0  0  3  0  0  0  0  0  0
  161.6040  209.6380  153.9080 C   0  0  1  0  0  3  0  0  0  0  0  0
  162.7480  207.1930  149.6090 C   0  0  0  0  0  2  0  0  0  0  0  0
  159.9680  208.1370  154.8550 O   0  0  0  0  0  0  0  0  0  0  0  0
  159.7050  207.3120  155.9650 C   0  0  0  0  0  1  0  0  0  0  0  0
  160.1420  211.9710  157.0210 C   0  0  0  0  0  1  0  0  0  0  0  0
  160.7210  210.5900  157.2600 C   0  0  0  0  0  2  0  0  0  0  0  0
  159.0710  211.5520  152.4140 C   0  0  1  0  0  3  0  0  0  0  0  0
  158.5540  210.8810  153.6750 C   0  0  0  0  0  1  0  0  0  0  0  0
  158.9220  213.0700  152.5010 C   0  0  0  0  0  2  0  0  0  0  0  0
  158.1540  213.4730  153.7490 C   0  0  0  0  0  2  0  0  0  0  0  0
  156.7880  213.5360  153.4740 O   0  0  0  0  0  1  0  0  0  0  0  0
  160.9920  205.4060  149.8370 C   0  0  0  0  0  2  0  0  0  0  0  0
  161.7820  204.0960  147.8810 C   0  0  0  0  0  2  0  0  0  0  0  0
  160.5650  206.1450  147.4840 C   0  0  0  0  0  2  0  0  0  0  0  0
  160.3280  205.7590  145.1430 O   0  0  0  0  0  1  0  0  0  0  0  0
  161.7600  204.3240  146.3870 C   0  0  0  0  0  2  0  0  0  0  0  0
  161.2490  205.7370  146.1900 C   0  0  2  0  0  3  0  0  0  0  0  0
  160.6640  204.9560  148.4220 C   0  0  2  0  0  3  0  0  0  0  0  0
  161.5310  212.4650  150.2940 C   0  0  0  0  0  2  0  0  0  0  0  0
  161.1190  212.9290  148.9110 C   0  0  0  0  0  2  0  0  0  0  0  0
  162.3520  213.1130  148.0530 C   0  0  0  0  0  1  0  0  0  0  0  0
  1  3  1  0  0  0  0
  2 13  1  6  0  0  0
  2  6  1  0  0  0  0
  2  5  1  0  0  0  0
  3 22  1  1  0  0  0
  4 12  1  0  0  0  0
  5 14  1  0  0  0  0
  6  9  1  0  0  0  0
  7  5  1  0  0  0  0
  7  4  1  0  0  0  0
  8  3  1  0  0  0  0
  9 23  1  0  0  0  0
  9 14  1  0  0  0  0
 10 13  1  0  0  0  0
 10 18  1  0  0  0  0
 11 19  1  0  0  0  0
 11  8  1  0  0  0  0
 12 16  2  0  0  0  0
 14 17  1  0  0  0  0
 15  7  1  0  0  0  0
 16 11  1  0  0  0  0
 17 11  1  0  0  0  0
 17  1  1  0  0  0  0
 18 15  1  0  0  0  0
 19 20  1  0  0  0  0
 21 22  1  0  0  0  0
 23 25  1  0  0  0  0
 23 24  1  0  0  0  0
 25 26  1  0  0  0  0
 27 26  1  0  0  0  0
 28 15  1  0  0  0  0
 29 34  1  0  0  0  0
 30 34  1  0  0  0  0
 31 33  1  0  0  0  0
 32 29  1  0  0  0  0
 33 32  1  0  0  0  0
 33 30  1  0  0  0  0
 34 28  1  0  0  0  0
 35  6  1  0  0  0  0
 36 35  1  0  0  0  0
 37 36  1  0  0  0  0
M  END
>  <MODEL>
2

>  <REMARK>
 VINA RESULT:      -4.5      1.570      1.870
  Name = 
  9 active torsions:
  status: ('A' for Active; 'I' for Inactive)
    1  A    between atoms: C_3  and  C_32
    2  A    between atoms: C_5  and  C_23
    3  A    between atoms: C_6  and  C_31
    4  A    between atoms: C_6  and  C_35
    5  A    between atoms: C_9  and  C_13
    6  A    between atoms: C_9  and  C_16
    7  A    between atoms: O_11  and  C_26
    8  A    between atoms: C_20  and  C_21
    9  A    between atoms: C_21  and  C_32
                            x       y       z     vdW  Elec       q    Type
                         _______ _______ _______ _____ _____    ______ ____

>  <TORSDO>
F 9

$$$$
=
 OpenBabel11062409193D

 37 41  0  0  1  0  0  0  0  0999 V2000
  157.9210  210.4910  155.0800 C   0  0  0  0  0  2  0  0  0  0  0  0
  160.8820  208.5910  152.2320 C   0  0  2  0  0  3  0  0  0  0  0  0
  156.7150  211.4140  155.1310 C   0  0  2  0  0  3  0  0  0  0  0  0
  160.8140  212.5460  151.7630 C   0  0  0  0  0  2  0  0  0  0  0  0
  160.4480  210.0660  152.2430 C   0  0  2  0  0  3  0  0  0  0  0  0
  161.2660  208.2400  153.6540 C   0  0  1  0  0  3  0  0  0  0  0  0
  161.4190  211.1340  151.6680 C   0  0  1  0  0  3  0  0  0  0  0  0
  156.8750  212.3980  153.9790 C   0  0  0  0  0  2  0  0  0  0  0  0
  160.4480  209.1780  154.5300 C   0  0  2  0  0  3  0  0  0  0  0  0
  161.5160  208.4020  149.7840 C   0  0  0  0  0  2  0  0  0  0  0  0
  158.2950  212.2300  153.4420 C   0  0  2  0  0  0  0  0  0  0  0  0
  159.4240  212.6310  151.1980 C   0  0  0  0  0  3  0  0  0  0  0  0
  161.9690  208.2020  151.2330 C   0  0  0  0  0  2  0  0  0  0  0  0
  160.0780  210.3950  153.6840 C   0  0  2  0  0  3  0  0  0  0  0  0
  162.0020  210.8210  150.2610 C   0  0  1  0  0  3  0  0  0  0  0  0
  158.3160  212.4870  151.9450 C   0  0  0  0  0  3  0  0  0  0  0  0
  158.5850  210.7580  153.7400 C   0  0  1  0  0  3  0  0  0  0  0  0
  161.1490  209.8510  149.4540 C   0  0  0  0  0  2  0  0  0  0  0  0
  159.2100  213.0520  154.1580 O   0  0  0  0  0  0  0  0  0  0  0  0
  158.6880  214.3520  154.2970 C   0  0  0  0  0  1  0  0  0  0  0  0
  157.9410  211.8770  157.2520 C   0  0  0  0  0  1  0  0  0  0  0  0
  156.6890  212.1710  156.4480 C   0  0  0  0  0  2  0  0  0  0  0  0
  161.1810  209.6120  155.8050 C   0  0  1  0  0  3  0  0  0  0  0  0
  161.6170  208.4020  156.6140 C   0  0  0  0  0  1  0  0  0  0  0  0
  162.3650  210.5320  155.5150 C   0  0  0  0  0  2  0  0  0  0  0  0
  163.1290  210.8590  156.7880 C   0  0  0  0  0  2  0  0  0  0  0  0
  164.3770  211.3990  156.4770 O   0  0  0  0  0  1  0  0  0  0  0  0
  162.4040  212.0310  149.4210 C   0  0  0  0  0  2  0  0  0  0  0  0
  162.7420  212.5430  147.0150 C   0  0  0  0  0  2  0  0  0  0  0  0
  160.5310  212.8000  147.9510 C   0  0  0  0  0  2  0  0  0  0  0  0
  159.4790  213.1130  145.8340 O   0  0  0  0  0  1  0  0  0  0  0  0
  161.8550  213.0980  145.9250 C   0  0  0  0  0  2  0  0  0  0  0  0
  160.5680  213.5110  146.6080 C   0  0  2  0  0  3  0  0  0  0  0  0
  161.7910  211.9580  148.0310 C   0  0  2  0  0  3  0  0  0  0  0  0
  160.8940  206.7980  153.9670 C   0  0  0  0  0  2  0  0  0  0  0  0
  161.8800  205.8430  153.3250 C   0  0  0  0  0  2  0  0  0  0  0  0
  161.1250  204.7780  152.5600 C   0  0  0  0  0  1  0  0  0  0  0  0
  1  3  1  0  0  0  0
  2 13  1  6  0  0  0
  2  5  1  0  0  0  0
  2  6  1  0  0  0  0
  3 22  1  1  0  0  0
  5 14  1  0  0  0  0
  6 35  1  0  0  0  0
  6  9  1  0  0  0  0
  7  4  1  0  0  0  0
  7  5  1  0  0  0  0
  8  3  1  0  0  0  0
  9 23  1  0  0  0  0
 10 13  1  0  0  0  0
 11 17  1  0  0  0  0
 11  8  1  0  0  0  0
 11 19  1  0  0  0  0
 12  4  1  0  0  0  0
 12 16  2  0  0  0  0
 14 17  1  0  0  0  0
 14  9  1  0  0  0  0
 15  7  1  0  0  0  0
 16 11  1  0  0  0  0
 17  1  1  0  0  0  0
 18 10  1  0  0  0  0
 18 15  1  0  0  0  0
 19 20  1  0  0  0  0
 22 21  1  0  0  0  0
 23 24  1  0  0  0  0
 25 23  1  0  0  0  0
 25 26  1  0  0  0  0
 27 26  1  0  0  0  0
 28 15  1  0  0  0  0
 29 34  1  0  0  0  0
 30 34  1  0  0  0  0
 31 33  1  0  0  0  0
 32 33  1  0  0  0  0
 32 29  1  0  0  0  0
 33 30  1  0  0  0  0
 34 28  1  0  0  0  0
 36 35  1  0  0  0  0
 37 36  1  0  0  0  0
M  END
>  <MODEL>
3

>  <REMARK>
 VINA RESULT:      -3.8      3.022      6.483
  Name = 
  9 active torsions:
  status: ('A' for Active; 'I' for Inactive)
    1  A    between atoms: C_3  and  C_32
    2  A    between atoms: C_5  and  C_23
    3  A    between atoms: C_6  and  C_31
    4  A    between atoms: C_6  and  C_35
    5  A    between atoms: C_9  and  C_13
    6  A    between atoms: C_9  and  C_16
    7  A    between atoms: O_11  and  C_26
    8  A    between atoms: C_20  and  C_21
    9  A    between atoms: C_21  and  C_32
                            x       y       z     vdW  Elec       q    Type
                         _______ _______ _______ _____ _____    ______ ____

>  <TORSDO>
F 9

$$$$
