=
 OpenBabel11062409103D

 37 40  0  0  1  0  0  0  0  0999 V2000
  161.7060  209.9880  151.7200 C   0  0  2  0  0  3  0  0  0  0  0  0
  160.6180  213.0980  150.3860 C   0  0  0  0  0  2  0  0  0  0  0  0
  161.6960  209.5690  153.1690 C   0  0  1  0  0  3  0  0  0  0  0  0
  160.7860  210.9790  151.4230 O   0  0  0  0  0  0  0  0  0  0  0  0
  161.2230  210.5670  154.1550 N   0  0  0  0  0  0  0  0  0  0  0  0
  161.3490  211.7510  150.4010 C   0  0  1  0  0  3  0  0  0  0  0  0
  160.9140  208.2730  153.1370 C   0  0  0  0  0  2  0  0  0  0  0  0
  161.3790  210.2680  155.5600 C   0  0  0  0  0  0  0  0  0  0  0  0
  161.8740  208.5360  149.6770 C   0  0  0  0  0  2  0  0  0  0  0  0
  161.1830  207.6820  151.8880 O   0  0  0  0  0  0  0  0  0  0  0  0
  161.3710  211.1990  156.4070 O   0  0  0  0  0  0  0  0  0  0  0  0
  160.4240  213.6930  151.7920 C   0  0  0  0  0  2  0  0  0  0  0  0
  161.1730  208.7750  151.0110 C   0  0  1  0  0  3  0  0  0  0  0  0
  161.1030  211.8800  153.7920 O   0  0  0  0  0  0  0  0  0  0  0  0
  161.2510  211.0020  149.0360 C   0  0  2  0  0  3  0  0  0  0  0  0
  159.2810  213.0500  152.6180 C   0  0  2  0  0  3  0  0  0  0  0  0
  159.7290  212.1960  153.8310 C   0  0  2  0  0  3  0  0  0  0  0  0
  162.2660  209.8390  148.9420 C   0  0  0  0  0  2  0  0  0  0  0  0
  162.7020  212.5010  147.6560 C   0  0  0  0  0  3  0  0  0  0  0  0
  161.4480  211.9150  147.8610 C   0  0  0  0  0  0  0  0  0  0  0  0
  160.3990  212.1890  146.9680 C   0  0  0  0  0  3  0  0  0  0  0  0
  159.5970  213.3040  145.0200 F   0  0  0  0  0  0  0  0  0  0  0  0
  161.8650  213.6240  145.6800 C   0  0  0  0  0  3  0  0  0  0  0  0
  160.6100  213.0420  145.8800 C   0  0  0  0  0  0  0  0  0  0  0  0
  162.9110  213.3540  146.5680 C   0  0  0  0  0  3  0  0  0  0  0  0
  157.4740  211.4380  152.5350 O   0  0  0  0  0  1  0  0  0  0  0  0
  158.1630  212.3960  151.7860 C   0  0  1  0  0  3  0  0  0  0  0  0
  157.1840  213.4520  151.3000 C   0  0  0  0  0  2  0  0  0  0  0  0
  157.0240  213.3610  149.7960 C   0  0  0  0  0  1  0  0  0  0  0  0
  159.4340  212.9710  155.1110 C   0  0  0  0  0  2  0  0  0  0  0  0
  158.2630  212.3740  155.8700 C   0  0  2  0  0  3  0  0  0  0  0  0
  158.0860  211.0530  155.5010 F   0  0  0  0  0  0  0  0  0  0  0  0
  157.0070  213.1520  155.5400 C   0  0  0  0  0  1  0  0  0  0  0  0
  161.6130  208.8740  156.0460 C   0  0  0  0  0  2  0  0  0  0  0  0
  160.9480  208.6820  157.2570 O   0  0  0  0  0  0  0  0  0  0  0  0
  159.5450  207.2310  156.1990 O   0  0  0  0  0  1  0  0  0  0  0  0
  160.5020  207.3610  157.2050 C   0  0  0  0  0  2  0  0  0  0  0  0
  1  4  1  1  0  0  0
  1  3  1  0  0  0  0
  2 12  1  0  0  0  0
  3  7  1  6  0  0  0
  3  5  1  0  0  0  0
  5  8  1  0  0  0  0
  6  2  1  6  0  0  0
  6  4  1  0  0  0  0
  8 34  1  0  0  0  0
  8 11  2  0  0  0  0
 10  7  1  0  0  0  0
 12 16  1  0  0  0  0
 13  9  1  6  0  0  0
 13  1  1  0  0  0  0
 13 10  1  0  0  0  0
 14 17  1  0  0  0  0
 14  5  1  0  0  0  0
 15 20  1  6  0  0  0
 15  6  1  0  0  0  0
 16 27  1  6  0  0  0
 16 17  1  0  0  0  0
 17 30  1  1  0  0  0
 18 15  1  0  0  0  0
 18  9  1  0  0  0  0
 19 20  1  0  0  0  0
 21 20  2  0  0  0  0
 22 24  1  0  0  0  0
 23 24  2  0  0  0  0
 23 25  1  0  0  0  0
 24 21  1  0  0  0  0
 25 19  2  0  0  0  0
 27 26  1  1  0  0  0
 28 27  1  0  0  0  0
 29 28  1  0  0  0  0
 30 31  1  0  0  0  0
 31 33  1  6  0  0  0
 32 31  1  0  0  0  0
 34 35  1  0  0  0  0
 36 37  1  0  0  0  0
 37 35  1  0  0  0  0
M  END
>  <MODEL>
1

>  <REMARK>
 VINA RESULT:      -3.2      0.000      0.000
  Name = 
  8 active torsions:
  status: ('A' for Active; 'I' for Inactive)
    1  A    between atoms: C_1  and  C_5
    2  A    between atoms: C_1  and  C_36
    3  A    between atoms: O_3  and  C_30
    4  A    between atoms: O_3  and  C_32
    5  A    between atoms: C_6  and  C_31
    6  A    between atoms: C_11  and  C_26
    7  A    between atoms: C_20  and  C_30
    8  A    between atoms: C_26  and  C_33
                            x       y       z     vdW  Elec       q    Type
                         _______ _______ _______ _____ _____    ______ ____

>  <TORSDO>
F 8

$$$$
=
 OpenBabel11062409103D

 37 40  0  0  1  0  0  0  0  0999 V2000
  160.8900  210.0660  150.4960 C   0  0  2  0  0  3  0  0  0  0  0  0
  160.5150  207.9070  153.2940 C   0  0  0  0  0  2  0  0  0  0  0  0
  160.6150  211.5480  150.4500 C   0  0  1  0  0  3  0  0  0  0  0  0
  161.1650  209.5920  151.7670 O   0  0  0  0  0  0  0  0  0  0  0  0
  160.0930  212.1740  151.6850 N   0  0  0  0  0  0  0  0  0  0  0  0
  160.6760  208.2820  151.8170 C   0  0  1  0  0  3  0  0  0  0  0  0
  161.9240  212.1160  149.9420 C   0  0  0  0  0  2  0  0  0  0  0  0
  159.6410  213.5450  151.6200 C   0  0  0  0  0  0  0  0  0  0  0  0
  162.2620  208.6840  148.9080 C   0  0  0  0  0  2  0  0  0  0  0  0
  162.4750  211.1370  149.0950 O   0  0  0  0  0  0  0  0  0  0  0  0
  158.8480  213.9890  152.4910 O   0  0  0  0  0  0  0  0  0  0  0  0
  159.8490  209.0160  154.1270 C   0  0  0  0  0  2  0  0  0  0  0  0
  162.2010  209.9410  149.7710 C   0  0  1  0  0  3  0  0  0  0  0  0
  159.6040  211.3900  152.6940 O   0  0  0  0  0  0  0  0  0  0  0  0
  161.6350  207.3140  151.0550 C   0  0  2  0  0  3  0  0  0  0  0  0
  160.7810  210.1980  154.4990 C   0  0  2  0  0  3  0  0  0  0  0  0
  160.4720  211.5420  153.7950 C   0  0  2  0  0  3  0  0  0  0  0  0
  161.5180  207.4760  149.5210 C   0  0  0  0  0  2  0  0  0  0  0  0
  161.4860  205.4830  152.7530 C   0  0  0  0  0  3  0  0  0  0  0  0
  161.4040  205.8740  151.4120 C   0  0  0  0  0  0  0  0  0  0  0  0
  161.1090  204.9190  150.4260 C   0  0  0  0  0  3  0  0  0  0  0  0
  160.6120  202.6640  149.8320 F   0  0  0  0  0  0  0  0  0  0  0  0
  160.9790  203.1990  152.1260 C   0  0  0  0  0  3  0  0  0  0  0  0
  160.8970  203.5840  150.7850 C   0  0  0  0  0  0  0  0  0  0  0  0
  161.2730  204.1480  153.1100 C   0  0  0  0  0  3  0  0  0  0  0  0
  162.9770  210.5270  153.5320 O   0  0  0  0  0  1  0  0  0  0  0  0
  162.2820  209.8570  154.5420 C   0  0  1  0  0  3  0  0  0  0  0  0
  162.8690  210.2360  155.8920 C   0  0  0  0  0  2  0  0  0  0  0  0
  162.2460  209.3920  156.9860 C   0  0  0  0  0  1  0  0  0  0  0  0
  159.8310  212.4880  154.8040 C   0  0  0  0  0  2  0  0  0  0  0  0
  158.7010  211.8160  155.5640 C   0  0  2  0  0  3  0  0  0  0  0  0
  157.4830  212.2790  155.1040 F   0  0  0  0  0  0  0  0  0  0  0  0
  158.8300  212.1410  157.0370 C   0  0  0  0  0  1  0  0  0  0  0  0
  160.0430  214.4530  150.5030 C   0  0  0  0  0  2  0  0  0  0  0  0
  159.0530  214.4530  149.5200 O   0  0  0  0  0  0  0  0  0  0  0  0
  159.4450  213.3010  147.5940 O   0  0  0  0  0  1  0  0  0  0  0  0
  159.7570  214.4530  148.3160 C   0  0  0  0  0  2  0  0  0  0  0  0
  1  4  1  1  0  0  0
  2 12  1  0  0  0  0
  3  7  1  1  0  0  0
  3  1  1  0  0  0  0
  3  5  1  0  0  0  0
  4  6  1  0  0  0  0
  5 14  1  0  0  0  0
  6  2  1  1  0  0  0
  8  5  1  0  0  0  0
  8 11  2  0  0  0  0
  9 18  1  0  0  0  0
 10 13  1  0  0  0  0
 10  7  1  0  0  0  0
 12 16  1  0  0  0  0
 13  9  1  6  0  0  0
 13  1  1  0  0  0  0
 14 17  1  0  0  0  0
 15 20  1  6  0  0  0
 15  6  1  0  0  0  0
 16 27  1  6  0  0  0
 17 16  1  0  0  0  0
 17 30  1  1  0  0  0
 18 15  1  0  0  0  0
 19 25  1  0  0  0  0
 20 19  2  0  0  0  0
 21 24  2  0  0  0  0
 21 20  1  0  0  0  0
 22 24  1  0  0  0  0
 23 25  2  0  0  0  0
 24 23  1  0  0  0  0
 27 26  1  6  0  0  0
 27 28  1  0  0  0  0
 28 29  1  0  0  0  0
 30 31  1  0  0  0  0
 31 33  1  1  0  0  0
 32 31  1  0  0  0  0
 34  8  1  0  0  0  0
 35 34  1  0  0  0  0
 36 37  1  0  0  0  0
 37 35  1  0  0  0  0
M  END
>  <MODEL>
2

>  <REMARK>
 VINA RESULT:      -2.9      2.959      6.606
  Name = 
  8 active torsions:
  status: ('A' for Active; 'I' for Inactive)
    1  A    between atoms: C_1  and  C_5
    2  A    between atoms: C_1  and  C_36
    3  A    between atoms: O_3  and  C_30
    4  A    between atoms: O_3  and  C_32
    5  A    between atoms: C_6  and  C_31
    6  A    between atoms: C_11  and  C_26
    7  A    between atoms: C_20  and  C_30
    8  A    between atoms: C_26  and  C_33
                            x       y       z     vdW  Elec       q    Type
                         _______ _______ _______ _____ _____    ______ ____

>  <TORSDO>
F 8

$$$$
=
 OpenBabel11062409103D

 37 40  0  0  1  0  0  0  0  0999 V2000
  160.0600  210.3630  151.7380 C   0  0  2  0  0  3  0  0  0  0  0  0
  160.4180  207.5730  153.9100 C   0  0  0  0  0  2  0  0  0  0  0  0
  159.4070  211.6850  152.0580 C   0  0  1  0  0  3  0  0  0  0  0  0
  160.5200  209.6870  152.8540 O   0  0  0  0  0  0  0  0  0  0  0  0
  158.8120  211.8320  153.4050 N   0  0  0  0  0  0  0  0  0  0  0  0
  160.3920  208.3220  152.5730 C   0  0  1  0  0  3  0  0  0  0  0  0
  160.4930  212.6850  151.7190 C   0  0  0  0  0  2  0  0  0  0  0  0
  158.0170  213.0070  153.6770 C   0  0  0  0  0  0  0  0  0  0  0  0
  161.6510  209.8210  149.8700 C   0  0  0  0  0  2  0  0  0  0  0  0
  161.2300  212.1220  150.6610 O   0  0  0  0  0  0  0  0  0  0  0  0
  157.1860  213.0010  154.6240 O   0  0  0  0  0  0  0  0  0  0  0  0
  159.5350  208.2300  154.9850 C   0  0  0  0  0  2  0  0  0  0  0  0
  161.3150  210.7700  151.0170 C   0  0  1  0  0  3  0  0  0  0  0  0
  158.6020  210.7260  154.1830 O   0  0  0  0  0  0  0  0  0  0  0  0
  161.5240  207.8580  151.6050 C   0  0  2  0  0  3  0  0  0  0  0  0
  160.1480  209.4900  155.6480 C   0  0  2  0  0  3  0  0  0  0  0  0
  159.4610  210.8330  155.2950 C   0  0  2  0  0  3  0  0  0  0  0  0
  161.2820  208.3470  150.1580 C   0  0  0  0  0  2  0  0  0  0  0  0
  162.7460  205.7950  152.3180 C   0  0  0  0  0  3  0  0  0  0  0  0
  161.6960  206.3660  151.5910 C   0  0  0  0  0  0  0  0  0  0  0  0
  160.8240  205.5400  150.8640 C   0  0  0  0  0  3  0  0  0  0  0  0
  160.1620  203.3580  150.1680 F   0  0  0  0  0  0  0  0  0  0  0  0
  162.0550  203.5880  151.5980 C   0  0  0  0  0  3  0  0  0  0  0  0
  161.0050  204.1530  150.8700 C   0  0  0  0  0  0  0  0  0  0  0  0
  162.9260  204.4080  152.3220 C   0  0  0  0  0  3  0  0  0  0  0  0
  162.1250  210.6520  154.8660 O   0  0  0  0  0  1  0  0  0  0  0  0
  161.6860  209.5600  155.6180 C   0  0  1  0  0  3  0  0  0  0  0  0
  162.2330  209.6730  157.0320 C   0  0  0  0  0  2  0  0  0  0  0  0
  163.4190  210.6160  157.0580 C   0  0  0  0  0  1  0  0  0  0  0  0
  158.6550  211.3020  156.5020 C   0  0  0  0  0  2  0  0  0  0  0  0
  159.2880  212.5140  157.1630 C   0  0  2  0  0  3  0  0  0  0  0  0
  158.3620  213.5370  157.2570 F   0  0  0  0  0  0  0  0  0  0  0  0
  160.4590  212.9820  156.3240 C   0  0  0  0  0  1  0  0  0  0  0  0
  158.1050  214.2310  152.8240 C   0  0  0  0  0  2  0  0  0  0  0  0
  156.8800  214.4530  152.1950 O   0  0  0  0  0  0  0  0  0  0  0  0
  156.0000  213.9050  150.1660 O   0  0  0  0  0  1  0  0  0  0  0  0
  157.1550  214.3110  150.8350 C   0  0  0  0  0  2  0  0  0  0  0  0
  1  3  1  0  0  0  0
  1  4  1  1  0  0  0
  2 12  1  0  0  0  0
  3  7  1  1  0  0  0
  3  5  1  0  0  0  0
  5  8  1  0  0  0  0
  5 14  1  0  0  0  0
  6  4  1  0  0  0  0
  6  2  1  1  0  0  0
  8 11  2  0  0  0  0
  9 18  1  0  0  0  0
 10 13  1  0  0  0  0
 10  7  1  0  0  0  0
 12 16  1  0  0  0  0
 13  9  1  6  0  0  0
 13  1  1  0  0  0  0
 14 17  1  0  0  0  0
 15 20  1  6  0  0  0
 15  6  1  0  0  0  0
 16 27  1  6  0  0  0
 17 16  1  0  0  0  0
 17 30  1  1  0  0  0
 18 15  1  0  0  0  0
 19 25  1  0  0  0  0
 20 19  2  0  0  0  0
 21 24  2  0  0  0  0
 21 20  1  0  0  0  0
 22 24  1  0  0  0  0
 23 25  2  0  0  0  0
 24 23  1  0  0  0  0
 27 26  1  6  0  0  0
 27 28  1  0  0  0  0
 28 29  1  0  0  0  0
 30 31  1  0  0  0  0
 31 33  1  6  0  0  0
 31 32  1  0  0  0  0
 34  8  1  0  0  0  0
 35 34  1  0  0  0  0
 36 37  1  0  0  0  0
 37 35  1  0  0  0  0
M  END
>  <MODEL>
3

>  <REMARK>
 VINA RESULT:      -2.3      3.093      6.397
  Name = 
  8 active torsions:
  status: ('A' for Active; 'I' for Inactive)
    1  A    between atoms: C_1  and  C_5
    2  A    between atoms: C_1  and  C_36
    3  A    between atoms: O_3  and  C_30
    4  A    between atoms: O_3  and  C_32
    5  A    between atoms: C_6  and  C_31
    6  A    between atoms: C_11  and  C_26
    7  A    between atoms: C_20  and  C_30
    8  A    between atoms: C_26  and  C_33
                            x       y       z     vdW  Elec       q    Type
                         _______ _______ _______ _____ _____    ______ ____

>  <TORSDO>
F 8

$$$$
=
 OpenBabel11062409103D

 37 40  0  0  1  0  0  0  0  0999 V2000
  160.6970  202.5600  149.4860 C   0  0  2  0  0  3  0  0  0  0  0  0
  160.7880  206.1100  149.3210 C   0  0  0  0  0  2  0  0  0  0  0  0
  160.5540  201.6010  148.3310 C   0  0  1  0  0  3  0  0  0  0  0  0
  161.2150  203.7920  149.1240 O   0  0  0  0  0  0  0  0  0  0  0  0
  160.3910  202.1910  146.9830 N   0  0  0  0  0  0  0  0  0  0  0  0
  160.6350  204.7340  149.9800 C   0  0  1  0  0  3  0  0  0  0  0  0
  161.7550  200.6950  148.4980 C   0  0  0  0  0  2  0  0  0  0  0  0
  160.0620  201.3110  145.8860 C   0  0  0  0  0  0  0  0  0  0  0  0
  161.5330  202.0910  151.8080 C   0  0  0  0  0  2  0  0  0  0  0  0
  162.0040  200.6220  149.8810 O   0  0  0  0  0  0  0  0  0  0  0  0
  159.5350  201.7760  144.8410 O   0  0  0  0  0  0  0  0  0  0  0  0
  160.4350  206.1010  147.8230 C   0  0  0  0  0  2  0  0  0  0  0  0
  161.7880  201.9370  150.3120 C   0  0  1  0  0  3  0  0  0  0  0  0
  160.0800  203.5170  146.8510 O   0  0  0  0  0  0  0  0  0  0  0  0
  161.3000  204.6700  151.3900 C   0  0  2  0  0  3  0  0  0  0  0  0
  161.5310  205.5070  146.9010 C   0  0  2  0  0  3  0  0  0  0  0  0
  161.1890  204.1440  146.2480 C   0  0  2  0  0  3  0  0  0  0  0  0
  160.8460  203.4240  152.1850 C   0  0  0  0  0  2  0  0  0  0  0  0
  160.9020  205.7720  153.6000 C   0  0  0  0  0  3  0  0  0  0  0  0
  161.0300  205.8960  152.2120 C   0  0  0  0  0  0  0  0  0  0  0  0
  160.9040  207.1610  151.6140 C   0  0  0  0  0  3  0  0  0  0  0  0
  160.5350  209.5060  151.8240 F   0  0  0  0  0  0  0  0  0  0  0  0
  160.5290  208.1570  153.7900 C   0  0  0  0  0  3  0  0  0  0  0  0
  160.6550  208.2880  152.4040 C   0  0  0  0  0  0  0  0  0  0  0  0
  160.6510  206.8990  154.3880 C   0  0  0  0  0  3  0  0  0  0  0  0
  163.8400  204.8040  146.6960 O   0  0  0  0  0  1  0  0  0  0  0  0
  162.9630  205.5780  147.4600 C   0  0  1  0  0  3  0  0  0  0  0  0
  163.4500  207.0190  147.4750 C   0  0  0  0  0  2  0  0  0  0  0  0
  162.9630  207.7200  148.7270 C   0  0  0  0  0  1  0  0  0  0  0  0
  160.8880  204.3710  144.7700 C   0  0  0  0  0  2  0  0  0  0  0  0
  161.2410  205.7830  144.3370 C   0  0  2  0  0  3  0  0  0  0  0  0
  160.1910  206.6380  144.6160 F   0  0  0  0  0  0  0  0  0  0  0  0
  161.5040  205.7940  142.8460 C   0  0  0  0  0  1  0  0  0  0  0  0
  160.2740  199.8340  145.9720 C   0  0  0  0  0  2  0  0  0  0  0  0
  161.6250  199.5420  145.7820 O   0  0  0  0  0  0  0  0  0  0  0  0
  160.3260  197.8270  145.0310 O   0  0  0  0  0  1  0  0  0  0  0  0
  161.6340  198.2380  145.2870 C   0  0  0  0  0  2  0  0  0  0  0  0
  1  4  1  6  0  0  0
  1 13  1  0  0  0  0
  3  7  1  6  0  0  0
  3  1  1  0  0  0  0
  4  6  1  0  0  0  0
  5  3  1  0  0  0  0
  6  2  1  6  0  0  0
  6 15  1  0  0  0  0
  7 10  1  0  0  0  0
  8 34  1  0  0  0  0
  8  5  1  0  0  0  0
  9 18  1  0  0  0  0
 10 13  1  0  0  0  0
 11  8  2  0  0  0  0
 12  2  1  0  0  0  0
 13  9  1  1  0  0  0
 14  5  1  0  0  0  0
 15 18  1  0  0  0  0
 15 20  1  1  0  0  0
 16 27  1  1  0  0  0
 16 12  1  0  0  0  0
 17 30  1  6  0  0  0
 17 14  1  0  0  0  0
 17 16  1  0  0  0  0
 19 25  1  0  0  0  0
 20 19  2  0  0  0  0
 21 20  1  0  0  0  0
 21 24  2  0  0  0  0
 22 24  1  0  0  0  0
 23 25  2  0  0  0  0
 24 23  1  0  0  0  0
 27 26  1  6  0  0  0
 27 28  1  0  0  0  0
 28 29  1  0  0  0  0
 31 33  1  6  0  0  0
 31 32  1  0  0  0  0
 31 30  1  0  0  0  0
 35 34  1  0  0  0  0
 36 37  1  0  0  0  0
 37 35  1  0  0  0  0
M  END
>  <MODEL>
4

>  <REMARK>
 VINA RESULT:      -1.3      6.402     10.456
  Name = 
  8 active torsions:
  status: ('A' for Active; 'I' for Inactive)
    1  A    between atoms: C_1  and  C_5
    2  A    between atoms: C_1  and  C_36
    3  A    between atoms: O_3  and  C_30
    4  A    between atoms: O_3  and  C_32
    5  A    between atoms: C_6  and  C_31
    6  A    between atoms: C_11  and  C_26
    7  A    between atoms: C_20  and  C_30
    8  A    between atoms: C_26  and  C_33
                            x       y       z     vdW  Elec       q    Type
                         _______ _______ _______ _____ _____    ______ ____

>  <TORSDO>
F 8

$$$$
=
 OpenBabel11062409103D

 37 40  0  0  1  0  0  0  0  0999 V2000
  160.6970  202.5440  149.4410 C   0  0  2  0  0  3  0  0  0  0  0  0
  160.7900  206.0940  149.2910 C   0  0  0  0  0  2  0  0  0  0  0  0
  160.5510  201.5900  148.2820 C   0  0  1  0  0  3  0  0  0  0  0  0
  161.2150  203.7770  149.0840 O   0  0  0  0  0  0  0  0  0  0  0  0
  160.3870  202.1860  146.9370 N   0  0  0  0  0  0  0  0  0  0  0  0
  160.6370  204.7160  149.9450 C   0  0  1  0  0  3  0  0  0  0  0  0
  161.7520  200.6820  148.4430 C   0  0  0  0  0  2  0  0  0  0  0  0
  160.0560  201.3110  145.8360 C   0  0  0  0  0  0  0  0  0  0  0  0
  161.5360  202.0640  151.7600 C   0  0  0  0  0  2  0  0  0  0  0  0
  162.0040  200.6030  149.8250 O   0  0  0  0  0  0  0  0  0  0  0  0
  159.5280  201.7810  144.7940 O   0  0  0  0  0  0  0  0  0  0  0  0
  160.4350  206.0930  147.7940 C   0  0  0  0  0  2  0  0  0  0  0  0
  161.7890  201.9170  150.2620 C   0  0  1  0  0  3  0  0  0  0  0  0
  160.0770  203.5130  146.8120 O   0  0  0  0  0  0  0  0  0  0  0  0
  161.3040  204.6450  151.3540 C   0  0  2  0  0  3  0  0  0  0  0  0
  161.5290  205.5010  146.8680 C   0  0  2  0  0  3  0  0  0  0  0  0
  161.1860  204.1420  146.2090 C   0  0  2  0  0  3  0  0  0  0  0  0
  160.8500  203.3960  152.1440 C   0  0  0  0  0  2  0  0  0  0  0  0
  160.9680  207.1160  151.5520 C   0  0  0  0  0  3  0  0  0  0  0  0
  161.0360  205.8680  152.1820 C   0  0  0  0  0  0  0  0  0  0  0  0
  160.8510  205.7810  153.5710 C   0  0  0  0  0  3  0  0  0  0  0  0
  160.4220  206.8480  155.6590 F   0  0  0  0  0  0  0  0  0  0  0  0
  160.5330  208.1790  153.6840 C   0  0  0  0  0  3  0  0  0  0  0  0
  160.6000  206.9350  154.3190 C   0  0  0  0  0  0  0  0  0  0  0  0
  160.7180  208.2700  152.3010 C   0  0  0  0  0  3  0  0  0  0  0  0
  163.8340  204.7830  146.6680 O   0  0  0  0  0  1  0  0  0  0  0  0
  162.9630  205.5700  147.4250 C   0  0  1  0  0  3  0  0  0  0  0  0
  163.4580  207.0070  147.4260 C   0  0  0  0  0  2  0  0  0  0  0  0
  162.9190  207.7430  148.6360 C   0  0  0  0  0  1  0  0  0  0  0  0
  160.8820  204.3760  144.7330 C   0  0  0  0  0  2  0  0  0  0  0  0
  161.2480  205.7850  144.3020 C   0  0  2  0  0  3  0  0  0  0  0  0
  160.2070  206.6500  144.5850 F   0  0  0  0  0  0  0  0  0  0  0  0
  161.5090  205.7960  142.8100 C   0  0  0  0  0  1  0  0  0  0  0  0
  160.2670  199.8330  145.9160 C   0  0  0  0  0  2  0  0  0  0  0  0
  161.6160  199.5410  145.7170 O   0  0  0  0  0  0  0  0  0  0  0  0
  160.3180  197.8040  145.0210 O   0  0  0  0  0  1  0  0  0  0  0  0
  161.6250  198.2220  145.2660 C   0  0  0  0  0  2  0  0  0  0  0  0
  1  4  1  6  0  0  0
  1 13  1  0  0  0  0
  3  7  1  6  0  0  0
  3  1  1  0  0  0  0
  4  6  1  0  0  0  0
  5  3  1  0  0  0  0
  6  2  1  6  0  0  0
  6 15  1  0  0  0  0
  7 10  1  0  0  0  0
  8 34  1  0  0  0  0
  8  5  1  0  0  0  0
  9 18  1  0  0  0  0
 10 13  1  0  0  0  0
 11  8  2  0  0  0  0
 12  2  1  0  0  0  0
 13  9  1  1  0  0  0
 14  5  1  0  0  0  0
 15 18  1  0  0  0  0
 15 20  1  1  0  0  0
 16 27  1  1  0  0  0
 16 12  1  0  0  0  0
 17 30  1  6  0  0  0
 17 14  1  0  0  0  0
 17 16  1  0  0  0  0
 19 20  2  0  0  0  0
 19 25  1  0  0  0  0
 20 21  1  0  0  0  0
 21 24  2  0  0  0  0
 23 24  1  0  0  0  0
 24 22  1  0  0  0  0
 25 23  2  0  0  0  0
 27 26  1  6  0  0  0
 27 28  1  0  0  0  0
 28 29  1  0  0  0  0
 31 33  1  6  0  0  0
 31 32  1  0  0  0  0
 31 30  1  0  0  0  0
 35 34  1  0  0  0  0
 36 37  1  0  0  0  0
 37 35  1  0  0  0  0
M  END
>  <MODEL>
5

>  <REMARK>
 VINA RESULT:      -1.2      6.427     10.596
  Name = 
  8 active torsions:
  status: ('A' for Active; 'I' for Inactive)
    1  A    between atoms: C_1  and  C_5
    2  A    between atoms: C_1  and  C_36
    3  A    between atoms: O_3  and  C_30
    4  A    between atoms: O_3  and  C_32
    5  A    between atoms: C_6  and  C_31
    6  A    between atoms: C_11  and  C_26
    7  A    between atoms: C_20  and  C_30
    8  A    between atoms: C_26  and  C_33
                            x       y       z     vdW  Elec       q    Type
                         _______ _______ _______ _____ _____    ______ ____

>  <TORSDO>
F 8

$$$$
=
 OpenBabel11062409103D

 37 40  0  0  1  0  0  0  0  0999 V2000
  161.3440  207.0190  148.7350 C   0  0  2  0  0  3  0  0  0  0  0  0
  160.4690  203.6560  149.4800 C   0  0  0  0  0  2  0  0  0  0  0  0
  161.3070  208.1970  149.6770 C   0  0  1  0  0  3  0  0  0  0  0  0
  161.4640  205.7990  149.3770 O   0  0  0  0  0  0  0  0  0  0  0  0
  160.8140  207.9450  151.0500 N   0  0  0  0  0  0  0  0  0  0  0  0
  160.7750  204.8680  148.5930 C   0  0  1  0  0  3  0  0  0  0  0  0
  162.7160  208.7420  149.5870 C   0  0  0  0  0  2  0  0  0  0  0  0
  160.5870  209.0790  151.9150 C   0  0  0  0  0  0  0  0  0  0  0  0
  162.5780  206.8030  146.5580 C   0  0  0  0  0  2  0  0  0  0  0  0
  163.1590  208.4750  148.2780 O   0  0  0  0  0  0  0  0  0  0  0  0
  159.8210  208.9710  152.9090 O   0  0  0  0  0  0  0  0  0  0  0  0
  159.9340  204.0470  150.8690 C   0  0  0  0  0  2  0  0  0  0  0  0
  162.6620  207.1890  148.0310 C   0  0  1  0  0  3  0  0  0  0  0  0
  160.1490  206.7830  151.3340 O   0  0  0  0  0  0  0  0  0  0  0  0
  161.6160  204.4890  147.3340 C   0  0  2  0  0  3  0  0  0  0  0  0
  161.0140  204.5390  151.8660 C   0  0  2  0  0  3  0  0  0  0  0  0
  160.9620  206.0470  152.2200 C   0  0  2  0  0  3  0  0  0  0  0  0
  161.6190  205.6220  146.2810 C   0  0  0  0  0  2  0  0  0  0  0  0
  160.4120  203.2990  145.4920 C   0  0  0  0  0  3  0  0  0  0  0  0
  161.1430  203.2220  146.6830 C   0  0  0  0  0  0  0  0  0  0  0  0
  161.4210  201.9660  147.2470 C   0  0  0  0  0  3  0  0  0  0  0  0
  161.2400  199.5900  147.1660 F   0  0  0  0  0  0  0  0  0  0  0  0
  160.2420  200.8840  145.4300 C   0  0  0  0  0  3  0  0  0  0  0  0
  160.9700  200.8000  146.6200 C   0  0  0  0  0  0  0  0  0  0  0  0
  159.9620  202.1320  144.8660 C   0  0  0  0  0  3  0  0  0  0  0  0
  163.3960  204.8550  152.1750 O   0  0  0  0  0  1  0  0  0  0  0  0
  162.4380  204.0220  151.5930 C   0  0  1  0  0  3  0  0  0  0  0  0
  162.5990  202.6130  152.1430 C   0  0  0  0  0  2  0  0  0  0  0  0
  161.8740  201.6220  151.2550 C   0  0  0  0  0  1  0  0  0  0  0  0
  160.4160  206.1980  153.6360 C   0  0  0  0  0  2  0  0  0  0  0  0
  161.3220  207.0590  154.4970 C   0  0  2  0  0  3  0  0  0  0  0  0
  162.5480  206.4390  154.6590 F   0  0  0  0  0  0  0  0  0  0  0  0
  160.6820  207.2490  155.8570 C   0  0  0  0  0  1  0  0  0  0  0  0
  161.1920  210.4170  151.6330 C   0  0  0  0  0  2  0  0  0  0  0  0
  160.7740  211.3330  152.5980 O   0  0  0  0  0  0  0  0  0  0  0  0
  158.6690  212.1690  152.3510 O   0  0  0  0  0  1  0  0  0  0  0  0
  159.9860  212.2440  151.8970 C   0  0  0  0  0  2  0  0  0  0  0  0
  1  4  1  1  0  0  0
  1  3  1  0  0  0  0
  2 12  1  0  0  0  0
  3  7  1  1  0  0  0
  3  5  1  0  0  0  0
  5 14  1  0  0  0  0
  5  8  1  0  0  0  0
  6  4  1  0  0  0  0
  6  2  1  1  0  0  0
  8 11  2  0  0  0  0
 10  7  1  0  0  0  0
 12 16  1  0  0  0  0
 13  9  1  6  0  0  0
 13 10  1  0  0  0  0
 13  1  1  0  0  0  0
 14 17  1  0  0  0  0
 15 20  1  6  0  0  0
 15  6  1  0  0  0  0
 16 27  1  6  0  0  0
 16 17  1  0  0  0  0
 17 30  1  1  0  0  0
 18  9  1  0  0  0  0
 18 15  1  0  0  0  0
 19 20  1  0  0  0  0
 20 21  2  0  0  0  0
 23 24  2  0  0  0  0
 24 22  1  0  0  0  0
 24 21  1  0  0  0  0
 25 23  1  0  0  0  0
 25 19  2  0  0  0  0
 27 28  1  0  0  0  0
 27 26  1  1  0  0  0
 29 28  1  0  0  0  0
 30 31  1  0  0  0  0
 31 32  1  0  0  0  0
 31 33  1  1  0  0  0
 34  8  1  0  0  0  0
 34 35  1  0  0  0  0
 37 36  1  0  0  0  0
 37 35  1  0  0  0  0
M  END
>  <MODEL>
6

>  <REMARK>
 VINA RESULT:      -0.5      5.010      7.983
  Name = 
  8 active torsions:
  status: ('A' for Active; 'I' for Inactive)
    1  A    between atoms: C_1  and  C_5
    2  A    between atoms: C_1  and  C_36
    3  A    between atoms: O_3  and  C_30
    4  A    between atoms: O_3  and  C_32
    5  A    between atoms: C_6  and  C_31
    6  A    between atoms: C_11  and  C_26
    7  A    between atoms: C_20  and  C_30
    8  A    between atoms: C_26  and  C_33
                            x       y       z     vdW  Elec       q    Type
                         _______ _______ _______ _____ _____    ______ ____

>  <TORSDO>
F 8

$$$$
